
  -OEChem-04042215583D

 29 28  0     1  0  0  0  0  0999 V2000
   -3.3722   -3.7622    1.3813 H   0  0  0  0  0  0  0  0  0  0  0  0
   -3.3238   -2.8115    0.8429 C   0  0  0  0  0  0  0  0  0  0  0  0
   -4.0368   -2.1156    1.2915 H   0  0  0  0  0  0  0  0  0  0  0  0
   -3.5993   -2.9832   -0.2005 H   0  0  0  0  0  0  0  0  0  0  0  0
   -1.9215   -2.2383    0.9190 C   0  0  0  0  0  0  0  0  0  0  0  0
   -1.0448   -2.8433    1.5159 O   0  0  0  0  0  0  0  0  0  0  0  0
   -1.6441   -1.0269    0.3205 N   0  0  0  0  0  0  0  0  0  0  0  0
   -2.4210   -0.5199   -0.1008 H   0  0  0  0  0  0  0  0  0  0  0  0
   -0.3453   -0.3435    0.3732 C   0  0  1  0  0  0  0  0  0  0  0  0
    0.2762   -0.7654    1.1694 H   0  0  0  0  0  0  0  0  0  0  0  0
    0.3511   -0.5739   -0.9795 C   0  0  0  0  0  0  0  0  0  0  0  0
    0.4619   -1.6525   -1.1407 H   0  0  0  0  0  0  0  0  0  0  0  0
   -0.2845   -0.1848   -1.7833 H   0  0  0  0  0  0  0  0  0  0  0  0
    1.7384    0.0937   -1.0647 C   0  0  0  0  0  0  0  0  0  0  0  0
    1.6414    1.1729   -0.9215 H   0  0  0  0  0  0  0  0  0  0  0  0
    2.3814   -0.3002   -0.2729 H   0  0  0  0  0  0  0  0  0  0  0  0
    2.4240   -0.1399   -2.4099 C   0  0  0  0  0  0  0  0  0  0  0  0
    1.9583   -0.8442   -3.2858 O   0  0  0  0  0  0  0  0  0  0  0  0
    3.6169    0.4546   -2.7064 N   0  0  0  0  0  0  0  0  0  0  0  0
    3.9171    0.3880   -3.6748 H   0  0  0  0  0  0  0  0  0  0  0  0
    3.9537    1.2074   -2.1166 H   0  0  0  0  0  0  0  0  0  0  0  0
   -0.5460    1.1548    0.6780 C   0  0  0  0  0  0  0  0  0  0  0  0
   -1.4143    1.7890    0.0906 O   0  0  0  0  0  0  0  0  0  0  0  0
    0.2485    1.7925    1.6133 N   0  0  0  0  0  0  0  0  0  0  0  0
    0.8843    1.2150    2.1565 H   0  0  0  0  0  0  0  0  0  0  0  0
    0.0604    3.1858    1.9995 C   0  0  0  0  0  0  0  0  0  0  0  0
   -0.9379    3.3344    2.4246 H   0  0  0  0  0  0  0  0  0  0  0  0
    0.8028    3.4740    2.7501 H   0  0  0  0  0  0  0  0  0  0  0  0
    0.1751    3.8433    1.1312 H   0  0  0  0  0  0  0  0  0  0  0  0
  1  2  1  0  0  0  0
  2  3  1  0  0  0  0
  2  4  1  0  0  0  0
  2  5  1  0  0  0  0
  5  6  2  0  0  0  0
  5  7  1  0  0  0  0
  7  8  1  0  0  0  0
  7  9  1  0  0  0  0
  9 10  1  0  0  0  0
  9 11  1  0  0  0  0
  9 22  1  0  0  0  0
 11 12  1  0  0  0  0
 11 13  1  0  0  0  0
 11 14  1  0  0  0  0
 14 15  1  0  0  0  0
 14 16  1  0  0  0  0
 14 17  1  0  0  0  0
 17 18  2  0  0  0  0
 17 19  1  0  0  0  0
 19 20  1  0  0  0  0
 19 21  1  0  0  0  0
 22 23  2  0  0  0  0
 22 24  1  0  0  0  0
 24 25  1  0  0  0  0
 24 26  1  0  0  0  0
 26 27  1  0  0  0  0
 26 28  1  0  0  0  0
 26 29  1  0  0  0  0
M  END
$$$$

  -OEChem-04042215583D

 29 28  0     1  0  0  0  0  0999 V2000
   -3.4148   -3.7370    1.3383 H   0  0  0  0  0  0  0  0  0  0  0  0
   -3.3524   -2.7756    0.8208 C   0  0  0  0  0  0  0  0  0  0  0  0
   -4.0558   -2.0793    1.2836 H   0  0  0  0  0  0  0  0  0  0  0  0
   -3.6293   -2.9209   -0.2261 H   0  0  0  0  0  0  0  0  0  0  0  0
   -1.9422   -2.2242    0.9113 C   0  0  0  0  0  0  0  0  0  0  0  0
   -1.0833   -2.8389    1.5241 O   0  0  0  0  0  0  0  0  0  0  0  0
   -1.6380   -1.0199    0.3111 N   0  0  0  0  0  0  0  0  0  0  0  0
   -2.4008   -0.5028   -0.1240 H   0  0  0  0  0  0  0  0  0  0  0  0
   -0.3297   -0.3562    0.3802 C   0  0  1  0  0  0  0  0  0  0  0  0
    0.2750   -0.7819    1.1877 H   0  0  0  0  0  0  0  0  0  0  0  0
    0.3814   -0.6070   -0.9626 C   0  0  0  0  0  0  0  0  0  0  0  0
    0.4681   -1.6856   -1.1357 H   0  0  0  0  0  0  0  0  0  0  0  0
   -0.2461   -0.1966   -1.7628 H   0  0  0  0  0  0  0  0  0  0  0  0
    1.7840    0.0322   -1.0470 C   0  0  0  0  0  0  0  0  0  0  0  0
    1.7539    1.0580   -0.6735 H   0  0  0  0  0  0  0  0  0  0  0  0
    2.4833   -0.5334   -0.4254 H   0  0  0  0  0  0  0  0  0  0  0  0
    2.3172    0.0891   -2.4772 C   0  0  0  0  0  0  0  0  0  0  0  0
    1.8864   -0.6093   -3.3753 O   0  0  0  0  0  0  0  0  0  0  0  0
    3.3235    0.9438   -2.8256 N   0  0  0  0  0  0  0  0  0  0  0  0
    3.4984    1.0388   -3.8219 H   0  0  0  0  0  0  0  0  0  0  0  0
    3.5784    1.6905   -2.1887 H   0  0  0  0  0  0  0  0  0  0  0  0
   -0.5213    1.1455    0.6755 C   0  0  0  0  0  0  0  0  0  0  0  0
   -1.3719    1.7862    0.0695 O   0  0  0  0  0  0  0  0  0  0  0  0
    0.2643    1.7793    1.6210 N   0  0  0  0  0  0  0  0  0  0  0  0
    0.8803    1.1961    2.1807 H   0  0  0  0  0  0  0  0  0  0  0  0
    0.0814    3.1747    2.0021 C   0  0  0  0  0  0  0  0  0  0  0  0
   -0.8973    3.3179    2.4720 H   0  0  0  0  0  0  0  0  0  0  0  0
    0.8560    3.4768    2.7135 H   0  0  0  0  0  0  0  0  0  0  0  0
    0.1494    3.8254    1.1238 H   0  0  0  0  0  0  0  0  0  0  0  0
  1  2  1  0  0  0  0
  2  3  1  0  0  0  0
  2  4  1  0  0  0  0
  2  5  1  0  0  0  0
  5  6  2  0  0  0  0
  5  7  1  0  0  0  0
  7  8  1  0  0  0  0
  7  9  1  0  0  0  0
  9 10  1  0  0  0  0
  9 11  1  0  0  0  0
  9 22  1  0  0  0  0
 11 12  1  0  0  0  0
 11 13  1  0  0  0  0
 11 14  1  0  0  0  0
 14 15  1  0  0  0  0
 14 16  1  0  0  0  0
 14 17  1  0  0  0  0
 17 18  2  0  0  0  0
 17 19  1  0  0  0  0
 19 20  1  0  0  0  0
 19 21  1  0  0  0  0
 22 23  2  0  0  0  0
 22 24  1  0  0  0  0
 24 25  1  0  0  0  0
 24 26  1  0  0  0  0
 26 27  1  0  0  0  0
 26 28  1  0  0  0  0
 26 29  1  0  0  0  0
M  END
$$$$

  -OEChem-04042215583D

 29 28  0     1  0  0  0  0  0999 V2000
   -3.5649   -3.5765    1.1257 H   0  0  0  0  0  0  0  0  0  0  0  0
   -3.4131   -2.6153    0.6264 C   0  0  0  0  0  0  0  0  0  0  0  0
   -4.0999   -1.8823    1.0565 H   0  0  0  0  0  0  0  0  0  0  0  0
   -3.6347   -2.7326   -0.4372 H   0  0  0  0  0  0  0  0  0  0  0  0
   -1.9802   -2.1517    0.8085 C   0  0  0  0  0  0  0  0  0  0  0  0
   -1.1977   -2.8243    1.4603 O   0  0  0  0  0  0  0  0  0  0  0  0
   -1.5669   -0.9642    0.2403 N   0  0  0  0  0  0  0  0  0  0  0  0
   -2.2736   -0.3945   -0.2223 H   0  0  0  0  0  0  0  0  0  0  0  0
   -0.2314   -0.3759    0.4122 C   0  0  1  0  0  0  0  0  0  0  0  0
    0.2982   -0.8434    1.2489 H   0  0  0  0  0  0  0  0  0  0  0  0
    0.5425   -0.6378   -0.8928 C   0  0  0  0  0  0  0  0  0  0  0  0
    0.5813   -1.7154   -1.0883 H   0  0  0  0  0  0  0  0  0  0  0  0
   -0.0201   -0.1806   -1.7151 H   0  0  0  0  0  0  0  0  0  0  0  0
    1.9814   -0.0816   -0.8843 C   0  0  0  0  0  0  0  0  0  0  0  0
    2.0666    0.8101   -0.2604 H   0  0  0  0  0  0  0  0  0  0  0  0
    2.6652   -0.8327   -0.4775 H   0  0  0  0  0  0  0  0  0  0  0  0
    2.4187    0.3033   -2.2904 C   0  0  0  0  0  0  0  0  0  0  0  0
    3.1174   -0.4238   -2.9684 O   0  0  0  0  0  0  0  0  0  0  0  0
    2.0117    1.4740   -2.8646 N   0  0  0  0  0  0  0  0  0  0  0  0
    2.1873    1.5673   -3.8607 H   0  0  0  0  0  0  0  0  0  0  0  0
    1.2590    1.9977   -2.4269 H   0  0  0  0  0  0  0  0  0  0  0  0
   -0.3614    1.1334    0.7032 C   0  0  0  0  0  0  0  0  0  0  0  0
   -1.0660    1.8304   -0.0180 O   0  0  0  0  0  0  0  0  0  0  0  0
    0.3803    1.7256    1.7086 N   0  0  0  0  0  0  0  0  0  0  0  0
    0.9148    1.1139    2.3201 H   0  0  0  0  0  0  0  0  0  0  0  0
    0.3103    3.1477    2.0228 C   0  0  0  0  0  0  0  0  0  0  0  0
   -0.7043    3.4228    2.3298 H   0  0  0  0  0  0  0  0  0  0  0  0
    0.9969    3.3887    2.8402 H   0  0  0  0  0  0  0  0  0  0  0  0
    0.5899    3.7477    1.1502 H   0  0  0  0  0  0  0  0  0  0  0  0
  1  2  1  0  0  0  0
  2  3  1  0  0  0  0
  2  4  1  0  0  0  0
  2  5  1  0  0  0  0
  5  6  2  0  0  0  0
  5  7  1  0  0  0  0
  7  8  1  0  0  0  0
  7  9  1  0  0  0  0
  9 10  1  0  0  0  0
  9 11  1  0  0  0  0
  9 22  1  0  0  0  0
 11 12  1  0  0  0  0
 11 13  1  0  0  0  0
 11 14  1  0  0  0  0
 14 15  1  0  0  0  0
 14 16  1  0  0  0  0
 14 17  1  0  0  0  0
 17 18  2  0  0  0  0
 17 19  1  0  0  0  0
 19 20  1  0  0  0  0
 19 21  1  0  0  0  0
 22 23  2  0  0  0  0
 22 24  1  0  0  0  0
 24 25  1  0  0  0  0
 24 26  1  0  0  0  0
 26 27  1  0  0  0  0
 26 28  1  0  0  0  0
 26 29  1  0  0  0  0
M  END
$$$$

  -OEChem-04042215583D

 29 28  0     1  0  0  0  0  0999 V2000
   -3.5687   -3.5636    1.1757 H   0  0  0  0  0  0  0  0  0  0  0  0
   -3.4212   -2.6031    0.6740 C   0  0  0  0  0  0  0  0  0  0  0  0
   -4.0961   -1.8671    1.1174 H   0  0  0  0  0  0  0  0  0  0  0  0
   -3.6639   -2.7187   -0.3850 H   0  0  0  0  0  0  0  0  0  0  0  0
   -1.9824   -2.1477    0.8300 C   0  0  0  0  0  0  0  0  0  0  0  0
   -1.1950   -2.8204    1.4757 O   0  0  0  0  0  0  0  0  0  0  0  0
   -1.5688   -0.9662    0.2493 N   0  0  0  0  0  0  0  0  0  0  0  0
   -2.2747   -0.4004   -0.2190 H   0  0  0  0  0  0  0  0  0  0  0  0
   -0.2253   -0.3896    0.3977 C   0  0  1  0  0  0  0  0  0  0  0  0
    0.3213   -0.8644    1.2195 H   0  0  0  0  0  0  0  0  0  0  0  0
    0.5105   -0.6436   -0.9296 C   0  0  0  0  0  0  0  0  0  0  0  0
    0.5422   -1.7214   -1.1245 H   0  0  0  0  0  0  0  0  0  0  0  0
   -0.0728   -0.1912   -1.7400 H   0  0  0  0  0  0  0  0  0  0  0  0
    1.9545   -0.0964   -0.9465 C   0  0  0  0  0  0  0  0  0  0  0  0
    2.1434    0.5914   -0.1204 H   0  0  0  0  0  0  0  0  0  0  0  0
    2.6589   -0.9271   -0.8401 H   0  0  0  0  0  0  0  0  0  0  0  0
    2.2381    0.6399   -2.2482 C   0  0  0  0  0  0  0  0  0  0  0  0
    2.9744    0.1851   -3.1015 O   0  0  0  0  0  0  0  0  0  0  0  0
    1.6598    1.8500   -2.5099 N   0  0  0  0  0  0  0  0  0  0  0  0
    1.7485    2.1894   -3.4629 H   0  0  0  0  0  0  0  0  0  0  0  0
    0.8776    2.1516   -1.9319 H   0  0  0  0  0  0  0  0  0  0  0  0
   -0.3266    1.1234    0.6846 C   0  0  0  0  0  0  0  0  0  0  0  0
   -0.9778    1.8386   -0.0690 O   0  0  0  0  0  0  0  0  0  0  0  0
    0.4409    1.7067    1.6754 N   0  0  0  0  0  0  0  0  0  0  0  0
    0.9497    1.0865    2.3002 H   0  0  0  0  0  0  0  0  0  0  0  0
    0.4351    3.1373    1.9570 C   0  0  0  0  0  0  0  0  0  0  0  0
   -0.5695    3.4687    2.2399 H   0  0  0  0  0  0  0  0  0  0  0  0
    1.1183    3.3623    2.7817 H   0  0  0  0  0  0  0  0  0  0  0  0
    0.7589    3.7037    1.0774 H   0  0  0  0  0  0  0  0  0  0  0  0
  1  2  1  0  0  0  0
  2  3  1  0  0  0  0
  2  4  1  0  0  0  0
  2  5  1  0  0  0  0
  5  6  2  0  0  0  0
  5  7  1  0  0  0  0
  7  8  1  0  0  0  0
  7  9  1  0  0  0  0
  9 10  1  0  0  0  0
  9 11  1  0  0  0  0
  9 22  1  0  0  0  0
 11 12  1  0  0  0  0
 11 13  1  0  0  0  0
 11 14  1  0  0  0  0
 14 15  1  0  0  0  0
 14 16  1  0  0  0  0
 14 17  1  0  0  0  0
 17 18  2  0  0  0  0
 17 19  1  0  0  0  0
 19 20  1  0  0  0  0
 19 21  1  0  0  0  0
 22 23  2  0  0  0  0
 22 24  1  0  0  0  0
 24 25  1  0  0  0  0
 24 26  1  0  0  0  0
 26 27  1  0  0  0  0
 26 28  1  0  0  0  0
 26 29  1  0  0  0  0
M  END
$$$$

  -OEChem-04042215583D

 29 28  0     1  0  0  0  0  0999 V2000
   -3.5357   -3.5787    1.2497 H   0  0  0  0  0  0  0  0  0  0  0  0
   -3.4057   -2.6163    0.7468 C   0  0  0  0  0  0  0  0  0  0  0  0
   -4.0714   -1.8843    1.2104 H   0  0  0  0  0  0  0  0  0  0  0  0
   -3.6769   -2.7303   -0.3055 H   0  0  0  0  0  0  0  0  0  0  0  0
   -1.9651   -2.1550    0.8638 C   0  0  0  0  0  0  0  0  0  0  0  0
   -1.1540   -2.8308    1.4760 O   0  0  0  0  0  0  0  0  0  0  0  0
   -1.5757   -0.9672    0.2790 N   0  0  0  0  0  0  0  0  0  0  0  0
   -2.2984   -0.4058   -0.1683 H   0  0  0  0  0  0  0  0  0  0  0  0
   -0.2292   -0.3876    0.3799 C   0  0  1  0  0  0  0  0  0  0  0  0
    0.3457   -0.8701    1.1773 H   0  0  0  0  0  0  0  0  0  0  0  0
    0.4614   -0.6327   -0.9736 C   0  0  0  0  0  0  0  0  0  0  0  0
    0.5023   -1.7132   -1.1510 H   0  0  0  0  0  0  0  0  0  0  0  0
   -0.1473   -0.2032   -1.7779 H   0  0  0  0  0  0  0  0  0  0  0  0
    1.9002   -0.0753   -1.0278 C   0  0  0  0  0  0  0  0  0  0  0  0
    2.2031    0.3662   -0.0758 H   0  0  0  0  0  0  0  0  0  0  0  0
    2.5938   -0.8962   -1.2346 H   0  0  0  0  0  0  0  0  0  0  0  0
    2.0455    0.9697   -2.1289 C   0  0  0  0  0  0  0  0  0  0  0  0
    2.8017    0.8119   -3.0675 O   0  0  0  0  0  0  0  0  0  0  0  0
    1.3457    2.1436   -2.0967 N   0  0  0  0  0  0  0  0  0  0  0  0
    1.3719    2.6977   -2.9469 H   0  0  0  0  0  0  0  0  0  0  0  0
    0.5445    2.2196   -1.4677 H   0  0  0  0  0  0  0  0  0  0  0  0
   -0.3054    1.1226    0.6839 C   0  0  0  0  0  0  0  0  0  0  0  0
   -0.9530    1.8542   -0.0572 O   0  0  0  0  0  0  0  0  0  0  0  0
    0.5071    1.6908    1.6468 N   0  0  0  0  0  0  0  0  0  0  0  0
    1.0402    1.0634    2.2439 H   0  0  0  0  0  0  0  0  0  0  0  0
    0.5737    3.1258    1.8974 C   0  0  0  0  0  0  0  0  0  0  0  0
   -0.4160    3.5166    2.1562 H   0  0  0  0  0  0  0  0  0  0  0  0
    1.2547    3.3331    2.7286 H   0  0  0  0  0  0  0  0  0  0  0  0
    0.9410    3.6535    1.0108 H   0  0  0  0  0  0  0  0  0  0  0  0
  1  2  1  0  0  0  0
  2  3  1  0  0  0  0
  2  4  1  0  0  0  0
  2  5  1  0  0  0  0
  5  6  2  0  0  0  0
  5  7  1  0  0  0  0
  7  8  1  0  0  0  0
  7  9  1  0  0  0  0
  9 10  1  0  0  0  0
  9 11  1  0  0  0  0
  9 22  1  0  0  0  0
 11 12  1  0  0  0  0
 11 13  1  0  0  0  0
 11 14  1  0  0  0  0
 14 15  1  0  0  0  0
 14 16  1  0  0  0  0
 14 17  1  0  0  0  0
 17 18  2  0  0  0  0
 17 19  1  0  0  0  0
 19 20  1  0  0  0  0
 19 21  1  0  0  0  0
 22 23  2  0  0  0  0
 22 24  1  0  0  0  0
 24 25  1  0  0  0  0
 24 26  1  0  0  0  0
 26 27  1  0  0  0  0
 26 28  1  0  0  0  0
 26 29  1  0  0  0  0
M  END
$$$$

  -OEChem-04042215583D

 29 28  0     1  0  0  0  0  0999 V2000
   -3.4751   -3.5890    1.3101 H   0  0  0  0  0  0  0  0  0  0  0  0
   -3.3760   -2.6089    0.8351 C   0  0  0  0  0  0  0  0  0  0  0  0
   -4.0028   -1.8924    1.3716 H   0  0  0  0  0  0  0  0  0  0  0  0
   -3.7218   -2.6827   -0.1988 H   0  0  0  0  0  0  0  0  0  0  0  0
   -1.9284   -2.1558    0.8663 C   0  0  0  0  0  0  0  0  0  0  0  0
   -1.0791   -2.8544    1.3957 O   0  0  0  0  0  0  0  0  0  0  0  0
   -1.5754   -0.9490    0.2977 N   0  0  0  0  0  0  0  0  0  0  0  0
   -2.3272   -0.3664   -0.0677 H   0  0  0  0  0  0  0  0  0  0  0  0
   -0.2294   -0.3619    0.3520 C   0  0  1  0  0  0  0  0  0  0  0  0
    0.3671   -0.8494    1.1307 H   0  0  0  0  0  0  0  0  0  0  0  0
    0.4347   -0.6159   -1.0163 C   0  0  0  0  0  0  0  0  0  0  0  0
    0.4777   -1.7002   -1.1687 H   0  0  0  0  0  0  0  0  0  0  0  0
   -0.1918   -0.2053   -1.8167 H   0  0  0  0  0  0  0  0  0  0  0  0
    1.8699   -0.0573   -1.1319 C   0  0  0  0  0  0  0  0  0  0  0  0
    2.2904    0.1353   -0.1417 H   0  0  0  0  0  0  0  0  0  0  0  0
    2.4976   -0.8189   -1.6049 H   0  0  0  0  0  0  0  0  0  0  0  0
    1.9761    1.2150   -1.9753 C   0  0  0  0  0  0  0  0  0  0  0  0
    2.8333    1.3226   -2.8304 O   0  0  0  0  0  0  0  0  0  0  0  0
    1.1820    2.3138   -1.8078 N   0  0  0  0  0  0  0  0  0  0  0  0
    1.2599    3.0327   -2.5203 H   0  0  0  0  0  0  0  0  0  0  0  0
    0.3300    2.2420   -1.2496 H   0  0  0  0  0  0  0  0  0  0  0  0
   -0.3098    1.1344    0.7013 C   0  0  0  0  0  0  0  0  0  0  0  0
   -1.0600    1.8622    0.0608 O   0  0  0  0  0  0  0  0  0  0  0  0
    0.5384    1.6884    1.6404 N   0  0  0  0  0  0  0  0  0  0  0  0
    1.1406    1.0578    2.1636 H   0  0  0  0  0  0  0  0  0  0  0  0
    0.5596    3.1100    1.9631 C   0  0  0  0  0  0  0  0  0  0  0  0
   -0.4180    3.4331    2.3365 H   0  0  0  0  0  0  0  0  0  0  0  0
    1.3082    3.3111    2.7356 H   0  0  0  0  0  0  0  0  0  0  0  0
    0.8123    3.7014    1.0766 H   0  0  0  0  0  0  0  0  0  0  0  0
  1  2  1  0  0  0  0
  2  3  1  0  0  0  0
  2  4  1  0  0  0  0
  2  5  1  0  0  0  0
  5  6  2  0  0  0  0
  5  7  1  0  0  0  0
  7  8  1  0  0  0  0
  7  9  1  0  0  0  0
  9 10  1  0  0  0  0
  9 11  1  0  0  0  0
  9 22  1  0  0  0  0
 11 12  1  0  0  0  0
 11 13  1  0  0  0  0
 11 14  1  0  0  0  0
 14 15  1  0  0  0  0
 14 16  1  0  0  0  0
 14 17  1  0  0  0  0
 17 18  2  0  0  0  0
 17 19  1  0  0  0  0
 19 20  1  0  0  0  0
 19 21  1  0  0  0  0
 22 23  2  0  0  0  0
 22 24  1  0  0  0  0
 24 25  1  0  0  0  0
 24 26  1  0  0  0  0
 26 27  1  0  0  0  0
 26 28  1  0  0  0  0
 26 29  1  0  0  0  0
M  END
$$$$

  -OEChem-04042215583D

 29 28  0     1  0  0  0  0  0999 V2000
   -3.3660   -3.6415    1.3977 H   0  0  0  0  0  0  0  0  0  0  0  0
   -3.3143   -2.6593    0.9197 C   0  0  0  0  0  0  0  0  0  0  0  0
   -3.9507   -1.9643    1.4727 H   0  0  0  0  0  0  0  0  0  0  0  0
   -3.6857   -2.7466   -0.1041 H   0  0  0  0  0  0  0  0  0  0  0  0
   -1.8830   -2.1567    0.9108 C   0  0  0  0  0  0  0  0  0  0  0  0
   -1.0012   -2.8082    1.4478 O   0  0  0  0  0  0  0  0  0  0  0  0
   -1.5809   -0.9563    0.3015 N   0  0  0  0  0  0  0  0  0  0  0  0
   -2.3558   -0.4099   -0.0724 H   0  0  0  0  0  0  0  0  0  0  0  0
   -0.2523   -0.3297    0.2962 C   0  0  1  0  0  0  0  0  0  0  0  0
    0.3750   -0.7720    1.0770 H   0  0  0  0  0  0  0  0  0  0  0  0
    0.3862   -0.6400   -1.0735 C   0  0  0  0  0  0  0  0  0  0  0  0
    0.4488   -1.7296   -1.1696 H   0  0  0  0  0  0  0  0  0  0  0  0
   -0.2707   -0.2835   -1.8759 H   0  0  0  0  0  0  0  0  0  0  0  0
    1.8015   -0.0630   -1.2827 C   0  0  0  0  0  0  0  0  0  0  0  0
    2.3542   -0.0558   -0.3396 H   0  0  0  0  0  0  0  0  0  0  0  0
    2.3462   -0.7168   -1.9706 H   0  0  0  0  0  0  0  0  0  0  0  0
    1.8015    1.3374   -1.8937 C   0  0  0  0  0  0  0  0  0  0  0  0
    1.7641    1.4919   -3.0985 O   0  0  0  0  0  0  0  0  0  0  0  0
    1.8790    2.4828   -1.1557 N   0  0  0  0  0  0  0  0  0  0  0  0
    1.6727    3.3276   -1.6815 H   0  0  0  0  0  0  0  0  0  0  0  0
    1.5932    2.4325   -0.1823 H   0  0  0  0  0  0  0  0  0  0  0  0
   -0.3732    1.1719    0.6108 C   0  0  0  0  0  0  0  0  0  0  0  0
   -1.2242    1.8522    0.0545 O   0  0  0  0  0  0  0  0  0  0  0  0
    0.4924    1.7680    1.5119 N   0  0  0  0  0  0  0  0  0  0  0  0
    1.0635    1.1412    2.0746 H   0  0  0  0  0  0  0  0  0  0  0  0
    0.3213    3.1420    1.9736 C   0  0  0  0  0  0  0  0  0  0  0  0
   -0.6175    3.2453    2.5281 H   0  0  0  0  0  0  0  0  0  0  0  0
    1.1474    3.4247    2.6336 H   0  0  0  0  0  0  0  0  0  0  0  0
    0.3065    3.8365    1.1267 H   0  0  0  0  0  0  0  0  0  0  0  0
  1  2  1  0  0  0  0
  2  3  1  0  0  0  0
  2  4  1  0  0  0  0
  2  5  1  0  0  0  0
  5  6  2  0  0  0  0
  5  7  1  0  0  0  0
  7  8  1  0  0  0  0
  7  9  1  0  0  0  0
  9 10  1  0  0  0  0
  9 11  1  0  0  0  0
  9 22  1  0  0  0  0
 11 12  1  0  0  0  0
 11 13  1  0  0  0  0
 11 14  1  0  0  0  0
 14 15  1  0  0  0  0
 14 16  1  0  0  0  0
 14 17  1  0  0  0  0
 17 18  2  0  0  0  0
 17 19  1  0  0  0  0
 19 20  1  0  0  0  0
 19 21  1  0  0  0  0
 22 23  2  0  0  0  0
 22 24  1  0  0  0  0
 24 25  1  0  0  0  0
 24 26  1  0  0  0  0
 26 27  1  0  0  0  0
 26 28  1  0  0  0  0
 26 29  1  0  0  0  0
M  END
$$$$

  -OEChem-04042215583D

 29 28  0     1  0  0  0  0  0999 V2000
   -3.2971   -3.7538    1.4649 H   0  0  0  0  0  0  0  0  0  0  0  0
   -3.2895   -2.7824    0.9630 C   0  0  0  0  0  0  0  0  0  0  0  0
   -3.9244   -2.0915    1.5229 H   0  0  0  0  0  0  0  0  0  0  0  0
   -3.6944   -2.9031   -0.0447 H   0  0  0  0  0  0  0  0  0  0  0  0
   -1.8734   -2.2427    0.8901 C   0  0  0  0  0  0  0  0  0  0  0  0
   -0.9460   -2.8917    1.3491 O   0  0  0  0  0  0  0  0  0  0  0  0
   -1.6354   -1.0183    0.3020 N   0  0  0  0  0  0  0  0  0  0  0  0
   -2.4459   -0.4637    0.0261 H   0  0  0  0  0  0  0  0  0  0  0  0
   -0.3379   -0.3296    0.3023 C   0  0  1  0  0  0  0  0  0  0  0  0
    0.3125   -0.7485    1.0769 H   0  0  0  0  0  0  0  0  0  0  0  0
    0.3160   -0.5700   -1.0745 C   0  0  0  0  0  0  0  0  0  0  0  0
    0.4230   -1.6514   -1.2111 H   0  0  0  0  0  0  0  0  0  0  0  0
   -0.3586   -0.2090   -1.8598 H   0  0  0  0  0  0  0  0  0  0  0  0
    1.7044    0.0797   -1.2673 C   0  0  0  0  0  0  0  0  0  0  0  0
    2.3310   -0.1522   -0.4021 H   0  0  0  0  0  0  0  0  0  0  0  0
    2.1791   -0.3691   -2.1442 H   0  0  0  0  0  0  0  0  0  0  0  0
    1.6874    1.5895   -1.4877 C   0  0  0  0  0  0  0  0  0  0  0  0
    0.9320    2.1200   -2.2762 O   0  0  0  0  0  0  0  0  0  0  0  0
    2.5634    2.4212   -0.8502 N   0  0  0  0  0  0  0  0  0  0  0  0
    2.5957    3.3720   -1.2081 H   0  0  0  0  0  0  0  0  0  0  0  0
    3.3793    2.0205   -0.4014 H   0  0  0  0  0  0  0  0  0  0  0  0
   -0.5680    1.1566    0.6503 C   0  0  0  0  0  0  0  0  0  0  0  0
   -1.5656    1.7343    0.2346 O   0  0  0  0  0  0  0  0  0  0  0  0
    0.2521    1.7961    1.5618 N   0  0  0  0  0  0  0  0  0  0  0  0
    1.0146    1.2634    1.9679 H   0  0  0  0  0  0  0  0  0  0  0  0
    0.0503    3.1769    1.9820 C   0  0  0  0  0  0  0  0  0  0  0  0
   -0.9088    3.2837    2.4998 H   0  0  0  0  0  0  0  0  0  0  0  0
    0.8488    3.4856    2.6633 H   0  0  0  0  0  0  0  0  0  0  0  0
    0.0591    3.8456    1.1144 H   0  0  0  0  0  0  0  0  0  0  0  0
  1  2  1  0  0  0  0
  2  3  1  0  0  0  0
  2  4  1  0  0  0  0
  2  5  1  0  0  0  0
  5  6  2  0  0  0  0
  5  7  1  0  0  0  0
  7  8  1  0  0  0  0
  7  9  1  0  0  0  0
  9 10  1  0  0  0  0
  9 11  1  0  0  0  0
  9 22  1  0  0  0  0
 11 12  1  0  0  0  0
 11 13  1  0  0  0  0
 11 14  1  0  0  0  0
 14 15  1  0  0  0  0
 14 16  1  0  0  0  0
 14 17  1  0  0  0  0
 17 18  2  0  0  0  0
 17 19  1  0  0  0  0
 19 20  1  0  0  0  0
 19 21  1  0  0  0  0
 22 23  2  0  0  0  0
 22 24  1  0  0  0  0
 24 25  1  0  0  0  0
 24 26  1  0  0  0  0
 26 27  1  0  0  0  0
 26 28  1  0  0  0  0
 26 29  1  0  0  0  0
M  END
$$$$

  -OEChem-04042215583D

 29 28  0     1  0  0  0  0  0999 V2000
   -3.2414   -3.7709    1.4881 H   0  0  0  0  0  0  0  0  0  0  0  0
   -3.2487   -2.8047    0.9761 C   0  0  0  0  0  0  0  0  0  0  0  0
   -3.8773   -2.1120    1.5410 H   0  0  0  0  0  0  0  0  0  0  0  0
   -3.6714   -2.9374   -0.0228 H   0  0  0  0  0  0  0  0  0  0  0  0
   -1.8376   -2.2570    0.8722 C   0  0  0  0  0  0  0  0  0  0  0  0
   -0.8934   -2.9129    1.2855 O   0  0  0  0  0  0  0  0  0  0  0  0
   -1.6226   -1.0171    0.3085 N   0  0  0  0  0  0  0  0  0  0  0  0
   -2.4444   -0.4554    0.0832 H   0  0  0  0  0  0  0  0  0  0  0  0
   -0.3336   -0.3115    0.3162 C   0  0  1  0  0  0  0  0  0  0  0  0
    0.3326   -0.7313    1.0769 H   0  0  0  0  0  0  0  0  0  0  0  0
    0.3008   -0.5240   -1.0775 C   0  0  0  0  0  0  0  0  0  0  0  0
    0.3923   -1.6020   -1.2484 H   0  0  0  0  0  0  0  0  0  0  0  0
   -0.3945   -0.1330   -1.8296 H   0  0  0  0  0  0  0  0  0  0  0  0
    1.6836    0.1204   -1.3304 C   0  0  0  0  0  0  0  0  0  0  0  0
    2.3995   -0.3244   -0.6342 H   0  0  0  0  0  0  0  0  0  0  0  0
    2.0080   -0.1411   -2.3415 H   0  0  0  0  0  0  0  0  0  0  0  0
    1.7660    1.6365   -1.2027 C   0  0  0  0  0  0  0  0  0  0  0  0
    1.0215    2.3773   -1.8101 O   0  0  0  0  0  0  0  0  0  0  0  0
    2.7139    2.2439   -0.4289 N   0  0  0  0  0  0  0  0  0  0  0  0
    2.8063    3.2456   -0.5748 H   0  0  0  0  0  0  0  0  0  0  0  0
    3.5217    1.7016   -0.1426 H   0  0  0  0  0  0  0  0  0  0  0  0
   -0.6179    1.1587    0.7014 C   0  0  0  0  0  0  0  0  0  0  0  0
   -1.6499    1.6986    0.3168 O   0  0  0  0  0  0  0  0  0  0  0  0
    0.1762    1.8095    1.6278 N   0  0  0  0  0  0  0  0  0  0  0  0
    1.0211    1.3401    1.9370 H   0  0  0  0  0  0  0  0  0  0  0  0
   -0.0445    3.1948    2.0239 C   0  0  0  0  0  0  0  0  0  0  0  0
   -1.0315    3.3103    2.4839 H   0  0  0  0  0  0  0  0  0  0  0  0
    0.7125    3.5060    2.7499 H   0  0  0  0  0  0  0  0  0  0  0  0
    0.0178    3.8552    1.1521 H   0  0  0  0  0  0  0  0  0  0  0  0
  1  2  1  0  0  0  0
  2  3  1  0  0  0  0
  2  4  1  0  0  0  0
  2  5  1  0  0  0  0
  5  6  2  0  0  0  0
  5  7  1  0  0  0  0
  7  8  1  0  0  0  0
  7  9  1  0  0  0  0
  9 10  1  0  0  0  0
  9 11  1  0  0  0  0
  9 22  1  0  0  0  0
 11 12  1  0  0  0  0
 11 13  1  0  0  0  0
 11 14  1  0  0  0  0
 14 15  1  0  0  0  0
 14 16  1  0  0  0  0
 14 17  1  0  0  0  0
 17 18  2  0  0  0  0
 17 19  1  0  0  0  0
 19 20  1  0  0  0  0
 19 21  1  0  0  0  0
 22 23  2  0  0  0  0
 22 24  1  0  0  0  0
 24 25  1  0  0  0  0
 24 26  1  0  0  0  0
 26 27  1  0  0  0  0
 26 28  1  0  0  0  0
 26 29  1  0  0  0  0
M  END
$$$$

  -OEChem-04042215583D

 29 28  0     1  0  0  0  0  0999 V2000
   -3.1714   -3.7922    1.5053 H   0  0  0  0  0  0  0  0  0  0  0  0
   -3.1937   -2.8297    0.9867 C   0  0  0  0  0  0  0  0  0  0  0  0
   -3.8243   -2.1396    1.5525 H   0  0  0  0  0  0  0  0  0  0  0  0
   -3.6238   -2.9735   -0.0075 H   0  0  0  0  0  0  0  0  0  0  0  0
   -1.7901   -2.2677    0.8655 C   0  0  0  0  0  0  0  0  0  0  0  0
   -0.8317   -2.9213    1.2478 O   0  0  0  0  0  0  0  0  0  0  0  0
   -1.5983   -1.0163    0.3197 N   0  0  0  0  0  0  0  0  0  0  0  0
   -2.4307   -0.4577    0.1271 H   0  0  0  0  0  0  0  0  0  0  0  0
   -0.3187   -0.2931    0.3300 C   0  0  1  0  0  0  0  0  0  0  0  0
    0.3677   -0.7122    1.0731 H   0  0  0  0  0  0  0  0  0  0  0  0
    0.2853   -0.4676   -1.0846 C   0  0  0  0  0  0  0  0  0  0  0  0
    0.3645   -1.5398   -1.2946 H   0  0  0  0  0  0  0  0  0  0  0  0
   -0.4365   -0.0512   -1.7970 H   0  0  0  0  0  0  0  0  0  0  0  0
    1.6566    0.1805   -1.3949 C   0  0  0  0  0  0  0  0  0  0  0  0
    2.4279   -0.4407   -0.9321 H   0  0  0  0  0  0  0  0  0  0  0  0
    1.8212    0.1442   -2.4757 H   0  0  0  0  0  0  0  0  0  0  0  0
    1.8856    1.6145   -0.9389 C   0  0  0  0  0  0  0  0  0  0  0  0
    1.2785    2.5502   -1.4163 O   0  0  0  0  0  0  0  0  0  0  0  0
    2.8125    1.9266    0.0158 N   0  0  0  0  0  0  0  0  0  0  0  0
    3.0333    2.9170    0.0809 H   0  0  0  0  0  0  0  0  0  0  0  0
    3.5316    1.2413    0.2228 H   0  0  0  0  0  0  0  0  0  0  0  0
   -0.6503    1.1618    0.7433 C   0  0  0  0  0  0  0  0  0  0  0  0
   -1.6969    1.6748    0.3586 O   0  0  0  0  0  0  0  0  0  0  0  0
    0.1195    1.8272    1.6799 N   0  0  0  0  0  0  0  0  0  0  0  0
    1.0162    1.4155    1.9178 H   0  0  0  0  0  0  0  0  0  0  0  0
   -0.1241    3.2167    2.0466 C   0  0  0  0  0  0  0  0  0  0  0  0
   -1.1307    3.3340    2.4617 H   0  0  0  0  0  0  0  0  0  0  0  0
    0.5988    3.5410    2.8010 H   0  0  0  0  0  0  0  0  0  0  0  0
   -0.0262    3.8652    1.1693 H   0  0  0  0  0  0  0  0  0  0  0  0
  1  2  1  0  0  0  0
  2  3  1  0  0  0  0
  2  4  1  0  0  0  0
  2  5  1  0  0  0  0
  5  6  2  0  0  0  0
  5  7  1  0  0  0  0
  7  8  1  0  0  0  0
  7  9  1  0  0  0  0
  9 10  1  0  0  0  0
  9 11  1  0  0  0  0
  9 22  1  0  0  0  0
 11 12  1  0  0  0  0
 11 13  1  0  0  0  0
 11 14  1  0  0  0  0
 14 15  1  0  0  0  0
 14 16  1  0  0  0  0
 14 17  1  0  0  0  0
 17 18  2  0  0  0  0
 17 19  1  0  0  0  0
 19 20  1  0  0  0  0
 19 21  1  0  0  0  0
 22 23  2  0  0  0  0
 22 24  1  0  0  0  0
 24 25  1  0  0  0  0
 24 26  1  0  0  0  0
 26 27  1  0  0  0  0
 26 28  1  0  0  0  0
 26 29  1  0  0  0  0
M  END
$$$$

  -OEChem-04042215583D

 29 28  0     1  0  0  0  0  0999 V2000
   -3.1030   -3.8111    1.5207 H   0  0  0  0  0  0  0  0  0  0  0  0
   -3.1393   -2.8499    1.0005 C   0  0  0  0  0  0  0  0  0  0  0  0
   -3.7826   -2.1691    1.5634 H   0  0  0  0  0  0  0  0  0  0  0  0
   -3.5648   -3.0030    0.0058 H   0  0  0  0  0  0  0  0  0  0  0  0
   -1.7446   -2.2650    0.8820 C   0  0  0  0  0  0  0  0  0  0  0  0
   -0.7763   -2.9045    1.2634 O   0  0  0  0  0  0  0  0  0  0  0  0
   -1.5707   -1.0106    0.3366 N   0  0  0  0  0  0  0  0  0  0  0  0
   -2.4106   -0.4626    0.1461 H   0  0  0  0  0  0  0  0  0  0  0  0
   -0.3001   -0.2716    0.3485 C   0  0  1  0  0  0  0  0  0  0  0  0
    0.4007   -0.6830    1.0824 H   0  0  0  0  0  0  0  0  0  0  0  0
    0.2813   -0.4191   -1.0789 C   0  0  0  0  0  0  0  0  0  0  0  0
    0.3555   -1.4867   -1.3128 H   0  0  0  0  0  0  0  0  0  0  0  0
   -0.4591    0.0082   -1.7650 H   0  0  0  0  0  0  0  0  0  0  0  0
    1.6413    0.2388   -1.4241 C   0  0  0  0  0  0  0  0  0  0  0  0
    2.4242   -0.4987   -1.2279 H   0  0  0  0  0  0  0  0  0  0  0  0
    1.6643    0.4475   -2.4979 H   0  0  0  0  0  0  0  0  0  0  0  0
    2.0341    1.5116   -0.6898 C   0  0  0  0  0  0  0  0  0  0  0  0
    1.6743    2.6114   -1.0553 O   0  0  0  0  0  0  0  0  0  0  0  0
    2.8561    1.4834    0.4024 N   0  0  0  0  0  0  0  0  0  0  0  0
    3.2518    2.3864    0.6518 H   0  0  0  0  0  0  0  0  0  0  0  0
    3.4046    0.6428    0.5561 H   0  0  0  0  0  0  0  0  0  0  0  0
   -0.6661    1.1762    0.7644 C   0  0  0  0  0  0  0  0  0  0  0  0
   -1.7082    1.6750    0.3491 O   0  0  0  0  0  0  0  0  0  0  0  0
    0.0801    1.8626    1.7045 N   0  0  0  0  0  0  0  0  0  0  0  0
    1.0002    1.4864    1.9150 H   0  0  0  0  0  0  0  0  0  0  0  0
   -0.1774    3.2602    2.0290 C   0  0  0  0  0  0  0  0  0  0  0  0
   -1.2005    3.3873    2.3983 H   0  0  0  0  0  0  0  0  0  0  0  0
    0.5132    3.6008    2.8062 H   0  0  0  0  0  0  0  0  0  0  0  0
   -0.0414    3.8884    1.1420 H   0  0  0  0  0  0  0  0  0  0  0  0
  1  2  1  0  0  0  0
  2  3  1  0  0  0  0
  2  4  1  0  0  0  0
  2  5  1  0  0  0  0
  5  6  2  0  0  0  0
  5  7  1  0  0  0  0
  7  8  1  0  0  0  0
  7  9  1  0  0  0  0
  9 10  1  0  0  0  0
  9 11  1  0  0  0  0
  9 22  1  0  0  0  0
 11 12  1  0  0  0  0
 11 13  1  0  0  0  0
 11 14  1  0  0  0  0
 14 15  1  0  0  0  0
 14 16  1  0  0  0  0
 14 17  1  0  0  0  0
 17 18  2  0  0  0  0
 17 19  1  0  0  0  0
 19 20  1  0  0  0  0
 19 21  1  0  0  0  0
 22 23  2  0  0  0  0
 22 24  1  0  0  0  0
 24 25  1  0  0  0  0
 24 26  1  0  0  0  0
 26 27  1  0  0  0  0
 26 28  1  0  0  0  0
 26 29  1  0  0  0  0
M  END
$$$$

  -OEChem-04042215583D

 29 28  0     1  0  0  0  0  0999 V2000
   -3.2927   -3.6341    1.5372 H   0  0  0  0  0  0  0  0  0  0  0  0
   -3.2696   -2.6813    1.0011 C   0  0  0  0  0  0  0  0  0  0  0  0
   -3.9139   -1.9684    1.5213 H   0  0  0  0  0  0  0  0  0  0  0  0
   -3.6526   -2.8368   -0.0103 H   0  0  0  0  0  0  0  0  0  0  0  0
   -1.8503   -2.1492    0.9405 C   0  0  0  0  0  0  0  0  0  0  0  0
   -0.9316   -2.7922    1.4250 O   0  0  0  0  0  0  0  0  0  0  0  0
   -1.5965   -0.9411    0.3265 N   0  0  0  0  0  0  0  0  0  0  0  0
   -2.4019   -0.3813    0.0441 H   0  0  0  0  0  0  0  0  0  0  0  0
   -0.3023   -0.2463    0.3744 C   0  0  1  0  0  0  0  0  0  0  0  0
    0.3371   -0.6340    1.1742 H   0  0  0  0  0  0  0  0  0  0  0  0
    0.3532   -0.4915   -1.0062 C   0  0  0  0  0  0  0  0  0  0  0  0
    0.4039   -1.5732   -1.1722 H   0  0  0  0  0  0  0  0  0  0  0  0
   -0.3325   -0.0869   -1.7596 H   0  0  0  0  0  0  0  0  0  0  0  0
    1.7552    0.1000   -1.3063 C   0  0  0  0  0  0  0  0  0  0  0  0
    2.4779   -0.7203   -1.2923 H   0  0  0  0  0  0  0  0  0  0  0  0
    1.7513    0.5008   -2.3247 H   0  0  0  0  0  0  0  0  0  0  0  0
    2.2902    1.1798   -0.3772 C   0  0  0  0  0  0  0  0  0  0  0  0
    2.2848    2.3572   -0.6721 O   0  0  0  0  0  0  0  0  0  0  0  0
    2.8699    0.8697    0.8220 N   0  0  0  0  0  0  0  0  0  0  0  0
    3.1421   -0.0972    0.9739 H   0  0  0  0  0  0  0  0  0  0  0  0
    3.4424    1.6124    1.2157 H   0  0  0  0  0  0  0  0  0  0  0  0
   -0.6350    1.2390    0.6697 C   0  0  0  0  0  0  0  0  0  0  0  0
   -1.6123    1.7521    0.1325 O   0  0  0  0  0  0  0  0  0  0  0  0
    0.0749    1.9626    1.6093 N   0  0  0  0  0  0  0  0  0  0  0  0
    0.9626    1.5651    1.9052 H   0  0  0  0  0  0  0  0  0  0  0  0
   -0.1299    3.3922    1.8075 C   0  0  0  0  0  0  0  0  0  0  0  0
   -1.1694    3.5981    2.0834 H   0  0  0  0  0  0  0  0  0  0  0  0
    0.5175    3.7586    2.6097 H   0  0  0  0  0  0  0  0  0  0  0  0
    0.1082    3.9420    0.8906 H   0  0  0  0  0  0  0  0  0  0  0  0
  1  2  1  0  0  0  0
  2  3  1  0  0  0  0
  2  4  1  0  0  0  0
  2  5  1  0  0  0  0
  5  6  2  0  0  0  0
  5  7  1  0  0  0  0
  7  8  1  0  0  0  0
  7  9  1  0  0  0  0
  9 10  1  0  0  0  0
  9 11  1  0  0  0  0
  9 22  1  0  0  0  0
 11 12  1  0  0  0  0
 11 13  1  0  0  0  0
 11 14  1  0  0  0  0
 14 15  1  0  0  0  0
 14 16  1  0  0  0  0
 14 17  1  0  0  0  0
 17 18  2  0  0  0  0
 17 19  1  0  0  0  0
 19 20  1  0  0  0  0
 19 21  1  0  0  0  0
 22 23  2  0  0  0  0
 22 24  1  0  0  0  0
 24 25  1  0  0  0  0
 24 26  1  0  0  0  0
 26 27  1  0  0  0  0
 26 28  1  0  0  0  0
 26 29  1  0  0  0  0
M  END
$$$$

  -OEChem-04042215583D

 29 28  0     1  0  0  0  0  0999 V2000
   -3.6133   -3.5872    1.2893 H   0  0  0  0  0  0  0  0  0  0  0  0
   -3.4745   -2.6382    0.7638 C   0  0  0  0  0  0  0  0  0  0  0  0
   -4.1132   -1.8827    1.2277 H   0  0  0  0  0  0  0  0  0  0  0  0
   -3.7714   -2.7663   -0.2799 H   0  0  0  0  0  0  0  0  0  0  0  0
   -2.0221   -2.2063    0.8392 C   0  0  0  0  0  0  0  0  0  0  0  0
   -1.2021   -2.9214    1.3912 O   0  0  0  0  0  0  0  0  0  0  0  0
   -1.6363   -1.0092    0.2727 N   0  0  0  0  0  0  0  0  0  0  0  0
   -2.3770   -0.4070   -0.0847 H   0  0  0  0  0  0  0  0  0  0  0  0
   -0.3139   -0.3895    0.4476 C   0  0  1  0  0  0  0  0  0  0  0  0
    0.2115   -0.8342    1.3000 H   0  0  0  0  0  0  0  0  0  0  0  0
    0.4694   -0.6765   -0.8540 C   0  0  0  0  0  0  0  0  0  0  0  0
    0.4975   -1.7644   -0.9810 H   0  0  0  0  0  0  0  0  0  0  0  0
   -0.1154   -0.2747   -1.6886 H   0  0  0  0  0  0  0  0  0  0  0  0
    1.9258   -0.1571   -1.0065 C   0  0  0  0  0  0  0  0  0  0  0  0
    2.5775   -1.0160   -1.1913 H   0  0  0  0  0  0  0  0  0  0  0  0
    1.9685    0.4699   -1.9014 H   0  0  0  0  0  0  0  0  0  0  0  0
    2.5454    0.6286    0.1458 C   0  0  0  0  0  0  0  0  0  0  0  0
    2.6037    0.2010    1.2845 O   0  0  0  0  0  0  0  0  0  0  0  0
    3.0099    1.9011   -0.0281 N   0  0  0  0  0  0  0  0  0  0  0  0
    3.2424    2.4176    0.8148 H   0  0  0  0  0  0  0  0  0  0  0  0
    2.7907    2.3943   -0.8876 H   0  0  0  0  0  0  0  0  0  0  0  0
   -0.5250    1.1135    0.7365 C   0  0  0  0  0  0  0  0  0  0  0  0
   -1.3405    1.7505    0.0774 O   0  0  0  0  0  0  0  0  0  0  0  0
    0.1742    1.7477    1.7446 N   0  0  0  0  0  0  0  0  0  0  0  0
    0.9371    1.2155    2.1698 H   0  0  0  0  0  0  0  0  0  0  0  0
    0.0452    3.1657    2.0504 C   0  0  0  0  0  0  0  0  0  0  0  0
   -0.9873    3.4057    2.3250 H   0  0  0  0  0  0  0  0  0  0  0  0
    0.6950    3.4298    2.8902 H   0  0  0  0  0  0  0  0  0  0  0  0
    0.3307    3.7726    1.1850 H   0  0  0  0  0  0  0  0  0  0  0  0
  1  2  1  0  0  0  0
  2  3  1  0  0  0  0
  2  4  1  0  0  0  0
  2  5  1  0  0  0  0
  5  6  2  0  0  0  0
  5  7  1  0  0  0  0
  7  8  1  0  0  0  0
  7  9  1  0  0  0  0
  9 10  1  0  0  0  0
  9 11  1  0  0  0  0
  9 22  1  0  0  0  0
 11 12  1  0  0  0  0
 11 13  1  0  0  0  0
 11 14  1  0  0  0  0
 14 15  1  0  0  0  0
 14 16  1  0  0  0  0
 14 17  1  0  0  0  0
 17 18  2  0  0  0  0
 17 19  1  0  0  0  0
 19 20  1  0  0  0  0
 19 21  1  0  0  0  0
 22 23  2  0  0  0  0
 22 24  1  0  0  0  0
 24 25  1  0  0  0  0
 24 26  1  0  0  0  0
 26 27  1  0  0  0  0
 26 28  1  0  0  0  0
 26 29  1  0  0  0  0
M  END
$$$$

  -OEChem-04042215583D

 29 28  0     1  0  0  0  0  0999 V2000
   -3.5443   -3.7068    1.3196 H   0  0  0  0  0  0  0  0  0  0  0  0
   -3.4527   -2.7468    0.8038 C   0  0  0  0  0  0  0  0  0  0  0  0
   -4.1035   -2.0199    1.2955 H   0  0  0  0  0  0  0  0  0  0  0  0
   -3.7739   -2.8711   -0.2331 H   0  0  0  0  0  0  0  0  0  0  0  0
   -2.0144   -2.2658    0.8466 C   0  0  0  0  0  0  0  0  0  0  0  0
   -1.1583   -2.9577    1.3726 O   0  0  0  0  0  0  0  0  0  0  0  0
   -1.6845   -1.0537    0.2762 N   0  0  0  0  0  0  0  0  0  0  0  0
   -2.4557   -0.4785   -0.0596 H   0  0  0  0  0  0  0  0  0  0  0  0
   -0.3863   -0.3793    0.4300 C   0  0  1  0  0  0  0  0  0  0  0  0
    0.1478   -0.8154    1.2798 H   0  0  0  0  0  0  0  0  0  0  0  0
    0.4111   -0.6179   -0.8689 C   0  0  0  0  0  0  0  0  0  0  0  0
    0.5067   -1.7038   -0.9780 H   0  0  0  0  0  0  0  0  0  0  0  0
   -0.1898   -0.2636   -1.7137 H   0  0  0  0  0  0  0  0  0  0  0  0
    1.8396   -0.0188   -1.0077 C   0  0  0  0  0  0  0  0  0  0  0  0
    2.4798   -0.7611   -1.4924 H   0  0  0  0  0  0  0  0  0  0  0  0
    1.7604    0.8313   -1.6914 H   0  0  0  0  0  0  0  0  0  0  0  0
    2.5783    0.4913    0.2325 C   0  0  0  0  0  0  0  0  0  0  0  0
    2.4510    0.0303    1.3513 O   0  0  0  0  0  0  0  0  0  0  0  0
    3.4558    1.5334    0.1468 N   0  0  0  0  0  0  0  0  0  0  0  0
    4.0429    1.6889    0.9614 H   0  0  0  0  0  0  0  0  0  0  0  0
    3.7643    1.8407   -0.7696 H   0  0  0  0  0  0  0  0  0  0  0  0
   -0.6108    1.1179    0.7244 C   0  0  0  0  0  0  0  0  0  0  0  0
   -1.4612    1.7398    0.0959 O   0  0  0  0  0  0  0  0  0  0  0  0
    0.1064    1.7538    1.7179 N   0  0  0  0  0  0  0  0  0  0  0  0
    0.8821    1.2249    2.1237 H   0  0  0  0  0  0  0  0  0  0  0  0
   -0.0160    3.1733    2.0187 C   0  0  0  0  0  0  0  0  0  0  0  0
   -1.0498    3.4215    2.2811 H   0  0  0  0  0  0  0  0  0  0  0  0
    0.6262    3.4354    2.8649 H   0  0  0  0  0  0  0  0  0  0  0  0
    0.2833    3.7750    1.1545 H   0  0  0  0  0  0  0  0  0  0  0  0
  1  2  1  0  0  0  0
  2  3  1  0  0  0  0
  2  4  1  0  0  0  0
  2  5  1  0  0  0  0
  5  6  2  0  0  0  0
  5  7  1  0  0  0  0
  7  8  1  0  0  0  0
  7  9  1  0  0  0  0
  9 10  1  0  0  0  0
  9 11  1  0  0  0  0
  9 22  1  0  0  0  0
 11 12  1  0  0  0  0
 11 13  1  0  0  0  0
 11 14  1  0  0  0  0
 14 15  1  0  0  0  0
 14 16  1  0  0  0  0
 14 17  1  0  0  0  0
 17 18  2  0  0  0  0
 17 19  1  0  0  0  0
 19 20  1  0  0  0  0
 19 21  1  0  0  0  0
 22 23  2  0  0  0  0
 22 24  1  0  0  0  0
 24 25  1  0  0  0  0
 24 26  1  0  0  0  0
 26 27  1  0  0  0  0
 26 28  1  0  0  0  0
 26 29  1  0  0  0  0
M  END
$$$$

  -OEChem-04042215583D

 29 28  0     1  0  0  0  0  0999 V2000
   -3.4061   -3.8094    1.2762 H   0  0  0  0  0  0  0  0  0  0  0  0
   -3.3687   -2.8146    0.8231 C   0  0  0  0  0  0  0  0  0  0  0  0
   -4.0224   -2.1457    1.3882 H   0  0  0  0  0  0  0  0  0  0  0  0
   -3.7294   -2.8826   -0.2060 H   0  0  0  0  0  0  0  0  0  0  0  0
   -1.9469   -2.2849    0.8407 C   0  0  0  0  0  0  0  0  0  0  0  0
   -1.0547   -2.9560    1.3339 O   0  0  0  0  0  0  0  0  0  0  0  0
   -1.6705   -1.0555    0.2791 N   0  0  0  0  0  0  0  0  0  0  0  0
   -2.4686   -0.4985   -0.0236 H   0  0  0  0  0  0  0  0  0  0  0  0
   -0.3981   -0.3344    0.4342 C   0  0  1  0  0  0  0  0  0  0  0  0
    0.1579   -0.7613    1.2740 H   0  0  0  0  0  0  0  0  0  0  0  0
    0.3939   -0.5061   -0.8767 C   0  0  0  0  0  0  0  0  0  0  0  0
    0.5331   -1.5843   -1.0119 H   0  0  0  0  0  0  0  0  0  0  0  0
   -0.2280   -0.1561   -1.7079 H   0  0  0  0  0  0  0  0  0  0  0  0
    1.7955    0.1518   -1.0140 C   0  0  0  0  0  0  0  0  0  0  0  0
    2.3603   -0.4208   -1.7547 H   0  0  0  0  0  0  0  0  0  0  0  0
    1.6391    1.1508   -1.4308 H   0  0  0  0  0  0  0  0  0  0  0  0
    2.6958    0.3525    0.2118 C   0  0  0  0  0  0  0  0  0  0  0  0
    2.3496    0.2642    1.3744 O   0  0  0  0  0  0  0  0  0  0  0  0
    4.0115    0.6769    0.0488 N   0  0  0  0  0  0  0  0  0  0  0  0
    4.5890    0.6284    0.8834 H   0  0  0  0  0  0  0  0  0  0  0  0
    4.4321    0.5854   -0.8697 H   0  0  0  0  0  0  0  0  0  0  0  0
   -0.6875    1.1500    0.7447 C   0  0  0  0  0  0  0  0  0  0  0  0
   -1.5832    1.7293    0.1374 O   0  0  0  0  0  0  0  0  0  0  0  0
   -0.0009    1.8155    1.7397 N   0  0  0  0  0  0  0  0  0  0  0  0
    0.8307    1.3394    2.0995 H   0  0  0  0  0  0  0  0  0  0  0  0
   -0.1887    3.2279    2.0414 C   0  0  0  0  0  0  0  0  0  0  0  0
   -1.2381    3.4341    2.2767 H   0  0  0  0  0  0  0  0  0  0  0  0
    0.4189    3.5119    2.9059 H   0  0  0  0  0  0  0  0  0  0  0  0
    0.1096    3.8450    1.1876 H   0  0  0  0  0  0  0  0  0  0  0  0
  1  2  1  0  0  0  0
  2  3  1  0  0  0  0
  2  4  1  0  0  0  0
  2  5  1  0  0  0  0
  5  6  2  0  0  0  0
  5  7  1  0  0  0  0
  7  8  1  0  0  0  0
  7  9  1  0  0  0  0
  9 10  1  0  0  0  0
  9 11  1  0  0  0  0
  9 22  1  0  0  0  0
 11 12  1  0  0  0  0
 11 13  1  0  0  0  0
 11 14  1  0  0  0  0
 14 15  1  0  0  0  0
 14 16  1  0  0  0  0
 14 17  1  0  0  0  0
 17 18  2  0  0  0  0
 17 19  1  0  0  0  0
 19 20  1  0  0  0  0
 19 21  1  0  0  0  0
 22 23  2  0  0  0  0
 22 24  1  0  0  0  0
 24 25  1  0  0  0  0
 24 26  1  0  0  0  0
 26 27  1  0  0  0  0
 26 28  1  0  0  0  0
 26 29  1  0  0  0  0
M  END
$$$$

  -OEChem-04042215583D

 29 28  0     1  0  0  0  0  0999 V2000
   -2.8826   -3.9461    1.2751 H   0  0  0  0  0  0  0  0  0  0  0  0
   -2.9667   -2.9445    0.8446 C   0  0  0  0  0  0  0  0  0  0  0  0
   -3.6280   -2.3445    1.4744 H   0  0  0  0  0  0  0  0  0  0  0  0
   -3.4008   -3.0257   -0.1547 H   0  0  0  0  0  0  0  0  0  0  0  0
   -1.5989   -2.2934    0.7637 C   0  0  0  0  0  0  0  0  0  0  0  0
   -0.6074   -2.9021    1.1360 O   0  0  0  0  0  0  0  0  0  0  0  0
   -1.4744   -1.0234    0.2403 N   0  0  0  0  0  0  0  0  0  0  0  0
   -2.3382   -0.5166    0.0464 H   0  0  0  0  0  0  0  0  0  0  0  0
   -0.2537   -0.2114    0.3346 C   0  0  1  0  0  0  0  0  0  0  0  0
    0.4047   -0.6110    1.1129 H   0  0  0  0  0  0  0  0  0  0  0  0
    0.4499   -0.2530   -1.0360 C   0  0  0  0  0  0  0  0  0  0  0  0
    0.6680   -1.3009   -1.2688 H   0  0  0  0  0  0  0  0  0  0  0  0
   -0.2376    0.1166   -1.8049 H   0  0  0  0  0  0  0  0  0  0  0  0
    1.7659    0.5491   -1.1202 C   0  0  0  0  0  0  0  0  0  0  0  0
    2.2987    0.2844   -2.0376 H   0  0  0  0  0  0  0  0  0  0  0  0
    1.5334    1.6171   -1.1754 H   0  0  0  0  0  0  0  0  0  0  0  0
    2.6856    0.3246    0.0774 C   0  0  0  0  0  0  0  0  0  0  0  0
    2.6875    1.0662    1.0427 O   0  0  0  0  0  0  0  0  0  0  0  0
    3.4807   -0.7808    0.1710 N   0  0  0  0  0  0  0  0  0  0  0  0
    3.8818   -0.9629    1.0866 H   0  0  0  0  0  0  0  0  0  0  0  0
    3.3235   -1.5498   -0.4725 H   0  0  0  0  0  0  0  0  0  0  0  0
   -0.6507    1.2279    0.7400 C   0  0  0  0  0  0  0  0  0  0  0  0
   -1.6703    1.7193    0.2649 O   0  0  0  0  0  0  0  0  0  0  0  0
    0.0433    1.9184    1.7140 N   0  0  0  0  0  0  0  0  0  0  0  0
    0.9904    1.5817    1.9074 H   0  0  0  0  0  0  0  0  0  0  0  0
   -0.2787    3.2887    2.0898 C   0  0  0  0  0  0  0  0  0  0  0  0
   -1.3125    3.3577    2.4442 H   0  0  0  0  0  0  0  0  0  0  0  0
    0.3831    3.6229    2.8946 H   0  0  0  0  0  0  0  0  0  0  0  0
   -0.1525    3.9606    1.2345 H   0  0  0  0  0  0  0  0  0  0  0  0
  1  2  1  0  0  0  0
  2  3  1  0  0  0  0
  2  4  1  0  0  0  0
  2  5  1  0  0  0  0
  5  6  2  0  0  0  0
  5  7  1  0  0  0  0
  7  8  1  0  0  0  0
  7  9  1  0  0  0  0
  9 10  1  0  0  0  0
  9 11  1  0  0  0  0
  9 22  1  0  0  0  0
 11 12  1  0  0  0  0
 11 13  1  0  0  0  0
 11 14  1  0  0  0  0
 14 15  1  0  0  0  0
 14 16  1  0  0  0  0
 14 17  1  0  0  0  0
 17 18  2  0  0  0  0
 17 19  1  0  0  0  0
 19 20  1  0  0  0  0
 19 21  1  0  0  0  0
 22 23  2  0  0  0  0
 22 24  1  0  0  0  0
 24 25  1  0  0  0  0
 24 26  1  0  0  0  0
 26 27  1  0  0  0  0
 26 28  1  0  0  0  0
 26 29  1  0  0  0  0
M  END
$$$$

  -OEChem-04042215583D

 29 28  0     1  0  0  0  0  0999 V2000
   -2.9024   -3.9660    1.2726 H   0  0  0  0  0  0  0  0  0  0  0  0
   -2.9948   -2.9663    0.8390 C   0  0  0  0  0  0  0  0  0  0  0  0
   -3.6553   -2.3683    1.4716 H   0  0  0  0  0  0  0  0  0  0  0  0
   -3.4355   -3.0531   -0.1569 H   0  0  0  0  0  0  0  0  0  0  0  0
   -1.6311   -2.3079    0.7467 C   0  0  0  0  0  0  0  0  0  0  0  0
   -0.6346   -2.9116    1.1129 O   0  0  0  0  0  0  0  0  0  0  0  0
   -1.5186   -1.0377    0.2205 N   0  0  0  0  0  0  0  0  0  0  0  0
   -2.3878   -0.5450    0.0176 H   0  0  0  0  0  0  0  0  0  0  0  0
   -0.3081   -0.2102    0.3099 C   0  0  1  0  0  0  0  0  0  0  0  0
    0.3279   -0.6047    1.1095 H   0  0  0  0  0  0  0  0  0  0  0  0
    0.4569   -0.2997   -1.0228 C   0  0  0  0  0  0  0  0  0  0  0  0
    0.6997   -1.3495   -1.2201 H   0  0  0  0  0  0  0  0  0  0  0  0
   -0.1975    0.0459   -1.8303 H   0  0  0  0  0  0  0  0  0  0  0  0
    1.7521    0.5361   -1.0406 C   0  0  0  0  0  0  0  0  0  0  0  0
    2.2347    0.4313   -2.0160 H   0  0  0  0  0  0  0  0  0  0  0  0
    1.5233    1.5979   -0.9089 H   0  0  0  0  0  0  0  0  0  0  0  0
    2.7337    0.0982    0.0400 C   0  0  0  0  0  0  0  0  0  0  0  0
    2.7206    0.6180    1.1421 O   0  0  0  0  0  0  0  0  0  0  0  0
    3.5977   -0.9436   -0.1364 N   0  0  0  0  0  0  0  0  0  0  0  0
    4.0334   -1.3023    0.7089 H   0  0  0  0  0  0  0  0  0  0  0  0
    3.4602   -1.5586   -0.9316 H   0  0  0  0  0  0  0  0  0  0  0  0
   -0.6571    1.2376    0.7078 C   0  0  0  0  0  0  0  0  0  0  0  0
   -1.6519    1.7729    0.2305 O   0  0  0  0  0  0  0  0  0  0  0  0
    0.0859    1.8915    1.6712 N   0  0  0  0  0  0  0  0  0  0  0  0
    0.9901    1.4722    1.9056 H   0  0  0  0  0  0  0  0  0  0  0  0
   -0.1560    3.2748    2.0569 C   0  0  0  0  0  0  0  0  0  0  0  0
   -1.1787    3.3963    2.4289 H   0  0  0  0  0  0  0  0  0  0  0  0
    0.5362    3.5704    2.8513 H   0  0  0  0  0  0  0  0  0  0  0  0
   -0.0094    3.9420    1.2013 H   0  0  0  0  0  0  0  0  0  0  0  0
  1  2  1  0  0  0  0
  2  3  1  0  0  0  0
  2  4  1  0  0  0  0
  2  5  1  0  0  0  0
  5  6  2  0  0  0  0
  5  7  1  0  0  0  0
  7  8  1  0  0  0  0
  7  9  1  0  0  0  0
  9 10  1  0  0  0  0
  9 11  1  0  0  0  0
  9 22  1  0  0  0  0
 11 12  1  0  0  0  0
 11 13  1  0  0  0  0
 11 14  1  0  0  0  0
 14 15  1  0  0  0  0
 14 16  1  0  0  0  0
 14 17  1  0  0  0  0
 17 18  2  0  0  0  0
 17 19  1  0  0  0  0
 19 20  1  0  0  0  0
 19 21  1  0  0  0  0
 22 23  2  0  0  0  0
 22 24  1  0  0  0  0
 24 25  1  0  0  0  0
 24 26  1  0  0  0  0
 26 27  1  0  0  0  0
 26 28  1  0  0  0  0
 26 29  1  0  0  0  0
M  END
$$$$

  -OEChem-04042215583D

 29 28  0     1  0  0  0  0  0999 V2000
   -2.9338   -3.9656    1.1884 H   0  0  0  0  0  0  0  0  0  0  0  0
   -3.0174   -2.9622    0.7618 C   0  0  0  0  0  0  0  0  0  0  0  0
   -3.7013   -2.3737    1.3781 H   0  0  0  0  0  0  0  0  0  0  0  0
   -3.4249   -3.0419   -0.2489 H   0  0  0  0  0  0  0  0  0  0  0  0
   -1.6545   -2.2968    0.7203 C   0  0  0  0  0  0  0  0  0  0  0  0
   -0.6696   -2.8990    1.1175 O   0  0  0  0  0  0  0  0  0  0  0  0
   -1.5286   -1.0250    0.2005 N   0  0  0  0  0  0  0  0  0  0  0  0
   -2.3913   -0.5350   -0.0328 H   0  0  0  0  0  0  0  0  0  0  0  0
   -0.3175   -0.2001    0.3098 C   0  0  1  0  0  0  0  0  0  0  0  0
    0.3017   -0.5955    1.1228 H   0  0  0  0  0  0  0  0  0  0  0  0
    0.4852   -0.3218   -0.9970 C   0  0  0  0  0  0  0  0  0  0  0  0
    0.7219   -1.3750   -1.1839 H   0  0  0  0  0  0  0  0  0  0  0  0
   -0.1450    0.0265   -1.8223 H   0  0  0  0  0  0  0  0  0  0  0  0
    1.7791    0.5138   -0.9802 C   0  0  0  0  0  0  0  0  0  0  0  0
    2.1698    0.5788   -1.9993 H   0  0  0  0  0  0  0  0  0  0  0  0
    1.5976    1.5390   -0.6472 H   0  0  0  0  0  0  0  0  0  0  0  0
    2.8433   -0.1352   -0.1090 C   0  0  0  0  0  0  0  0  0  0  0  0
    2.9403    0.1770    1.0641 O   0  0  0  0  0  0  0  0  0  0  0  0
    3.6687   -1.1240   -0.5619 N   0  0  0  0  0  0  0  0  0  0  0  0
    4.1758   -1.6364    0.1546 H   0  0  0  0  0  0  0  0  0  0  0  0
    3.4505   -1.5733   -1.4449 H   0  0  0  0  0  0  0  0  0  0  0  0
   -0.6523    1.2496    0.7060 C   0  0  0  0  0  0  0  0  0  0  0  0
   -1.6229    1.8096    0.2090 O   0  0  0  0  0  0  0  0  0  0  0  0
    0.0936    1.8836    1.6814 N   0  0  0  0  0  0  0  0  0  0  0  0
    0.9439    1.4117    1.9931 H   0  0  0  0  0  0  0  0  0  0  0  0
   -0.1453    3.2563    2.1061 C   0  0  0  0  0  0  0  0  0  0  0  0
   -1.1562    3.3605    2.5141 H   0  0  0  0  0  0  0  0  0  0  0  0
    0.5710    3.5402    2.8830 H   0  0  0  0  0  0  0  0  0  0  0  0
   -0.0325    3.9445    1.2619 H   0  0  0  0  0  0  0  0  0  0  0  0
  1  2  1  0  0  0  0
  2  3  1  0  0  0  0
  2  4  1  0  0  0  0
  2  5  1  0  0  0  0
  5  6  2  0  0  0  0
  5  7  1  0  0  0  0
  7  8  1  0  0  0  0
  7  9  1  0  0  0  0
  9 10  1  0  0  0  0
  9 11  1  0  0  0  0
  9 22  1  0  0  0  0
 11 12  1  0  0  0  0
 11 13  1  0  0  0  0
 11 14  1  0  0  0  0
 14 15  1  0  0  0  0
 14 16  1  0  0  0  0
 14 17  1  0  0  0  0
 17 18  2  0  0  0  0
 17 19  1  0  0  0  0
 19 20  1  0  0  0  0
 19 21  1  0  0  0  0
 22 23  2  0  0  0  0
 22 24  1  0  0  0  0
 24 25  1  0  0  0  0
 24 26  1  0  0  0  0
 26 27  1  0  0  0  0
 26 28  1  0  0  0  0
 26 29  1  0  0  0  0
M  END
$$$$

  -OEChem-04042215583D

 29 28  0     1  0  0  0  0  0999 V2000
   -3.0268   -3.9051    1.1286 H   0  0  0  0  0  0  0  0  0  0  0  0
   -3.0608   -2.9077    0.6813 C   0  0  0  0  0  0  0  0  0  0  0  0
   -3.7653   -2.2924    1.2462 H   0  0  0  0  0  0  0  0  0  0  0  0
   -3.4100   -2.9955   -0.3503 H   0  0  0  0  0  0  0  0  0  0  0  0
   -1.6825   -2.2747    0.7101 C   0  0  0  0  0  0  0  0  0  0  0  0
   -0.7362   -2.8917    1.1716 O   0  0  0  0  0  0  0  0  0  0  0  0
   -1.5012   -1.0084    0.1942 N   0  0  0  0  0  0  0  0  0  0  0  0
   -2.3385   -0.5029   -0.0932 H   0  0  0  0  0  0  0  0  0  0  0  0
   -0.2775   -0.2102    0.3541 C   0  0  1  0  0  0  0  0  0  0  0  0
    0.3231   -0.6149    1.1767 H   0  0  0  0  0  0  0  0  0  0  0  0
    0.5396   -0.3305   -0.9441 C   0  0  0  0  0  0  0  0  0  0  0  0
    0.7404   -1.3869   -1.1550 H   0  0  0  0  0  0  0  0  0  0  0  0
   -0.0756    0.0551   -1.7647 H   0  0  0  0  0  0  0  0  0  0  0  0
    1.8593    0.4661   -0.9118 C   0  0  0  0  0  0  0  0  0  0  0  0
    2.1183    0.7547   -1.9340 H   0  0  0  0  0  0  0  0  0  0  0  0
    1.7717    1.3911   -0.3377 H   0  0  0  0  0  0  0  0  0  0  0  0
    3.0045   -0.3735   -0.3665 C   0  0  0  0  0  0  0  0  0  0  0  0
    3.3368   -0.2784    0.7993 O   0  0  0  0  0  0  0  0  0  0  0  0
    3.6858   -1.2771   -1.1307 N   0  0  0  0  0  0  0  0  0  0  0  0
    4.2915   -1.9159   -0.6228 H   0  0  0  0  0  0  0  0  0  0  0  0
    3.2989   -1.5494   -2.0278 H   0  0  0  0  0  0  0  0  0  0  0  0
   -0.6314    1.2419    0.7307 C   0  0  0  0  0  0  0  0  0  0  0  0
   -1.5625    1.8063    0.1673 O   0  0  0  0  0  0  0  0  0  0  0  0
    0.0574    1.8884    1.7395 N   0  0  0  0  0  0  0  0  0  0  0  0
    0.8347    1.3912    2.1706 H   0  0  0  0  0  0  0  0  0  0  0  0
   -0.2300    3.2530    2.1615 C   0  0  0  0  0  0  0  0  0  0  0  0
   -1.2519    3.3273    2.5478 H   0  0  0  0  0  0  0  0  0  0  0  0
    0.4618    3.5567    2.9532 H   0  0  0  0  0  0  0  0  0  0  0  0
   -0.1190    3.9457    1.3207 H   0  0  0  0  0  0  0  0  0  0  0  0
  1  2  1  0  0  0  0
  2  3  1  0  0  0  0
  2  4  1  0  0  0  0
  2  5  1  0  0  0  0
  5  6  2  0  0  0  0
  5  7  1  0  0  0  0
  7  8  1  0  0  0  0
  7  9  1  0  0  0  0
  9 10  1  0  0  0  0
  9 11  1  0  0  0  0
  9 22  1  0  0  0  0
 11 12  1  0  0  0  0
 11 13  1  0  0  0  0
 11 14  1  0  0  0  0
 14 15  1  0  0  0  0
 14 16  1  0  0  0  0
 14 17  1  0  0  0  0
 17 18  2  0  0  0  0
 17 19  1  0  0  0  0
 19 20  1  0  0  0  0
 19 21  1  0  0  0  0
 22 23  2  0  0  0  0
 22 24  1  0  0  0  0
 24 25  1  0  0  0  0
 24 26  1  0  0  0  0
 26 27  1  0  0  0  0
 26 28  1  0  0  0  0
 26 29  1  0  0  0  0
M  END
$$$$

  -OEChem-04042215583D

 29 28  0     1  0  0  0  0  0999 V2000
   -3.0994   -3.8691    1.0260 H   0  0  0  0  0  0  0  0  0  0  0  0
   -3.0964   -2.8681    0.5857 C   0  0  0  0  0  0  0  0  0  0  0  0
   -3.8276   -2.2498    1.1121 H   0  0  0  0  0  0  0  0  0  0  0  0
   -3.3834   -2.9448   -0.4658 H   0  0  0  0  0  0  0  0  0  0  0  0
   -1.7157   -2.2507    0.7021 C   0  0  0  0  0  0  0  0  0  0  0  0
   -0.8096   -2.8762    1.2277 O   0  0  0  0  0  0  0  0  0  0  0  0
   -1.4847   -0.9897    0.1929 N   0  0  0  0  0  0  0  0  0  0  0  0
   -2.2941   -0.4717   -0.1471 H   0  0  0  0  0  0  0  0  0  0  0  0
   -0.2483   -0.2209    0.3939 C   0  0  1  0  0  0  0  0  0  0  0  0
    0.3304   -0.6402    1.2246 H   0  0  0  0  0  0  0  0  0  0  0  0
    0.5808   -0.3397   -0.8969 C   0  0  0  0  0  0  0  0  0  0  0  0
    0.7524   -1.3996   -1.1164 H   0  0  0  0  0  0  0  0  0  0  0  0
   -0.0145    0.0694   -1.7207 H   0  0  0  0  0  0  0  0  0  0  0  0
    1.9238    0.4205   -0.8455 C   0  0  0  0  0  0  0  0  0  0  0  0
    2.0643    0.9564   -1.7883 H   0  0  0  0  0  0  0  0  0  0  0  0
    1.9409    1.1678   -0.0491 H   0  0  0  0  0  0  0  0  0  0  0  0
    3.1039   -0.5246   -0.6669 C   0  0  0  0  0  0  0  0  0  0  0  0
    3.6944   -0.5958    0.3930 O   0  0  0  0  0  0  0  0  0  0  0  0
    3.5558   -1.3287   -1.6744 N   0  0  0  0  0  0  0  0  0  0  0  0
    4.2243   -2.0447   -1.4040 H   0  0  0  0  0  0  0  0  0  0  0  0
    2.9804   -1.4532   -2.5003 H   0  0  0  0  0  0  0  0  0  0  0  0
   -0.5956    1.2378    0.7572 C   0  0  0  0  0  0  0  0  0  0  0  0
   -1.4875    1.8170    0.1473 O   0  0  0  0  0  0  0  0  0  0  0  0
    0.0594    1.8837    1.7893 N   0  0  0  0  0  0  0  0  0  0  0  0
    0.7791    1.3655    2.2880 H   0  0  0  0  0  0  0  0  0  0  0  0
   -0.2431    3.2482    2.2032 C   0  0  0  0  0  0  0  0  0  0  0  0
   -1.2818    3.3247    2.5411 H   0  0  0  0  0  0  0  0  0  0  0  0
    0.4114    3.5470    3.0276 H   0  0  0  0  0  0  0  0  0  0  0  0
   -0.0906    3.9445    1.3721 H   0  0  0  0  0  0  0  0  0  0  0  0
  1  2  1  0  0  0  0
  2  3  1  0  0  0  0
  2  4  1  0  0  0  0
  2  5  1  0  0  0  0
  5  6  2  0  0  0  0
  5  7  1  0  0  0  0
  7  8  1  0  0  0  0
  7  9  1  0  0  0  0
  9 10  1  0  0  0  0
  9 11  1  0  0  0  0
  9 22  1  0  0  0  0
 11 12  1  0  0  0  0
 11 13  1  0  0  0  0
 11 14  1  0  0  0  0
 14 15  1  0  0  0  0
 14 16  1  0  0  0  0
 14 17  1  0  0  0  0
 17 18  2  0  0  0  0
 17 19  1  0  0  0  0
 19 20  1  0  0  0  0
 19 21  1  0  0  0  0
 22 23  2  0  0  0  0
 22 24  1  0  0  0  0
 24 25  1  0  0  0  0
 24 26  1  0  0  0  0
 26 27  1  0  0  0  0
 26 28  1  0  0  0  0
 26 29  1  0  0  0  0
M  END
$$$$

  -OEChem-04042215583D

 29 28  0     1  0  0  0  0  0999 V2000
   -3.3772   -3.7624    1.3914 H   0  0  0  0  0  0  0  0  0  0  0  0
   -3.3246   -2.8137    0.8498 C   0  0  0  0  0  0  0  0  0  0  0  0
   -4.0483   -2.1196    1.2837 H   0  0  0  0  0  0  0  0  0  0  0  0
   -3.5824   -2.9916   -0.1971 H   0  0  0  0  0  0  0  0  0  0  0  0
   -1.9261   -2.2331    0.9467 C   0  0  0  0  0  0  0  0  0  0  0  0
   -1.0647   -2.8207    1.5805 O   0  0  0  0  0  0  0  0  0  0  0  0
   -1.6430   -1.0267    0.3400 N   0  0  0  0  0  0  0  0  0  0  0  0
   -2.4153   -0.5277   -0.0983 H   0  0  0  0  0  0  0  0  0  0  0  0
   -0.3424   -0.3445    0.3902 C   0  0  1  0  0  0  0  0  0  0  0  0
    0.2868   -0.7658    1.1815 H   0  0  0  0  0  0  0  0  0  0  0  0
    0.3391   -0.5649   -0.9739 C   0  0  0  0  0  0  0  0  0  0  0  0
    0.4034   -1.6438   -1.1498 H   0  0  0  0  0  0  0  0  0  0  0  0
   -0.3036   -0.1564   -1.7613 H   0  0  0  0  0  0  0  0  0  0  0  0
    1.7378    0.0979   -1.0874 C   0  0  0  0  0  0  0  0  0  0  0  0
    1.7067    0.8353   -1.8943 H   0  0  0  0  0  0  0  0  0  0  0  0
    1.9794    0.6339   -0.1671 H   0  0  0  0  0  0  0  0  0  0  0  0
    2.8989   -0.8590   -1.3672 C   0  0  0  0  0  0  0  0  0  0  0  0
    2.7747   -2.0525   -1.5612 O   0  0  0  0  0  0  0  0  0  0  0  0
    4.1802   -0.3943   -1.4469 N   0  0  0  0  0  0  0  0  0  0  0  0
    4.8645   -1.0500   -1.8135 H   0  0  0  0  0  0  0  0  0  0  0  0
    4.3379    0.6046   -1.5230 H   0  0  0  0  0  0  0  0  0  0  0  0
   -0.5537    1.1554    0.6841 C   0  0  0  0  0  0  0  0  0  0  0  0
   -1.4147    1.7822    0.0772 O   0  0  0  0  0  0  0  0  0  0  0  0
    0.2319    1.8064    1.6179 N   0  0  0  0  0  0  0  0  0  0  0  0
    0.8593    1.2348    2.1774 H   0  0  0  0  0  0  0  0  0  0  0  0
    0.0291    3.2003    1.9940 C   0  0  0  0  0  0  0  0  0  0  0  0
   -0.9742    3.3430    2.4093 H   0  0  0  0  0  0  0  0  0  0  0  0
    0.7621    3.4990    2.7495 H   0  0  0  0  0  0  0  0  0  0  0  0
    0.1461    3.8536    1.1230 H   0  0  0  0  0  0  0  0  0  0  0  0
  1  2  1  0  0  0  0
  2  3  1  0  0  0  0
  2  4  1  0  0  0  0
  2  5  1  0  0  0  0
  5  6  2  0  0  0  0
  5  7  1  0  0  0  0
  7  8  1  0  0  0  0
  7  9  1  0  0  0  0
  9 10  1  0  0  0  0
  9 11  1  0  0  0  0
  9 22  1  0  0  0  0
 11 12  1  0  0  0  0
 11 13  1  0  0  0  0
 11 14  1  0  0  0  0
 14 15  1  0  0  0  0
 14 16  1  0  0  0  0
 14 17  1  0  0  0  0
 17 18  2  0  0  0  0
 17 19  1  0  0  0  0
 19 20  1  0  0  0  0
 19 21  1  0  0  0  0
 22 23  2  0  0  0  0
 22 24  1  0  0  0  0
 24 25  1  0  0  0  0
 24 26  1  0  0  0  0
 26 27  1  0  0  0  0
 26 28  1  0  0  0  0
 26 29  1  0  0  0  0
M  END
$$$$

  -OEChem-04042215583D

 29 28  0     1  0  0  0  0  0999 V2000
   -3.2178   -3.8202    1.4540 H   0  0  0  0  0  0  0  0  0  0  0  0
   -3.2219   -2.8610    0.9288 C   0  0  0  0  0  0  0  0  0  0  0  0
   -3.9240   -2.1888    1.4279 H   0  0  0  0  0  0  0  0  0  0  0  0
   -3.5525   -3.0241   -0.0998 H   0  0  0  0  0  0  0  0  0  0  0  0
   -1.8312   -2.2550    0.9346 C   0  0  0  0  0  0  0  0  0  0  0  0
   -0.9125   -2.8360    1.4908 O   0  0  0  0  0  0  0  0  0  0  0  0
   -1.6151   -1.0343    0.3298 N   0  0  0  0  0  0  0  0  0  0  0  0
   -2.4258   -0.5433   -0.0440 H   0  0  0  0  0  0  0  0  0  0  0  0
   -0.3347   -0.3149    0.3279 C   0  0  1  0  0  0  0  0  0  0  0  0
    0.3374   -0.7258    1.0881 H   0  0  0  0  0  0  0  0  0  0  0  0
    0.2987   -0.4954   -1.0632 C   0  0  0  0  0  0  0  0  0  0  0  0
    0.4229   -1.5717   -1.2307 H   0  0  0  0  0  0  0  0  0  0  0  0
   -0.3817   -0.1252   -1.8383 H   0  0  0  0  0  0  0  0  0  0  0  0
    1.6642    0.2162   -1.2051 C   0  0  0  0  0  0  0  0  0  0  0  0
    1.5399    1.1432   -1.7721 H   0  0  0  0  0  0  0  0  0  0  0  0
    2.0481    0.4814   -0.2170 H   0  0  0  0  0  0  0  0  0  0  0  0
    2.7207   -0.6519   -1.8850 C   0  0  0  0  0  0  0  0  0  0  0  0
    2.4656   -1.3771   -2.8272 O   0  0  0  0  0  0  0  0  0  0  0  0
    4.0257   -0.6418   -1.4827 N   0  0  0  0  0  0  0  0  0  0  0  0
    4.6827   -1.1211   -2.0918 H   0  0  0  0  0  0  0  0  0  0  0  0
    4.3463    0.0851   -0.8529 H   0  0  0  0  0  0  0  0  0  0  0  0
   -0.5676    1.1756    0.6489 C   0  0  0  0  0  0  0  0  0  0  0  0
   -1.4850    1.7807    0.1069 O   0  0  0  0  0  0  0  0  0  0  0  0
    0.2461    1.8362    1.5515 N   0  0  0  0  0  0  0  0  0  0  0  0
    0.9147    1.2760    2.0725 H   0  0  0  0  0  0  0  0  0  0  0  0
    0.0259    3.2201    1.9545 C   0  0  0  0  0  0  0  0  0  0  0  0
   -0.9180    3.3141    2.5018 H   0  0  0  0  0  0  0  0  0  0  0  0
    0.8393    3.5594    2.6030 H   0  0  0  0  0  0  0  0  0  0  0  0
   -0.0092    3.8749    1.0773 H   0  0  0  0  0  0  0  0  0  0  0  0
  1  2  1  0  0  0  0
  2  3  1  0  0  0  0
  2  4  1  0  0  0  0
  2  5  1  0  0  0  0
  5  6  2  0  0  0  0
  5  7  1  0  0  0  0
  7  8  1  0  0  0  0
  7  9  1  0  0  0  0
  9 10  1  0  0  0  0
  9 11  1  0  0  0  0
  9 22  1  0  0  0  0
 11 12  1  0  0  0  0
 11 13  1  0  0  0  0
 11 14  1  0  0  0  0
 14 15  1  0  0  0  0
 14 16  1  0  0  0  0
 14 17  1  0  0  0  0
 17 18  2  0  0  0  0
 17 19  1  0  0  0  0
 19 20  1  0  0  0  0
 19 21  1  0  0  0  0
 22 23  2  0  0  0  0
 22 24  1  0  0  0  0
 24 25  1  0  0  0  0
 24 26  1  0  0  0  0
 26 27  1  0  0  0  0
 26 28  1  0  0  0  0
 26 29  1  0  0  0  0
M  END
$$$$

  -OEChem-04042215583D

 29 28  0     1  0  0  0  0  0999 V2000
   -3.2985   -3.8101    1.4093 H   0  0  0  0  0  0  0  0  0  0  0  0
   -3.2817   -2.8523    0.8819 C   0  0  0  0  0  0  0  0  0  0  0  0
   -4.0010   -2.1780    1.3526 H   0  0  0  0  0  0  0  0  0  0  0  0
   -3.5739   -3.0183   -0.1578 H   0  0  0  0  0  0  0  0  0  0  0  0
   -1.8909   -2.2487    0.9385 C   0  0  0  0  0  0  0  0  0  0  0  0
   -0.9954   -2.8322    1.5289 O   0  0  0  0  0  0  0  0  0  0  0  0
   -1.6457   -1.0336    0.3328 N   0  0  0  0  0  0  0  0  0  0  0  0
   -2.4382   -0.5423   -0.0778 H   0  0  0  0  0  0  0  0  0  0  0  0
   -0.3559   -0.3309    0.3547 C   0  0  1  0  0  0  0  0  0  0  0  0
    0.2919   -0.7477    1.1330 H   0  0  0  0  0  0  0  0  0  0  0  0
    0.3078   -0.5331   -1.0182 C   0  0  0  0  0  0  0  0  0  0  0  0
    0.4313   -1.6125   -1.1641 H   0  0  0  0  0  0  0  0  0  0  0  0
   -0.3464   -0.1678   -1.8176 H   0  0  0  0  0  0  0  0  0  0  0  0
    1.6827    0.1625   -1.1233 C   0  0  0  0  0  0  0  0  0  0  0  0
    1.5481    1.1976   -1.4499 H   0  0  0  0  0  0  0  0  0  0  0  0
    2.1551    0.1790   -0.1375 H   0  0  0  0  0  0  0  0  0  0  0  0
    2.6500   -0.5445   -2.0718 C   0  0  0  0  0  0  0  0  0  0  0  0
    2.2919   -1.3368   -2.9224 O   0  0  0  0  0  0  0  0  0  0  0  0
    3.9899   -0.2832   -2.0411 N   0  0  0  0  0  0  0  0  0  0  0  0
    4.5311   -0.6536   -2.8173 H   0  0  0  0  0  0  0  0  0  0  0  0
    4.3255    0.5193   -1.5200 H   0  0  0  0  0  0  0  0  0  0  0  0
   -0.5630    1.1658    0.6629 C   0  0  0  0  0  0  0  0  0  0  0  0
   -1.4516    1.7905    0.0958 O   0  0  0  0  0  0  0  0  0  0  0  0
    0.2482    1.8120    1.5779 N   0  0  0  0  0  0  0  0  0  0  0  0
    0.8978    1.2400    2.1102 H   0  0  0  0  0  0  0  0  0  0  0  0
    0.0574    3.2041    1.9668 C   0  0  0  0  0  0  0  0  0  0  0  0
   -0.9145    3.3360    2.4538 H   0  0  0  0  0  0  0  0  0  0  0  0
    0.8405    3.5123    2.6662 H   0  0  0  0  0  0  0  0  0  0  0  0
    0.1035    3.8577    1.0893 H   0  0  0  0  0  0  0  0  0  0  0  0
  1  2  1  0  0  0  0
  2  3  1  0  0  0  0
  2  4  1  0  0  0  0
  2  5  1  0  0  0  0
  5  6  2  0  0  0  0
  5  7  1  0  0  0  0
  7  8  1  0  0  0  0
  7  9  1  0  0  0  0
  9 10  1  0  0  0  0
  9 11  1  0  0  0  0
  9 22  1  0  0  0  0
 11 12  1  0  0  0  0
 11 13  1  0  0  0  0
 11 14  1  0  0  0  0
 14 15  1  0  0  0  0
 14 16  1  0  0  0  0
 14 17  1  0  0  0  0
 17 18  2  0  0  0  0
 17 19  1  0  0  0  0
 19 20  1  0  0  0  0
 19 21  1  0  0  0  0
 22 23  2  0  0  0  0
 22 24  1  0  0  0  0
 24 25  1  0  0  0  0
 24 26  1  0  0  0  0
 26 27  1  0  0  0  0
 26 28  1  0  0  0  0
 26 29  1  0  0  0  0
M  END
$$$$

  -OEChem-04042215583D

 29 28  0     1  0  0  0  0  0999 V2000
   -3.3596   -3.7676    1.4122 H   0  0  0  0  0  0  0  0  0  0  0  0
   -3.3179   -2.8198    0.8680 C   0  0  0  0  0  0  0  0  0  0  0  0
   -4.0256   -2.1218    1.3219 H   0  0  0  0  0  0  0  0  0  0  0  0
   -3.6062   -2.9970   -0.1709 H   0  0  0  0  0  0  0  0  0  0  0  0
   -1.9147   -2.2459    0.9237 C   0  0  0  0  0  0  0  0  0  0  0  0
   -1.0315   -2.8472    1.5147 O   0  0  0  0  0  0  0  0  0  0  0  0
   -1.6461   -1.0344    0.3211 N   0  0  0  0  0  0  0  0  0  0  0  0
   -2.4290   -0.5291   -0.0909 H   0  0  0  0  0  0  0  0  0  0  0  0
   -0.3497   -0.3455    0.3629 C   0  0  1  0  0  0  0  0  0  0  0  0
    0.2802   -0.7659    1.1535 H   0  0  0  0  0  0  0  0  0  0  0  0
    0.3365   -0.5604   -0.9969 C   0  0  0  0  0  0  0  0  0  0  0  0
    0.4561   -1.6397   -1.1474 H   0  0  0  0  0  0  0  0  0  0  0  0
   -0.3018   -0.1841   -1.8043 H   0  0  0  0  0  0  0  0  0  0  0  0
    1.7183    0.1203   -1.0784 C   0  0  0  0  0  0  0  0  0  0  0  0
    1.5920    1.2031   -1.1646 H   0  0  0  0  0  0  0  0  0  0  0  0
    2.2767   -0.0863   -0.1613 H   0  0  0  0  0  0  0  0  0  0  0  0
    2.5610   -0.3706   -2.2549 C   0  0  0  0  0  0  0  0  0  0  0  0
    2.1550   -1.1580   -3.0885 O   0  0  0  0  0  0  0  0  0  0  0  0
    3.8310    0.0899   -2.4531 N   0  0  0  0  0  0  0  0  0  0  0  0
    4.2504   -0.1413   -3.3492 H   0  0  0  0  0  0  0  0  0  0  0  0
    4.1484    0.9009   -1.9338 H   0  0  0  0  0  0  0  0  0  0  0  0
   -0.5511    1.1527    0.6663 C   0  0  0  0  0  0  0  0  0  0  0  0
   -1.4286    1.7819    0.0871 O   0  0  0  0  0  0  0  0  0  0  0  0
    0.2489    1.7949    1.5939 N   0  0  0  0  0  0  0  0  0  0  0  0
    0.8904    1.2204    2.1335 H   0  0  0  0  0  0  0  0  0  0  0  0
    0.0540    3.1862    1.9838 C   0  0  0  0  0  0  0  0  0  0  0  0
   -0.9369    3.3238    2.4293 H   0  0  0  0  0  0  0  0  0  0  0  0
    0.8087    3.4830    2.7184 H   0  0  0  0  0  0  0  0  0  0  0  0
    0.1430    3.8448    1.1133 H   0  0  0  0  0  0  0  0  0  0  0  0
  1  2  1  0  0  0  0
  2  3  1  0  0  0  0
  2  4  1  0  0  0  0
  2  5  1  0  0  0  0
  5  6  2  0  0  0  0
  5  7  1  0  0  0  0
  7  8  1  0  0  0  0
  7  9  1  0  0  0  0
  9 10  1  0  0  0  0
  9 11  1  0  0  0  0
  9 22  1  0  0  0  0
 11 12  1  0  0  0  0
 11 13  1  0  0  0  0
 11 14  1  0  0  0  0
 14 15  1  0  0  0  0
 14 16  1  0  0  0  0
 14 17  1  0  0  0  0
 17 18  2  0  0  0  0
 17 19  1  0  0  0  0
 19 20  1  0  0  0  0
 19 21  1  0  0  0  0
 22 23  2  0  0  0  0
 22 24  1  0  0  0  0
 24 25  1  0  0  0  0
 24 26  1  0  0  0  0
 26 27  1  0  0  0  0
 26 28  1  0  0  0  0
 26 29  1  0  0  0  0
M  END
$$$$

  -OEChem-04042215583D

 29 28  0     1  0  0  0  0  0999 V2000
   -3.3692   -3.7738    1.4050 H   0  0  0  0  0  0  0  0  0  0  0  0
   -3.3297   -2.8246    0.8633 C   0  0  0  0  0  0  0  0  0  0  0  0
   -4.0370   -2.1284    1.3204 H   0  0  0  0  0  0  0  0  0  0  0  0
   -3.6202   -2.9997   -0.1755 H   0  0  0  0  0  0  0  0  0  0  0  0
   -1.9272   -2.2490    0.9182 C   0  0  0  0  0  0  0  0  0  0  0  0
   -1.0406   -2.8544    1.5002 O   0  0  0  0  0  0  0  0  0  0  0  0
   -1.6604   -1.0368    0.3160 N   0  0  0  0  0  0  0  0  0  0  0  0
   -2.4451   -0.5301   -0.0910 H   0  0  0  0  0  0  0  0  0  0  0  0
   -0.3645   -0.3467    0.3554 C   0  0  1  0  0  0  0  0  0  0  0  0
    0.2554   -0.7735    1.1505 H   0  0  0  0  0  0  0  0  0  0  0  0
    0.3316   -0.5685   -0.9978 C   0  0  0  0  0  0  0  0  0  0  0  0
    0.2355   -1.6230   -1.2815 H   0  0  0  0  0  0  0  0  0  0  0  0
   -0.1684    0.0263   -1.7713 H   0  0  0  0  0  0  0  0  0  0  0  0
    1.8291   -0.2115   -0.9436 C   0  0  0  0  0  0  0  0  0  0  0  0
    1.9476    0.8375   -0.6600 H   0  0  0  0  0  0  0  0  0  0  0  0
    2.3227   -0.8282   -0.1875 H   0  0  0  0  0  0  0  0  0  0  0  0
    2.5374   -0.4263   -2.2802 C   0  0  0  0  0  0  0  0  0  0  0  0
    1.9793   -0.8555   -3.2724 O   0  0  0  0  0  0  0  0  0  0  0  0
    3.8605   -0.1264   -2.4337 N   0  0  0  0  0  0  0  0  0  0  0  0
    4.2152   -0.1438   -3.3857 H   0  0  0  0  0  0  0  0  0  0  0  0
    4.3355    0.4114   -1.7172 H   0  0  0  0  0  0  0  0  0  0  0  0
   -0.5455    1.1537    0.6592 C   0  0  0  0  0  0  0  0  0  0  0  0
   -1.4280    1.7900    0.0960 O   0  0  0  0  0  0  0  0  0  0  0  0
    0.2672    1.7860    1.5825 N   0  0  0  0  0  0  0  0  0  0  0  0
    0.9131    1.2066    2.1111 H   0  0  0  0  0  0  0  0  0  0  0  0
    0.0945    3.1807    1.9705 C   0  0  0  0  0  0  0  0  0  0  0  0
   -0.8925    3.3340    2.4196 H   0  0  0  0  0  0  0  0  0  0  0  0
    0.8561    3.4677    2.7019 H   0  0  0  0  0  0  0  0  0  0  0  0
    0.1903    3.8358    1.0980 H   0  0  0  0  0  0  0  0  0  0  0  0
  1  2  1  0  0  0  0
  2  3  1  0  0  0  0
  2  4  1  0  0  0  0
  2  5  1  0  0  0  0
  5  6  2  0  0  0  0
  5  7  1  0  0  0  0
  7  8  1  0  0  0  0
  7  9  1  0  0  0  0
  9 10  1  0  0  0  0
  9 11  1  0  0  0  0
  9 22  1  0  0  0  0
 11 12  1  0  0  0  0
 11 13  1  0  0  0  0
 11 14  1  0  0  0  0
 14 15  1  0  0  0  0
 14 16  1  0  0  0  0
 14 17  1  0  0  0  0
 17 18  2  0  0  0  0
 17 19  1  0  0  0  0
 19 20  1  0  0  0  0
 19 21  1  0  0  0  0
 22 23  2  0  0  0  0
 22 24  1  0  0  0  0
 24 25  1  0  0  0  0
 24 26  1  0  0  0  0
 26 27  1  0  0  0  0
 26 28  1  0  0  0  0
 26 29  1  0  0  0  0
M  END
$$$$

  -OEChem-04042215583D

 29 28  0     1  0  0  0  0  0999 V2000
   -3.3614   -3.7713    1.4030 H   0  0  0  0  0  0  0  0  0  0  0  0
   -3.3247   -2.8218    0.8616 C   0  0  0  0  0  0  0  0  0  0  0  0
   -4.0289   -2.1253    1.3231 H   0  0  0  0  0  0  0  0  0  0  0  0
   -3.6221   -2.9959   -0.1754 H   0  0  0  0  0  0  0  0  0  0  0  0
   -1.9213   -2.2478    0.9082 C   0  0  0  0  0  0  0  0  0  0  0  0
   -1.0296   -2.8599    1.4754 O   0  0  0  0  0  0  0  0  0  0  0  0
   -1.6580   -1.0312    0.3135 N   0  0  0  0  0  0  0  0  0  0  0  0
   -2.4459   -0.5185   -0.0799 H   0  0  0  0  0  0  0  0  0  0  0  0
   -0.3624   -0.3404    0.3540 C   0  0  1  0  0  0  0  0  0  0  0  0
    0.2613   -0.7704    1.1445 H   0  0  0  0  0  0  0  0  0  0  0  0
    0.3292   -0.5599   -1.0024 C   0  0  0  0  0  0  0  0  0  0  0  0
    0.2268   -1.6077   -1.3063 H   0  0  0  0  0  0  0  0  0  0  0  0
   -0.1794    0.0508   -1.7581 H   0  0  0  0  0  0  0  0  0  0  0  0
    1.8292   -0.2057   -0.9602 C   0  0  0  0  0  0  0  0  0  0  0  0
    1.9686    0.7487   -0.4466 H   0  0  0  0  0  0  0  0  0  0  0  0
    2.3708   -0.9736   -0.4015 H   0  0  0  0  0  0  0  0  0  0  0  0
    2.4460   -0.0681   -2.3511 C   0  0  0  0  0  0  0  0  0  0  0  0
    1.8882   -0.4333   -3.3685 O   0  0  0  0  0  0  0  0  0  0  0  0
    3.6963    0.4535   -2.5211 N   0  0  0  0  0  0  0  0  0  0  0  0
    4.0987    0.3533   -3.4487 H   0  0  0  0  0  0  0  0  0  0  0  0
    4.2945    0.5827   -1.7128 H   0  0  0  0  0  0  0  0  0  0  0  0
   -0.5507    1.1575    0.6692 C   0  0  0  0  0  0  0  0  0  0  0  0
   -1.4431    1.7911    0.1189 O   0  0  0  0  0  0  0  0  0  0  0  0
    0.2605    1.7875    1.5956 N   0  0  0  0  0  0  0  0  0  0  0  0
    0.9177    1.2101    2.1120 H   0  0  0  0  0  0  0  0  0  0  0  0
    0.0842    3.1794    1.9922 C   0  0  0  0  0  0  0  0  0  0  0  0
   -0.9086    3.3311    2.4289 H   0  0  0  0  0  0  0  0  0  0  0  0
    0.8362    3.4590    2.7363 H   0  0  0  0  0  0  0  0  0  0  0  0
    0.1930    3.8409    1.1262 H   0  0  0  0  0  0  0  0  0  0  0  0
  1  2  1  0  0  0  0
  2  3  1  0  0  0  0
  2  4  1  0  0  0  0
  2  5  1  0  0  0  0
  5  6  2  0  0  0  0
  5  7  1  0  0  0  0
  7  8  1  0  0  0  0
  7  9  1  0  0  0  0
  9 10  1  0  0  0  0
  9 11  1  0  0  0  0
  9 22  1  0  0  0  0
 11 12  1  0  0  0  0
 11 13  1  0  0  0  0
 11 14  1  0  0  0  0
 14 15  1  0  0  0  0
 14 16  1  0  0  0  0
 14 17  1  0  0  0  0
 17 18  2  0  0  0  0
 17 19  1  0  0  0  0
 19 20  1  0  0  0  0
 19 21  1  0  0  0  0
 22 23  2  0  0  0  0
 22 24  1  0  0  0  0
 24 25  1  0  0  0  0
 24 26  1  0  0  0  0
 26 27  1  0  0  0  0
 26 28  1  0  0  0  0
 26 29  1  0  0  0  0
M  END
$$$$

  -OEChem-04042215583D

 29 28  0     1  0  0  0  0  0999 V2000
   -3.3834   -3.7438    1.4237 H   0  0  0  0  0  0  0  0  0  0  0  0
   -3.3399   -2.7943    0.8829 C   0  0  0  0  0  0  0  0  0  0  0  0
   -4.0235   -2.0868    1.3583 H   0  0  0  0  0  0  0  0  0  0  0  0
   -3.6583   -2.9612   -0.1489 H   0  0  0  0  0  0  0  0  0  0  0  0
   -1.9264   -2.2443    0.9051 C   0  0  0  0  0  0  0  0  0  0  0  0
   -1.0349   -2.8707    1.4568 O   0  0  0  0  0  0  0  0  0  0  0  0
   -1.6546   -1.0311    0.3073 N   0  0  0  0  0  0  0  0  0  0  0  0
   -2.4414   -0.5059   -0.0718 H   0  0  0  0  0  0  0  0  0  0  0  0
   -0.3533   -0.3511    0.3452 C   0  0  1  0  0  0  0  0  0  0  0  0
    0.2688   -0.7831    1.1358 H   0  0  0  0  0  0  0  0  0  0  0  0
    0.3339   -0.5781   -1.0132 C   0  0  0  0  0  0  0  0  0  0  0  0
    0.2179   -1.6219   -1.3251 H   0  0  0  0  0  0  0  0  0  0  0  0
   -0.1787    0.0415   -1.7589 H   0  0  0  0  0  0  0  0  0  0  0  0
    1.8404   -0.2382   -0.9807 C   0  0  0  0  0  0  0  0  0  0  0  0
    2.0245    0.5588   -0.2570 H   0  0  0  0  0  0  0  0  0  0  0  0
    2.4054   -1.1172   -0.6583 H   0  0  0  0  0  0  0  0  0  0  0  0
    2.3813    0.2465   -2.3252 C   0  0  0  0  0  0  0  0  0  0  0  0
    1.8239    0.0343   -3.3852 O   0  0  0  0  0  0  0  0  0  0  0  0
    3.5686    0.9154   -2.4106 N   0  0  0  0  0  0  0  0  0  0  0  0
    3.9415    1.0398   -3.3475 H   0  0  0  0  0  0  0  0  0  0  0  0
    4.1860    0.9329   -1.6066 H   0  0  0  0  0  0  0  0  0  0  0  0
   -0.5388    1.1482    0.6581 C   0  0  0  0  0  0  0  0  0  0  0  0
   -1.4399    1.7784    0.1179 O   0  0  0  0  0  0  0  0  0  0  0  0
    0.2723    1.7796    1.5836 N   0  0  0  0  0  0  0  0  0  0  0  0
    0.9255    1.2009    2.1038 H   0  0  0  0  0  0  0  0  0  0  0  0
    0.0784    3.1648    1.9959 C   0  0  0  0  0  0  0  0  0  0  0  0
   -0.9110    3.2957    2.4468 H   0  0  0  0  0  0  0  0  0  0  0  0
    0.8352    3.4497    2.7331 H   0  0  0  0  0  0  0  0  0  0  0  0
    0.1650    3.8369    1.1355 H   0  0  0  0  0  0  0  0  0  0  0  0
  1  2  1  0  0  0  0
  2  3  1  0  0  0  0
  2  4  1  0  0  0  0
  2  5  1  0  0  0  0
  5  6  2  0  0  0  0
  5  7  1  0  0  0  0
  7  8  1  0  0  0  0
  7  9  1  0  0  0  0
  9 10  1  0  0  0  0
  9 11  1  0  0  0  0
  9 22  1  0  0  0  0
 11 12  1  0  0  0  0
 11 13  1  0  0  0  0
 11 14  1  0  0  0  0
 14 15  1  0  0  0  0
 14 16  1  0  0  0  0
 14 17  1  0  0  0  0
 17 18  2  0  0  0  0
 17 19  1  0  0  0  0
 19 20  1  0  0  0  0
 19 21  1  0  0  0  0
 22 23  2  0  0  0  0
 22 24  1  0  0  0  0
 24 25  1  0  0  0  0
 24 26  1  0  0  0  0
 26 27  1  0  0  0  0
 26 28  1  0  0  0  0
 26 29  1  0  0  0  0
M  END
$$$$

  -OEChem-04042215583D

 29 28  0     1  0  0  0  0  0999 V2000
   -3.5749   -3.5926    1.2264 H   0  0  0  0  0  0  0  0  0  0  0  0
   -3.4380   -2.6315    0.7230 C   0  0  0  0  0  0  0  0  0  0  0  0
   -4.1019   -1.8955    1.1828 H   0  0  0  0  0  0  0  0  0  0  0  0
   -3.7046   -2.7451   -0.3305 H   0  0  0  0  0  0  0  0  0  0  0  0
   -1.9955   -2.1779    0.8469 C   0  0  0  0  0  0  0  0  0  0  0  0
   -1.1929   -2.8564    1.4677 O   0  0  0  0  0  0  0  0  0  0  0  0
   -1.5963   -0.9931    0.2621 N   0  0  0  0  0  0  0  0  0  0  0  0
   -2.3147   -0.4268   -0.1861 H   0  0  0  0  0  0  0  0  0  0  0  0
   -0.2510   -0.4131    0.3779 C   0  0  1  0  0  0  0  0  0  0  0  0
    0.2951   -0.8979    1.1942 H   0  0  0  0  0  0  0  0  0  0  0  0
    0.4834   -0.6727   -0.9479 C   0  0  0  0  0  0  0  0  0  0  0  0
    0.3192   -1.7109   -1.2579 H   0  0  0  0  0  0  0  0  0  0  0  0
    0.0492   -0.0370   -1.7281 H   0  0  0  0  0  0  0  0  0  0  0  0
    2.0040   -0.4436   -0.8271 C   0  0  0  0  0  0  0  0  0  0  0  0
    2.2531    0.1014    0.0864 H   0  0  0  0  0  0  0  0  0  0  0  0
    2.5173   -1.4092   -0.7805 H   0  0  0  0  0  0  0  0  0  0  0  0
    2.5354    0.3569   -2.0090 C   0  0  0  0  0  0  0  0  0  0  0  0
    3.3140   -0.1190   -2.8115 O   0  0  0  0  0  0  0  0  0  0  0  0
    2.1734    1.6602   -2.2054 N   0  0  0  0  0  0  0  0  0  0  0  0
    2.4382    2.0635   -3.0993 H   0  0  0  0  0  0  0  0  0  0  0  0
    1.3717    2.0278   -1.6989 H   0  0  0  0  0  0  0  0  0  0  0  0
   -0.3061    1.0991    0.6735 C   0  0  0  0  0  0  0  0  0  0  0  0
   -0.9918    1.8306   -0.0306 O   0  0  0  0  0  0  0  0  0  0  0  0
    0.5074    1.6574    1.6417 N   0  0  0  0  0  0  0  0  0  0  0  0
    1.0286    1.0214    2.2398 H   0  0  0  0  0  0  0  0  0  0  0  0
    0.5232    3.0822    1.9513 C   0  0  0  0  0  0  0  0  0  0  0  0
   -0.4679    3.4156    2.2764 H   0  0  0  0  0  0  0  0  0  0  0  0
    1.2373    3.2859    2.7552 H   0  0  0  0  0  0  0  0  0  0  0  0
    0.8199    3.6636    1.0721 H   0  0  0  0  0  0  0  0  0  0  0  0
  1  2  1  0  0  0  0
  2  3  1  0  0  0  0
  2  4  1  0  0  0  0
  2  5  1  0  0  0  0
  5  6  2  0  0  0  0
  5  7  1  0  0  0  0
  7  8  1  0  0  0  0
  7  9  1  0  0  0  0
  9 10  1  0  0  0  0
  9 11  1  0  0  0  0
  9 22  1  0  0  0  0
 11 12  1  0  0  0  0
 11 13  1  0  0  0  0
 11 14  1  0  0  0  0
 14 15  1  0  0  0  0
 14 16  1  0  0  0  0
 14 17  1  0  0  0  0
 17 18  2  0  0  0  0
 17 19  1  0  0  0  0
 19 20  1  0  0  0  0
 19 21  1  0  0  0  0
 22 23  2  0  0  0  0
 22 24  1  0  0  0  0
 24 25  1  0  0  0  0
 24 26  1  0  0  0  0
 26 27  1  0  0  0  0
 26 28  1  0  0  0  0
 26 29  1  0  0  0  0
M  END
$$$$

  -OEChem-04042215583D

 29 28  0     1  0  0  0  0  0999 V2000
   -3.5275   -3.6401    1.2238 H   0  0  0  0  0  0  0  0  0  0  0  0
   -3.4146   -2.6555    0.7615 C   0  0  0  0  0  0  0  0  0  0  0  0
   -4.0753   -1.9493    1.2699 H   0  0  0  0  0  0  0  0  0  0  0  0
   -3.7060   -2.7255   -0.2893 H   0  0  0  0  0  0  0  0  0  0  0  0
   -1.9755   -2.1886    0.8705 C   0  0  0  0  0  0  0  0  0  0  0  0
   -1.1567   -2.8664    1.4701 O   0  0  0  0  0  0  0  0  0  0  0  0
   -1.5972   -0.9940    0.2919 N   0  0  0  0  0  0  0  0  0  0  0  0
   -2.3265   -0.4368   -0.1496 H   0  0  0  0  0  0  0  0  0  0  0  0
   -0.2521   -0.4084    0.3769 C   0  0  1  0  0  0  0  0  0  0  0  0
    0.3176   -0.9070    1.1684 H   0  0  0  0  0  0  0  0  0  0  0  0
    0.4392   -0.6466   -0.9763 C   0  0  0  0  0  0  0  0  0  0  0  0
    0.2783   -1.6902   -1.2693 H   0  0  0  0  0  0  0  0  0  0  0  0
   -0.0265   -0.0280   -1.7522 H   0  0  0  0  0  0  0  0  0  0  0  0
    1.9615   -0.4107   -0.9018 C   0  0  0  0  0  0  0  0  0  0  0  0
    2.2784   -0.1454    0.1099 H   0  0  0  0  0  0  0  0  0  0  0  0
    2.4831   -1.3333   -1.1751 H   0  0  0  0  0  0  0  0  0  0  0  0
    2.3946    0.6965   -1.8575 C   0  0  0  0  0  0  0  0  0  0  0  0
    3.2650    0.5214   -2.6875 O   0  0  0  0  0  0  0  0  0  0  0  0
    1.8575    1.9529   -1.7956 N   0  0  0  0  0  0  0  0  0  0  0  0
    2.0881    2.5695   -2.5688 H   0  0  0  0  0  0  0  0  0  0  0  0
    0.9895    2.0928   -1.2792 H   0  0  0  0  0  0  0  0  0  0  0  0
   -0.2809    1.0989    0.6942 C   0  0  0  0  0  0  0  0  0  0  0  0
   -0.9140    1.8572   -0.0304 O   0  0  0  0  0  0  0  0  0  0  0  0
    0.5698    1.6319    1.6439 N   0  0  0  0  0  0  0  0  0  0  0  0
    1.0832    0.9817    2.2336 H   0  0  0  0  0  0  0  0  0  0  0  0
    0.6756    3.0604    1.9169 C   0  0  0  0  0  0  0  0  0  0  0  0
   -0.2931    3.4644    2.2295 H   0  0  0  0  0  0  0  0  0  0  0  0
    1.3991    3.2397    2.7181 H   0  0  0  0  0  0  0  0  0  0  0  0
    1.0110    3.5979    1.0236 H   0  0  0  0  0  0  0  0  0  0  0  0
  1  2  1  0  0  0  0
  2  3  1  0  0  0  0
  2  4  1  0  0  0  0
  2  5  1  0  0  0  0
  5  6  2  0  0  0  0
  5  7  1  0  0  0  0
  7  8  1  0  0  0  0
  7  9  1  0  0  0  0
  9 10  1  0  0  0  0
  9 11  1  0  0  0  0
  9 22  1  0  0  0  0
 11 12  1  0  0  0  0
 11 13  1  0  0  0  0
 11 14  1  0  0  0  0
 14 15  1  0  0  0  0
 14 16  1  0  0  0  0
 14 17  1  0  0  0  0
 17 18  2  0  0  0  0
 17 19  1  0  0  0  0
 19 20  1  0  0  0  0
 19 21  1  0  0  0  0
 22 23  2  0  0  0  0
 22 24  1  0  0  0  0
 24 25  1  0  0  0  0
 24 26  1  0  0  0  0
 26 27  1  0  0  0  0
 26 28  1  0  0  0  0
 26 29  1  0  0  0  0
M  END
$$$$

  -OEChem-04042215583D

 29 28  0     1  0  0  0  0  0999 V2000
   -3.3601   -3.8225    1.0819 H   0  0  0  0  0  0  0  0  0  0  0  0
   -3.2955   -2.8257    0.6368 C   0  0  0  0  0  0  0  0  0  0  0  0
   -4.0006   -2.1653    1.1474 H   0  0  0  0  0  0  0  0  0  0  0  0
   -3.5693   -2.8934   -0.4187 H   0  0  0  0  0  0  0  0  0  0  0  0
   -1.8855   -2.2824    0.7733 C   0  0  0  0  0  0  0  0  0  0  0  0
   -1.0385   -2.9251    1.3735 O   0  0  0  0  0  0  0  0  0  0  0  0
   -1.5602   -1.0689    0.2038 N   0  0  0  0  0  0  0  0  0  0  0  0
   -2.3252   -0.5233   -0.1921 H   0  0  0  0  0  0  0  0  0  0  0  0
   -0.3011   -0.3498    0.4419 C   0  0  1  0  0  0  0  0  0  0  0  0
    0.1854   -0.7534    1.3361 H   0  0  0  0  0  0  0  0  0  0  0  0
    0.6205   -0.5396   -0.7732 C   0  0  0  0  0  0  0  0  0  0  0  0
    0.6100   -1.6013   -1.0430 H   0  0  0  0  0  0  0  0  0  0  0  0
    0.2309    0.0174   -1.6332 H   0  0  0  0  0  0  0  0  0  0  0  0
    2.0782   -0.1412   -0.4624 C   0  0  0  0  0  0  0  0  0  0  0  0
    2.2583   -0.1102    0.6162 H   0  0  0  0  0  0  0  0  0  0  0  0
    2.7483   -0.8997   -0.8758 H   0  0  0  0  0  0  0  0  0  0  0  0
    2.4556    1.1978   -1.0817 C   0  0  0  0  0  0  0  0  0  0  0  0
    2.6538    2.1748   -0.3859 O   0  0  0  0  0  0  0  0  0  0  0  0
    2.6251    1.3579   -2.4274 N   0  0  0  0  0  0  0  0  0  0  0  0
    3.0128    2.2447   -2.7368 H   0  0  0  0  0  0  0  0  0  0  0  0
    2.6397    0.5449   -3.0336 H   0  0  0  0  0  0  0  0  0  0  0  0
   -0.5816    1.1464    0.6936 C   0  0  0  0  0  0  0  0  0  0  0  0
   -1.4343    1.7127    0.0176 O   0  0  0  0  0  0  0  0  0  0  0  0
    0.0428    1.8242    1.7232 N   0  0  0  0  0  0  0  0  0  0  0  0
    0.8327    1.3605    2.1625 H   0  0  0  0  0  0  0  0  0  0  0  0
   -0.0775    3.2672    1.8884 C   0  0  0  0  0  0  0  0  0  0  0  0
   -1.1269    3.5553    2.0108 H   0  0  0  0  0  0  0  0  0  0  0  0
    0.4736    3.5929    2.7756 H   0  0  0  0  0  0  0  0  0  0  0  0
    0.3326    3.7862    1.0153 H   0  0  0  0  0  0  0  0  0  0  0  0
  1  2  1  0  0  0  0
  2  3  1  0  0  0  0
  2  4  1  0  0  0  0
  2  5  1  0  0  0  0
  5  6  2  0  0  0  0
  5  7  1  0  0  0  0
  7  8  1  0  0  0  0
  7  9  1  0  0  0  0
  9 10  1  0  0  0  0
  9 11  1  0  0  0  0
  9 22  1  0  0  0  0
 11 12  1  0  0  0  0
 11 13  1  0  0  0  0
 11 14  1  0  0  0  0
 14 15  1  0  0  0  0
 14 16  1  0  0  0  0
 14 17  1  0  0  0  0
 17 18  2  0  0  0  0
 17 19  1  0  0  0  0
 19 20  1  0  0  0  0
 19 21  1  0  0  0  0
 22 23  2  0  0  0  0
 22 24  1  0  0  0  0
 24 25  1  0  0  0  0
 24 26  1  0  0  0  0
 26 27  1  0  0  0  0
 26 28  1  0  0  0  0
 26 29  1  0  0  0  0
M  END
$$$$

  -OEChem-04042215583D

 29 28  0     1  0  0  0  0  0999 V2000
   -3.3515   -3.7627    1.4714 H   0  0  0  0  0  0  0  0  0  0  0  0
   -3.3277   -2.8190    0.9194 C   0  0  0  0  0  0  0  0  0  0  0  0
   -3.9794   -2.1003    1.4223 H   0  0  0  0  0  0  0  0  0  0  0  0
   -3.7008   -2.9921   -0.0928 H   0  0  0  0  0  0  0  0  0  0  0  0
   -1.9100   -2.2822    0.8624 C   0  0  0  0  0  0  0  0  0  0  0  0
   -0.9876   -2.9399    1.3194 O   0  0  0  0  0  0  0  0  0  0  0  0
   -1.6664   -1.0538    0.2850 N   0  0  0  0  0  0  0  0  0  0  0  0
   -2.4760   -0.4948    0.0160 H   0  0  0  0  0  0  0  0  0  0  0  0
   -0.3755   -0.3540    0.3238 C   0  0  1  0  0  0  0  0  0  0  0  0
    0.2470   -0.7836    1.1152 H   0  0  0  0  0  0  0  0  0  0  0  0
    0.3296   -0.5409   -1.0315 C   0  0  0  0  0  0  0  0  0  0  0  0
    0.2553   -1.5995   -1.3022 H   0  0  0  0  0  0  0  0  0  0  0  0
   -0.1918    0.0266   -1.8110 H   0  0  0  0  0  0  0  0  0  0  0  0
    1.8311   -0.1732   -0.9868 C   0  0  0  0  0  0  0  0  0  0  0  0
    2.2491   -0.4308   -0.0100 H   0  0  0  0  0  0  0  0  0  0  0  0
    2.3495   -0.7828   -1.7319 H   0  0  0  0  0  0  0  0  0  0  0  0
    2.1587    1.2849   -1.3053 C   0  0  0  0  0  0  0  0  0  0  0  0
    1.3512    2.0776   -1.7453 O   0  0  0  0  0  0  0  0  0  0  0  0
    3.4122    1.7848   -1.0995 N   0  0  0  0  0  0  0  0  0  0  0  0
    3.5871    2.7026   -1.4998 H   0  0  0  0  0  0  0  0  0  0  0  0
    4.1802    1.1374   -0.9584 H   0  0  0  0  0  0  0  0  0  0  0  0
   -0.6036    1.1333    0.6683 C   0  0  0  0  0  0  0  0  0  0  0  0
   -1.6047    1.7039    0.2480 O   0  0  0  0  0  0  0  0  0  0  0  0
    0.1972    1.7686    1.5996 N   0  0  0  0  0  0  0  0  0  0  0  0
    1.0095    1.2665    1.9428 H   0  0  0  0  0  0  0  0  0  0  0  0
    0.0452    3.1774    1.9402 C   0  0  0  0  0  0  0  0  0  0  0  0
   -0.9538    3.3696    2.3456 H   0  0  0  0  0  0  0  0  0  0  0  0
    0.7842    3.4660    2.6934 H   0  0  0  0  0  0  0  0  0  0  0  0
    0.1921    3.8018    1.0522 H   0  0  0  0  0  0  0  0  0  0  0  0
  1  2  1  0  0  0  0
  2  3  1  0  0  0  0
  2  4  1  0  0  0  0
  2  5  1  0  0  0  0
  5  6  2  0  0  0  0
  5  7  1  0  0  0  0
  7  8  1  0  0  0  0
  7  9  1  0  0  0  0
  9 10  1  0  0  0  0
  9 11  1  0  0  0  0
  9 22  1  0  0  0  0
 11 12  1  0  0  0  0
 11 13  1  0  0  0  0
 11 14  1  0  0  0  0
 14 15  1  0  0  0  0
 14 16  1  0  0  0  0
 14 17  1  0  0  0  0
 17 18  2  0  0  0  0
 17 19  1  0  0  0  0
 19 20  1  0  0  0  0
 19 21  1  0  0  0  0
 22 23  2  0  0  0  0
 22 24  1  0  0  0  0
 24 25  1  0  0  0  0
 24 26  1  0  0  0  0
 26 27  1  0  0  0  0
 26 28  1  0  0  0  0
 26 29  1  0  0  0  0
M  END
$$$$

  -OEChem-04042215583D

 29 28  0     1  0  0  0  0  0999 V2000
   -3.2889   -3.7820    1.4480 H   0  0  0  0  0  0  0  0  0  0  0  0
   -3.2865   -2.7970    0.9728 C   0  0  0  0  0  0  0  0  0  0  0  0
   -3.8940   -2.1147    1.5724 H   0  0  0  0  0  0  0  0  0  0  0  0
   -3.7261   -2.8851   -0.0237 H   0  0  0  0  0  0  0  0  0  0  0  0
   -1.8681   -2.2699    0.8676 C   0  0  0  0  0  0  0  0  0  0  0  0
   -0.9346   -2.9340    1.2916 O   0  0  0  0  0  0  0  0  0  0  0  0
   -1.6363   -1.0397    0.2895 N   0  0  0  0  0  0  0  0  0  0  0  0
   -2.4509   -0.4734    0.0519 H   0  0  0  0  0  0  0  0  0  0  0  0
   -0.3396   -0.3490    0.2920 C   0  0  1  0  0  0  0  0  0  0  0  0
    0.3110   -0.7832    1.0582 H   0  0  0  0  0  0  0  0  0  0  0  0
    0.3091   -0.5422   -1.0931 C   0  0  0  0  0  0  0  0  0  0  0  0
    0.2019   -1.5950   -1.3755 H   0  0  0  0  0  0  0  0  0  0  0  0
   -0.2318    0.0507   -1.8401 H   0  0  0  0  0  0  0  0  0  0  0  0
    1.8136   -0.1979   -1.1314 C   0  0  0  0  0  0  0  0  0  0  0  0
    2.3164   -0.6860   -0.2923 H   0  0  0  0  0  0  0  0  0  0  0  0
    2.2400   -0.6088   -2.0507 H   0  0  0  0  0  0  0  0  0  0  0  0
    2.1302    1.2939   -1.1143 C   0  0  0  0  0  0  0  0  0  0  0  0
    1.4926    2.1072   -1.7511 O   0  0  0  0  0  0  0  0  0  0  0  0
    3.1477    1.7990   -0.3560 N   0  0  0  0  0  0  0  0  0  0  0  0
    3.3871    2.7675   -0.5513 H   0  0  0  0  0  0  0  0  0  0  0  0
    3.8637    1.1617   -0.0238 H   0  0  0  0  0  0  0  0  0  0  0  0
   -0.5678    1.1352    0.6545 C   0  0  0  0  0  0  0  0  0  0  0  0
   -1.5770    1.7058    0.2544 O   0  0  0  0  0  0  0  0  0  0  0  0
    0.2519    1.7732    1.5676 N   0  0  0  0  0  0  0  0  0  0  0  0
    1.0859    1.2832    1.8744 H   0  0  0  0  0  0  0  0  0  0  0  0
    0.0879    3.1754    1.9291 C   0  0  0  0  0  0  0  0  0  0  0  0
   -0.8940    3.3414    2.3847 H   0  0  0  0  0  0  0  0  0  0  0  0
    0.8566    3.4736    2.6482 H   0  0  0  0  0  0  0  0  0  0  0  0
    0.1774    3.8111    1.0417 H   0  0  0  0  0  0  0  0  0  0  0  0
  1  2  1  0  0  0  0
  2  3  1  0  0  0  0
  2  4  1  0  0  0  0
  2  5  1  0  0  0  0
  5  6  2  0  0  0  0
  5  7  1  0  0  0  0
  7  8  1  0  0  0  0
  7  9  1  0  0  0  0
  9 10  1  0  0  0  0
  9 11  1  0  0  0  0
  9 22  1  0  0  0  0
 11 12  1  0  0  0  0
 11 13  1  0  0  0  0
 11 14  1  0  0  0  0
 14 15  1  0  0  0  0
 14 16  1  0  0  0  0
 14 17  1  0  0  0  0
 17 18  2  0  0  0  0
 17 19  1  0  0  0  0
 19 20  1  0  0  0  0
 19 21  1  0  0  0  0
 22 23  2  0  0  0  0
 22 24  1  0  0  0  0
 24 25  1  0  0  0  0
 24 26  1  0  0  0  0
 26 27  1  0  0  0  0
 26 28  1  0  0  0  0
 26 29  1  0  0  0  0
M  END
$$$$

  -OEChem-04042215583D

 29 28  0     1  0  0  0  0  0999 V2000
   -3.2138   -3.7902    1.4839 H   0  0  0  0  0  0  0  0  0  0  0  0
   -3.2270   -2.8158    0.9879 C   0  0  0  0  0  0  0  0  0  0  0  0
   -3.8379   -2.1282    1.5779 H   0  0  0  0  0  0  0  0  0  0  0  0
   -3.6735   -2.9303   -0.0028 H   0  0  0  0  0  0  0  0  0  0  0  0
   -1.8156   -2.2748    0.8602 C   0  0  0  0  0  0  0  0  0  0  0  0
   -0.8670   -2.9391    1.2489 O   0  0  0  0  0  0  0  0  0  0  0  0
   -1.6062   -1.0318    0.3016 N   0  0  0  0  0  0  0  0  0  0  0  0
   -2.4304   -0.4652    0.0998 H   0  0  0  0  0  0  0  0  0  0  0  0
   -0.3159   -0.3288    0.2991 C   0  0  1  0  0  0  0  0  0  0  0  0
    0.3591   -0.7656    1.0421 H   0  0  0  0  0  0  0  0  0  0  0  0
    0.2955   -0.4934   -1.1092 C   0  0  0  0  0  0  0  0  0  0  0  0
    0.1683   -1.5348   -1.4243 H   0  0  0  0  0  0  0  0  0  0  0  0
   -0.2676    0.1309   -1.8128 H   0  0  0  0  0  0  0  0  0  0  0  0
    1.7971   -0.1511   -1.2213 C   0  0  0  0  0  0  0  0  0  0  0  0
    2.3587   -0.8395   -0.5838 H   0  0  0  0  0  0  0  0  0  0  0  0
    2.1202   -0.3255   -2.2514 H   0  0  0  0  0  0  0  0  0  0  0  0
    2.1775    1.2765   -0.8533 C   0  0  0  0  0  0  0  0  0  0  0  0
    1.6744    2.2413   -1.3905 O   0  0  0  0  0  0  0  0  0  0  0  0
    3.0765    1.5454    0.1402 N   0  0  0  0  0  0  0  0  0  0  0  0
    3.3935    2.5110    0.1747 H   0  0  0  0  0  0  0  0  0  0  0  0
    3.7089    0.8032    0.4220 H   0  0  0  0  0  0  0  0  0  0  0  0
   -0.5848    1.1422    0.6963 C   0  0  0  0  0  0  0  0  0  0  0  0
   -1.6131    1.6901    0.3109 O   0  0  0  0  0  0  0  0  0  0  0  0
    0.2204    1.7899    1.6154 N   0  0  0  0  0  0  0  0  0  0  0  0
    1.1099    1.3528    1.8362 H   0  0  0  0  0  0  0  0  0  0  0  0
    0.0399    3.1958    1.9546 C   0  0  0  0  0  0  0  0  0  0  0  0
   -0.9570    3.3648    2.3754 H   0  0  0  0  0  0  0  0  0  0  0  0
    0.7832    3.5041    2.6958 H   0  0  0  0  0  0  0  0  0  0  0  0
    0.1575    3.8214    1.0631 H   0  0  0  0  0  0  0  0  0  0  0  0
  1  2  1  0  0  0  0
  2  3  1  0  0  0  0
  2  4  1  0  0  0  0
  2  5  1  0  0  0  0
  5  6  2  0  0  0  0
  5  7  1  0  0  0  0
  7  8  1  0  0  0  0
  7  9  1  0  0  0  0
  9 10  1  0  0  0  0
  9 11  1  0  0  0  0
  9 22  1  0  0  0  0
 11 12  1  0  0  0  0
 11 13  1  0  0  0  0
 11 14  1  0  0  0  0
 14 15  1  0  0  0  0
 14 16  1  0  0  0  0
 14 17  1  0  0  0  0
 17 18  2  0  0  0  0
 17 19  1  0  0  0  0
 19 20  1  0  0  0  0
 19 21  1  0  0  0  0
 22 23  2  0  0  0  0
 22 24  1  0  0  0  0
 24 25  1  0  0  0  0
 24 26  1  0  0  0  0
 26 27  1  0  0  0  0
 26 28  1  0  0  0  0
 26 29  1  0  0  0  0
M  END
$$$$

  -OEChem-04042215583D

 29 28  0     1  0  0  0  0  0999 V2000
   -3.1332   -3.8058    1.5077 H   0  0  0  0  0  0  0  0  0  0  0  0
   -3.1608   -2.8399    0.9958 C   0  0  0  0  0  0  0  0  0  0  0  0
   -3.7862   -2.1537    1.5722 H   0  0  0  0  0  0  0  0  0  0  0  0
   -3.6009   -2.9776    0.0053 H   0  0  0  0  0  0  0  0  0  0  0  0
   -1.7584   -2.2767    0.8644 C   0  0  0  0  0  0  0  0  0  0  0  0
   -0.7968   -2.9297    1.2402 O   0  0  0  0  0  0  0  0  0  0  0  0
   -1.5714   -1.0262    0.3144 N   0  0  0  0  0  0  0  0  0  0  0  0
   -2.4053   -0.4691    0.1253 H   0  0  0  0  0  0  0  0  0  0  0  0
   -0.2920   -0.3037    0.3140 C   0  0  1  0  0  0  0  0  0  0  0  0
    0.4003   -0.7338    1.0452 H   0  0  0  0  0  0  0  0  0  0  0  0
    0.2959   -0.4418   -1.1087 C   0  0  0  0  0  0  0  0  0  0  0  0
    0.1589   -1.4739   -1.4496 H   0  0  0  0  0  0  0  0  0  0  0  0
   -0.2881    0.2000   -1.7785 H   0  0  0  0  0  0  0  0  0  0  0  0
    1.7908   -0.0883   -1.2773 C   0  0  0  0  0  0  0  0  0  0  0  0
    2.3822   -0.9186   -0.8818 H   0  0  0  0  0  0  0  0  0  0  0  0
    2.0162   -0.0119   -2.3449 H   0  0  0  0  0  0  0  0  0  0  0  0
    2.2677    1.1882   -0.6014 C   0  0  0  0  0  0  0  0  0  0  0  0
    1.9783    2.2903   -1.0189 O   0  0  0  0  0  0  0  0  0  0  0  0
    3.0232    1.1588    0.5377 N   0  0  0  0  0  0  0  0  0  0  0  0
    3.4688    2.0435    0.7684 H   0  0  0  0  0  0  0  0  0  0  0  0
    3.5004    0.2910    0.7629 H   0  0  0  0  0  0  0  0  0  0  0  0
   -0.6034    1.1568    0.7257 C   0  0  0  0  0  0  0  0  0  0  0  0
   -1.6388    1.6827    0.3281 O   0  0  0  0  0  0  0  0  0  0  0  0
    0.1779    1.8231    1.6512 N   0  0  0  0  0  0  0  0  0  0  0  0
    1.0925    1.4233    1.8420 H   0  0  0  0  0  0  0  0  0  0  0  0
   -0.0370    3.2260    1.9838 C   0  0  0  0  0  0  0  0  0  0  0  0
   -1.0502    3.3797    2.3701 H   0  0  0  0  0  0  0  0  0  0  0  0
    0.6747    3.5455    2.7510 H   0  0  0  0  0  0  0  0  0  0  0  0
    0.1016    3.8538    1.0969 H   0  0  0  0  0  0  0  0  0  0  0  0
  1  2  1  0  0  0  0
  2  3  1  0  0  0  0
  2  4  1  0  0  0  0
  2  5  1  0  0  0  0
  5  6  2  0  0  0  0
  5  7  1  0  0  0  0
  7  8  1  0  0  0  0
  7  9  1  0  0  0  0
  9 10  1  0  0  0  0
  9 11  1  0  0  0  0
  9 22  1  0  0  0  0
 11 12  1  0  0  0  0
 11 13  1  0  0  0  0
 11 14  1  0  0  0  0
 14 15  1  0  0  0  0
 14 16  1  0  0  0  0
 14 17  1  0  0  0  0
 17 18  2  0  0  0  0
 17 19  1  0  0  0  0
 19 20  1  0  0  0  0
 19 21  1  0  0  0  0
 22 23  2  0  0  0  0
 22 24  1  0  0  0  0
 24 25  1  0  0  0  0
 24 26  1  0  0  0  0
 26 27  1  0  0  0  0
 26 28  1  0  0  0  0
 26 29  1  0  0  0  0
M  END
$$$$

  -OEChem-04042215583D

 29 28  0     1  0  0  0  0  0999 V2000
   -3.0947   -3.8141    1.5070 H   0  0  0  0  0  0  0  0  0  0  0  0
   -3.1277   -2.8500    0.9919 C   0  0  0  0  0  0  0  0  0  0  0  0
   -3.7683   -2.1701    1.5588 H   0  0  0  0  0  0  0  0  0  0  0  0
   -3.5538   -2.9957   -0.0036 H   0  0  0  0  0  0  0  0  0  0  0  0
   -1.7309   -2.2700    0.8762 C   0  0  0  0  0  0  0  0  0  0  0  0
   -0.7670   -2.9052    1.2760 O   0  0  0  0  0  0  0  0  0  0  0  0
   -1.5516   -1.0240    0.3133 N   0  0  0  0  0  0  0  0  0  0  0  0
   -2.3899   -0.4823    0.1012 H   0  0  0  0  0  0  0  0  0  0  0  0
   -0.2826   -0.2833    0.3299 C   0  0  1  0  0  0  0  0  0  0  0  0
    0.3992   -0.6978    1.0795 H   0  0  0  0  0  0  0  0  0  0  0  0
    0.3325   -0.4242   -1.0817 C   0  0  0  0  0  0  0  0  0  0  0  0
    0.2083   -1.4586   -1.4205 H   0  0  0  0  0  0  0  0  0  0  0  0
   -0.2524    0.2068   -1.7606 H   0  0  0  0  0  0  0  0  0  0  0  0
    1.8263   -0.0550   -1.2500 C   0  0  0  0  0  0  0  0  0  0  0  0
    2.4183   -0.9601   -1.0886 H   0  0  0  0  0  0  0  0  0  0  0  0
    1.9975    0.2587   -2.2842 H   0  0  0  0  0  0  0  0  0  0  0  0
    2.3824    1.0173   -0.3243 C   0  0  0  0  0  0  0  0  0  0  0  0
    2.3533    2.1976   -0.6052 O   0  0  0  0  0  0  0  0  0  0  0  0
    2.9421    0.7082    0.8844 N   0  0  0  0  0  0  0  0  0  0  0  0
    3.5063    1.4509    1.2903 H   0  0  0  0  0  0  0  0  0  0  0  0
    3.2107   -0.2589    1.0428 H   0  0  0  0  0  0  0  0  0  0  0  0
   -0.6185    1.1793    0.7156 C   0  0  0  0  0  0  0  0  0  0  0  0
   -1.6391    1.6952    0.2697 O   0  0  0  0  0  0  0  0  0  0  0  0
    0.1352    1.8679    1.6472 N   0  0  0  0  0  0  0  0  0  0  0  0
    1.0495    1.4771    1.8608 H   0  0  0  0  0  0  0  0  0  0  0  0
   -0.0822    3.2805    1.9328 C   0  0  0  0  0  0  0  0  0  0  0  0
   -1.1057    3.4507    2.2827 H   0  0  0  0  0  0  0  0  0  0  0  0
    0.6075    3.6184    2.7119 H   0  0  0  0  0  0  0  0  0  0  0  0
    0.0887    3.8817    1.0334 H   0  0  0  0  0  0  0  0  0  0  0  0
  1  2  1  0  0  0  0
  2  3  1  0  0  0  0
  2  4  1  0  0  0  0
  2  5  1  0  0  0  0
  5  6  2  0  0  0  0
  5  7  1  0  0  0  0
  7  8  1  0  0  0  0
  7  9  1  0  0  0  0
  9 10  1  0  0  0  0
  9 11  1  0  0  0  0
  9 22  1  0  0  0  0
 11 12  1  0  0  0  0
 11 13  1  0  0  0  0
 11 14  1  0  0  0  0
 14 15  1  0  0  0  0
 14 16  1  0  0  0  0
 14 17  1  0  0  0  0
 17 18  2  0  0  0  0
 17 19  1  0  0  0  0
 19 20  1  0  0  0  0
 19 21  1  0  0  0  0
 22 23  2  0  0  0  0
 22 24  1  0  0  0  0
 24 25  1  0  0  0  0
 24 26  1  0  0  0  0
 26 27  1  0  0  0  0
 26 28  1  0  0  0  0
 26 29  1  0  0  0  0
M  END
$$$$

  -OEChem-04042215583D

 29 28  0     1  0  0  0  0  0999 V2000
   -3.5824   -3.6604    1.2529 H   0  0  0  0  0  0  0  0  0  0  0  0
   -3.4658   -2.6931    0.7560 C   0  0  0  0  0  0  0  0  0  0  0  0
   -4.1000   -1.9598    1.2599 H   0  0  0  0  0  0  0  0  0  0  0  0
   -3.7868   -2.7899   -0.2839 H   0  0  0  0  0  0  0  0  0  0  0  0
   -2.0166   -2.2482    0.8122 C   0  0  0  0  0  0  0  0  0  0  0  0
   -1.1806   -2.9654    1.3372 O   0  0  0  0  0  0  0  0  0  0  0  0
   -1.6520   -1.0401    0.2545 N   0  0  0  0  0  0  0  0  0  0  0  0
   -2.4052   -0.4425   -0.0832 H   0  0  0  0  0  0  0  0  0  0  0  0
   -0.3396   -0.3998    0.4307 C   0  0  1  0  0  0  0  0  0  0  0  0
    0.1728   -0.8530    1.2858 H   0  0  0  0  0  0  0  0  0  0  0  0
    0.4694   -0.6713   -0.8578 C   0  0  0  0  0  0  0  0  0  0  0  0
    0.3127   -1.7166   -1.1467 H   0  0  0  0  0  0  0  0  0  0  0  0
    0.0360   -0.0542   -1.6526 H   0  0  0  0  0  0  0  0  0  0  0  0
    2.0028   -0.4280   -0.8369 C   0  0  0  0  0  0  0  0  0  0  0  0
    2.4954   -1.4041   -0.7969 H   0  0  0  0  0  0  0  0  0  0  0  0
    2.2942    0.0362   -1.7828 H   0  0  0  0  0  0  0  0  0  0  0  0
    2.5850    0.3896    0.3134 C   0  0  0  0  0  0  0  0  0  0  0  0
    2.5526    0.0265    1.4748 O   0  0  0  0  0  0  0  0  0  0  0  0
    3.1264    1.6257    0.1054 N   0  0  0  0  0  0  0  0  0  0  0  0
    3.6229    2.0400    0.8889 H   0  0  0  0  0  0  0  0  0  0  0  0
    3.3192    1.9301   -0.8432 H   0  0  0  0  0  0  0  0  0  0  0  0
   -0.5386    1.1008    0.7342 C   0  0  0  0  0  0  0  0  0  0  0  0
   -1.3707    1.7417    0.1003 O   0  0  0  0  0  0  0  0  0  0  0  0
    0.1744    1.7185    1.7424 N   0  0  0  0  0  0  0  0  0  0  0  0
    0.9391    1.1775    2.1537 H   0  0  0  0  0  0  0  0  0  0  0  0
    0.0708    3.1378    2.0499 C   0  0  0  0  0  0  0  0  0  0  0  0
   -0.9607    3.3993    2.3078 H   0  0  0  0  0  0  0  0  0  0  0  0
    0.7121    3.3862    2.9010 H   0  0  0  0  0  0  0  0  0  0  0  0
    0.3841    3.7399    1.1909 H   0  0  0  0  0  0  0  0  0  0  0  0
  1  2  1  0  0  0  0
  2  3  1  0  0  0  0
  2  4  1  0  0  0  0
  2  5  1  0  0  0  0
  5  6  2  0  0  0  0
  5  7  1  0  0  0  0
  7  8  1  0  0  0  0
  7  9  1  0  0  0  0
  9 10  1  0  0  0  0
  9 11  1  0  0  0  0
  9 22  1  0  0  0  0
 11 12  1  0  0  0  0
 11 13  1  0  0  0  0
 11 14  1  0  0  0  0
 14 15  1  0  0  0  0
 14 16  1  0  0  0  0
 14 17  1  0  0  0  0
 17 18  2  0  0  0  0
 17 19  1  0  0  0  0
 19 20  1  0  0  0  0
 19 21  1  0  0  0  0
 22 23  2  0  0  0  0
 22 24  1  0  0  0  0
 24 25  1  0  0  0  0
 24 26  1  0  0  0  0
 26 27  1  0  0  0  0
 26 28  1  0  0  0  0
 26 29  1  0  0  0  0
M  END
$$$$

  -OEChem-04042215583D

 29 28  0     1  0  0  0  0  0999 V2000
   -3.5824   -3.7164    1.2623 H   0  0  0  0  0  0  0  0  0  0  0  0
   -3.4907   -2.7363    0.7857 C   0  0  0  0  0  0  0  0  0  0  0  0
   -4.1343   -2.0271    1.3122 H   0  0  0  0  0  0  0  0  0  0  0  0
   -3.8209   -2.8177   -0.2526 H   0  0  0  0  0  0  0  0  0  0  0  0
   -2.0498   -2.2636    0.8359 C   0  0  0  0  0  0  0  0  0  0  0  0
   -1.2006   -2.9627    1.3637 O   0  0  0  0  0  0  0  0  0  0  0  0
   -1.7097   -1.0547    0.2638 N   0  0  0  0  0  0  0  0  0  0  0  0
   -2.4764   -0.4789   -0.0805 H   0  0  0  0  0  0  0  0  0  0  0  0
   -0.4095   -0.3835    0.4189 C   0  0  1  0  0  0  0  0  0  0  0  0
    0.0911   -0.8292    1.2821 H   0  0  0  0  0  0  0  0  0  0  0  0
    0.4173   -0.6510   -0.8559 C   0  0  0  0  0  0  0  0  0  0  0  0
    0.2962   -1.7116   -1.1027 H   0  0  0  0  0  0  0  0  0  0  0  0
   -0.0355   -0.0830   -1.6759 H   0  0  0  0  0  0  0  0  0  0  0  0
    1.9478   -0.3667   -0.8476 C   0  0  0  0  0  0  0  0  0  0  0  0
    2.4654   -1.2949   -1.1061 H   0  0  0  0  0  0  0  0  0  0  0  0
    2.1481    0.3434   -1.6547 H   0  0  0  0  0  0  0  0  0  0  0  0
    2.6247    0.1765    0.4149 C   0  0  0  0  0  0  0  0  0  0  0  0
    2.3920   -0.1988    1.5483 O   0  0  0  0  0  0  0  0  0  0  0  0
    3.5552    1.1722    0.3363 N   0  0  0  0  0  0  0  0  0  0  0  0
    4.0889    1.3487    1.1826 H   0  0  0  0  0  0  0  0  0  0  0  0
    3.9455    1.4086   -0.5699 H   0  0  0  0  0  0  0  0  0  0  0  0
   -0.5856    1.1192    0.7084 C   0  0  0  0  0  0  0  0  0  0  0  0
   -1.4194    1.7651    0.0828 O   0  0  0  0  0  0  0  0  0  0  0  0
    0.1564    1.7307    1.6988 N   0  0  0  0  0  0  0  0  0  0  0  0
    0.8912    1.1664    2.1325 H   0  0  0  0  0  0  0  0  0  0  0  0
    0.0684    3.1490    2.0159 C   0  0  0  0  0  0  0  0  0  0  0  0
   -0.9566    3.4154    2.2940 H   0  0  0  0  0  0  0  0  0  0  0  0
    0.7270    3.3888    2.8561 H   0  0  0  0  0  0  0  0  0  0  0  0
    0.3697    3.7537    1.1544 H   0  0  0  0  0  0  0  0  0  0  0  0
  1  2  1  0  0  0  0
  2  3  1  0  0  0  0
  2  4  1  0  0  0  0
  2  5  1  0  0  0  0
  5  6  2  0  0  0  0
  5  7  1  0  0  0  0
  7  8  1  0  0  0  0
  7  9  1  0  0  0  0
  9 10  1  0  0  0  0
  9 11  1  0  0  0  0
  9 22  1  0  0  0  0
 11 12  1  0  0  0  0
 11 13  1  0  0  0  0
 11 14  1  0  0  0  0
 14 15  1  0  0  0  0
 14 16  1  0  0  0  0
 14 17  1  0  0  0  0
 17 18  2  0  0  0  0
 17 19  1  0  0  0  0
 19 20  1  0  0  0  0
 19 21  1  0  0  0  0
 22 23  2  0  0  0  0
 22 24  1  0  0  0  0
 24 25  1  0  0  0  0
 24 26  1  0  0  0  0
 26 27  1  0  0  0  0
 26 28  1  0  0  0  0
 26 29  1  0  0  0  0
M  END
$$$$

  -OEChem-04042215583D

 29 28  0     1  0  0  0  0  0999 V2000
   -2.8868   -3.9526    1.3138 H   0  0  0  0  0  0  0  0  0  0  0  0
   -2.9716   -2.9446    0.8981 C   0  0  0  0  0  0  0  0  0  0  0  0
   -3.6126   -2.3471    1.5510 H   0  0  0  0  0  0  0  0  0  0  0  0
   -3.4304   -3.0090   -0.0915 H   0  0  0  0  0  0  0  0  0  0  0  0
   -1.6001   -2.3049    0.7928 C   0  0  0  0  0  0  0  0  0  0  0  0
   -0.6078   -2.9152    1.1627 O   0  0  0  0  0  0  0  0  0  0  0  0
   -1.4704   -1.0415    0.2547 N   0  0  0  0  0  0  0  0  0  0  0  0
   -2.3313   -0.5266    0.0683 H   0  0  0  0  0  0  0  0  0  0  0  0
   -0.2406   -0.2409    0.3341 C   0  0  1  0  0  0  0  0  0  0  0  0
    0.4089   -0.6465    1.1150 H   0  0  0  0  0  0  0  0  0  0  0  0
    0.4503   -0.2884   -1.0456 C   0  0  0  0  0  0  0  0  0  0  0  0
    0.4266   -1.3307   -1.3818 H   0  0  0  0  0  0  0  0  0  0  0  0
   -0.1394    0.2911   -1.7650 H   0  0  0  0  0  0  0  0  0  0  0  0
    1.9288    0.1716   -1.1103 C   0  0  0  0  0  0  0  0  0  0  0  0
    2.4895   -0.5007   -1.7657 H   0  0  0  0  0  0  0  0  0  0  0  0
    1.9576    1.1644   -1.5696 H   0  0  0  0  0  0  0  0  0  0  0  0
    2.6556    0.2761    0.2274 C   0  0  0  0  0  0  0  0  0  0  0  0
    2.7291    1.3138    0.8574 O   0  0  0  0  0  0  0  0  0  0  0  0
    3.1811   -0.8269    0.8363 N   0  0  0  0  0  0  0  0  0  0  0  0
    3.4761   -0.7122    1.8017 H   0  0  0  0  0  0  0  0  0  0  0  0
    2.9201   -1.7466    0.4923 H   0  0  0  0  0  0  0  0  0  0  0  0
   -0.6283    1.2059    0.7283 C   0  0  0  0  0  0  0  0  0  0  0  0
   -1.6669    1.6809    0.2778 O   0  0  0  0  0  0  0  0  0  0  0  0
    0.0689    1.9089    1.6916 N   0  0  0  0  0  0  0  0  0  0  0  0
    1.0393    1.6181    1.8308 H   0  0  0  0  0  0  0  0  0  0  0  0
   -0.2734    3.2766    2.0604 C   0  0  0  0  0  0  0  0  0  0  0  0
   -1.3075    3.3327    2.4164 H   0  0  0  0  0  0  0  0  0  0  0  0
    0.3847    3.6250    2.8623 H   0  0  0  0  0  0  0  0  0  0  0  0
   -0.1585    3.9448    1.2007 H   0  0  0  0  0  0  0  0  0  0  0  0
  1  2  1  0  0  0  0
  2  3  1  0  0  0  0
  2  4  1  0  0  0  0
  2  5  1  0  0  0  0
  5  6  2  0  0  0  0
  5  7  1  0  0  0  0
  7  8  1  0  0  0  0
  7  9  1  0  0  0  0
  9 10  1  0  0  0  0
  9 11  1  0  0  0  0
  9 22  1  0  0  0  0
 11 12  1  0  0  0  0
 11 13  1  0  0  0  0
 11 14  1  0  0  0  0
 14 15  1  0  0  0  0
 14 16  1  0  0  0  0
 14 17  1  0  0  0  0
 17 18  2  0  0  0  0
 17 19  1  0  0  0  0
 19 20  1  0  0  0  0
 19 21  1  0  0  0  0
 22 23  2  0  0  0  0
 22 24  1  0  0  0  0
 24 25  1  0  0  0  0
 24 26  1  0  0  0  0
 26 27  1  0  0  0  0
 26 28  1  0  0  0  0
 26 29  1  0  0  0  0
M  END
$$$$

  -OEChem-04042215583D

 29 28  0     1  0  0  0  0  0999 V2000
   -2.8745   -3.9619    1.3214 H   0  0  0  0  0  0  0  0  0  0  0  0
   -2.9627   -2.9703    0.8688 C   0  0  0  0  0  0  0  0  0  0  0  0
   -3.6276   -2.3598    1.4848 H   0  0  0  0  0  0  0  0  0  0  0  0
   -3.3954   -3.0750   -0.1290 H   0  0  0  0  0  0  0  0  0  0  0  0
   -1.5979   -2.3152    0.7745 C   0  0  0  0  0  0  0  0  0  0  0  0
   -0.6006   -2.9203    1.1389 O   0  0  0  0  0  0  0  0  0  0  0  0
   -1.4803   -1.0496    0.2382 N   0  0  0  0  0  0  0  0  0  0  0  0
   -2.3467   -0.5490    0.0412 H   0  0  0  0  0  0  0  0  0  0  0  0
   -0.2636   -0.2312    0.3277 C   0  0  1  0  0  0  0  0  0  0  0  0
    0.3645   -0.6339    1.1272 H   0  0  0  0  0  0  0  0  0  0  0  0
    0.4700   -0.2942   -1.0279 C   0  0  0  0  0  0  0  0  0  0  0  0
    0.4811   -1.3434   -1.3426 H   0  0  0  0  0  0  0  0  0  0  0  0
   -0.0998    0.2620   -1.7806 H   0  0  0  0  0  0  0  0  0  0  0  0
    1.9365    0.1979   -1.0246 C   0  0  0  0  0  0  0  0  0  0  0  0
    2.4888   -0.2948   -1.8295 H   0  0  0  0  0  0  0  0  0  0  0  0
    1.9416    1.2711   -1.2386 H   0  0  0  0  0  0  0  0  0  0  0  0
    2.6792   -0.0065    0.2929 C   0  0  0  0  0  0  0  0  0  0  0  0
    2.7359    0.8636    1.1429 O   0  0  0  0  0  0  0  0  0  0  0  0
    3.1926   -1.2215    0.6434 N   0  0  0  0  0  0  0  0  0  0  0  0
    3.4436   -1.3271    1.6225 H   0  0  0  0  0  0  0  0  0  0  0  0
    2.8984   -2.0369    0.1142 H   0  0  0  0  0  0  0  0  0  0  0  0
   -0.6230    1.2200    0.7159 C   0  0  0  0  0  0  0  0  0  0  0  0
   -1.6376    1.7261    0.2472 O   0  0  0  0  0  0  0  0  0  0  0  0
    0.0958    1.9011    1.6785 N   0  0  0  0  0  0  0  0  0  0  0  0
    1.0302    1.5358    1.8822 H   0  0  0  0  0  0  0  0  0  0  0  0
   -0.1899    3.2814    2.0466 C   0  0  0  0  0  0  0  0  0  0  0  0
   -1.2180    3.3773    2.4111 H   0  0  0  0  0  0  0  0  0  0  0  0
    0.4881    3.6061    2.8418 H   0  0  0  0  0  0  0  0  0  0  0  0
   -0.0573    3.9433    1.1846 H   0  0  0  0  0  0  0  0  0  0  0  0
  1  2  1  0  0  0  0
  2  3  1  0  0  0  0
  2  4  1  0  0  0  0
  2  5  1  0  0  0  0
  5  6  2  0  0  0  0
  5  7  1  0  0  0  0
  7  8  1  0  0  0  0
  7  9  1  0  0  0  0
  9 10  1  0  0  0  0
  9 11  1  0  0  0  0
  9 22  1  0  0  0  0
 11 12  1  0  0  0  0
 11 13  1  0  0  0  0
 11 14  1  0  0  0  0
 14 15  1  0  0  0  0
 14 16  1  0  0  0  0
 14 17  1  0  0  0  0
 17 18  2  0  0  0  0
 17 19  1  0  0  0  0
 19 20  1  0  0  0  0
 19 21  1  0  0  0  0
 22 23  2  0  0  0  0
 22 24  1  0  0  0  0
 24 25  1  0  0  0  0
 24 26  1  0  0  0  0
 26 27  1  0  0  0  0
 26 28  1  0  0  0  0
 26 29  1  0  0  0  0
M  END
$$$$

  -OEChem-04042215583D

 29 28  0     1  0  0  0  0  0999 V2000
   -2.8529   -3.9986    1.2882 H   0  0  0  0  0  0  0  0  0  0  0  0
   -2.9587   -2.9966    0.8629 C   0  0  0  0  0  0  0  0  0  0  0  0
   -3.6158   -2.4081    1.5078 H   0  0  0  0  0  0  0  0  0  0  0  0
   -3.4113   -3.0797   -0.1281 H   0  0  0  0  0  0  0  0  0  0  0  0
   -1.6019   -2.3268    0.7575 C   0  0  0  0  0  0  0  0  0  0  0  0
   -0.5961   -2.9224    1.1136 O   0  0  0  0  0  0  0  0  0  0  0  0
   -1.5024   -1.0613    0.2164 N   0  0  0  0  0  0  0  0  0  0  0  0
   -2.3763   -0.5766    0.0153 H   0  0  0  0  0  0  0  0  0  0  0  0
   -0.2983   -0.2237    0.2975 C   0  0  1  0  0  0  0  0  0  0  0  0
    0.3109   -0.6173    1.1158 H   0  0  0  0  0  0  0  0  0  0  0  0
    0.4806   -0.3253   -1.0276 C   0  0  0  0  0  0  0  0  0  0  0  0
    0.5233   -1.3810   -1.3170 H   0  0  0  0  0  0  0  0  0  0  0  0
   -0.0642    0.2083   -1.8140 H   0  0  0  0  0  0  0  0  0  0  0  0
    1.9273    0.2070   -0.9483 C   0  0  0  0  0  0  0  0  0  0  0  0
    2.4777   -0.1019   -1.8410 H   0  0  0  0  0  0  0  0  0  0  0  0
    1.9052    1.3011   -0.9429 H   0  0  0  0  0  0  0  0  0  0  0  0
    2.6873   -0.2576    0.2895 C   0  0  0  0  0  0  0  0  0  0  0  0
    2.7437    0.4425    1.2857 O   0  0  0  0  0  0  0  0  0  0  0  0
    3.2044   -1.5159    0.3959 N   0  0  0  0  0  0  0  0  0  0  0  0
    3.4406   -1.8085    1.3401 H   0  0  0  0  0  0  0  0  0  0  0  0
    2.8999   -2.2131   -0.2759 H   0  0  0  0  0  0  0  0  0  0  0  0
   -0.6182    1.2343    0.6773 C   0  0  0  0  0  0  0  0  0  0  0  0
   -1.6158    1.7734    0.2112 O   0  0  0  0  0  0  0  0  0  0  0  0
    0.1426    1.8872    1.6277 N   0  0  0  0  0  0  0  0  0  0  0  0
    1.0354    1.4519    1.8766 H   0  0  0  0  0  0  0  0  0  0  0  0
   -0.0920    3.2684    2.0260 C   0  0  0  0  0  0  0  0  0  0  0  0
   -1.1051    3.3862    2.4244 H   0  0  0  0  0  0  0  0  0  0  0  0
    0.6197    3.5612    2.8041 H   0  0  0  0  0  0  0  0  0  0  0  0
    0.0316    3.9405    1.1707 H   0  0  0  0  0  0  0  0  0  0  0  0
  1  2  1  0  0  0  0
  2  3  1  0  0  0  0
  2  4  1  0  0  0  0
  2  5  1  0  0  0  0
  5  6  2  0  0  0  0
  5  7  1  0  0  0  0
  7  8  1  0  0  0  0
  7  9  1  0  0  0  0
  9 10  1  0  0  0  0
  9 11  1  0  0  0  0
  9 22  1  0  0  0  0
 11 12  1  0  0  0  0
 11 13  1  0  0  0  0
 11 14  1  0  0  0  0
 14 15  1  0  0  0  0
 14 16  1  0  0  0  0
 14 17  1  0  0  0  0
 17 18  2  0  0  0  0
 17 19  1  0  0  0  0
 19 20  1  0  0  0  0
 19 21  1  0  0  0  0
 22 23  2  0  0  0  0
 22 24  1  0  0  0  0
 24 25  1  0  0  0  0
 24 26  1  0  0  0  0
 26 27  1  0  0  0  0
 26 28  1  0  0  0  0
 26 29  1  0  0  0  0
M  END
$$$$

  -OEChem-04042215583D

 29 28  0     1  0  0  0  0  0999 V2000
   -3.3008   -3.7760    1.4745 H   0  0  0  0  0  0  0  0  0  0  0  0
   -3.2793   -2.8188    0.9457 C   0  0  0  0  0  0  0  0  0  0  0  0
   -3.9738   -2.1308    1.4338 H   0  0  0  0  0  0  0  0  0  0  0  0
   -3.6003   -2.9801   -0.0862 H   0  0  0  0  0  0  0  0  0  0  0  0
   -1.8764   -2.2416    0.9675 C   0  0  0  0  0  0  0  0  0  0  0  0
   -0.9854   -2.8326    1.5541 O   0  0  0  0  0  0  0  0  0  0  0  0
   -1.6247   -1.0338    0.3488 N   0  0  0  0  0  0  0  0  0  0  0  0
   -2.4191   -0.5391   -0.0526 H   0  0  0  0  0  0  0  0  0  0  0  0
   -0.3206   -0.3572    0.3099 C   0  0  1  0  0  0  0  0  0  0  0  0
    0.3322   -0.7963    1.0709 H   0  0  0  0  0  0  0  0  0  0  0  0
    0.2883   -0.5858   -1.0888 C   0  0  0  0  0  0  0  0  0  0  0  0
    0.1603   -1.6407   -1.3580 H   0  0  0  0  0  0  0  0  0  0  0  0
   -0.2608    0.0087   -1.8271 H   0  0  0  0  0  0  0  0  0  0  0  0
    1.7907   -0.2547   -1.1777 C   0  0  0  0  0  0  0  0  0  0  0  0
    2.1352   -0.4376   -2.1996 H   0  0  0  0  0  0  0  0  0  0  0  0
    1.9450    0.8069   -0.9678 H   0  0  0  0  0  0  0  0  0  0  0  0
    2.6496   -1.0860   -0.2336 C   0  0  0  0  0  0  0  0  0  0  0  0
    2.7959   -2.2819   -0.3814 O   0  0  0  0  0  0  0  0  0  0  0  0
    3.2806   -0.5267    0.8415 N   0  0  0  0  0  0  0  0  0  0  0  0
    3.9512   -1.1351    1.3041 H   0  0  0  0  0  0  0  0  0  0  0  0
    3.4342    0.4757    0.8358 H   0  0  0  0  0  0  0  0  0  0  0  0
   -0.4449    1.1460    0.6171 C   0  0  0  0  0  0  0  0  0  0  0  0
   -1.3162    1.8148    0.0748 O   0  0  0  0  0  0  0  0  0  0  0  0
    0.4447    1.7481    1.4879 N   0  0  0  0  0  0  0  0  0  0  0  0
    1.0477    1.1306    2.0255 H   0  0  0  0  0  0  0  0  0  0  0  0
    0.3342    3.1446    1.8916 C   0  0  0  0  0  0  0  0  0  0  0  0
   -0.6089    3.3172    2.4205 H   0  0  0  0  0  0  0  0  0  0  0  0
    1.1601    3.4126    2.5576 H   0  0  0  0  0  0  0  0  0  0  0  0
    0.3719    3.8011    1.0159 H   0  0  0  0  0  0  0  0  0  0  0  0
  1  2  1  0  0  0  0
  2  3  1  0  0  0  0
  2  4  1  0  0  0  0
  2  5  1  0  0  0  0
  5  6  2  0  0  0  0
  5  7  1  0  0  0  0
  7  8  1  0  0  0  0
  7  9  1  0  0  0  0
  9 10  1  0  0  0  0
  9 11  1  0  0  0  0
  9 22  1  0  0  0  0
 11 12  1  0  0  0  0
 11 13  1  0  0  0  0
 11 14  1  0  0  0  0
 14 15  1  0  0  0  0
 14 16  1  0  0  0  0
 14 17  1  0  0  0  0
 17 18  2  0  0  0  0
 17 19  1  0  0  0  0
 19 20  1  0  0  0  0
 19 21  1  0  0  0  0
 22 23  2  0  0  0  0
 22 24  1  0  0  0  0
 24 25  1  0  0  0  0
 24 26  1  0  0  0  0
 26 27  1  0  0  0  0
 26 28  1  0  0  0  0
 26 29  1  0  0  0  0
M  END
$$$$

  -OEChem-04042215583D

 29 28  0     1  0  0  0  0  0999 V2000
   -3.3834   -3.7841    1.3674 H   0  0  0  0  0  0  0  0  0  0  0  0
   -3.3301   -2.8337    0.8288 C   0  0  0  0  0  0  0  0  0  0  0  0
   -4.0735   -2.1501    1.2457 H   0  0  0  0  0  0  0  0  0  0  0  0
   -3.5584   -3.0132   -0.2245 H   0  0  0  0  0  0  0  0  0  0  0  0
   -1.9425   -2.2352    0.9625 C   0  0  0  0  0  0  0  0  0  0  0  0
   -1.1039   -2.8013    1.6422 O   0  0  0  0  0  0  0  0  0  0  0  0
   -1.6602   -1.0308    0.3510 N   0  0  0  0  0  0  0  0  0  0  0  0
   -2.4280   -0.5543   -0.1179 H   0  0  0  0  0  0  0  0  0  0  0  0
   -0.3642   -0.3376    0.3885 C   0  0  1  0  0  0  0  0  0  0  0  0
    0.2570   -0.7624    1.1844 H   0  0  0  0  0  0  0  0  0  0  0  0
    0.3276   -0.5571   -0.9727 C   0  0  0  0  0  0  0  0  0  0  0  0
    0.2138   -1.6056   -1.2716 H   0  0  0  0  0  0  0  0  0  0  0  0
   -0.1804    0.0510   -1.7289 H   0  0  0  0  0  0  0  0  0  0  0  0
    1.8316   -0.2049   -0.9664 C   0  0  0  0  0  0  0  0  0  0  0  0
    2.1680   -0.1358   -2.0043 H   0  0  0  0  0  0  0  0  0  0  0  0
    1.9817    0.7766   -0.5096 H   0  0  0  0  0  0  0  0  0  0  0  0
    2.7322   -1.2201   -0.2661 C   0  0  0  0  0  0  0  0  0  0  0  0
    2.3367   -2.2794    0.1749 O   0  0  0  0  0  0  0  0  0  0  0  0
    4.0667   -0.9826   -0.1047 N   0  0  0  0  0  0  0  0  0  0  0  0
    4.6187   -1.7765    0.2086 H   0  0  0  0  0  0  0  0  0  0  0  0
    4.5013   -0.2378   -0.6387 H   0  0  0  0  0  0  0  0  0  0  0  0
   -0.5476    1.1650    0.6733 C   0  0  0  0  0  0  0  0  0  0  0  0
   -1.4025    1.8040    0.0704 O   0  0  0  0  0  0  0  0  0  0  0  0
    0.2623    1.8035    1.5941 N   0  0  0  0  0  0  0  0  0  0  0  0
    0.8767    1.2174    2.1536 H   0  0  0  0  0  0  0  0  0  0  0  0
    0.0861    3.1996    1.9745 C   0  0  0  0  0  0  0  0  0  0  0  0
   -0.9011    3.3530    2.4230 H   0  0  0  0  0  0  0  0  0  0  0  0
    0.8473    3.4916    2.7042 H   0  0  0  0  0  0  0  0  0  0  0  0
    0.1805    3.8503    1.0989 H   0  0  0  0  0  0  0  0  0  0  0  0
  1  2  1  0  0  0  0
  2  3  1  0  0  0  0
  2  4  1  0  0  0  0
  2  5  1  0  0  0  0
  5  6  2  0  0  0  0
  5  7  1  0  0  0  0
  7  8  1  0  0  0  0
  7  9  1  0  0  0  0
  9 10  1  0  0  0  0
  9 11  1  0  0  0  0
  9 22  1  0  0  0  0
 11 12  1  0  0  0  0
 11 13  1  0  0  0  0
 11 14  1  0  0  0  0
 14 15  1  0  0  0  0
 14 16  1  0  0  0  0
 14 17  1  0  0  0  0
 17 18  2  0  0  0  0
 17 19  1  0  0  0  0
 19 20  1  0  0  0  0
 19 21  1  0  0  0  0
 22 23  2  0  0  0  0
 22 24  1  0  0  0  0
 24 25  1  0  0  0  0
 24 26  1  0  0  0  0
 26 27  1  0  0  0  0
 26 28  1  0  0  0  0
 26 29  1  0  0  0  0
M  END
$$$$

  -OEChem-04042215583D

 29 28  0     1  0  0  0  0  0999 V2000
   -3.3614   -3.7948    1.3627 H   0  0  0  0  0  0  0  0  0  0  0  0
   -3.3149   -2.8443    0.8238 C   0  0  0  0  0  0  0  0  0  0  0  0
   -4.0678   -2.1679    1.2356 H   0  0  0  0  0  0  0  0  0  0  0  0
   -3.5350   -3.0269   -0.2307 H   0  0  0  0  0  0  0  0  0  0  0  0
   -1.9342   -2.2322    0.9658 C   0  0  0  0  0  0  0  0  0  0  0  0
   -1.0922   -2.7897    1.6496 O   0  0  0  0  0  0  0  0  0  0  0  0
   -1.6572   -1.0262    0.3550 N   0  0  0  0  0  0  0  0  0  0  0  0
   -2.4238   -0.5543   -0.1205 H   0  0  0  0  0  0  0  0  0  0  0  0
   -0.3604   -0.3355    0.3918 C   0  0  1  0  0  0  0  0  0  0  0  0
    0.2680   -0.7629    1.1806 H   0  0  0  0  0  0  0  0  0  0  0  0
    0.3239   -0.5530   -0.9722 C   0  0  0  0  0  0  0  0  0  0  0  0
    0.1905   -1.5923   -1.2933 H   0  0  0  0  0  0  0  0  0  0  0  0
   -0.1796    0.0741   -1.7162 H   0  0  0  0  0  0  0  0  0  0  0  0
    1.8296   -0.2019   -0.9566 C   0  0  0  0  0  0  0  0  0  0  0  0
    2.1094    0.1213   -1.9629 H   0  0  0  0  0  0  0  0  0  0  0  0
    2.0211    0.6365   -0.2828 H   0  0  0  0  0  0  0  0  0  0  0  0
    2.7556   -1.3607   -0.5880 C   0  0  0  0  0  0  0  0  0  0  0  0
    2.3716   -2.4926   -0.3727 O   0  0  0  0  0  0  0  0  0  0  0  0
    4.1048   -1.1766   -0.4915 N   0  0  0  0  0  0  0  0  0  0  0  0
    4.6603   -2.0239   -0.4122 H   0  0  0  0  0  0  0  0  0  0  0  0
    4.5157   -0.3284   -0.8658 H   0  0  0  0  0  0  0  0  0  0  0  0
   -0.5486    1.1667    0.6817 C   0  0  0  0  0  0  0  0  0  0  0  0
   -1.4042    1.8043    0.0784 O   0  0  0  0  0  0  0  0  0  0  0  0
    0.2583    1.8083    1.6031 N   0  0  0  0  0  0  0  0  0  0  0  0
    0.8764    1.2265    2.1627 H   0  0  0  0  0  0  0  0  0  0  0  0
    0.0829    3.2068    1.9755 C   0  0  0  0  0  0  0  0  0  0  0  0
   -0.9100    3.3665    2.4093 H   0  0  0  0  0  0  0  0  0  0  0  0
    0.8348    3.4986    2.7151 H   0  0  0  0  0  0  0  0  0  0  0  0
    0.1927    3.8538    1.0988 H   0  0  0  0  0  0  0  0  0  0  0  0
  1  2  1  0  0  0  0
  2  3  1  0  0  0  0
  2  4  1  0  0  0  0
  2  5  1  0  0  0  0
  5  6  2  0  0  0  0
  5  7  1  0  0  0  0
  7  8  1  0  0  0  0
  7  9  1  0  0  0  0
  9 10  1  0  0  0  0
  9 11  1  0  0  0  0
  9 22  1  0  0  0  0
 11 12  1  0  0  0  0
 11 13  1  0  0  0  0
 11 14  1  0  0  0  0
 14 15  1  0  0  0  0
 14 16  1  0  0  0  0
 14 17  1  0  0  0  0
 17 18  2  0  0  0  0
 17 19  1  0  0  0  0
 19 20  1  0  0  0  0
 19 21  1  0  0  0  0
 22 23  2  0  0  0  0
 22 24  1  0  0  0  0
 24 25  1  0  0  0  0
 24 26  1  0  0  0  0
 26 27  1  0  0  0  0
 26 28  1  0  0  0  0
 26 29  1  0  0  0  0
M  END
$$$$

  -OEChem-04042215583D

 29 28  0     1  0  0  0  0  0999 V2000
   -2.7017   -3.8938    1.6652 H   0  0  0  0  0  0  0  0  0  0  0  0
   -2.8405   -2.9343    1.1589 C   0  0  0  0  0  0  0  0  0  0  0  0
   -3.4643   -2.2926    1.7861 H   0  0  0  0  0  0  0  0  0  0  0  0
   -3.3499   -3.1075    0.2078 H   0  0  0  0  0  0  0  0  0  0  0  0
   -1.4971   -2.2736    0.9148 C   0  0  0  0  0  0  0  0  0  0  0  0
   -0.4603   -2.8448    1.2234 O   0  0  0  0  0  0  0  0  0  0  0  0
   -1.4328   -1.0374    0.3058 N   0  0  0  0  0  0  0  0  0  0  0  0
   -2.3133   -0.5527    0.1326 H   0  0  0  0  0  0  0  0  0  0  0  0
   -0.2083   -0.2303    0.2542 C   0  0  1  0  0  0  0  0  0  0  0  0
    0.5034   -0.5911    1.0039 H   0  0  0  0  0  0  0  0  0  0  0  0
    0.4050   -0.4089   -1.1421 C   0  0  0  0  0  0  0  0  0  0  0  0
    0.3438   -1.4583   -1.4532 H   0  0  0  0  0  0  0  0  0  0  0  0
   -0.1903    0.1672   -1.8596 H   0  0  0  0  0  0  0  0  0  0  0  0
    1.8648    0.0808   -1.1903 C   0  0  0  0  0  0  0  0  0  0  0  0
    2.0135    0.6604   -2.1065 H   0  0  0  0  0  0  0  0  0  0  0  0
    2.1019    0.7343   -0.3475 H   0  0  0  0  0  0  0  0  0  0  0  0
    2.8416   -1.0916   -1.2075 C   0  0  0  0  0  0  0  0  0  0  0  0
    3.8160   -1.0960   -1.9337 O   0  0  0  0  0  0  0  0  0  0  0  0
    2.7200   -2.1508   -0.3496 N   0  0  0  0  0  0  0  0  0  0  0  0
    3.3395   -2.9360   -0.5267 H   0  0  0  0  0  0  0  0  0  0  0  0
    1.8312   -2.3076    0.1234 H   0  0  0  0  0  0  0  0  0  0  0  0
   -0.5099    1.2429    0.5979 C   0  0  0  0  0  0  0  0  0  0  0  0
   -1.5168    1.7735    0.1450 O   0  0  0  0  0  0  0  0  0  0  0  0
    0.3033    1.9498    1.4642 N   0  0  0  0  0  0  0  0  0  0  0  0
    1.0999    1.4659    1.8689 H   0  0  0  0  0  0  0  0  0  0  0  0
    0.0440    3.3295    1.8576 C   0  0  0  0  0  0  0  0  0  0  0  0
   -0.9266    3.4103    2.3584 H   0  0  0  0  0  0  0  0  0  0  0  0
    0.8189    3.6776    2.5473 H   0  0  0  0  0  0  0  0  0  0  0  0
    0.0435    3.9848    0.9801 H   0  0  0  0  0  0  0  0  0  0  0  0
  1  2  1  0  0  0  0
  2  3  1  0  0  0  0
  2  4  1  0  0  0  0
  2  5  1  0  0  0  0
  5  6  2  0  0  0  0
  5  7  1  0  0  0  0
  7  8  1  0  0  0  0
  7  9  1  0  0  0  0
  9 10  1  0  0  0  0
  9 11  1  0  0  0  0
  9 22  1  0  0  0  0
 11 12  1  0  0  0  0
 11 13  1  0  0  0  0
 11 14  1  0  0  0  0
 14 15  1  0  0  0  0
 14 16  1  0  0  0  0
 14 17  1  0  0  0  0
 17 18  2  0  0  0  0
 17 19  1  0  0  0  0
 19 20  1  0  0  0  0
 19 21  1  0  0  0  0
 22 23  2  0  0  0  0
 22 24  1  0  0  0  0
 24 25  1  0  0  0  0
 24 26  1  0  0  0  0
 26 27  1  0  0  0  0
 26 28  1  0  0  0  0
 26 29  1  0  0  0  0
M  END
$$$$

  -OEChem-04042215583D

 29 28  0     1  0  0  0  0  0999 V2000
   -2.7345   -3.9380    1.5788 H   0  0  0  0  0  0  0  0  0  0  0  0
   -2.8616   -2.9705    1.0851 C   0  0  0  0  0  0  0  0  0  0  0  0
   -3.5166   -2.3463    1.6977 H   0  0  0  0  0  0  0  0  0  0  0  0
   -3.3298   -3.1307    0.1109 H   0  0  0  0  0  0  0  0  0  0  0  0
   -1.5162   -2.2929    0.9073 C   0  0  0  0  0  0  0  0  0  0  0  0
   -0.4911   -2.8509    1.2713 O   0  0  0  0  0  0  0  0  0  0  0  0
   -1.4417   -1.0546    0.3036 N   0  0  0  0  0  0  0  0  0  0  0  0
   -2.3207   -0.5855    0.0860 H   0  0  0  0  0  0  0  0  0  0  0  0
   -0.2251   -0.2332    0.2703 C   0  0  1  0  0  0  0  0  0  0  0  0
    0.4787   -0.5937    1.0279 H   0  0  0  0  0  0  0  0  0  0  0  0
    0.4126   -0.3851   -1.1187 C   0  0  0  0  0  0  0  0  0  0  0  0
    0.3770   -1.4387   -1.4179 H   0  0  0  0  0  0  0  0  0  0  0  0
   -0.1818    0.1710   -1.8527 H   0  0  0  0  0  0  0  0  0  0  0  0
    1.8682    0.1261   -1.1443 C   0  0  0  0  0  0  0  0  0  0  0  0
    1.9514    0.9420   -1.8690 H   0  0  0  0  0  0  0  0  0  0  0  0
    2.1697    0.5217   -0.1716 H   0  0  0  0  0  0  0  0  0  0  0  0
    2.8437   -0.9790   -1.5327 C   0  0  0  0  0  0  0  0  0  0  0  0
    3.6068   -0.8597   -2.4708 O   0  0  0  0  0  0  0  0  0  0  0  0
    2.9466   -2.1332   -0.8075 N   0  0  0  0  0  0  0  0  0  0  0  0
    3.5128   -2.8673   -1.2226 H   0  0  0  0  0  0  0  0  0  0  0  0
    2.2025   -2.3735   -0.1570 H   0  0  0  0  0  0  0  0  0  0  0  0
   -0.5447    1.2367    0.6099 C   0  0  0  0  0  0  0  0  0  0  0  0
   -1.5491    1.7590    0.1420 O   0  0  0  0  0  0  0  0  0  0  0  0
    0.2502    1.9502    1.4878 N   0  0  0  0  0  0  0  0  0  0  0  0
    1.0427    1.4720    1.9068 H   0  0  0  0  0  0  0  0  0  0  0  0
   -0.0283    3.3270    1.8772 C   0  0  0  0  0  0  0  0  0  0  0  0
   -0.9878    3.3904    2.4010 H   0  0  0  0  0  0  0  0  0  0  0  0
    0.7561    3.6976    2.5440 H   0  0  0  0  0  0  0  0  0  0  0  0
   -0.0649    3.9746    0.9948 H   0  0  0  0  0  0  0  0  0  0  0  0
  1  2  1  0  0  0  0
  2  3  1  0  0  0  0
  2  4  1  0  0  0  0
  2  5  1  0  0  0  0
  5  6  2  0  0  0  0
  5  7  1  0  0  0  0
  7  8  1  0  0  0  0
  7  9  1  0  0  0  0
  9 10  1  0  0  0  0
  9 11  1  0  0  0  0
  9 22  1  0  0  0  0
 11 12  1  0  0  0  0
 11 13  1  0  0  0  0
 11 14  1  0  0  0  0
 14 15  1  0  0  0  0
 14 16  1  0  0  0  0
 14 17  1  0  0  0  0
 17 18  2  0  0  0  0
 17 19  1  0  0  0  0
 19 20  1  0  0  0  0
 19 21  1  0  0  0  0
 22 23  2  0  0  0  0
 22 24  1  0  0  0  0
 24 25  1  0  0  0  0
 24 26  1  0  0  0  0
 26 27  1  0  0  0  0
 26 28  1  0  0  0  0
 26 29  1  0  0  0  0
M  END
$$$$

  -OEChem-04042215583D

 29 28  0     1  0  0  0  0  0999 V2000
   -2.7808   -3.9613    1.4851 H   0  0  0  0  0  0  0  0  0  0  0  0
   -2.8948   -2.9872    1.0010 C   0  0  0  0  0  0  0  0  0  0  0  0
   -3.5759   -2.3753    1.5975 H   0  0  0  0  0  0  0  0  0  0  0  0
   -3.3252   -3.1359    0.0076 H   0  0  0  0  0  0  0  0  0  0  0  0
   -1.5471   -2.3002    0.8846 C   0  0  0  0  0  0  0  0  0  0  0  0
   -0.5380   -2.8530    1.2961 O   0  0  0  0  0  0  0  0  0  0  0  0
   -1.4557   -1.0581    0.2909 N   0  0  0  0  0  0  0  0  0  0  0  0
   -2.3283   -0.5949    0.0383 H   0  0  0  0  0  0  0  0  0  0  0  0
   -0.2420   -0.2310    0.2885 C   0  0  1  0  0  0  0  0  0  0  0  0
    0.4460   -0.5963    1.0579 H   0  0  0  0  0  0  0  0  0  0  0  0
    0.4248   -0.3625   -1.0892 C   0  0  0  0  0  0  0  0  0  0  0  0
    0.4149   -1.4209   -1.3730 H   0  0  0  0  0  0  0  0  0  0  0  0
   -0.1588    0.1762   -1.8444 H   0  0  0  0  0  0  0  0  0  0  0  0
    1.8772    0.1562   -1.0848 C   0  0  0  0  0  0  0  0  0  0  0  0
    1.9177    1.1404   -1.5617 H   0  0  0  0  0  0  0  0  0  0  0  0
    2.2491    0.2708   -0.0635 H   0  0  0  0  0  0  0  0  0  0  0  0
    2.8142   -0.8006   -1.8111 C   0  0  0  0  0  0  0  0  0  0  0  0
    3.3169   -0.5175   -2.8805 O   0  0  0  0  0  0  0  0  0  0  0  0
    3.1407   -2.0191   -1.2865 N   0  0  0  0  0  0  0  0  0  0  0  0
    3.6320   -2.6531   -1.9100 H   0  0  0  0  0  0  0  0  0  0  0  0
    2.5840   -2.3881   -0.5208 H   0  0  0  0  0  0  0  0  0  0  0  0
   -0.5722    1.2363    0.6275 C   0  0  0  0  0  0  0  0  0  0  0  0
   -1.5663    1.7592    0.1386 O   0  0  0  0  0  0  0  0  0  0  0  0
    0.2013    1.9483    1.5256 N   0  0  0  0  0  0  0  0  0  0  0  0
    0.9855    1.4705    1.9599 H   0  0  0  0  0  0  0  0  0  0  0  0
   -0.0876    3.3239    1.9129 C   0  0  0  0  0  0  0  0  0  0  0  0
   -1.0724    3.3902    2.3873 H   0  0  0  0  0  0  0  0  0  0  0  0
    0.6634    3.6825    2.6234 H   0  0  0  0  0  0  0  0  0  0  0  0
   -0.0737    3.9798    1.0359 H   0  0  0  0  0  0  0  0  0  0  0  0
  1  2  1  0  0  0  0
  2  3  1  0  0  0  0
  2  4  1  0  0  0  0
  2  5  1  0  0  0  0
  5  6  2  0  0  0  0
  5  7  1  0  0  0  0
  7  8  1  0  0  0  0
  7  9  1  0  0  0  0
  9 10  1  0  0  0  0
  9 11  1  0  0  0  0
  9 22  1  0  0  0  0
 11 12  1  0  0  0  0
 11 13  1  0  0  0  0
 11 14  1  0  0  0  0
 14 15  1  0  0  0  0
 14 16  1  0  0  0  0
 14 17  1  0  0  0  0
 17 18  2  0  0  0  0
 17 19  1  0  0  0  0
 19 20  1  0  0  0  0
 19 21  1  0  0  0  0
 22 23  2  0  0  0  0
 22 24  1  0  0  0  0
 24 25  1  0  0  0  0
 24 26  1  0  0  0  0
 26 27  1  0  0  0  0
 26 28  1  0  0  0  0
 26 29  1  0  0  0  0
M  END
$$$$

  -OEChem-04042215583D

 29 28  0     1  0  0  0  0  0999 V2000
   -3.2628   -3.8253    1.4209 H   0  0  0  0  0  0  0  0  0  0  0  0
   -3.2588   -2.8670    0.8942 C   0  0  0  0  0  0  0  0  0  0  0  0
   -3.9706   -2.1949    1.3795 H   0  0  0  0  0  0  0  0  0  0  0  0
   -3.5707   -3.0325   -0.1398 H   0  0  0  0  0  0  0  0  0  0  0  0
   -1.8692   -2.2593    0.9245 C   0  0  0  0  0  0  0  0  0  0  0  0
   -0.9582   -2.8449    1.4887 O   0  0  0  0  0  0  0  0  0  0  0  0
   -1.6432   -1.0382    0.3234 N   0  0  0  0  0  0  0  0  0  0  0  0
   -2.4473   -0.5496   -0.0672 H   0  0  0  0  0  0  0  0  0  0  0  0
   -0.3629   -0.3183    0.3376 C   0  0  1  0  0  0  0  0  0  0  0  0
    0.2809   -0.7376    1.1173 H   0  0  0  0  0  0  0  0  0  0  0  0
    0.3085   -0.5048   -1.0338 C   0  0  0  0  0  0  0  0  0  0  0  0
    0.2279   -1.5660   -1.2976 H   0  0  0  0  0  0  0  0  0  0  0  0
   -0.2209    0.0632   -1.8071 H   0  0  0  0  0  0  0  0  0  0  0  0
    1.8009   -0.1117   -1.0154 C   0  0  0  0  0  0  0  0  0  0  0  0
    1.9038    0.9575   -1.2205 H   0  0  0  0  0  0  0  0  0  0  0  0
    2.2171   -0.3048   -0.0231 H   0  0  0  0  0  0  0  0  0  0  0  0
    2.6377   -0.9040   -2.0185 C   0  0  0  0  0  0  0  0  0  0  0  0
    2.1721   -1.3896   -3.0320 O   0  0  0  0  0  0  0  0  0  0  0  0
    3.9812   -1.0767   -1.8462 N   0  0  0  0  0  0  0  0  0  0  0  0
    4.4862   -1.4678   -2.6363 H   0  0  0  0  0  0  0  0  0  0  0  0
    4.4679   -0.5330   -1.1423 H   0  0  0  0  0  0  0  0  0  0  0  0
   -0.5657    1.1763    0.6529 C   0  0  0  0  0  0  0  0  0  0  0  0
   -1.4766    1.7961    0.1169 O   0  0  0  0  0  0  0  0  0  0  0  0
    0.2563    1.8193    1.5602 N   0  0  0  0  0  0  0  0  0  0  0  0
    0.9275    1.2502    2.0678 H   0  0  0  0  0  0  0  0  0  0  0  0
    0.0618    3.2060    1.9656 C   0  0  0  0  0  0  0  0  0  0  0  0
   -0.9022    3.3251    2.4712 H   0  0  0  0  0  0  0  0  0  0  0  0
    0.8550    3.5141    2.6535 H   0  0  0  0  0  0  0  0  0  0  0  0
    0.0867    3.8680    1.0934 H   0  0  0  0  0  0  0  0  0  0  0  0
  1  2  1  0  0  0  0
  2  3  1  0  0  0  0
  2  4  1  0  0  0  0
  2  5  1  0  0  0  0
  5  6  2  0  0  0  0
  5  7  1  0  0  0  0
  7  8  1  0  0  0  0
  7  9  1  0  0  0  0
  9 10  1  0  0  0  0
  9 11  1  0  0  0  0
  9 22  1  0  0  0  0
 11 12  1  0  0  0  0
 11 13  1  0  0  0  0
 11 14  1  0  0  0  0
 14 15  1  0  0  0  0
 14 16  1  0  0  0  0
 14 17  1  0  0  0  0
 17 18  2  0  0  0  0
 17 19  1  0  0  0  0
 19 20  1  0  0  0  0
 19 21  1  0  0  0  0
 22 23  2  0  0  0  0
 22 24  1  0  0  0  0
 24 25  1  0  0  0  0
 24 26  1  0  0  0  0
 26 27  1  0  0  0  0
 26 28  1  0  0  0  0
 26 29  1  0  0  0  0
M  END
$$$$

  -OEChem-04042215583D

 29 28  0     1  0  0  0  0  0999 V2000
   -3.3253   -3.7998    1.4083 H   0  0  0  0  0  0  0  0  0  0  0  0
   -3.3037   -2.8430    0.8792 C   0  0  0  0  0  0  0  0  0  0  0  0
   -4.0121   -2.1609    1.3553 H   0  0  0  0  0  0  0  0  0  0  0  0
   -3.6072   -3.0074   -0.1575 H   0  0  0  0  0  0  0  0  0  0  0  0
   -1.9069   -2.2523    0.9225 C   0  0  0  0  0  0  0  0  0  0  0  0
   -1.0099   -2.8462    1.5003 O   0  0  0  0  0  0  0  0  0  0  0  0
   -1.6578   -1.0368    0.3191 N   0  0  0  0  0  0  0  0  0  0  0  0
   -2.4505   -0.5394   -0.0836 H   0  0  0  0  0  0  0  0  0  0  0  0
   -0.3681   -0.3338    0.3455 C   0  0  1  0  0  0  0  0  0  0  0  0
    0.2621   -0.7566    1.1342 H   0  0  0  0  0  0  0  0  0  0  0  0
    0.3195   -0.5396   -1.0150 C   0  0  0  0  0  0  0  0  0  0  0  0
    0.2337   -1.5991   -1.2841 H   0  0  0  0  0  0  0  0  0  0  0  0
   -0.1911    0.0384   -1.7938 H   0  0  0  0  0  0  0  0  0  0  0  0
    1.8140   -0.1646   -0.9701 C   0  0  0  0  0  0  0  0  0  0  0  0
    1.9201    0.9227   -0.9240 H   0  0  0  0  0  0  0  0  0  0  0  0
    2.2666   -0.5898   -0.0702 H   0  0  0  0  0  0  0  0  0  0  0  0
    2.5976   -0.6885   -2.1727 C   0  0  0  0  0  0  0  0  0  0  0  0
    2.0683   -1.1596   -3.1616 O   0  0  0  0  0  0  0  0  0  0  0  0
    3.9609   -0.6202   -2.2112 N   0  0  0  0  0  0  0  0  0  0  0  0
    4.3936   -0.8266   -3.1070 H   0  0  0  0  0  0  0  0  0  0  0  0
    4.4503   -0.0622   -1.5205 H   0  0  0  0  0  0  0  0  0  0  0  0
   -0.5574    1.1645    0.6527 C   0  0  0  0  0  0  0  0  0  0  0  0
   -1.4549    1.7934    0.1050 O   0  0  0  0  0  0  0  0  0  0  0  0
    0.2613    1.8009    1.5679 N   0  0  0  0  0  0  0  0  0  0  0  0
    0.9208    1.2255    2.0838 H   0  0  0  0  0  0  0  0  0  0  0  0
    0.0752    3.1895    1.9711 C   0  0  0  0  0  0  0  0  0  0  0  0
   -0.8953    3.3187    2.4616 H   0  0  0  0  0  0  0  0  0  0  0  0
    0.8606    3.4889    2.6718 H   0  0  0  0  0  0  0  0  0  0  0  0
    0.1209    3.8513    1.0996 H   0  0  0  0  0  0  0  0  0  0  0  0
  1  2  1  0  0  0  0
  2  3  1  0  0  0  0
  2  4  1  0  0  0  0
  2  5  1  0  0  0  0
  5  6  2  0  0  0  0
  5  7  1  0  0  0  0
  7  8  1  0  0  0  0
  7  9  1  0  0  0  0
  9 10  1  0  0  0  0
  9 11  1  0  0  0  0
  9 22  1  0  0  0  0
 11 12  1  0  0  0  0
 11 13  1  0  0  0  0
 11 14  1  0  0  0  0
 14 15  1  0  0  0  0
 14 16  1  0  0  0  0
 14 17  1  0  0  0  0
 17 18  2  0  0  0  0
 17 19  1  0  0  0  0
 19 20  1  0  0  0  0
 19 21  1  0  0  0  0
 22 23  2  0  0  0  0
 22 24  1  0  0  0  0
 24 25  1  0  0  0  0
 24 26  1  0  0  0  0
 26 27  1  0  0  0  0
 26 28  1  0  0  0  0
 26 29  1  0  0  0  0
M  END
$$$$

  -OEChem-04042215583D

 29 28  0     1  0  0  0  0  0999 V2000
   -3.2999   -3.8186    1.3809 H   0  0  0  0  0  0  0  0  0  0  0  0
   -3.2890   -2.8516    0.8704 C   0  0  0  0  0  0  0  0  0  0  0  0
   -3.9892   -2.1802    1.3731 H   0  0  0  0  0  0  0  0  0  0  0  0
   -3.6115   -2.9957   -0.1636 H   0  0  0  0  0  0  0  0  0  0  0  0
   -1.8925   -2.2596    0.8984 C   0  0  0  0  0  0  0  0  0  0  0  0
   -0.9813   -2.8660    1.4406 O   0  0  0  0  0  0  0  0  0  0  0  0
   -1.6573   -1.0349    0.3082 N   0  0  0  0  0  0  0  0  0  0  0  0
   -2.4600   -0.5314   -0.0667 H   0  0  0  0  0  0  0  0  0  0  0  0
   -0.3740   -0.3202    0.3371 C   0  0  1  0  0  0  0  0  0  0  0  0
    0.2523   -0.7451    1.1280 H   0  0  0  0  0  0  0  0  0  0  0  0
    0.3255   -0.5151   -1.0204 C   0  0  0  0  0  0  0  0  0  0  0  0
    0.0426   -1.4877   -1.4391 H   0  0  0  0  0  0  0  0  0  0  0  0
   -0.0094    0.2523   -1.7285 H   0  0  0  0  0  0  0  0  0  0  0  0
    1.8584   -0.4838   -0.8787 C   0  0  0  0  0  0  0  0  0  0  0  0
    2.1680    0.4755   -0.4552 H   0  0  0  0  0  0  0  0  0  0  0  0
    2.1755   -1.2772   -0.1959 H   0  0  0  0  0  0  0  0  0  0  0  0
    2.5808   -0.6751   -2.2114 C   0  0  0  0  0  0  0  0  0  0  0  0
    2.0032   -0.7744   -3.2775 O   0  0  0  0  0  0  0  0  0  0  0  0
    3.9426   -0.7533   -2.2725 N   0  0  0  0  0  0  0  0  0  0  0  0
    4.3304   -1.0469   -3.1647 H   0  0  0  0  0  0  0  0  0  0  0  0
    4.4691   -0.8871   -1.4163 H   0  0  0  0  0  0  0  0  0  0  0  0
   -0.5679    1.1742    0.6617 C   0  0  0  0  0  0  0  0  0  0  0  0
   -1.4849    1.7976    0.1407 O   0  0  0  0  0  0  0  0  0  0  0  0
    0.2515    1.8072    1.5785 N   0  0  0  0  0  0  0  0  0  0  0  0
    0.9356    1.2385    2.0690 H   0  0  0  0  0  0  0  0  0  0  0  0
    0.0675    3.1955    1.9852 C   0  0  0  0  0  0  0  0  0  0  0  0
   -0.9037    3.3259    2.4742 H   0  0  0  0  0  0  0  0  0  0  0  0
    0.8519    3.4918    2.6882 H   0  0  0  0  0  0  0  0  0  0  0  0
    0.1159    3.8596    1.1156 H   0  0  0  0  0  0  0  0  0  0  0  0
  1  2  1  0  0  0  0
  2  3  1  0  0  0  0
  2  4  1  0  0  0  0
  2  5  1  0  0  0  0
  5  6  2  0  0  0  0
  5  7  1  0  0  0  0
  7  8  1  0  0  0  0
  7  9  1  0  0  0  0
  9 10  1  0  0  0  0
  9 11  1  0  0  0  0
  9 22  1  0  0  0  0
 11 12  1  0  0  0  0
 11 13  1  0  0  0  0
 11 14  1  0  0  0  0
 14 15  1  0  0  0  0
 14 16  1  0  0  0  0
 14 17  1  0  0  0  0
 17 18  2  0  0  0  0
 17 19  1  0  0  0  0
 19 20  1  0  0  0  0
 19 21  1  0  0  0  0
 22 23  2  0  0  0  0
 22 24  1  0  0  0  0
 24 25  1  0  0  0  0
 24 26  1  0  0  0  0
 26 27  1  0  0  0  0
 26 28  1  0  0  0  0
 26 29  1  0  0  0  0
M  END
$$$$

  -OEChem-04042215583D

 29 28  0     1  0  0  0  0  0999 V2000
   -3.3528   -3.7827    1.4246 H   0  0  0  0  0  0  0  0  0  0  0  0
   -3.3244   -2.8354    0.8788 C   0  0  0  0  0  0  0  0  0  0  0  0
   -4.0205   -2.1367    1.3493 H   0  0  0  0  0  0  0  0  0  0  0  0
   -3.6387   -3.0130   -0.1525 H   0  0  0  0  0  0  0  0  0  0  0  0
   -1.9205   -2.2614    0.8992 C   0  0  0  0  0  0  0  0  0  0  0  0
   -1.0152   -2.8782    1.4394 O   0  0  0  0  0  0  0  0  0  0  0  0
   -1.6731   -1.0401    0.3074 N   0  0  0  0  0  0  0  0  0  0  0  0
   -2.4711   -0.5273   -0.0648 H   0  0  0  0  0  0  0  0  0  0  0  0
   -0.3823   -0.3398    0.3349 C   0  0  1  0  0  0  0  0  0  0  0  0
    0.2399   -0.7719    1.1253 H   0  0  0  0  0  0  0  0  0  0  0  0
    0.3164   -0.5456   -1.0214 C   0  0  0  0  0  0  0  0  0  0  0  0
    0.0231   -1.5079   -1.4556 H   0  0  0  0  0  0  0  0  0  0  0  0
   -0.0111    0.2366   -1.7171 H   0  0  0  0  0  0  0  0  0  0  0  0
    1.8503   -0.5302   -0.8746 C   0  0  0  0  0  0  0  0  0  0  0  0
    2.1462    0.3051   -0.2346 H   0  0  0  0  0  0  0  0  0  0  0  0
    2.1798   -1.4568   -0.3960 H   0  0  0  0  0  0  0  0  0  0  0  0
    2.5790   -0.3678   -2.2074 C   0  0  0  0  0  0  0  0  0  0  0  0
    2.0193   -0.4114   -3.2865 O   0  0  0  0  0  0  0  0  0  0  0  0
    3.9308   -0.1819   -2.2537 N   0  0  0  0  0  0  0  0  0  0  0  0
    4.3573   -0.2550   -3.1729 H   0  0  0  0  0  0  0  0  0  0  0  0
    4.4819   -0.3480   -1.4188 H   0  0  0  0  0  0  0  0  0  0  0  0
   -0.5607    1.1570    0.6584 C   0  0  0  0  0  0  0  0  0  0  0  0
   -1.4713    1.7903    0.1385 O   0  0  0  0  0  0  0  0  0  0  0  0
    0.2666    1.7804    1.5747 N   0  0  0  0  0  0  0  0  0  0  0  0
    0.9467    1.2044    2.0619 H   0  0  0  0  0  0  0  0  0  0  0  0
    0.1101    3.1742    1.9725 C   0  0  0  0  0  0  0  0  0  0  0  0
   -0.8760    3.3377    2.4199 H   0  0  0  0  0  0  0  0  0  0  0  0
    0.8732    3.4455    2.7085 H   0  0  0  0  0  0  0  0  0  0  0  0
    0.2174    3.8340    1.1050 H   0  0  0  0  0  0  0  0  0  0  0  0
  1  2  1  0  0  0  0
  2  3  1  0  0  0  0
  2  4  1  0  0  0  0
  2  5  1  0  0  0  0
  5  6  2  0  0  0  0
  5  7  1  0  0  0  0
  7  8  1  0  0  0  0
  7  9  1  0  0  0  0
  9 10  1  0  0  0  0
  9 11  1  0  0  0  0
  9 22  1  0  0  0  0
 11 12  1  0  0  0  0
 11 13  1  0  0  0  0
 11 14  1  0  0  0  0
 14 15  1  0  0  0  0
 14 16  1  0  0  0  0
 14 17  1  0  0  0  0
 17 18  2  0  0  0  0
 17 19  1  0  0  0  0
 19 20  1  0  0  0  0
 19 21  1  0  0  0  0
 22 23  2  0  0  0  0
 22 24  1  0  0  0  0
 24 25  1  0  0  0  0
 24 26  1  0  0  0  0
 26 27  1  0  0  0  0
 26 28  1  0  0  0  0
 26 29  1  0  0  0  0
M  END
$$$$

  -OEChem-04042215583D

 29 28  0     1  0  0  0  0  0999 V2000
   -3.3630   -3.7699    1.4435 H   0  0  0  0  0  0  0  0  0  0  0  0
   -3.3346   -2.8240    0.8951 C   0  0  0  0  0  0  0  0  0  0  0  0
   -4.0156   -2.1176    1.3759 H   0  0  0  0  0  0  0  0  0  0  0  0
   -3.6681   -3.0007   -0.1303 H   0  0  0  0  0  0  0  0  0  0  0  0
   -1.9250   -2.2634    0.8916 C   0  0  0  0  0  0  0  0  0  0  0  0
   -1.0165   -2.8903    1.4145 O   0  0  0  0  0  0  0  0  0  0  0  0
   -1.6761   -1.0419    0.3006 N   0  0  0  0  0  0  0  0  0  0  0  0
   -2.4764   -0.5181   -0.0515 H   0  0  0  0  0  0  0  0  0  0  0  0
   -0.3831   -0.3453    0.3264 C   0  0  1  0  0  0  0  0  0  0  0  0
    0.2372   -0.7798    1.1172 H   0  0  0  0  0  0  0  0  0  0  0  0
    0.3147   -0.5546   -1.0305 C   0  0  0  0  0  0  0  0  0  0  0  0
    0.0161   -1.5123   -1.4708 H   0  0  0  0  0  0  0  0  0  0  0  0
   -0.0199    0.2322   -1.7170 H   0  0  0  0  0  0  0  0  0  0  0  0
    1.8525   -0.5445   -0.8909 C   0  0  0  0  0  0  0  0  0  0  0  0
    2.1391    0.1106   -0.0643 H   0  0  0  0  0  0  0  0  0  0  0  0
    2.2023   -1.5534   -0.6546 H   0  0  0  0  0  0  0  0  0  0  0  0
    2.5812   -0.0338   -2.1332 C   0  0  0  0  0  0  0  0  0  0  0  0
    2.0451    0.1102   -3.2153 O   0  0  0  0  0  0  0  0  0  0  0  0
    3.9150    0.2563   -2.0976 N   0  0  0  0  0  0  0  0  0  0  0  0
    4.3570    0.4101   -2.9996 H   0  0  0  0  0  0  0  0  0  0  0  0
    4.4660   -0.0554   -1.3052 H   0  0  0  0  0  0  0  0  0  0  0  0
   -0.5589    1.1516    0.6523 C   0  0  0  0  0  0  0  0  0  0  0  0
   -1.4795    1.7820    0.1465 O   0  0  0  0  0  0  0  0  0  0  0  0
    0.2704    1.7735    1.5676 N   0  0  0  0  0  0  0  0  0  0  0  0
    0.9578    1.1990    2.0459 H   0  0  0  0  0  0  0  0  0  0  0  0
    0.1102    3.1647    1.9733 C   0  0  0  0  0  0  0  0  0  0  0  0
   -0.8744    3.3214    2.4265 H   0  0  0  0  0  0  0  0  0  0  0  0
    0.8756    3.4349    2.7072 H   0  0  0  0  0  0  0  0  0  0  0  0
    0.2107    3.8296    1.1089 H   0  0  0  0  0  0  0  0  0  0  0  0
  1  2  1  0  0  0  0
  2  3  1  0  0  0  0
  2  4  1  0  0  0  0
  2  5  1  0  0  0  0
  5  6  2  0  0  0  0
  5  7  1  0  0  0  0
  7  8  1  0  0  0  0
  7  9  1  0  0  0  0
  9 10  1  0  0  0  0
  9 11  1  0  0  0  0
  9 22  1  0  0  0  0
 11 12  1  0  0  0  0
 11 13  1  0  0  0  0
 11 14  1  0  0  0  0
 14 15  1  0  0  0  0
 14 16  1  0  0  0  0
 14 17  1  0  0  0  0
 17 18  2  0  0  0  0
 17 19  1  0  0  0  0
 19 20  1  0  0  0  0
 19 21  1  0  0  0  0
 22 23  2  0  0  0  0
 22 24  1  0  0  0  0
 24 25  1  0  0  0  0
 24 26  1  0  0  0  0
 26 27  1  0  0  0  0
 26 28  1  0  0  0  0
 26 29  1  0  0  0  0
M  END
$$$$

  -OEChem-04042215583D

 29 28  0     1  0  0  0  0  0999 V2000
   -3.3897   -3.7944    1.3512 H   0  0  0  0  0  0  0  0  0  0  0  0
   -3.3657   -2.8011    0.8941 C   0  0  0  0  0  0  0  0  0  0  0  0
   -4.0224   -2.1364    1.4605 H   0  0  0  0  0  0  0  0  0  0  0  0
   -3.7327   -2.8771   -0.1325 H   0  0  0  0  0  0  0  0  0  0  0  0
   -1.9496   -2.2571    0.8990 C   0  0  0  0  0  0  0  0  0  0  0  0
   -1.0521   -2.8944    1.4279 O   0  0  0  0  0  0  0  0  0  0  0  0
   -1.6807   -1.0428    0.3020 N   0  0  0  0  0  0  0  0  0  0  0  0
   -2.4724   -0.5088   -0.0540 H   0  0  0  0  0  0  0  0  0  0  0  0
   -0.3769   -0.3657    0.3222 C   0  0  1  0  0  0  0  0  0  0  0  0
    0.2343   -0.8073    1.1161 H   0  0  0  0  0  0  0  0  0  0  0  0
    0.3165   -0.5926   -1.0349 C   0  0  0  0  0  0  0  0  0  0  0  0
    0.0023   -1.5519   -1.4600 H   0  0  0  0  0  0  0  0  0  0  0  0
   -0.0168    0.1859   -1.7314 H   0  0  0  0  0  0  0  0  0  0  0  0
    1.8582   -0.6069   -0.9127 C   0  0  0  0  0  0  0  0  0  0  0  0
    2.1585   -0.1932    0.0533 H   0  0  0  0  0  0  0  0  0  0  0  0
    2.2170   -1.6391   -0.9537 H   0  0  0  0  0  0  0  0  0  0  0  0
    2.5628    0.2091   -1.9953 C   0  0  0  0  0  0  0  0  0  0  0  0
    2.1165    0.3483   -3.1178 O   0  0  0  0  0  0  0  0  0  0  0  0
    3.7723    0.8007   -1.7677 N   0  0  0  0  0  0  0  0  0  0  0  0
    4.2463    1.1640   -2.5899 H   0  0  0  0  0  0  0  0  0  0  0  0
    4.3056    0.5323   -0.9481 H   0  0  0  0  0  0  0  0  0  0  0  0
   -0.5258    1.1356    0.6400 C   0  0  0  0  0  0  0  0  0  0  0  0
   -1.4373    1.7775    0.1323 O   0  0  0  0  0  0  0  0  0  0  0  0
    0.3156    1.7493    1.5500 N   0  0  0  0  0  0  0  0  0  0  0  0
    0.9869    1.1645    2.0385 H   0  0  0  0  0  0  0  0  0  0  0  0
    0.1761    3.1451    1.9479 C   0  0  0  0  0  0  0  0  0  0  0  0
   -0.7676    3.2987    2.4814 H   0  0  0  0  0  0  0  0  0  0  0  0
    0.9992    3.4346    2.6082 H   0  0  0  0  0  0  0  0  0  0  0  0
    0.1944    3.7986    1.0691 H   0  0  0  0  0  0  0  0  0  0  0  0
  1  2  1  0  0  0  0
  2  3  1  0  0  0  0
  2  4  1  0  0  0  0
  2  5  1  0  0  0  0
  5  6  2  0  0  0  0
  5  7  1  0  0  0  0
  7  8  1  0  0  0  0
  7  9  1  0  0  0  0
  9 10  1  0  0  0  0
  9 11  1  0  0  0  0
  9 22  1  0  0  0  0
 11 12  1  0  0  0  0
 11 13  1  0  0  0  0
 11 14  1  0  0  0  0
 14 15  1  0  0  0  0
 14 16  1  0  0  0  0
 14 17  1  0  0  0  0
 17 18  2  0  0  0  0
 17 19  1  0  0  0  0
 19 20  1  0  0  0  0
 19 21  1  0  0  0  0
 22 23  2  0  0  0  0
 22 24  1  0  0  0  0
 24 25  1  0  0  0  0
 24 26  1  0  0  0  0
 26 27  1  0  0  0  0
 26 28  1  0  0  0  0
 26 29  1  0  0  0  0
M  END
$$$$

  -OEChem-04042215583D

 29 28  0     1  0  0  0  0  0999 V2000
   -3.3510   -3.8084    1.2612 H   0  0  0  0  0  0  0  0  0  0  0  0
   -3.2843   -2.8603    0.7202 C   0  0  0  0  0  0  0  0  0  0  0  0
   -4.0019   -2.1580    1.1514 H   0  0  0  0  0  0  0  0  0  0  0  0
   -3.5394   -3.0338   -0.3280 H   0  0  0  0  0  0  0  0  0  0  0  0
   -1.8800   -2.2959    0.8254 C   0  0  0  0  0  0  0  0  0  0  0  0
   -1.0147   -2.9182    1.4212 O   0  0  0  0  0  0  0  0  0  0  0  0
   -1.5824   -1.0866    0.2320 N   0  0  0  0  0  0  0  0  0  0  0  0
   -2.3613   -0.5606   -0.1629 H   0  0  0  0  0  0  0  0  0  0  0  0
   -0.3263   -0.3483    0.4264 C   0  0  1  0  0  0  0  0  0  0  0  0
    0.1678   -0.7383    1.3223 H   0  0  0  0  0  0  0  0  0  0  0  0
    0.5869   -0.5497   -0.7956 C   0  0  0  0  0  0  0  0  0  0  0  0
    0.3941   -1.5402   -1.2217 H   0  0  0  0  0  0  0  0  0  0  0  0
    0.3370    0.1851   -1.5706 H   0  0  0  0  0  0  0  0  0  0  0  0
    2.0824   -0.4798   -0.4188 C   0  0  0  0  0  0  0  0  0  0  0  0
    2.2181   -0.3253    0.6553 H   0  0  0  0  0  0  0  0  0  0  0  0
    2.5640   -1.4293   -0.6682 H   0  0  0  0  0  0  0  0  0  0  0  0
    2.7927    0.6433   -1.1603 C   0  0  0  0  0  0  0  0  0  0  0  0
    2.9867    1.7190   -0.6283 O   0  0  0  0  0  0  0  0  0  0  0  0
    3.2306    0.5057   -2.4465 N   0  0  0  0  0  0  0  0  0  0  0  0
    3.8115    1.2555   -2.8109 H   0  0  0  0  0  0  0  0  0  0  0  0
    3.2417   -0.4130   -2.8761 H   0  0  0  0  0  0  0  0  0  0  0  0
   -0.5920    1.1517    0.6667 C   0  0  0  0  0  0  0  0  0  0  0  0
   -1.4706    1.7124    0.0204 O   0  0  0  0  0  0  0  0  0  0  0  0
    0.0676    1.8373    1.6691 N   0  0  0  0  0  0  0  0  0  0  0  0
    0.8598    1.3705    2.1010 H   0  0  0  0  0  0  0  0  0  0  0  0
   -0.0678    3.2766    1.8568 C   0  0  0  0  0  0  0  0  0  0  0  0
   -1.1194    3.5520    1.9888 H   0  0  0  0  0  0  0  0  0  0  0  0
    0.4839    3.5943    2.7468 H   0  0  0  0  0  0  0  0  0  0  0  0
    0.3318    3.8135    0.9899 H   0  0  0  0  0  0  0  0  0  0  0  0
  1  2  1  0  0  0  0
  2  3  1  0  0  0  0
  2  4  1  0  0  0  0
  2  5  1  0  0  0  0
  5  6  2  0  0  0  0
  5  7  1  0  0  0  0
  7  8  1  0  0  0  0
  7  9  1  0  0  0  0
  9 10  1  0  0  0  0
  9 11  1  0  0  0  0
  9 22  1  0  0  0  0
 11 12  1  0  0  0  0
 11 13  1  0  0  0  0
 11 14  1  0  0  0  0
 14 15  1  0  0  0  0
 14 16  1  0  0  0  0
 14 17  1  0  0  0  0
 17 18  2  0  0  0  0
 17 19  1  0  0  0  0
 19 20  1  0  0  0  0
 19 21  1  0  0  0  0
 22 23  2  0  0  0  0
 22 24  1  0  0  0  0
 24 25  1  0  0  0  0
 24 26  1  0  0  0  0
 26 27  1  0  0  0  0
 26 28  1  0  0  0  0
 26 29  1  0  0  0  0
M  END
$$$$

  -OEChem-04042215583D

 29 28  0     1  0  0  0  0  0999 V2000
   -3.4477   -3.7635    1.1764 H   0  0  0  0  0  0  0  0  0  0  0  0
   -3.3526   -2.7952    0.6773 C   0  0  0  0  0  0  0  0  0  0  0  0
   -4.0463   -2.0899    1.1415 H   0  0  0  0  0  0  0  0  0  0  0  0
   -3.6158   -2.9146   -0.3764 H   0  0  0  0  0  0  0  0  0  0  0  0
   -1.9310   -2.2803    0.8013 C   0  0  0  0  0  0  0  0  0  0  0  0
   -1.0964   -2.9305    1.4107 O   0  0  0  0  0  0  0  0  0  0  0  0
   -1.5833   -1.0841    0.2083 N   0  0  0  0  0  0  0  0  0  0  0  0
   -2.3395   -0.5316   -0.1945 H   0  0  0  0  0  0  0  0  0  0  0  0
   -0.3108   -0.3829    0.4304 C   0  0  1  0  0  0  0  0  0  0  0  0
    0.1474   -0.7785    1.3425 H   0  0  0  0  0  0  0  0  0  0  0  0
    0.6282   -0.6131   -0.7675 C   0  0  0  0  0  0  0  0  0  0  0  0
    0.4205   -1.6087   -1.1752 H   0  0  0  0  0  0  0  0  0  0  0  0
    0.4195    0.1093   -1.5654 H   0  0  0  0  0  0  0  0  0  0  0  0
    2.1135   -0.5853   -0.3512 C   0  0  0  0  0  0  0  0  0  0  0  0
    2.2355   -0.7300    0.7259 H   0  0  0  0  0  0  0  0  0  0  0  0
    2.6359   -1.4109   -0.8424 H   0  0  0  0  0  0  0  0  0  0  0  0
    2.7896    0.7116   -0.7699 C   0  0  0  0  0  0  0  0  0  0  0  0
    2.8716    1.6452    0.0049 O   0  0  0  0  0  0  0  0  0  0  0  0
    3.2920    0.9052   -2.0247 N   0  0  0  0  0  0  0  0  0  0  0  0
    3.5590    1.8570   -2.2599 H   0  0  0  0  0  0  0  0  0  0  0  0
    3.0703    0.2385   -2.7564 H   0  0  0  0  0  0  0  0  0  0  0  0
   -0.5460    1.1252    0.6549 C   0  0  0  0  0  0  0  0  0  0  0  0
   -1.4007    1.6982   -0.0132 O   0  0  0  0  0  0  0  0  0  0  0  0
    0.1032    1.8025    1.6692 N   0  0  0  0  0  0  0  0  0  0  0  0
    0.9300    1.3498    2.0509 H   0  0  0  0  0  0  0  0  0  0  0  0
   -0.0056    3.2468    1.8303 C   0  0  0  0  0  0  0  0  0  0  0  0
   -1.0523    3.5450    1.9512 H   0  0  0  0  0  0  0  0  0  0  0  0
    0.5473    3.5700    2.7175 H   0  0  0  0  0  0  0  0  0  0  0  0
    0.4097    3.7591    0.9560 H   0  0  0  0  0  0  0  0  0  0  0  0
  1  2  1  0  0  0  0
  2  3  1  0  0  0  0
  2  4  1  0  0  0  0
  2  5  1  0  0  0  0
  5  6  2  0  0  0  0
  5  7  1  0  0  0  0
  7  8  1  0  0  0  0
  7  9  1  0  0  0  0
  9 10  1  0  0  0  0
  9 11  1  0  0  0  0
  9 22  1  0  0  0  0
 11 12  1  0  0  0  0
 11 13  1  0  0  0  0
 11 14  1  0  0  0  0
 14 15  1  0  0  0  0
 14 16  1  0  0  0  0
 14 17  1  0  0  0  0
 17 18  2  0  0  0  0
 17 19  1  0  0  0  0
 19 20  1  0  0  0  0
 19 21  1  0  0  0  0
 22 23  2  0  0  0  0
 22 24  1  0  0  0  0
 24 25  1  0  0  0  0
 24 26  1  0  0  0  0
 26 27  1  0  0  0  0
 26 28  1  0  0  0  0
 26 29  1  0  0  0  0
M  END
$$$$

  -OEChem-04042215583D

 29 28  0     1  0  0  0  0  0999 V2000
   -3.5065   -3.7135    1.1751 H   0  0  0  0  0  0  0  0  0  0  0  0
   -3.3996   -2.7338    0.7012 C   0  0  0  0  0  0  0  0  0  0  0  0
   -4.0634   -2.0254    1.2027 H   0  0  0  0  0  0  0  0  0  0  0  0
   -3.6922   -2.8168   -0.3482 H   0  0  0  0  0  0  0  0  0  0  0  0
   -1.9628   -2.2573    0.8032 C   0  0  0  0  0  0  0  0  0  0  0  0
   -1.1364   -2.9328    1.3960 O   0  0  0  0  0  0  0  0  0  0  0  0
   -1.5915   -1.0699    0.2074 N   0  0  0  0  0  0  0  0  0  0  0  0
   -2.3396   -0.4926   -0.1754 H   0  0  0  0  0  0  0  0  0  0  0  0
   -0.3008   -0.4000    0.4226 C   0  0  1  0  0  0  0  0  0  0  0  0
    0.1582   -0.7995    1.3329 H   0  0  0  0  0  0  0  0  0  0  0  0
    0.6225   -0.6584   -0.7827 C   0  0  0  0  0  0  0  0  0  0  0  0
    0.3844   -1.6491   -1.1849 H   0  0  0  0  0  0  0  0  0  0  0  0
    0.4312    0.0682   -1.5807 H   0  0  0  0  0  0  0  0  0  0  0  0
    2.1102   -0.6715   -0.3810 C   0  0  0  0  0  0  0  0  0  0  0  0
    2.2443   -1.0836    0.6237 H   0  0  0  0  0  0  0  0  0  0  0  0
    2.6534   -1.3267   -1.0675 H   0  0  0  0  0  0  0  0  0  0  0  0
    2.7412    0.7102   -0.4634 C   0  0  0  0  0  0  0  0  0  0  0  0
    2.8835    1.3871    0.5376 O   0  0  0  0  0  0  0  0  0  0  0  0
    3.1550    1.2587   -1.6434 N   0  0  0  0  0  0  0  0  0  0  0  0
    3.6815    2.1257   -1.5832 H   0  0  0  0  0  0  0  0  0  0  0  0
    3.2053    0.6801   -2.4752 H   0  0  0  0  0  0  0  0  0  0  0  0
   -0.5230    1.1120    0.6461 C   0  0  0  0  0  0  0  0  0  0  0  0
   -1.3929    1.6843   -0.0036 O   0  0  0  0  0  0  0  0  0  0  0  0
    0.1324    1.7895    1.6561 N   0  0  0  0  0  0  0  0  0  0  0  0
    1.0064    1.3690    1.9702 H   0  0  0  0  0  0  0  0  0  0  0  0
   -0.0174    3.2263    1.8481 C   0  0  0  0  0  0  0  0  0  0  0  0
   -1.0670    3.4845    2.0237 H   0  0  0  0  0  0  0  0  0  0  0  0
    0.5661    3.5521    2.7145 H   0  0  0  0  0  0  0  0  0  0  0  0
    0.3377    3.7691    0.9658 H   0  0  0  0  0  0  0  0  0  0  0  0
  1  2  1  0  0  0  0
  2  3  1  0  0  0  0
  2  4  1  0  0  0  0
  2  5  1  0  0  0  0
  5  6  2  0  0  0  0
  5  7  1  0  0  0  0
  7  8  1  0  0  0  0
  7  9  1  0  0  0  0
  9 10  1  0  0  0  0
  9 11  1  0  0  0  0
  9 22  1  0  0  0  0
 11 12  1  0  0  0  0
 11 13  1  0  0  0  0
 11 14  1  0  0  0  0
 14 15  1  0  0  0  0
 14 16  1  0  0  0  0
 14 17  1  0  0  0  0
 17 18  2  0  0  0  0
 17 19  1  0  0  0  0
 19 20  1  0  0  0  0
 19 21  1  0  0  0  0
 22 23  2  0  0  0  0
 22 24  1  0  0  0  0
 24 25  1  0  0  0  0
 24 26  1  0  0  0  0
 26 27  1  0  0  0  0
 26 28  1  0  0  0  0
 26 29  1  0  0  0  0
M  END
$$$$

  -OEChem-04042215583D

 29 28  0     1  0  0  0  0  0999 V2000
   -3.2634   -3.7935    1.4914 H   0  0  0  0  0  0  0  0  0  0  0  0
   -3.2683   -2.8277    0.9787 C   0  0  0  0  0  0  0  0  0  0  0  0
   -3.8814   -2.1280    1.5519 H   0  0  0  0  0  0  0  0  0  0  0  0
   -3.7066   -2.9571   -0.0137 H   0  0  0  0  0  0  0  0  0  0  0  0
   -1.8536   -2.2946    0.8530 C   0  0  0  0  0  0  0  0  0  0  0  0
   -0.9098   -2.9649    1.2434 O   0  0  0  0  0  0  0  0  0  0  0  0
   -1.6368   -1.0543    0.2899 N   0  0  0  0  0  0  0  0  0  0  0  0
   -2.4575   -0.4861    0.0805 H   0  0  0  0  0  0  0  0  0  0  0  0
   -0.3410   -0.3616    0.2757 C   0  0  1  0  0  0  0  0  0  0  0  0
    0.3179   -0.8130    1.0243 H   0  0  0  0  0  0  0  0  0  0  0  0
    0.2920   -0.5062   -1.1226 C   0  0  0  0  0  0  0  0  0  0  0  0
   -0.0233   -1.4638   -1.5504 H   0  0  0  0  0  0  0  0  0  0  0  0
   -0.0755    0.2815   -1.7912 H   0  0  0  0  0  0  0  0  0  0  0  0
    1.8332   -0.5076   -1.0751 C   0  0  0  0  0  0  0  0  0  0  0  0
    2.1772   -1.2074   -0.3084 H   0  0  0  0  0  0  0  0  0  0  0  0
    2.2123   -0.8665   -2.0359 H   0  0  0  0  0  0  0  0  0  0  0  0
    2.4433    0.8675   -0.8304 C   0  0  0  0  0  0  0  0  0  0  0  0
    2.0568    1.8689   -1.3979 O   0  0  0  0  0  0  0  0  0  0  0  0
    3.4005    1.0599    0.1247 N   0  0  0  0  0  0  0  0  0  0  0  0
    3.8570    1.9680    0.0953 H   0  0  0  0  0  0  0  0  0  0  0  0
    3.9190    0.2504    0.4505 H   0  0  0  0  0  0  0  0  0  0  0  0
   -0.5417    1.1195    0.6652 C   0  0  0  0  0  0  0  0  0  0  0  0
   -1.5476    1.7088    0.2836 O   0  0  0  0  0  0  0  0  0  0  0  0
    0.3068    1.7365    1.5661 N   0  0  0  0  0  0  0  0  0  0  0  0
    1.1732    1.2555    1.7871 H   0  0  0  0  0  0  0  0  0  0  0  0
    0.1987    3.1516    1.8981 C   0  0  0  0  0  0  0  0  0  0  0  0
   -0.7956    3.3793    2.2968 H   0  0  0  0  0  0  0  0  0  0  0  0
    0.9415    3.4199    2.6552 H   0  0  0  0  0  0  0  0  0  0  0  0
    0.3712    3.7657    1.0078 H   0  0  0  0  0  0  0  0  0  0  0  0
  1  2  1  0  0  0  0
  2  3  1  0  0  0  0
  2  4  1  0  0  0  0
  2  5  1  0  0  0  0
  5  6  2  0  0  0  0
  5  7  1  0  0  0  0
  7  8  1  0  0  0  0
  7  9  1  0  0  0  0
  9 10  1  0  0  0  0
  9 11  1  0  0  0  0
  9 22  1  0  0  0  0
 11 12  1  0  0  0  0
 11 13  1  0  0  0  0
 11 14  1  0  0  0  0
 14 15  1  0  0  0  0
 14 16  1  0  0  0  0
 14 17  1  0  0  0  0
 17 18  2  0  0  0  0
 17 19  1  0  0  0  0
 19 20  1  0  0  0  0
 19 21  1  0  0  0  0
 22 23  2  0  0  0  0
 22 24  1  0  0  0  0
 24 25  1  0  0  0  0
 24 26  1  0  0  0  0
 26 27  1  0  0  0  0
 26 28  1  0  0  0  0
 26 29  1  0  0  0  0
M  END
$$$$

  -OEChem-04042215583D

 29 28  0     1  0  0  0  0  0999 V2000
   -3.1653   -3.8564    1.4150 H   0  0  0  0  0  0  0  0  0  0  0  0
   -3.1960   -2.8499    0.9886 C   0  0  0  0  0  0  0  0  0  0  0  0
   -3.7872   -2.2067    1.6449 H   0  0  0  0  0  0  0  0  0  0  0  0
   -3.6758   -2.8977    0.0081 H   0  0  0  0  0  0  0  0  0  0  0  0
   -1.7902   -2.2963    0.8509 C   0  0  0  0  0  0  0  0  0  0  0  0
   -0.8321   -2.9598    1.2177 O   0  0  0  0  0  0  0  0  0  0  0  0
   -1.5963   -1.0467    0.3002 N   0  0  0  0  0  0  0  0  0  0  0  0
   -2.4263   -0.4837    0.1144 H   0  0  0  0  0  0  0  0  0  0  0  0
   -0.3081   -0.3397    0.2784 C   0  0  1  0  0  0  0  0  0  0  0  0
    0.3720   -0.7897    1.0088 H   0  0  0  0  0  0  0  0  0  0  0  0
    0.2952   -0.4663   -1.1365 C   0  0  0  0  0  0  0  0  0  0  0  0
   -0.0354   -1.4097   -1.5839 H   0  0  0  0  0  0  0  0  0  0  0  0
   -0.0847    0.3437   -1.7703 H   0  0  0  0  0  0  0  0  0  0  0  0
    1.8367   -0.4600   -1.1492 C   0  0  0  0  0  0  0  0  0  0  0  0
    2.1996   -1.3262   -0.5888 H   0  0  0  0  0  0  0  0  0  0  0  0
    2.1840   -0.5694   -2.1805 H   0  0  0  0  0  0  0  0  0  0  0  0
    2.4625    0.8023   -0.5729 C   0  0  0  0  0  0  0  0  0  0  0  0
    2.2738    1.8996   -1.0561 O   0  0  0  0  0  0  0  0  0  0  0  0
    3.1774    0.7805    0.5918 N   0  0  0  0  0  0  0  0  0  0  0  0
    3.7026    1.6308    0.7803 H   0  0  0  0  0  0  0  0  0  0  0  0
    3.5556   -0.1122    0.8948 H   0  0  0  0  0  0  0  0  0  0  0  0
   -0.5411    1.1325    0.6917 C   0  0  0  0  0  0  0  0  0  0  0  0
   -1.5635    1.7016    0.3229 O   0  0  0  0  0  0  0  0  0  0  0  0
    0.2974    1.7615    1.5934 N   0  0  0  0  0  0  0  0  0  0  0  0
    1.2002    1.3222    1.7521 H   0  0  0  0  0  0  0  0  0  0  0  0
    0.1591    3.1739    1.9263 C   0  0  0  0  0  0  0  0  0  0  0  0
   -0.8287    3.3737    2.3545 H   0  0  0  0  0  0  0  0  0  0  0  0
    0.9166    3.4651    2.6600 H   0  0  0  0  0  0  0  0  0  0  0  0
    0.2873    3.7912    1.0306 H   0  0  0  0  0  0  0  0  0  0  0  0
  1  2  1  0  0  0  0
  2  3  1  0  0  0  0
  2  4  1  0  0  0  0
  2  5  1  0  0  0  0
  5  6  2  0  0  0  0
  5  7  1  0  0  0  0
  7  8  1  0  0  0  0
  7  9  1  0  0  0  0
  9 10  1  0  0  0  0
  9 11  1  0  0  0  0
  9 22  1  0  0  0  0
 11 12  1  0  0  0  0
 11 13  1  0  0  0  0
 11 14  1  0  0  0  0
 14 15  1  0  0  0  0
 14 16  1  0  0  0  0
 14 17  1  0  0  0  0
 17 18  2  0  0  0  0
 17 19  1  0  0  0  0
 19 20  1  0  0  0  0
 19 21  1  0  0  0  0
 22 23  2  0  0  0  0
 22 24  1  0  0  0  0
 24 25  1  0  0  0  0
 24 26  1  0  0  0  0
 26 27  1  0  0  0  0
 26 28  1  0  0  0  0
 26 29  1  0  0  0  0
M  END
$$$$

  -OEChem-04042215583D

 29 28  0     1  0  0  0  0  0999 V2000
   -3.0770   -3.8929    1.4056 H   0  0  0  0  0  0  0  0  0  0  0  0
   -3.1279   -2.8845    0.9857 C   0  0  0  0  0  0  0  0  0  0  0  0
   -3.7267   -2.2561    1.6495 H   0  0  0  0  0  0  0  0  0  0  0  0
   -3.6123   -2.9344    0.0075 H   0  0  0  0  0  0  0  0  0  0  0  0
   -1.7328   -2.3056    0.8436 C   0  0  0  0  0  0  0  0  0  0  0  0
   -0.7604   -2.9547    1.1983 O   0  0  0  0  0  0  0  0  0  0  0  0
   -1.5648   -1.0483    0.3023 N   0  0  0  0  0  0  0  0  0  0  0  0
   -2.4064   -0.4992    0.1271 H   0  0  0  0  0  0  0  0  0  0  0  0
   -0.2916   -0.3149    0.2914 C   0  0  1  0  0  0  0  0  0  0  0  0
    0.3956   -0.7570    1.0198 H   0  0  0  0  0  0  0  0  0  0  0  0
    0.3118   -0.4221   -1.1269 C   0  0  0  0  0  0  0  0  0  0  0  0
   -0.0153   -1.3584   -1.5921 H   0  0  0  0  0  0  0  0  0  0  0  0
   -0.0840    0.3963   -1.7393 H   0  0  0  0  0  0  0  0  0  0  0  0
    1.8542   -0.3900   -1.1784 C   0  0  0  0  0  0  0  0  0  0  0  0
    2.2311   -1.3650   -0.8568 H   0  0  0  0  0  0  0  0  0  0  0  0
    2.1743   -0.2430   -2.2140 H   0  0  0  0  0  0  0  0  0  0  0  0
    2.5092    0.6787   -0.3148 C   0  0  0  0  0  0  0  0  0  0  0  0
    2.5190    1.8503   -0.6312 O   0  0  0  0  0  0  0  0  0  0  0  0
    3.0398    0.3928    0.9121 N   0  0  0  0  0  0  0  0  0  0  0  0
    3.6420    1.1181    1.2938 H   0  0  0  0  0  0  0  0  0  0  0  0
    3.2442   -0.5805    1.1211 H   0  0  0  0  0  0  0  0  0  0  0  0
   -0.5632    1.1482    0.7153 C   0  0  0  0  0  0  0  0  0  0  0  0
   -1.5908    1.6992    0.3330 O   0  0  0  0  0  0  0  0  0  0  0  0
    0.2529    1.7914    1.6263 N   0  0  0  0  0  0  0  0  0  0  0  0
    1.1664    1.3725    1.7833 H   0  0  0  0  0  0  0  0  0  0  0  0
    0.0841    3.1990    1.9642 C   0  0  0  0  0  0  0  0  0  0  0  0
   -0.9094    3.3768    2.3891 H   0  0  0  0  0  0  0  0  0  0  0  0
    0.8327    3.5022    2.7023 H   0  0  0  0  0  0  0  0  0  0  0  0
    0.2041    3.8228    1.0720 H   0  0  0  0  0  0  0  0  0  0  0  0
  1  2  1  0  0  0  0
  2  3  1  0  0  0  0
  2  4  1  0  0  0  0
  2  5  1  0  0  0  0
  5  6  2  0  0  0  0
  5  7  1  0  0  0  0
  7  8  1  0  0  0  0
  7  9  1  0  0  0  0
  9 10  1  0  0  0  0
  9 11  1  0  0  0  0
  9 22  1  0  0  0  0
 11 12  1  0  0  0  0
 11 13  1  0  0  0  0
 11 14  1  0  0  0  0
 14 15  1  0  0  0  0
 14 16  1  0  0  0  0
 14 17  1  0  0  0  0
 17 18  2  0  0  0  0
 17 19  1  0  0  0  0
 19 20  1  0  0  0  0
 19 21  1  0  0  0  0
 22 23  2  0  0  0  0
 22 24  1  0  0  0  0
 24 25  1  0  0  0  0
 24 26  1  0  0  0  0
 26 27  1  0  0  0  0
 26 28  1  0  0  0  0
 26 29  1  0  0  0  0
M  END
$$$$

  -OEChem-04042215583D

 29 28  0     1  0  0  0  0  0999 V2000
   -3.0215   -3.9193    1.3785 H   0  0  0  0  0  0  0  0  0  0  0  0
   -3.0853   -2.9120    0.9574 C   0  0  0  0  0  0  0  0  0  0  0  0
   -3.7008   -2.2932    1.6149 H   0  0  0  0  0  0  0  0  0  0  0  0
   -3.5593   -2.9705   -0.0255 H   0  0  0  0  0  0  0  0  0  0  0  0
   -1.6990   -2.3099    0.8287 C   0  0  0  0  0  0  0  0  0  0  0  0
   -0.7187   -2.9474    1.1835 O   0  0  0  0  0  0  0  0  0  0  0  0
   -1.5466   -1.0484    0.2917 N   0  0  0  0  0  0  0  0  0  0  0  0
   -2.3958   -0.5112    0.1158 H   0  0  0  0  0  0  0  0  0  0  0  0
   -0.2870   -0.2916    0.3056 C   0  0  1  0  0  0  0  0  0  0  0  0
    0.3851   -0.7267    1.0510 H   0  0  0  0  0  0  0  0  0  0  0  0
    0.3468   -0.3869   -1.1009 C   0  0  0  0  0  0  0  0  0  0  0  0
    0.0354   -1.3228   -1.5775 H   0  0  0  0  0  0  0  0  0  0  0  0
   -0.0557    0.4295   -1.7116 H   0  0  0  0  0  0  0  0  0  0  0  0
    1.8919   -0.3285   -1.1526 C   0  0  0  0  0  0  0  0  0  0  0  0
    2.2730   -1.3515   -1.0852 H   0  0  0  0  0  0  0  0  0  0  0  0
    2.2029    0.0674   -2.1238 H   0  0  0  0  0  0  0  0  0  0  0  0
    2.5693    0.4826   -0.0553 C   0  0  0  0  0  0  0  0  0  0  0  0
    2.6711    1.6911   -0.1100 O   0  0  0  0  0  0  0  0  0  0  0  0
    3.0137   -0.0906    1.1024 N   0  0  0  0  0  0  0  0  0  0  0  0
    3.6308    0.4851    1.6693 H   0  0  0  0  0  0  0  0  0  0  0  0
    3.1010   -1.1027    1.1352 H   0  0  0  0  0  0  0  0  0  0  0  0
   -0.5875    1.1676    0.7257 C   0  0  0  0  0  0  0  0  0  0  0  0
   -1.6248    1.6955    0.3363 O   0  0  0  0  0  0  0  0  0  0  0  0
    0.2009    1.8250    1.6508 N   0  0  0  0  0  0  0  0  0  0  0  0
    1.1428    1.4574    1.7682 H   0  0  0  0  0  0  0  0  0  0  0  0
   -0.0206    3.2208    2.0066 C   0  0  0  0  0  0  0  0  0  0  0  0
   -1.0356    3.3650    2.3915 H   0  0  0  0  0  0  0  0  0  0  0  0
    0.6869    3.5284    2.7825 H   0  0  0  0  0  0  0  0  0  0  0  0
    0.1210    3.8645    1.1320 H   0  0  0  0  0  0  0  0  0  0  0  0
  1  2  1  0  0  0  0
  2  3  1  0  0  0  0
  2  4  1  0  0  0  0
  2  5  1  0  0  0  0
  5  6  2  0  0  0  0
  5  7  1  0  0  0  0
  7  8  1  0  0  0  0
  7  9  1  0  0  0  0
  9 10  1  0  0  0  0
  9 11  1  0  0  0  0
  9 22  1  0  0  0  0
 11 12  1  0  0  0  0
 11 13  1  0  0  0  0
 11 14  1  0  0  0  0
 14 15  1  0  0  0  0
 14 16  1  0  0  0  0
 14 17  1  0  0  0  0
 17 18  2  0  0  0  0
 17 19  1  0  0  0  0
 19 20  1  0  0  0  0
 19 21  1  0  0  0  0
 22 23  2  0  0  0  0
 22 24  1  0  0  0  0
 24 25  1  0  0  0  0
 24 26  1  0  0  0  0
 26 27  1  0  0  0  0
 26 28  1  0  0  0  0
 26 29  1  0  0  0  0
M  END
$$$$

  -OEChem-04042215583D

 29 28  0     1  0  0  0  0  0999 V2000
   -2.9771   -3.9252    1.3243 H   0  0  0  0  0  0  0  0  0  0  0  0
   -3.0459   -2.8995    0.9511 C   0  0  0  0  0  0  0  0  0  0  0  0
   -3.6372   -2.3070    1.6536 H   0  0  0  0  0  0  0  0  0  0  0  0
   -3.5487   -2.9107   -0.0191 H   0  0  0  0  0  0  0  0  0  0  0  0
   -1.6596   -2.3001    0.8102 C   0  0  0  0  0  0  0  0  0  0  0  0
   -0.6781   -2.9334    1.1700 O   0  0  0  0  0  0  0  0  0  0  0  0
   -1.5077   -1.0426    0.2642 N   0  0  0  0  0  0  0  0  0  0  0  0
   -2.3577   -0.5049    0.0920 H   0  0  0  0  0  0  0  0  0  0  0  0
   -0.2545   -0.2763    0.3087 C   0  0  1  0  0  0  0  0  0  0  0  0
    0.3950   -0.6978    1.0807 H   0  0  0  0  0  0  0  0  0  0  0  0
    0.4211   -0.3536   -1.0798 C   0  0  0  0  0  0  0  0  0  0  0  0
    0.1301   -1.2930   -1.5626 H   0  0  0  0  0  0  0  0  0  0  0  0
    0.0211    0.4549   -1.7022 H   0  0  0  0  0  0  0  0  0  0  0  0
    1.9701   -0.2831   -1.1053 C   0  0  0  0  0  0  0  0  0  0  0  0
    2.3541   -1.2830   -1.3265 H   0  0  0  0  0  0  0  0  0  0  0  0
    2.2804    0.3663   -1.9292 H   0  0  0  0  0  0  0  0  0  0  0  0
    2.6604    0.2003    0.1654 C   0  0  0  0  0  0  0  0  0  0  0  0
    2.7114    1.3737    0.4782 O   0  0  0  0  0  0  0  0  0  0  0  0
    3.1524   -0.6795    1.0869 N   0  0  0  0  0  0  0  0  0  0  0  0
    3.4486   -0.2972    1.9803 H   0  0  0  0  0  0  0  0  0  0  0  0
    2.9395   -1.6691    0.9949 H   0  0  0  0  0  0  0  0  0  0  0  0
   -0.5957    1.1823    0.7078 C   0  0  0  0  0  0  0  0  0  0  0  0
   -1.6503    1.6693    0.3094 O   0  0  0  0  0  0  0  0  0  0  0  0
    0.1446    1.8692    1.6508 N   0  0  0  0  0  0  0  0  0  0  0  0
    1.1255    1.5911    1.7120 H   0  0  0  0  0  0  0  0  0  0  0  0
   -0.1748    3.2380    2.0376 C   0  0  0  0  0  0  0  0  0  0  0  0
   -1.1860    3.2949    2.4537 H   0  0  0  0  0  0  0  0  0  0  0  0
    0.5296    3.5873    2.7985 H   0  0  0  0  0  0  0  0  0  0  0  0
   -0.1110    3.9057    1.1721 H   0  0  0  0  0  0  0  0  0  0  0  0
  1  2  1  0  0  0  0
  2  3  1  0  0  0  0
  2  4  1  0  0  0  0
  2  5  1  0  0  0  0
  5  6  2  0  0  0  0
  5  7  1  0  0  0  0
  7  8  1  0  0  0  0
  7  9  1  0  0  0  0
  9 10  1  0  0  0  0
  9 11  1  0  0  0  0
  9 22  1  0  0  0  0
 11 12  1  0  0  0  0
 11 13  1  0  0  0  0
 11 14  1  0  0  0  0
 14 15  1  0  0  0  0
 14 16  1  0  0  0  0
 14 17  1  0  0  0  0
 17 18  2  0  0  0  0
 17 19  1  0  0  0  0
 19 20  1  0  0  0  0
 19 21  1  0  0  0  0
 22 23  2  0  0  0  0
 22 24  1  0  0  0  0
 24 25  1  0  0  0  0
 24 26  1  0  0  0  0
 26 27  1  0  0  0  0
 26 28  1  0  0  0  0
 26 29  1  0  0  0  0
M  END
$$$$

  -OEChem-04042215583D

 29 28  0     1  0  0  0  0  0999 V2000
   -2.9466   -3.9276    1.3923 H   0  0  0  0  0  0  0  0  0  0  0  0
   -3.0189   -2.9391    0.9302 C   0  0  0  0  0  0  0  0  0  0  0  0
   -3.6607   -2.3074    1.5493 H   0  0  0  0  0  0  0  0  0  0  0  0
   -3.4694   -3.0446   -0.0596 H   0  0  0  0  0  0  0  0  0  0  0  0
   -1.6412   -2.3158    0.8086 C   0  0  0  0  0  0  0  0  0  0  0  0
   -0.6528   -2.9341    1.1766 O   0  0  0  0  0  0  0  0  0  0  0  0
   -1.5037   -1.0579    0.2589 N   0  0  0  0  0  0  0  0  0  0  0  0
   -2.3614   -0.5392    0.0693 H   0  0  0  0  0  0  0  0  0  0  0  0
   -0.2674   -0.2657    0.3251 C   0  0  1  0  0  0  0  0  0  0  0  0
    0.3565   -0.6754    1.1233 H   0  0  0  0  0  0  0  0  0  0  0  0
    0.4520   -0.3447   -1.0420 C   0  0  0  0  0  0  0  0  0  0  0  0
    0.2034   -1.3090   -1.4983 H   0  0  0  0  0  0  0  0  0  0  0  0
    0.0427    0.4273   -1.7031 H   0  0  0  0  0  0  0  0  0  0  0  0
    2.0003   -0.2391   -1.0351 C   0  0  0  0  0  0  0  0  0  0  0  0
    2.4166   -1.1313   -1.5114 H   0  0  0  0  0  0  0  0  0  0  0  0
    2.2927    0.6157   -1.6521 H   0  0  0  0  0  0  0  0  0  0  0  0
    2.6701   -0.0706    0.3253 C   0  0  0  0  0  0  0  0  0  0  0  0
    2.7418    1.0062    0.8873 O   0  0  0  0  0  0  0  0  0  0  0  0
    3.0925   -1.1486    1.0486 N   0  0  0  0  0  0  0  0  0  0  0  0
    3.3158   -0.9720    2.0238 H   0  0  0  0  0  0  0  0  0  0  0  0
    2.7801   -2.0731    0.7642 H   0  0  0  0  0  0  0  0  0  0  0  0
   -0.6098    1.1941    0.7065 C   0  0  0  0  0  0  0  0  0  0  0  0
   -1.6417    1.6929    0.2672 O   0  0  0  0  0  0  0  0  0  0  0  0
    0.1224    1.8798    1.6559 N   0  0  0  0  0  0  0  0  0  0  0  0
    1.0806    1.5492    1.7933 H   0  0  0  0  0  0  0  0  0  0  0  0
   -0.1688    3.2592    2.0244 C   0  0  0  0  0  0  0  0  0  0  0  0
   -1.1978    3.3518    2.3875 H   0  0  0  0  0  0  0  0  0  0  0  0
    0.5065    3.5855    2.8212 H   0  0  0  0  0  0  0  0  0  0  0  0
   -0.0365    3.9222    1.1631 H   0  0  0  0  0  0  0  0  0  0  0  0
  1  2  1  0  0  0  0
  2  3  1  0  0  0  0
  2  4  1  0  0  0  0
  2  5  1  0  0  0  0
  5  6  2  0  0  0  0
  5  7  1  0  0  0  0
  7  8  1  0  0  0  0
  7  9  1  0  0  0  0
  9 10  1  0  0  0  0
  9 11  1  0  0  0  0
  9 22  1  0  0  0  0
 11 12  1  0  0  0  0
 11 13  1  0  0  0  0
 11 14  1  0  0  0  0
 14 15  1  0  0  0  0
 14 16  1  0  0  0  0
 14 17  1  0  0  0  0
 17 18  2  0  0  0  0
 17 19  1  0  0  0  0
 19 20  1  0  0  0  0
 19 21  1  0  0  0  0
 22 23  2  0  0  0  0
 22 24  1  0  0  0  0
 24 25  1  0  0  0  0
 24 26  1  0  0  0  0
 26 27  1  0  0  0  0
 26 28  1  0  0  0  0
 26 29  1  0  0  0  0
M  END
$$$$

  -OEChem-04042215583D

 29 28  0     1  0  0  0  0  0999 V2000
   -2.8996   -3.9655    1.3705 H   0  0  0  0  0  0  0  0  0  0  0  0
   -2.9896   -2.9847    0.8953 C   0  0  0  0  0  0  0  0  0  0  0  0
   -3.6490   -2.3593    1.5021 H   0  0  0  0  0  0  0  0  0  0  0  0
   -3.4302   -3.1123   -0.0964 H   0  0  0  0  0  0  0  0  0  0  0  0
   -1.6244   -2.3344    0.7757 C   0  0  0  0  0  0  0  0  0  0  0  0
   -0.6235   -2.9401    1.1315 O   0  0  0  0  0  0  0  0  0  0  0  0
   -1.5099   -1.0717    0.2307 N   0  0  0  0  0  0  0  0  0  0  0  0
   -2.3772   -0.5710    0.0380 H   0  0  0  0  0  0  0  0  0  0  0  0
   -0.2911   -0.2548    0.3121 C   0  0  1  0  0  0  0  0  0  0  0  0
    0.3029   -0.6589    1.1340 H   0  0  0  0  0  0  0  0  0  0  0  0
    0.4782   -0.3445   -1.0260 C   0  0  0  0  0  0  0  0  0  0  0  0
    0.2790   -1.3345   -1.4505 H   0  0  0  0  0  0  0  0  0  0  0  0
    0.0720    0.3881   -1.7323 H   0  0  0  0  0  0  0  0  0  0  0  0
    2.0206   -0.1991   -0.9543 C   0  0  0  0  0  0  0  0  0  0  0  0
    2.4842   -0.9251   -1.6282 H   0  0  0  0  0  0  0  0  0  0  0  0
    2.2878    0.7958   -1.3232 H   0  0  0  0  0  0  0  0  0  0  0  0
    2.6447   -0.3432    0.4306 C   0  0  0  0  0  0  0  0  0  0  0  0
    2.7429    0.6047    1.1896 O   0  0  0  0  0  0  0  0  0  0  0  0
    2.9474   -1.5667    0.9544 N   0  0  0  0  0  0  0  0  0  0  0  0
    3.0994   -1.5836    1.9587 H   0  0  0  0  0  0  0  0  0  0  0  0
    2.5486   -2.3856    0.5033 H   0  0  0  0  0  0  0  0  0  0  0  0
   -0.6077    1.2065    0.6914 C   0  0  0  0  0  0  0  0  0  0  0  0
   -1.6166    1.7355    0.2370 O   0  0  0  0  0  0  0  0  0  0  0  0
    0.1444    1.8667    1.6433 N   0  0  0  0  0  0  0  0  0  0  0  0
    1.0660    1.4677    1.8432 H   0  0  0  0  0  0  0  0  0  0  0  0
   -0.0972    3.2529    2.0205 C   0  0  0  0  0  0  0  0  0  0  0  0
   -1.1234    3.3807    2.3807 H   0  0  0  0  0  0  0  0  0  0  0  0
    0.5869    3.5491    2.8217 H   0  0  0  0  0  0  0  0  0  0  0  0
    0.0620    3.9158    1.1639 H   0  0  0  0  0  0  0  0  0  0  0  0
  1  2  1  0  0  0  0
  2  3  1  0  0  0  0
  2  4  1  0  0  0  0
  2  5  1  0  0  0  0
  5  6  2  0  0  0  0
  5  7  1  0  0  0  0
  7  8  1  0  0  0  0
  7  9  1  0  0  0  0
  9 10  1  0  0  0  0
  9 11  1  0  0  0  0
  9 22  1  0  0  0  0
 11 12  1  0  0  0  0
 11 13  1  0  0  0  0
 11 14  1  0  0  0  0
 14 15  1  0  0  0  0
 14 16  1  0  0  0  0
 14 17  1  0  0  0  0
 17 18  2  0  0  0  0
 17 19  1  0  0  0  0
 19 20  1  0  0  0  0
 19 21  1  0  0  0  0
 22 23  2  0  0  0  0
 22 24  1  0  0  0  0
 24 25  1  0  0  0  0
 24 26  1  0  0  0  0
 26 27  1  0  0  0  0
 26 28  1  0  0  0  0
 26 29  1  0  0  0  0
M  END
$$$$

  -OEChem-04042215583D

 29 28  0     1  0  0  0  0  0999 V2000
   -2.8463   -4.0043    1.3610 H   0  0  0  0  0  0  0  0  0  0  0  0
   -2.9577   -3.0272    0.8825 C   0  0  0  0  0  0  0  0  0  0  0  0
   -3.6203   -2.4098    1.4940 H   0  0  0  0  0  0  0  0  0  0  0  0
   -3.4075   -3.1662   -0.1035 H   0  0  0  0  0  0  0  0  0  0  0  0
   -1.6050   -2.3547    0.7448 C   0  0  0  0  0  0  0  0  0  0  0  0
   -0.5877   -2.9507    1.0701 O   0  0  0  0  0  0  0  0  0  0  0  0
   -1.5190   -1.0877    0.2035 N   0  0  0  0  0  0  0  0  0  0  0  0
   -2.3977   -0.6050    0.0195 H   0  0  0  0  0  0  0  0  0  0  0  0
   -0.3170   -0.2460    0.2811 C   0  0  1  0  0  0  0  0  0  0  0  0
    0.2561   -0.6412    1.1211 H   0  0  0  0  0  0  0  0  0  0  0  0
    0.4918   -0.3629   -1.0296 C   0  0  0  0  0  0  0  0  0  0  0  0
    0.3332   -1.3711   -1.4271 H   0  0  0  0  0  0  0  0  0  0  0  0
    0.0971    0.3389   -1.7726 H   0  0  0  0  0  0  0  0  0  0  0  0
    2.0213   -0.1732   -0.8874 C   0  0  0  0  0  0  0  0  0  0  0  0
    2.5311   -0.7145   -1.6892 H   0  0  0  0  0  0  0  0  0  0  0  0
    2.2503    0.8889   -1.0187 H   0  0  0  0  0  0  0  0  0  0  0  0
    2.6081   -0.6029    0.4531 C   0  0  0  0  0  0  0  0  0  0  0  0
    2.7568    0.2058    1.3533 O   0  0  0  0  0  0  0  0  0  0  0  0
    2.7833   -1.9160    0.7803 N   0  0  0  0  0  0  0  0  0  0  0  0
    2.8881   -2.0955    1.7748 H   0  0  0  0  0  0  0  0  0  0  0  0
    2.2952   -2.6047    0.2144 H   0  0  0  0  0  0  0  0  0  0  0  0
   -0.5986    1.2173    0.6622 C   0  0  0  0  0  0  0  0  0  0  0  0
   -1.5899    1.7793    0.2115 O   0  0  0  0  0  0  0  0  0  0  0  0
    0.1924    1.8457    1.6048 N   0  0  0  0  0  0  0  0  0  0  0  0
    1.0700    1.3801    1.8523 H   0  0  0  0  0  0  0  0  0  0  0  0
    0.0010    3.2310    2.0110 C   0  0  0  0  0  0  0  0  0  0  0  0
   -1.0126    3.3813    2.3972 H   0  0  0  0  0  0  0  0  0  0  0  0
    0.7119    3.4931    2.8005 H   0  0  0  0  0  0  0  0  0  0  0  0
    0.1594    3.9042    1.1623 H   0  0  0  0  0  0  0  0  0  0  0  0
  1  2  1  0  0  0  0
  2  3  1  0  0  0  0
  2  4  1  0  0  0  0
  2  5  1  0  0  0  0
  5  6  2  0  0  0  0
  5  7  1  0  0  0  0
  7  8  1  0  0  0  0
  7  9  1  0  0  0  0
  9 10  1  0  0  0  0
  9 11  1  0  0  0  0
  9 22  1  0  0  0  0
 11 12  1  0  0  0  0
 11 13  1  0  0  0  0
 11 14  1  0  0  0  0
 14 15  1  0  0  0  0
 14 16  1  0  0  0  0
 14 17  1  0  0  0  0
 17 18  2  0  0  0  0
 17 19  1  0  0  0  0
 19 20  1  0  0  0  0
 19 21  1  0  0  0  0
 22 23  2  0  0  0  0
 22 24  1  0  0  0  0
 24 25  1  0  0  0  0
 24 26  1  0  0  0  0
 26 27  1  0  0  0  0
 26 28  1  0  0  0  0
 26 29  1  0  0  0  0
M  END
$$$$

  -OEChem-04042215583D

 29 28  0     1  0  0  0  0  0999 V2000
   -3.3968   -3.7484    1.4698 H   0  0  0  0  0  0  0  0  0  0  0  0
   -3.3429   -2.8089    0.9125 C   0  0  0  0  0  0  0  0  0  0  0  0
   -4.0467   -2.0977    1.3513 H   0  0  0  0  0  0  0  0  0  0  0  0
   -3.6260   -2.9985   -0.1256 H   0  0  0  0  0  0  0  0  0  0  0  0
   -1.9346   -2.2479    0.9701 C   0  0  0  0  0  0  0  0  0  0  0  0
   -1.0675   -2.8460    1.5842 O   0  0  0  0  0  0  0  0  0  0  0  0
   -1.6543   -1.0436    0.3569 N   0  0  0  0  0  0  0  0  0  0  0  0
   -2.4345   -0.5407   -0.0620 H   0  0  0  0  0  0  0  0  0  0  0  0
   -0.3401   -0.3841    0.3363 C   0  0  1  0  0  0  0  0  0  0  0  0
    0.2792   -0.8330    1.1170 H   0  0  0  0  0  0  0  0  0  0  0  0
    0.2977   -0.6066   -1.0564 C   0  0  0  0  0  0  0  0  0  0  0  0
   -0.0481   -1.5773   -1.4303 H   0  0  0  0  0  0  0  0  0  0  0  0
   -0.0637    0.1525   -1.7589 H   0  0  0  0  0  0  0  0  0  0  0  0
    1.8405   -0.6545   -1.0901 C   0  0  0  0  0  0  0  0  0  0  0  0
    2.1643   -1.0391   -2.0616 H   0  0  0  0  0  0  0  0  0  0  0  0
    2.2225    0.3660   -1.0016 H   0  0  0  0  0  0  0  0  0  0  0  0
    2.4852   -1.5009    0.0001 C   0  0  0  0  0  0  0  0  0  0  0  0
    2.5189   -2.7122   -0.0658 O   0  0  0  0  0  0  0  0  0  0  0  0
    3.0859   -0.9360    1.0900 N   0  0  0  0  0  0  0  0  0  0  0  0
    3.6366   -1.5819    1.6500 H   0  0  0  0  0  0  0  0  0  0  0  0
    3.3653    0.0367    1.0286 H   0  0  0  0  0  0  0  0  0  0  0  0
   -0.4389    1.1208    0.6420 C   0  0  0  0  0  0  0  0  0  0  0  0
   -1.2959    1.8042    0.0950 O   0  0  0  0  0  0  0  0  0  0  0  0
    0.4508    1.7067    1.5234 N   0  0  0  0  0  0  0  0  0  0  0  0
    1.0387    1.0793    2.0659 H   0  0  0  0  0  0  0  0  0  0  0  0
    0.3606    3.1051    1.9261 C   0  0  0  0  0  0  0  0  0  0  0  0
   -0.5781    3.2904    2.4587 H   0  0  0  0  0  0  0  0  0  0  0  0
    1.1929    3.3623    2.5882 H   0  0  0  0  0  0  0  0  0  0  0  0
    0.4038    3.7609    1.0500 H   0  0  0  0  0  0  0  0  0  0  0  0
  1  2  1  0  0  0  0
  2  3  1  0  0  0  0
  2  4  1  0  0  0  0
  2  5  1  0  0  0  0
  5  6  2  0  0  0  0
  5  7  1  0  0  0  0
  7  8  1  0  0  0  0
  7  9  1  0  0  0  0
  9 10  1  0  0  0  0
  9 11  1  0  0  0  0
  9 22  1  0  0  0  0
 11 12  1  0  0  0  0
 11 13  1  0  0  0  0
 11 14  1  0  0  0  0
 14 15  1  0  0  0  0
 14 16  1  0  0  0  0
 14 17  1  0  0  0  0
 17 18  2  0  0  0  0
 17 19  1  0  0  0  0
 19 20  1  0  0  0  0
 19 21  1  0  0  0  0
 22 23  2  0  0  0  0
 22 24  1  0  0  0  0
 24 25  1  0  0  0  0
 24 26  1  0  0  0  0
 26 27  1  0  0  0  0
 26 28  1  0  0  0  0
 26 29  1  0  0  0  0
M  END
$$$$

  -OEChem-04042215583D

 29 28  0     1  0  0  0  0  0999 V2000
   -3.2718   -3.8104    1.4784 H   0  0  0  0  0  0  0  0  0  0  0  0
   -3.2553   -2.8618    0.9343 C   0  0  0  0  0  0  0  0  0  0  0  0
   -3.9706   -2.1777    1.3969 H   0  0  0  0  0  0  0  0  0  0  0  0
   -3.5523   -3.0450   -0.1011 H   0  0  0  0  0  0  0  0  0  0  0  0
   -1.8626   -2.2615    0.9742 C   0  0  0  0  0  0  0  0  0  0  0  0
   -0.9705   -2.8353    1.5768 O   0  0  0  0  0  0  0  0  0  0  0  0
   -1.6246   -1.0451    0.3667 N   0  0  0  0  0  0  0  0  0  0  0  0
   -2.4212   -0.5603   -0.0423 H   0  0  0  0  0  0  0  0  0  0  0  0
   -0.3231   -0.3635    0.3227 C   0  0  1  0  0  0  0  0  0  0  0  0
    0.3366   -0.8077    1.0735 H   0  0  0  0  0  0  0  0  0  0  0  0
    0.2770   -0.5485   -1.0901 C   0  0  0  0  0  0  0  0  0  0  0  0
   -0.0681   -1.5063   -1.4970 H   0  0  0  0  0  0  0  0  0  0  0  0
   -0.0967    0.2357   -1.7577 H   0  0  0  0  0  0  0  0  0  0  0  0
    1.8171   -0.5671   -1.1234 C   0  0  0  0  0  0  0  0  0  0  0  0
    2.1510   -0.6894   -2.1577 H   0  0  0  0  0  0  0  0  0  0  0  0
    2.1995    0.3932   -0.7673 H   0  0  0  0  0  0  0  0  0  0  0  0
    2.4270   -1.6901   -0.2924 C   0  0  0  0  0  0  0  0  0  0  0  0
    2.3411   -2.8522   -0.6346 O   0  0  0  0  0  0  0  0  0  0  0  0
    3.1240   -1.4471    0.8573 N   0  0  0  0  0  0  0  0  0  0  0  0
    3.6177   -2.2495    1.2397 H   0  0  0  0  0  0  0  0  0  0  0  0
    3.4720   -0.5108    1.0281 H   0  0  0  0  0  0  0  0  0  0  0  0
   -0.4576    1.1354    0.6512 C   0  0  0  0  0  0  0  0  0  0  0  0
   -1.3459    1.8002    0.1312 O   0  0  0  0  0  0  0  0  0  0  0  0
    0.4314    1.7401    1.5205 N   0  0  0  0  0  0  0  0  0  0  0  0
    1.0538    1.1292    2.0417 H   0  0  0  0  0  0  0  0  0  0  0  0
    0.3104    3.1331    1.9339 C   0  0  0  0  0  0  0  0  0  0  0  0
   -0.6320    3.2941    2.4680 H   0  0  0  0  0  0  0  0  0  0  0  0
    1.1367    3.4034    2.5984 H   0  0  0  0  0  0  0  0  0  0  0  0
    0.3389    3.7961    1.0627 H   0  0  0  0  0  0  0  0  0  0  0  0
  1  2  1  0  0  0  0
  2  3  1  0  0  0  0
  2  4  1  0  0  0  0
  2  5  1  0  0  0  0
  5  6  2  0  0  0  0
  5  7  1  0  0  0  0
  7  8  1  0  0  0  0
  7  9  1  0  0  0  0
  9 10  1  0  0  0  0
  9 11  1  0  0  0  0
  9 22  1  0  0  0  0
 11 12  1  0  0  0  0
 11 13  1  0  0  0  0
 11 14  1  0  0  0  0
 14 15  1  0  0  0  0
 14 16  1  0  0  0  0
 14 17  1  0  0  0  0
 17 18  2  0  0  0  0
 17 19  1  0  0  0  0
 19 20  1  0  0  0  0
 19 21  1  0  0  0  0
 22 23  2  0  0  0  0
 22 24  1  0  0  0  0
 24 25  1  0  0  0  0
 24 26  1  0  0  0  0
 26 27  1  0  0  0  0
 26 28  1  0  0  0  0
 26 29  1  0  0  0  0
M  END
$$$$

  -OEChem-04042215583D

 29 28  0     1  0  0  0  0  0999 V2000
   -3.1353   -3.8441    1.5267 H   0  0  0  0  0  0  0  0  0  0  0  0
   -3.1500   -2.9032    0.9693 C   0  0  0  0  0  0  0  0  0  0  0  0
   -3.8637   -2.2246    1.4426 H   0  0  0  0  0  0  0  0  0  0  0  0
   -3.4733   -3.1059   -0.0547 H   0  0  0  0  0  0  0  0  0  0  0  0
   -1.7676   -2.2785    0.9611 C   0  0  0  0  0  0  0  0  0  0  0  0
   -0.8378   -2.8471    1.5106 O   0  0  0  0  0  0  0  0  0  0  0  0
   -1.5751   -1.0496    0.3631 N   0  0  0  0  0  0  0  0  0  0  0  0
   -2.3955   -0.5684   -0.0016 H   0  0  0  0  0  0  0  0  0  0  0  0
   -0.2904   -0.3402    0.2989 C   0  0  1  0  0  0  0  0  0  0  0  0
    0.4030   -0.7772    1.0238 H   0  0  0  0  0  0  0  0  0  0  0  0
    0.2783   -0.4981   -1.1275 C   0  0  0  0  0  0  0  0  0  0  0  0
   -0.0645   -1.4461   -1.5589 H   0  0  0  0  0  0  0  0  0  0  0  0
   -0.1122    0.3014   -1.7669 H   0  0  0  0  0  0  0  0  0  0  0  0
    1.8170   -0.4826   -1.1641 C   0  0  0  0  0  0  0  0  0  0  0  0
    2.1479   -0.3429   -2.1973 H   0  0  0  0  0  0  0  0  0  0  0  0
    2.2038    0.3567   -0.5804 H   0  0  0  0  0  0  0  0  0  0  0  0
    2.4118   -1.7924   -0.6573 C   0  0  0  0  0  0  0  0  0  0  0  0
    2.3712   -2.8059   -1.3268 O   0  0  0  0  0  0  0  0  0  0  0  0
    3.0250   -1.8967    0.5587 N   0  0  0  0  0  0  0  0  0  0  0  0
    3.4604   -2.7900    0.7722 H   0  0  0  0  0  0  0  0  0  0  0  0
    3.2545   -1.0656    1.0898 H   0  0  0  0  0  0  0  0  0  0  0  0
   -0.4627    1.1506    0.6517 C   0  0  0  0  0  0  0  0  0  0  0  0
   -1.3895    1.7893    0.1675 O   0  0  0  0  0  0  0  0  0  0  0  0
    0.4219    1.7768    1.5106 N   0  0  0  0  0  0  0  0  0  0  0  0
    1.0915    1.1893    1.9982 H   0  0  0  0  0  0  0  0  0  0  0  0
    0.2628    3.1614    1.9397 C   0  0  0  0  0  0  0  0  0  0  0  0
   -0.6759    3.2871    2.4895 H   0  0  0  0  0  0  0  0  0  0  0  0
    1.0900    3.4522    2.5944 H   0  0  0  0  0  0  0  0  0  0  0  0
    0.2566    3.8326    1.0743 H   0  0  0  0  0  0  0  0  0  0  0  0
  1  2  1  0  0  0  0
  2  3  1  0  0  0  0
  2  4  1  0  0  0  0
  2  5  1  0  0  0  0
  5  6  2  0  0  0  0
  5  7  1  0  0  0  0
  7  8  1  0  0  0  0
  7  9  1  0  0  0  0
  9 10  1  0  0  0  0
  9 11  1  0  0  0  0
  9 22  1  0  0  0  0
 11 12  1  0  0  0  0
 11 13  1  0  0  0  0
 11 14  1  0  0  0  0
 14 15  1  0  0  0  0
 14 16  1  0  0  0  0
 14 17  1  0  0  0  0
 17 18  2  0  0  0  0
 17 19  1  0  0  0  0
 19 20  1  0  0  0  0
 19 21  1  0  0  0  0
 22 23  2  0  0  0  0
 22 24  1  0  0  0  0
 24 25  1  0  0  0  0
 24 26  1  0  0  0  0
 26 27  1  0  0  0  0
 26 28  1  0  0  0  0
 26 29  1  0  0  0  0
M  END
$$$$

  -OEChem-04042215583D

 29 28  0     1  0  0  0  0  0999 V2000
   -2.7566   -3.8956    1.7201 H   0  0  0  0  0  0  0  0  0  0  0  0
   -2.8797   -2.9487    1.1870 C   0  0  0  0  0  0  0  0  0  0  0  0
   -3.5075   -2.2863    1.7881 H   0  0  0  0  0  0  0  0  0  0  0  0
   -3.3761   -3.1431    0.2331 H   0  0  0  0  0  0  0  0  0  0  0  0
   -1.5277   -2.3049    0.9453 C   0  0  0  0  0  0  0  0  0  0  0  0
   -0.4989   -2.8922    1.2473 O   0  0  0  0  0  0  0  0  0  0  0  0
   -1.4449   -1.0662    0.3451 N   0  0  0  0  0  0  0  0  0  0  0  0
   -2.3200   -0.5714    0.1719 H   0  0  0  0  0  0  0  0  0  0  0  0
   -0.2099   -0.2751    0.2626 C   0  0  1  0  0  0  0  0  0  0  0  0
    0.5045   -0.6525    1.0011 H   0  0  0  0  0  0  0  0  0  0  0  0
    0.3818   -0.4423   -1.1485 C   0  0  0  0  0  0  0  0  0  0  0  0
    0.1004   -1.4134   -1.5719 H   0  0  0  0  0  0  0  0  0  0  0  0
   -0.0435    0.3252   -1.8048 H   0  0  0  0  0  0  0  0  0  0  0  0
    1.9155   -0.3200   -1.1404 C   0  0  0  0  0  0  0  0  0  0  0  0
    2.2362    0.0676   -2.1121 H   0  0  0  0  0  0  0  0  0  0  0  0
    2.2460    0.3917   -0.3795 H   0  0  0  0  0  0  0  0  0  0  0  0
    2.6196   -1.6593   -0.9242 C   0  0  0  0  0  0  0  0  0  0  0  0
    3.6545   -1.9181   -1.5071 O   0  0  0  0  0  0  0  0  0  0  0  0
    2.2037   -2.5927   -0.0157 N   0  0  0  0  0  0  0  0  0  0  0  0
    2.6855   -3.4859   -0.0453 H   0  0  0  0  0  0  0  0  0  0  0  0
    1.2557   -2.5486    0.3641 H   0  0  0  0  0  0  0  0  0  0  0  0
   -0.4627    1.2033    0.6194 C   0  0  0  0  0  0  0  0  0  0  0  0
   -1.4714    1.7594    0.2029 O   0  0  0  0  0  0  0  0  0  0  0  0
    0.3965    1.8838    1.4622 N   0  0  0  0  0  0  0  0  0  0  0  0
    1.1898    1.3751    1.8426 H   0  0  0  0  0  0  0  0  0  0  0  0
    0.1756    3.2612    1.8858 C   0  0  0  0  0  0  0  0  0  0  0  0
   -0.7456    3.3379    2.4729 H   0  0  0  0  0  0  0  0  0  0  0  0
    1.0102    3.6054    2.5042 H   0  0  0  0  0  0  0  0  0  0  0  0
    0.0963    3.9223    1.0162 H   0  0  0  0  0  0  0  0  0  0  0  0
  1  2  1  0  0  0  0
  2  3  1  0  0  0  0
  2  4  1  0  0  0  0
  2  5  1  0  0  0  0
  5  6  2  0  0  0  0
  5  7  1  0  0  0  0
  7  8  1  0  0  0  0
  7  9  1  0  0  0  0
  9 10  1  0  0  0  0
  9 11  1  0  0  0  0
  9 22  1  0  0  0  0
 11 12  1  0  0  0  0
 11 13  1  0  0  0  0
 11 14  1  0  0  0  0
 14 15  1  0  0  0  0
 14 16  1  0  0  0  0
 14 17  1  0  0  0  0
 17 18  2  0  0  0  0
 17 19  1  0  0  0  0
 19 20  1  0  0  0  0
 19 21  1  0  0  0  0
 22 23  2  0  0  0  0
 22 24  1  0  0  0  0
 24 25  1  0  0  0  0
 24 26  1  0  0  0  0
 26 27  1  0  0  0  0
 26 28  1  0  0  0  0
 26 29  1  0  0  0  0
M  END
$$$$

  -OEChem-04042215583D

 29 28  0     1  0  0  0  0  0999 V2000
   -2.6677   -3.9476    1.6500 H   0  0  0  0  0  0  0  0  0  0  0  0
   -2.8193   -2.9953    1.1340 C   0  0  0  0  0  0  0  0  0  0  0  0
   -3.4488   -2.3546    1.7564 H   0  0  0  0  0  0  0  0  0  0  0  0
   -3.3293   -3.1845    0.1862 H   0  0  0  0  0  0  0  0  0  0  0  0
   -1.4851   -2.3209    0.8779 C   0  0  0  0  0  0  0  0  0  0  0  0
   -0.4376   -2.8981    1.1381 O   0  0  0  0  0  0  0  0  0  0  0  0
   -1.4381   -1.0723    0.2929 N   0  0  0  0  0  0  0  0  0  0  0  0
   -2.3243   -0.5892    0.1462 H   0  0  0  0  0  0  0  0  0  0  0  0
   -0.2196   -0.2551    0.2419 C   0  0  1  0  0  0  0  0  0  0  0  0
    0.4837   -0.6307    0.9922 H   0  0  0  0  0  0  0  0  0  0  0  0
    0.4048   -0.4190   -1.1525 C   0  0  0  0  0  0  0  0  0  0  0  0
    0.1423   -1.3940   -1.5800 H   0  0  0  0  0  0  0  0  0  0  0  0
   -0.0151    0.3398   -1.8225 H   0  0  0  0  0  0  0  0  0  0  0  0
    1.9357   -0.2657   -1.0936 C   0  0  0  0  0  0  0  0  0  0  0  0
    2.2617    0.3568   -1.9325 H   0  0  0  0  0  0  0  0  0  0  0  0
    2.2601    0.2295   -0.1749 H   0  0  0  0  0  0  0  0  0  0  0  0
    2.6248   -1.6218   -1.2147 C   0  0  0  0  0  0  0  0  0  0  0  0
    3.5332   -1.8052   -2.0012 O   0  0  0  0  0  0  0  0  0  0  0  0
    2.3023   -2.6728   -0.4000 N   0  0  0  0  0  0  0  0  0  0  0  0
    2.7170   -3.5672   -0.6425 H   0  0  0  0  0  0  0  0  0  0  0  0
    1.4281   -2.6500    0.1287 H   0  0  0  0  0  0  0  0  0  0  0  0
   -0.4988    1.2146    0.6141 C   0  0  0  0  0  0  0  0  0  0  0  0
   -1.5145    1.7581    0.1985 O   0  0  0  0  0  0  0  0  0  0  0  0
    0.3371    1.8977    1.4781 N   0  0  0  0  0  0  0  0  0  0  0  0
    1.1387    1.4005    1.8558 H   0  0  0  0  0  0  0  0  0  0  0  0
    0.0908    3.2680    1.9116 C   0  0  0  0  0  0  0  0  0  0  0  0
   -0.8394    3.3265    2.4864 H   0  0  0  0  0  0  0  0  0  0  0  0
    0.9121    3.6181    2.5444 H   0  0  0  0  0  0  0  0  0  0  0  0
    0.0138    3.9362    1.0472 H   0  0  0  0  0  0  0  0  0  0  0  0
  1  2  1  0  0  0  0
  2  3  1  0  0  0  0
  2  4  1  0  0  0  0
  2  5  1  0  0  0  0
  5  6  2  0  0  0  0
  5  7  1  0  0  0  0
  7  8  1  0  0  0  0
  7  9  1  0  0  0  0
  9 10  1  0  0  0  0
  9 11  1  0  0  0  0
  9 22  1  0  0  0  0
 11 12  1  0  0  0  0
 11 13  1  0  0  0  0
 11 14  1  0  0  0  0
 14 15  1  0  0  0  0
 14 16  1  0  0  0  0
 14 17  1  0  0  0  0
 17 18  2  0  0  0  0
 17 19  1  0  0  0  0
 19 20  1  0  0  0  0
 19 21  1  0  0  0  0
 22 23  2  0  0  0  0
 22 24  1  0  0  0  0
 24 25  1  0  0  0  0
 24 26  1  0  0  0  0
 26 27  1  0  0  0  0
 26 28  1  0  0  0  0
 26 29  1  0  0  0  0
M  END
$$$$

  -OEChem-04042215583D

 29 28  0     1  0  0  0  0  0999 V2000
   -2.6885   -3.9698    1.5712 H   0  0  0  0  0  0  0  0  0  0  0  0
   -2.8341   -3.0020    1.0835 C   0  0  0  0  0  0  0  0  0  0  0  0
   -3.4655   -2.3785    1.7210 H   0  0  0  0  0  0  0  0  0  0  0  0
   -3.3384   -3.1613    0.1274 H   0  0  0  0  0  0  0  0  0  0  0  0
   -1.4965   -2.3236    0.8572 C   0  0  0  0  0  0  0  0  0  0  0  0
   -0.4553   -2.8970    1.1472 O   0  0  0  0  0  0  0  0  0  0  0  0
   -1.4434   -1.0755    0.2710 N   0  0  0  0  0  0  0  0  0  0  0  0
   -2.3297   -0.6008    0.1003 H   0  0  0  0  0  0  0  0  0  0  0  0
   -0.2325   -0.2448    0.2481 C   0  0  1  0  0  0  0  0  0  0  0  0
    0.4500   -0.6152    1.0196 H   0  0  0  0  0  0  0  0  0  0  0  0
    0.4324   -0.4045   -1.1282 C   0  0  0  0  0  0  0  0  0  0  0  0
    0.1907   -1.3915   -1.5395 H   0  0  0  0  0  0  0  0  0  0  0  0
    0.0162    0.3328   -1.8241 H   0  0  0  0  0  0  0  0  0  0  0  0
    1.9630   -0.2334   -1.0413 C   0  0  0  0  0  0  0  0  0  0  0  0
    2.2691    0.6007   -1.6802 H   0  0  0  0  0  0  0  0  0  0  0  0
    2.2905   -0.0009   -0.0251 H   0  0  0  0  0  0  0  0  0  0  0  0
    2.6779   -1.4957   -1.5074 C   0  0  0  0  0  0  0  0  0  0  0  0
    3.4466   -1.4904   -2.4488 O   0  0  0  0  0  0  0  0  0  0  0  0
    2.5101   -2.6846   -0.8531 N   0  0  0  0  0  0  0  0  0  0  0  0
    2.8971   -3.5052   -1.3090 H   0  0  0  0  0  0  0  0  0  0  0  0
    1.7357   -2.7838   -0.1975 H   0  0  0  0  0  0  0  0  0  0  0  0
   -0.5333    1.2231    0.6081 C   0  0  0  0  0  0  0  0  0  0  0  0
   -1.5456    1.7549    0.1694 O   0  0  0  0  0  0  0  0  0  0  0  0
    0.2753    1.9159    1.4901 N   0  0  0  0  0  0  0  0  0  0  0  0
    1.0747    1.4285    1.8847 H   0  0  0  0  0  0  0  0  0  0  0  0
    0.0003    3.2811    1.9214 C   0  0  0  0  0  0  0  0  0  0  0  0
   -0.9509    3.3276    2.4619 H   0  0  0  0  0  0  0  0  0  0  0  0
    0.7939    3.6351    2.5863 H   0  0  0  0  0  0  0  0  0  0  0  0
   -0.0512    3.9531    1.0582 H   0  0  0  0  0  0  0  0  0  0  0  0
  1  2  1  0  0  0  0
  2  3  1  0  0  0  0
  2  4  1  0  0  0  0
  2  5  1  0  0  0  0
  5  6  2  0  0  0  0
  5  7  1  0  0  0  0
  7  8  1  0  0  0  0
  7  9  1  0  0  0  0
  9 10  1  0  0  0  0
  9 11  1  0  0  0  0
  9 22  1  0  0  0  0
 11 12  1  0  0  0  0
 11 13  1  0  0  0  0
 11 14  1  0  0  0  0
 14 15  1  0  0  0  0
 14 16  1  0  0  0  0
 14 17  1  0  0  0  0
 17 18  2  0  0  0  0
 17 19  1  0  0  0  0
 19 20  1  0  0  0  0
 19 21  1  0  0  0  0
 22 23  2  0  0  0  0
 22 24  1  0  0  0  0
 24 25  1  0  0  0  0
 24 26  1  0  0  0  0
 26 27  1  0  0  0  0
 26 28  1  0  0  0  0
 26 29  1  0  0  0  0
M  END
$$$$

  -OEChem-04042215583D

 29 28  0     1  0  0  0  0  0999 V2000
   -2.7743   -3.9869    1.4561 H   0  0  0  0  0  0  0  0  0  0  0  0
   -2.8894   -3.0080    0.9821 C   0  0  0  0  0  0  0  0  0  0  0  0
   -3.5639   -2.3998    1.5896 H   0  0  0  0  0  0  0  0  0  0  0  0
   -3.3281   -3.1464   -0.0092 H   0  0  0  0  0  0  0  0  0  0  0  0
   -1.5417   -2.3224    0.8602 C   0  0  0  0  0  0  0  0  0  0  0  0
   -0.5272   -2.8862    1.2437 O   0  0  0  0  0  0  0  0  0  0  0  0
   -1.4532   -1.0773    0.2725 N   0  0  0  0  0  0  0  0  0  0  0  0
   -2.3280   -0.6127    0.0303 H   0  0  0  0  0  0  0  0  0  0  0  0
   -0.2429   -0.2439    0.2841 C   0  0  1  0  0  0  0  0  0  0  0  0
    0.4175   -0.6117    1.0757 H   0  0  0  0  0  0  0  0  0  0  0  0
    0.4622   -0.3843   -1.0763 C   0  0  0  0  0  0  0  0  0  0  0  0
    0.2458   -1.3825   -1.4740 H   0  0  0  0  0  0  0  0  0  0  0  0
    0.0536    0.3355   -1.7946 H   0  0  0  0  0  0  0  0  0  0  0  0
    1.9911   -0.2093   -0.9637 C   0  0  0  0  0  0  0  0  0  0  0  0
    2.2754    0.7810   -1.3322 H   0  0  0  0  0  0  0  0  0  0  0  0
    2.3259   -0.2805    0.0741 H   0  0  0  0  0  0  0  0  0  0  0  0
    2.7270   -1.2793   -1.7591 C   0  0  0  0  0  0  0  0  0  0  0  0
    3.2901   -1.0286   -2.8065 O   0  0  0  0  0  0  0  0  0  0  0  0
    2.7778   -2.5750   -1.3286 N   0  0  0  0  0  0  0  0  0  0  0  0
    3.1325   -3.2538   -1.9957 H   0  0  0  0  0  0  0  0  0  0  0  0
    2.1503   -2.8699   -0.5846 H   0  0  0  0  0  0  0  0  0  0  0  0
   -0.5629    1.2246    0.6245 C   0  0  0  0  0  0  0  0  0  0  0  0
   -1.5614    1.7498    0.1472 O   0  0  0  0  0  0  0  0  0  0  0  0
    0.2122    1.9266    1.5288 N   0  0  0  0  0  0  0  0  0  0  0  0
    1.0033    1.4468    1.9482 H   0  0  0  0  0  0  0  0  0  0  0  0
   -0.0801    3.2950    1.9380 C   0  0  0  0  0  0  0  0  0  0  0  0
   -1.0441    3.3418    2.4553 H   0  0  0  0  0  0  0  0  0  0  0  0
    0.6956    3.6611    2.6175 H   0  0  0  0  0  0  0  0  0  0  0  0
   -0.1148    3.9573    1.0664 H   0  0  0  0  0  0  0  0  0  0  0  0
  1  2  1  0  0  0  0
  2  3  1  0  0  0  0
  2  4  1  0  0  0  0
  2  5  1  0  0  0  0
  5  6  2  0  0  0  0
  5  7  1  0  0  0  0
  7  8  1  0  0  0  0
  7  9  1  0  0  0  0
  9 10  1  0  0  0  0
  9 11  1  0  0  0  0
  9 22  1  0  0  0  0
 11 12  1  0  0  0  0
 11 13  1  0  0  0  0
 11 14  1  0  0  0  0
 14 15  1  0  0  0  0
 14 16  1  0  0  0  0
 14 17  1  0  0  0  0
 17 18  2  0  0  0  0
 17 19  1  0  0  0  0
 19 20  1  0  0  0  0
 19 21  1  0  0  0  0
 22 23  2  0  0  0  0
 22 24  1  0  0  0  0
 24 25  1  0  0  0  0
 24 26  1  0  0  0  0
 26 27  1  0  0  0  0
 26 28  1  0  0  0  0
 26 29  1  0  0  0  0
M  END
$$$$

  -OEChem-04042215583D

 29 28  0     1  0  0  0  0  0999 V2000
   -2.8452   -3.9678    1.4091 H   0  0  0  0  0  0  0  0  0  0  0  0
   -2.9360   -2.9929    0.9218 C   0  0  0  0  0  0  0  0  0  0  0  0
   -3.6352   -2.3775    1.4933 H   0  0  0  0  0  0  0  0  0  0  0  0
   -3.3303   -3.1391   -0.0869 H   0  0  0  0  0  0  0  0  0  0  0  0
   -1.5817   -2.3125    0.8550 C   0  0  0  0  0  0  0  0  0  0  0  0
   -0.5902   -2.8732    1.2972 O   0  0  0  0  0  0  0  0  0  0  0  0
   -1.4650   -1.0706    0.2658 N   0  0  0  0  0  0  0  0  0  0  0  0
   -2.3268   -0.6056   -0.0181 H   0  0  0  0  0  0  0  0  0  0  0  0
   -0.2518   -0.2426    0.3074 C   0  0  1  0  0  0  0  0  0  0  0  0
    0.3901   -0.6083    1.1148 H   0  0  0  0  0  0  0  0  0  0  0  0
    0.4859   -0.3779   -1.0364 C   0  0  0  0  0  0  0  0  0  0  0  0
    0.2882   -1.3809   -1.4316 H   0  0  0  0  0  0  0  0  0  0  0  0
    0.0950    0.3374   -1.7693 H   0  0  0  0  0  0  0  0  0  0  0  0
    2.0090   -0.2079   -0.8820 C   0  0  0  0  0  0  0  0  0  0  0  0
    2.2774    0.8495   -0.9669 H   0  0  0  0  0  0  0  0  0  0  0  0
    2.3411   -0.5578    0.0991 H   0  0  0  0  0  0  0  0  0  0  0  0
    2.7586   -1.0164   -1.9322 C   0  0  0  0  0  0  0  0  0  0  0  0
    3.1651   -0.5099   -2.9593 O   0  0  0  0  0  0  0  0  0  0  0  0
    2.9797   -2.3560   -1.7825 N   0  0  0  0  0  0  0  0  0  0  0  0
    3.3227   -2.8474   -2.6028 H   0  0  0  0  0  0  0  0  0  0  0  0
    2.4809   -2.8590   -1.0547 H   0  0  0  0  0  0  0  0  0  0  0  0
   -0.5814    1.2273    0.6322 C   0  0  0  0  0  0  0  0  0  0  0  0
   -1.5649    1.7513    0.1235 O   0  0  0  0  0  0  0  0  0  0  0  0
    0.1674    1.9330    1.5556 N   0  0  0  0  0  0  0  0  0  0  0  0
    0.9421    1.4527    2.0041 H   0  0  0  0  0  0  0  0  0  0  0  0
   -0.1373    3.3028    1.9511 C   0  0  0  0  0  0  0  0  0  0  0  0
   -1.1140    3.3510    2.4439 H   0  0  0  0  0  0  0  0  0  0  0  0
    0.6208    3.6735    2.6477 H   0  0  0  0  0  0  0  0  0  0  0  0
   -0.1511    3.9607    1.0758 H   0  0  0  0  0  0  0  0  0  0  0  0
  1  2  1  0  0  0  0
  2  3  1  0  0  0  0
  2  4  1  0  0  0  0
  2  5  1  0  0  0  0
  5  6  2  0  0  0  0
  5  7  1  0  0  0  0
  7  8  1  0  0  0  0
  7  9  1  0  0  0  0
  9 10  1  0  0  0  0
  9 11  1  0  0  0  0
  9 22  1  0  0  0  0
 11 12  1  0  0  0  0
 11 13  1  0  0  0  0
 11 14  1  0  0  0  0
 14 15  1  0  0  0  0
 14 16  1  0  0  0  0
 14 17  1  0  0  0  0
 17 18  2  0  0  0  0
 17 19  1  0  0  0  0
 19 20  1  0  0  0  0
 19 21  1  0  0  0  0
 22 23  2  0  0  0  0
 22 24  1  0  0  0  0
 24 25  1  0  0  0  0
 24 26  1  0  0  0  0
 26 27  1  0  0  0  0
 26 28  1  0  0  0  0
 26 29  1  0  0  0  0
M  END
$$$$

  -OEChem-04042215583D

 29 28  0     1  0  0  0  0  0999 V2000
   -3.2054   -3.8602    1.3699 H   0  0  0  0  0  0  0  0  0  0  0  0
   -3.2217   -2.8855    0.8742 C   0  0  0  0  0  0  0  0  0  0  0  0
   -3.9290   -2.2364    1.3963 H   0  0  0  0  0  0  0  0  0  0  0  0
   -3.5546   -3.0211   -0.1578 H   0  0  0  0  0  0  0  0  0  0  0  0
   -1.8376   -2.2648    0.8936 C   0  0  0  0  0  0  0  0  0  0  0  0
   -0.9099   -2.8545    1.4264 O   0  0  0  0  0  0  0  0  0  0  0  0
   -1.6314   -1.0339    0.3054 N   0  0  0  0  0  0  0  0  0  0  0  0
   -2.4473   -0.5431   -0.0579 H   0  0  0  0  0  0  0  0  0  0  0  0
   -0.3619   -0.2945    0.3284 C   0  0  1  0  0  0  0  0  0  0  0  0
    0.2735   -0.7100    1.1167 H   0  0  0  0  0  0  0  0  0  0  0  0
    0.3356   -0.4679   -1.0335 C   0  0  0  0  0  0  0  0  0  0  0  0
    0.0684   -1.4512   -1.4380 H   0  0  0  0  0  0  0  0  0  0  0  0
   -0.0201    0.2830   -1.7488 H   0  0  0  0  0  0  0  0  0  0  0  0
    1.8701   -0.4071   -0.9069 C   0  0  0  0  0  0  0  0  0  0  0  0
    2.1875    0.6226   -0.7213 H   0  0  0  0  0  0  0  0  0  0  0  0
    2.1896   -1.0202   -0.0596 H   0  0  0  0  0  0  0  0  0  0  0  0
    2.5815   -0.9301   -2.1534 C   0  0  0  0  0  0  0  0  0  0  0  0
    2.0501   -0.9839   -3.2464 O   0  0  0  0  0  0  0  0  0  0  0  0
    3.8713   -1.3751   -2.1024 N   0  0  0  0  0  0  0  0  0  0  0  0
    4.2044   -1.8597   -2.9310 H   0  0  0  0  0  0  0  0  0  0  0  0
    4.2940   -1.5582   -1.1989 H   0  0  0  0  0  0  0  0  0  0  0  0
   -0.5797    1.1950    0.6586 C   0  0  0  0  0  0  0  0  0  0  0  0
   -1.5151    1.8019    0.1509 O   0  0  0  0  0  0  0  0  0  0  0  0
    0.2356    1.8382    1.5718 N   0  0  0  0  0  0  0  0  0  0  0  0
    0.9427    1.2824    2.0439 H   0  0  0  0  0  0  0  0  0  0  0  0
    0.0283    3.2188    1.9920 C   0  0  0  0  0  0  0  0  0  0  0  0
   -0.9405    3.3258    2.4912 H   0  0  0  0  0  0  0  0  0  0  0  0
    0.8132    3.5237    2.6909 H   0  0  0  0  0  0  0  0  0  0  0  0
    0.0562    3.8912    1.1279 H   0  0  0  0  0  0  0  0  0  0  0  0
  1  2  1  0  0  0  0
  2  3  1  0  0  0  0
  2  4  1  0  0  0  0
  2  5  1  0  0  0  0
  5  6  2  0  0  0  0
  5  7  1  0  0  0  0
  7  8  1  0  0  0  0
  7  9  1  0  0  0  0
  9 10  1  0  0  0  0
  9 11  1  0  0  0  0
  9 22  1  0  0  0  0
 11 12  1  0  0  0  0
 11 13  1  0  0  0  0
 11 14  1  0  0  0  0
 14 15  1  0  0  0  0
 14 16  1  0  0  0  0
 14 17  1  0  0  0  0
 17 18  2  0  0  0  0
 17 19  1  0  0  0  0
 19 20  1  0  0  0  0
 19 21  1  0  0  0  0
 22 23  2  0  0  0  0
 22 24  1  0  0  0  0
 24 25  1  0  0  0  0
 24 26  1  0  0  0  0
 26 27  1  0  0  0  0
 26 28  1  0  0  0  0
 26 29  1  0  0  0  0
M  END
$$$$

  -OEChem-04042215583D

 29 28  0     1  0  0  0  0  0999 V2000
   -3.2613   -3.8289    1.3756 H   0  0  0  0  0  0  0  0  0  0  0  0
   -3.2651   -2.8542    0.8800 C   0  0  0  0  0  0  0  0  0  0  0  0
   -3.9497   -2.1902    1.4131 H   0  0  0  0  0  0  0  0  0  0  0  0
   -3.6174   -2.9819   -0.1464 H   0  0  0  0  0  0  0  0  0  0  0  0
   -1.8683   -2.2629    0.8770 C   0  0  0  0  0  0  0  0  0  0  0  0
   -0.9430   -2.8753    1.3880 O   0  0  0  0  0  0  0  0  0  0  0  0
   -1.6478   -1.0333    0.2918 N   0  0  0  0  0  0  0  0  0  0  0  0
   -2.4607   -0.5217   -0.0494 H   0  0  0  0  0  0  0  0  0  0  0  0
   -0.3696   -0.3093    0.3230 C   0  0  1  0  0  0  0  0  0  0  0  0
    0.2529   -0.7265    1.1212 H   0  0  0  0  0  0  0  0  0  0  0  0
    0.3455   -0.4935   -1.0307 C   0  0  0  0  0  0  0  0  0  0  0  0
   -0.1146   -1.3180   -1.5869 H   0  0  0  0  0  0  0  0  0  0  0  0
    0.2319    0.4086   -1.6440 H   0  0  0  0  0  0  0  0  0  0  0  0
    1.8369   -0.8180   -0.8315 C   0  0  0  0  0  0  0  0  0  0  0  0
    2.3181   -0.0077   -0.2773 H   0  0  0  0  0  0  0  0  0  0  0  0
    1.9293   -1.7360   -0.2436 H   0  0  0  0  0  0  0  0  0  0  0  0
    2.5849   -1.0092   -2.1491 C   0  0  0  0  0  0  0  0  0  0  0  0
    2.1044   -0.7435   -3.2347 O   0  0  0  0  0  0  0  0  0  0  0  0
    3.8549   -1.5096   -2.1734 N   0  0  0  0  0  0  0  0  0  0  0  0
    4.2076   -1.7731   -3.0892 H   0  0  0  0  0  0  0  0  0  0  0  0
    4.2247   -1.9501   -1.3380 H   0  0  0  0  0  0  0  0  0  0  0  0
   -0.5792    1.1810    0.6562 C   0  0  0  0  0  0  0  0  0  0  0  0
   -1.5142    1.7921    0.1527 O   0  0  0  0  0  0  0  0  0  0  0  0
    0.2344    1.8167    1.5760 N   0  0  0  0  0  0  0  0  0  0  0  0
    0.9459    1.2594    2.0396 H   0  0  0  0  0  0  0  0  0  0  0  0
    0.0387    3.1999    1.9935 C   0  0  0  0  0  0  0  0  0  0  0  0
   -0.9315    3.3178    2.4874 H   0  0  0  0  0  0  0  0  0  0  0  0
    0.8232    3.4983    2.6956 H   0  0  0  0  0  0  0  0  0  0  0  0
    0.0773    3.8706    1.1286 H   0  0  0  0  0  0  0  0  0  0  0  0
  1  2  1  0  0  0  0
  2  3  1  0  0  0  0
  2  4  1  0  0  0  0
  2  5  1  0  0  0  0
  5  6  2  0  0  0  0
  5  7  1  0  0  0  0
  7  8  1  0  0  0  0
  7  9  1  0  0  0  0
  9 10  1  0  0  0  0
  9 11  1  0  0  0  0
  9 22  1  0  0  0  0
 11 12  1  0  0  0  0
 11 13  1  0  0  0  0
 11 14  1  0  0  0  0
 14 15  1  0  0  0  0
 14 16  1  0  0  0  0
 14 17  1  0  0  0  0
 17 18  2  0  0  0  0
 17 19  1  0  0  0  0
 19 20  1  0  0  0  0
 19 21  1  0  0  0  0
 22 23  2  0  0  0  0
 22 24  1  0  0  0  0
 24 25  1  0  0  0  0
 24 26  1  0  0  0  0
 26 27  1  0  0  0  0
 26 28  1  0  0  0  0
 26 29  1  0  0  0  0
M  END
$$$$

  -OEChem-04042215583D

 29 28  0     1  0  0  0  0  0999 V2000
   -3.3120   -3.8047    1.3874 H   0  0  0  0  0  0  0  0  0  0  0  0
   -3.3052   -2.8297    0.8921 C   0  0  0  0  0  0  0  0  0  0  0  0
   -3.9755   -2.1557    1.4311 H   0  0  0  0  0  0  0  0  0  0  0  0
   -3.6681   -2.9518   -0.1314 H   0  0  0  0  0  0  0  0  0  0  0  0
   -1.8991   -2.2603    0.8776 C   0  0  0  0  0  0  0  0  0  0  0  0
   -0.9797   -2.8867    1.3823 O   0  0  0  0  0  0  0  0  0  0  0  0
   -1.6636   -1.0343    0.2906 N   0  0  0  0  0  0  0  0  0  0  0  0
   -2.4711   -0.5107   -0.0449 H   0  0  0  0  0  0  0  0  0  0  0  0
   -0.3773   -0.3252    0.3204 C   0  0  1  0  0  0  0  0  0  0  0  0
    0.2403   -0.7499    1.1185 H   0  0  0  0  0  0  0  0  0  0  0  0
    0.3356   -0.5212   -1.0331 C   0  0  0  0  0  0  0  0  0  0  0  0
   -0.1333   -1.3322   -1.6011 H   0  0  0  0  0  0  0  0  0  0  0  0
    0.2306    0.3909   -1.6329 H   0  0  0  0  0  0  0  0  0  0  0  0
    1.8250   -0.8628   -0.8351 C   0  0  0  0  0  0  0  0  0  0  0  0
    2.2545   -0.1930   -0.0854 H   0  0  0  0  0  0  0  0  0  0  0  0
    1.9133   -1.8880   -0.4640 H   0  0  0  0  0  0  0  0  0  0  0  0
    2.6560   -0.7153   -2.1082 C   0  0  0  0  0  0  0  0  0  0  0  0
    2.1897   -0.3760   -3.1792 O   0  0  0  0  0  0  0  0  0  0  0  0
    3.9955   -0.9788   -2.1088 N   0  0  0  0  0  0  0  0  0  0  0  0
    4.4334   -1.0316   -3.0240 H   0  0  0  0  0  0  0  0  0  0  0  0
    4.3975   -1.4761   -1.3217 H   0  0  0  0  0  0  0  0  0  0  0  0
   -0.5724    1.1680    0.6514 C   0  0  0  0  0  0  0  0  0  0  0  0
   -1.5063    1.7848    0.1528 O   0  0  0  0  0  0  0  0  0  0  0  0
    0.2468    1.7980    1.5700 N   0  0  0  0  0  0  0  0  0  0  0  0
    0.9537    1.2359    2.0347 H   0  0  0  0  0  0  0  0  0  0  0  0
    0.0579    3.1812    1.9897 C   0  0  0  0  0  0  0  0  0  0  0  0
   -0.9088    3.3010    2.4897 H   0  0  0  0  0  0  0  0  0  0  0  0
    0.8477    3.4765    2.6869 H   0  0  0  0  0  0  0  0  0  0  0  0
    0.0932    3.8526    1.1251 H   0  0  0  0  0  0  0  0  0  0  0  0
  1  2  1  0  0  0  0
  2  3  1  0  0  0  0
  2  4  1  0  0  0  0
  2  5  1  0  0  0  0
  5  6  2  0  0  0  0
  5  7  1  0  0  0  0
  7  8  1  0  0  0  0
  7  9  1  0  0  0  0
  9 10  1  0  0  0  0
  9 11  1  0  0  0  0
  9 22  1  0  0  0  0
 11 12  1  0  0  0  0
 11 13  1  0  0  0  0
 11 14  1  0  0  0  0
 14 15  1  0  0  0  0
 14 16  1  0  0  0  0
 14 17  1  0  0  0  0
 17 18  2  0  0  0  0
 17 19  1  0  0  0  0
 19 20  1  0  0  0  0
 19 21  1  0  0  0  0
 22 23  2  0  0  0  0
 22 24  1  0  0  0  0
 24 25  1  0  0  0  0
 24 26  1  0  0  0  0
 26 27  1  0  0  0  0
 26 28  1  0  0  0  0
 26 29  1  0  0  0  0
M  END
$$$$

  -OEChem-04042215583D

 29 28  0     1  0  0  0  0  0999 V2000
   -3.3521   -3.7779    1.4439 H   0  0  0  0  0  0  0  0  0  0  0  0
   -3.3294   -2.8322    0.8953 C   0  0  0  0  0  0  0  0  0  0  0  0
   -4.0076   -2.1268    1.3816 H   0  0  0  0  0  0  0  0  0  0  0  0
   -3.6707   -3.0094   -0.1274 H   0  0  0  0  0  0  0  0  0  0  0  0
   -1.9209   -2.2695    0.8797 C   0  0  0  0  0  0  0  0  0  0  0  0
   -1.0044   -2.9012    1.3830 O   0  0  0  0  0  0  0  0  0  0  0  0
   -1.6816   -1.0427    0.2959 N   0  0  0  0  0  0  0  0  0  0  0  0
   -2.4878   -0.5155   -0.0369 H   0  0  0  0  0  0  0  0  0  0  0  0
   -0.3920   -0.3392    0.3229 C   0  0  1  0  0  0  0  0  0  0  0  0
    0.2210   -0.7710    1.1206 H   0  0  0  0  0  0  0  0  0  0  0  0
    0.3180   -0.5365   -1.0331 C   0  0  0  0  0  0  0  0  0  0  0  0
   -0.1568   -1.3402   -1.6063 H   0  0  0  0  0  0  0  0  0  0  0  0
    0.2048    0.3810   -1.6228 H   0  0  0  0  0  0  0  0  0  0  0  0
    1.8117   -0.8856   -0.8501 C   0  0  0  0  0  0  0  0  0  0  0  0
    2.1880   -0.4102    0.0595 H   0  0  0  0  0  0  0  0  0  0  0  0
    1.9187   -1.9674   -0.7303 H   0  0  0  0  0  0  0  0  0  0  0  0
    2.7070   -0.4093   -1.9931 C   0  0  0  0  0  0  0  0  0  0  0  0
    2.2816    0.0396   -3.0403 O   0  0  0  0  0  0  0  0  0  0  0  0
    4.0668   -0.4906   -1.9006 N   0  0  0  0  0  0  0  0  0  0  0  0
    4.5777   -0.3267   -2.7635 H   0  0  0  0  0  0  0  0  0  0  0  0
    4.4759   -1.0571   -1.1654 H   0  0  0  0  0  0  0  0  0  0  0  0
   -0.5735    1.1545    0.6590 C   0  0  0  0  0  0  0  0  0  0  0  0
   -1.5056    1.7801    0.1682 O   0  0  0  0  0  0  0  0  0  0  0  0
    0.2560    1.7739    1.5756 N   0  0  0  0  0  0  0  0  0  0  0  0
    0.9762    1.2103    2.0171 H   0  0  0  0  0  0  0  0  0  0  0  0
    0.1068    3.1679    1.9751 C   0  0  0  0  0  0  0  0  0  0  0  0
   -0.8817    3.3376    2.4147 H   0  0  0  0  0  0  0  0  0  0  0  0
    0.8656    3.4314    2.7183 H   0  0  0  0  0  0  0  0  0  0  0  0
    0.2262    3.8286    1.1099 H   0  0  0  0  0  0  0  0  0  0  0  0
  1  2  1  0  0  0  0
  2  3  1  0  0  0  0
  2  4  1  0  0  0  0
  2  5  1  0  0  0  0
  5  6  2  0  0  0  0
  5  7  1  0  0  0  0
  7  8  1  0  0  0  0
  7  9  1  0  0  0  0
  9 10  1  0  0  0  0
  9 11  1  0  0  0  0
  9 22  1  0  0  0  0
 11 12  1  0  0  0  0
 11 13  1  0  0  0  0
 11 14  1  0  0  0  0
 14 15  1  0  0  0  0
 14 16  1  0  0  0  0
 14 17  1  0  0  0  0
 17 18  2  0  0  0  0
 17 19  1  0  0  0  0
 19 20  1  0  0  0  0
 19 21  1  0  0  0  0
 22 23  2  0  0  0  0
 22 24  1  0  0  0  0
 24 25  1  0  0  0  0
 24 26  1  0  0  0  0
 26 27  1  0  0  0  0
 26 28  1  0  0  0  0
 26 29  1  0  0  0  0
M  END
$$$$

  -OEChem-04042215583D

 29 28  0     1  0  0  0  0  0999 V2000
   -3.3540   -3.7766    1.4559 H   0  0  0  0  0  0  0  0  0  0  0  0
   -3.3335   -2.8326    0.9041 C   0  0  0  0  0  0  0  0  0  0  0  0
   -4.0046   -2.1235    1.3948 H   0  0  0  0  0  0  0  0  0  0  0  0
   -3.6856   -3.0115   -0.1146 H   0  0  0  0  0  0  0  0  0  0  0  0
   -1.9231   -2.2752    0.8734 C   0  0  0  0  0  0  0  0  0  0  0  0
   -1.0029   -2.9142    1.3601 O   0  0  0  0  0  0  0  0  0  0  0  0
   -1.6854   -1.0469    0.2920 N   0  0  0  0  0  0  0  0  0  0  0  0
   -2.4946   -0.5117   -0.0209 H   0  0  0  0  0  0  0  0  0  0  0  0
   -0.3967   -0.3410    0.3241 C   0  0  1  0  0  0  0  0  0  0  0  0
    0.2083   -0.7726    1.1272 H   0  0  0  0  0  0  0  0  0  0  0  0
    0.3219   -0.5318   -1.0297 C   0  0  0  0  0  0  0  0  0  0  0  0
   -0.1504   -1.3414   -1.5962 H   0  0  0  0  0  0  0  0  0  0  0  0
    0.1899    0.3790   -1.6248 H   0  0  0  0  0  0  0  0  0  0  0  0
    1.8225   -0.8792   -0.8601 C   0  0  0  0  0  0  0  0  0  0  0  0
    2.1432   -0.6624    0.1617 H   0  0  0  0  0  0  0  0  0  0  0  0
    1.9590   -1.9517   -1.0247 H   0  0  0  0  0  0  0  0  0  0  0  0
    2.7691   -0.1109   -1.7832 C   0  0  0  0  0  0  0  0  0  0  0  0
    2.4008    0.5921   -2.7043 O   0  0  0  0  0  0  0  0  0  0  0  0
    4.1223   -0.1943   -1.6225 N   0  0  0  0  0  0  0  0  0  0  0  0
    4.6803    0.1951   -2.3773 H   0  0  0  0  0  0  0  0  0  0  0  0
    4.5019   -0.9278   -1.0338 H   0  0  0  0  0  0  0  0  0  0  0  0
   -0.5835    1.1517    0.6623 C   0  0  0  0  0  0  0  0  0  0  0  0
   -1.5265    1.7699    0.1827 O   0  0  0  0  0  0  0  0  0  0  0  0
    0.2412    1.7722    1.5824 N   0  0  0  0  0  0  0  0  0  0  0  0
    0.9860    1.2208    1.9977 H   0  0  0  0  0  0  0  0  0  0  0  0
    0.0965    3.1700    1.9700 C   0  0  0  0  0  0  0  0  0  0  0  0
   -0.8956    3.3492    2.3977 H   0  0  0  0  0  0  0  0  0  0  0  0
    0.8483    3.4343    2.7198 H   0  0  0  0  0  0  0  0  0  0  0  0
    0.2298    3.8234    1.1013 H   0  0  0  0  0  0  0  0  0  0  0  0
  1  2  1  0  0  0  0
  2  3  1  0  0  0  0
  2  4  1  0  0  0  0
  2  5  1  0  0  0  0
  5  6  2  0  0  0  0
  5  7  1  0  0  0  0
  7  8  1  0  0  0  0
  7  9  1  0  0  0  0
  9 10  1  0  0  0  0
  9 11  1  0  0  0  0
  9 22  1  0  0  0  0
 11 12  1  0  0  0  0
 11 13  1  0  0  0  0
 11 14  1  0  0  0  0
 14 15  1  0  0  0  0
 14 16  1  0  0  0  0
 14 17  1  0  0  0  0
 17 18  2  0  0  0  0
 17 19  1  0  0  0  0
 19 20  1  0  0  0  0
 19 21  1  0  0  0  0
 22 23  2  0  0  0  0
 22 24  1  0  0  0  0
 24 25  1  0  0  0  0
 24 26  1  0  0  0  0
 26 27  1  0  0  0  0
 26 28  1  0  0  0  0
 26 29  1  0  0  0  0
M  END
$$$$

  -OEChem-04042215583D

 29 28  0     1  0  0  0  0  0999 V2000
   -3.4003   -3.7951    1.2869 H   0  0  0  0  0  0  0  0  0  0  0  0
   -3.3437   -2.8235    0.7879 C   0  0  0  0  0  0  0  0  0  0  0  0
   -4.0254   -2.1309    1.2876 H   0  0  0  0  0  0  0  0  0  0  0  0
   -3.6552   -2.9433   -0.2525 H   0  0  0  0  0  0  0  0  0  0  0  0
   -1.9256   -2.2870    0.8463 C   0  0  0  0  0  0  0  0  0  0  0  0
   -1.0548   -2.9242    1.4181 O   0  0  0  0  0  0  0  0  0  0  0  0
   -1.6224   -1.0861    0.2389 N   0  0  0  0  0  0  0  0  0  0  0  0
   -2.4025   -0.5455   -0.1334 H   0  0  0  0  0  0  0  0  0  0  0  0
   -0.3517   -0.3659    0.4051 C   0  0  1  0  0  0  0  0  0  0  0  0
    0.1359   -0.7477    1.3071 H   0  0  0  0  0  0  0  0  0  0  0  0
    0.5550   -0.5924   -0.8217 C   0  0  0  0  0  0  0  0  0  0  0  0
    0.1739   -1.4450   -1.3943 H   0  0  0  0  0  0  0  0  0  0  0  0
    0.5067    0.2773   -1.4885 H   0  0  0  0  0  0  0  0  0  0  0  0
    2.0149   -0.9066   -0.4255 C   0  0  0  0  0  0  0  0  0  0  0  0
    2.1477   -0.9394    0.6591 H   0  0  0  0  0  0  0  0  0  0  0  0
    2.2874   -1.8935   -0.8092 H   0  0  0  0  0  0  0  0  0  0  0  0
    2.9724    0.1301   -0.9933 C   0  0  0  0  0  0  0  0  0  0  0  0
    3.1135    1.2085   -0.4490 O   0  0  0  0  0  0  0  0  0  0  0  0
    3.6738   -0.0744   -2.1470 N   0  0  0  0  0  0  0  0  0  0  0  0
    4.3825    0.6177   -2.3734 H   0  0  0  0  0  0  0  0  0  0  0  0
    3.7200   -1.0074   -2.5425 H   0  0  0  0  0  0  0  0  0  0  0  0
   -0.5873    1.1395    0.6406 C   0  0  0  0  0  0  0  0  0  0  0  0
   -1.4850    1.7074    0.0275 O   0  0  0  0  0  0  0  0  0  0  0  0
    0.1052    1.8159    1.6266 N   0  0  0  0  0  0  0  0  0  0  0  0
    0.9251    1.3520    2.0086 H   0  0  0  0  0  0  0  0  0  0  0  0
   -0.0340    3.2507    1.8401 C   0  0  0  0  0  0  0  0  0  0  0  0
   -1.0760    3.5089    2.0563 H   0  0  0  0  0  0  0  0  0  0  0  0
    0.5809    3.5669    2.6882 H   0  0  0  0  0  0  0  0  0  0  0  0
    0.2896    3.8024    0.9511 H   0  0  0  0  0  0  0  0  0  0  0  0
  1  2  1  0  0  0  0
  2  3  1  0  0  0  0
  2  4  1  0  0  0  0
  2  5  1  0  0  0  0
  5  6  2  0  0  0  0
  5  7  1  0  0  0  0
  7  8  1  0  0  0  0
  7  9  1  0  0  0  0
  9 10  1  0  0  0  0
  9 11  1  0  0  0  0
  9 22  1  0  0  0  0
 11 12  1  0  0  0  0
 11 13  1  0  0  0  0
 11 14  1  0  0  0  0
 14 15  1  0  0  0  0
 14 16  1  0  0  0  0
 14 17  1  0  0  0  0
 17 18  2  0  0  0  0
 17 19  1  0  0  0  0
 19 20  1  0  0  0  0
 19 21  1  0  0  0  0
 22 23  2  0  0  0  0
 22 24  1  0  0  0  0
 24 25  1  0  0  0  0
 24 26  1  0  0  0  0
 26 27  1  0  0  0  0
 26 28  1  0  0  0  0
 26 29  1  0  0  0  0
M  END
$$$$

  -OEChem-04042215583D

 29 28  0     1  0  0  0  0  0999 V2000
   -3.4868   -3.7475    1.2687 H   0  0  0  0  0  0  0  0  0  0  0  0
   -3.4112   -2.7645    0.7954 C   0  0  0  0  0  0  0  0  0  0  0  0
   -4.0538   -2.0636    1.3338 H   0  0  0  0  0  0  0  0  0  0  0  0
   -3.7558   -2.8439   -0.2385 H   0  0  0  0  0  0  0  0  0  0  0  0
   -1.9746   -2.2776    0.8276 C   0  0  0  0  0  0  0  0  0  0  0  0
   -1.1151   -2.9475    1.3790 O   0  0  0  0  0  0  0  0  0  0  0  0
   -1.6434   -1.0844    0.2198 N   0  0  0  0  0  0  0  0  0  0  0  0
   -2.4137   -0.5151   -0.1292 H   0  0  0  0  0  0  0  0  0  0  0  0
   -0.3539   -0.3985    0.3867 C   0  0  1  0  0  0  0  0  0  0  0  0
    0.1209   -0.7891    1.2918 H   0  0  0  0  0  0  0  0  0  0  0  0
    0.5583   -0.6346   -0.8332 C   0  0  0  0  0  0  0  0  0  0  0  0
    0.1641   -1.4860   -1.3984 H   0  0  0  0  0  0  0  0  0  0  0  0
    0.5367    0.2287   -1.5092 H   0  0  0  0  0  0  0  0  0  0  0  0
    2.0027   -0.9827   -0.4141 C   0  0  0  0  0  0  0  0  0  0  0  0
    2.0652   -1.3186    0.6245 H   0  0  0  0  0  0  0  0  0  0  0  0
    2.3578   -1.8111   -1.0329 H   0  0  0  0  0  0  0  0  0  0  0  0
    2.9325    0.2015   -0.6268 C   0  0  0  0  0  0  0  0  0  0  0  0
    2.9416    1.1242    0.1669 O   0  0  0  0  0  0  0  0  0  0  0  0
    3.7443    0.3160   -1.7190 N   0  0  0  0  0  0  0  0  0  0  0  0
    4.4166    1.0778   -1.7059 H   0  0  0  0  0  0  0  0  0  0  0  0
    3.8880   -0.4884   -2.3202 H   0  0  0  0  0  0  0  0  0  0  0  0
   -0.5561    1.1126    0.6237 C   0  0  0  0  0  0  0  0  0  0  0  0
   -1.4623    1.6912    0.0325 O   0  0  0  0  0  0  0  0  0  0  0  0
    0.1509    1.7737    1.6096 N   0  0  0  0  0  0  0  0  0  0  0  0
    1.0256    1.3356    1.8929 H   0  0  0  0  0  0  0  0  0  0  0  0
    0.0149    3.2074    1.8324 C   0  0  0  0  0  0  0  0  0  0  0  0
   -1.0190    3.4605    2.0896 H   0  0  0  0  0  0  0  0  0  0  0  0
    0.6612    3.5232    2.6570 H   0  0  0  0  0  0  0  0  0  0  0  0
    0.3018    3.7632    0.9334 H   0  0  0  0  0  0  0  0  0  0  0  0
  1  2  1  0  0  0  0
  2  3  1  0  0  0  0
  2  4  1  0  0  0  0
  2  5  1  0  0  0  0
  5  6  2  0  0  0  0
  5  7  1  0  0  0  0
  7  8  1  0  0  0  0
  7  9  1  0  0  0  0
  9 10  1  0  0  0  0
  9 11  1  0  0  0  0
  9 22  1  0  0  0  0
 11 12  1  0  0  0  0
 11 13  1  0  0  0  0
 11 14  1  0  0  0  0
 14 15  1  0  0  0  0
 14 16  1  0  0  0  0
 14 17  1  0  0  0  0
 17 18  2  0  0  0  0
 17 19  1  0  0  0  0
 19 20  1  0  0  0  0
 19 21  1  0  0  0  0
 22 23  2  0  0  0  0
 22 24  1  0  0  0  0
 24 25  1  0  0  0  0
 24 26  1  0  0  0  0
 26 27  1  0  0  0  0
 26 28  1  0  0  0  0
 26 29  1  0  0  0  0
M  END
$$$$

  -OEChem-04042215583D

 29 28  0     1  0  0  0  0  0999 V2000
   -3.5437   -3.6943    1.2696 H   0  0  0  0  0  0  0  0  0  0  0  0
   -3.4473   -2.7152    0.7920 C   0  0  0  0  0  0  0  0  0  0  0  0
   -4.0746   -1.9984    1.3275 H   0  0  0  0  0  0  0  0  0  0  0  0
   -3.7938   -2.7918   -0.2413 H   0  0  0  0  0  0  0  0  0  0  0  0
   -2.0007   -2.2592    0.8222 C   0  0  0  0  0  0  0  0  0  0  0  0
   -1.1553   -2.9483    1.3716 O   0  0  0  0  0  0  0  0  0  0  0  0
   -1.6433   -1.0749    0.2115 N   0  0  0  0  0  0  0  0  0  0  0  0
   -2.4013   -0.4873   -0.1344 H   0  0  0  0  0  0  0  0  0  0  0  0
   -0.3391   -0.4181    0.3817 C   0  0  1  0  0  0  0  0  0  0  0  0
    0.1318   -0.8131    1.2877 H   0  0  0  0  0  0  0  0  0  0  0  0
    0.5662   -0.6847   -0.8379 C   0  0  0  0  0  0  0  0  0  0  0  0
    0.1520   -1.5300   -1.3980 H   0  0  0  0  0  0  0  0  0  0  0  0
    0.5733    0.1752   -1.5176 H   0  0  0  0  0  0  0  0  0  0  0  0
    1.9967   -1.0671   -0.4100 C   0  0  0  0  0  0  0  0  0  0  0  0
    1.9971   -1.6396    0.5225 H   0  0  0  0  0  0  0  0  0  0  0  0
    2.4312   -1.7134   -1.1774 H   0  0  0  0  0  0  0  0  0  0  0  0
    2.8853    0.1599   -0.2704 C   0  0  0  0  0  0  0  0  0  0  0  0
    2.8564    0.8347    0.7427 O   0  0  0  0  0  0  0  0  0  0  0  0
    3.6996    0.5955   -1.2762 N   0  0  0  0  0  0  0  0  0  0  0  0
    4.3452    1.3450   -1.0438 H   0  0  0  0  0  0  0  0  0  0  0  0
    3.8799   -0.0112   -2.0691 H   0  0  0  0  0  0  0  0  0  0  0  0
   -0.5238    1.0969    0.6138 C   0  0  0  0  0  0  0  0  0  0  0  0
   -1.4166    1.6865    0.0126 O   0  0  0  0  0  0  0  0  0  0  0  0
    0.1850    1.7529    1.6012 N   0  0  0  0  0  0  0  0  0  0  0  0
    1.0714    1.3165    1.8622 H   0  0  0  0  0  0  0  0  0  0  0  0
    0.0504    3.1848    1.8338 C   0  0  0  0  0  0  0  0  0  0  0  0
   -0.9814    3.4348    2.1022 H   0  0  0  0  0  0  0  0  0  0  0  0
    0.7041    3.4953    2.6545 H   0  0  0  0  0  0  0  0  0  0  0  0
    0.3284    3.7470    0.9362 H   0  0  0  0  0  0  0  0  0  0  0  0
  1  2  1  0  0  0  0
  2  3  1  0  0  0  0
  2  4  1  0  0  0  0
  2  5  1  0  0  0  0
  5  6  2  0  0  0  0
  5  7  1  0  0  0  0
  7  8  1  0  0  0  0
  7  9  1  0  0  0  0
  9 10  1  0  0  0  0
  9 11  1  0  0  0  0
  9 22  1  0  0  0  0
 11 12  1  0  0  0  0
 11 13  1  0  0  0  0
 11 14  1  0  0  0  0
 14 15  1  0  0  0  0
 14 16  1  0  0  0  0
 14 17  1  0  0  0  0
 17 18  2  0  0  0  0
 17 19  1  0  0  0  0
 19 20  1  0  0  0  0
 19 21  1  0  0  0  0
 22 23  2  0  0  0  0
 22 24  1  0  0  0  0
 24 25  1  0  0  0  0
 24 26  1  0  0  0  0
 26 27  1  0  0  0  0
 26 28  1  0  0  0  0
 26 29  1  0  0  0  0
M  END
$$$$

  -OEChem-04042215583D

 29 28  0     1  0  0  0  0  0999 V2000
   -3.5863   -3.6568    1.2656 H   0  0  0  0  0  0  0  0  0  0  0  0
   -3.4721   -2.6778    0.7920 C   0  0  0  0  0  0  0  0  0  0  0  0
   -4.0882   -1.9523    1.3288 H   0  0  0  0  0  0  0  0  0  0  0  0
   -3.8174   -2.7443   -0.2424 H   0  0  0  0  0  0  0  0  0  0  0  0
   -2.0181   -2.2464    0.8266 C   0  0  0  0  0  0  0  0  0  0  0  0
   -1.1861   -2.9494    1.3783 O   0  0  0  0  0  0  0  0  0  0  0  0
   -1.6407   -1.0677    0.2176 N   0  0  0  0  0  0  0  0  0  0  0  0
   -2.3888   -0.4694   -0.1316 H   0  0  0  0  0  0  0  0  0  0  0  0
   -0.3262   -0.4309    0.3870 C   0  0  1  0  0  0  0  0  0  0  0  0
    0.1509   -0.8354    1.2866 H   0  0  0  0  0  0  0  0  0  0  0  0
    0.5576   -0.7266   -0.8437 C   0  0  0  0  0  0  0  0  0  0  0  0
    0.1180   -1.5597   -1.4026 H   0  0  0  0  0  0  0  0  0  0  0  0
    0.5795    0.1367   -1.5185 H   0  0  0  0  0  0  0  0  0  0  0  0
    1.9867   -1.1389   -0.4450 C   0  0  0  0  0  0  0  0  0  0  0  0
    1.9565   -1.8987    0.3424 H   0  0  0  0  0  0  0  0  0  0  0  0
    2.4808   -1.5898   -1.3096 H   0  0  0  0  0  0  0  0  0  0  0  0
    2.8214    0.0455    0.0234 C   0  0  0  0  0  0  0  0  0  0  0  0
    2.7590    0.4536    1.1690 O   0  0  0  0  0  0  0  0  0  0  0  0
    3.6307    0.7445   -0.8255 N   0  0  0  0  0  0  0  0  0  0  0  0
    4.2514    1.4260   -0.3981 H   0  0  0  0  0  0  0  0  0  0  0  0
    3.8468    0.3552   -1.7372 H   0  0  0  0  0  0  0  0  0  0  0  0
   -0.4998    1.0856    0.6194 C   0  0  0  0  0  0  0  0  0  0  0  0
   -1.3649    1.6911   -0.0059 O   0  0  0  0  0  0  0  0  0  0  0  0
    0.2110    1.7379    1.6070 N   0  0  0  0  0  0  0  0  0  0  0  0
    1.0585    1.2630    1.9295 H   0  0  0  0  0  0  0  0  0  0  0  0
    0.0955    3.1696    1.8490 C   0  0  0  0  0  0  0  0  0  0  0  0
   -0.9396    3.4363    2.0867 H   0  0  0  0  0  0  0  0  0  0  0  0
    0.7276    3.4603    2.6935 H   0  0  0  0  0  0  0  0  0  0  0  0
    0.4119    3.7345    0.9662 H   0  0  0  0  0  0  0  0  0  0  0  0
  1  2  1  0  0  0  0
  2  3  1  0  0  0  0
  2  4  1  0  0  0  0
  2  5  1  0  0  0  0
  5  6  2  0  0  0  0
  5  7  1  0  0  0  0
  7  8  1  0  0  0  0
  7  9  1  0  0  0  0
  9 10  1  0  0  0  0
  9 11  1  0  0  0  0
  9 22  1  0  0  0  0
 11 12  1  0  0  0  0
 11 13  1  0  0  0  0
 11 14  1  0  0  0  0
 14 15  1  0  0  0  0
 14 16  1  0  0  0  0
 14 17  1  0  0  0  0
 17 18  2  0  0  0  0
 17 19  1  0  0  0  0
 19 20  1  0  0  0  0
 19 21  1  0  0  0  0
 22 23  2  0  0  0  0
 22 24  1  0  0  0  0
 24 25  1  0  0  0  0
 24 26  1  0  0  0  0
 26 27  1  0  0  0  0
 26 28  1  0  0  0  0
 26 29  1  0  0  0  0
M  END
$$$$

  -OEChem-04042215583D

 29 28  0     1  0  0  0  0  0999 V2000
   -3.6257   -3.6245    1.3092 H   0  0  0  0  0  0  0  0  0  0  0  0
   -3.4992   -2.6676    0.7950 C   0  0  0  0  0  0  0  0  0  0  0  0
   -4.1192   -1.9170    1.2911 H   0  0  0  0  0  0  0  0  0  0  0  0
   -3.8303   -2.7774   -0.2405 H   0  0  0  0  0  0  0  0  0  0  0  0
   -2.0432   -2.2425    0.8321 C   0  0  0  0  0  0  0  0  0  0  0  0
   -1.2159   -2.9521    1.3818 O   0  0  0  0  0  0  0  0  0  0  0  0
   -1.6606   -1.0639    0.2255 N   0  0  0  0  0  0  0  0  0  0  0  0
   -2.4047   -0.4669   -0.1329 H   0  0  0  0  0  0  0  0  0  0  0  0
   -0.3404   -0.4362    0.3846 C   0  0  1  0  0  0  0  0  0  0  0  0
    0.1366   -0.8551    1.2773 H   0  0  0  0  0  0  0  0  0  0  0  0
    0.5268   -0.7533   -0.8543 C   0  0  0  0  0  0  0  0  0  0  0  0
    0.0681   -1.5747   -1.4153 H   0  0  0  0  0  0  0  0  0  0  0  0
    0.5508    0.1156   -1.5215 H   0  0  0  0  0  0  0  0  0  0  0  0
    1.9648   -1.1796   -0.4971 C   0  0  0  0  0  0  0  0  0  0  0  0
    1.9301   -2.0900    0.1097 H   0  0  0  0  0  0  0  0  0  0  0  0
    2.5079   -1.4195   -1.4150 H   0  0  0  0  0  0  0  0  0  0  0  0
    2.7388   -0.1145    0.2734 C   0  0  0  0  0  0  0  0  0  0  0  0
    2.6105    0.0470    1.4737 O   0  0  0  0  0  0  0  0  0  0  0  0
    3.5616    0.7722   -0.3594 N   0  0  0  0  0  0  0  0  0  0  0  0
    4.1431    1.3520    0.2390 H   0  0  0  0  0  0  0  0  0  0  0  0
    3.8353    0.5932   -1.3198 H   0  0  0  0  0  0  0  0  0  0  0  0
   -0.4856    1.0808    0.6253 C   0  0  0  0  0  0  0  0  0  0  0  0
   -1.3193    1.7149   -0.0132 O   0  0  0  0  0  0  0  0  0  0  0  0
    0.2490    1.7112    1.6093 N   0  0  0  0  0  0  0  0  0  0  0  0
    1.0321    1.1789    1.9990 H   0  0  0  0  0  0  0  0  0  0  0  0
    0.1836    3.1434    1.8641 C   0  0  0  0  0  0  0  0  0  0  0  0
   -0.8415    3.4433    2.1056 H   0  0  0  0  0  0  0  0  0  0  0  0
    0.8265    3.4042    2.7103 H   0  0  0  0  0  0  0  0  0  0  0  0
    0.5188    3.7047    0.9860 H   0  0  0  0  0  0  0  0  0  0  0  0
  1  2  1  0  0  0  0
  2  3  1  0  0  0  0
  2  4  1  0  0  0  0
  2  5  1  0  0  0  0
  5  6  2  0  0  0  0
  5  7  1  0  0  0  0
  7  8  1  0  0  0  0
  7  9  1  0  0  0  0
  9 10  1  0  0  0  0
  9 11  1  0  0  0  0
  9 22  1  0  0  0  0
 11 12  1  0  0  0  0
 11 13  1  0  0  0  0
 11 14  1  0  0  0  0
 14 15  1  0  0  0  0
 14 16  1  0  0  0  0
 14 17  1  0  0  0  0
 17 18  2  0  0  0  0
 17 19  1  0  0  0  0
 19 20  1  0  0  0  0
 19 21  1  0  0  0  0
 22 23  2  0  0  0  0
 22 24  1  0  0  0  0
 24 25  1  0  0  0  0
 24 26  1  0  0  0  0
 26 27  1  0  0  0  0
 26 28  1  0  0  0  0
 26 29  1  0  0  0  0
M  END
$$$$

  -OEChem-04042215583D

 29 28  0     1  0  0  0  0  0999 V2000
   -3.1961   -3.8190    1.4022 H   0  0  0  0  0  0  0  0  0  0  0  0
   -3.2155   -2.8164    0.9659 C   0  0  0  0  0  0  0  0  0  0  0  0
   -3.8000   -2.1603    1.6156 H   0  0  0  0  0  0  0  0  0  0  0  0
   -3.6949   -2.8674   -0.0146 H   0  0  0  0  0  0  0  0  0  0  0  0
   -1.8038   -2.2798    0.8245 C   0  0  0  0  0  0  0  0  0  0  0  0
   -0.8529   -2.9539    1.1910 O   0  0  0  0  0  0  0  0  0  0  0  0
   -1.5981   -1.0362    0.2655 N   0  0  0  0  0  0  0  0  0  0  0  0
   -2.4251   -0.4657    0.0881 H   0  0  0  0  0  0  0  0  0  0  0  0
   -0.3161   -0.3179    0.3066 C   0  0  1  0  0  0  0  0  0  0  0  0
    0.3188   -0.7451    1.0895 H   0  0  0  0  0  0  0  0  0  0  0  0
    0.3771   -0.4455   -1.0696 C   0  0  0  0  0  0  0  0  0  0  0  0
   -0.1184   -1.2215   -1.6630 H   0  0  0  0  0  0  0  0  0  0  0  0
    0.2569    0.4971   -1.6157 H   0  0  0  0  0  0  0  0  0  0  0  0
    1.8821   -0.7918   -0.9953 C   0  0  0  0  0  0  0  0  0  0  0  0
    1.9638   -1.8540   -0.7467 H   0  0  0  0  0  0  0  0  0  0  0  0
    2.3290   -0.6513   -1.9832 H   0  0  0  0  0  0  0  0  0  0  0  0
    2.7127   -0.0139    0.0212 C   0  0  0  0  0  0  0  0  0  0  0  0
    2.5657    1.1753    0.2256 O   0  0  0  0  0  0  0  0  0  0  0  0
    3.6327   -0.6340    0.8162 N   0  0  0  0  0  0  0  0  0  0  0  0
    4.2409   -0.0341    1.3660 H   0  0  0  0  0  0  0  0  0  0  0  0
    3.9002   -1.5921    0.6142 H   0  0  0  0  0  0  0  0  0  0  0  0
   -0.6063    1.1561    0.6869 C   0  0  0  0  0  0  0  0  0  0  0  0
   -1.6428    1.6791    0.2852 O   0  0  0  0  0  0  0  0  0  0  0  0
    0.1598    1.8175    1.6268 N   0  0  0  0  0  0  0  0  0  0  0  0
    1.1282    1.4982    1.6775 H   0  0  0  0  0  0  0  0  0  0  0  0
   -0.0991    3.2019    2.0018 C   0  0  0  0  0  0  0  0  0  0  0  0
   -1.1167    3.3125    2.3908 H   0  0  0  0  0  0  0  0  0  0  0  0
    0.6016    3.5171    2.7808 H   0  0  0  0  0  0  0  0  0  0  0  0
    0.0217    3.8616    1.1362 H   0  0  0  0  0  0  0  0  0  0  0  0
  1  2  1  0  0  0  0
  2  3  1  0  0  0  0
  2  4  1  0  0  0  0
  2  5  1  0  0  0  0
  5  6  2  0  0  0  0
  5  7  1  0  0  0  0
  7  8  1  0  0  0  0
  7  9  1  0  0  0  0
  9 10  1  0  0  0  0
  9 11  1  0  0  0  0
  9 22  1  0  0  0  0
 11 12  1  0  0  0  0
 11 13  1  0  0  0  0
 11 14  1  0  0  0  0
 14 15  1  0  0  0  0
 14 16  1  0  0  0  0
 14 17  1  0  0  0  0
 17 18  2  0  0  0  0
 17 19  1  0  0  0  0
 19 20  1  0  0  0  0
 19 21  1  0  0  0  0
 22 23  2  0  0  0  0
 22 24  1  0  0  0  0
 24 25  1  0  0  0  0
 24 26  1  0  0  0  0
 26 27  1  0  0  0  0
 26 28  1  0  0  0  0
 26 29  1  0  0  0  0
M  END
$$$$

  -OEChem-04042215583D

 29 28  0     1  0  0  0  0  0999 V2000
   -3.0578   -3.8926    1.3855 H   0  0  0  0  0  0  0  0  0  0  0  0
   -3.1114   -2.8838    0.9670 C   0  0  0  0  0  0  0  0  0  0  0  0
   -3.7115   -2.2576    1.6316 H   0  0  0  0  0  0  0  0  0  0  0  0
   -3.5961   -2.9338   -0.0111 H   0  0  0  0  0  0  0  0  0  0  0  0
   -1.7179   -2.3009    0.8261 C   0  0  0  0  0  0  0  0  0  0  0  0
   -0.7443   -2.9462    1.1867 O   0  0  0  0  0  0  0  0  0  0  0  0
   -1.5516   -1.0493    0.2706 N   0  0  0  0  0  0  0  0  0  0  0  0
   -2.3952   -0.5031    0.0951 H   0  0  0  0  0  0  0  0  0  0  0  0
   -0.2881   -0.2991    0.3007 C   0  0  1  0  0  0  0  0  0  0  0  0
    0.3498   -0.7203    1.0828 H   0  0  0  0  0  0  0  0  0  0  0  0
    0.4023   -0.4029   -1.0804 C   0  0  0  0  0  0  0  0  0  0  0  0
   -0.0833   -1.1810   -1.6792 H   0  0  0  0  0  0  0  0  0  0  0  0
    0.2512    0.5423   -1.6143 H   0  0  0  0  0  0  0  0  0  0  0  0
    1.9203   -0.7074   -1.0444 C   0  0  0  0  0  0  0  0  0  0  0  0
    2.0415   -1.7940   -1.0737 H   0  0  0  0  0  0  0  0  0  0  0  0
    2.3883   -0.3069   -1.9480 H   0  0  0  0  0  0  0  0  0  0  0  0
    2.6922   -0.1946    0.1683 C   0  0  0  0  0  0  0  0  0  0  0  0
    2.6871    0.9757    0.5006 O   0  0  0  0  0  0  0  0  0  0  0  0
    3.3108   -1.0490    1.0348 N   0  0  0  0  0  0  0  0  0  0  0  0
    3.6144   -0.6534    1.9196 H   0  0  0  0  0  0  0  0  0  0  0  0
    3.1158   -2.0434    0.9629 H   0  0  0  0  0  0  0  0  0  0  0  0
   -0.5855    1.1696    0.6898 C   0  0  0  0  0  0  0  0  0  0  0  0
   -1.6278    1.6864    0.2971 O   0  0  0  0  0  0  0  0  0  0  0  0
    0.1897    1.8346    1.6196 N   0  0  0  0  0  0  0  0  0  0  0  0
    1.1568    1.5087    1.6792 H   0  0  0  0  0  0  0  0  0  0  0  0
   -0.0724    3.2152    2.0058 C   0  0  0  0  0  0  0  0  0  0  0  0
   -1.0810    3.3142    2.4208 H   0  0  0  0  0  0  0  0  0  0  0  0
    0.6448    3.5347    2.7680 H   0  0  0  0  0  0  0  0  0  0  0  0
    0.0204    3.8794    1.1402 H   0  0  0  0  0  0  0  0  0  0  0  0
  1  2  1  0  0  0  0
  2  3  1  0  0  0  0
  2  4  1  0  0  0  0
  2  5  1  0  0  0  0
  5  6  2  0  0  0  0
  5  7  1  0  0  0  0
  7  8  1  0  0  0  0
  7  9  1  0  0  0  0
  9 10  1  0  0  0  0
  9 11  1  0  0  0  0
  9 22  1  0  0  0  0
 11 12  1  0  0  0  0
 11 13  1  0  0  0  0
 11 14  1  0  0  0  0
 14 15  1  0  0  0  0
 14 16  1  0  0  0  0
 14 17  1  0  0  0  0
 17 18  2  0  0  0  0
 17 19  1  0  0  0  0
 19 20  1  0  0  0  0
 19 21  1  0  0  0  0
 22 23  2  0  0  0  0
 22 24  1  0  0  0  0
 24 25  1  0  0  0  0
 24 26  1  0  0  0  0
 26 27  1  0  0  0  0
 26 28  1  0  0  0  0
 26 29  1  0  0  0  0
M  END
$$$$

  -OEChem-04042215583D

 29 28  0     1  0  0  0  0  0999 V2000
   -2.9829   -3.9351    1.4094 H   0  0  0  0  0  0  0  0  0  0  0  0
   -3.0568   -2.9483    0.9438 C   0  0  0  0  0  0  0  0  0  0  0  0
   -3.6955   -2.3137    1.5631 H   0  0  0  0  0  0  0  0  0  0  0  0
   -3.5114   -3.0576   -0.0439 H   0  0  0  0  0  0  0  0  0  0  0  0
   -1.6792   -2.3266    0.8133 C   0  0  0  0  0  0  0  0  0  0  0  0
   -0.6891   -2.9497    1.1696 O   0  0  0  0  0  0  0  0  0  0  0  0
   -1.5430   -1.0693    0.2611 N   0  0  0  0  0  0  0  0  0  0  0  0
   -2.3997   -0.5472    0.0777 H   0  0  0  0  0  0  0  0  0  0  0  0
   -0.3003   -0.2864    0.3072 C   0  0  1  0  0  0  0  0  0  0  0  0
    0.3094   -0.6982    1.1138 H   0  0  0  0  0  0  0  0  0  0  0  0
    0.4320   -0.3884   -1.0535 C   0  0  0  0  0  0  0  0  0  0  0  0
   -0.0179   -1.1941   -1.6437 H   0  0  0  0  0  0  0  0  0  0  0  0
    0.2561    0.5383   -1.6114 H   0  0  0  0  0  0  0  0  0  0  0  0
    1.9611   -0.6467   -0.9998 C   0  0  0  0  0  0  0  0  0  0  0  0
    2.1411   -1.6850   -1.2925 H   0  0  0  0  0  0  0  0  0  0  0  0
    2.4560   -0.0152   -1.7432 H   0  0  0  0  0  0  0  0  0  0  0  0
    2.6467   -0.4243    0.3455 C   0  0  0  0  0  0  0  0  0  0  0  0
    2.7399    0.6808    0.8484 O   0  0  0  0  0  0  0  0  0  0  0  0
    3.0080   -1.4727    1.1416 N   0  0  0  0  0  0  0  0  0  0  0  0
    3.2099   -1.2424    2.1101 H   0  0  0  0  0  0  0  0  0  0  0  0
    2.6355   -2.3912    0.9153 H   0  0  0  0  0  0  0  0  0  0  0  0
   -0.5915    1.1809    0.6916 C   0  0  0  0  0  0  0  0  0  0  0  0
   -1.6176    1.7117    0.2781 O   0  0  0  0  0  0  0  0  0  0  0  0
    0.1888    1.8356    1.6242 N   0  0  0  0  0  0  0  0  0  0  0  0
    1.1337    1.4610    1.7436 H   0  0  0  0  0  0  0  0  0  0  0  0
   -0.0406    3.2243    2.0007 C   0  0  0  0  0  0  0  0  0  0  0  0
   -1.0529    3.3533    2.3976 H   0  0  0  0  0  0  0  0  0  0  0  0
    0.6722    3.5263    2.7739 H   0  0  0  0  0  0  0  0  0  0  0  0
    0.0854    3.8820    1.1346 H   0  0  0  0  0  0  0  0  0  0  0  0
  1  2  1  0  0  0  0
  2  3  1  0  0  0  0
  2  4  1  0  0  0  0
  2  5  1  0  0  0  0
  5  6  2  0  0  0  0
  5  7  1  0  0  0  0
  7  8  1  0  0  0  0
  7  9  1  0  0  0  0
  9 10  1  0  0  0  0
  9 11  1  0  0  0  0
  9 22  1  0  0  0  0
 11 12  1  0  0  0  0
 11 13  1  0  0  0  0
 11 14  1  0  0  0  0
 14 15  1  0  0  0  0
 14 16  1  0  0  0  0
 14 17  1  0  0  0  0
 17 18  2  0  0  0  0
 17 19  1  0  0  0  0
 19 20  1  0  0  0  0
 19 21  1  0  0  0  0
 22 23  2  0  0  0  0
 22 24  1  0  0  0  0
 24 25  1  0  0  0  0
 24 26  1  0  0  0  0
 26 27  1  0  0  0  0
 26 28  1  0  0  0  0
 26 29  1  0  0  0  0
M  END
$$$$

  -OEChem-04042215583D

 29 28  0     1  0  0  0  0  0999 V2000
   -2.9127   -3.9908    1.3812 H   0  0  0  0  0  0  0  0  0  0  0  0
   -3.0123   -3.0055    0.9173 C   0  0  0  0  0  0  0  0  0  0  0  0
   -3.6591   -2.3858    1.5431 H   0  0  0  0  0  0  0  0  0  0  0  0
   -3.4733   -3.1235   -0.0662 H   0  0  0  0  0  0  0  0  0  0  0  0
   -1.6499   -2.3539    0.7756 C   0  0  0  0  0  0  0  0  0  0  0  0
   -0.6411   -2.9617    1.1079 O   0  0  0  0  0  0  0  0  0  0  0  0
   -1.5457   -1.0904    0.2290 N   0  0  0  0  0  0  0  0  0  0  0  0
   -2.4158   -0.5891    0.0522 H   0  0  0  0  0  0  0  0  0  0  0  0
   -0.3239   -0.2763    0.2922 C   0  0  1  0  0  0  0  0  0  0  0  0
    0.2485   -0.6767    1.1285 H   0  0  0  0  0  0  0  0  0  0  0  0
    0.4628   -0.3917   -1.0374 C   0  0  0  0  0  0  0  0  0  0  0  0
    0.0608   -1.2399   -1.6019 H   0  0  0  0  0  0  0  0  0  0  0  0
    0.2683    0.5005   -1.6433 H   0  0  0  0  0  0  0  0  0  0  0  0
    1.9975   -0.6040   -0.9318 C   0  0  0  0  0  0  0  0  0  0  0  0
    2.2625   -1.5259   -1.4571 H   0  0  0  0  0  0  0  0  0  0  0  0
    2.5006    0.2154   -1.4534 H   0  0  0  0  0  0  0  0  0  0  0  0
    2.5791   -0.6781    0.4765 C   0  0  0  0  0  0  0  0  0  0  0  0
    2.7524    0.3272    1.1438 O   0  0  0  0  0  0  0  0  0  0  0  0
    2.7003   -1.8662    1.1377 N   0  0  0  0  0  0  0  0  0  0  0  0
    2.8176   -1.7873    2.1435 H   0  0  0  0  0  0  0  0  0  0  0  0
    2.1741   -2.6561    0.7706 H   0  0  0  0  0  0  0  0  0  0  0  0
   -0.5941    1.1909    0.6755 C   0  0  0  0  0  0  0  0  0  0  0  0
   -1.6004    1.7474    0.2502 O   0  0  0  0  0  0  0  0  0  0  0  0
    0.2036    1.8200    1.6114 N   0  0  0  0  0  0  0  0  0  0  0  0
    1.1125    1.3845    1.7923 H   0  0  0  0  0  0  0  0  0  0  0  0
    0.0178    3.2109    2.0020 C   0  0  0  0  0  0  0  0  0  0  0  0
   -0.9894    3.3664    2.4025 H   0  0  0  0  0  0  0  0  0  0  0  0
    0.7414    3.4832    2.7763 H   0  0  0  0  0  0  0  0  0  0  0  0
    0.1624    3.8728    1.1419 H   0  0  0  0  0  0  0  0  0  0  0  0
  1  2  1  0  0  0  0
  2  3  1  0  0  0  0
  2  4  1  0  0  0  0
  2  5  1  0  0  0  0
  5  6  2  0  0  0  0
  5  7  1  0  0  0  0
  7  8  1  0  0  0  0
  7  9  1  0  0  0  0
  9 10  1  0  0  0  0
  9 11  1  0  0  0  0
  9 22  1  0  0  0  0
 11 12  1  0  0  0  0
 11 13  1  0  0  0  0
 11 14  1  0  0  0  0
 14 15  1  0  0  0  0
 14 16  1  0  0  0  0
 14 17  1  0  0  0  0
 17 18  2  0  0  0  0
 17 19  1  0  0  0  0
 19 20  1  0  0  0  0
 19 21  1  0  0  0  0
 22 23  2  0  0  0  0
 22 24  1  0  0  0  0
 24 25  1  0  0  0  0
 24 26  1  0  0  0  0
 26 27  1  0  0  0  0
 26 28  1  0  0  0  0
 26 29  1  0  0  0  0
M  END
$$$$

  -OEChem-04042215583D

 29 28  0     1  0  0  0  0  0999 V2000
   -2.8800   -4.0094    1.3791 H   0  0  0  0  0  0  0  0  0  0  0  0
   -2.9889   -3.0337    0.8974 C   0  0  0  0  0  0  0  0  0  0  0  0
   -3.6420   -2.4093    1.5121 H   0  0  0  0  0  0  0  0  0  0  0  0
   -3.4486   -3.1737   -0.0840 H   0  0  0  0  0  0  0  0  0  0  0  0
   -1.6328   -2.3715    0.7442 C   0  0  0  0  0  0  0  0  0  0  0  0
   -0.6148   -2.9776    1.0505 O   0  0  0  0  0  0  0  0  0  0  0  0
   -1.5430   -1.1054    0.2010 N   0  0  0  0  0  0  0  0  0  0  0  0
   -2.4203   -0.6167    0.0260 H   0  0  0  0  0  0  0  0  0  0  0  0
   -0.3351   -0.2706    0.2730 C   0  0  1  0  0  0  0  0  0  0  0  0
    0.2139   -0.6586    1.1296 H   0  0  0  0  0  0  0  0  0  0  0  0
    0.4898   -0.4096   -1.0303 C   0  0  0  0  0  0  0  0  0  0  0  0
    0.1260   -1.2958   -1.5616 H   0  0  0  0  0  0  0  0  0  0  0  0
    0.2890    0.4469   -1.6832 H   0  0  0  0  0  0  0  0  0  0  0  0
    2.0223   -0.5898   -0.8709 C   0  0  0  0  0  0  0  0  0  0  0  0
    2.3713   -1.3452   -1.5803 H   0  0  0  0  0  0  0  0  0  0  0  0
    2.5076    0.3524   -1.1432 H   0  0  0  0  0  0  0  0  0  0  0  0
    2.5195   -0.9643    0.5216 C   0  0  0  0  0  0  0  0  0  0  0  0
    2.7927   -0.0980    1.3352 O   0  0  0  0  0  0  0  0  0  0  0  0
    2.4498   -2.2406    0.9992 N   0  0  0  0  0  0  0  0  0  0  0  0
    2.5374   -2.3128    2.0083 H   0  0  0  0  0  0  0  0  0  0  0  0
    1.7872   -2.8613    0.5375 H   0  0  0  0  0  0  0  0  0  0  0  0
   -0.5888    1.1973    0.6522 C   0  0  0  0  0  0  0  0  0  0  0  0
   -1.5771    1.7746    0.2150 O   0  0  0  0  0  0  0  0  0  0  0  0
    0.2227    1.8087    1.5888 N   0  0  0  0  0  0  0  0  0  0  0  0
    1.0868    1.3216    1.8382 H   0  0  0  0  0  0  0  0  0  0  0  0
    0.0539    3.1927    2.0101 C   0  0  0  0  0  0  0  0  0  0  0  0
   -0.9533    3.3531    2.4087 H   0  0  0  0  0  0  0  0  0  0  0  0
    0.7766    3.4380    2.7943 H   0  0  0  0  0  0  0  0  0  0  0  0
    0.2122    3.8717    1.1661 H   0  0  0  0  0  0  0  0  0  0  0  0
  1  2  1  0  0  0  0
  2  3  1  0  0  0  0
  2  4  1  0  0  0  0
  2  5  1  0  0  0  0
  5  6  2  0  0  0  0
  5  7  1  0  0  0  0
  7  8  1  0  0  0  0
  7  9  1  0  0  0  0
  9 10  1  0  0  0  0
  9 11  1  0  0  0  0
  9 22  1  0  0  0  0
 11 12  1  0  0  0  0
 11 13  1  0  0  0  0
 11 14  1  0  0  0  0
 14 15  1  0  0  0  0
 14 16  1  0  0  0  0
 14 17  1  0  0  0  0
 17 18  2  0  0  0  0
 17 19  1  0  0  0  0
 19 20  1  0  0  0  0
 19 21  1  0  0  0  0
 22 23  2  0  0  0  0
 22 24  1  0  0  0  0
 24 25  1  0  0  0  0
 24 26  1  0  0  0  0
 26 27  1  0  0  0  0
 26 28  1  0  0  0  0
 26 29  1  0  0  0  0
M  END
$$$$

  -OEChem-04042215583D

 29 28  0     1  0  0  0  0  0999 V2000
   -3.5002   -3.6977    1.4617 H   0  0  0  0  0  0  0  0  0  0  0  0
   -3.4113   -2.7736    0.8835 C   0  0  0  0  0  0  0  0  0  0  0  0
   -4.1228   -2.0429    1.2756 H   0  0  0  0  0  0  0  0  0  0  0  0
   -3.6553   -2.9873   -0.1599 H   0  0  0  0  0  0  0  0  0  0  0  0
   -1.9988   -2.2290    0.9833 C   0  0  0  0  0  0  0  0  0  0  0  0
   -1.1641   -2.8236    1.6435 O   0  0  0  0  0  0  0  0  0  0  0  0
   -1.6799   -1.0380    0.3631 N   0  0  0  0  0  0  0  0  0  0  0  0
   -2.4367   -0.5286   -0.0894 H   0  0  0  0  0  0  0  0  0  0  0  0
   -0.3507   -0.4080    0.3659 C   0  0  1  0  0  0  0  0  0  0  0  0
    0.2380   -0.8510    1.1716 H   0  0  0  0  0  0  0  0  0  0  0  0
    0.3179   -0.6441   -1.0170 C   0  0  0  0  0  0  0  0  0  0  0  0
   -0.2336   -1.4516   -1.5115 H   0  0  0  0  0  0  0  0  0  0  0  0
    0.1968    0.2420   -1.6502 H   0  0  0  0  0  0  0  0  0  0  0  0
    1.8015   -1.0835   -1.0345 C   0  0  0  0  0  0  0  0  0  0  0  0
    1.9923   -1.6506   -1.9505 H   0  0  0  0  0  0  0  0  0  0  0  0
    2.4209   -0.1839   -1.0799 H   0  0  0  0  0  0  0  0  0  0  0  0
    2.2850   -1.9085    0.1524 C   0  0  0  0  0  0  0  0  0  0  0  0
    2.2424   -3.1214    0.1460 O   0  0  0  0  0  0  0  0  0  0  0  0
    2.8935   -1.3324    1.2325 N   0  0  0  0  0  0  0  0  0  0  0  0
    3.3588   -1.9887    1.8545 H   0  0  0  0  0  0  0  0  0  0  0  0
    3.2608   -0.3933    1.1289 H   0  0  0  0  0  0  0  0  0  0  0  0
   -0.4409    1.1017    0.6550 C   0  0  0  0  0  0  0  0  0  0  0  0
   -1.2749    1.7883    0.0768 O   0  0  0  0  0  0  0  0  0  0  0  0
    0.4313    1.6889    1.5526 N   0  0  0  0  0  0  0  0  0  0  0  0
    0.9983    1.0631    2.1184 H   0  0  0  0  0  0  0  0  0  0  0  0
    0.3463    3.0932    1.9349 C   0  0  0  0  0  0  0  0  0  0  0  0
   -0.6074    3.2975    2.4330 H   0  0  0  0  0  0  0  0  0  0  0  0
    1.1591    3.3480    2.6218 H   0  0  0  0  0  0  0  0  0  0  0  0
    0.4279    3.7372    1.0529 H   0  0  0  0  0  0  0  0  0  0  0  0
  1  2  1  0  0  0  0
  2  3  1  0  0  0  0
  2  4  1  0  0  0  0
  2  5  1  0  0  0  0
  5  6  2  0  0  0  0
  5  7  1  0  0  0  0
  7  8  1  0  0  0  0
  7  9  1  0  0  0  0
  9 10  1  0  0  0  0
  9 11  1  0  0  0  0
  9 22  1  0  0  0  0
 11 12  1  0  0  0  0
 11 13  1  0  0  0  0
 11 14  1  0  0  0  0
 14 15  1  0  0  0  0
 14 16  1  0  0  0  0
 14 17  1  0  0  0  0
 17 18  2  0  0  0  0
 17 19  1  0  0  0  0
 19 20  1  0  0  0  0
 19 21  1  0  0  0  0
 22 23  2  0  0  0  0
 22 24  1  0  0  0  0
 24 25  1  0  0  0  0
 24 26  1  0  0  0  0
 26 27  1  0  0  0  0
 26 28  1  0  0  0  0
 26 29  1  0  0  0  0
M  END
$$$$

  -OEChem-04042215583D

 29 28  0     1  0  0  0  0  0999 V2000
   -3.3570   -3.7794    1.4717 H   0  0  0  0  0  0  0  0  0  0  0  0
   -3.3096   -2.8447    0.9059 C   0  0  0  0  0  0  0  0  0  0  0  0
   -4.0427   -2.1465    1.3169 H   0  0  0  0  0  0  0  0  0  0  0  0
   -3.5578   -3.0527   -0.1377 H   0  0  0  0  0  0  0  0  0  0  0  0
   -1.9173   -2.2495    0.9974 C   0  0  0  0  0  0  0  0  0  0  0  0
   -1.0583   -2.8111    1.6567 O   0  0  0  0  0  0  0  0  0  0  0  0
   -1.6469   -1.0424    0.3847 N   0  0  0  0  0  0  0  0  0  0  0  0
   -2.4211   -0.5595   -0.0673 H   0  0  0  0  0  0  0  0  0  0  0  0
   -0.3306   -0.3885    0.3565 C   0  0  1  0  0  0  0  0  0  0  0  0
    0.3070   -0.8294    1.1264 H   0  0  0  0  0  0  0  0  0  0  0  0
    0.2902   -0.5708   -1.0550 C   0  0  0  0  0  0  0  0  0  0  0  0
   -0.2621   -1.3667   -1.5675 H   0  0  0  0  0  0  0  0  0  0  0  0
    0.1503    0.3377   -1.6515 H   0  0  0  0  0  0  0  0  0  0  0  0
    1.7768   -0.9834   -1.0950 C   0  0  0  0  0  0  0  0  0  0  0  0
    2.0345   -1.2985   -2.1104 H   0  0  0  0  0  0  0  0  0  0  0  0
    2.3888   -0.1085   -0.8608 H   0  0  0  0  0  0  0  0  0  0  0  0
    2.1556   -2.1024   -0.1310 C   0  0  0  0  0  0  0  0  0  0  0  0
    1.9277   -3.2650   -0.3976 O   0  0  0  0  0  0  0  0  0  0  0  0
    2.8322   -1.8684    1.0330 N   0  0  0  0  0  0  0  0  0  0  0  0
    3.1731   -2.6993    1.5097 H   0  0  0  0  0  0  0  0  0  0  0  0
    3.3052   -0.9811    1.1564 H   0  0  0  0  0  0  0  0  0  0  0  0
   -0.4559    1.1142    0.6752 C   0  0  0  0  0  0  0  0  0  0  0  0
   -1.3274    1.7846    0.1342 O   0  0  0  0  0  0  0  0  0  0  0  0
    0.4221    1.7174    1.5566 N   0  0  0  0  0  0  0  0  0  0  0  0
    1.0372    1.1068    2.0867 H   0  0  0  0  0  0  0  0  0  0  0  0
    0.3047    3.1139    1.9593 C   0  0  0  0  0  0  0  0  0  0  0  0
   -0.6445    3.2845    2.4781 H   0  0  0  0  0  0  0  0  0  0  0  0
    1.1228    3.3834    2.6343 H   0  0  0  0  0  0  0  0  0  0  0  0
    0.3505    3.7707    1.0841 H   0  0  0  0  0  0  0  0  0  0  0  0
  1  2  1  0  0  0  0
  2  3  1  0  0  0  0
  2  4  1  0  0  0  0
  2  5  1  0  0  0  0
  5  6  2  0  0  0  0
  5  7  1  0  0  0  0
  7  8  1  0  0  0  0
  7  9  1  0  0  0  0
  9 10  1  0  0  0  0
  9 11  1  0  0  0  0
  9 22  1  0  0  0  0
 11 12  1  0  0  0  0
 11 13  1  0  0  0  0
 11 14  1  0  0  0  0
 14 15  1  0  0  0  0
 14 16  1  0  0  0  0
 14 17  1  0  0  0  0
 17 18  2  0  0  0  0
 17 19  1  0  0  0  0
 19 20  1  0  0  0  0
 19 21  1  0  0  0  0
 22 23  2  0  0  0  0
 22 24  1  0  0  0  0
 24 25  1  0  0  0  0
 24 26  1  0  0  0  0
 26 27  1  0  0  0  0
 26 28  1  0  0  0  0
 26 29  1  0  0  0  0
M  END
$$$$

  -OEChem-04042215583D

 29 28  0     1  0  0  0  0  0999 V2000
   -3.0957   -3.8779    1.5338 H   0  0  0  0  0  0  0  0  0  0  0  0
   -3.1197   -2.9296    0.9896 C   0  0  0  0  0  0  0  0  0  0  0  0
   -3.8311   -2.2601    1.4792 H   0  0  0  0  0  0  0  0  0  0  0  0
   -3.4527   -3.1200   -0.0336 H   0  0  0  0  0  0  0  0  0  0  0  0
   -1.7397   -2.2999    0.9757 C   0  0  0  0  0  0  0  0  0  0  0  0
   -0.8037   -2.8619    1.5242 O   0  0  0  0  0  0  0  0  0  0  0  0
   -1.5508   -1.0690    0.3800 N   0  0  0  0  0  0  0  0  0  0  0  0
   -2.3711   -0.5824    0.0215 H   0  0  0  0  0  0  0  0  0  0  0  0
   -0.2604   -0.3712    0.3132 C   0  0  1  0  0  0  0  0  0  0  0  0
    0.4265   -0.7991    1.0451 H   0  0  0  0  0  0  0  0  0  0  0  0
    0.3121   -0.4954   -1.1202 C   0  0  0  0  0  0  0  0  0  0  0  0
   -0.2341   -1.2793   -1.6574 H   0  0  0  0  0  0  0  0  0  0  0  0
    0.1456    0.4361   -1.6729 H   0  0  0  0  0  0  0  0  0  0  0  0
    1.8081   -0.8589   -1.1796 C   0  0  0  0  0  0  0  0  0  0  0  0
    2.1245   -0.9052   -2.2260 H   0  0  0  0  0  0  0  0  0  0  0  0
    2.3965   -0.0755   -0.6946 H   0  0  0  0  0  0  0  0  0  0  0  0
    2.1288   -2.2000   -0.5204 C   0  0  0  0  0  0  0  0  0  0  0  0
    2.0747   -3.2309   -1.1619 O   0  0  0  0  0  0  0  0  0  0  0  0
    2.5206   -2.3313    0.7813 N   0  0  0  0  0  0  0  0  0  0  0  0
    2.4597   -3.2839    1.1326 H   0  0  0  0  0  0  0  0  0  0  0  0
    2.3265   -1.5674    1.4154 H   0  0  0  0  0  0  0  0  0  0  0  0
   -0.4368    1.1181    0.6776 C   0  0  0  0  0  0  0  0  0  0  0  0
   -1.3776    1.7506    0.2127 O   0  0  0  0  0  0  0  0  0  0  0  0
    0.4454    1.7458    1.5382 N   0  0  0  0  0  0  0  0  0  0  0  0
    1.1628    1.1778    1.9776 H   0  0  0  0  0  0  0  0  0  0  0  0
    0.2917    3.1325    1.9629 C   0  0  0  0  0  0  0  0  0  0  0  0
   -0.6475    3.2641    2.5103 H   0  0  0  0  0  0  0  0  0  0  0  0
    1.1182    3.4212    2.6194 H   0  0  0  0  0  0  0  0  0  0  0  0
    0.2910    3.8016    1.0958 H   0  0  0  0  0  0  0  0  0  0  0  0
  1  2  1  0  0  0  0
  2  3  1  0  0  0  0
  2  4  1  0  0  0  0
  2  5  1  0  0  0  0
  5  6  2  0  0  0  0
  5  7  1  0  0  0  0
  7  8  1  0  0  0  0
  7  9  1  0  0  0  0
  9 10  1  0  0  0  0
  9 11  1  0  0  0  0
  9 22  1  0  0  0  0
 11 12  1  0  0  0  0
 11 13  1  0  0  0  0
 11 14  1  0  0  0  0
 14 15  1  0  0  0  0
 14 16  1  0  0  0  0
 14 17  1  0  0  0  0
 17 18  2  0  0  0  0
 17 19  1  0  0  0  0
 19 20  1  0  0  0  0
 19 21  1  0  0  0  0
 22 23  2  0  0  0  0
 22 24  1  0  0  0  0
 24 25  1  0  0  0  0
 24 26  1  0  0  0  0
 26 27  1  0  0  0  0
 26 28  1  0  0  0  0
 26 29  1  0  0  0  0
M  END
$$$$

  -OEChem-04042215583D

 29 28  0     1  0  0  0  0  0999 V2000
   -2.9697   -3.8871    1.6806 H   0  0  0  0  0  0  0  0  0  0  0  0
   -3.0200   -2.9505    1.1180 C   0  0  0  0  0  0  0  0  0  0  0  0
   -3.7013   -2.2680    1.6318 H   0  0  0  0  0  0  0  0  0  0  0  0
   -3.4099   -3.1600    0.1189 H   0  0  0  0  0  0  0  0  0  0  0  0
   -1.6410   -2.3272    1.0151 C   0  0  0  0  0  0  0  0  0  0  0  0
   -0.6686   -2.9054    1.4722 O   0  0  0  0  0  0  0  0  0  0  0  0
   -1.4828   -1.0958    0.4170 N   0  0  0  0  0  0  0  0  0  0  0  0
   -2.3324   -0.6040    0.1406 H   0  0  0  0  0  0  0  0  0  0  0  0
   -0.2239   -0.3403    0.3195 C   0  0  1  0  0  0  0  0  0  0  0  0
    0.4941   -0.7351    1.0437 H   0  0  0  0  0  0  0  0  0  0  0  0
    0.3470   -0.4658   -1.1126 C   0  0  0  0  0  0  0  0  0  0  0  0
   -0.1675   -1.2738   -1.6450 H   0  0  0  0  0  0  0  0  0  0  0  0
    0.1386    0.4555   -1.6686 H   0  0  0  0  0  0  0  0  0  0  0  0
    1.8608   -0.7520   -1.1689 C   0  0  0  0  0  0  0  0  0  0  0  0
    2.2042   -0.5420   -2.1866 H   0  0  0  0  0  0  0  0  0  0  0  0
    2.3841   -0.0618   -0.5018 H   0  0  0  0  0  0  0  0  0  0  0  0
    2.2987   -2.1771   -0.8265 C   0  0  0  0  0  0  0  0  0  0  0  0
    3.1235   -2.7431   -1.5175 O   0  0  0  0  0  0  0  0  0  0  0  0
    1.9445   -2.8542    0.3031 N   0  0  0  0  0  0  0  0  0  0  0  0
    2.2485   -3.8227    0.3244 H   0  0  0  0  0  0  0  0  0  0  0  0
    1.0593   -2.6206    0.7554 H   0  0  0  0  0  0  0  0  0  0  0  0
   -0.4462    1.1437    0.6752 C   0  0  0  0  0  0  0  0  0  0  0  0
   -1.4381    1.7255    0.2528 O   0  0  0  0  0  0  0  0  0  0  0  0
    0.4338    1.8058    1.5108 N   0  0  0  0  0  0  0  0  0  0  0  0
    1.2136    1.2772    1.8919 H   0  0  0  0  0  0  0  0  0  0  0  0
    0.2462    3.1874    1.9364 C   0  0  0  0  0  0  0  0  0  0  0  0
   -0.6714    3.2848    2.5259 H   0  0  0  0  0  0  0  0  0  0  0  0
    1.0903    3.5106    2.5533 H   0  0  0  0  0  0  0  0  0  0  0  0
    0.1802    3.8518    1.0683 H   0  0  0  0  0  0  0  0  0  0  0  0
  1  2  1  0  0  0  0
  2  3  1  0  0  0  0
  2  4  1  0  0  0  0
  2  5  1  0  0  0  0
  5  6  2  0  0  0  0
  5  7  1  0  0  0  0
  7  8  1  0  0  0  0
  7  9  1  0  0  0  0
  9 10  1  0  0  0  0
  9 11  1  0  0  0  0
  9 22  1  0  0  0  0
 11 12  1  0  0  0  0
 11 13  1  0  0  0  0
 11 14  1  0  0  0  0
 14 15  1  0  0  0  0
 14 16  1  0  0  0  0
 14 17  1  0  0  0  0
 17 18  2  0  0  0  0
 17 19  1  0  0  0  0
 19 20  1  0  0  0  0
 19 21  1  0  0  0  0
 22 23  2  0  0  0  0
 22 24  1  0  0  0  0
 24 25  1  0  0  0  0
 24 26  1  0  0  0  0
 26 27  1  0  0  0  0
 26 28  1  0  0  0  0
 26 29  1  0  0  0  0
M  END
$$$$

  -OEChem-04042215583D

 29 28  0     1  0  0  0  0  0999 V2000
   -2.8539   -3.9416    1.6382 H   0  0  0  0  0  0  0  0  0  0  0  0
   -2.9378   -2.9954    1.0959 C   0  0  0  0  0  0  0  0  0  0  0  0
   -3.6103   -2.3330    1.6466 H   0  0  0  0  0  0  0  0  0  0  0  0
   -3.3601   -3.1919    0.1073 H   0  0  0  0  0  0  0  0  0  0  0  0
   -1.5730   -2.3486    0.9567 C   0  0  0  0  0  0  0  0  0  0  0  0
   -0.5745   -2.9211    1.3654 O   0  0  0  0  0  0  0  0  0  0  0  0
   -1.4543   -1.1071    0.3695 N   0  0  0  0  0  0  0  0  0  0  0  0
   -2.3182   -0.6219    0.1276 H   0  0  0  0  0  0  0  0  0  0  0  0
   -0.2123   -0.3243    0.2908 C   0  0  1  0  0  0  0  0  0  0  0  0
    0.5038   -0.7157    1.0203 H   0  0  0  0  0  0  0  0  0  0  0  0
    0.3788   -0.4418   -1.1319 C   0  0  0  0  0  0  0  0  0  0  0  0
   -0.1129   -1.2508   -1.6843 H   0  0  0  0  0  0  0  0  0  0  0  0
    0.1740    0.4818   -1.6852 H   0  0  0  0  0  0  0  0  0  0  0  0
    1.8979   -0.6968   -1.1238 C   0  0  0  0  0  0  0  0  0  0  0  0
    2.3235   -0.2648   -2.0350 H   0  0  0  0  0  0  0  0  0  0  0  0
    2.3702   -0.1921   -0.2770 H   0  0  0  0  0  0  0  0  0  0  0  0
    2.2694   -2.1781   -1.1025 C   0  0  0  0  0  0  0  0  0  0  0  0
    2.9725   -2.6559   -1.9720 O   0  0  0  0  0  0  0  0  0  0  0  0
    1.9281   -3.0277   -0.0908 N   0  0  0  0  0  0  0  0  0  0  0  0
    2.1295   -4.0069   -0.2664 H   0  0  0  0  0  0  0  0  0  0  0  0
    1.1315   -2.7922    0.5041 H   0  0  0  0  0  0  0  0  0  0  0  0
   -0.4680    1.1510    0.6604 C   0  0  0  0  0  0  0  0  0  0  0  0
   -1.4729    1.7134    0.2425 O   0  0  0  0  0  0  0  0  0  0  0  0
    0.3901    1.8244    1.5098 N   0  0  0  0  0  0  0  0  0  0  0  0
    1.1812    1.3115    1.8886 H   0  0  0  0  0  0  0  0  0  0  0  0
    0.1662    3.1968    1.9482 C   0  0  0  0  0  0  0  0  0  0  0  0
   -0.7653    3.2696    2.5192 H   0  0  0  0  0  0  0  0  0  0  0  0
    0.9903    3.5289    2.5868 H   0  0  0  0  0  0  0  0  0  0  0  0
    0.1053    3.8700    1.0867 H   0  0  0  0  0  0  0  0  0  0  0  0
  1  2  1  0  0  0  0
  2  3  1  0  0  0  0
  2  4  1  0  0  0  0
  2  5  1  0  0  0  0
  5  6  2  0  0  0  0
  5  7  1  0  0  0  0
  7  8  1  0  0  0  0
  7  9  1  0  0  0  0
  9 10  1  0  0  0  0
  9 11  1  0  0  0  0
  9 22  1  0  0  0  0
 11 12  1  0  0  0  0
 11 13  1  0  0  0  0
 11 14  1  0  0  0  0
 14 15  1  0  0  0  0
 14 16  1  0  0  0  0
 14 17  1  0  0  0  0
 17 18  2  0  0  0  0
 17 19  1  0  0  0  0
 19 20  1  0  0  0  0
 19 21  1  0  0  0  0
 22 23  2  0  0  0  0
 22 24  1  0  0  0  0
 24 25  1  0  0  0  0
 24 26  1  0  0  0  0
 26 27  1  0  0  0  0
 26 28  1  0  0  0  0
 26 29  1  0  0  0  0
M  END
$$$$

  -OEChem-04042215583D

 29 28  0     1  0  0  0  0  0999 V2000
   -2.7485   -3.9819    1.5782 H   0  0  0  0  0  0  0  0  0  0  0  0
   -2.8715   -3.0195    1.0735 C   0  0  0  0  0  0  0  0  0  0  0  0
   -3.5118   -2.3805    1.6865 H   0  0  0  0  0  0  0  0  0  0  0  0
   -3.3544   -3.1868    0.1076 H   0  0  0  0  0  0  0  0  0  0  0  0
   -1.5209   -2.3596    0.8706 C   0  0  0  0  0  0  0  0  0  0  0  0
   -0.4938   -2.9449    1.1835 O   0  0  0  0  0  0  0  0  0  0  0  0
   -1.4407   -1.1084    0.2964 N   0  0  0  0  0  0  0  0  0  0  0  0
   -2.3183   -0.6216    0.1139 H   0  0  0  0  0  0  0  0  0  0  0  0
   -0.2165   -0.2968    0.2595 C   0  0  1  0  0  0  0  0  0  0  0  0
    0.4732   -0.6803    1.0180 H   0  0  0  0  0  0  0  0  0  0  0  0
    0.4261   -0.4277   -1.1363 C   0  0  0  0  0  0  0  0  0  0  0  0
   -0.0332   -1.2521   -1.6946 H   0  0  0  0  0  0  0  0  0  0  0  0
    0.2262    0.4835   -1.7116 H   0  0  0  0  0  0  0  0  0  0  0  0
    1.9491   -0.6503   -1.0487 C   0  0  0  0  0  0  0  0  0  0  0  0
    2.4388   -0.0186   -1.7964 H   0  0  0  0  0  0  0  0  0  0  0  0
    2.3485   -0.3607   -0.0735 H   0  0  0  0  0  0  0  0  0  0  0  0
    2.3229   -2.0992   -1.3439 C   0  0  0  0  0  0  0  0  0  0  0  0
    3.0164   -2.3938   -2.2982 O   0  0  0  0  0  0  0  0  0  0  0  0
    1.9339   -3.1295   -0.5356 N   0  0  0  0  0  0  0  0  0  0  0  0
    2.1052   -4.0635   -0.8940 H   0  0  0  0  0  0  0  0  0  0  0  0
    1.1754   -2.9795    0.1336 H   0  0  0  0  0  0  0  0  0  0  0  0
   -0.5009    1.1701    0.6372 C   0  0  0  0  0  0  0  0  0  0  0  0
   -1.5134    1.7154    0.2158 O   0  0  0  0  0  0  0  0  0  0  0  0
    0.3263    1.8478    1.5134 N   0  0  0  0  0  0  0  0  0  0  0  0
    1.1300    1.3516    1.8878 H   0  0  0  0  0  0  0  0  0  0  0  0
    0.0665    3.2099    1.9640 C   0  0  0  0  0  0  0  0  0  0  0  0
   -0.8868    3.2604    2.5006 H   0  0  0  0  0  0  0  0  0  0  0  0
    0.8612    3.5434    2.6385 H   0  0  0  0  0  0  0  0  0  0  0  0
    0.0276    3.8955    1.1109 H   0  0  0  0  0  0  0  0  0  0  0  0
  1  2  1  0  0  0  0
  2  3  1  0  0  0  0
  2  4  1  0  0  0  0
  2  5  1  0  0  0  0
  5  6  2  0  0  0  0
  5  7  1  0  0  0  0
  7  8  1  0  0  0  0
  7  9  1  0  0  0  0
  9 10  1  0  0  0  0
  9 11  1  0  0  0  0
  9 22  1  0  0  0  0
 11 12  1  0  0  0  0
 11 13  1  0  0  0  0
 11 14  1  0  0  0  0
 14 15  1  0  0  0  0
 14 16  1  0  0  0  0
 14 17  1  0  0  0  0
 17 18  2  0  0  0  0
 17 19  1  0  0  0  0
 19 20  1  0  0  0  0
 19 21  1  0  0  0  0
 22 23  2  0  0  0  0
 22 24  1  0  0  0  0
 24 25  1  0  0  0  0
 24 26  1  0  0  0  0
 26 27  1  0  0  0  0
 26 28  1  0  0  0  0
 26 29  1  0  0  0  0
M  END
$$$$

  -OEChem-04042215583D

 29 28  0     1  0  0  0  0  0999 V2000
   -2.6925   -3.9991    1.5150 H   0  0  0  0  0  0  0  0  0  0  0  0
   -2.8376   -3.0271    1.0355 C   0  0  0  0  0  0  0  0  0  0  0  0
   -3.4588   -2.4044    1.6839 H   0  0  0  0  0  0  0  0  0  0  0  0
   -3.3532   -3.1762    0.0837 H   0  0  0  0  0  0  0  0  0  0  0  0
   -1.4984   -2.3554    0.7990 C   0  0  0  0  0  0  0  0  0  0  0  0
   -0.4555   -2.9485    1.0425 O   0  0  0  0  0  0  0  0  0  0  0  0
   -1.4434   -1.0987    0.2325 N   0  0  0  0  0  0  0  0  0  0  0  0
   -2.3292   -0.6143    0.0876 H   0  0  0  0  0  0  0  0  0  0  0  0
   -0.2331   -0.2663    0.2421 C   0  0  1  0  0  0  0  0  0  0  0  0
    0.4207   -0.6414    1.0353 H   0  0  0  0  0  0  0  0  0  0  0  0
    0.4668   -0.4215   -1.1211 C   0  0  0  0  0  0  0  0  0  0  0  0
    0.0354   -1.2682   -1.6680 H   0  0  0  0  0  0  0  0  0  0  0  0
    0.2762    0.4667   -1.7338 H   0  0  0  0  0  0  0  0  0  0  0  0
    1.9896   -0.6222   -0.9658 C   0  0  0  0  0  0  0  0  0  0  0  0
    2.5141    0.1802   -1.4932 H   0  0  0  0  0  0  0  0  0  0  0  0
    2.3122   -0.5863    0.0772 H   0  0  0  0  0  0  0  0  0  0  0  0
    2.4138   -1.9572   -1.5626 C   0  0  0  0  0  0  0  0  0  0  0  0
    3.0983   -2.0285   -2.5650 O   0  0  0  0  0  0  0  0  0  0  0  0
    2.0373   -3.1340   -0.9774 N   0  0  0  0  0  0  0  0  0  0  0  0
    2.2144   -3.9805   -1.5086 H   0  0  0  0  0  0  0  0  0  0  0  0
    1.3068   -3.1211   -0.2629 H   0  0  0  0  0  0  0  0  0  0  0  0
   -0.5376    1.1963    0.6193 C   0  0  0  0  0  0  0  0  0  0  0  0
   -1.5476    1.7327    0.1811 O   0  0  0  0  0  0  0  0  0  0  0  0
    0.2582    1.8742    1.5239 N   0  0  0  0  0  0  0  0  0  0  0  0
    1.0603    1.3847    1.9102 H   0  0  0  0  0  0  0  0  0  0  0  0
   -0.0185    3.2347    1.9696 C   0  0  0  0  0  0  0  0  0  0  0  0
   -0.9797    3.2794    2.4922 H   0  0  0  0  0  0  0  0  0  0  0  0
    0.7643    3.5743    2.6547 H   0  0  0  0  0  0  0  0  0  0  0  0
   -0.0501    3.9194    1.1154 H   0  0  0  0  0  0  0  0  0  0  0  0
  1  2  1  0  0  0  0
  2  3  1  0  0  0  0
  2  4  1  0  0  0  0
  2  5  1  0  0  0  0
  5  6  2  0  0  0  0
  5  7  1  0  0  0  0
  7  8  1  0  0  0  0
  7  9  1  0  0  0  0
  9 10  1  0  0  0  0
  9 11  1  0  0  0  0
  9 22  1  0  0  0  0
 11 12  1  0  0  0  0
 11 13  1  0  0  0  0
 11 14  1  0  0  0  0
 14 15  1  0  0  0  0
 14 16  1  0  0  0  0
 14 17  1  0  0  0  0
 17 18  2  0  0  0  0
 17 19  1  0  0  0  0
 19 20  1  0  0  0  0
 19 21  1  0  0  0  0
 22 23  2  0  0  0  0
 22 24  1  0  0  0  0
 24 25  1  0  0  0  0
 24 26  1  0  0  0  0
 26 27  1  0  0  0  0
 26 28  1  0  0  0  0
 26 29  1  0  0  0  0
M  END
$$$$

  -OEChem-04042215583D

 29 28  0     1  0  0  0  0  0999 V2000
   -2.7852   -3.9866    1.4612 H   0  0  0  0  0  0  0  0  0  0  0  0
   -2.8996   -3.0089    0.9848 C   0  0  0  0  0  0  0  0  0  0  0  0
   -3.5490   -2.3885    1.6072 H   0  0  0  0  0  0  0  0  0  0  0  0
   -3.3671   -3.1456    0.0067 H   0  0  0  0  0  0  0  0  0  0  0  0
   -1.5459   -2.3435    0.8243 C   0  0  0  0  0  0  0  0  0  0  0  0
   -0.5273   -2.9291    1.1634 O   0  0  0  0  0  0  0  0  0  0  0  0
   -1.4549   -1.0955    0.2431 N   0  0  0  0  0  0  0  0  0  0  0  0
   -2.3296   -0.6172    0.0284 H   0  0  0  0  0  0  0  0  0  0  0  0
   -0.2426   -0.2652    0.2743 C   0  0  1  0  0  0  0  0  0  0  0  0
    0.3913   -0.6301    1.0878 H   0  0  0  0  0  0  0  0  0  0  0  0
    0.4962   -0.4125   -1.0710 C   0  0  0  0  0  0  0  0  0  0  0  0
    0.0858   -1.2781   -1.6037 H   0  0  0  0  0  0  0  0  0  0  0  0
    0.3089    0.4593   -1.7085 H   0  0  0  0  0  0  0  0  0  0  0  0
    2.0166   -0.6102   -0.8881 C   0  0  0  0  0  0  0  0  0  0  0  0
    2.5408    0.3204   -1.1255 H   0  0  0  0  0  0  0  0  0  0  0  0
    2.2703   -0.8749    0.1411 H   0  0  0  0  0  0  0  0  0  0  0  0
    2.5301   -1.7266   -1.7858 C   0  0  0  0  0  0  0  0  0  0  0  0
    3.0944   -1.4997   -2.8382 O   0  0  0  0  0  0  0  0  0  0  0  0
    2.3411   -3.0378   -1.4529 N   0  0  0  0  0  0  0  0  0  0  0  0
    2.5404   -3.7197   -2.1783 H   0  0  0  0  0  0  0  0  0  0  0  0
    1.6960   -3.2635   -0.6987 H   0  0  0  0  0  0  0  0  0  0  0  0
   -0.5613    1.2023    0.6189 C   0  0  0  0  0  0  0  0  0  0  0  0
   -1.5580    1.7309    0.1419 O   0  0  0  0  0  0  0  0  0  0  0  0
    0.2066    1.8951    1.5363 N   0  0  0  0  0  0  0  0  0  0  0  0
    1.0021    1.4150    1.9472 H   0  0  0  0  0  0  0  0  0  0  0  0
   -0.0872    3.2599    1.9563 C   0  0  0  0  0  0  0  0  0  0  0  0
   -1.0597    3.3049    2.4575 H   0  0  0  0  0  0  0  0  0  0  0  0
    0.6781    3.6144    2.6535 H   0  0  0  0  0  0  0  0  0  0  0  0
   -0.1043    3.9324    1.0921 H   0  0  0  0  0  0  0  0  0  0  0  0
  1  2  1  0  0  0  0
  2  3  1  0  0  0  0
  2  4  1  0  0  0  0
  2  5  1  0  0  0  0
  5  6  2  0  0  0  0
  5  7  1  0  0  0  0
  7  8  1  0  0  0  0
  7  9  1  0  0  0  0
  9 10  1  0  0  0  0
  9 11  1  0  0  0  0
  9 22  1  0  0  0  0
 11 12  1  0  0  0  0
 11 13  1  0  0  0  0
 11 14  1  0  0  0  0
 14 15  1  0  0  0  0
 14 16  1  0  0  0  0
 14 17  1  0  0  0  0
 17 18  2  0  0  0  0
 17 19  1  0  0  0  0
 19 20  1  0  0  0  0
 19 21  1  0  0  0  0
 22 23  2  0  0  0  0
 22 24  1  0  0  0  0
 24 25  1  0  0  0  0
 24 26  1  0  0  0  0
 26 27  1  0  0  0  0
 26 28  1  0  0  0  0
 26 29  1  0  0  0  0
M  END
$$$$

  -OEChem-04042215583D

 29 28  0     1  0  0  0  0  0999 V2000
   -2.8676   -3.9757    1.3923 H   0  0  0  0  0  0  0  0  0  0  0  0
   -2.9572   -2.9887    0.9299 C   0  0  0  0  0  0  0  0  0  0  0  0
   -3.6309   -2.3764    1.5344 H   0  0  0  0  0  0  0  0  0  0  0  0
   -3.3813   -3.1056   -0.0703 H   0  0  0  0  0  0  0  0  0  0  0  0
   -1.5949   -2.3270    0.8421 C   0  0  0  0  0  0  0  0  0  0  0  0
   -0.6044   -2.9018    1.2685 O   0  0  0  0  0  0  0  0  0  0  0  0
   -1.4689   -1.0875    0.2498 N   0  0  0  0  0  0  0  0  0  0  0  0
   -2.3289   -0.6115   -0.0220 H   0  0  0  0  0  0  0  0  0  0  0  0
   -0.2510   -0.2664    0.3041 C   0  0  1  0  0  0  0  0  0  0  0  0
    0.3678   -0.6256    1.1321 H   0  0  0  0  0  0  0  0  0  0  0  0
    0.5194   -0.4119   -1.0243 C   0  0  0  0  0  0  0  0  0  0  0  0
    0.1265   -1.2839   -1.5595 H   0  0  0  0  0  0  0  0  0  0  0  0
    0.3506    0.4561   -1.6719 H   0  0  0  0  0  0  0  0  0  0  0  0
    2.0298   -0.6172   -0.7985 C   0  0  0  0  0  0  0  0  0  0  0  0
    2.5350    0.3513   -0.7390 H   0  0  0  0  0  0  0  0  0  0  0  0
    2.2157   -1.1485    0.1388 H   0  0  0  0  0  0  0  0  0  0  0  0
    2.6399   -1.4495   -1.9170 C   0  0  0  0  0  0  0  0  0  0  0  0
    3.1276   -0.9354   -2.9045 O   0  0  0  0  0  0  0  0  0  0  0  0
    2.6208   -2.8148   -1.8799 N   0  0  0  0  0  0  0  0  0  0  0  0
    2.8760   -3.2932   -2.7389 H   0  0  0  0  0  0  0  0  0  0  0  0
    2.0474   -3.2798   -1.1818 H   0  0  0  0  0  0  0  0  0  0  0  0
   -0.5769    1.2059    0.6216 C   0  0  0  0  0  0  0  0  0  0  0  0
   -1.5558    1.7321    0.1060 O   0  0  0  0  0  0  0  0  0  0  0  0
    0.1654    1.9084    1.5526 N   0  0  0  0  0  0  0  0  0  0  0  0
    0.9393    1.4272    2.0018 H   0  0  0  0  0  0  0  0  0  0  0  0
   -0.1358    3.2795    1.9461 C   0  0  0  0  0  0  0  0  0  0  0  0
   -1.1129    3.3310    2.4376 H   0  0  0  0  0  0  0  0  0  0  0  0
    0.6227    3.6480    2.6434 H   0  0  0  0  0  0  0  0  0  0  0  0
   -0.1465    3.9370    1.0703 H   0  0  0  0  0  0  0  0  0  0  0  0
  1  2  1  0  0  0  0
  2  3  1  0  0  0  0
  2  4  1  0  0  0  0
  2  5  1  0  0  0  0
  5  6  2  0  0  0  0
  5  7  1  0  0  0  0
  7  8  1  0  0  0  0
  7  9  1  0  0  0  0
  9 10  1  0  0  0  0
  9 11  1  0  0  0  0
  9 22  1  0  0  0  0
 11 12  1  0  0  0  0
 11 13  1  0  0  0  0
 11 14  1  0  0  0  0
 14 15  1  0  0  0  0
 14 16  1  0  0  0  0
 14 17  1  0  0  0  0
 17 18  2  0  0  0  0
 17 19  1  0  0  0  0
 19 20  1  0  0  0  0
 19 21  1  0  0  0  0
 22 23  2  0  0  0  0
 22 24  1  0  0  0  0
 24 25  1  0  0  0  0
 24 26  1  0  0  0  0
 26 27  1  0  0  0  0
 26 28  1  0  0  0  0
 26 29  1  0  0  0  0
M  END
$$$$

  -OEChem-04042215583D

 29 28  0     1  0  0  0  0  0999 V2000
   -3.1643   -3.8694    1.3717 H   0  0  0  0  0  0  0  0  0  0  0  0
   -3.1921   -2.8918    0.8825 C   0  0  0  0  0  0  0  0  0  0  0  0
   -3.8800   -2.2430    1.4300 H   0  0  0  0  0  0  0  0  0  0  0  0
   -3.5576   -3.0197   -0.1392 H   0  0  0  0  0  0  0  0  0  0  0  0
   -1.8056   -2.2769    0.8633 C   0  0  0  0  0  0  0  0  0  0  0  0
   -0.8633   -2.8764    1.3587 O   0  0  0  0  0  0  0  0  0  0  0  0
   -1.6115   -1.0411    0.2815 N   0  0  0  0  0  0  0  0  0  0  0  0
   -2.4368   -0.5404   -0.0460 H   0  0  0  0  0  0  0  0  0  0  0  0
   -0.3484   -0.2906    0.3188 C   0  0  1  0  0  0  0  0  0  0  0  0
    0.2758   -0.6952    1.1217 H   0  0  0  0  0  0  0  0  0  0  0  0
    0.3800   -0.4491   -1.0318 C   0  0  0  0  0  0  0  0  0  0  0  0
   -0.0633   -1.2883   -1.5800 H   0  0  0  0  0  0  0  0  0  0  0  0
    0.2456    0.4436   -1.6538 H   0  0  0  0  0  0  0  0  0  0  0  0
    1.8797   -0.7419   -0.8378 C   0  0  0  0  0  0  0  0  0  0  0  0
    2.3975    0.1613   -0.5038 H   0  0  0  0  0  0  0  0  0  0  0  0
    2.0025   -1.5093   -0.0681 H   0  0  0  0  0  0  0  0  0  0  0  0
    2.5394   -1.2559   -2.1149 C   0  0  0  0  0  0  0  0  0  0  0  0
    2.1624   -0.9324   -3.2253 O   0  0  0  0  0  0  0  0  0  0  0  0
    3.5907   -2.1265   -2.0757 N   0  0  0  0  0  0  0  0  0  0  0  0
    3.8450   -2.5509   -2.9632 H   0  0  0  0  0  0  0  0  0  0  0  0
    3.7982   -2.6039   -1.2050 H   0  0  0  0  0  0  0  0  0  0  0  0
   -0.5886    1.1941    0.6554 C   0  0  0  0  0  0  0  0  0  0  0  0
   -1.5361    1.7868    0.1533 O   0  0  0  0  0  0  0  0  0  0  0  0
    0.2098    1.8432    1.5790 N   0  0  0  0  0  0  0  0  0  0  0  0
    0.9407    1.3033    2.0327 H   0  0  0  0  0  0  0  0  0  0  0  0
   -0.0056    3.2252    1.9898 C   0  0  0  0  0  0  0  0  0  0  0  0
   -0.9760    3.3301    2.4863 H   0  0  0  0  0  0  0  0  0  0  0  0
    0.7767    3.5389    2.6876 H   0  0  0  0  0  0  0  0  0  0  0  0
    0.0203    3.8920    1.1214 H   0  0  0  0  0  0  0  0  0  0  0  0
  1  2  1  0  0  0  0
  2  3  1  0  0  0  0
  2  4  1  0  0  0  0
  2  5  1  0  0  0  0
  5  6  2  0  0  0  0
  5  7  1  0  0  0  0
  7  8  1  0  0  0  0
  7  9  1  0  0  0  0
  9 10  1  0  0  0  0
  9 11  1  0  0  0  0
  9 22  1  0  0  0  0
 11 12  1  0  0  0  0
 11 13  1  0  0  0  0
 11 14  1  0  0  0  0
 14 15  1  0  0  0  0
 14 16  1  0  0  0  0
 14 17  1  0  0  0  0
 17 18  2  0  0  0  0
 17 19  1  0  0  0  0
 19 20  1  0  0  0  0
 19 21  1  0  0  0  0
 22 23  2  0  0  0  0
 22 24  1  0  0  0  0
 24 25  1  0  0  0  0
 24 26  1  0  0  0  0
 26 27  1  0  0  0  0
 26 28  1  0  0  0  0
 26 29  1  0  0  0  0
M  END
$$$$

  -OEChem-04042215583D

 29 28  0     1  0  0  0  0  0999 V2000
   -3.2591   -3.8082    1.3830 H   0  0  0  0  0  0  0  0  0  0  0  0
   -3.2581   -2.8307    0.8929 C   0  0  0  0  0  0  0  0  0  0  0  0
   -3.9212   -2.1597    1.4443 H   0  0  0  0  0  0  0  0  0  0  0  0
   -3.6342   -2.9472   -0.1264 H   0  0  0  0  0  0  0  0  0  0  0  0
   -1.8526   -2.2601    0.8644 C   0  0  0  0  0  0  0  0  0  0  0  0
   -0.9267   -2.8856    1.3586 O   0  0  0  0  0  0  0  0  0  0  0  0
   -1.6245   -1.0330    0.2776 N   0  0  0  0  0  0  0  0  0  0  0  0
   -2.4369   -0.5075   -0.0435 H   0  0  0  0  0  0  0  0  0  0  0  0
   -0.3447   -0.3126    0.3224 C   0  0  1  0  0  0  0  0  0  0  0  0
    0.2731   -0.7176    1.1306 H   0  0  0  0  0  0  0  0  0  0  0  0
    0.3843   -0.4893   -1.0262 C   0  0  0  0  0  0  0  0  0  0  0  0
   -0.2237   -1.0917   -1.7106 H   0  0  0  0  0  0  0  0  0  0  0  0
    0.5306    0.4859   -1.5060 H   0  0  0  0  0  0  0  0  0  0  0  0
    1.7488   -1.1742   -0.8282 C   0  0  0  0  0  0  0  0  0  0  0  0
    2.3688   -0.5745   -0.1566 H   0  0  0  0  0  0  0  0  0  0  0  0
    1.5918   -2.1525   -0.3637 H   0  0  0  0  0  0  0  0  0  0  0  0
    2.5116   -1.3728   -2.1358 C   0  0  0  0  0  0  0  0  0  0  0  0
    2.2051   -0.8218   -3.1764 O   0  0  0  0  0  0  0  0  0  0  0  0
    3.5993   -2.1953   -2.2025 N   0  0  0  0  0  0  0  0  0  0  0  0
    3.9380   -2.4049   -3.1372 H   0  0  0  0  0  0  0  0  0  0  0  0
    3.7734   -2.8409   -1.4396 H   0  0  0  0  0  0  0  0  0  0  0  0
   -0.5765    1.1764    0.6498 C   0  0  0  0  0  0  0  0  0  0  0  0
   -1.5210    1.7706    0.1433 O   0  0  0  0  0  0  0  0  0  0  0  0
    0.2151    1.8239    1.5803 N   0  0  0  0  0  0  0  0  0  0  0  0
    0.9462    1.2846    2.0347 H   0  0  0  0  0  0  0  0  0  0  0  0
   -0.0133    3.2004    2.0031 C   0  0  0  0  0  0  0  0  0  0  0  0
   -0.9926    3.2960    2.4837 H   0  0  0  0  0  0  0  0  0  0  0  0
    0.7549    3.5083    2.7187 H   0  0  0  0  0  0  0  0  0  0  0  0
    0.0246    3.8778    1.1434 H   0  0  0  0  0  0  0  0  0  0  0  0
  1  2  1  0  0  0  0
  2  3  1  0  0  0  0
  2  4  1  0  0  0  0
  2  5  1  0  0  0  0
  5  6  2  0  0  0  0
  5  7  1  0  0  0  0
  7  8  1  0  0  0  0
  7  9  1  0  0  0  0
  9 10  1  0  0  0  0
  9 11  1  0  0  0  0
  9 22  1  0  0  0  0
 11 12  1  0  0  0  0
 11 13  1  0  0  0  0
 11 14  1  0  0  0  0
 14 15  1  0  0  0  0
 14 16  1  0  0  0  0
 14 17  1  0  0  0  0
 17 18  2  0  0  0  0
 17 19  1  0  0  0  0
 19 20  1  0  0  0  0
 19 21  1  0  0  0  0
 22 23  2  0  0  0  0
 22 24  1  0  0  0  0
 24 25  1  0  0  0  0
 24 26  1  0  0  0  0
 26 27  1  0  0  0  0
 26 28  1  0  0  0  0
 26 29  1  0  0  0  0
M  END
$$$$

  -OEChem-04042215583D

 29 28  0     1  0  0  0  0  0999 V2000
   -3.2901   -3.8102    1.3729 H   0  0  0  0  0  0  0  0  0  0  0  0
   -3.2869   -2.8315    0.8849 C   0  0  0  0  0  0  0  0  0  0  0  0
   -3.9571   -2.1632    1.4310 H   0  0  0  0  0  0  0  0  0  0  0  0
   -3.6524   -2.9469   -0.1384 H   0  0  0  0  0  0  0  0  0  0  0  0
   -1.8826   -2.2579    0.8708 C   0  0  0  0  0  0  0  0  0  0  0  0
   -0.9603   -2.8848    1.3700 O   0  0  0  0  0  0  0  0  0  0  0  0
   -1.6497   -1.0308    0.2852 N   0  0  0  0  0  0  0  0  0  0  0  0
   -2.4589   -0.5036   -0.0409 H   0  0  0  0  0  0  0  0  0  0  0  0
   -0.3654   -0.3186    0.3282 C   0  0  1  0  0  0  0  0  0  0  0  0
    0.2479   -0.7307    1.1358 H   0  0  0  0  0  0  0  0  0  0  0  0
    0.3576   -0.5068   -1.0232 C   0  0  0  0  0  0  0  0  0  0  0  0
   -0.2540   -1.0943   -1.7169 H   0  0  0  0  0  0  0  0  0  0  0  0
    0.5092    0.4743   -1.4890 H   0  0  0  0  0  0  0  0  0  0  0  0
    1.7202   -1.2024   -0.8332 C   0  0  0  0  0  0  0  0  0  0  0  0
    2.2496   -0.7457    0.0074 H   0  0  0  0  0  0  0  0  0  0  0  0
    1.5535   -2.2569   -0.5943 H   0  0  0  0  0  0  0  0  0  0  0  0
    2.6348   -1.0991   -2.0521 C   0  0  0  0  0  0  0  0  0  0  0  0
    2.3492   -0.4721   -3.0547 O   0  0  0  0  0  0  0  0  0  0  0  0
    3.8429   -1.7346   -2.0795 N   0  0  0  0  0  0  0  0  0  0  0  0
    4.3054   -1.7674   -2.9836 H   0  0  0  0  0  0  0  0  0  0  0  0
    4.0412   -2.4403   -1.3784 H   0  0  0  0  0  0  0  0  0  0  0  0
   -0.5804    1.1723    0.6588 C   0  0  0  0  0  0  0  0  0  0  0  0
   -1.5174    1.7792    0.1538 O   0  0  0  0  0  0  0  0  0  0  0  0
    0.2220    1.8086    1.5879 N   0  0  0  0  0  0  0  0  0  0  0  0
    0.9511    1.2617    2.0360 H   0  0  0  0  0  0  0  0  0  0  0  0
    0.0276    3.1944    1.9962 C   0  0  0  0  0  0  0  0  0  0  0  0
   -0.9519    3.3208    2.4692 H   0  0  0  0  0  0  0  0  0  0  0  0
    0.7989    3.4890    2.7142 H   0  0  0  0  0  0  0  0  0  0  0  0
    0.0900    3.8614    1.1300 H   0  0  0  0  0  0  0  0  0  0  0  0
  1  2  1  0  0  0  0
  2  3  1  0  0  0  0
  2  4  1  0  0  0  0
  2  5  1  0  0  0  0
  5  6  2  0  0  0  0
  5  7  1  0  0  0  0
  7  8  1  0  0  0  0
  7  9  1  0  0  0  0
  9 10  1  0  0  0  0
  9 11  1  0  0  0  0
  9 22  1  0  0  0  0
 11 12  1  0  0  0  0
 11 13  1  0  0  0  0
 11 14  1  0  0  0  0
 14 15  1  0  0  0  0
 14 16  1  0  0  0  0
 14 17  1  0  0  0  0
 17 18  2  0  0  0  0
 17 19  1  0  0  0  0
 19 20  1  0  0  0  0
 19 21  1  0  0  0  0
 22 23  2  0  0  0  0
 22 24  1  0  0  0  0
 24 25  1  0  0  0  0
 24 26  1  0  0  0  0
 26 27  1  0  0  0  0
 26 28  1  0  0  0  0
 26 29  1  0  0  0  0
M  END
$$$$

  -OEChem-04042215583D

 29 28  0     1  0  0  0  0  0999 V2000
   -3.3440   -3.7790    1.4031 H   0  0  0  0  0  0  0  0  0  0  0  0
   -3.3230   -2.8122    0.8925 C   0  0  0  0  0  0  0  0  0  0  0  0
   -3.9891   -2.1225    1.4166 H   0  0  0  0  0  0  0  0  0  0  0  0
   -3.6812   -2.9462   -0.1311 H   0  0  0  0  0  0  0  0  0  0  0  0
   -1.9105   -2.2590    0.8771 C   0  0  0  0  0  0  0  0  0  0  0  0
   -0.9964   -2.8995    1.3738 O   0  0  0  0  0  0  0  0  0  0  0  0
   -1.6618   -1.0350    0.2921 N   0  0  0  0  0  0  0  0  0  0  0  0
   -2.4652   -0.4957   -0.0288 H   0  0  0  0  0  0  0  0  0  0  0  0
   -0.3701   -0.3364    0.3348 C   0  0  1  0  0  0  0  0  0  0  0  0
    0.2361   -0.7550    1.1440 H   0  0  0  0  0  0  0  0  0  0  0  0
    0.3483   -0.5280   -1.0203 C   0  0  0  0  0  0  0  0  0  0  0  0
   -0.2735   -1.0985   -1.7189 H   0  0  0  0  0  0  0  0  0  0  0  0
    0.4977    0.4595   -1.4724 H   0  0  0  0  0  0  0  0  0  0  0  0
    1.7116   -1.2391   -0.8597 C   0  0  0  0  0  0  0  0  0  0  0  0
    2.1472   -0.9866    0.1104 H   0  0  0  0  0  0  0  0  0  0  0  0
    1.5577   -2.3218   -0.8826 H   0  0  0  0  0  0  0  0  0  0  0  0
    2.7471   -0.8477   -1.9133 C   0  0  0  0  0  0  0  0  0  0  0  0
    2.4981   -0.1494   -2.8777 O   0  0  0  0  0  0  0  0  0  0  0  0
    4.0353   -1.2927   -1.8329 N   0  0  0  0  0  0  0  0  0  0  0  0
    4.6050   -1.1434   -2.6608 H   0  0  0  0  0  0  0  0  0  0  0  0
    4.2534   -2.0491   -1.1933 H   0  0  0  0  0  0  0  0  0  0  0  0
   -0.5753    1.1564    0.6654 C   0  0  0  0  0  0  0  0  0  0  0  0
   -1.5127    1.7663    0.1643 O   0  0  0  0  0  0  0  0  0  0  0  0
    0.2293    1.7897    1.5945 N   0  0  0  0  0  0  0  0  0  0  0  0
    0.9688    1.2459    2.0292 H   0  0  0  0  0  0  0  0  0  0  0  0
    0.0479    3.1804    1.9925 C   0  0  0  0  0  0  0  0  0  0  0  0
   -0.9423    3.3263    2.4370 H   0  0  0  0  0  0  0  0  0  0  0  0
    0.8034    3.4645    2.7313 H   0  0  0  0  0  0  0  0  0  0  0  0
    0.1462    3.8427    1.1259 H   0  0  0  0  0  0  0  0  0  0  0  0
  1  2  1  0  0  0  0
  2  3  1  0  0  0  0
  2  4  1  0  0  0  0
  2  5  1  0  0  0  0
  5  6  2  0  0  0  0
  5  7  1  0  0  0  0
  7  8  1  0  0  0  0
  7  9  1  0  0  0  0
  9 10  1  0  0  0  0
  9 11  1  0  0  0  0
  9 22  1  0  0  0  0
 11 12  1  0  0  0  0
 11 13  1  0  0  0  0
 11 14  1  0  0  0  0
 14 15  1  0  0  0  0
 14 16  1  0  0  0  0
 14 17  1  0  0  0  0
 17 18  2  0  0  0  0
 17 19  1  0  0  0  0
 19 20  1  0  0  0  0
 19 21  1  0  0  0  0
 22 23  2  0  0  0  0
 22 24  1  0  0  0  0
 24 25  1  0  0  0  0
 24 26  1  0  0  0  0
 26 27  1  0  0  0  0
 26 28  1  0  0  0  0
 26 29  1  0  0  0  0
M  END
$$$$

  -OEChem-04042215583D

 29 28  0     1  0  0  0  0  0999 V2000
   -3.3538   -3.8015    1.3188 H   0  0  0  0  0  0  0  0  0  0  0  0
   -3.3047   -2.8281    0.8226 C   0  0  0  0  0  0  0  0  0  0  0  0
   -3.9964   -2.1438    1.3199 H   0  0  0  0  0  0  0  0  0  0  0  0
   -3.6085   -2.9489   -0.2200 H   0  0  0  0  0  0  0  0  0  0  0  0
   -1.8928   -2.2773    0.8903 C   0  0  0  0  0  0  0  0  0  0  0  0
   -1.0244   -2.8940    1.4877 O   0  0  0  0  0  0  0  0  0  0  0  0
   -1.5910   -1.0878    0.2605 N   0  0  0  0  0  0  0  0  0  0  0  0
   -2.3690   -0.5611   -0.1350 H   0  0  0  0  0  0  0  0  0  0  0  0
   -0.3220   -0.3636    0.4198 C   0  0  1  0  0  0  0  0  0  0  0  0
    0.1727   -0.7160    1.3298 H   0  0  0  0  0  0  0  0  0  0  0  0
    0.5751   -0.6156   -0.8124 C   0  0  0  0  0  0  0  0  0  0  0  0
    0.0537   -1.2452   -1.5410 H   0  0  0  0  0  0  0  0  0  0  0  0
    0.7662    0.3420   -1.3121 H   0  0  0  0  0  0  0  0  0  0  0  0
    1.9175   -1.2840   -0.4414 C   0  0  0  0  0  0  0  0  0  0  0  0
    2.1161   -1.2125    0.6311 H   0  0  0  0  0  0  0  0  0  0  0  0
    1.8797   -2.3482   -0.6904 H   0  0  0  0  0  0  0  0  0  0  0  0
    3.0858   -0.6197   -1.1555 C   0  0  0  0  0  0  0  0  0  0  0  0
    3.4994    0.4700   -0.8079 O   0  0  0  0  0  0  0  0  0  0  0  0
    3.6695   -1.1697   -2.2607 N   0  0  0  0  0  0  0  0  0  0  0  0
    4.3067   -0.5720   -2.7793 H   0  0  0  0  0  0  0  0  0  0  0  0
    3.2332   -1.9692   -2.7075 H   0  0  0  0  0  0  0  0  0  0  0  0
   -0.5769    1.1435    0.6248 C   0  0  0  0  0  0  0  0  0  0  0  0
   -1.4539    1.7002   -0.0266 O   0  0  0  0  0  0  0  0  0  0  0  0
    0.1002    1.8467    1.6030 N   0  0  0  0  0  0  0  0  0  0  0  0
    0.8690    1.3735    2.0702 H   0  0  0  0  0  0  0  0  0  0  0  0
   -0.0758    3.2772    1.8204 C   0  0  0  0  0  0  0  0  0  0  0  0
   -1.1215    3.5048    2.0529 H   0  0  0  0  0  0  0  0  0  0  0  0
    0.5437    3.6112    2.6583 H   0  0  0  0  0  0  0  0  0  0  0  0
    0.2174    3.8385    0.9271 H   0  0  0  0  0  0  0  0  0  0  0  0
  1  2  1  0  0  0  0
  2  3  1  0  0  0  0
  2  4  1  0  0  0  0
  2  5  1  0  0  0  0
  5  6  2  0  0  0  0
  5  7  1  0  0  0  0
  7  8  1  0  0  0  0
  7  9  1  0  0  0  0
  9 10  1  0  0  0  0
  9 11  1  0  0  0  0
  9 22  1  0  0  0  0
 11 12  1  0  0  0  0
 11 13  1  0  0  0  0
 11 14  1  0  0  0  0
 14 15  1  0  0  0  0
 14 16  1  0  0  0  0
 14 17  1  0  0  0  0
 17 18  2  0  0  0  0
 17 19  1  0  0  0  0
 19 20  1  0  0  0  0
 19 21  1  0  0  0  0
 22 23  2  0  0  0  0
 22 24  1  0  0  0  0
 24 25  1  0  0  0  0
 24 26  1  0  0  0  0
 26 27  1  0  0  0  0
 26 28  1  0  0  0  0
 26 29  1  0  0  0  0
M  END
$$$$

  -OEChem-04042215583D

 29 28  0     1  0  0  0  0  0999 V2000
   -3.4312   -3.7720    1.3473 H   0  0  0  0  0  0  0  0  0  0  0  0
   -3.3753   -2.8029    0.8437 C   0  0  0  0  0  0  0  0  0  0  0  0
   -4.0442   -2.1033    1.3509 H   0  0  0  0  0  0  0  0  0  0  0  0
   -3.7034   -2.9248   -0.1914 H   0  0  0  0  0  0  0  0  0  0  0  0
   -1.9527   -2.2767    0.8782 C   0  0  0  0  0  0  0  0  0  0  0  0
   -1.0778   -2.9179    1.4396 O   0  0  0  0  0  0  0  0  0  0  0  0
   -1.6494   -1.0816    0.2594 N   0  0  0  0  0  0  0  0  0  0  0  0
   -2.4297   -0.5355   -0.1043 H   0  0  0  0  0  0  0  0  0  0  0  0
   -0.3665   -0.3776    0.3989 C   0  0  1  0  0  0  0  0  0  0  0  0
    0.1370   -0.7467    1.2971 H   0  0  0  0  0  0  0  0  0  0  0  0
    0.5137   -0.6137   -0.8481 C   0  0  0  0  0  0  0  0  0  0  0  0
   -0.0268   -1.2463   -1.5602 H   0  0  0  0  0  0  0  0  0  0  0  0
    0.6943    0.3393   -1.3605 H   0  0  0  0  0  0  0  0  0  0  0  0
    1.8560   -1.3007   -0.5051 C   0  0  0  0  0  0  0  0  0  0  0  0
    1.9419   -1.5320    0.5596 H   0  0  0  0  0  0  0  0  0  0  0  0
    1.9142   -2.2529   -1.0395 H   0  0  0  0  0  0  0  0  0  0  0  0
    3.0403   -0.4325   -0.9039 C   0  0  0  0  0  0  0  0  0  0  0  0
    3.2602    0.6213   -0.3364 O   0  0  0  0  0  0  0  0  0  0  0  0
    3.8772   -0.7624   -1.9313 N   0  0  0  0  0  0  0  0  0  0  0  0
    4.7153   -0.1963   -2.0284 H   0  0  0  0  0  0  0  0  0  0  0  0
    3.8436   -1.7003   -2.3161 H   0  0  0  0  0  0  0  0  0  0  0  0
   -0.5877    1.1304    0.6334 C   0  0  0  0  0  0  0  0  0  0  0  0
   -1.4857    1.7081    0.0301 O   0  0  0  0  0  0  0  0  0  0  0  0
    0.1291    1.8021    1.6053 N   0  0  0  0  0  0  0  0  0  0  0  0
    0.9435    1.3252    1.9842 H   0  0  0  0  0  0  0  0  0  0  0  0
   -0.0002    3.2357    1.8329 C   0  0  0  0  0  0  0  0  0  0  0  0
   -1.0327    3.4927    2.0918 H   0  0  0  0  0  0  0  0  0  0  0  0
    0.6484    3.5464    2.6577 H   0  0  0  0  0  0  0  0  0  0  0  0
    0.2885    3.7927    0.9353 H   0  0  0  0  0  0  0  0  0  0  0  0
  1  2  1  0  0  0  0
  2  3  1  0  0  0  0
  2  4  1  0  0  0  0
  2  5  1  0  0  0  0
  5  6  2  0  0  0  0
  5  7  1  0  0  0  0
  7  8  1  0  0  0  0
  7  9  1  0  0  0  0
  9 10  1  0  0  0  0
  9 11  1  0  0  0  0
  9 22  1  0  0  0  0
 11 12  1  0  0  0  0
 11 13  1  0  0  0  0
 11 14  1  0  0  0  0
 14 15  1  0  0  0  0
 14 16  1  0  0  0  0
 14 17  1  0  0  0  0
 17 18  2  0  0  0  0
 17 19  1  0  0  0  0
 19 20  1  0  0  0  0
 19 21  1  0  0  0  0
 22 23  2  0  0  0  0
 22 24  1  0  0  0  0
 24 25  1  0  0  0  0
 24 26  1  0  0  0  0
 26 27  1  0  0  0  0
 26 28  1  0  0  0  0
 26 29  1  0  0  0  0
M  END
$$$$

  -OEChem-04042215583D

 29 28  0     1  0  0  0  0  0999 V2000
   -3.4898   -3.7380    1.3523 H   0  0  0  0  0  0  0  0  0  0  0  0
   -3.4273   -2.7610    0.8648 C   0  0  0  0  0  0  0  0  0  0  0  0
   -4.0589   -2.0544    1.4089 H   0  0  0  0  0  0  0  0  0  0  0  0
   -3.7954   -2.8543   -0.1597 H   0  0  0  0  0  0  0  0  0  0  0  0
   -1.9917   -2.2712    0.8566 C   0  0  0  0  0  0  0  0  0  0  0  0
   -1.1143   -2.9417    1.3787 O   0  0  0  0  0  0  0  0  0  0  0  0
   -1.6811   -1.0768    0.2409 N   0  0  0  0  0  0  0  0  0  0  0  0
   -2.4615   -0.5036   -0.0783 H   0  0  0  0  0  0  0  0  0  0  0  0
   -0.3827   -0.3987    0.3608 C   0  0  1  0  0  0  0  0  0  0  0  0
    0.1267   -0.7810    1.2509 H   0  0  0  0  0  0  0  0  0  0  0  0
    0.4895   -0.6307   -0.8899 C   0  0  0  0  0  0  0  0  0  0  0  0
   -0.0620   -1.2668   -1.5903 H   0  0  0  0  0  0  0  0  0  0  0  0
    0.6814    0.3138   -1.4135 H   0  0  0  0  0  0  0  0  0  0  0  0
    1.8156   -1.3376   -0.5349 C   0  0  0  0  0  0  0  0  0  0  0  0
    1.7747   -1.8402    0.4355 H   0  0  0  0  0  0  0  0  0  0  0  0
    2.0038   -2.1136   -1.2817 H   0  0  0  0  0  0  0  0  0  0  0  0
    2.9799   -0.3580   -0.5639 C   0  0  0  0  0  0  0  0  0  0  0  0
    2.9896    0.6124    0.1726 O   0  0  0  0  0  0  0  0  0  0  0  0
    4.0358   -0.4935   -1.4195 N   0  0  0  0  0  0  0  0  0  0  0  0
    4.8275    0.1226   -1.2587 H   0  0  0  0  0  0  0  0  0  0  0  0
    4.1602   -1.3690   -1.9168 H   0  0  0  0  0  0  0  0  0  0  0  0
   -0.5674    1.1113    0.6128 C   0  0  0  0  0  0  0  0  0  0  0  0
   -1.4918    1.7026    0.0638 O   0  0  0  0  0  0  0  0  0  0  0  0
    0.1851    1.7560    1.5755 N   0  0  0  0  0  0  0  0  0  0  0  0
    1.0543    1.2957    1.8421 H   0  0  0  0  0  0  0  0  0  0  0  0
    0.0584    3.1829    1.8424 C   0  0  0  0  0  0  0  0  0  0  0  0
   -0.9624    3.4254    2.1559 H   0  0  0  0  0  0  0  0  0  0  0  0
    0.7430    3.4787    2.6430 H   0  0  0  0  0  0  0  0  0  0  0  0
    0.2999    3.7635    0.9460 H   0  0  0  0  0  0  0  0  0  0  0  0
  1  2  1  0  0  0  0
  2  3  1  0  0  0  0
  2  4  1  0  0  0  0
  2  5  1  0  0  0  0
  5  6  2  0  0  0  0
  5  7  1  0  0  0  0
  7  8  1  0  0  0  0
  7  9  1  0  0  0  0
  9 10  1  0  0  0  0
  9 11  1  0  0  0  0
  9 22  1  0  0  0  0
 11 12  1  0  0  0  0
 11 13  1  0  0  0  0
 11 14  1  0  0  0  0
 14 15  1  0  0  0  0
 14 16  1  0  0  0  0
 14 17  1  0  0  0  0
 17 18  2  0  0  0  0
 17 19  1  0  0  0  0
 19 20  1  0  0  0  0
 19 21  1  0  0  0  0
 22 23  2  0  0  0  0
 22 24  1  0  0  0  0
 24 25  1  0  0  0  0
 24 26  1  0  0  0  0
 26 27  1  0  0  0  0
 26 28  1  0  0  0  0
 26 29  1  0  0  0  0
M  END
$$$$

  -OEChem-04042215583D

 29 28  0     1  0  0  0  0  0999 V2000
   -3.5128   -3.7148    1.3629 H   0  0  0  0  0  0  0  0  0  0  0  0
   -3.4468   -2.7388    0.8739 C   0  0  0  0  0  0  0  0  0  0  0  0
   -4.0562   -2.0234    1.4313 H   0  0  0  0  0  0  0  0  0  0  0  0
   -3.8381   -2.8268   -0.1424 H   0  0  0  0  0  0  0  0  0  0  0  0
   -2.0050   -2.2689    0.8354 C   0  0  0  0  0  0  0  0  0  0  0  0
   -1.1247   -2.9601    1.3242 O   0  0  0  0  0  0  0  0  0  0  0  0
   -1.6931   -1.0694    0.2302 N   0  0  0  0  0  0  0  0  0  0  0  0
   -2.4741   -0.4823   -0.0609 H   0  0  0  0  0  0  0  0  0  0  0  0
   -0.3866   -0.4047    0.3394 C   0  0  1  0  0  0  0  0  0  0  0  0
    0.1350   -0.8029    1.2162 H   0  0  0  0  0  0  0  0  0  0  0  0
    0.4668   -0.6380   -0.9238 C   0  0  0  0  0  0  0  0  0  0  0  0
   -0.0988   -1.2648   -1.6212 H   0  0  0  0  0  0  0  0  0  0  0  0
    0.6718    0.3066   -1.4416 H   0  0  0  0  0  0  0  0  0  0  0  0
    1.7841   -1.3603   -0.5775 C   0  0  0  0  0  0  0  0  0  0  0  0
    1.6498   -2.0663    0.2478 H   0  0  0  0  0  0  0  0  0  0  0  0
    2.0959   -1.9432   -1.4482 H   0  0  0  0  0  0  0  0  0  0  0  0
    2.8958   -0.3718   -0.2468 C   0  0  0  0  0  0  0  0  0  0  0  0
    2.7530    0.4719    0.6215 O   0  0  0  0  0  0  0  0  0  0  0  0
    4.0880   -0.3622   -0.9125 N   0  0  0  0  0  0  0  0  0  0  0  0
    4.8176    0.2246   -0.5178 H   0  0  0  0  0  0  0  0  0  0  0  0
    4.3299   -1.1517   -1.5022 H   0  0  0  0  0  0  0  0  0  0  0  0
   -0.5589    1.1035    0.6133 C   0  0  0  0  0  0  0  0  0  0  0  0
   -1.4905    1.7065    0.0891 O   0  0  0  0  0  0  0  0  0  0  0  0
    0.2118    1.7289    1.5734 N   0  0  0  0  0  0  0  0  0  0  0  0
    1.1043    1.2731    1.7756 H   0  0  0  0  0  0  0  0  0  0  0  0
    0.0941    3.1507    1.8674 C   0  0  0  0  0  0  0  0  0  0  0  0
   -0.9222    3.3910    2.1965 H   0  0  0  0  0  0  0  0  0  0  0  0
    0.7885    3.4283    2.6661 H   0  0  0  0  0  0  0  0  0  0  0  0
    0.3284    3.7468    0.9794 H   0  0  0  0  0  0  0  0  0  0  0  0
  1  2  1  0  0  0  0
  2  3  1  0  0  0  0
  2  4  1  0  0  0  0
  2  5  1  0  0  0  0
  5  6  2  0  0  0  0
  5  7  1  0  0  0  0
  7  8  1  0  0  0  0
  7  9  1  0  0  0  0
  9 10  1  0  0  0  0
  9 11  1  0  0  0  0
  9 22  1  0  0  0  0
 11 12  1  0  0  0  0
 11 13  1  0  0  0  0
 11 14  1  0  0  0  0
 14 15  1  0  0  0  0
 14 16  1  0  0  0  0
 14 17  1  0  0  0  0
 17 18  2  0  0  0  0
 17 19  1  0  0  0  0
 19 20  1  0  0  0  0
 19 21  1  0  0  0  0
 22 23  2  0  0  0  0
 22 24  1  0  0  0  0
 24 25  1  0  0  0  0
 24 26  1  0  0  0  0
 26 27  1  0  0  0  0
 26 28  1  0  0  0  0
 26 29  1  0  0  0  0
M  END
$$$$

  -OEChem-04042215583D

 29 28  0     1  0  0  0  0  0999 V2000
   -3.4380   -3.7368    1.3776 H   0  0  0  0  0  0  0  0  0  0  0  0
   -3.3956   -2.7522    0.9038 C   0  0  0  0  0  0  0  0  0  0  0  0
   -3.9987   -2.0535    1.4888 H   0  0  0  0  0  0  0  0  0  0  0  0
   -3.8116   -2.8278   -0.1037 H   0  0  0  0  0  0  0  0  0  0  0  0
   -1.9604   -2.2654    0.8367 C   0  0  0  0  0  0  0  0  0  0  0  0
   -1.0587   -2.9575    1.2843 O   0  0  0  0  0  0  0  0  0  0  0  0
   -1.6791   -1.0504    0.2482 N   0  0  0  0  0  0  0  0  0  0  0  0
   -2.4741   -0.4638   -0.0039 H   0  0  0  0  0  0  0  0  0  0  0  0
   -0.3773   -0.3732    0.3370 C   0  0  1  0  0  0  0  0  0  0  0  0
    0.1887   -0.7854    1.1795 H   0  0  0  0  0  0  0  0  0  0  0  0
    0.4171   -0.5703   -0.9720 C   0  0  0  0  0  0  0  0  0  0  0  0
   -0.1792   -1.1668   -1.6703 H   0  0  0  0  0  0  0  0  0  0  0  0
    0.6032    0.3952   -1.4561 H   0  0  0  0  0  0  0  0  0  0  0  0
    1.7575   -1.2951   -0.7309 C   0  0  0  0  0  0  0  0  0  0  0  0
    1.5928   -2.1818   -0.1109 H   0  0  0  0  0  0  0  0  0  0  0  0
    2.1346   -1.6383   -1.6980 H   0  0  0  0  0  0  0  0  0  0  0  0
    2.8404   -0.4306   -0.0884 C   0  0  0  0  0  0  0  0  0  0  0  0
    2.5954    0.4651    0.7005 O   0  0  0  0  0  0  0  0  0  0  0  0
    4.1644   -0.6480   -0.3403 N   0  0  0  0  0  0  0  0  0  0  0  0
    4.8198   -0.1636    0.2663 H   0  0  0  0  0  0  0  0  0  0  0  0
    4.4395   -1.5066   -0.8058 H   0  0  0  0  0  0  0  0  0  0  0  0
   -0.5935    1.1247    0.6475 C   0  0  0  0  0  0  0  0  0  0  0  0
   -1.5524    1.7084    0.1499 O   0  0  0  0  0  0  0  0  0  0  0  0
    0.1726    1.7621    1.6028 N   0  0  0  0  0  0  0  0  0  0  0  0
    1.0828    1.3293    1.7787 H   0  0  0  0  0  0  0  0  0  0  0  0
    0.0192    3.1765    1.9169 C   0  0  0  0  0  0  0  0  0  0  0  0
   -0.9985    3.3851    2.2633 H   0  0  0  0  0  0  0  0  0  0  0  0
    0.7167    3.4629    2.7099 H   0  0  0  0  0  0  0  0  0  0  0  0
    0.2247    3.7895    1.0332 H   0  0  0  0  0  0  0  0  0  0  0  0
  1  2  1  0  0  0  0
  2  3  1  0  0  0  0
  2  4  1  0  0  0  0
  2  5  1  0  0  0  0
  5  6  2  0  0  0  0
  5  7  1  0  0  0  0
  7  8  1  0  0  0  0
  7  9  1  0  0  0  0
  9 10  1  0  0  0  0
  9 11  1  0  0  0  0
  9 22  1  0  0  0  0
 11 12  1  0  0  0  0
 11 13  1  0  0  0  0
 11 14  1  0  0  0  0
 14 15  1  0  0  0  0
 14 16  1  0  0  0  0
 14 17  1  0  0  0  0
 17 18  2  0  0  0  0
 17 19  1  0  0  0  0
 19 20  1  0  0  0  0
 19 21  1  0  0  0  0
 22 23  2  0  0  0  0
 22 24  1  0  0  0  0
 24 25  1  0  0  0  0
 24 26  1  0  0  0  0
 26 27  1  0  0  0  0
 26 28  1  0  0  0  0
 26 29  1  0  0  0  0
M  END
$$$$

  -OEChem-04042215583D

 29 28  0     1  0  0  0  0  0999 V2000
   -3.3375   -3.7364    1.4813 H   0  0  0  0  0  0  0  0  0  0  0  0
   -3.3190   -2.7889    0.9355 C   0  0  0  0  0  0  0  0  0  0  0  0
   -3.9372   -2.0632    1.4696 H   0  0  0  0  0  0  0  0  0  0  0  0
   -3.7359   -2.9470   -0.0620 H   0  0  0  0  0  0  0  0  0  0  0  0
   -1.8956   -2.2756    0.8258 C   0  0  0  0  0  0  0  0  0  0  0  0
   -0.9660   -2.9599    1.2262 O   0  0  0  0  0  0  0  0  0  0  0  0
   -1.6566   -1.0436    0.2542 N   0  0  0  0  0  0  0  0  0  0  0  0
   -2.4701   -0.4669    0.0404 H   0  0  0  0  0  0  0  0  0  0  0  0
   -0.3666   -0.3423    0.3208 C   0  0  1  0  0  0  0  0  0  0  0  0
    0.2312   -0.7624    1.1363 H   0  0  0  0  0  0  0  0  0  0  0  0
    0.3864   -0.4987   -1.0193 C   0  0  0  0  0  0  0  0  0  0  0  0
   -0.2267   -1.0728   -1.7218 H   0  0  0  0  0  0  0  0  0  0  0  0
    0.5462    0.4877   -1.4697 H   0  0  0  0  0  0  0  0  0  0  0  0
    1.7529   -1.2026   -0.8668 C   0  0  0  0  0  0  0  0  0  0  0  0
    1.5789   -2.2117   -0.4811 H   0  0  0  0  0  0  0  0  0  0  0  0
    2.2031   -1.3007   -1.8581 H   0  0  0  0  0  0  0  0  0  0  0  0
    2.7718   -0.5176    0.0450 C   0  0  0  0  0  0  0  0  0  0  0  0
    2.5534    0.5141    0.6548 O   0  0  0  0  0  0  0  0  0  0  0  0
    4.0086   -1.0592    0.2439 N   0  0  0  0  0  0  0  0  0  0  0  0
    4.5603   -0.6513    0.9930 H   0  0  0  0  0  0  0  0  0  0  0  0
    4.1796   -2.0140   -0.0543 H   0  0  0  0  0  0  0  0  0  0  0  0
   -0.6124    1.1439    0.6684 C   0  0  0  0  0  0  0  0  0  0  0  0
   -1.6003    1.7113    0.2103 O   0  0  0  0  0  0  0  0  0  0  0  0
    0.1618    1.7829    1.6161 N   0  0  0  0  0  0  0  0  0  0  0  0
    1.0887    1.3725    1.7537 H   0  0  0  0  0  0  0  0  0  0  0  0
   -0.0165    3.1876    1.9585 C   0  0  0  0  0  0  0  0  0  0  0  0
   -1.0353    3.3697    2.3160 H   0  0  0  0  0  0  0  0  0  0  0  0
    0.6814    3.4722    2.7515 H   0  0  0  0  0  0  0  0  0  0  0  0
    0.1706    3.8216    1.0857 H   0  0  0  0  0  0  0  0  0  0  0  0
  1  2  1  0  0  0  0
  2  3  1  0  0  0  0
  2  4  1  0  0  0  0
  2  5  1  0  0  0  0
  5  6  2  0  0  0  0
  5  7  1  0  0  0  0
  7  8  1  0  0  0  0
  7  9  1  0  0  0  0
  9 10  1  0  0  0  0
  9 11  1  0  0  0  0
  9 22  1  0  0  0  0
 11 12  1  0  0  0  0
 11 13  1  0  0  0  0
 11 14  1  0  0  0  0
 14 15  1  0  0  0  0
 14 16  1  0  0  0  0
 14 17  1  0  0  0  0
 17 18  2  0  0  0  0
 17 19  1  0  0  0  0
 19 20  1  0  0  0  0
 19 21  1  0  0  0  0
 22 23  2  0  0  0  0
 22 24  1  0  0  0  0
 24 25  1  0  0  0  0
 24 26  1  0  0  0  0
 26 27  1  0  0  0  0
 26 28  1  0  0  0  0
 26 29  1  0  0  0  0
M  END
$$$$

  -OEChem-04042215583D

 29 28  0     1  0  0  0  0  0999 V2000
   -3.1989   -3.8489    1.4077 H   0  0  0  0  0  0  0  0  0  0  0  0
   -3.2266   -2.8592    0.9434 C   0  0  0  0  0  0  0  0  0  0  0  0
   -3.8412   -2.1983    1.5595 H   0  0  0  0  0  0  0  0  0  0  0  0
   -3.6790   -2.9473   -0.0473 H   0  0  0  0  0  0  0  0  0  0  0  0
   -1.8223   -2.2975    0.8234 C   0  0  0  0  0  0  0  0  0  0  0  0
   -0.8650   -2.9585    1.1984 O   0  0  0  0  0  0  0  0  0  0  0  0
   -1.6290   -1.0522    0.2624 N   0  0  0  0  0  0  0  0  0  0  0  0
   -2.4618   -0.4985    0.0635 H   0  0  0  0  0  0  0  0  0  0  0  0
   -0.3562   -0.3187    0.3071 C   0  0  1  0  0  0  0  0  0  0  0  0
    0.2549   -0.7374    1.1119 H   0  0  0  0  0  0  0  0  0  0  0  0
    0.3759   -0.4519   -1.0486 C   0  0  0  0  0  0  0  0  0  0  0  0
   -0.2391   -1.0225   -1.7524 H   0  0  0  0  0  0  0  0  0  0  0  0
    0.5061    0.5466   -1.4811 H   0  0  0  0  0  0  0  0  0  0  0  0
    1.7677   -1.1183   -0.9510 C   0  0  0  0  0  0  0  0  0  0  0  0
    1.6098   -2.1916   -0.8101 H   0  0  0  0  0  0  0  0  0  0  0  0
    2.2958   -0.9842   -1.8990 H   0  0  0  0  0  0  0  0  0  0  0  0
    2.6762   -0.6360    0.1809 C   0  0  0  0  0  0  0  0  0  0  0  0
    2.5931    0.4741    0.6770 O   0  0  0  0  0  0  0  0  0  0  0  0
    3.6121   -1.4594    0.7366 N   0  0  0  0  0  0  0  0  0  0  0  0
    4.0302   -1.1371    1.6043 H   0  0  0  0  0  0  0  0  0  0  0  0
    3.5624   -2.4534    0.5368 H   0  0  0  0  0  0  0  0  0  0  0  0
   -0.6071    1.1597    0.6782 C   0  0  0  0  0  0  0  0  0  0  0  0
   -1.6109    1.7229    0.2520 O   0  0  0  0  0  0  0  0  0  0  0  0
    0.1889    1.7931    1.6117 N   0  0  0  0  0  0  0  0  0  0  0  0
    1.1184    1.3825    1.7306 H   0  0  0  0  0  0  0  0  0  0  0  0
    0.0151    3.1946    1.9689 C   0  0  0  0  0  0  0  0  0  0  0  0
   -0.9913    3.3687    2.3638 H   0  0  0  0  0  0  0  0  0  0  0  0
    0.7397    3.4790    2.7380 H   0  0  0  0  0  0  0  0  0  0  0  0
    0.1669    3.8348    1.0937 H   0  0  0  0  0  0  0  0  0  0  0  0
  1  2  1  0  0  0  0
  2  3  1  0  0  0  0
  2  4  1  0  0  0  0
  2  5  1  0  0  0  0
  5  6  2  0  0  0  0
  5  7  1  0  0  0  0
  7  8  1  0  0  0  0
  7  9  1  0  0  0  0
  9 10  1  0  0  0  0
  9 11  1  0  0  0  0
  9 22  1  0  0  0  0
 11 12  1  0  0  0  0
 11 13  1  0  0  0  0
 11 14  1  0  0  0  0
 14 15  1  0  0  0  0
 14 16  1  0  0  0  0
 14 17  1  0  0  0  0
 17 18  2  0  0  0  0
 17 19  1  0  0  0  0
 19 20  1  0  0  0  0
 19 21  1  0  0  0  0
 22 23  2  0  0  0  0
 22 24  1  0  0  0  0
 24 25  1  0  0  0  0
 24 26  1  0  0  0  0
 26 27  1  0  0  0  0
 26 28  1  0  0  0  0
 26 29  1  0  0  0  0
M  END
$$$$

  -OEChem-04042215583D

 29 28  0     1  0  0  0  0  0999 V2000
   -3.0202   -3.9465    1.4067 H   0  0  0  0  0  0  0  0  0  0  0  0
   -3.0977   -2.9535    0.9552 C   0  0  0  0  0  0  0  0  0  0  0  0
   -3.7126   -2.3209    1.6001 H   0  0  0  0  0  0  0  0  0  0  0  0
   -3.5815   -3.0465   -0.0201 H   0  0  0  0  0  0  0  0  0  0  0  0
   -1.7184   -2.3426    0.7936 C   0  0  0  0  0  0  0  0  0  0  0  0
   -0.7251   -2.9769    1.1216 O   0  0  0  0  0  0  0  0  0  0  0  0
   -1.5861   -1.0818    0.2481 N   0  0  0  0  0  0  0  0  0  0  0  0
   -2.4430   -0.5541    0.0850 H   0  0  0  0  0  0  0  0  0  0  0  0
   -0.3383   -0.3069    0.2802 C   0  0  1  0  0  0  0  0  0  0  0  0
    0.2656   -0.7200    1.0896 H   0  0  0  0  0  0  0  0  0  0  0  0
    0.3993   -0.4183   -1.0770 C   0  0  0  0  0  0  0  0  0  0  0  0
   -0.2013   -1.0023   -1.7824 H   0  0  0  0  0  0  0  0  0  0  0  0
    0.4897    0.5869   -1.5043 H   0  0  0  0  0  0  0  0  0  0  0  0
    1.8202   -1.0304   -1.0089 C   0  0  0  0  0  0  0  0  0  0  0  0
    1.7246   -2.1122   -1.1391 H   0  0  0  0  0  0  0  0  0  0  0  0
    2.4184   -0.6542   -1.8433 H   0  0  0  0  0  0  0  0  0  0  0  0
    2.5872   -0.7902    0.2905 C   0  0  0  0  0  0  0  0  0  0  0  0
    2.7189    0.3253    0.7652 O   0  0  0  0  0  0  0  0  0  0  0  0
    2.9656   -1.8257    1.0950 N   0  0  0  0  0  0  0  0  0  0  0  0
    3.2064   -1.5714    2.0483 H   0  0  0  0  0  0  0  0  0  0  0  0
    2.5468   -2.7347    0.9161 H   0  0  0  0  0  0  0  0  0  0  0  0
   -0.5826    1.1629    0.6772 C   0  0  0  0  0  0  0  0  0  0  0  0
   -1.5983    1.7301    0.2887 O   0  0  0  0  0  0  0  0  0  0  0  0
    0.2434    1.7773    1.5978 N   0  0  0  0  0  0  0  0  0  0  0  0
    1.1662    1.3503    1.7119 H   0  0  0  0  0  0  0  0  0  0  0  0
    0.0828    3.1712    1.9894 C   0  0  0  0  0  0  0  0  0  0  0  0
   -0.9091    3.3372    2.4228 H   0  0  0  0  0  0  0  0  0  0  0  0
    0.8341    3.4405    2.7380 H   0  0  0  0  0  0  0  0  0  0  0  0
    0.2039    3.8289    1.1224 H   0  0  0  0  0  0  0  0  0  0  0  0
  1  2  1  0  0  0  0
  2  3  1  0  0  0  0
  2  4  1  0  0  0  0
  2  5  1  0  0  0  0
  5  6  2  0  0  0  0
  5  7  1  0  0  0  0
  7  8  1  0  0  0  0
  7  9  1  0  0  0  0
  9 10  1  0  0  0  0
  9 11  1  0  0  0  0
  9 22  1  0  0  0  0
 11 12  1  0  0  0  0
 11 13  1  0  0  0  0
 11 14  1  0  0  0  0
 14 15  1  0  0  0  0
 14 16  1  0  0  0  0
 14 17  1  0  0  0  0
 17 18  2  0  0  0  0
 17 19  1  0  0  0  0
 19 20  1  0  0  0  0
 19 21  1  0  0  0  0
 22 23  2  0  0  0  0
 22 24  1  0  0  0  0
 24 25  1  0  0  0  0
 24 26  1  0  0  0  0
 26 27  1  0  0  0  0
 26 28  1  0  0  0  0
 26 29  1  0  0  0  0
M  END
$$$$

  -OEChem-04042215583D

 29 28  0     1  0  0  0  0  0999 V2000
   -2.9194   -4.0011    1.4040 H   0  0  0  0  0  0  0  0  0  0  0  0
   -3.0247   -3.0167    0.9393 C   0  0  0  0  0  0  0  0  0  0  0  0
   -3.6541   -2.3919    1.5777 H   0  0  0  0  0  0  0  0  0  0  0  0
   -3.5084   -3.1353   -0.0332 H   0  0  0  0  0  0  0  0  0  0  0  0
   -1.6631   -2.3713    0.7646 C   0  0  0  0  0  0  0  0  0  0  0  0
   -0.6481   -2.9850    1.0696 O   0  0  0  0  0  0  0  0  0  0  0  0
   -1.5668   -1.1055    0.2214 N   0  0  0  0  0  0  0  0  0  0  0  0
   -2.4380   -0.5998    0.0646 H   0  0  0  0  0  0  0  0  0  0  0  0
   -0.3402   -0.2991    0.2708 C   0  0  1  0  0  0  0  0  0  0  0  0
    0.2305   -0.6919    1.1102 H   0  0  0  0  0  0  0  0  0  0  0  0
    0.4384   -0.4250   -1.0640 C   0  0  0  0  0  0  0  0  0  0  0  0
   -0.1332   -1.0441   -1.7635 H   0  0  0  0  0  0  0  0  0  0  0  0
    0.5022    0.5702   -1.5184 H   0  0  0  0  0  0  0  0  0  0  0  0
    1.8780   -0.9967   -0.9736 C   0  0  0  0  0  0  0  0  0  0  0  0
    1.8633   -2.0219   -1.3545 H   0  0  0  0  0  0  0  0  0  0  0  0
    2.5363   -0.4203   -1.6297 H   0  0  0  0  0  0  0  0  0  0  0  0
    2.5003   -1.0358    0.4192 C   0  0  0  0  0  0  0  0  0  0  0  0
    2.7989   -0.0083    1.0045 O   0  0  0  0  0  0  0  0  0  0  0  0
    2.4770   -2.1695    1.1789 N   0  0  0  0  0  0  0  0  0  0  0  0
    2.6340   -2.0165    2.1702 H   0  0  0  0  0  0  0  0  0  0  0  0
    1.8038   -2.8843    0.9046 H   0  0  0  0  0  0  0  0  0  0  0  0
   -0.5810    1.1687    0.6643 C   0  0  0  0  0  0  0  0  0  0  0  0
   -1.5852    1.7466    0.2645 O   0  0  0  0  0  0  0  0  0  0  0  0
    0.2497    1.7700    1.5901 N   0  0  0  0  0  0  0  0  0  0  0  0
    1.1423    1.3028    1.7668 H   0  0  0  0  0  0  0  0  0  0  0  0
    0.0992    3.1576    2.0064 C   0  0  0  0  0  0  0  0  0  0  0  0
   -0.8997    3.3281    2.4214 H   0  0  0  0  0  0  0  0  0  0  0  0
    0.8371    3.4014    2.7767 H   0  0  0  0  0  0  0  0  0  0  0  0
    0.2480    3.8312    1.1561 H   0  0  0  0  0  0  0  0  0  0  0  0
  1  2  1  0  0  0  0
  2  3  1  0  0  0  0
  2  4  1  0  0  0  0
  2  5  1  0  0  0  0
  5  6  2  0  0  0  0
  5  7  1  0  0  0  0
  7  8  1  0  0  0  0
  7  9  1  0  0  0  0
  9 10  1  0  0  0  0
  9 11  1  0  0  0  0
  9 22  1  0  0  0  0
 11 12  1  0  0  0  0
 11 13  1  0  0  0  0
 11 14  1  0  0  0  0
 14 15  1  0  0  0  0
 14 16  1  0  0  0  0
 14 17  1  0  0  0  0
 17 18  2  0  0  0  0
 17 19  1  0  0  0  0
 19 20  1  0  0  0  0
 19 21  1  0  0  0  0
 22 23  2  0  0  0  0
 22 24  1  0  0  0  0
 24 25  1  0  0  0  0
 24 26  1  0  0  0  0
 26 27  1  0  0  0  0
 26 28  1  0  0  0  0
 26 29  1  0  0  0  0
M  END
$$$$

  -OEChem-04042215583D

 29 28  0     1  0  0  0  0  0999 V2000
   -2.9741   -3.9757    1.3818 H   0  0  0  0  0  0  0  0  0  0  0  0
   -3.0458   -2.9987    0.8957 C   0  0  0  0  0  0  0  0  0  0  0  0
   -3.6951   -2.3550    1.4943 H   0  0  0  0  0  0  0  0  0  0  0  0
   -3.4874   -3.1292   -0.0952 H   0  0  0  0  0  0  0  0  0  0  0  0
   -1.6693   -2.3736    0.7709 C   0  0  0  0  0  0  0  0  0  0  0  0
   -0.6768   -3.0053    1.1046 O   0  0  0  0  0  0  0  0  0  0  0  0
   -1.5343   -1.1159    0.2201 N   0  0  0  0  0  0  0  0  0  0  0  0
   -2.3965   -0.6114    0.0158 H   0  0  0  0  0  0  0  0  0  0  0  0
   -0.3119   -0.3017    0.2983 C   0  0  1  0  0  0  0  0  0  0  0  0
    0.2447   -0.6744    1.1571 H   0  0  0  0  0  0  0  0  0  0  0  0
    0.4972   -0.4464   -1.0177 C   0  0  0  0  0  0  0  0  0  0  0  0
   -0.0609   -1.0918   -1.7045 H   0  0  0  0  0  0  0  0  0  0  0  0
    0.5521    0.5346   -1.5028 H   0  0  0  0  0  0  0  0  0  0  0  0
    1.9405   -1.0094   -0.9139 C   0  0  0  0  0  0  0  0  0  0  0  0
    2.0100   -1.9068   -1.5352 H   0  0  0  0  0  0  0  0  0  0  0  0
    2.6334   -0.2757   -1.3365 H   0  0  0  0  0  0  0  0  0  0  0  0
    2.4463   -1.3716    0.4789 C   0  0  0  0  0  0  0  0  0  0  0  0
    2.9103   -0.5149    1.2110 O   0  0  0  0  0  0  0  0  0  0  0  0
    2.2336   -2.5936    1.0454 N   0  0  0  0  0  0  0  0  0  0  0  0
    2.3997   -2.6167    2.0464 H   0  0  0  0  0  0  0  0  0  0  0  0
    1.4276   -3.1124    0.6946 H   0  0  0  0  0  0  0  0  0  0  0  0
   -0.5846    1.1685    0.6595 C   0  0  0  0  0  0  0  0  0  0  0  0
   -1.5653    1.7353    0.1921 O   0  0  0  0  0  0  0  0  0  0  0  0
    0.1999    1.8006    1.6052 N   0  0  0  0  0  0  0  0  0  0  0  0
    1.0456    1.3154    1.9062 H   0  0  0  0  0  0  0  0  0  0  0  0
    0.0024    3.1859    2.0116 C   0  0  0  0  0  0  0  0  0  0  0  0
   -1.0153    3.3348    2.3874 H   0  0  0  0  0  0  0  0  0  0  0  0
    0.7047    3.4485    2.8087 H   0  0  0  0  0  0  0  0  0  0  0  0
    0.1684    3.8610    1.1656 H   0  0  0  0  0  0  0  0  0  0  0  0
  1  2  1  0  0  0  0
  2  3  1  0  0  0  0
  2  4  1  0  0  0  0
  2  5  1  0  0  0  0
  5  6  2  0  0  0  0
  5  7  1  0  0  0  0
  7  8  1  0  0  0  0
  7  9  1  0  0  0  0
  9 10  1  0  0  0  0
  9 11  1  0  0  0  0
  9 22  1  0  0  0  0
 11 12  1  0  0  0  0
 11 13  1  0  0  0  0
 11 14  1  0  0  0  0
 14 15  1  0  0  0  0
 14 16  1  0  0  0  0
 14 17  1  0  0  0  0
 17 18  2  0  0  0  0
 17 19  1  0  0  0  0
 19 20  1  0  0  0  0
 19 21  1  0  0  0  0
 22 23  2  0  0  0  0
 22 24  1  0  0  0  0
 24 25  1  0  0  0  0
 24 26  1  0  0  0  0
 26 27  1  0  0  0  0
 26 28  1  0  0  0  0
 26 29  1  0  0  0  0
M  END
$$$$

  -OEChem-04042215583D

 29 28  0     1  0  0  0  0  0999 V2000
   -3.0757   -3.9215    1.3498 H   0  0  0  0  0  0  0  0  0  0  0  0
   -3.0936   -2.9543    0.8398 C   0  0  0  0  0  0  0  0  0  0  0  0
   -3.7633   -2.2832    1.3835 H   0  0  0  0  0  0  0  0  0  0  0  0
   -3.4758   -3.0965   -0.1739 H   0  0  0  0  0  0  0  0  0  0  0  0
   -1.6973   -2.3637    0.7889 C   0  0  0  0  0  0  0  0  0  0  0  0
   -0.7475   -3.0086    1.2017 O   0  0  0  0  0  0  0  0  0  0  0  0
   -1.5011   -1.1215    0.2243 N   0  0  0  0  0  0  0  0  0  0  0  0
   -2.3418   -0.6150   -0.0531 H   0  0  0  0  0  0  0  0  0  0  0  0
   -0.2770   -0.3104    0.3353 C   0  0  1  0  0  0  0  0  0  0  0  0
    0.2714   -0.6659    1.2092 H   0  0  0  0  0  0  0  0  0  0  0  0
    0.5690   -0.4613   -0.9568 C   0  0  0  0  0  0  0  0  0  0  0  0
    0.0296   -1.1279   -1.6382 H   0  0  0  0  0  0  0  0  0  0  0  0
    0.6273    0.5072   -1.4663 H   0  0  0  0  0  0  0  0  0  0  0  0
    2.0073   -1.0247   -0.8160 C   0  0  0  0  0  0  0  0  0  0  0  0
    2.1926   -1.7272   -1.6333 H   0  0  0  0  0  0  0  0  0  0  0  0
    2.7085   -0.1951   -0.9480 H   0  0  0  0  0  0  0  0  0  0  0  0
    2.3775   -1.7115    0.4953 C   0  0  0  0  0  0  0  0  0  0  0  0
    2.9089   -1.0806    1.3914 O   0  0  0  0  0  0  0  0  0  0  0  0
    2.1046   -3.0199    0.7586 N   0  0  0  0  0  0  0  0  0  0  0  0
    2.2278   -3.2633    1.7366 H   0  0  0  0  0  0  0  0  0  0  0  0
    1.2798   -3.3957    0.2954 H   0  0  0  0  0  0  0  0  0  0  0  0
   -0.5887    1.1641    0.6465 C   0  0  0  0  0  0  0  0  0  0  0  0
   -1.5366    1.7121    0.0963 O   0  0  0  0  0  0  0  0  0  0  0  0
    0.1353    1.8363    1.6124 N   0  0  0  0  0  0  0  0  0  0  0  0
    0.9226    1.3465    2.0348 H   0  0  0  0  0  0  0  0  0  0  0  0
   -0.1207    3.2203    1.9896 C   0  0  0  0  0  0  0  0  0  0  0  0
   -1.1545    3.3405    2.3300 H   0  0  0  0  0  0  0  0  0  0  0  0
    0.5466    3.5189    2.8036 H   0  0  0  0  0  0  0  0  0  0  0  0
    0.0506    3.8869    1.1381 H   0  0  0  0  0  0  0  0  0  0  0  0
  1  2  1  0  0  0  0
  2  3  1  0  0  0  0
  2  4  1  0  0  0  0
  2  5  1  0  0  0  0
  5  6  2  0  0  0  0
  5  7  1  0  0  0  0
  7  8  1  0  0  0  0
  7  9  1  0  0  0  0
  9 10  1  0  0  0  0
  9 11  1  0  0  0  0
  9 22  1  0  0  0  0
 11 12  1  0  0  0  0
 11 13  1  0  0  0  0
 11 14  1  0  0  0  0
 14 15  1  0  0  0  0
 14 16  1  0  0  0  0
 14 17  1  0  0  0  0
 17 18  2  0  0  0  0
 17 19  1  0  0  0  0
 19 20  1  0  0  0  0
 19 21  1  0  0  0  0
 22 23  2  0  0  0  0
 22 24  1  0  0  0  0
 24 25  1  0  0  0  0
 24 26  1  0  0  0  0
 26 27  1  0  0  0  0
 26 28  1  0  0  0  0
 26 29  1  0  0  0  0
M  END
$$$$

  -OEChem-04042215583D

 29 28  0     1  0  0  0  0  0999 V2000
   -3.4546   -3.7183    1.4924 H   0  0  0  0  0  0  0  0  0  0  0  0
   -3.3640   -2.8146    0.8833 C   0  0  0  0  0  0  0  0  0  0  0  0
   -4.1142   -2.0914    1.2117 H   0  0  0  0  0  0  0  0  0  0  0  0
   -3.5492   -3.0746   -0.1617 H   0  0  0  0  0  0  0  0  0  0  0  0
   -1.9746   -2.2242    1.0301 C   0  0  0  0  0  0  0  0  0  0  0  0
   -1.1577   -2.7609    1.7601 O   0  0  0  0  0  0  0  0  0  0  0  0
   -1.6659   -1.0351    0.4013 N   0  0  0  0  0  0  0  0  0  0  0  0
   -2.4122   -0.5590   -0.1018 H   0  0  0  0  0  0  0  0  0  0  0  0
   -0.3333   -0.4153    0.3904 C   0  0  1  0  0  0  0  0  0  0  0  0
    0.2901   -0.8435    1.1779 H   0  0  0  0  0  0  0  0  0  0  0  0
    0.3048   -0.6041   -1.0165 C   0  0  0  0  0  0  0  0  0  0  0  0
   -0.4138   -1.1469   -1.6405 H   0  0  0  0  0  0  0  0  0  0  0  0
    0.4488    0.3690   -1.4998 H   0  0  0  0  0  0  0  0  0  0  0  0
    1.6378   -1.3840   -1.0985 C   0  0  0  0  0  0  0  0  0  0  0  0
    1.7216   -1.8432   -2.0882 H   0  0  0  0  0  0  0  0  0  0  0  0
    2.4589   -0.6683   -1.0066 H   0  0  0  0  0  0  0  0  0  0  0  0
    1.8540   -2.4634   -0.0430 C   0  0  0  0  0  0  0  0  0  0  0  0
    1.5143   -3.6118   -0.2463 O   0  0  0  0  0  0  0  0  0  0  0  0
    2.5516   -2.2332    1.1093 N   0  0  0  0  0  0  0  0  0  0  0  0
    2.7852   -3.0614    1.6505 H   0  0  0  0  0  0  0  0  0  0  0  0
    3.1135   -1.3941    1.1885 H   0  0  0  0  0  0  0  0  0  0  0  0
   -0.4602    1.0933    0.6845 C   0  0  0  0  0  0  0  0  0  0  0  0
   -1.3067    1.7626    0.1029 O   0  0  0  0  0  0  0  0  0  0  0  0
    0.3980    1.7049    1.5793 N   0  0  0  0  0  0  0  0  0  0  0  0
    0.9936    1.0991    2.1364 H   0  0  0  0  0  0  0  0  0  0  0  0
    0.2782    3.1076    1.9585 C   0  0  0  0  0  0  0  0  0  0  0  0
   -0.6880    3.2928    2.4396 H   0  0  0  0  0  0  0  0  0  0  0  0
    1.0730    3.3791    2.6598 H   0  0  0  0  0  0  0  0  0  0  0  0
    0.3626    3.7525    1.0774 H   0  0  0  0  0  0  0  0  0  0  0  0
  1  2  1  0  0  0  0
  2  3  1  0  0  0  0
  2  4  1  0  0  0  0
  2  5  1  0  0  0  0
  5  6  2  0  0  0  0
  5  7  1  0  0  0  0
  7  8  1  0  0  0  0
  7  9  1  0  0  0  0
  9 10  1  0  0  0  0
  9 11  1  0  0  0  0
  9 22  1  0  0  0  0
 11 12  1  0  0  0  0
 11 13  1  0  0  0  0
 11 14  1  0  0  0  0
 14 15  1  0  0  0  0
 14 16  1  0  0  0  0
 14 17  1  0  0  0  0
 17 18  2  0  0  0  0
 17 19  1  0  0  0  0
 19 20  1  0  0  0  0
 19 21  1  0  0  0  0
 22 23  2  0  0  0  0
 22 24  1  0  0  0  0
 24 25  1  0  0  0  0
 24 26  1  0  0  0  0
 26 27  1  0  0  0  0
 26 28  1  0  0  0  0
 26 29  1  0  0  0  0
M  END
$$$$

  -OEChem-04042215583D

 29 28  0     1  0  0  0  0  0999 V2000
   -3.2165   -3.8493    1.5121 H   0  0  0  0  0  0  0  0  0  0  0  0
   -3.1899   -2.9325    0.9167 C   0  0  0  0  0  0  0  0  0  0  0  0
   -3.9570   -2.2486    1.2874 H   0  0  0  0  0  0  0  0  0  0  0  0
   -3.4055   -3.1831   -0.1248 H   0  0  0  0  0  0  0  0  0  0  0  0
   -1.8226   -2.2842    1.0176 C   0  0  0  0  0  0  0  0  0  0  0  0
   -0.9431   -2.8102    1.6835 O   0  0  0  0  0  0  0  0  0  0  0  0
   -1.5916   -1.0657    0.4108 N   0  0  0  0  0  0  0  0  0  0  0  0
   -2.3747   -0.6053   -0.0498 H   0  0  0  0  0  0  0  0  0  0  0  0
   -0.2804   -0.4059    0.3599 C   0  0  1  0  0  0  0  0  0  0  0  0
    0.3968   -0.8334    1.1015 H   0  0  0  0  0  0  0  0  0  0  0  0
    0.3022   -0.5258   -1.0751 C   0  0  0  0  0  0  0  0  0  0  0  0
   -0.4192   -1.0631   -1.7009 H   0  0  0  0  0  0  0  0  0  0  0  0
    0.4179    0.4674   -1.5234 H   0  0  0  0  0  0  0  0  0  0  0  0
    1.6491   -1.2688   -1.1905 C   0  0  0  0  0  0  0  0  0  0  0  0
    1.8509   -1.4905   -2.2427 H   0  0  0  0  0  0  0  0  0  0  0  0
    2.4486   -0.6128   -0.8362 H   0  0  0  0  0  0  0  0  0  0  0  0
    1.7137   -2.5705   -0.3947 C   0  0  0  0  0  0  0  0  0  0  0  0
    1.2827   -3.6021   -0.8722 O   0  0  0  0  0  0  0  0  0  0  0  0
    2.2698   -2.6678    0.8490 N   0  0  0  0  0  0  0  0  0  0  0  0
    1.9999   -3.5099    1.3526 H   0  0  0  0  0  0  0  0  0  0  0  0
    2.4253   -1.8147    1.3703 H   0  0  0  0  0  0  0  0  0  0  0  0
   -0.4450    1.0891    0.7092 C   0  0  0  0  0  0  0  0  0  0  0  0
   -1.3428    1.7428    0.1909 O   0  0  0  0  0  0  0  0  0  0  0  0
    0.4285    1.7090    1.5842 N   0  0  0  0  0  0  0  0  0  0  0  0
    1.0981    1.1236    2.0738 H   0  0  0  0  0  0  0  0  0  0  0  0
    0.2923    3.1039    1.9870 C   0  0  0  0  0  0  0  0  0  0  0  0
   -0.6597    3.2624    2.5047 H   0  0  0  0  0  0  0  0  0  0  0  0
    1.1054    3.3842    2.6637 H   0  0  0  0  0  0  0  0  0  0  0  0
    0.3312    3.7611    1.1118 H   0  0  0  0  0  0  0  0  0  0  0  0
  1  2  1  0  0  0  0
  2  3  1  0  0  0  0
  2  4  1  0  0  0  0
  2  5  1  0  0  0  0
  5  6  2  0  0  0  0
  5  7  1  0  0  0  0
  7  8  1  0  0  0  0
  7  9  1  0  0  0  0
  9 10  1  0  0  0  0
  9 11  1  0  0  0  0
  9 22  1  0  0  0  0
 11 12  1  0  0  0  0
 11 13  1  0  0  0  0
 11 14  1  0  0  0  0
 14 15  1  0  0  0  0
 14 16  1  0  0  0  0
 14 17  1  0  0  0  0
 17 18  2  0  0  0  0
 17 19  1  0  0  0  0
 19 20  1  0  0  0  0
 19 21  1  0  0  0  0
 22 23  2  0  0  0  0
 22 24  1  0  0  0  0
 24 25  1  0  0  0  0
 24 26  1  0  0  0  0
 26 27  1  0  0  0  0
 26 28  1  0  0  0  0
 26 29  1  0  0  0  0
M  END
$$$$

  -OEChem-04042215583D

 29 28  0     1  0  0  0  0  0999 V2000
   -3.0977   -3.9181    1.4940 H   0  0  0  0  0  0  0  0  0  0  0  0
   -3.0997   -2.9925    0.9117 C   0  0  0  0  0  0  0  0  0  0  0  0
   -3.8682   -2.3262    1.3110 H   0  0  0  0  0  0  0  0  0  0  0  0
   -3.3375   -3.2311   -0.1278 H   0  0  0  0  0  0  0  0  0  0  0  0
   -1.7404   -2.3242    0.9884 C   0  0  0  0  0  0  0  0  0  0  0  0
   -0.8317   -2.8533    1.6118 O   0  0  0  0  0  0  0  0  0  0  0  0
   -1.5481   -1.0900    0.4009 N   0  0  0  0  0  0  0  0  0  0  0  0
   -2.3541   -0.6377   -0.0276 H   0  0  0  0  0  0  0  0  0  0  0  0
   -0.2589   -0.3890    0.3361 C   0  0  1  0  0  0  0  0  0  0  0  0
    0.4468   -0.8144    1.0543 H   0  0  0  0  0  0  0  0  0  0  0  0
    0.3018   -0.4863   -1.1065 C   0  0  0  0  0  0  0  0  0  0  0  0
   -0.4081   -1.0290   -1.7413 H   0  0  0  0  0  0  0  0  0  0  0  0
    0.4024    0.5152   -1.5397 H   0  0  0  0  0  0  0  0  0  0  0  0
    1.6669   -1.1919   -1.1961 C   0  0  0  0  0  0  0  0  0  0  0  0
    1.9983   -1.2102   -2.2385 H   0  0  0  0  0  0  0  0  0  0  0  0
    2.4118   -0.6329   -0.6237 H   0  0  0  0  0  0  0  0  0  0  0  0
    1.6107   -2.6284   -0.6828 C   0  0  0  0  0  0  0  0  0  0  0  0
    1.1267   -3.5113   -1.3648 O   0  0  0  0  0  0  0  0  0  0  0  0
    2.0641   -2.9963    0.5510 N   0  0  0  0  0  0  0  0  0  0  0  0
    1.6850   -3.8855    0.8683 H   0  0  0  0  0  0  0  0  0  0  0  0
    2.1894   -2.2625    1.2367 H   0  0  0  0  0  0  0  0  0  0  0  0
   -0.4536    1.0953    0.7122 C   0  0  0  0  0  0  0  0  0  0  0  0
   -1.3838    1.7308    0.2301 O   0  0  0  0  0  0  0  0  0  0  0  0
    0.4228    1.7224    1.5788 N   0  0  0  0  0  0  0  0  0  0  0  0
    1.1343    1.1513    2.0250 H   0  0  0  0  0  0  0  0  0  0  0  0
    0.2686    3.1093    2.0018 C   0  0  0  0  0  0  0  0  0  0  0  0
   -0.6750    3.2438    2.5411 H   0  0  0  0  0  0  0  0  0  0  0  0
    1.0904    3.3959    2.6650 H   0  0  0  0  0  0  0  0  0  0  0  0
    0.2771    3.7776    1.1344 H   0  0  0  0  0  0  0  0  0  0  0  0
  1  2  1  0  0  0  0
  2  3  1  0  0  0  0
  2  4  1  0  0  0  0
  2  5  1  0  0  0  0
  5  6  2  0  0  0  0
  5  7  1  0  0  0  0
  7  8  1  0  0  0  0
  7  9  1  0  0  0  0
  9 10  1  0  0  0  0
  9 11  1  0  0  0  0
  9 22  1  0  0  0  0
 11 12  1  0  0  0  0
 11 13  1  0  0  0  0
 11 14  1  0  0  0  0
 14 15  1  0  0  0  0
 14 16  1  0  0  0  0
 14 17  1  0  0  0  0
 17 18  2  0  0  0  0
 17 19  1  0  0  0  0
 19 20  1  0  0  0  0
 19 21  1  0  0  0  0
 22 23  2  0  0  0  0
 22 24  1  0  0  0  0
 24 25  1  0  0  0  0
 24 26  1  0  0  0  0
 26 27  1  0  0  0  0
 26 28  1  0  0  0  0
 26 29  1  0  0  0  0
M  END
$$$$

  -OEChem-04042215583D

 29 28  0     1  0  0  0  0  0999 V2000
   -3.0006   -3.9627    1.5296 H   0  0  0  0  0  0  0  0  0  0  0  0
   -3.0348   -3.0098    0.9940 C   0  0  0  0  0  0  0  0  0  0  0  0
   -3.7730   -2.3624    1.4736 H   0  0  0  0  0  0  0  0  0  0  0  0
   -3.3407   -3.1974   -0.0382 H   0  0  0  0  0  0  0  0  0  0  0  0
   -1.6708   -2.3471    1.0164 C   0  0  0  0  0  0  0  0  0  0  0  0
   -0.7369   -2.8780    1.5971 O   0  0  0  0  0  0  0  0  0  0  0  0
   -1.4930   -1.1162    0.4225 N   0  0  0  0  0  0  0  0  0  0  0  0
   -2.3214   -0.6515    0.0520 H   0  0  0  0  0  0  0  0  0  0  0  0
   -0.2233   -0.3785    0.3448 C   0  0  1  0  0  0  0  0  0  0  0  0
    0.4991   -0.7815    1.0609 H   0  0  0  0  0  0  0  0  0  0  0  0
    0.3458   -0.4604   -1.0944 C   0  0  0  0  0  0  0  0  0  0  0  0
   -0.3480   -1.0103   -1.7405 H   0  0  0  0  0  0  0  0  0  0  0  0
    0.4231    0.5490   -1.5146 H   0  0  0  0  0  0  0  0  0  0  0  0
    1.7350   -1.1171   -1.1907 C   0  0  0  0  0  0  0  0  0  0  0  0
    2.1593   -0.8836   -2.1722 H   0  0  0  0  0  0  0  0  0  0  0  0
    2.4032   -0.6863   -0.4402 H   0  0  0  0  0  0  0  0  0  0  0  0
    1.7327   -2.6367   -1.0388 C   0  0  0  0  0  0  0  0  0  0  0  0
    1.9095   -3.3537   -2.0048 O   0  0  0  0  0  0  0  0  0  0  0  0
    1.6716   -3.2843    0.1591 N   0  0  0  0  0  0  0  0  0  0  0  0
    1.5979   -4.2927    0.0673 H   0  0  0  0  0  0  0  0  0  0  0  0
    1.1136   -2.8451    0.8917 H   0  0  0  0  0  0  0  0  0  0  0  0
   -0.4633    1.1024    0.7088 C   0  0  0  0  0  0  0  0  0  0  0  0
   -1.4334    1.6923    0.2475 O   0  0  0  0  0  0  0  0  0  0  0  0
    0.3955    1.7659    1.5654 N   0  0  0  0  0  0  0  0  0  0  0  0
    1.1558    1.2343    1.9797 H   0  0  0  0  0  0  0  0  0  0  0  0
    0.1966    3.1495    1.9805 C   0  0  0  0  0  0  0  0  0  0  0  0
   -0.7468    3.2544    2.5264 H   0  0  0  0  0  0  0  0  0  0  0  0
    1.0130    3.4691    2.6354 H   0  0  0  0  0  0  0  0  0  0  0  0
    0.1747    3.8122    1.1088 H   0  0  0  0  0  0  0  0  0  0  0  0
  1  2  1  0  0  0  0
  2  3  1  0  0  0  0
  2  4  1  0  0  0  0
  2  5  1  0  0  0  0
  5  6  2  0  0  0  0
  5  7  1  0  0  0  0
  7  8  1  0  0  0  0
  7  9  1  0  0  0  0
  9 10  1  0  0  0  0
  9 11  1  0  0  0  0
  9 22  1  0  0  0  0
 11 12  1  0  0  0  0
 11 13  1  0  0  0  0
 11 14  1  0  0  0  0
 14 15  1  0  0  0  0
 14 16  1  0  0  0  0
 14 17  1  0  0  0  0
 17 18  2  0  0  0  0
 17 19  1  0  0  0  0
 19 20  1  0  0  0  0
 19 21  1  0  0  0  0
 22 23  2  0  0  0  0
 22 24  1  0  0  0  0
 24 25  1  0  0  0  0
 24 26  1  0  0  0  0
 26 27  1  0  0  0  0
 26 28  1  0  0  0  0
 26 29  1  0  0  0  0
M  END
$$$$

  -OEChem-04042215583D

 29 28  0     1  0  0  0  0  0999 V2000
   -2.9263   -3.9594    1.5759 H   0  0  0  0  0  0  0  0  0  0  0  0
   -2.9736   -3.0293    1.0028 C   0  0  0  0  0  0  0  0  0  0  0  0
   -3.6977   -2.3615    1.4761 H   0  0  0  0  0  0  0  0  0  0  0  0
   -3.3080   -3.2569   -0.0123 H   0  0  0  0  0  0  0  0  0  0  0  0
   -1.6082   -2.3697    0.9612 C   0  0  0  0  0  0  0  0  0  0  0  0
   -0.6410   -2.9232    1.4623 O   0  0  0  0  0  0  0  0  0  0  0  0
   -1.4604   -1.1299    0.3771 N   0  0  0  0  0  0  0  0  0  0  0  0
   -2.3074   -0.6556    0.0652 H   0  0  0  0  0  0  0  0  0  0  0  0
   -0.2088   -0.3612    0.3203 C   0  0  1  0  0  0  0  0  0  0  0  0
    0.5035   -0.7533    1.0530 H   0  0  0  0  0  0  0  0  0  0  0  0
    0.3899   -0.4436   -1.1053 C   0  0  0  0  0  0  0  0  0  0  0  0
   -0.2761   -1.0050   -1.7705 H   0  0  0  0  0  0  0  0  0  0  0  0
    0.4608    0.5664   -1.5251 H   0  0  0  0  0  0  0  0  0  0  0  0
    1.7964   -1.0703   -1.1398 C   0  0  0  0  0  0  0  0  0  0  0  0
    2.3429   -0.6490   -1.9892 H   0  0  0  0  0  0  0  0  0  0  0  0
    2.3607   -0.8162   -0.2387 H   0  0  0  0  0  0  0  0  0  0  0  0
    1.7717   -2.5853   -1.3198 C   0  0  0  0  0  0  0  0  0  0  0  0
    2.0033   -3.0899   -2.4018 O   0  0  0  0  0  0  0  0  0  0  0  0
    1.5554   -3.4586   -0.2952 N   0  0  0  0  0  0  0  0  0  0  0  0
    1.4299   -4.4236   -0.5830 H   0  0  0  0  0  0  0  0  0  0  0  0
    1.0282   -3.1237    0.5133 H   0  0  0  0  0  0  0  0  0  0  0  0
   -0.4816    1.1116    0.6903 C   0  0  0  0  0  0  0  0  0  0  0  0
   -1.4673    1.6791    0.2346 O   0  0  0  0  0  0  0  0  0  0  0  0
    0.3545    1.7861    1.5603 N   0  0  0  0  0  0  0  0  0  0  0  0
    1.1282    1.2698    1.9692 H   0  0  0  0  0  0  0  0  0  0  0  0
    0.1202    3.1599    1.9885 C   0  0  0  0  0  0  0  0  0  0  0  0
   -0.8247    3.2346    2.5370 H   0  0  0  0  0  0  0  0  0  0  0  0
    0.9291    3.4946    2.6451 H   0  0  0  0  0  0  0  0  0  0  0  0
    0.0793    3.8299    1.1231 H   0  0  0  0  0  0  0  0  0  0  0  0
  1  2  1  0  0  0  0
  2  3  1  0  0  0  0
  2  4  1  0  0  0  0
  2  5  1  0  0  0  0
  5  6  2  0  0  0  0
  5  7  1  0  0  0  0
  7  8  1  0  0  0  0
  7  9  1  0  0  0  0
  9 10  1  0  0  0  0
  9 11  1  0  0  0  0
  9 22  1  0  0  0  0
 11 12  1  0  0  0  0
 11 13  1  0  0  0  0
 11 14  1  0  0  0  0
 14 15  1  0  0  0  0
 14 16  1  0  0  0  0
 14 17  1  0  0  0  0
 17 18  2  0  0  0  0
 17 19  1  0  0  0  0
 19 20  1  0  0  0  0
 19 21  1  0  0  0  0
 22 23  2  0  0  0  0
 22 24  1  0  0  0  0
 24 25  1  0  0  0  0
 24 26  1  0  0  0  0
 26 27  1  0  0  0  0
 26 28  1  0  0  0  0
 26 29  1  0  0  0  0
M  END
$$$$

  -OEChem-04042215583D

 29 28  0     1  0  0  0  0  0999 V2000
   -2.8383   -3.9776    1.5460 H   0  0  0  0  0  0  0  0  0  0  0  0
   -2.9197   -3.0325    1.0019 C   0  0  0  0  0  0  0  0  0  0  0  0
   -3.5992   -2.3713    1.5455 H   0  0  0  0  0  0  0  0  0  0  0  0
   -3.3327   -3.2306    0.0098 H   0  0  0  0  0  0  0  0  0  0  0  0
   -1.5554   -2.3824    0.8740 C   0  0  0  0  0  0  0  0  0  0  0  0
   -0.5535   -2.9698    1.2568 O   0  0  0  0  0  0  0  0  0  0  0  0
   -1.4388   -1.1337    0.3015 N   0  0  0  0  0  0  0  0  0  0  0  0
   -2.3028   -0.6451    0.0666 H   0  0  0  0  0  0  0  0  0  0  0  0
   -0.2055   -0.3346    0.2891 C   0  0  1  0  0  0  0  0  0  0  0  0
    0.4749   -0.7133    1.0578 H   0  0  0  0  0  0  0  0  0  0  0  0
    0.4491   -0.4411   -1.1073 C   0  0  0  0  0  0  0  0  0  0  0  0
   -0.1810   -1.0290   -1.7852 H   0  0  0  0  0  0  0  0  0  0  0  0
    0.5171    0.5603   -1.5475 H   0  0  0  0  0  0  0  0  0  0  0  0
    1.8697   -1.0403   -1.0542 C   0  0  0  0  0  0  0  0  0  0  0  0
    2.5215   -0.4572   -1.7120 H   0  0  0  0  0  0  0  0  0  0  0  0
    2.3012   -0.9885   -0.0517 H   0  0  0  0  0  0  0  0  0  0  0  0
    1.8889   -2.4827   -1.5460 C   0  0  0  0  0  0  0  0  0  0  0  0
    2.2395   -2.7639   -2.6761 O   0  0  0  0  0  0  0  0  0  0  0  0
    1.5106   -3.5256   -0.7515 N   0  0  0  0  0  0  0  0  0  0  0  0
    1.3898   -4.4153   -1.2241 H   0  0  0  0  0  0  0  0  0  0  0  0
    0.9551   -3.3233    0.0827 H   0  0  0  0  0  0  0  0  0  0  0  0
   -0.5083    1.1310    0.6603 C   0  0  0  0  0  0  0  0  0  0  0  0
   -1.5063    1.6760    0.2045 O   0  0  0  0  0  0  0  0  0  0  0  0
    0.2929    1.8124    1.5573 N   0  0  0  0  0  0  0  0  0  0  0  0
    1.0799    1.3143    1.9634 H   0  0  0  0  0  0  0  0  0  0  0  0
    0.0213    3.1771    1.9929 C   0  0  0  0  0  0  0  0  0  0  0  0
   -0.9353    3.2267    2.5238 H   0  0  0  0  0  0  0  0  0  0  0  0
    0.8100    3.5227    2.6679 H   0  0  0  0  0  0  0  0  0  0  0  0
   -0.0172    3.8540    1.1327 H   0  0  0  0  0  0  0  0  0  0  0  0
  1  2  1  0  0  0  0
  2  3  1  0  0  0  0
  2  4  1  0  0  0  0
  2  5  1  0  0  0  0
  5  6  2  0  0  0  0
  5  7  1  0  0  0  0
  7  8  1  0  0  0  0
  7  9  1  0  0  0  0
  9 10  1  0  0  0  0
  9 11  1  0  0  0  0
  9 22  1  0  0  0  0
 11 12  1  0  0  0  0
 11 13  1  0  0  0  0
 11 14  1  0  0  0  0
 14 15  1  0  0  0  0
 14 16  1  0  0  0  0
 14 17  1  0  0  0  0
 17 18  2  0  0  0  0
 17 19  1  0  0  0  0
 19 20  1  0  0  0  0
 19 21  1  0  0  0  0
 22 23  2  0  0  0  0
 22 24  1  0  0  0  0
 24 25  1  0  0  0  0
 24 26  1  0  0  0  0
 26 27  1  0  0  0  0
 26 28  1  0  0  0  0
 26 29  1  0  0  0  0
M  END
$$$$

  -OEChem-04042215583D

 29 28  0     1  0  0  0  0  0999 V2000
   -2.7613   -4.0140    1.4494 H   0  0  0  0  0  0  0  0  0  0  0  0
   -2.8792   -3.0371    0.9722 C   0  0  0  0  0  0  0  0  0  0  0  0
   -3.5123   -2.4106    1.6051 H   0  0  0  0  0  0  0  0  0  0  0  0
   -3.3666   -3.1741    0.0038 H   0  0  0  0  0  0  0  0  0  0  0  0
   -1.5254   -2.3802    0.7821 C   0  0  0  0  0  0  0  0  0  0  0  0
   -0.4992   -2.9889    1.0548 O   0  0  0  0  0  0  0  0  0  0  0  0
   -1.4383   -1.1239    0.2198 N   0  0  0  0  0  0  0  0  0  0  0  0
   -2.3148   -0.6324    0.0444 H   0  0  0  0  0  0  0  0  0  0  0  0
   -0.2221   -0.2994    0.2591 C   0  0  1  0  0  0  0  0  0  0  0  0
    0.4150   -0.6662    1.0688 H   0  0  0  0  0  0  0  0  0  0  0  0
    0.5001   -0.4430   -1.0969 C   0  0  0  0  0  0  0  0  0  0  0  0
   -0.0894   -1.0710   -1.7754 H   0  0  0  0  0  0  0  0  0  0  0  0
    0.5701    0.5390   -1.5781 H   0  0  0  0  0  0  0  0  0  0  0  0
    1.9252   -1.0189   -0.9392 C   0  0  0  0  0  0  0  0  0  0  0  0
    2.6490   -0.3048   -1.3430 H   0  0  0  0  0  0  0  0  0  0  0  0
    2.1960   -1.1964    0.1042 H   0  0  0  0  0  0  0  0  0  0  0  0
    2.0587   -2.3272   -1.7041 C   0  0  0  0  0  0  0  0  0  0  0  0
    2.5648   -2.3822   -2.8085 O   0  0  0  0  0  0  0  0  0  0  0  0
    1.5635   -3.4889   -1.1837 N   0  0  0  0  0  0  0  0  0  0  0  0
    1.5061   -4.2801   -1.8163 H   0  0  0  0  0  0  0  0  0  0  0  0
    0.9469   -3.4359   -0.3698 H   0  0  0  0  0  0  0  0  0  0  0  0
   -0.5421    1.1622    0.6294 C   0  0  0  0  0  0  0  0  0  0  0  0
   -1.5398    1.6976    0.1626 O   0  0  0  0  0  0  0  0  0  0  0  0
    0.2269    1.8416    1.5561 N   0  0  0  0  0  0  0  0  0  0  0  0
    1.0245    1.3568    1.9577 H   0  0  0  0  0  0  0  0  0  0  0  0
   -0.0635    3.2023    1.9922 C   0  0  0  0  0  0  0  0  0  0  0  0
   -1.0418    3.2468    2.4820 H   0  0  0  0  0  0  0  0  0  0  0  0
    0.6950    3.5420    2.7040 H   0  0  0  0  0  0  0  0  0  0  0  0
   -0.0652    3.8871    1.1375 H   0  0  0  0  0  0  0  0  0  0  0  0
  1  2  1  0  0  0  0
  2  3  1  0  0  0  0
  2  4  1  0  0  0  0
  2  5  1  0  0  0  0
  5  6  2  0  0  0  0
  5  7  1  0  0  0  0
  7  8  1  0  0  0  0
  7  9  1  0  0  0  0
  9 10  1  0  0  0  0
  9 11  1  0  0  0  0
  9 22  1  0  0  0  0
 11 12  1  0  0  0  0
 11 13  1  0  0  0  0
 11 14  1  0  0  0  0
 14 15  1  0  0  0  0
 14 16  1  0  0  0  0
 14 17  1  0  0  0  0
 17 18  2  0  0  0  0
 17 19  1  0  0  0  0
 19 20  1  0  0  0  0
 19 21  1  0  0  0  0
 22 23  2  0  0  0  0
 22 24  1  0  0  0  0
 24 25  1  0  0  0  0
 24 26  1  0  0  0  0
 26 27  1  0  0  0  0
 26 28  1  0  0  0  0
 26 29  1  0  0  0  0
M  END
$$$$

  -OEChem-04042215583D

 29 28  0     1  0  0  0  0  0999 V2000
   -2.8279   -3.9851    1.4234 H   0  0  0  0  0  0  0  0  0  0  0  0
   -2.9255   -3.0033    0.9518 C   0  0  0  0  0  0  0  0  0  0  0  0
   -3.5640   -2.3748    1.5774 H   0  0  0  0  0  0  0  0  0  0  0  0
   -3.3952   -3.1273   -0.0271 H   0  0  0  0  0  0  0  0  0  0  0  0
   -1.5607   -2.3602    0.7938 C   0  0  0  0  0  0  0  0  0  0  0  0
   -0.5507   -2.9669    1.1216 O   0  0  0  0  0  0  0  0  0  0  0  0
   -1.4492   -1.1123    0.2172 N   0  0  0  0  0  0  0  0  0  0  0  0
   -2.3171   -0.6194    0.0069 H   0  0  0  0  0  0  0  0  0  0  0  0
   -0.2306   -0.2929    0.2790 C   0  0  1  0  0  0  0  0  0  0  0  0
    0.3869   -0.6491    1.1086 H   0  0  0  0  0  0  0  0  0  0  0  0
    0.5320   -0.4407   -1.0548 C   0  0  0  0  0  0  0  0  0  0  0  0
   -0.0381   -1.0916   -1.7279 H   0  0  0  0  0  0  0  0  0  0  0  0
    0.6087    0.5290   -1.5596 H   0  0  0  0  0  0  0  0  0  0  0  0
    1.9500   -1.0177   -0.8518 C   0  0  0  0  0  0  0  0  0  0  0  0
    2.6932   -0.2201   -0.9424 H   0  0  0  0  0  0  0  0  0  0  0  0
    2.0680   -1.4659    0.1380 H   0  0  0  0  0  0  0  0  0  0  0  0
    2.2414   -2.1026   -1.8766 C   0  0  0  0  0  0  0  0  0  0  0  0
    2.7517   -1.8546   -2.9520 O   0  0  0  0  0  0  0  0  0  0  0  0
    1.8642   -3.3950   -1.6471 N   0  0  0  0  0  0  0  0  0  0  0  0
    1.8966   -4.0234   -2.4438 H   0  0  0  0  0  0  0  0  0  0  0  0
    1.2443   -3.5884   -0.8626 H   0  0  0  0  0  0  0  0  0  0  0  0
   -0.5619    1.1731    0.6203 C   0  0  0  0  0  0  0  0  0  0  0  0
   -1.5487    1.7004    0.1217 O   0  0  0  0  0  0  0  0  0  0  0  0
    0.1797    1.8651    1.5598 N   0  0  0  0  0  0  0  0  0  0  0  0
    0.9690    1.3878    1.9861 H   0  0  0  0  0  0  0  0  0  0  0  0
   -0.1226    3.2314    1.9695 C   0  0  0  0  0  0  0  0  0  0  0  0
   -1.1086    3.2801    2.4435 H   0  0  0  0  0  0  0  0  0  0  0  0
    0.6242    3.5855    2.6868 H   0  0  0  0  0  0  0  0  0  0  0  0
   -0.1140    3.9023    1.1039 H   0  0  0  0  0  0  0  0  0  0  0  0
  1  2  1  0  0  0  0
  2  3  1  0  0  0  0
  2  4  1  0  0  0  0
  2  5  1  0  0  0  0
  5  6  2  0  0  0  0
  5  7  1  0  0  0  0
  7  8  1  0  0  0  0
  7  9  1  0  0  0  0
  9 10  1  0  0  0  0
  9 11  1  0  0  0  0
  9 22  1  0  0  0  0
 11 12  1  0  0  0  0
 11 13  1  0  0  0  0
 11 14  1  0  0  0  0
 14 15  1  0  0  0  0
 14 16  1  0  0  0  0
 14 17  1  0  0  0  0
 17 18  2  0  0  0  0
 17 19  1  0  0  0  0
 19 20  1  0  0  0  0
 19 21  1  0  0  0  0
 22 23  2  0  0  0  0
 22 24  1  0  0  0  0
 24 25  1  0  0  0  0
 24 26  1  0  0  0  0
 26 27  1  0  0  0  0
 26 28  1  0  0  0  0
 26 29  1  0  0  0  0
M  END
$$$$

  -OEChem-04042215583D

 29 28  0     1  0  0  0  0  0999 V2000
   -2.9308   -3.9566    1.3797 H   0  0  0  0  0  0  0  0  0  0  0  0
   -2.9987   -2.9721    0.9085 C   0  0  0  0  0  0  0  0  0  0  0  0
   -3.6712   -2.3450    1.4989 H   0  0  0  0  0  0  0  0  0  0  0  0
   -3.4109   -3.0904   -0.0965 H   0  0  0  0  0  0  0  0  0  0  0  0
   -1.6256   -2.3313    0.8339 C   0  0  0  0  0  0  0  0  0  0  0  0
   -0.6480   -2.9218    1.2687 O   0  0  0  0  0  0  0  0  0  0  0  0
   -1.4747   -1.0952    0.2409 N   0  0  0  0  0  0  0  0  0  0  0  0
   -2.3244   -0.6060   -0.0398 H   0  0  0  0  0  0  0  0  0  0  0  0
   -0.2461   -0.2915    0.3120 C   0  0  1  0  0  0  0  0  0  0  0  0
    0.3634   -0.6441    1.1499 H   0  0  0  0  0  0  0  0  0  0  0  0
    0.5369   -0.4421   -1.0100 C   0  0  0  0  0  0  0  0  0  0  0  0
   -0.0228   -1.1008   -1.6842 H   0  0  0  0  0  0  0  0  0  0  0  0
    0.6291    0.5224   -1.5225 H   0  0  0  0  0  0  0  0  0  0  0  0
    1.9405   -1.0319   -0.7750 C   0  0  0  0  0  0  0  0  0  0  0  0
    2.6564   -0.2319   -0.5666 H   0  0  0  0  0  0  0  0  0  0  0  0
    1.9345   -1.7078    0.0851 H   0  0  0  0  0  0  0  0  0  0  0  0
    2.4033   -1.8359   -1.9810 C   0  0  0  0  0  0  0  0  0  0  0  0
    2.8359   -1.2968   -2.9811 O   0  0  0  0  0  0  0  0  0  0  0  0
    2.2702   -3.1942   -2.0256 N   0  0  0  0  0  0  0  0  0  0  0  0
    2.4036   -3.6287   -2.9337 H   0  0  0  0  0  0  0  0  0  0  0  0
    1.7097   -3.6532   -1.3134 H   0  0  0  0  0  0  0  0  0  0  0  0
   -0.5721    1.1828    0.6222 C   0  0  0  0  0  0  0  0  0  0  0  0
   -1.5382    1.7148    0.0887 O   0  0  0  0  0  0  0  0  0  0  0  0
    0.1580    1.8818    1.5655 N   0  0  0  0  0  0  0  0  0  0  0  0
    0.9229    1.3967    2.0257 H   0  0  0  0  0  0  0  0  0  0  0  0
   -0.1386    3.2565    1.9498 C   0  0  0  0  0  0  0  0  0  0  0  0
   -1.1264    3.3183    2.4180 H   0  0  0  0  0  0  0  0  0  0  0  0
    0.6069    3.6186    2.6642 H   0  0  0  0  0  0  0  0  0  0  0  0
   -0.1218    3.9127    1.0732 H   0  0  0  0  0  0  0  0  0  0  0  0
  1  2  1  0  0  0  0
  2  3  1  0  0  0  0
  2  4  1  0  0  0  0
  2  5  1  0  0  0  0
  5  6  2  0  0  0  0
  5  7  1  0  0  0  0
  7  8  1  0  0  0  0
  7  9  1  0  0  0  0
  9 10  1  0  0  0  0
  9 11  1  0  0  0  0
  9 22  1  0  0  0  0
 11 12  1  0  0  0  0
 11 13  1  0  0  0  0
 11 14  1  0  0  0  0
 14 15  1  0  0  0  0
 14 16  1  0  0  0  0
 14 17  1  0  0  0  0
 17 18  2  0  0  0  0
 17 19  1  0  0  0  0
 19 20  1  0  0  0  0
 19 21  1  0  0  0  0
 22 23  2  0  0  0  0
 22 24  1  0  0  0  0
 24 25  1  0  0  0  0
 24 26  1  0  0  0  0
 26 27  1  0  0  0  0
 26 28  1  0  0  0  0
 26 29  1  0  0  0  0
M  END
$$$$

  -OEChem-04042215583D

 29 28  0     1  0  0  0  0  0999 V2000
   -3.1384   -3.8812    1.3477 H   0  0  0  0  0  0  0  0  0  0  0  0
   -3.1651   -2.8974    0.8711 C   0  0  0  0  0  0  0  0  0  0  0  0
   -3.8505   -2.2541    1.4283 H   0  0  0  0  0  0  0  0  0  0  0  0
   -3.5335   -3.0113   -0.1512 H   0  0  0  0  0  0  0  0  0  0  0  0
   -1.7770   -2.2855    0.8560 C   0  0  0  0  0  0  0  0  0  0  0  0
   -0.8346   -2.8906    1.3448 O   0  0  0  0  0  0  0  0  0  0  0  0
   -1.5790   -1.0511    0.2733 N   0  0  0  0  0  0  0  0  0  0  0  0
   -2.4033   -0.5464   -0.0509 H   0  0  0  0  0  0  0  0  0  0  0  0
   -0.3193   -0.2968    0.3307 C   0  0  1  0  0  0  0  0  0  0  0  0
    0.2985   -0.6856    1.1468 H   0  0  0  0  0  0  0  0  0  0  0  0
    0.4296   -0.4501   -1.0100 C   0  0  0  0  0  0  0  0  0  0  0  0
   -0.1600   -1.0757   -1.6899 H   0  0  0  0  0  0  0  0  0  0  0  0
    0.5512    0.5224   -1.5013 H   0  0  0  0  0  0  0  0  0  0  0  0
    1.8107   -1.0974   -0.8029 C   0  0  0  0  0  0  0  0  0  0  0  0
    2.4951   -0.3840   -0.3363 H   0  0  0  0  0  0  0  0  0  0  0  0
    1.7081   -1.9574   -0.1340 H   0  0  0  0  0  0  0  0  0  0  0  0
    2.4158   -1.5916   -2.1129 C   0  0  0  0  0  0  0  0  0  0  0  0
    2.2797   -0.9907   -3.1619 O   0  0  0  0  0  0  0  0  0  0  0  0
    3.1256   -2.7560   -2.1803 N   0  0  0  0  0  0  0  0  0  0  0  0
    3.3276   -3.0970   -3.1156 H   0  0  0  0  0  0  0  0  0  0  0  0
    3.0760   -3.4037   -1.4009 H   0  0  0  0  0  0  0  0  0  0  0  0
   -0.5858    1.1860    0.6589 C   0  0  0  0  0  0  0  0  0  0  0  0
   -1.5351    1.7616    0.1403 O   0  0  0  0  0  0  0  0  0  0  0  0
    0.1839    1.8502    1.5960 N   0  0  0  0  0  0  0  0  0  0  0  0
    0.9336    1.3326    2.0451 H   0  0  0  0  0  0  0  0  0  0  0  0
   -0.0447    3.2381    1.9798 C   0  0  0  0  0  0  0  0  0  0  0  0
   -1.0254    3.3481    2.4544 H   0  0  0  0  0  0  0  0  0  0  0  0
    0.7222    3.5658    2.6883 H   0  0  0  0  0  0  0  0  0  0  0  0
   -0.0030    3.8909    1.1014 H   0  0  0  0  0  0  0  0  0  0  0  0
  1  2  1  0  0  0  0
  2  3  1  0  0  0  0
  2  4  1  0  0  0  0
  2  5  1  0  0  0  0
  5  6  2  0  0  0  0
  5  7  1  0  0  0  0
  7  8  1  0  0  0  0
  7  9  1  0  0  0  0
  9 10  1  0  0  0  0
  9 11  1  0  0  0  0
  9 22  1  0  0  0  0
 11 12  1  0  0  0  0
 11 13  1  0  0  0  0
 11 14  1  0  0  0  0
 14 15  1  0  0  0  0
 14 16  1  0  0  0  0
 14 17  1  0  0  0  0
 17 18  2  0  0  0  0
 17 19  1  0  0  0  0
 19 20  1  0  0  0  0
 19 21  1  0  0  0  0
 22 23  2  0  0  0  0
 22 24  1  0  0  0  0
 24 25  1  0  0  0  0
 24 26  1  0  0  0  0
 26 27  1  0  0  0  0
 26 28  1  0  0  0  0
 26 29  1  0  0  0  0
M  END
$$$$

  -OEChem-04042215583D

 29 28  0     1  0  0  0  0  0999 V2000
   -3.2710   -3.7955    1.3793 H   0  0  0  0  0  0  0  0  0  0  0  0
   -3.2585   -2.8218    0.8819 C   0  0  0  0  0  0  0  0  0  0  0  0
   -3.9275   -2.1438    1.4174 H   0  0  0  0  0  0  0  0  0  0  0  0
   -3.6191   -2.9441   -0.1423 H   0  0  0  0  0  0  0  0  0  0  0  0
   -1.8502   -2.2583    0.8708 C   0  0  0  0  0  0  0  0  0  0  0  0
   -0.9342   -2.8876    1.3786 O   0  0  0  0  0  0  0  0  0  0  0  0
   -1.6078   -1.0359    0.2805 N   0  0  0  0  0  0  0  0  0  0  0  0
   -2.4134   -0.5061   -0.0509 H   0  0  0  0  0  0  0  0  0  0  0  0
   -0.3249   -0.3223    0.3393 C   0  0  1  0  0  0  0  0  0  0  0  0
    0.2914   -0.7203    1.1521 H   0  0  0  0  0  0  0  0  0  0  0  0
    0.4071   -0.4943   -1.0072 C   0  0  0  0  0  0  0  0  0  0  0  0
   -0.2915   -0.8236   -1.7847 H   0  0  0  0  0  0  0  0  0  0  0  0
    0.8163    0.4690   -1.3340 H   0  0  0  0  0  0  0  0  0  0  0  0
    1.5640   -1.5016   -0.8737 C   0  0  0  0  0  0  0  0  0  0  0  0
    2.2713   -1.1528   -0.1167 H   0  0  0  0  0  0  0  0  0  0  0  0
    1.1628   -2.4642   -0.5435 H   0  0  0  0  0  0  0  0  0  0  0  0
    2.3276   -1.7144   -2.1779 C   0  0  0  0  0  0  0  0  0  0  0  0
    2.1960   -0.9978   -3.1526 O   0  0  0  0  0  0  0  0  0  0  0  0
    3.2166   -2.7417   -2.3141 N   0  0  0  0  0  0  0  0  0  0  0  0
    3.5489   -2.9193   -3.2575 H   0  0  0  0  0  0  0  0  0  0  0  0
    3.2138   -3.4856   -1.6241 H   0  0  0  0  0  0  0  0  0  0  0  0
   -0.5677    1.1677    0.6561 C   0  0  0  0  0  0  0  0  0  0  0  0
   -1.5040    1.7572    0.1290 O   0  0  0  0  0  0  0  0  0  0  0  0
    0.2061    1.8233    1.5960 N   0  0  0  0  0  0  0  0  0  0  0  0
    0.9361    1.2914    2.0611 H   0  0  0  0  0  0  0  0  0  0  0  0
   -0.0255    3.2053    1.9989 C   0  0  0  0  0  0  0  0  0  0  0  0
   -1.0196    3.3126    2.4455 H   0  0  0  0  0  0  0  0  0  0  0  0
    0.7203    3.5143    2.7376 H   0  0  0  0  0  0  0  0  0  0  0  0
    0.0473    3.8739    1.1347 H   0  0  0  0  0  0  0  0  0  0  0  0
  1  2  1  0  0  0  0
  2  3  1  0  0  0  0
  2  4  1  0  0  0  0
  2  5  1  0  0  0  0
  5  6  2  0  0  0  0
  5  7  1  0  0  0  0
  7  8  1  0  0  0  0
  7  9  1  0  0  0  0
  9 10  1  0  0  0  0
  9 11  1  0  0  0  0
  9 22  1  0  0  0  0
 11 12  1  0  0  0  0
 11 13  1  0  0  0  0
 11 14  1  0  0  0  0
 14 15  1  0  0  0  0
 14 16  1  0  0  0  0
 14 17  1  0  0  0  0
 17 18  2  0  0  0  0
 17 19  1  0  0  0  0
 19 20  1  0  0  0  0
 19 21  1  0  0  0  0
 22 23  2  0  0  0  0
 22 24  1  0  0  0  0
 24 25  1  0  0  0  0
 24 26  1  0  0  0  0
 26 27  1  0  0  0  0
 26 28  1  0  0  0  0
 26 29  1  0  0  0  0
M  END
$$$$

  -OEChem-04042215583D

 29 28  0     1  0  0  0  0  0999 V2000
   -3.3099   -3.7724    1.3925 H   0  0  0  0  0  0  0  0  0  0  0  0
   -3.2904   -2.7980    0.8964 C   0  0  0  0  0  0  0  0  0  0  0  0
   -3.9411   -2.1111    1.4431 H   0  0  0  0  0  0  0  0  0  0  0  0
   -3.6682   -2.9133   -0.1224 H   0  0  0  0  0  0  0  0  0  0  0  0
   -1.8745   -2.2542    0.8651 C   0  0  0  0  0  0  0  0  0  0  0  0
   -0.9600   -2.8961    1.3596 O   0  0  0  0  0  0  0  0  0  0  0  0
   -1.6248   -1.0326    0.2761 N   0  0  0  0  0  0  0  0  0  0  0  0
   -2.4288   -0.4906   -0.0391 H   0  0  0  0  0  0  0  0  0  0  0  0
   -0.3363   -0.3297    0.3368 C   0  0  1  0  0  0  0  0  0  0  0  0
    0.2733   -0.7320    1.1521 H   0  0  0  0  0  0  0  0  0  0  0  0
    0.3923   -0.5092   -1.0114 C   0  0  0  0  0  0  0  0  0  0  0  0
   -0.3039   -0.8178   -1.7990 H   0  0  0  0  0  0  0  0  0  0  0  0
    0.8098    0.4572   -1.3181 H   0  0  0  0  0  0  0  0  0  0  0  0
    1.5438   -1.5276   -0.8894 C   0  0  0  0  0  0  0  0  0  0  0  0
    2.1208   -1.3238    0.0166 H   0  0  0  0  0  0  0  0  0  0  0  0
    1.1240   -2.5337   -0.8003 H   0  0  0  0  0  0  0  0  0  0  0  0
    2.5213   -1.4912   -2.0619 C   0  0  0  0  0  0  0  0  0  0  0  0
    2.4445   -0.6920   -2.9761 O   0  0  0  0  0  0  0  0  0  0  0  0
    3.5520   -2.3828   -2.1441 N   0  0  0  0  0  0  0  0  0  0  0  0
    4.0444   -2.4103   -3.0323 H   0  0  0  0  0  0  0  0  0  0  0  0
    3.5445   -3.1964   -1.5379 H   0  0  0  0  0  0  0  0  0  0  0  0
   -0.5704    1.1613    0.6562 C   0  0  0  0  0  0  0  0  0  0  0  0
   -1.5077    1.7551    0.1355 O   0  0  0  0  0  0  0  0  0  0  0  0
    0.2064    1.8106    1.5979 N   0  0  0  0  0  0  0  0  0  0  0  0
    0.9421    1.2779    2.0528 H   0  0  0  0  0  0  0  0  0  0  0  0
   -0.0176    3.1933    2.0022 C   0  0  0  0  0  0  0  0  0  0  0  0
   -1.0125    3.3063    2.4459 H   0  0  0  0  0  0  0  0  0  0  0  0
    0.7279    3.4967    2.7436 H   0  0  0  0  0  0  0  0  0  0  0  0
    0.0619    3.8627    1.1391 H   0  0  0  0  0  0  0  0  0  0  0  0
  1  2  1  0  0  0  0
  2  3  1  0  0  0  0
  2  4  1  0  0  0  0
  2  5  1  0  0  0  0
  5  6  2  0  0  0  0
  5  7  1  0  0  0  0
  7  8  1  0  0  0  0
  7  9  1  0  0  0  0
  9 10  1  0  0  0  0
  9 11  1  0  0  0  0
  9 22  1  0  0  0  0
 11 12  1  0  0  0  0
 11 13  1  0  0  0  0
 11 14  1  0  0  0  0
 14 15  1  0  0  0  0
 14 16  1  0  0  0  0
 14 17  1  0  0  0  0
 17 18  2  0  0  0  0
 17 19  1  0  0  0  0
 19 20  1  0  0  0  0
 19 21  1  0  0  0  0
 22 23  2  0  0  0  0
 22 24  1  0  0  0  0
 24 25  1  0  0  0  0
 24 26  1  0  0  0  0
 26 27  1  0  0  0  0
 26 28  1  0  0  0  0
 26 29  1  0  0  0  0
M  END
$$$$

  -OEChem-04042215583D

 29 28  0     1  0  0  0  0  0999 V2000
   -3.3359   -3.7704    1.3929 H   0  0  0  0  0  0  0  0  0  0  0  0
   -3.3127   -2.7988    0.8915 C   0  0  0  0  0  0  0  0  0  0  0  0
   -3.9716   -2.1103    1.4262 H   0  0  0  0  0  0  0  0  0  0  0  0
   -3.6777   -2.9210   -0.1311 H   0  0  0  0  0  0  0  0  0  0  0  0
   -1.8976   -2.2529    0.8740 C   0  0  0  0  0  0  0  0  0  0  0  0
   -0.9861   -2.8974    1.3706 O   0  0  0  0  0  0  0  0  0  0  0  0
   -1.6428   -1.0317    0.2862 N   0  0  0  0  0  0  0  0  0  0  0  0
   -2.4439   -0.4863   -0.0302 H   0  0  0  0  0  0  0  0  0  0  0  0
   -0.3501   -0.3365    0.3445 C   0  0  1  0  0  0  0  0  0  0  0  0
    0.2561   -0.7408    1.1607 H   0  0  0  0  0  0  0  0  0  0  0  0
    0.3698   -0.5196   -1.0095 C   0  0  0  0  0  0  0  0  0  0  0  0
   -0.3325   -0.8127   -1.7974 H   0  0  0  0  0  0  0  0  0  0  0  0
    0.7834    0.4517   -1.3046 H   0  0  0  0  0  0  0  0  0  0  0  0
    1.5224   -1.5463   -0.9164 C   0  0  0  0  0  0  0  0  0  0  0  0
    1.9540   -1.5299    0.0874 H   0  0  0  0  0  0  0  0  0  0  0  0
    1.1222   -2.5498   -1.0860 H   0  0  0  0  0  0  0  0  0  0  0  0
    2.6754   -1.2874   -1.8847 C   0  0  0  0  0  0  0  0  0  0  0  0
    2.6553   -0.4255   -2.7432 O   0  0  0  0  0  0  0  0  0  0  0  0
    3.8090   -2.0472   -1.8437 N   0  0  0  0  0  0  0  0  0  0  0  0
    4.4449   -1.9379   -2.6285 H   0  0  0  0  0  0  0  0  0  0  0  0
    3.8024   -2.9082   -1.3070 H   0  0  0  0  0  0  0  0  0  0  0  0
   -0.5730    1.1558    0.6669 C   0  0  0  0  0  0  0  0  0  0  0  0
   -1.5073    1.7570    0.1493 O   0  0  0  0  0  0  0  0  0  0  0  0
    0.2116    1.7976    1.6072 N   0  0  0  0  0  0  0  0  0  0  0  0
    0.9562    1.2636    2.0458 H   0  0  0  0  0  0  0  0  0  0  0  0
    0.0144    3.1878    1.9988 C   0  0  0  0  0  0  0  0  0  0  0  0
   -0.9833    3.3273    2.4282 H   0  0  0  0  0  0  0  0  0  0  0  0
    0.7566    3.4785    2.7484 H   0  0  0  0  0  0  0  0  0  0  0  0
    0.1212    3.8487    1.1322 H   0  0  0  0  0  0  0  0  0  0  0  0
  1  2  1  0  0  0  0
  2  3  1  0  0  0  0
  2  4  1  0  0  0  0
  2  5  1  0  0  0  0
  5  6  2  0  0  0  0
  5  7  1  0  0  0  0
  7  8  1  0  0  0  0
  7  9  1  0  0  0  0
  9 10  1  0  0  0  0
  9 11  1  0  0  0  0
  9 22  1  0  0  0  0
 11 12  1  0  0  0  0
 11 13  1  0  0  0  0
 11 14  1  0  0  0  0
 14 15  1  0  0  0  0
 14 16  1  0  0  0  0
 14 17  1  0  0  0  0
 17 18  2  0  0  0  0
 17 19  1  0  0  0  0
 19 20  1  0  0  0  0
 19 21  1  0  0  0  0
 22 23  2  0  0  0  0
 22 24  1  0  0  0  0
 24 25  1  0  0  0  0
 24 26  1  0  0  0  0
 26 27  1  0  0  0  0
 26 28  1  0  0  0  0
 26 29  1  0  0  0  0
M  END
$$$$

  -OEChem-04042215583D

 29 28  0     1  0  0  0  0  0999 V2000
   -3.3571   -3.7462    1.4535 H   0  0  0  0  0  0  0  0  0  0  0  0
   -3.3259   -2.7994    0.9071 C   0  0  0  0  0  0  0  0  0  0  0  0
   -3.9821   -2.0832    1.4076 H   0  0  0  0  0  0  0  0  0  0  0  0
   -3.6888   -2.9667   -0.1098 H   0  0  0  0  0  0  0  0  0  0  0  0
   -1.9072   -2.2633    0.8689 C   0  0  0  0  0  0  0  0  0  0  0  0
   -0.9926   -2.9151    1.3499 O   0  0  0  0  0  0  0  0  0  0  0  0
   -1.6533   -1.0396    0.2858 N   0  0  0  0  0  0  0  0  0  0  0  0
   -2.4559   -0.4877   -0.0156 H   0  0  0  0  0  0  0  0  0  0  0  0
   -0.3593   -0.3466    0.3462 C   0  0  1  0  0  0  0  0  0  0  0  0
    0.2467   -0.7513    1.1622 H   0  0  0  0  0  0  0  0  0  0  0  0
    0.3631   -0.5127   -1.0099 C   0  0  0  0  0  0  0  0  0  0  0  0
   -0.3438   -0.8027   -1.7945 H   0  0  0  0  0  0  0  0  0  0  0  0
    0.7584    0.4663   -1.3023 H   0  0  0  0  0  0  0  0  0  0  0  0
    1.5228   -1.5406   -0.9436 C   0  0  0  0  0  0  0  0  0  0  0  0
    1.7734   -1.7663    0.0958 H   0  0  0  0  0  0  0  0  0  0  0  0
    1.1868   -2.4756   -1.4003 H   0  0  0  0  0  0  0  0  0  0  0  0
    2.8196   -1.0995   -1.6227 C   0  0  0  0  0  0  0  0  0  0  0  0
    2.9203   -0.1078   -2.3202 O   0  0  0  0  0  0  0  0  0  0  0  0
    3.9659   -1.8264   -1.4771 N   0  0  0  0  0  0  0  0  0  0  0  0
    4.7345   -1.5736   -2.0914 H   0  0  0  0  0  0  0  0  0  0  0  0
    3.9098   -2.7595   -1.0826 H   0  0  0  0  0  0  0  0  0  0  0  0
   -0.5839    1.1440    0.6762 C   0  0  0  0  0  0  0  0  0  0  0  0
   -1.5194    1.7462    0.1613 O   0  0  0  0  0  0  0  0  0  0  0  0
    0.2003    1.7818    1.6193 N   0  0  0  0  0  0  0  0  0  0  0  0
    0.9620    1.2538    2.0352 H   0  0  0  0  0  0  0  0  0  0  0  0
    0.0279    3.1814    1.9886 C   0  0  0  0  0  0  0  0  0  0  0  0
   -0.9826    3.3553    2.3731 H   0  0  0  0  0  0  0  0  0  0  0  0
    0.7454    3.4580    2.7673 H   0  0  0  0  0  0  0  0  0  0  0  0
    0.1915    3.8290    1.1208 H   0  0  0  0  0  0  0  0  0  0  0  0
  1  2  1  0  0  0  0
  2  3  1  0  0  0  0
  2  4  1  0  0  0  0
  2  5  1  0  0  0  0
  5  6  2  0  0  0  0
  5  7  1  0  0  0  0
  7  8  1  0  0  0  0
  7  9  1  0  0  0  0
  9 10  1  0  0  0  0
  9 11  1  0  0  0  0
  9 22  1  0  0  0  0
 11 12  1  0  0  0  0
 11 13  1  0  0  0  0
 11 14  1  0  0  0  0
 14 15  1  0  0  0  0
 14 16  1  0  0  0  0
 14 17  1  0  0  0  0
 17 18  2  0  0  0  0
 17 19  1  0  0  0  0
 19 20  1  0  0  0  0
 19 21  1  0  0  0  0
 22 23  2  0  0  0  0
 22 24  1  0  0  0  0
 24 25  1  0  0  0  0
 24 26  1  0  0  0  0
 26 27  1  0  0  0  0
 26 28  1  0  0  0  0
 26 29  1  0  0  0  0
M  END
$$$$

  -OEChem-04042215583D

 29 28  0     1  0  0  0  0  0999 V2000
   -3.4455   -3.7393    1.4180 H   0  0  0  0  0  0  0  0  0  0  0  0
   -3.3837   -2.7858    0.8859 C   0  0  0  0  0  0  0  0  0  0  0  0
   -4.0504   -2.0683    1.3704 H   0  0  0  0  0  0  0  0  0  0  0  0
   -3.7092   -2.9362   -0.1462 H   0  0  0  0  0  0  0  0  0  0  0  0
   -1.9587   -2.2654    0.9077 C   0  0  0  0  0  0  0  0  0  0  0  0
   -1.0814   -2.9090    1.4624 O   0  0  0  0  0  0  0  0  0  0  0  0
   -1.6559   -1.0740    0.2821 N   0  0  0  0  0  0  0  0  0  0  0  0
   -2.4367   -0.5250   -0.0759 H   0  0  0  0  0  0  0  0  0  0  0  0
   -0.3647   -0.3815    0.3998 C   0  0  1  0  0  0  0  0  0  0  0  0
    0.1723   -0.7443    1.2818 H   0  0  0  0  0  0  0  0  0  0  0  0
    0.4746   -0.6115   -0.8738 C   0  0  0  0  0  0  0  0  0  0  0  0
   -0.1716   -0.9674   -1.6832 H   0  0  0  0  0  0  0  0  0  0  0  0
    0.8931    0.3434   -1.2140 H   0  0  0  0  0  0  0  0  0  0  0  0
    1.6175   -1.6274   -0.6424 C   0  0  0  0  0  0  0  0  0  0  0  0
    1.6041   -2.0335    0.3727 H   0  0  0  0  0  0  0  0  0  0  0  0
    1.4753   -2.4729   -1.3206 H   0  0  0  0  0  0  0  0  0  0  0  0
    2.9873   -1.0127   -0.9000 C   0  0  0  0  0  0  0  0  0  0  0  0
    3.3531   -0.0116   -0.3116 O   0  0  0  0  0  0  0  0  0  0  0  0
    3.8582   -1.5322   -1.8146 N   0  0  0  0  0  0  0  0  0  0  0  0
    4.7994   -1.1501   -1.8028 H   0  0  0  0  0  0  0  0  0  0  0  0
    3.6871   -2.4609   -2.1853 H   0  0  0  0  0  0  0  0  0  0  0  0
   -0.5849    1.1264    0.6356 C   0  0  0  0  0  0  0  0  0  0  0  0
   -1.4810    1.7085    0.0338 O   0  0  0  0  0  0  0  0  0  0  0  0
    0.1450    1.7996    1.5967 N   0  0  0  0  0  0  0  0  0  0  0  0
    0.9409    1.3104    1.9990 H   0  0  0  0  0  0  0  0  0  0  0  0
    0.0095    3.2301    1.8404 C   0  0  0  0  0  0  0  0  0  0  0  0
   -1.0206    3.4765    2.1182 H   0  0  0  0  0  0  0  0  0  0  0  0
    0.6688    3.5377    2.6577 H   0  0  0  0  0  0  0  0  0  0  0  0
    0.2792    3.7984    0.9440 H   0  0  0  0  0  0  0  0  0  0  0  0
  1  2  1  0  0  0  0
  2  3  1  0  0  0  0
  2  4  1  0  0  0  0
  2  5  1  0  0  0  0
  5  6  2  0  0  0  0
  5  7  1  0  0  0  0
  7  8  1  0  0  0  0
  7  9  1  0  0  0  0
  9 10  1  0  0  0  0
  9 11  1  0  0  0  0
  9 22  1  0  0  0  0
 11 12  1  0  0  0  0
 11 13  1  0  0  0  0
 11 14  1  0  0  0  0
 14 15  1  0  0  0  0
 14 16  1  0  0  0  0
 14 17  1  0  0  0  0
 17 18  2  0  0  0  0
 17 19  1  0  0  0  0
 19 20  1  0  0  0  0
 19 21  1  0  0  0  0
 22 23  2  0  0  0  0
 22 24  1  0  0  0  0
 24 25  1  0  0  0  0
 24 26  1  0  0  0  0
 26 27  1  0  0  0  0
 26 28  1  0  0  0  0
 26 29  1  0  0  0  0
M  END
$$$$

  -OEChem-04042215583D

 29 28  0     1  0  0  0  0  0999 V2000
   -3.4719   -3.7354    1.3978 H   0  0  0  0  0  0  0  0  0  0  0  0
   -3.4173   -2.7628    0.9008 C   0  0  0  0  0  0  0  0  0  0  0  0
   -4.0458   -2.0534    1.4446 H   0  0  0  0  0  0  0  0  0  0  0  0
   -3.7946   -2.8667   -0.1193 H   0  0  0  0  0  0  0  0  0  0  0  0
   -1.9837   -2.2681    0.8746 C   0  0  0  0  0  0  0  0  0  0  0  0
   -1.0976   -2.9371    1.3836 O   0  0  0  0  0  0  0  0  0  0  0  0
   -1.6870   -1.0693    0.2608 N   0  0  0  0  0  0  0  0  0  0  0  0
   -2.4738   -0.5001   -0.0491 H   0  0  0  0  0  0  0  0  0  0  0  0
   -0.3874   -0.3898    0.3554 C   0  0  1  0  0  0  0  0  0  0  0  0
    0.1627   -0.7711    1.2221 H   0  0  0  0  0  0  0  0  0  0  0  0
    0.4394   -0.6076   -0.9261 C   0  0  0  0  0  0  0  0  0  0  0  0
   -0.2199   -0.9751   -1.7196 H   0  0  0  0  0  0  0  0  0  0  0  0
    0.8556    0.3416   -1.2845 H   0  0  0  0  0  0  0  0  0  0  0  0
    1.5720   -1.6304   -0.6910 C   0  0  0  0  0  0  0  0  0  0  0  0
    1.3915   -2.2455    0.1954 H   0  0  0  0  0  0  0  0  0  0  0  0
    1.6038   -2.3099   -1.5468 H   0  0  0  0  0  0  0  0  0  0  0  0
    2.9294   -0.9467   -0.5775 C   0  0  0  0  0  0  0  0  0  0  0  0
    3.0867    0.0353    0.1271 O   0  0  0  0  0  0  0  0  0  0  0  0
    4.0283   -1.3918   -1.2551 N   0  0  0  0  0  0  0  0  0  0  0  0
    4.9167   -0.9780   -0.9872 H   0  0  0  0  0  0  0  0  0  0  0  0
    4.0013   -2.3098   -1.6864 H   0  0  0  0  0  0  0  0  0  0  0  0
   -0.5773    1.1163    0.6213 C   0  0  0  0  0  0  0  0  0  0  0  0
   -1.4986    1.7151    0.0761 O   0  0  0  0  0  0  0  0  0  0  0  0
    0.1922    1.7575    1.5728 N   0  0  0  0  0  0  0  0  0  0  0  0
    1.0260    1.2662    1.8900 H   0  0  0  0  0  0  0  0  0  0  0  0
    0.0709    3.1804    1.8632 C   0  0  0  0  0  0  0  0  0  0  0  0
   -0.9431    3.4176    2.2020 H   0  0  0  0  0  0  0  0  0  0  0  0
    0.7725    3.4650    2.6533 H   0  0  0  0  0  0  0  0  0  0  0  0
    0.2929    3.7748    0.9707 H   0  0  0  0  0  0  0  0  0  0  0  0
  1  2  1  0  0  0  0
  2  3  1  0  0  0  0
  2  4  1  0  0  0  0
  2  5  1  0  0  0  0
  5  6  2  0  0  0  0
  5  7  1  0  0  0  0
  7  8  1  0  0  0  0
  7  9  1  0  0  0  0
  9 10  1  0  0  0  0
  9 11  1  0  0  0  0
  9 22  1  0  0  0  0
 11 12  1  0  0  0  0
 11 13  1  0  0  0  0
 11 14  1  0  0  0  0
 14 15  1  0  0  0  0
 14 16  1  0  0  0  0
 14 17  1  0  0  0  0
 17 18  2  0  0  0  0
 17 19  1  0  0  0  0
 19 20  1  0  0  0  0
 19 21  1  0  0  0  0
 22 23  2  0  0  0  0
 22 24  1  0  0  0  0
 24 25  1  0  0  0  0
 24 26  1  0  0  0  0
 26 27  1  0  0  0  0
 26 28  1  0  0  0  0
 26 29  1  0  0  0  0
M  END
$$$$

  -OEChem-04042215583D

 29 28  0     1  0  0  0  0  0999 V2000
   -3.4628   -3.7468    1.4139 H   0  0  0  0  0  0  0  0  0  0  0  0
   -3.4214   -2.7792    0.9062 C   0  0  0  0  0  0  0  0  0  0  0  0
   -4.0403   -2.0661    1.4563 H   0  0  0  0  0  0  0  0  0  0  0  0
   -3.8203   -2.8939   -0.1045 H   0  0  0  0  0  0  0  0  0  0  0  0
   -1.9895   -2.2821    0.8447 C   0  0  0  0  0  0  0  0  0  0  0  0
   -1.0873   -2.9640    1.3060 O   0  0  0  0  0  0  0  0  0  0  0  0
   -1.7145   -1.0689    0.2490 N   0  0  0  0  0  0  0  0  0  0  0  0
   -2.5126   -0.4945   -0.0190 H   0  0  0  0  0  0  0  0  0  0  0  0
   -0.4143   -0.3866    0.3127 C   0  0  1  0  0  0  0  0  0  0  0  0
    0.1537   -0.7891    1.1586 H   0  0  0  0  0  0  0  0  0  0  0  0
    0.3942   -0.5855   -0.9826 C   0  0  0  0  0  0  0  0  0  0  0  0
   -0.2734   -0.9586   -1.7662 H   0  0  0  0  0  0  0  0  0  0  0  0
    0.8046    0.3653   -1.3438 H   0  0  0  0  0  0  0  0  0  0  0  0
    1.5310   -1.6008   -0.7556 C   0  0  0  0  0  0  0  0  0  0  0  0
    1.2378   -2.3770   -0.0426 H   0  0  0  0  0  0  0  0  0  0  0  0
    1.7439   -2.0972   -1.7060 H   0  0  0  0  0  0  0  0  0  0  0  0
    2.8099   -0.9129   -0.2859 C   0  0  0  0  0  0  0  0  0  0  0  0
    2.7858    0.0548    0.4577 O   0  0  0  0  0  0  0  0  0  0  0  0
    4.0462   -1.3612   -0.6527 N   0  0  0  0  0  0  0  0  0  0  0  0
    4.8330   -0.9612   -0.1497 H   0  0  0  0  0  0  0  0  0  0  0  0
    4.1269   -2.2786   -1.0789 H   0  0  0  0  0  0  0  0  0  0  0  0
   -0.5765    1.1143    0.6180 C   0  0  0  0  0  0  0  0  0  0  0  0
   -1.5220    1.7325    0.1395 O   0  0  0  0  0  0  0  0  0  0  0  0
    0.2423    1.7151    1.5540 N   0  0  0  0  0  0  0  0  0  0  0  0
    1.1128    1.2231    1.7600 H   0  0  0  0  0  0  0  0  0  0  0  0
    0.1534    3.1301    1.8888 C   0  0  0  0  0  0  0  0  0  0  0  0
   -0.8460    3.3739    2.2641 H   0  0  0  0  0  0  0  0  0  0  0  0
    0.8820    3.3790    2.6662 H   0  0  0  0  0  0  0  0  0  0  0  0
    0.3598    3.7464    1.0077 H   0  0  0  0  0  0  0  0  0  0  0  0
  1  2  1  0  0  0  0
  2  3  1  0  0  0  0
  2  4  1  0  0  0  0
  2  5  1  0  0  0  0
  5  6  2  0  0  0  0
  5  7  1  0  0  0  0
  7  8  1  0  0  0  0
  7  9  1  0  0  0  0
  9 10  1  0  0  0  0
  9 11  1  0  0  0  0
  9 22  1  0  0  0  0
 11 12  1  0  0  0  0
 11 13  1  0  0  0  0
 11 14  1  0  0  0  0
 14 15  1  0  0  0  0
 14 16  1  0  0  0  0
 14 17  1  0  0  0  0
 17 18  2  0  0  0  0
 17 19  1  0  0  0  0
 19 20  1  0  0  0  0
 19 21  1  0  0  0  0
 22 23  2  0  0  0  0
 22 24  1  0  0  0  0
 24 25  1  0  0  0  0
 24 26  1  0  0  0  0
 26 27  1  0  0  0  0
 26 28  1  0  0  0  0
 26 29  1  0  0  0  0
M  END
$$$$

  -OEChem-04042215583D

 29 28  0     1  0  0  0  0  0999 V2000
   -3.3808   -3.7691    1.4554 H   0  0  0  0  0  0  0  0  0  0  0  0
   -3.3647   -2.8156    0.9202 C   0  0  0  0  0  0  0  0  0  0  0  0
   -3.9862   -2.0981    1.4616 H   0  0  0  0  0  0  0  0  0  0  0  0
   -3.7791   -2.9647   -0.0799 H   0  0  0  0  0  0  0  0  0  0  0  0
   -1.9428   -2.2965    0.8189 C   0  0  0  0  0  0  0  0  0  0  0  0
   -1.0151   -2.9783    1.2276 O   0  0  0  0  0  0  0  0  0  0  0  0
   -1.7056   -1.0641    0.2464 N   0  0  0  0  0  0  0  0  0  0  0  0
   -2.5204   -0.4949    0.0205 H   0  0  0  0  0  0  0  0  0  0  0  0
   -0.4144   -0.3630    0.2905 C   0  0  1  0  0  0  0  0  0  0  0  0
    0.1781   -0.7813    1.1111 H   0  0  0  0  0  0  0  0  0  0  0  0
    0.3599   -0.5244   -1.0323 C   0  0  0  0  0  0  0  0  0  0  0  0
   -0.3223   -0.8782   -1.8122 H   0  0  0  0  0  0  0  0  0  0  0  0
    0.7571    0.4402   -1.3695 H   0  0  0  0  0  0  0  0  0  0  0  0
    1.5203   -1.5256   -0.8702 C   0  0  0  0  0  0  0  0  0  0  0  0
    1.1665   -2.4334   -0.3725 H   0  0  0  0  0  0  0  0  0  0  0  0
    1.8740   -1.8105   -1.8645 H   0  0  0  0  0  0  0  0  0  0  0  0
    2.7074   -0.9507   -0.0948 C   0  0  0  0  0  0  0  0  0  0  0  0
    2.6417    0.0776    0.5602 O   0  0  0  0  0  0  0  0  0  0  0  0
    3.9080   -1.5988   -0.0571 N   0  0  0  0  0  0  0  0  0  0  0  0
    4.5719   -1.2640    0.6350 H   0  0  0  0  0  0  0  0  0  0  0  0
    3.9522   -2.5597   -0.3801 H   0  0  0  0  0  0  0  0  0  0  0  0
   -0.5897    1.1270    0.6390 C   0  0  0  0  0  0  0  0  0  0  0  0
   -1.5590    1.7422    0.2062 O   0  0  0  0  0  0  0  0  0  0  0  0
    0.2480    1.7143    1.5663 N   0  0  0  0  0  0  0  0  0  0  0  0
    1.1361    1.2315    1.7185 H   0  0  0  0  0  0  0  0  0  0  0  0
    0.1592    3.1225    1.9271 C   0  0  0  0  0  0  0  0  0  0  0  0
   -0.8361    3.3560    2.3195 H   0  0  0  0  0  0  0  0  0  0  0  0
    0.8975    3.3604    2.6990 H   0  0  0  0  0  0  0  0  0  0  0  0
    0.3516    3.7544    1.0539 H   0  0  0  0  0  0  0  0  0  0  0  0
  1  2  1  0  0  0  0
  2  3  1  0  0  0  0
  2  4  1  0  0  0  0
  2  5  1  0  0  0  0
  5  6  2  0  0  0  0
  5  7  1  0  0  0  0
  7  8  1  0  0  0  0
  7  9  1  0  0  0  0
  9 10  1  0  0  0  0
  9 11  1  0  0  0  0
  9 22  1  0  0  0  0
 11 12  1  0  0  0  0
 11 13  1  0  0  0  0
 11 14  1  0  0  0  0
 14 15  1  0  0  0  0
 14 16  1  0  0  0  0
 14 17  1  0  0  0  0
 17 18  2  0  0  0  0
 17 19  1  0  0  0  0
 19 20  1  0  0  0  0
 19 21  1  0  0  0  0
 22 23  2  0  0  0  0
 22 24  1  0  0  0  0
 24 25  1  0  0  0  0
 24 26  1  0  0  0  0
 26 27  1  0  0  0  0
 26 28  1  0  0  0  0
 26 29  1  0  0  0  0
M  END
$$$$

  -OEChem-04042215583D

 29 28  0     1  0  0  0  0  0999 V2000
   -3.2620   -3.8211    1.4537 H   0  0  0  0  0  0  0  0  0  0  0  0
   -3.2801   -2.8589    0.9344 C   0  0  0  0  0  0  0  0  0  0  0  0
   -3.8991   -2.1625    1.5054 H   0  0  0  0  0  0  0  0  0  0  0  0
   -3.7209   -2.9997   -0.0554 H   0  0  0  0  0  0  0  0  0  0  0  0
   -1.8723   -2.3104    0.8002 C   0  0  0  0  0  0  0  0  0  0  0  0
   -0.9183   -2.9813    1.1655 O   0  0  0  0  0  0  0  0  0  0  0  0
   -1.6751   -1.0645    0.2418 N   0  0  0  0  0  0  0  0  0  0  0  0
   -2.5063   -0.5071    0.0482 H   0  0  0  0  0  0  0  0  0  0  0  0
   -0.3981   -0.3385    0.2757 C   0  0  1  0  0  0  0  0  0  0  0  0
    0.2053   -0.7596    1.0851 H   0  0  0  0  0  0  0  0  0  0  0  0
    0.3509   -0.4784   -1.0662 C   0  0  0  0  0  0  0  0  0  0  0  0
   -0.3409   -0.8190   -1.8435 H   0  0  0  0  0  0  0  0  0  0  0  0
    0.7321    0.4993   -1.3837 H   0  0  0  0  0  0  0  0  0  0  0  0
    1.5384   -1.4572   -0.9642 C   0  0  0  0  0  0  0  0  0  0  0  0
    1.1566   -2.4466   -0.6959 H   0  0  0  0  0  0  0  0  0  0  0  0
    2.0185   -1.5392   -1.9428 H   0  0  0  0  0  0  0  0  0  0  0  0
    2.6018   -1.0517    0.0598 C   0  0  0  0  0  0  0  0  0  0  0  0
    2.6239    0.0402    0.6061 O   0  0  0  0  0  0  0  0  0  0  0  0
    3.5724   -1.9274    0.4513 N   0  0  0  0  0  0  0  0  0  0  0  0
    4.1056   -1.6581    1.2728 H   0  0  0  0  0  0  0  0  0  0  0  0
    3.4514   -2.9099    0.2273 H   0  0  0  0  0  0  0  0  0  0  0  0
   -0.5911    1.1428    0.6497 C   0  0  0  0  0  0  0  0  0  0  0  0
   -1.5770    1.7486    0.2427 O   0  0  0  0  0  0  0  0  0  0  0  0
    0.2533    1.7292    1.5715 N   0  0  0  0  0  0  0  0  0  0  0  0
    1.1494    1.2559    1.7072 H   0  0  0  0  0  0  0  0  0  0  0  0
    0.1432    3.1270    1.9658 C   0  0  0  0  0  0  0  0  0  0  0  0
   -0.8558    3.3363    2.3626 H   0  0  0  0  0  0  0  0  0  0  0  0
    0.8764    3.3570    2.7447 H   0  0  0  0  0  0  0  0  0  0  0  0
    0.3273    3.7823    1.1083 H   0  0  0  0  0  0  0  0  0  0  0  0
  1  2  1  0  0  0  0
  2  3  1  0  0  0  0
  2  4  1  0  0  0  0
  2  5  1  0  0  0  0
  5  6  2  0  0  0  0
  5  7  1  0  0  0  0
  7  8  1  0  0  0  0
  7  9  1  0  0  0  0
  9 10  1  0  0  0  0
  9 11  1  0  0  0  0
  9 22  1  0  0  0  0
 11 12  1  0  0  0  0
 11 13  1  0  0  0  0
 11 14  1  0  0  0  0
 14 15  1  0  0  0  0
 14 16  1  0  0  0  0
 14 17  1  0  0  0  0
 17 18  2  0  0  0  0
 17 19  1  0  0  0  0
 19 20  1  0  0  0  0
 19 21  1  0  0  0  0
 22 23  2  0  0  0  0
 22 24  1  0  0  0  0
 24 25  1  0  0  0  0
 24 26  1  0  0  0  0
 26 27  1  0  0  0  0
 26 28  1  0  0  0  0
 26 29  1  0  0  0  0
M  END
$$$$

  -OEChem-04042215583D

 29 28  0     1  0  0  0  0  0999 V2000
   -3.0735   -3.9423    1.3928 H   0  0  0  0  0  0  0  0  0  0  0  0
   -3.1449   -2.9477    0.9440 C   0  0  0  0  0  0  0  0  0  0  0  0
   -3.7500   -2.3109    1.5937 H   0  0  0  0  0  0  0  0  0  0  0  0
   -3.6348   -3.0342   -0.0288 H   0  0  0  0  0  0  0  0  0  0  0  0
   -1.7612   -2.3490    0.7762 C   0  0  0  0  0  0  0  0  0  0  0  0
   -0.7723   -2.9950    1.0949 O   0  0  0  0  0  0  0  0  0  0  0  0
   -1.6205   -1.0873    0.2345 N   0  0  0  0  0  0  0  0  0  0  0  0
   -2.4732   -0.5520    0.0748 H   0  0  0  0  0  0  0  0  0  0  0  0
   -0.3647   -0.3259    0.2625 C   0  0  1  0  0  0  0  0  0  0  0  0
    0.2434   -0.7391    1.0695 H   0  0  0  0  0  0  0  0  0  0  0  0
    0.3674   -0.4370   -1.0943 C   0  0  0  0  0  0  0  0  0  0  0  0
   -0.3289   -0.7641   -1.8735 H   0  0  0  0  0  0  0  0  0  0  0  0
    0.7258    0.5569   -1.3861 H   0  0  0  0  0  0  0  0  0  0  0  0
    1.5899   -1.3795   -1.0579 C   0  0  0  0  0  0  0  0  0  0  0  0
    1.2248   -2.4106   -1.0518 H   0  0  0  0  0  0  0  0  0  0  0  0
    2.1836   -1.2440   -1.9658 H   0  0  0  0  0  0  0  0  0  0  0  0
    2.4998   -1.1888    0.1561 C   0  0  0  0  0  0  0  0  0  0  0  0
    2.7342   -0.0854    0.6228 O   0  0  0  0  0  0  0  0  0  0  0  0
    2.9337   -2.2517    0.8934 N   0  0  0  0  0  0  0  0  0  0  0  0
    3.2846   -2.0211    1.8179 H   0  0  0  0  0  0  0  0  0  0  0  0
    2.4568   -3.1383    0.7538 H   0  0  0  0  0  0  0  0  0  0  0  0
   -0.5761    1.1446    0.6647 C   0  0  0  0  0  0  0  0  0  0  0  0
   -1.5751    1.7427    0.2803 O   0  0  0  0  0  0  0  0  0  0  0  0
    0.2762    1.7287    1.5814 N   0  0  0  0  0  0  0  0  0  0  0  0
    1.1692    1.2531    1.7235 H   0  0  0  0  0  0  0  0  0  0  0  0
    0.1623    3.1225    1.9888 C   0  0  0  0  0  0  0  0  0  0  0  0
   -0.8220    3.3148    2.4285 H   0  0  0  0  0  0  0  0  0  0  0  0
    0.9250    3.3593    2.7368 H   0  0  0  0  0  0  0  0  0  0  0  0
    0.3006    3.7856    1.1286 H   0  0  0  0  0  0  0  0  0  0  0  0
  1  2  1  0  0  0  0
  2  3  1  0  0  0  0
  2  4  1  0  0  0  0
  2  5  1  0  0  0  0
  5  6  2  0  0  0  0
  5  7  1  0  0  0  0
  7  8  1  0  0  0  0
  7  9  1  0  0  0  0
  9 10  1  0  0  0  0
  9 11  1  0  0  0  0
  9 22  1  0  0  0  0
 11 12  1  0  0  0  0
 11 13  1  0  0  0  0
 11 14  1  0  0  0  0
 14 15  1  0  0  0  0
 14 16  1  0  0  0  0
 14 17  1  0  0  0  0
 17 18  2  0  0  0  0
 17 19  1  0  0  0  0
 19 20  1  0  0  0  0
 19 21  1  0  0  0  0
 22 23  2  0  0  0  0
 22 24  1  0  0  0  0
 24 25  1  0  0  0  0
 24 26  1  0  0  0  0
 26 27  1  0  0  0  0
 26 28  1  0  0  0  0
 26 29  1  0  0  0  0
M  END
$$$$

  -OEChem-04042215583D

 29 28  0     1  0  0  0  0  0999 V2000
   -2.9813   -3.9760    1.3899 H   0  0  0  0  0  0  0  0  0  0  0  0
   -3.0550   -2.9868    0.9295 C   0  0  0  0  0  0  0  0  0  0  0  0
   -3.6824   -2.3515    1.5594 H   0  0  0  0  0  0  0  0  0  0  0  0
   -3.5227   -3.0889   -0.0528 H   0  0  0  0  0  0  0  0  0  0  0  0
   -1.6757   -2.3721    0.7847 C   0  0  0  0  0  0  0  0  0  0  0  0
   -0.6818   -3.0069    1.1141 O   0  0  0  0  0  0  0  0  0  0  0  0
   -1.5395   -1.1135    0.2355 N   0  0  0  0  0  0  0  0  0  0  0  0
   -2.3956   -0.5902    0.0531 H   0  0  0  0  0  0  0  0  0  0  0  0
   -0.2955   -0.3346    0.2888 C   0  0  1  0  0  0  0  0  0  0  0  0
    0.3066   -0.7170    1.1129 H   0  0  0  0  0  0  0  0  0  0  0  0
    0.4354   -0.4487   -1.0719 C   0  0  0  0  0  0  0  0  0  0  0  0
   -0.2655   -0.7593   -1.8541 H   0  0  0  0  0  0  0  0  0  0  0  0
    0.7878    0.5512   -1.3497 H   0  0  0  0  0  0  0  0  0  0  0  0
    1.6748   -1.3758   -1.0879 C   0  0  0  0  0  0  0  0  0  0  0  0
    1.3414   -2.3841   -1.3499 H   0  0  0  0  0  0  0  0  0  0  0  0
    2.3652   -1.0487   -1.8705 H   0  0  0  0  0  0  0  0  0  0  0  0
    2.4366   -1.4753    0.2300 C   0  0  0  0  0  0  0  0  0  0  0  0
    3.0013   -0.5058    0.7052 O   0  0  0  0  0  0  0  0  0  0  0  0
    2.3043   -2.5540    1.0554 N   0  0  0  0  0  0  0  0  0  0  0  0
    2.6214   -2.3967    2.0065 H   0  0  0  0  0  0  0  0  0  0  0  0
    1.4682   -3.1244    0.9167 H   0  0  0  0  0  0  0  0  0  0  0  0
   -0.5580    1.1334    0.6733 C   0  0  0  0  0  0  0  0  0  0  0  0
   -1.5497    1.7065    0.2369 O   0  0  0  0  0  0  0  0  0  0  0  0
    0.2454    1.7553    1.6099 N   0  0  0  0  0  0  0  0  0  0  0  0
    1.1122    1.2811    1.8609 H   0  0  0  0  0  0  0  0  0  0  0  0
    0.0596    3.1398    2.0249 C   0  0  0  0  0  0  0  0  0  0  0  0
   -0.9492    3.2889    2.4241 H   0  0  0  0  0  0  0  0  0  0  0  0
    0.7798    3.3995    2.8068 H   0  0  0  0  0  0  0  0  0  0  0  0
    0.2072    3.8168    1.1772 H   0  0  0  0  0  0  0  0  0  0  0  0
  1  2  1  0  0  0  0
  2  3  1  0  0  0  0
  2  4  1  0  0  0  0
  2  5  1  0  0  0  0
  5  6  2  0  0  0  0
  5  7  1  0  0  0  0
  7  8  1  0  0  0  0
  7  9  1  0  0  0  0
  9 10  1  0  0  0  0
  9 11  1  0  0  0  0
  9 22  1  0  0  0  0
 11 12  1  0  0  0  0
 11 13  1  0  0  0  0
 11 14  1  0  0  0  0
 14 15  1  0  0  0  0
 14 16  1  0  0  0  0
 14 17  1  0  0  0  0
 17 18  2  0  0  0  0
 17 19  1  0  0  0  0
 19 20  1  0  0  0  0
 19 21  1  0  0  0  0
 22 23  2  0  0  0  0
 22 24  1  0  0  0  0
 24 25  1  0  0  0  0
 24 26  1  0  0  0  0
 26 27  1  0  0  0  0
 26 28  1  0  0  0  0
 26 29  1  0  0  0  0
M  END
$$$$

  -OEChem-04042215583D

 29 28  0     1  0  0  0  0  0999 V2000
   -3.0965   -3.9168    1.3798 H   0  0  0  0  0  0  0  0  0  0  0  0
   -3.1140   -2.9423    0.8839 C   0  0  0  0  0  0  0  0  0  0  0  0
   -3.7628   -2.2707    1.4517 H   0  0  0  0  0  0  0  0  0  0  0  0
   -3.5210   -3.0657   -0.1227 H   0  0  0  0  0  0  0  0  0  0  0  0
   -1.7123   -2.3671    0.8096 C   0  0  0  0  0  0  0  0  0  0  0  0
   -0.7616   -3.0245    1.2030 O   0  0  0  0  0  0  0  0  0  0  0  0
   -1.5143   -1.1230    0.2499 N   0  0  0  0  0  0  0  0  0  0  0  0
   -2.3536   -0.6013   -0.0023 H   0  0  0  0  0  0  0  0  0  0  0  0
   -0.2746   -0.3345    0.3340 C   0  0  1  0  0  0  0  0  0  0  0  0
    0.3084   -0.6954    1.1826 H   0  0  0  0  0  0  0  0  0  0  0  0
    0.4998   -0.4753   -1.0021 C   0  0  0  0  0  0  0  0  0  0  0  0
   -0.1839   -0.8007   -1.7935 H   0  0  0  0  0  0  0  0  0  0  0  0
    0.8432    0.5249   -1.2897 H   0  0  0  0  0  0  0  0  0  0  0  0
    1.7567   -1.3841   -1.0119 C   0  0  0  0  0  0  0  0  0  0  0  0
    1.4971   -2.3137   -1.5262 H   0  0  0  0  0  0  0  0  0  0  0  0
    2.5439   -0.9028   -1.5992 H   0  0  0  0  0  0  0  0  0  0  0  0
    2.3381   -1.7730    0.3445 C   0  0  0  0  0  0  0  0  0  0  0  0
    2.9806   -0.9671    0.9937 O   0  0  0  0  0  0  0  0  0  0  0  0
    2.0870   -2.9654    0.9542 N   0  0  0  0  0  0  0  0  0  0  0  0
    2.3663   -2.9892    1.9294 H   0  0  0  0  0  0  0  0  0  0  0  0
    1.1932   -3.3980    0.7167 H   0  0  0  0  0  0  0  0  0  0  0  0
   -0.5750    1.1386    0.6684 C   0  0  0  0  0  0  0  0  0  0  0  0
   -1.5429    1.6905    0.1577 O   0  0  0  0  0  0  0  0  0  0  0  0
    0.1741    1.8004    1.6225 N   0  0  0  0  0  0  0  0  0  0  0  0
    0.9964    1.3216    1.9862 H   0  0  0  0  0  0  0  0  0  0  0  0
   -0.0637    3.1851    2.0089 C   0  0  0  0  0  0  0  0  0  0  0  0
   -1.0927    3.3142    2.3606 H   0  0  0  0  0  0  0  0  0  0  0  0
    0.6146    3.4730    2.8180 H   0  0  0  0  0  0  0  0  0  0  0  0
    0.1054    3.8546    1.1591 H   0  0  0  0  0  0  0  0  0  0  0  0
  1  2  1  0  0  0  0
  2  3  1  0  0  0  0
  2  4  1  0  0  0  0
  2  5  1  0  0  0  0
  5  6  2  0  0  0  0
  5  7  1  0  0  0  0
  7  8  1  0  0  0  0
  7  9  1  0  0  0  0
  9 10  1  0  0  0  0
  9 11  1  0  0  0  0
  9 22  1  0  0  0  0
 11 12  1  0  0  0  0
 11 13  1  0  0  0  0
 11 14  1  0  0  0  0
 14 15  1  0  0  0  0
 14 16  1  0  0  0  0
 14 17  1  0  0  0  0
 17 18  2  0  0  0  0
 17 19  1  0  0  0  0
 19 20  1  0  0  0  0
 19 21  1  0  0  0  0
 22 23  2  0  0  0  0
 22 24  1  0  0  0  0
 24 25  1  0  0  0  0
 24 26  1  0  0  0  0
 26 27  1  0  0  0  0
 26 28  1  0  0  0  0
 26 29  1  0  0  0  0
M  END
$$$$

  -OEChem-04042215583D

 29 28  0     1  0  0  0  0  0999 V2000
   -3.1966   -3.8645    1.3662 H   0  0  0  0  0  0  0  0  0  0  0  0
   -3.1678   -2.9001    0.8513 C   0  0  0  0  0  0  0  0  0  0  0  0
   -3.8477   -2.2113    1.3589 H   0  0  0  0  0  0  0  0  0  0  0  0
   -3.5045   -3.0399   -0.1788 H   0  0  0  0  0  0  0  0  0  0  0  0
   -1.7580   -2.3400    0.8645 C   0  0  0  0  0  0  0  0  0  0  0  0
   -0.8546   -2.9848    1.3679 O   0  0  0  0  0  0  0  0  0  0  0  0
   -1.5078   -1.1183    0.2783 N   0  0  0  0  0  0  0  0  0  0  0  0
   -2.3237   -0.6063   -0.0564 H   0  0  0  0  0  0  0  0  0  0  0  0
   -0.2659   -0.3332    0.3845 C   0  0  1  0  0  0  0  0  0  0  0  0
    0.2981   -0.6708    1.2565 H   0  0  0  0  0  0  0  0  0  0  0  0
    0.5543   -0.4935   -0.9238 C   0  0  0  0  0  0  0  0  0  0  0  0
   -0.1121   -0.8479   -1.7176 H   0  0  0  0  0  0  0  0  0  0  0  0
    0.8918    0.5009   -1.2372 H   0  0  0  0  0  0  0  0  0  0  0  0
    1.8148   -1.3987   -0.8987 C   0  0  0  0  0  0  0  0  0  0  0  0
    1.6888   -2.1837   -1.6494 H   0  0  0  0  0  0  0  0  0  0  0  0
    2.6777   -0.8018   -1.2085 H   0  0  0  0  0  0  0  0  0  0  0  0
    2.1801   -2.0767    0.4184 C   0  0  0  0  0  0  0  0  0  0  0  0
    2.7732   -1.4568    1.2834 O   0  0  0  0  0  0  0  0  0  0  0  0
    1.9131   -3.3858    0.6855 N   0  0  0  0  0  0  0  0  0  0  0  0
    2.0450   -3.6241    1.6637 H   0  0  0  0  0  0  0  0  0  0  0  0
    1.0835   -3.7585    0.2324 H   0  0  0  0  0  0  0  0  0  0  0  0
   -0.5848    1.1492    0.6546 C   0  0  0  0  0  0  0  0  0  0  0  0
   -1.5127    1.6882    0.0621 O   0  0  0  0  0  0  0  0  0  0  0  0
    0.1205    1.8476    1.6158 N   0  0  0  0  0  0  0  0  0  0  0  0
    0.8819    1.3612    2.0854 H   0  0  0  0  0  0  0  0  0  0  0  0
   -0.1483    3.2383    1.9576 C   0  0  0  0  0  0  0  0  0  0  0  0
   -1.1842    3.3578    2.2920 H   0  0  0  0  0  0  0  0  0  0  0  0
    0.5146    3.5636    2.7653 H   0  0  0  0  0  0  0  0  0  0  0  0
    0.0192    3.8852    1.0901 H   0  0  0  0  0  0  0  0  0  0  0  0
  1  2  1  0  0  0  0
  2  3  1  0  0  0  0
  2  4  1  0  0  0  0
  2  5  1  0  0  0  0
  5  6  2  0  0  0  0
  5  7  1  0  0  0  0
  7  8  1  0  0  0  0
  7  9  1  0  0  0  0
  9 10  1  0  0  0  0
  9 11  1  0  0  0  0
  9 22  1  0  0  0  0
 11 12  1  0  0  0  0
 11 13  1  0  0  0  0
 11 14  1  0  0  0  0
 14 15  1  0  0  0  0
 14 16  1  0  0  0  0
 14 17  1  0  0  0  0
 17 18  2  0  0  0  0
 17 19  1  0  0  0  0
 19 20  1  0  0  0  0
 19 21  1  0  0  0  0
 22 23  2  0  0  0  0
 22 24  1  0  0  0  0
 24 25  1  0  0  0  0
 24 26  1  0  0  0  0
 26 27  1  0  0  0  0
 26 28  1  0  0  0  0
 26 29  1  0  0  0  0
M  END
$$$$

  -OEChem-04042215583D

 29 28  0     1  0  0  0  0  0999 V2000
   -3.2387   -3.8445    1.3491 H   0  0  0  0  0  0  0  0  0  0  0  0
   -3.1788   -2.8856    0.8263 C   0  0  0  0  0  0  0  0  0  0  0  0
   -3.8937   -2.1937    1.2785 H   0  0  0  0  0  0  0  0  0  0  0  0
   -3.4442   -3.0390   -0.2224 H   0  0  0  0  0  0  0  0  0  0  0  0
   -1.7753   -2.3191    0.9296 C   0  0  0  0  0  0  0  0  0  0  0  0
   -0.9260   -2.9258    1.5572 O   0  0  0  0  0  0  0  0  0  0  0  0
   -1.4840   -1.1193    0.3163 N   0  0  0  0  0  0  0  0  0  0  0  0
   -2.2725   -0.6223   -0.0972 H   0  0  0  0  0  0  0  0  0  0  0  0
   -0.2347   -0.3472    0.4357 C   0  0  1  0  0  0  0  0  0  0  0  0
    0.3223   -0.6693    1.3198 H   0  0  0  0  0  0  0  0  0  0  0  0
    0.6117   -0.5106   -0.8573 C   0  0  0  0  0  0  0  0  0  0  0  0
   -0.0472   -0.8831   -1.6490 H   0  0  0  0  0  0  0  0  0  0  0  0
    0.9518    0.4770   -1.1894 H   0  0  0  0  0  0  0  0  0  0  0  0
    1.8622   -1.4250   -0.8043 C   0  0  0  0  0  0  0  0  0  0  0  0
    1.9075   -2.0146   -1.7238 H   0  0  0  0  0  0  0  0  0  0  0  0
    2.7498   -0.7854   -0.7959 H   0  0  0  0  0  0  0  0  0  0  0  0
    1.9951   -2.3719    0.3820 C   0  0  0  0  0  0  0  0  0  0  0  0
    2.5280   -2.0000    1.4119 O   0  0  0  0  0  0  0  0  0  0  0  0
    1.6120   -3.6791    0.3199 N   0  0  0  0  0  0  0  0  0  0  0  0
    1.5001   -4.1004    1.2385 H   0  0  0  0  0  0  0  0  0  0  0  0
    0.9223   -3.9081   -0.3859 H   0  0  0  0  0  0  0  0  0  0  0  0
   -0.5660    1.1422    0.6513 C   0  0  0  0  0  0  0  0  0  0  0  0
   -1.4612    1.6657   -0.0029 O   0  0  0  0  0  0  0  0  0  0  0  0
    0.1037    1.8743    1.6126 N   0  0  0  0  0  0  0  0  0  0  0  0
    0.8118    1.3916    2.1617 H   0  0  0  0  0  0  0  0  0  0  0  0
   -0.1974    3.2678    1.9146 C   0  0  0  0  0  0  0  0  0  0  0  0
   -1.2413    3.3751    2.2277 H   0  0  0  0  0  0  0  0  0  0  0  0
    0.4447    3.6259    2.7251 H   0  0  0  0  0  0  0  0  0  0  0  0
   -0.0264    3.8964    1.0343 H   0  0  0  0  0  0  0  0  0  0  0  0
  1  2  1  0  0  0  0
  2  3  1  0  0  0  0
  2  4  1  0  0  0  0
  2  5  1  0  0  0  0
  5  6  2  0  0  0  0
  5  7  1  0  0  0  0
  7  8  1  0  0  0  0
  7  9  1  0  0  0  0
  9 10  1  0  0  0  0
  9 11  1  0  0  0  0
  9 22  1  0  0  0  0
 11 12  1  0  0  0  0
 11 13  1  0  0  0  0
 11 14  1  0  0  0  0
 14 15  1  0  0  0  0
 14 16  1  0  0  0  0
 14 17  1  0  0  0  0
 17 18  2  0  0  0  0
 17 19  1  0  0  0  0
 19 20  1  0  0  0  0
 19 21  1  0  0  0  0
 22 23  2  0  0  0  0
 22 24  1  0  0  0  0
 24 25  1  0  0  0  0
 24 26  1  0  0  0  0
 26 27  1  0  0  0  0
 26 28  1  0  0  0  0
 26 29  1  0  0  0  0
M  END
$$$$

  -OEChem-04042215583D

 29 28  0     1  0  0  0  0  0999 V2000
   -3.2163   -3.8704    1.3899 H   0  0  0  0  0  0  0  0  0  0  0  0
   -3.1534   -2.9177    0.8564 C   0  0  0  0  0  0  0  0  0  0  0  0
   -3.8906   -2.2296    1.2775 H   0  0  0  0  0  0  0  0  0  0  0  0
   -3.3854   -3.0885   -0.1976 H   0  0  0  0  0  0  0  0  0  0  0  0
   -1.7612   -2.3308    0.9944 C   0  0  0  0  0  0  0  0  0  0  0  0
   -0.9360   -2.8988    1.6857 O   0  0  0  0  0  0  0  0  0  0  0  0
   -1.4620   -1.1450    0.3574 N   0  0  0  0  0  0  0  0  0  0  0  0
   -2.2426   -0.6683   -0.0929 H   0  0  0  0  0  0  0  0  0  0  0  0
   -0.2119   -0.3697    0.4573 C   0  0  1  0  0  0  0  0  0  0  0  0
    0.3620   -0.6829    1.3358 H   0  0  0  0  0  0  0  0  0  0  0  0
    0.6308   -0.5381   -0.8371 C   0  0  0  0  0  0  0  0  0  0  0  0
   -0.0267   -0.9301   -1.6203 H   0  0  0  0  0  0  0  0  0  0  0  0
    0.9689    0.4443   -1.1865 H   0  0  0  0  0  0  0  0  0  0  0  0
    1.8778   -1.4483   -0.7571 C   0  0  0  0  0  0  0  0  0  0  0  0
    2.0919   -1.8501   -1.7511 H   0  0  0  0  0  0  0  0  0  0  0  0
    2.7318   -0.8251   -0.4744 H   0  0  0  0  0  0  0  0  0  0  0  0
    1.8277   -2.6027    0.2333 C   0  0  0  0  0  0  0  0  0  0  0  0
    2.3917   -2.5160    1.3080 O   0  0  0  0  0  0  0  0  0  0  0  0
    1.2544   -3.8016   -0.0751 N   0  0  0  0  0  0  0  0  0  0  0  0
    1.0357   -4.3560    0.7495 H   0  0  0  0  0  0  0  0  0  0  0  0
    0.5930   -3.8048   -0.8416 H   0  0  0  0  0  0  0  0  0  0  0  0
   -0.5514    1.1227    0.6405 C   0  0  0  0  0  0  0  0  0  0  0  0
   -1.4385    1.6311   -0.0363 O   0  0  0  0  0  0  0  0  0  0  0  0
    0.1143    1.8811    1.5844 N   0  0  0  0  0  0  0  0  0  0  0  0
    0.8011    1.4082    2.1673 H   0  0  0  0  0  0  0  0  0  0  0  0
   -0.2012    3.2778    1.8569 C   0  0  0  0  0  0  0  0  0  0  0  0
   -1.2406    3.3786    2.1866 H   0  0  0  0  0  0  0  0  0  0  0  0
    0.4508    3.6657    2.6455 H   0  0  0  0  0  0  0  0  0  0  0  0
   -0.0557    3.8863    0.9582 H   0  0  0  0  0  0  0  0  0  0  0  0
  1  2  1  0  0  0  0
  2  3  1  0  0  0  0
  2  4  1  0  0  0  0
  2  5  1  0  0  0  0
  5  6  2  0  0  0  0
  5  7  1  0  0  0  0
  7  8  1  0  0  0  0
  7  9  1  0  0  0  0
  9 10  1  0  0  0  0
  9 11  1  0  0  0  0
  9 22  1  0  0  0  0
 11 12  1  0  0  0  0
 11 13  1  0  0  0  0
 11 14  1  0  0  0  0
 14 15  1  0  0  0  0
 14 16  1  0  0  0  0
 14 17  1  0  0  0  0
 17 18  2  0  0  0  0
 17 19  1  0  0  0  0
 19 20  1  0  0  0  0
 19 21  1  0  0  0  0
 22 23  2  0  0  0  0
 22 24  1  0  0  0  0
 24 25  1  0  0  0  0
 24 26  1  0  0  0  0
 26 27  1  0  0  0  0
 26 28  1  0  0  0  0
 26 29  1  0  0  0  0
M  END
$$$$

  -OEChem-04042215583D

 29 28  0     1  0  0  0  0  0999 V2000
   -3.2141   -3.9145    1.4054 H   0  0  0  0  0  0  0  0  0  0  0  0
   -3.1598   -3.0107    0.7923 C   0  0  0  0  0  0  0  0  0  0  0  0
   -3.9928   -2.3546    1.0553 H   0  0  0  0  0  0  0  0  0  0  0  0
   -3.2439   -3.2945   -0.2597 H   0  0  0  0  0  0  0  0  0  0  0  0
   -1.8417   -2.2986    1.0270 C   0  0  0  0  0  0  0  0  0  0  0  0
   -1.0186   -2.7703    1.7996 O   0  0  0  0  0  0  0  0  0  0  0  0
   -1.6012   -1.0789    0.4257 N   0  0  0  0  0  0  0  0  0  0  0  0
   -2.3449   -0.6833   -0.1459 H   0  0  0  0  0  0  0  0  0  0  0  0
   -0.2887   -0.4183    0.3896 C   0  0  1  0  0  0  0  0  0  0  0  0
    0.4022   -0.8520    1.1178 H   0  0  0  0  0  0  0  0  0  0  0  0
    0.2943   -0.5033   -1.0475 C   0  0  0  0  0  0  0  0  0  0  0  0
   -0.5160   -0.7456   -1.7443 H   0  0  0  0  0  0  0  0  0  0  0  0
    0.6833    0.4747   -1.3532 H   0  0  0  0  0  0  0  0  0  0  0  0
    1.4268   -1.5322   -1.2401 C   0  0  0  0  0  0  0  0  0  0  0  0
    1.6079   -1.6800   -2.3088 H   0  0  0  0  0  0  0  0  0  0  0  0
    2.3475   -1.1365   -0.8035 H   0  0  0  0  0  0  0  0  0  0  0  0
    1.1346   -2.8847   -0.6001 C   0  0  0  0  0  0  0  0  0  0  0  0
    0.3290   -3.6447   -1.1047 O   0  0  0  0  0  0  0  0  0  0  0  0
    1.7118   -3.2892    0.5690 N   0  0  0  0  0  0  0  0  0  0  0  0
    1.1830   -4.0165    1.0461 H   0  0  0  0  0  0  0  0  0  0  0  0
    2.1653   -2.5813    1.1328 H   0  0  0  0  0  0  0  0  0  0  0  0
   -0.4678    1.0740    0.7426 C   0  0  0  0  0  0  0  0  0  0  0  0
   -1.3408    1.7352    0.1924 O   0  0  0  0  0  0  0  0  0  0  0  0
    0.3940    1.6910    1.6308 N   0  0  0  0  0  0  0  0  0  0  0  0
    1.0468    1.1002    2.1369 H   0  0  0  0  0  0  0  0  0  0  0  0
    0.2569    3.0865    2.0305 C   0  0  0  0  0  0  0  0  0  0  0  0
   -0.7163    3.2557    2.5033 H   0  0  0  0  0  0  0  0  0  0  0  0
    1.0404    3.3544    2.7458 H   0  0  0  0  0  0  0  0  0  0  0  0
    0.3450    3.7448    1.1598 H   0  0  0  0  0  0  0  0  0  0  0  0
  1  2  1  0  0  0  0
  2  3  1  0  0  0  0
  2  4  1  0  0  0  0
  2  5  1  0  0  0  0
  5  6  2  0  0  0  0
  5  7  1  0  0  0  0
  7  8  1  0  0  0  0
  7  9  1  0  0  0  0
  9 10  1  0  0  0  0
  9 11  1  0  0  0  0
  9 22  1  0  0  0  0
 11 12  1  0  0  0  0
 11 13  1  0  0  0  0
 11 14  1  0  0  0  0
 14 15  1  0  0  0  0
 14 16  1  0  0  0  0
 14 17  1  0  0  0  0
 17 18  2  0  0  0  0
 17 19  1  0  0  0  0
 19 20  1  0  0  0  0
 19 21  1  0  0  0  0
 22 23  2  0  0  0  0
 22 24  1  0  0  0  0
 24 25  1  0  0  0  0
 24 26  1  0  0  0  0
 26 27  1  0  0  0  0
 26 28  1  0  0  0  0
 26 29  1  0  0  0  0
M  END
$$$$

  -OEChem-04042215583D

 29 28  0     1  0  0  0  0  0999 V2000
   -3.1398   -3.9366    1.4243 H   0  0  0  0  0  0  0  0  0  0  0  0
   -3.1106   -3.0257    0.8202 C   0  0  0  0  0  0  0  0  0  0  0  0
   -3.9332   -2.3741    1.1239 H   0  0  0  0  0  0  0  0  0  0  0  0
   -3.2364   -3.2969   -0.2311 H   0  0  0  0  0  0  0  0  0  0  0  0
   -1.7853   -2.3137    1.0100 C   0  0  0  0  0  0  0  0  0  0  0  0
   -0.9234   -2.8036    1.7268 O   0  0  0  0  0  0  0  0  0  0  0  0
   -1.5730   -1.0860    0.4156 N   0  0  0  0  0  0  0  0  0  0  0  0
   -2.3400   -0.6863   -0.1215 H   0  0  0  0  0  0  0  0  0  0  0  0
   -0.2766   -0.3960    0.3661 C   0  0  1  0  0  0  0  0  0  0  0  0
    0.4308   -0.8234    1.0833 H   0  0  0  0  0  0  0  0  0  0  0  0
    0.2905   -0.4825   -1.0740 C   0  0  0  0  0  0  0  0  0  0  0  0
   -0.5133   -0.7352   -1.7752 H   0  0  0  0  0  0  0  0  0  0  0  0
    0.6744    0.4975   -1.3791 H   0  0  0  0  0  0  0  0  0  0  0  0
    1.4386   -1.4965   -1.2271 C   0  0  0  0  0  0  0  0  0  0  0  0
    1.7922   -1.4934   -2.2619 H   0  0  0  0  0  0  0  0  0  0  0  0
    2.2771   -1.2016   -0.5908 H   0  0  0  0  0  0  0  0  0  0  0  0
    1.0100   -2.9164   -0.8703 C   0  0  0  0  0  0  0  0  0  0  0  0
    0.1270   -3.4817   -1.4896 O   0  0  0  0  0  0  0  0  0  0  0  0
    1.5490   -3.6000    0.1807 N   0  0  0  0  0  0  0  0  0  0  0  0
    0.9662   -4.3700    0.4994 H   0  0  0  0  0  0  0  0  0  0  0  0
    2.0343   -3.0534    0.8821 H   0  0  0  0  0  0  0  0  0  0  0  0
   -0.4762    1.0909    0.7290 C   0  0  0  0  0  0  0  0  0  0  0  0
   -1.3761    1.7354    0.2031 O   0  0  0  0  0  0  0  0  0  0  0  0
    0.3865    1.7202    1.6074 N   0  0  0  0  0  0  0  0  0  0  0  0
    1.0694    1.1432    2.0895 H   0  0  0  0  0  0  0  0  0  0  0  0
    0.2326    3.1125    2.0115 C   0  0  0  0  0  0  0  0  0  0  0  0
   -0.7370    3.2655    2.4972 H   0  0  0  0  0  0  0  0  0  0  0  0
    1.0212    3.3914    2.7169 H   0  0  0  0  0  0  0  0  0  0  0  0
    0.2989    3.7735    1.1408 H   0  0  0  0  0  0  0  0  0  0  0  0
  1  2  1  0  0  0  0
  2  3  1  0  0  0  0
  2  4  1  0  0  0  0
  2  5  1  0  0  0  0
  5  6  2  0  0  0  0
  5  7  1  0  0  0  0
  7  8  1  0  0  0  0
  7  9  1  0  0  0  0
  9 10  1  0  0  0  0
  9 11  1  0  0  0  0
  9 22  1  0  0  0  0
 11 12  1  0  0  0  0
 11 13  1  0  0  0  0
 11 14  1  0  0  0  0
 14 15  1  0  0  0  0
 14 16  1  0  0  0  0
 14 17  1  0  0  0  0
 17 18  2  0  0  0  0
 17 19  1  0  0  0  0
 19 20  1  0  0  0  0
 19 21  1  0  0  0  0
 22 23  2  0  0  0  0
 22 24  1  0  0  0  0
 24 25  1  0  0  0  0
 24 26  1  0  0  0  0
 26 27  1  0  0  0  0
 26 28  1  0  0  0  0
 26 29  1  0  0  0  0
M  END
$$$$

  -OEChem-04042215583D

 29 28  0     1  0  0  0  0  0999 V2000
   -3.0446   -3.9711    1.4703 H   0  0  0  0  0  0  0  0  0  0  0  0
   -3.0540   -3.0379    0.9001 C   0  0  0  0  0  0  0  0  0  0  0  0
   -3.8351   -2.3878    1.3017 H   0  0  0  0  0  0  0  0  0  0  0  0
   -3.2807   -3.2662   -0.1444 H   0  0  0  0  0  0  0  0  0  0  0  0
   -1.7053   -2.3509    0.9972 C   0  0  0  0  0  0  0  0  0  0  0  0
   -0.7984   -2.8626    1.6382 O   0  0  0  0  0  0  0  0  0  0  0  0
   -1.5129   -1.1219    0.4027 N   0  0  0  0  0  0  0  0  0  0  0  0
   -2.3197   -0.6772   -0.0335 H   0  0  0  0  0  0  0  0  0  0  0  0
   -0.2353   -0.3974    0.3551 C   0  0  1  0  0  0  0  0  0  0  0  0
    0.4777   -0.8020    1.0802 H   0  0  0  0  0  0  0  0  0  0  0  0
    0.3531   -0.4615   -1.0758 C   0  0  0  0  0  0  0  0  0  0  0  0
   -0.4312   -0.7183   -1.7973 H   0  0  0  0  0  0  0  0  0  0  0  0
    0.7206    0.5317   -1.3579 H   0  0  0  0  0  0  0  0  0  0  0  0
    1.5342   -1.4364   -1.2237 C   0  0  0  0  0  0  0  0  0  0  0  0
    2.0471   -1.2286   -2.1675 H   0  0  0  0  0  0  0  0  0  0  0  0
    2.2575   -1.2785   -0.4192 H   0  0  0  0  0  0  0  0  0  0  0  0
    1.1085   -2.9013   -1.2437 C   0  0  0  0  0  0  0  0  0  0  0  0
    0.6963   -3.4180   -2.2647 O   0  0  0  0  0  0  0  0  0  0  0  0
    1.2197   -3.7303   -0.1677 N   0  0  0  0  0  0  0  0  0  0  0  0
    0.7898   -4.6378   -0.3165 H   0  0  0  0  0  0  0  0  0  0  0  0
    1.0770   -3.2967    0.7436 H   0  0  0  0  0  0  0  0  0  0  0  0
   -0.4833    1.0837    0.7135 C   0  0  0  0  0  0  0  0  0  0  0  0
   -1.4268    1.6843    0.2125 O   0  0  0  0  0  0  0  0  0  0  0  0
    0.3553    1.7428    1.5932 N   0  0  0  0  0  0  0  0  0  0  0  0
    1.0859    1.2001    2.0447 H   0  0  0  0  0  0  0  0  0  0  0  0
    0.1528    3.1275    2.0022 C   0  0  0  0  0  0  0  0  0  0  0  0
   -0.8006    3.2352    2.5300 H   0  0  0  0  0  0  0  0  0  0  0  0
    0.9576    3.4459    2.6717 H   0  0  0  0  0  0  0  0  0  0  0  0
    0.1494    3.7890    1.1293 H   0  0  0  0  0  0  0  0  0  0  0  0
  1  2  1  0  0  0  0
  2  3  1  0  0  0  0
  2  4  1  0  0  0  0
  2  5  1  0  0  0  0
  5  6  2  0  0  0  0
  5  7  1  0  0  0  0
  7  8  1  0  0  0  0
  7  9  1  0  0  0  0
  9 10  1  0  0  0  0
  9 11  1  0  0  0  0
  9 22  1  0  0  0  0
 11 12  1  0  0  0  0
 11 13  1  0  0  0  0
 11 14  1  0  0  0  0
 14 15  1  0  0  0  0
 14 16  1  0  0  0  0
 14 17  1  0  0  0  0
 17 18  2  0  0  0  0
 17 19  1  0  0  0  0
 19 20  1  0  0  0  0
 19 21  1  0  0  0  0
 22 23  2  0  0  0  0
 22 24  1  0  0  0  0
 24 25  1  0  0  0  0
 24 26  1  0  0  0  0
 26 27  1  0  0  0  0
 26 28  1  0  0  0  0
 26 29  1  0  0  0  0
M  END
$$$$

  -OEChem-04042215583D

 29 28  0     1  0  0  0  0  0999 V2000
   -2.9831   -3.9672    1.5087 H   0  0  0  0  0  0  0  0  0  0  0  0
   -3.0079   -3.0394    0.9303 C   0  0  0  0  0  0  0  0  0  0  0  0
   -3.7489   -2.3691    1.3729 H   0  0  0  0  0  0  0  0  0  0  0  0
   -3.3033   -3.2715   -0.0959 H   0  0  0  0  0  0  0  0  0  0  0  0
   -1.6421   -2.3797    0.9380 C   0  0  0  0  0  0  0  0  0  0  0  0
   -0.6939   -2.9344    1.4754 O   0  0  0  0  0  0  0  0  0  0  0  0
   -1.4729   -1.1424    0.3544 N   0  0  0  0  0  0  0  0  0  0  0  0
   -2.3052   -0.6701    0.0020 H   0  0  0  0  0  0  0  0  0  0  0  0
   -0.2137   -0.3853    0.3309 C   0  0  1  0  0  0  0  0  0  0  0  0
    0.4865   -0.7732    1.0773 H   0  0  0  0  0  0  0  0  0  0  0  0
    0.4086   -0.4548   -1.0840 C   0  0  0  0  0  0  0  0  0  0  0  0
   -0.3493   -0.7282   -1.8276 H   0  0  0  0  0  0  0  0  0  0  0  0
    0.7650    0.5438   -1.3610 H   0  0  0  0  0  0  0  0  0  0  0  0
    1.6170   -1.4058   -1.1757 C   0  0  0  0  0  0  0  0  0  0  0  0
    2.2873   -1.0484   -1.9631 H   0  0  0  0  0  0  0  0  0  0  0  0
    2.1883   -1.4084   -0.2439 H   0  0  0  0  0  0  0  0  0  0  0  0
    1.2107   -2.8304   -1.5380 C   0  0  0  0  0  0  0  0  0  0  0  0
    1.0273   -3.1570   -2.6953 O   0  0  0  0  0  0  0  0  0  0  0  0
    1.0506   -3.8167   -0.6105 N   0  0  0  0  0  0  0  0  0  0  0  0
    0.6320   -4.6673   -0.9724 H   0  0  0  0  0  0  0  0  0  0  0  0
    0.8073   -3.5244    0.3377 H   0  0  0  0  0  0  0  0  0  0  0  0
   -0.4986    1.0879    0.6926 C   0  0  0  0  0  0  0  0  0  0  0  0
   -1.4661    1.6593    0.2036 O   0  0  0  0  0  0  0  0  0  0  0  0
    0.3117    1.7618    1.5874 N   0  0  0  0  0  0  0  0  0  0  0  0
    1.0698    1.2435    2.0220 H   0  0  0  0  0  0  0  0  0  0  0  0
    0.0674    3.1365    2.0072 C   0  0  0  0  0  0  0  0  0  0  0  0
   -0.8952    3.2141    2.5236 H   0  0  0  0  0  0  0  0  0  0  0  0
    0.8550    3.4693    2.6904 H   0  0  0  0  0  0  0  0  0  0  0  0
    0.0574    3.8061    1.1406 H   0  0  0  0  0  0  0  0  0  0  0  0
  1  2  1  0  0  0  0
  2  3  1  0  0  0  0
  2  4  1  0  0  0  0
  2  5  1  0  0  0  0
  5  6  2  0  0  0  0
  5  7  1  0  0  0  0
  7  8  1  0  0  0  0
  7  9  1  0  0  0  0
  9 10  1  0  0  0  0
  9 11  1  0  0  0  0
  9 22  1  0  0  0  0
 11 12  1  0  0  0  0
 11 13  1  0  0  0  0
 11 14  1  0  0  0  0
 14 15  1  0  0  0  0
 14 16  1  0  0  0  0
 14 17  1  0  0  0  0
 17 18  2  0  0  0  0
 17 19  1  0  0  0  0
 19 20  1  0  0  0  0
 19 21  1  0  0  0  0
 22 23  2  0  0  0  0
 22 24  1  0  0  0  0
 24 25  1  0  0  0  0
 24 26  1  0  0  0  0
 26 27  1  0  0  0  0
 26 28  1  0  0  0  0
 26 29  1  0  0  0  0
M  END
$$$$

  -OEChem-04042215583D

 29 28  0     1  0  0  0  0  0999 V2000
   -2.9134   -3.9684    1.4943 H   0  0  0  0  0  0  0  0  0  0  0  0
   -2.9649   -3.0265    0.9412 C   0  0  0  0  0  0  0  0  0  0  0  0
   -3.6562   -2.3546    1.4556 H   0  0  0  0  0  0  0  0  0  0  0  0
   -3.3440   -3.2273   -0.0639 H   0  0  0  0  0  0  0  0  0  0  0  0
   -1.5901   -2.3914    0.8580 C   0  0  0  0  0  0  0  0  0  0  0  0
   -0.6086   -2.9920    1.2723 O   0  0  0  0  0  0  0  0  0  0  0  0
   -1.4416   -1.1468    0.2844 N   0  0  0  0  0  0  0  0  0  0  0  0
   -2.2922   -0.6511    0.0172 H   0  0  0  0  0  0  0  0  0  0  0  0
   -0.1990   -0.3624    0.3002 C   0  0  1  0  0  0  0  0  0  0  0  0
    0.4724   -0.7346    1.0799 H   0  0  0  0  0  0  0  0  0  0  0  0
    0.4714   -0.4603   -1.0883 C   0  0  0  0  0  0  0  0  0  0  0  0
   -0.2546   -0.7649   -1.8517 H   0  0  0  0  0  0  0  0  0  0  0  0
    0.8217    0.5362   -1.3801 H   0  0  0  0  0  0  0  0  0  0  0  0
    1.6981   -1.3963   -1.0909 C   0  0  0  0  0  0  0  0  0  0  0  0
    2.5046   -0.9236   -1.6595 H   0  0  0  0  0  0  0  0  0  0  0  0
    2.0801   -1.5748   -0.0828 H   0  0  0  0  0  0  0  0  0  0  0  0
    1.3828   -2.7272   -1.7618 C   0  0  0  0  0  0  0  0  0  0  0  0
    1.4498   -2.8640   -2.9687 O   0  0  0  0  0  0  0  0  0  0  0  0
    0.9724   -3.8150   -1.0482 N   0  0  0  0  0  0  0  0  0  0  0  0
    0.5992   -4.5830   -1.5959 H   0  0  0  0  0  0  0  0  0  0  0  0
    0.6242   -3.6575   -0.1000 H   0  0  0  0  0  0  0  0  0  0  0  0
   -0.5133    1.1044    0.6594 C   0  0  0  0  0  0  0  0  0  0  0  0
   -1.4971    1.6501    0.1741 O   0  0  0  0  0  0  0  0  0  0  0  0
    0.2624    1.7880    1.5772 N   0  0  0  0  0  0  0  0  0  0  0  0
    1.0388    1.2912    2.0049 H   0  0  0  0  0  0  0  0  0  0  0  0
   -0.0246    3.1512    2.0076 C   0  0  0  0  0  0  0  0  0  0  0  0
   -0.9992    3.1985    2.5050 H   0  0  0  0  0  0  0  0  0  0  0  0
    0.7399    3.4951    2.7110 H   0  0  0  0  0  0  0  0  0  0  0  0
   -0.0336    3.8311    1.1491 H   0  0  0  0  0  0  0  0  0  0  0  0
  1  2  1  0  0  0  0
  2  3  1  0  0  0  0
  2  4  1  0  0  0  0
  2  5  1  0  0  0  0
  5  6  2  0  0  0  0
  5  7  1  0  0  0  0
  7  8  1  0  0  0  0
  7  9  1  0  0  0  0
  9 10  1  0  0  0  0
  9 11  1  0  0  0  0
  9 22  1  0  0  0  0
 11 12  1  0  0  0  0
 11 13  1  0  0  0  0
 11 14  1  0  0  0  0
 14 15  1  0  0  0  0
 14 16  1  0  0  0  0
 14 17  1  0  0  0  0
 17 18  2  0  0  0  0
 17 19  1  0  0  0  0
 19 20  1  0  0  0  0
 19 21  1  0  0  0  0
 22 23  2  0  0  0  0
 22 24  1  0  0  0  0
 24 25  1  0  0  0  0
 24 26  1  0  0  0  0
 26 27  1  0  0  0  0
 26 28  1  0  0  0  0
 26 29  1  0  0  0  0
M  END
$$$$

  -OEChem-04042215583D

 29 28  0     1  0  0  0  0  0999 V2000
   -2.8503   -3.9966    1.4088 H   0  0  0  0  0  0  0  0  0  0  0  0
   -2.9334   -3.0193    0.9249 C   0  0  0  0  0  0  0  0  0  0  0  0
   -3.5704   -2.3766    1.5374 H   0  0  0  0  0  0  0  0  0  0  0  0
   -3.3966   -3.1490   -0.0564 H   0  0  0  0  0  0  0  0  0  0  0  0
   -1.5608   -2.3928    0.7705 C   0  0  0  0  0  0  0  0  0  0  0  0
   -0.5570   -3.0269    1.0644 O   0  0  0  0  0  0  0  0  0  0  0  0
   -1.4350   -1.1394    0.2110 N   0  0  0  0  0  0  0  0  0  0  0  0
   -2.2987   -0.6334    0.0146 H   0  0  0  0  0  0  0  0  0  0  0  0
   -0.2098   -0.3299    0.2723 C   0  0  1  0  0  0  0  0  0  0  0  0
    0.4259   -0.6901    1.0865 H   0  0  0  0  0  0  0  0  0  0  0  0
    0.5180   -0.4643   -1.0804 C   0  0  0  0  0  0  0  0  0  0  0  0
   -0.1737   -0.8214   -1.8530 H   0  0  0  0  0  0  0  0  0  0  0  0
    0.8584    0.5240   -1.4089 H   0  0  0  0  0  0  0  0  0  0  0  0
    1.7541   -1.3855   -0.9755 C   0  0  0  0  0  0  0  0  0  0  0  0
    2.6497   -0.8258   -1.2605 H   0  0  0  0  0  0  0  0  0  0  0  0
    1.9139   -1.7545    0.0406 H   0  0  0  0  0  0  0  0  0  0  0  0
    1.6180   -2.5804   -1.9056 C   0  0  0  0  0  0  0  0  0  0  0  0
    1.9278   -2.5256   -3.0806 O   0  0  0  0  0  0  0  0  0  0  0  0
    1.0522   -3.7401   -1.4599 N   0  0  0  0  0  0  0  0  0  0  0  0
    0.7842   -4.4139   -2.1695 H   0  0  0  0  0  0  0  0  0  0  0  0
    0.5730   -3.7235   -0.5576 H   0  0  0  0  0  0  0  0  0  0  0  0
   -0.5427    1.1313    0.6337 C   0  0  0  0  0  0  0  0  0  0  0  0
   -1.5326    1.6631    0.1461 O   0  0  0  0  0  0  0  0  0  0  0  0
    0.2025    1.8138    1.5773 N   0  0  0  0  0  0  0  0  0  0  0  0
    0.9943    1.3329    1.9948 H   0  0  0  0  0  0  0  0  0  0  0  0
   -0.0981    3.1762    2.0009 C   0  0  0  0  0  0  0  0  0  0  0  0
   -1.0858    3.2224    2.4718 H   0  0  0  0  0  0  0  0  0  0  0  0
    0.6467    3.5204    2.7250 H   0  0  0  0  0  0  0  0  0  0  0  0
   -0.0846    3.8563    1.1425 H   0  0  0  0  0  0  0  0  0  0  0  0
  1  2  1  0  0  0  0
  2  3  1  0  0  0  0
  2  4  1  0  0  0  0
  2  5  1  0  0  0  0
  5  6  2  0  0  0  0
  5  7  1  0  0  0  0
  7  8  1  0  0  0  0
  7  9  1  0  0  0  0
  9 10  1  0  0  0  0
  9 11  1  0  0  0  0
  9 22  1  0  0  0  0
 11 12  1  0  0  0  0
 11 13  1  0  0  0  0
 11 14  1  0  0  0  0
 14 15  1  0  0  0  0
 14 16  1  0  0  0  0
 14 17  1  0  0  0  0
 17 18  2  0  0  0  0
 17 19  1  0  0  0  0
 19 20  1  0  0  0  0
 19 21  1  0  0  0  0
 22 23  2  0  0  0  0
 22 24  1  0  0  0  0
 24 25  1  0  0  0  0
 24 26  1  0  0  0  0
 26 27  1  0  0  0  0
 26 28  1  0  0  0  0
 26 29  1  0  0  0  0
M  END
$$$$

  -OEChem-04042215583D

 29 28  0     1  0  0  0  0  0999 V2000
   -2.9168   -3.9672    1.3792 H   0  0  0  0  0  0  0  0  0  0  0  0
   -2.9807   -2.9849    0.9028 C   0  0  0  0  0  0  0  0  0  0  0  0
   -3.6303   -2.3440    1.5040 H   0  0  0  0  0  0  0  0  0  0  0  0
   -3.4168   -3.1029   -0.0921 H   0  0  0  0  0  0  0  0  0  0  0  0
   -1.6005   -2.3654    0.7928 C   0  0  0  0  0  0  0  0  0  0  0  0
   -0.6157   -2.9887    1.1612 O   0  0  0  0  0  0  0  0  0  0  0  0
   -1.4483   -1.1234    0.2142 N   0  0  0  0  0  0  0  0  0  0  0  0
   -2.3010   -0.6201   -0.0310 H   0  0  0  0  0  0  0  0  0  0  0  0
   -0.2196   -0.3205    0.2953 C   0  0  1  0  0  0  0  0  0  0  0  0
    0.3967   -0.6711    1.1293 H   0  0  0  0  0  0  0  0  0  0  0  0
    0.5489   -0.4675   -1.0329 C   0  0  0  0  0  0  0  0  0  0  0  0
   -0.1258   -0.8512   -1.8073 H   0  0  0  0  0  0  0  0  0  0  0  0
    0.8947    0.5117   -1.3828 H   0  0  0  0  0  0  0  0  0  0  0  0
    1.7754   -1.3916   -0.8764 C   0  0  0  0  0  0  0  0  0  0  0  0
    2.6904   -0.7935   -0.8381 H   0  0  0  0  0  0  0  0  0  0  0  0
    1.7236   -1.9709    0.0495 H   0  0  0  0  0  0  0  0  0  0  0  0
    1.8657   -2.3778   -2.0296 C   0  0  0  0  0  0  0  0  0  0  0  0
    2.2821   -2.0531   -3.1250 O   0  0  0  0  0  0  0  0  0  0  0  0
    1.3786   -3.6469   -1.9007 N   0  0  0  0  0  0  0  0  0  0  0  0
    1.2644   -4.1771   -2.7588 H   0  0  0  0  0  0  0  0  0  0  0  0
    0.8256   -3.8714   -1.0766 H   0  0  0  0  0  0  0  0  0  0  0  0
   -0.5552    1.1484    0.6202 C   0  0  0  0  0  0  0  0  0  0  0  0
   -1.5260    1.6780    0.0932 O   0  0  0  0  0  0  0  0  0  0  0  0
    0.1675    1.8428    1.5725 N   0  0  0  0  0  0  0  0  0  0  0  0
    0.9385    1.3612    2.0263 H   0  0  0  0  0  0  0  0  0  0  0  0
   -0.1405    3.2116    1.9693 C   0  0  0  0  0  0  0  0  0  0  0  0
   -1.1364    3.2644    2.4215 H   0  0  0  0  0  0  0  0  0  0  0  0
    0.5913    3.5674    2.7010 H   0  0  0  0  0  0  0  0  0  0  0  0
   -0.1115    3.8783    1.1008 H   0  0  0  0  0  0  0  0  0  0  0  0
  1  2  1  0  0  0  0
  2  3  1  0  0  0  0
  2  4  1  0  0  0  0
  2  5  1  0  0  0  0
  5  6  2  0  0  0  0
  5  7  1  0  0  0  0
  7  8  1  0  0  0  0
  7  9  1  0  0  0  0
  9 10  1  0  0  0  0
  9 11  1  0  0  0  0
  9 22  1  0  0  0  0
 11 12  1  0  0  0  0
 11 13  1  0  0  0  0
 11 14  1  0  0  0  0
 14 15  1  0  0  0  0
 14 16  1  0  0  0  0
 14 17  1  0  0  0  0
 17 18  2  0  0  0  0
 17 19  1  0  0  0  0
 19 20  1  0  0  0  0
 19 21  1  0  0  0  0
 22 23  2  0  0  0  0
 22 24  1  0  0  0  0
 24 25  1  0  0  0  0
 24 26  1  0  0  0  0
 26 27  1  0  0  0  0
 26 28  1  0  0  0  0
 26 29  1  0  0  0  0
M  END
$$$$

  -OEChem-04042215583D

 29 28  0     1  0  0  0  0  0999 V2000
   -3.0433   -3.9147    1.3592 H   0  0  0  0  0  0  0  0  0  0  0  0
   -3.0743   -2.9355    0.8732 C   0  0  0  0  0  0  0  0  0  0  0  0
   -3.7576   -2.2883    1.4285 H   0  0  0  0  0  0  0  0  0  0  0  0
   -3.4491   -3.0594   -0.1458 H   0  0  0  0  0  0  0  0  0  0  0  0
   -1.6876   -2.3210    0.8446 C   0  0  0  0  0  0  0  0  0  0  0  0
   -0.7391   -2.9272    1.3196 O   0  0  0  0  0  0  0  0  0  0  0  0
   -1.4948   -1.0907    0.2526 N   0  0  0  0  0  0  0  0  0  0  0  0
   -2.3259   -0.5871   -0.0567 H   0  0  0  0  0  0  0  0  0  0  0  0
   -0.2485   -0.3155    0.3322 C   0  0  1  0  0  0  0  0  0  0  0  0
    0.3653   -0.6750    1.1647 H   0  0  0  0  0  0  0  0  0  0  0  0
    0.5247   -0.4647   -0.9937 C   0  0  0  0  0  0  0  0  0  0  0  0
   -0.1528   -0.8436   -1.7679 H   0  0  0  0  0  0  0  0  0  0  0  0
    0.8883    0.5081   -1.3437 H   0  0  0  0  0  0  0  0  0  0  0  0
    1.7296   -1.4118   -0.8331 C   0  0  0  0  0  0  0  0  0  0  0  0
    2.6090   -0.8527   -0.5020 H   0  0  0  0  0  0  0  0  0  0  0  0
    1.5124   -2.1696   -0.0748 H   0  0  0  0  0  0  0  0  0  0  0  0
    2.0472   -2.1385   -2.1327 C   0  0  0  0  0  0  0  0  0  0  0  0
    2.3214   -1.5366   -3.1533 O   0  0  0  0  0  0  0  0  0  0  0  0
    1.9632   -3.4976   -2.2334 N   0  0  0  0  0  0  0  0  0  0  0  0
    1.9865   -3.8777   -3.1748 H   0  0  0  0  0  0  0  0  0  0  0  0
    1.5170   -4.0150   -1.4820 H   0  0  0  0  0  0  0  0  0  0  0  0
   -0.5618    1.1635    0.6362 C   0  0  0  0  0  0  0  0  0  0  0  0
   -1.5144    1.7064    0.0892 O   0  0  0  0  0  0  0  0  0  0  0  0
    0.1647    1.8577    1.5859 N   0  0  0  0  0  0  0  0  0  0  0  0
    0.9197    1.3668    2.0563 H   0  0  0  0  0  0  0  0  0  0  0  0
   -0.1199    3.2381    1.9595 C   0  0  0  0  0  0  0  0  0  0  0  0
   -1.1207    3.3179    2.3968 H   0  0  0  0  0  0  0  0  0  0  0  0
    0.6086    3.5884    2.6972 H   0  0  0  0  0  0  0  0  0  0  0  0
   -0.0648    3.8922    1.0827 H   0  0  0  0  0  0  0  0  0  0  0  0
  1  2  1  0  0  0  0
  2  3  1  0  0  0  0
  2  4  1  0  0  0  0
  2  5  1  0  0  0  0
  5  6  2  0  0  0  0
  5  7  1  0  0  0  0
  7  8  1  0  0  0  0
  7  9  1  0  0  0  0
  9 10  1  0  0  0  0
  9 11  1  0  0  0  0
  9 22  1  0  0  0  0
 11 12  1  0  0  0  0
 11 13  1  0  0  0  0
 11 14  1  0  0  0  0
 14 15  1  0  0  0  0
 14 16  1  0  0  0  0
 14 17  1  0  0  0  0
 17 18  2  0  0  0  0
 17 19  1  0  0  0  0
 19 20  1  0  0  0  0
 19 21  1  0  0  0  0
 22 23  2  0  0  0  0
 22 24  1  0  0  0  0
 24 25  1  0  0  0  0
 24 26  1  0  0  0  0
 26 27  1  0  0  0  0
 26 28  1  0  0  0  0
 26 29  1  0  0  0  0
M  END
$$$$

  -OEChem-04042215583D

 29 28  0     1  0  0  0  0  0999 V2000
   -3.1773   -3.8464    1.3445 H   0  0  0  0  0  0  0  0  0  0  0  0
   -3.1832   -2.8622    0.8678 C   0  0  0  0  0  0  0  0  0  0  0  0
   -3.8622   -2.2073    1.4193 H   0  0  0  0  0  0  0  0  0  0  0  0
   -3.5444   -2.9696   -0.1580 H   0  0  0  0  0  0  0  0  0  0  0  0
   -1.7853   -2.2736    0.8649 C   0  0  0  0  0  0  0  0  0  0  0  0
   -0.8612   -2.8868    1.3776 O   0  0  0  0  0  0  0  0  0  0  0  0
   -1.5601   -1.0494    0.2715 N   0  0  0  0  0  0  0  0  0  0  0  0
   -2.3729   -0.5353   -0.0672 H   0  0  0  0  0  0  0  0  0  0  0  0
   -0.2917   -0.3108    0.3400 C   0  0  1  0  0  0  0  0  0  0  0  0
    0.3250   -0.6916    1.1611 H   0  0  0  0  0  0  0  0  0  0  0  0
    0.4583   -0.4730   -0.9973 C   0  0  0  0  0  0  0  0  0  0  0  0
   -0.2337   -0.8284   -1.7696 H   0  0  0  0  0  0  0  0  0  0  0  0
    0.8480    0.4923   -1.3405 H   0  0  0  0  0  0  0  0  0  0  0  0
    1.6334   -1.4563   -0.8493 C   0  0  0  0  0  0  0  0  0  0  0  0
    2.4430   -0.9911   -0.2805 H   0  0  0  0  0  0  0  0  0  0  0  0
    1.2959   -2.3377   -0.2961 H   0  0  0  0  0  0  0  0  0  0  0  0
    2.1721   -1.9255   -2.1968 C   0  0  0  0  0  0  0  0  0  0  0  0
    2.1518   -1.2253   -3.1916 O   0  0  0  0  0  0  0  0  0  0  0  0
    2.6890   -3.1785   -2.3610 N   0  0  0  0  0  0  0  0  0  0  0  0
    2.8500   -3.4694   -3.3208 H   0  0  0  0  0  0  0  0  0  0  0  0
    2.5311   -3.8711   -1.6364 H   0  0  0  0  0  0  0  0  0  0  0  0
   -0.5649    1.1755    0.6472 C   0  0  0  0  0  0  0  0  0  0  0  0
   -1.5043    1.7463    0.1054 O   0  0  0  0  0  0  0  0  0  0  0  0
    0.1880    1.8482    1.5917 N   0  0  0  0  0  0  0  0  0  0  0  0
    0.9163    1.3280    2.0723 H   0  0  0  0  0  0  0  0  0  0  0  0
   -0.0747    3.2259    1.9903 C   0  0  0  0  0  0  0  0  0  0  0  0
   -1.0620    3.3076    2.4568 H   0  0  0  0  0  0  0  0  0  0  0  0
    0.6779    3.5613    2.7104 H   0  0  0  0  0  0  0  0  0  0  0  0
   -0.0394    3.8909    1.1208 H   0  0  0  0  0  0  0  0  0  0  0  0
  1  2  1  0  0  0  0
  2  3  1  0  0  0  0
  2  4  1  0  0  0  0
  2  5  1  0  0  0  0
  5  6  2  0  0  0  0
  5  7  1  0  0  0  0
  7  8  1  0  0  0  0
  7  9  1  0  0  0  0
  9 10  1  0  0  0  0
  9 11  1  0  0  0  0
  9 22  1  0  0  0  0
 11 12  1  0  0  0  0
 11 13  1  0  0  0  0
 11 14  1  0  0  0  0
 14 15  1  0  0  0  0
 14 16  1  0  0  0  0
 14 17  1  0  0  0  0
 17 18  2  0  0  0  0
 17 19  1  0  0  0  0
 19 20  1  0  0  0  0
 19 21  1  0  0  0  0
 22 23  2  0  0  0  0
 22 24  1  0  0  0  0
 24 25  1  0  0  0  0
 24 26  1  0  0  0  0
 26 27  1  0  0  0  0
 26 28  1  0  0  0  0
 26 29  1  0  0  0  0
M  END
$$$$

  -OEChem-04042215583D

 29 28  0     1  0  0  0  0  0999 V2000
   -3.2993   -3.7832    1.3765 H   0  0  0  0  0  0  0  0  0  0  0  0
   -3.2728   -2.8106    0.8775 C   0  0  0  0  0  0  0  0  0  0  0  0
   -3.9422   -2.1260    1.4040 H   0  0  0  0  0  0  0  0  0  0  0  0
   -3.6225   -2.9321   -0.1506 H   0  0  0  0  0  0  0  0  0  0  0  0
   -1.8599   -2.2586    0.8823 C   0  0  0  0  0  0  0  0  0  0  0  0
   -0.9582   -2.8906    1.4114 O   0  0  0  0  0  0  0  0  0  0  0  0
   -1.5981   -1.0441    0.2837 N   0  0  0  0  0  0  0  0  0  0  0  0
   -2.3956   -0.5098   -0.0599 H   0  0  0  0  0  0  0  0  0  0  0  0
   -0.3118   -0.3369    0.3542 C   0  0  1  0  0  0  0  0  0  0  0  0
    0.2999   -0.7299    1.1730 H   0  0  0  0  0  0  0  0  0  0  0  0
    0.4325   -0.5078   -0.9821 C   0  0  0  0  0  0  0  0  0  0  0  0
   -0.2824   -0.5603   -1.8110 H   0  0  0  0  0  0  0  0  0  0  0  0
    1.0708    0.3653   -1.1609 H   0  0  0  0  0  0  0  0  0  0  0  0
    1.3229   -1.7643   -0.9564 C   0  0  0  0  0  0  0  0  0  0  0  0
    2.0476   -1.6866   -0.1416 H   0  0  0  0  0  0  0  0  0  0  0  0
    0.6995   -2.6429   -0.7693 H   0  0  0  0  0  0  0  0  0  0  0  0
    2.0867   -1.9851   -2.2585 C   0  0  0  0  0  0  0  0  0  0  0  0
    2.1591   -1.1484   -3.1393 O   0  0  0  0  0  0  0  0  0  0  0  0
    2.7336   -3.1621   -2.5041 N   0  0  0  0  0  0  0  0  0  0  0  0
    3.0646   -3.2987   -3.4547 H   0  0  0  0  0  0  0  0  0  0  0  0
    2.5425   -3.9603   -1.9074 H   0  0  0  0  0  0  0  0  0  0  0  0
   -0.5561    1.1563    0.6515 C   0  0  0  0  0  0  0  0  0  0  0  0
   -1.4850    1.7417    0.1067 O   0  0  0  0  0  0  0  0  0  0  0  0
    0.2052    1.8186    1.5965 N   0  0  0  0  0  0  0  0  0  0  0  0
    0.9322    1.2912    2.0712 H   0  0  0  0  0  0  0  0  0  0  0  0
   -0.0305    3.2036    1.9853 C   0  0  0  0  0  0  0  0  0  0  0  0
   -1.0292    3.3145    2.4208 H   0  0  0  0  0  0  0  0  0  0  0  0
    0.7080    3.5188    2.7287 H   0  0  0  0  0  0  0  0  0  0  0  0
    0.0506    3.8649    1.1160 H   0  0  0  0  0  0  0  0  0  0  0  0
  1  2  1  0  0  0  0
  2  3  1  0  0  0  0
  2  4  1  0  0  0  0
  2  5  1  0  0  0  0
  5  6  2  0  0  0  0
  5  7  1  0  0  0  0
  7  8  1  0  0  0  0
  7  9  1  0  0  0  0
  9 10  1  0  0  0  0
  9 11  1  0  0  0  0
  9 22  1  0  0  0  0
 11 12  1  0  0  0  0
 11 13  1  0  0  0  0
 11 14  1  0  0  0  0
 14 15  1  0  0  0  0
 14 16  1  0  0  0  0
 14 17  1  0  0  0  0
 17 18  2  0  0  0  0
 17 19  1  0  0  0  0
 19 20  1  0  0  0  0
 19 21  1  0  0  0  0
 22 23  2  0  0  0  0
 22 24  1  0  0  0  0
 24 25  1  0  0  0  0
 24 26  1  0  0  0  0
 26 27  1  0  0  0  0
 26 28  1  0  0  0  0
 26 29  1  0  0  0  0
M  END
$$$$

  -OEChem-04042215583D

 29 28  0     1  0  0  0  0  0999 V2000
   -3.3271   -3.7727    1.3830 H   0  0  0  0  0  0  0  0  0  0  0  0
   -3.2994   -2.8017    0.8807 C   0  0  0  0  0  0  0  0  0  0  0  0
   -3.9654   -2.1135    1.4069 H   0  0  0  0  0  0  0  0  0  0  0  0
   -3.6525   -2.9261   -0.1458 H   0  0  0  0  0  0  0  0  0  0  0  0
   -1.8849   -2.2538    0.8788 C   0  0  0  0  0  0  0  0  0  0  0  0
   -0.9794   -2.8954    1.3900 O   0  0  0  0  0  0  0  0  0  0  0  0
   -1.6226   -1.0371    0.2849 N   0  0  0  0  0  0  0  0  0  0  0  0
   -2.4203   -0.4947   -0.0452 H   0  0  0  0  0  0  0  0  0  0  0  0
   -0.3315   -0.3390    0.3529 C   0  0  1  0  0  0  0  0  0  0  0  0
    0.2798   -0.7384    1.1684 H   0  0  0  0  0  0  0  0  0  0  0  0
    0.3986   -0.5151   -0.9908 C   0  0  0  0  0  0  0  0  0  0  0  0
   -0.3138   -0.5478   -1.8226 H   0  0  0  0  0  0  0  0  0  0  0  0
    1.0437    0.3564   -1.1535 H   0  0  0  0  0  0  0  0  0  0  0  0
    1.2804   -1.7803   -0.9808 C   0  0  0  0  0  0  0  0  0  0  0  0
    1.8409   -1.8306   -0.0434 H   0  0  0  0  0  0  0  0  0  0  0  0
    0.6404   -2.6652   -1.0339 H   0  0  0  0  0  0  0  0  0  0  0  0
    2.2950   -1.8271   -2.1201 C   0  0  0  0  0  0  0  0  0  0  0  0
    2.4059   -0.9497   -2.9559 O   0  0  0  0  0  0  0  0  0  0  0  0
    3.1415   -2.8886   -2.2624 N   0  0  0  0  0  0  0  0  0  0  0  0
    3.6583   -2.9326   -3.1358 H   0  0  0  0  0  0  0  0  0  0  0  0
    2.9627   -3.7329   -1.7292 H   0  0  0  0  0  0  0  0  0  0  0  0
   -0.5613    1.1546    0.6604 C   0  0  0  0  0  0  0  0  0  0  0  0
   -1.4885    1.7508    0.1247 O   0  0  0  0  0  0  0  0  0  0  0  0
    0.2111    1.8045    1.6049 N   0  0  0  0  0  0  0  0  0  0  0  0
    0.9451    1.2718    2.0629 H   0  0  0  0  0  0  0  0  0  0  0  0
    0.0037    3.1953    1.9894 C   0  0  0  0  0  0  0  0  0  0  0  0
   -0.9964    3.3303    2.4147 H   0  0  0  0  0  0  0  0  0  0  0  0
    0.7420    3.4937    2.7399 H   0  0  0  0  0  0  0  0  0  0  0  0
    0.1095    3.8534    1.1204 H   0  0  0  0  0  0  0  0  0  0  0  0
  1  2  1  0  0  0  0
  2  3  1  0  0  0  0
  2  4  1  0  0  0  0
  2  5  1  0  0  0  0
  5  6  2  0  0  0  0
  5  7  1  0  0  0  0
  7  8  1  0  0  0  0
  7  9  1  0  0  0  0
  9 10  1  0  0  0  0
  9 11  1  0  0  0  0
  9 22  1  0  0  0  0
 11 12  1  0  0  0  0
 11 13  1  0  0  0  0
 11 14  1  0  0  0  0
 14 15  1  0  0  0  0
 14 16  1  0  0  0  0
 14 17  1  0  0  0  0
 17 18  2  0  0  0  0
 17 19  1  0  0  0  0
 19 20  1  0  0  0  0
 19 21  1  0  0  0  0
 22 23  2  0  0  0  0
 22 24  1  0  0  0  0
 24 25  1  0  0  0  0
 24 26  1  0  0  0  0
 26 27  1  0  0  0  0
 26 28  1  0  0  0  0
 26 29  1  0  0  0  0
M  END
$$$$

  -OEChem-04042215583D

 29 28  0     1  0  0  0  0  0999 V2000
   -3.3667   -3.7389    1.4392 H   0  0  0  0  0  0  0  0  0  0  0  0
   -3.3259   -2.7925    0.8931 C   0  0  0  0  0  0  0  0  0  0  0  0
   -3.9873   -2.0746    1.3843 H   0  0  0  0  0  0  0  0  0  0  0  0
   -3.6753   -2.9593   -0.1287 H   0  0  0  0  0  0  0  0  0  0  0  0
   -1.9057   -2.2596    0.8743 C   0  0  0  0  0  0  0  0  0  0  0  0
   -0.9999   -2.9121    1.3710 O   0  0  0  0  0  0  0  0  0  0  0  0
   -1.6399   -1.0406    0.2868 N   0  0  0  0  0  0  0  0  0  0  0  0
   -2.4364   -0.4893   -0.0313 H   0  0  0  0  0  0  0  0  0  0  0  0
   -0.3440   -0.3521    0.3543 C   0  0  1  0  0  0  0  0  0  0  0  0
    0.2682   -0.7579    1.1659 H   0  0  0  0  0  0  0  0  0  0  0  0
    0.3755   -0.5188   -0.9973 C   0  0  0  0  0  0  0  0  0  0  0  0
   -0.3392   -0.5275   -1.8274 H   0  0  0  0  0  0  0  0  0  0  0  0
    1.0198    0.3562   -1.1414 H   0  0  0  0  0  0  0  0  0  0  0  0
    1.2546   -1.7903   -1.0237 C   0  0  0  0  0  0  0  0  0  0  0  0
    1.6215   -2.0086   -0.0173 H   0  0  0  0  0  0  0  0  0  0  0  0
    0.6454   -2.6409   -1.3412 H   0  0  0  0  0  0  0  0  0  0  0  0
    2.4812   -1.6826   -1.9274 C   0  0  0  0  0  0  0  0  0  0  0  0
    2.6645   -0.7659   -2.7064 O   0  0  0  0  0  0  0  0  0  0  0  0
    3.4527   -2.6417   -1.9098 N   0  0  0  0  0  0  0  0  0  0  0  0
    4.1415   -2.5929   -2.6550 H   0  0  0  0  0  0  0  0  0  0  0  0
    3.2663   -3.5214   -1.4397 H   0  0  0  0  0  0  0  0  0  0  0  0
   -0.5652    1.1406    0.6732 C   0  0  0  0  0  0  0  0  0  0  0  0
   -1.4866    1.7468    0.1384 O   0  0  0  0  0  0  0  0  0  0  0  0
    0.2132    1.7812    1.6192 N   0  0  0  0  0  0  0  0  0  0  0  0
    0.9513    1.2450    2.0663 H   0  0  0  0  0  0  0  0  0  0  0  0
    0.0345    3.1803    1.9873 C   0  0  0  0  0  0  0  0  0  0  0  0
   -0.9773    3.3499    2.3706 H   0  0  0  0  0  0  0  0  0  0  0  0
    0.7498    3.4613    2.7664 H   0  0  0  0  0  0  0  0  0  0  0  0
    0.1960    3.8280    1.1191 H   0  0  0  0  0  0  0  0  0  0  0  0
  1  2  1  0  0  0  0
  2  3  1  0  0  0  0
  2  4  1  0  0  0  0
  2  5  1  0  0  0  0
  5  6  2  0  0  0  0
  5  7  1  0  0  0  0
  7  8  1  0  0  0  0
  7  9  1  0  0  0  0
  9 10  1  0  0  0  0
  9 11  1  0  0  0  0
  9 22  1  0  0  0  0
 11 12  1  0  0  0  0
 11 13  1  0  0  0  0
 11 14  1  0  0  0  0
 14 15  1  0  0  0  0
 14 16  1  0  0  0  0
 14 17  1  0  0  0  0
 17 18  2  0  0  0  0
 17 19  1  0  0  0  0
 19 20  1  0  0  0  0
 19 21  1  0  0  0  0
 22 23  2  0  0  0  0
 22 24  1  0  0  0  0
 24 25  1  0  0  0  0
 24 26  1  0  0  0  0
 26 27  1  0  0  0  0
 26 28  1  0  0  0  0
 26 29  1  0  0  0  0
M  END
$$$$

  -OEChem-04042215583D

 29 28  0     1  0  0  0  0  0999 V2000
   -3.3622   -3.7460    1.4347 H   0  0  0  0  0  0  0  0  0  0  0  0
   -3.3225   -2.7973    0.8920 C   0  0  0  0  0  0  0  0  0  0  0  0
   -3.9862   -2.0824    1.3844 H   0  0  0  0  0  0  0  0  0  0  0  0
   -3.6694   -2.9611   -0.1311 H   0  0  0  0  0  0  0  0  0  0  0  0
   -1.9034   -2.2618    0.8768 C   0  0  0  0  0  0  0  0  0  0  0  0
   -0.9977   -2.9141    1.3736 O   0  0  0  0  0  0  0  0  0  0  0  0
   -1.6391   -1.0415    0.2915 N   0  0  0  0  0  0  0  0  0  0  0  0
   -2.4365   -0.4899   -0.0238 H   0  0  0  0  0  0  0  0  0  0  0  0
   -0.3440   -0.3517    0.3585 C   0  0  1  0  0  0  0  0  0  0  0  0
    0.2721   -0.7564    1.1679 H   0  0  0  0  0  0  0  0  0  0  0  0
    0.3731   -0.5081   -0.9961 C   0  0  0  0  0  0  0  0  0  0  0  0
   -0.3484   -0.5185   -1.8201 H   0  0  0  0  0  0  0  0  0  0  0  0
    1.0010    0.3775   -1.1419 H   0  0  0  0  0  0  0  0  0  0  0  0
    1.2587   -1.7789   -1.0411 C   0  0  0  0  0  0  0  0  0  0  0  0
    1.3991   -2.1754   -0.0320 H   0  0  0  0  0  0  0  0  0  0  0  0
    0.7389   -2.5491   -1.6169 H   0  0  0  0  0  0  0  0  0  0  0  0
    2.6506   -1.5738   -1.6379 C   0  0  0  0  0  0  0  0  0  0  0  0
    2.9877   -0.5756   -2.2466 O   0  0  0  0  0  0  0  0  0  0  0  0
    3.6096   -2.5388   -1.5261 N   0  0  0  0  0  0  0  0  0  0  0  0
    4.4408   -2.4092   -2.0953 H   0  0  0  0  0  0  0  0  0  0  0  0
    3.3411   -3.4653   -1.2114 H   0  0  0  0  0  0  0  0  0  0  0  0
   -0.5707    1.1398    0.6807 C   0  0  0  0  0  0  0  0  0  0  0  0
   -1.4965    1.7420    0.1485 O   0  0  0  0  0  0  0  0  0  0  0  0
    0.2053    1.7829    1.6270 N   0  0  0  0  0  0  0  0  0  0  0  0
    0.9605    1.2557    2.0561 H   0  0  0  0  0  0  0  0  0  0  0  0
    0.0289    3.1843    1.9881 C   0  0  0  0  0  0  0  0  0  0  0  0
   -0.9846    3.3594    2.3642 H   0  0  0  0  0  0  0  0  0  0  0  0
    0.7403    3.4654    2.7707 H   0  0  0  0  0  0  0  0  0  0  0  0
    0.1985    3.8280    1.1184 H   0  0  0  0  0  0  0  0  0  0  0  0
  1  2  1  0  0  0  0
  2  3  1  0  0  0  0
  2  4  1  0  0  0  0
  2  5  1  0  0  0  0
  5  6  2  0  0  0  0
  5  7  1  0  0  0  0
  7  8  1  0  0  0  0
  7  9  1  0  0  0  0
  9 10  1  0  0  0  0
  9 11  1  0  0  0  0
  9 22  1  0  0  0  0
 11 12  1  0  0  0  0
 11 13  1  0  0  0  0
 11 14  1  0  0  0  0
 14 15  1  0  0  0  0
 14 16  1  0  0  0  0
 14 17  1  0  0  0  0
 17 18  2  0  0  0  0
 17 19  1  0  0  0  0
 19 20  1  0  0  0  0
 19 21  1  0  0  0  0
 22 23  2  0  0  0  0
 22 24  1  0  0  0  0
 24 25  1  0  0  0  0
 24 26  1  0  0  0  0
 26 27  1  0  0  0  0
 26 28  1  0  0  0  0
 26 29  1  0  0  0  0
M  END
$$$$

  -OEChem-04042215583D

 29 28  0     1  0  0  0  0  0999 V2000
   -3.4372   -3.7472    1.3987 H   0  0  0  0  0  0  0  0  0  0  0  0
   -3.3819   -2.7700    0.9109 C   0  0  0  0  0  0  0  0  0  0  0  0
   -4.0354   -2.0734    1.4416 H   0  0  0  0  0  0  0  0  0  0  0  0
   -3.7290   -2.8714   -0.1202 H   0  0  0  0  0  0  0  0  0  0  0  0
   -1.9550   -2.2554    0.9298 C   0  0  0  0  0  0  0  0  0  0  0  0
   -1.0841   -2.8955    1.4979 O   0  0  0  0  0  0  0  0  0  0  0  0
   -1.6495   -1.0665    0.3012 N   0  0  0  0  0  0  0  0  0  0  0  0
   -2.4292   -0.5200   -0.0628 H   0  0  0  0  0  0  0  0  0  0  0  0
   -0.3541   -0.3778    0.3972 C   0  0  1  0  0  0  0  0  0  0  0  0
    0.2158   -0.7464    1.2569 H   0  0  0  0  0  0  0  0  0  0  0  0
    0.4481   -0.5984   -0.8978 C   0  0  0  0  0  0  0  0  0  0  0  0
   -0.2377   -0.6766   -1.7480 H   0  0  0  0  0  0  0  0  0  0  0  0
    1.0770    0.2795   -1.0872 H   0  0  0  0  0  0  0  0  0  0  0  0
    1.3311   -1.8659   -0.8155 C   0  0  0  0  0  0  0  0  0  0  0  0
    1.1941   -2.3857    0.1365 H   0  0  0  0  0  0  0  0  0  0  0  0
    1.0212   -2.5580   -1.6029 H   0  0  0  0  0  0  0  0  0  0  0  0
    2.8162   -1.5622   -0.9811 C   0  0  0  0  0  0  0  0  0  0  0  0
    3.3575   -0.6434   -0.3933 O   0  0  0  0  0  0  0  0  0  0  0  0
    3.6184   -2.3097   -1.7949 N   0  0  0  0  0  0  0  0  0  0  0  0
    4.6170   -2.1476   -1.7031 H   0  0  0  0  0  0  0  0  0  0  0  0
    3.2754   -3.2028   -2.1319 H   0  0  0  0  0  0  0  0  0  0  0  0
   -0.5750    1.1292    0.6343 C   0  0  0  0  0  0  0  0  0  0  0  0
   -1.4727    1.7126    0.0361 O   0  0  0  0  0  0  0  0  0  0  0  0
    0.1670    1.8055    1.5838 N   0  0  0  0  0  0  0  0  0  0  0  0
    0.9333    1.3023    2.0244 H   0  0  0  0  0  0  0  0  0  0  0  0
    0.0058    3.2272    1.8612 C   0  0  0  0  0  0  0  0  0  0  0  0
   -1.0061    3.4343    2.2250 H   0  0  0  0  0  0  0  0  0  0  0  0
    0.7194    3.5460    2.6269 H   0  0  0  0  0  0  0  0  0  0  0  0
    0.1835    3.8175    0.9561 H   0  0  0  0  0  0  0  0  0  0  0  0
  1  2  1  0  0  0  0
  2  3  1  0  0  0  0
  2  4  1  0  0  0  0
  2  5  1  0  0  0  0
  5  6  2  0  0  0  0
  5  7  1  0  0  0  0
  7  8  1  0  0  0  0
  7  9  1  0  0  0  0
  9 10  1  0  0  0  0
  9 11  1  0  0  0  0
  9 22  1  0  0  0  0
 11 12  1  0  0  0  0
 11 13  1  0  0  0  0
 11 14  1  0  0  0  0
 14 15  1  0  0  0  0
 14 16  1  0  0  0  0
 14 17  1  0  0  0  0
 17 18  2  0  0  0  0
 17 19  1  0  0  0  0
 19 20  1  0  0  0  0
 19 21  1  0  0  0  0
 22 23  2  0  0  0  0
 22 24  1  0  0  0  0
 24 25  1  0  0  0  0
 24 26  1  0  0  0  0
 26 27  1  0  0  0  0
 26 28  1  0  0  0  0
 26 29  1  0  0  0  0
M  END
$$$$

  -OEChem-04042215583D

 29 28  0     1  0  0  0  0  0999 V2000
   -3.4535   -3.7399    1.4173 H   0  0  0  0  0  0  0  0  0  0  0  0
   -3.3951   -2.7744    0.9072 C   0  0  0  0  0  0  0  0  0  0  0  0
   -4.0479   -2.0645    1.4210 H   0  0  0  0  0  0  0  0  0  0  0  0
   -3.7404   -2.8978   -0.1219 H   0  0  0  0  0  0  0  0  0  0  0  0
   -1.9670   -2.2634    0.9153 C   0  0  0  0  0  0  0  0  0  0  0  0
   -1.0907   -2.9153    1.4609 O   0  0  0  0  0  0  0  0  0  0  0  0
   -1.6703   -1.0640    0.3023 N   0  0  0  0  0  0  0  0  0  0  0  0
   -2.4562   -0.5112   -0.0380 H   0  0  0  0  0  0  0  0  0  0  0  0
   -0.3710   -0.3784    0.3728 C   0  0  1  0  0  0  0  0  0  0  0  0
    0.2211   -0.7682    1.2083 H   0  0  0  0  0  0  0  0  0  0  0  0
    0.4078   -0.5671   -0.9411 C   0  0  0  0  0  0  0  0  0  0  0  0
   -0.3065   -0.6504   -1.7670 H   0  0  0  0  0  0  0  0  0  0  0  0
    1.0222    0.3160   -1.1520 H   0  0  0  0  0  0  0  0  0  0  0  0
    1.2929   -1.8323   -0.8943 C   0  0  0  0  0  0  0  0  0  0  0  0
    0.9711   -2.5170   -0.1058 H   0  0  0  0  0  0  0  0  0  0  0  0
    1.1827   -2.3607   -1.8450 H   0  0  0  0  0  0  0  0  0  0  0  0
    2.7729   -1.5117   -0.7062 C   0  0  0  0  0  0  0  0  0  0  0  0
    3.1562   -0.5489   -0.0652 O   0  0  0  0  0  0  0  0  0  0  0  0
    3.7507   -2.3193   -1.2118 N   0  0  0  0  0  0  0  0  0  0  0  0
    4.6902   -2.1415   -0.8689 H   0  0  0  0  0  0  0  0  0  0  0  0
    3.4954   -3.2453   -1.5383 H   0  0  0  0  0  0  0  0  0  0  0  0
   -0.5760    1.1244    0.6434 C   0  0  0  0  0  0  0  0  0  0  0  0
   -1.4914    1.7222    0.0875 O   0  0  0  0  0  0  0  0  0  0  0  0
    0.1998    1.7762    1.5826 N   0  0  0  0  0  0  0  0  0  0  0  0
    0.9951    1.2673    1.9620 H   0  0  0  0  0  0  0  0  0  0  0  0
    0.0583    3.1932    1.8910 C   0  0  0  0  0  0  0  0  0  0  0  0
   -0.9524    3.4068    2.2544 H   0  0  0  0  0  0  0  0  0  0  0  0
    0.7725    3.4840    2.6674 H   0  0  0  0  0  0  0  0  0  0  0  0
    0.2483    3.8002    0.9997 H   0  0  0  0  0  0  0  0  0  0  0  0
  1  2  1  0  0  0  0
  2  3  1  0  0  0  0
  2  4  1  0  0  0  0
  2  5  1  0  0  0  0
  5  6  2  0  0  0  0
  5  7  1  0  0  0  0
  7  8  1  0  0  0  0
  7  9  1  0  0  0  0
  9 10  1  0  0  0  0
  9 11  1  0  0  0  0
  9 22  1  0  0  0  0
 11 12  1  0  0  0  0
 11 13  1  0  0  0  0
 11 14  1  0  0  0  0
 14 15  1  0  0  0  0
 14 16  1  0  0  0  0
 14 17  1  0  0  0  0
 17 18  2  0  0  0  0
 17 19  1  0  0  0  0
 19 20  1  0  0  0  0
 19 21  1  0  0  0  0
 22 23  2  0  0  0  0
 22 24  1  0  0  0  0
 24 25  1  0  0  0  0
 24 26  1  0  0  0  0
 26 27  1  0  0  0  0
 26 28  1  0  0  0  0
 26 29  1  0  0  0  0
M  END
$$$$

  -OEChem-04042215583D

 29 28  0     1  0  0  0  0  0999 V2000
   -3.4439   -3.7512    1.4276 H   0  0  0  0  0  0  0  0  0  0  0  0
   -3.3947   -2.7905    0.9076 C   0  0  0  0  0  0  0  0  0  0  0  0
   -4.0374   -2.0760    1.4278 H   0  0  0  0  0  0  0  0  0  0  0  0
   -3.7603   -2.9230   -0.1134 H   0  0  0  0  0  0  0  0  0  0  0  0
   -1.9663   -2.2799    0.8836 C   0  0  0  0  0  0  0  0  0  0  0  0
   -1.0753   -2.9425    1.3917 O   0  0  0  0  0  0  0  0  0  0  0  0
   -1.6880   -1.0678    0.2868 N   0  0  0  0  0  0  0  0  0  0  0  0
   -2.4840   -0.5108   -0.0208 H   0  0  0  0  0  0  0  0  0  0  0  0
   -0.3902   -0.3776    0.3384 C   0  0  1  0  0  0  0  0  0  0  0  0
    0.2124   -0.7824    1.1590 H   0  0  0  0  0  0  0  0  0  0  0  0
    0.3785   -0.5449   -0.9843 C   0  0  0  0  0  0  0  0  0  0  0  0
   -0.3438   -0.6298   -1.8030 H   0  0  0  0  0  0  0  0  0  0  0  0
    0.9893    0.3407   -1.1958 H   0  0  0  0  0  0  0  0  0  0  0  0
    1.2706   -1.8020   -0.9510 C   0  0  0  0  0  0  0  0  0  0  0  0
    0.8093   -2.5998   -0.3642 H   0  0  0  0  0  0  0  0  0  0  0  0
    1.3812   -2.1712   -1.9739 H   0  0  0  0  0  0  0  0  0  0  0  0
    2.6690   -1.5080   -0.4109 C   0  0  0  0  0  0  0  0  0  0  0  0
    2.9173   -0.5331    0.2791 O   0  0  0  0  0  0  0  0  0  0  0  0
    3.7128   -2.3582   -0.6367 N   0  0  0  0  0  0  0  0  0  0  0  0
    4.5433   -2.1945   -0.0751 H   0  0  0  0  0  0  0  0  0  0  0  0
    3.5118   -3.2898   -0.9845 H   0  0  0  0  0  0  0  0  0  0  0  0
   -0.5779    1.1203    0.6418 C   0  0  0  0  0  0  0  0  0  0  0  0
   -1.5109    1.7332    0.1335 O   0  0  0  0  0  0  0  0  0  0  0  0
    0.2314    1.7424    1.5727 N   0  0  0  0  0  0  0  0  0  0  0  0
    1.0527    1.2265    1.8842 H   0  0  0  0  0  0  0  0  0  0  0  0
    0.1178    3.1543    1.9140 C   0  0  0  0  0  0  0  0  0  0  0  0
   -0.8854    3.3778    2.2918 H   0  0  0  0  0  0  0  0  0  0  0  0
    0.8431    3.4140    2.6912 H   0  0  0  0  0  0  0  0  0  0  0  0
    0.3118    3.7780    1.0351 H   0  0  0  0  0  0  0  0  0  0  0  0
  1  2  1  0  0  0  0
  2  3  1  0  0  0  0
  2  4  1  0  0  0  0
  2  5  1  0  0  0  0
  5  6  2  0  0  0  0
  5  7  1  0  0  0  0
  7  8  1  0  0  0  0
  7  9  1  0  0  0  0
  9 10  1  0  0  0  0
  9 11  1  0  0  0  0
  9 22  1  0  0  0  0
 11 12  1  0  0  0  0
 11 13  1  0  0  0  0
 11 14  1  0  0  0  0
 14 15  1  0  0  0  0
 14 16  1  0  0  0  0
 14 17  1  0  0  0  0
 17 18  2  0  0  0  0
 17 19  1  0  0  0  0
 19 20  1  0  0  0  0
 19 21  1  0  0  0  0
 22 23  2  0  0  0  0
 22 24  1  0  0  0  0
 24 25  1  0  0  0  0
 24 26  1  0  0  0  0
 26 27  1  0  0  0  0
 26 28  1  0  0  0  0
 26 29  1  0  0  0  0
M  END
$$$$

  -OEChem-04042215583D

 29 28  0     1  0  0  0  0  0999 V2000
   -3.3585   -3.7886    1.4457 H   0  0  0  0  0  0  0  0  0  0  0  0
   -3.3379   -2.8346    0.9116 C   0  0  0  0  0  0  0  0  0  0  0  0
   -3.9739   -2.1215    1.4420 H   0  0  0  0  0  0  0  0  0  0  0  0
   -3.7332   -2.9854   -0.0959 H   0  0  0  0  0  0  0  0  0  0  0  0
   -1.9176   -2.3063    0.8372 C   0  0  0  0  0  0  0  0  0  0  0  0
   -0.9956   -2.9753    1.2782 O   0  0  0  0  0  0  0  0  0  0  0  0
   -1.6796   -1.0735    0.2654 N   0  0  0  0  0  0  0  0  0  0  0  0
   -2.4953   -0.5168    0.0134 H   0  0  0  0  0  0  0  0  0  0  0  0
   -0.3927   -0.3630    0.3055 C   0  0  1  0  0  0  0  0  0  0  0  0
    0.2212   -0.7794    1.1109 H   0  0  0  0  0  0  0  0  0  0  0  0
    0.3582   -0.4961   -1.0328 C   0  0  0  0  0  0  0  0  0  0  0  0
   -0.3696   -0.5690   -1.8476 H   0  0  0  0  0  0  0  0  0  0  0  0
    0.9629    0.3980   -1.2250 H   0  0  0  0  0  0  0  0  0  0  0  0
    1.2722   -1.7360   -1.0371 C   0  0  0  0  0  0  0  0  0  0  0  0
    0.7254   -2.6112   -0.6780 H   0  0  0  0  0  0  0  0  0  0  0  0
    1.5818   -1.9393   -2.0656 H   0  0  0  0  0  0  0  0  0  0  0  0
    2.5366   -1.5435   -0.1979 C   0  0  0  0  0  0  0  0  0  0  0  0
    2.7788   -0.5189    0.4199 O   0  0  0  0  0  0  0  0  0  0  0  0
    3.4512   -2.5465   -0.0591 N   0  0  0  0  0  0  0  0  0  0  0  0
    4.1379   -2.4120    0.6770 H   0  0  0  0  0  0  0  0  0  0  0  0
    3.1745   -3.4861   -0.3241 H   0  0  0  0  0  0  0  0  0  0  0  0
   -0.5827    1.1240    0.6525 C   0  0  0  0  0  0  0  0  0  0  0  0
   -1.5359    1.7418    0.1901 O   0  0  0  0  0  0  0  0  0  0  0  0
    0.2486    1.7227    1.5788 N   0  0  0  0  0  0  0  0  0  0  0  0
    1.0911    1.2079    1.8326 H   0  0  0  0  0  0  0  0  0  0  0  0
    0.1472    3.1279    1.9493 C   0  0  0  0  0  0  0  0  0  0  0  0
   -0.8518    3.3507    2.3387 H   0  0  0  0  0  0  0  0  0  0  0  0
    0.8799    3.3667    2.7263 H   0  0  0  0  0  0  0  0  0  0  0  0
    0.3388    3.7675    1.0814 H   0  0  0  0  0  0  0  0  0  0  0  0
  1  2  1  0  0  0  0
  2  3  1  0  0  0  0
  2  4  1  0  0  0  0
  2  5  1  0  0  0  0
  5  6  2  0  0  0  0
  5  7  1  0  0  0  0
  7  8  1  0  0  0  0
  7  9  1  0  0  0  0
  9 10  1  0  0  0  0
  9 11  1  0  0  0  0
  9 22  1  0  0  0  0
 11 12  1  0  0  0  0
 11 13  1  0  0  0  0
 11 14  1  0  0  0  0
 14 15  1  0  0  0  0
 14 16  1  0  0  0  0
 14 17  1  0  0  0  0
 17 18  2  0  0  0  0
 17 19  1  0  0  0  0
 19 20  1  0  0  0  0
 19 21  1  0  0  0  0
 22 23  2  0  0  0  0
 22 24  1  0  0  0  0
 24 25  1  0  0  0  0
 24 26  1  0  0  0  0
 26 27  1  0  0  0  0
 26 28  1  0  0  0  0
 26 29  1  0  0  0  0
M  END
$$$$

  -OEChem-04042215583D

 29 28  0     1  0  0  0  0  0999 V2000
   -3.0505   -3.9840    1.2919 H   0  0  0  0  0  0  0  0  0  0  0  0
   -3.1083   -2.9621    0.9064 C   0  0  0  0  0  0  0  0  0  0  0  0
   -3.7026   -2.3579    1.5965 H   0  0  0  0  0  0  0  0  0  0  0  0
   -3.6026   -2.9811   -0.0680 H   0  0  0  0  0  0  0  0  0  0  0  0
   -1.7167   -2.3734    0.7703 C   0  0  0  0  0  0  0  0  0  0  0  0
   -0.7372   -3.0212    1.1191 O   0  0  0  0  0  0  0  0  0  0  0  0
   -1.5539   -1.1128    0.2322 N   0  0  0  0  0  0  0  0  0  0  0  0
   -2.3948   -0.5646    0.0522 H   0  0  0  0  0  0  0  0  0  0  0  0
   -0.2800   -0.3837    0.2584 C   0  0  1  0  0  0  0  0  0  0  0  0
    0.3763   -0.8036    1.0250 H   0  0  0  0  0  0  0  0  0  0  0  0
    0.3869   -0.4441   -1.1301 C   0  0  0  0  0  0  0  0  0  0  0  0
   -0.3784   -0.4563   -1.9133 H   0  0  0  0  0  0  0  0  0  0  0  0
    0.9945    0.4552   -1.2859 H   0  0  0  0  0  0  0  0  0  0  0  0
    1.3051   -1.6727   -1.2647 C   0  0  0  0  0  0  0  0  0  0  0  0
    0.7113   -2.5855   -1.1656 H   0  0  0  0  0  0  0  0  0  0  0  0
    1.7518   -1.6814   -2.2626 H   0  0  0  0  0  0  0  0  0  0  0  0
    2.4315   -1.6903   -0.2397 C   0  0  0  0  0  0  0  0  0  0  0  0
    3.2115   -0.7636   -0.1192 O   0  0  0  0  0  0  0  0  0  0  0  0
    2.4436   -2.6248    0.7554 N   0  0  0  0  0  0  0  0  0  0  0  0
    3.0398   -2.4107    1.5482 H   0  0  0  0  0  0  0  0  0  0  0  0
    1.5801   -3.1480    0.9074 H   0  0  0  0  0  0  0  0  0  0  0  0
   -0.5136    1.0817    0.6758 C   0  0  0  0  0  0  0  0  0  0  0  0
   -1.5011    1.6794    0.2625 O   0  0  0  0  0  0  0  0  0  0  0  0
    0.3144    1.6847    1.6035 N   0  0  0  0  0  0  0  0  0  0  0  0
    1.1623    1.1868    1.8651 H   0  0  0  0  0  0  0  0  0  0  0  0
    0.1470    3.0644    2.0427 C   0  0  0  0  0  0  0  0  0  0  0  0
   -0.8411    3.2066    2.4929 H   0  0  0  0  0  0  0  0  0  0  0  0
    0.9052    3.3177    2.7900 H   0  0  0  0  0  0  0  0  0  0  0  0
    0.2511    3.7510    1.1961 H   0  0  0  0  0  0  0  0  0  0  0  0
  1  2  1  0  0  0  0
  2  3  1  0  0  0  0
  2  4  1  0  0  0  0
  2  5  1  0  0  0  0
  5  6  2  0  0  0  0
  5  7  1  0  0  0  0
  7  8  1  0  0  0  0
  7  9  1  0  0  0  0
  9 10  1  0  0  0  0
  9 11  1  0  0  0  0
  9 22  1  0  0  0  0
 11 12  1  0  0  0  0
 11 13  1  0  0  0  0
 11 14  1  0  0  0  0
 14 15  1  0  0  0  0
 14 16  1  0  0  0  0
 14 17  1  0  0  0  0
 17 18  2  0  0  0  0
 17 19  1  0  0  0  0
 19 20  1  0  0  0  0
 19 21  1  0  0  0  0
 22 23  2  0  0  0  0
 22 24  1  0  0  0  0
 24 25  1  0  0  0  0
 24 26  1  0  0  0  0
 26 27  1  0  0  0  0
 26 28  1  0  0  0  0
 26 29  1  0  0  0  0
M  END
$$$$

  -OEChem-04042215583D

 29 28  0     1  0  0  0  0  0999 V2000
   -3.0863   -3.9454    1.3591 H   0  0  0  0  0  0  0  0  0  0  0  0
   -3.1172   -2.9580    0.8901 C   0  0  0  0  0  0  0  0  0  0  0  0
   -3.7453   -2.3003    1.4960 H   0  0  0  0  0  0  0  0  0  0  0  0
   -3.5567   -3.0540   -0.1058 H   0  0  0  0  0  0  0  0  0  0  0  0
   -1.7172   -2.3841    0.7845 C   0  0  0  0  0  0  0  0  0  0  0  0
   -0.7547   -3.0452    1.1486 O   0  0  0  0  0  0  0  0  0  0  0  0
   -1.5320   -1.1296    0.2423 N   0  0  0  0  0  0  0  0  0  0  0  0
   -2.3712   -0.5900    0.0307 H   0  0  0  0  0  0  0  0  0  0  0  0
   -0.2718   -0.3751    0.2957 C   0  0  1  0  0  0  0  0  0  0  0  0
    0.3610   -0.7716    1.0929 H   0  0  0  0  0  0  0  0  0  0  0  0
    0.4266   -0.4637   -1.0790 C   0  0  0  0  0  0  0  0  0  0  0  0
   -0.3200   -0.4823   -1.8802 H   0  0  0  0  0  0  0  0  0  0  0  0
    1.0241    0.4442   -1.2202 H   0  0  0  0  0  0  0  0  0  0  0  0
    1.3877   -1.6628   -1.2247 C   0  0  0  0  0  0  0  0  0  0  0  0
    0.7955   -2.5714   -1.3639 H   0  0  0  0  0  0  0  0  0  0  0  0
    2.0028   -1.5318   -2.1191 H   0  0  0  0  0  0  0  0  0  0  0  0
    2.3070   -1.8728   -0.0253 C   0  0  0  0  0  0  0  0  0  0  0  0
    3.1008   -1.0156    0.3183 O   0  0  0  0  0  0  0  0  0  0  0  0
    2.1470   -2.9176    0.8365 N   0  0  0  0  0  0  0  0  0  0  0  0
    2.6331   -2.8119    1.7209 H   0  0  0  0  0  0  0  0  0  0  0  0
    1.2216   -3.3522    0.8439 H   0  0  0  0  0  0  0  0  0  0  0  0
   -0.5373    1.0925    0.6819 C   0  0  0  0  0  0  0  0  0  0  0  0
   -1.5179    1.6706    0.2270 O   0  0  0  0  0  0  0  0  0  0  0  0
    0.2559    1.7196    1.6237 N   0  0  0  0  0  0  0  0  0  0  0  0
    1.0951    1.2303    1.9276 H   0  0  0  0  0  0  0  0  0  0  0  0
    0.0582    3.1018    2.0411 C   0  0  0  0  0  0  0  0  0  0  0  0
   -0.9514    3.2411    2.4423 H   0  0  0  0  0  0  0  0  0  0  0  0
    0.7779    3.3672    2.8216 H   0  0  0  0  0  0  0  0  0  0  0  0
    0.1982    3.7814    1.1940 H   0  0  0  0  0  0  0  0  0  0  0  0
  1  2  1  0  0  0  0
  2  3  1  0  0  0  0
  2  4  1  0  0  0  0
  2  5  1  0  0  0  0
  5  6  2  0  0  0  0
  5  7  1  0  0  0  0
  7  8  1  0  0  0  0
  7  9  1  0  0  0  0
  9 10  1  0  0  0  0
  9 11  1  0  0  0  0
  9 22  1  0  0  0  0
 11 12  1  0  0  0  0
 11 13  1  0  0  0  0
 11 14  1  0  0  0  0
 14 15  1  0  0  0  0
 14 16  1  0  0  0  0
 14 17  1  0  0  0  0
 17 18  2  0  0  0  0
 17 19  1  0  0  0  0
 19 20  1  0  0  0  0
 19 21  1  0  0  0  0
 22 23  2  0  0  0  0
 22 24  1  0  0  0  0
 24 25  1  0  0  0  0
 24 26  1  0  0  0  0
 26 27  1  0  0  0  0
 26 28  1  0  0  0  0
 26 29  1  0  0  0  0
M  END
$$$$

  -OEChem-04042215583D

 29 28  0     1  0  0  0  0  0999 V2000
   -3.1955   -3.8971    1.3384 H   0  0  0  0  0  0  0  0  0  0  0  0
   -3.1763   -2.9175    0.8524 C   0  0  0  0  0  0  0  0  0  0  0  0
   -3.8323   -2.2391    1.4034 H   0  0  0  0  0  0  0  0  0  0  0  0
   -3.5495   -3.0234   -0.1692 H   0  0  0  0  0  0  0  0  0  0  0  0
   -1.7624   -2.3683    0.8329 C   0  0  0  0  0  0  0  0  0  0  0  0
   -0.8447   -3.0392    1.2751 O   0  0  0  0  0  0  0  0  0  0  0  0
   -1.5229   -1.1319    0.2736 N   0  0  0  0  0  0  0  0  0  0  0  0
   -2.3457   -0.6026   -0.0143 H   0  0  0  0  0  0  0  0  0  0  0  0
   -0.2700   -0.3623    0.3514 C   0  0  1  0  0  0  0  0  0  0  0  0
    0.3377   -0.7319    1.1808 H   0  0  0  0  0  0  0  0  0  0  0  0
    0.4722   -0.4918   -0.9996 C   0  0  0  0  0  0  0  0  0  0  0  0
   -0.2516   -0.5229   -1.8211 H   0  0  0  0  0  0  0  0  0  0  0  0
    1.0610    0.4225   -1.1354 H   0  0  0  0  0  0  0  0  0  0  0  0
    1.4687   -1.6675   -1.1388 C   0  0  0  0  0  0  0  0  0  0  0  0
    0.9206   -2.5312   -1.5247 H   0  0  0  0  0  0  0  0  0  0  0  0
    2.2345   -1.4128   -1.8766 H   0  0  0  0  0  0  0  0  0  0  0  0
    2.1559   -2.1066    0.1524 C   0  0  0  0  0  0  0  0  0  0  0  0
    2.9228   -1.3556    0.7282 O   0  0  0  0  0  0  0  0  0  0  0  0
    1.9296   -3.3043    0.7607 N   0  0  0  0  0  0  0  0  0  0  0  0
    2.3232   -3.3599    1.6944 H   0  0  0  0  0  0  0  0  0  0  0  0
    0.9896   -3.6800    0.6323 H   0  0  0  0  0  0  0  0  0  0  0  0
   -0.5614    1.1145    0.6774 C   0  0  0  0  0  0  0  0  0  0  0  0
   -1.5164    1.6740    0.1504 O   0  0  0  0  0  0  0  0  0  0  0  0
    0.1891    1.7794    1.6282 N   0  0  0  0  0  0  0  0  0  0  0  0
    0.9923    1.2901    2.0178 H   0  0  0  0  0  0  0  0  0  0  0  0
   -0.0433    3.1677    2.0056 C   0  0  0  0  0  0  0  0  0  0  0  0
   -1.0640    3.2978    2.3805 H   0  0  0  0  0  0  0  0  0  0  0  0
    0.6539    3.4664    2.7944 H   0  0  0  0  0  0  0  0  0  0  0  0
    0.1031    3.8288    1.1450 H   0  0  0  0  0  0  0  0  0  0  0  0
  1  2  1  0  0  0  0
  2  3  1  0  0  0  0
  2  4  1  0  0  0  0
  2  5  1  0  0  0  0
  5  6  2  0  0  0  0
  5  7  1  0  0  0  0
  7  8  1  0  0  0  0
  7  9  1  0  0  0  0
  9 10  1  0  0  0  0
  9 11  1  0  0  0  0
  9 22  1  0  0  0  0
 11 12  1  0  0  0  0
 11 13  1  0  0  0  0
 11 14  1  0  0  0  0
 14 15  1  0  0  0  0
 14 16  1  0  0  0  0
 14 17  1  0  0  0  0
 17 18  2  0  0  0  0
 17 19  1  0  0  0  0
 19 20  1  0  0  0  0
 19 21  1  0  0  0  0
 22 23  2  0  0  0  0
 22 24  1  0  0  0  0
 24 25  1  0  0  0  0
 24 26  1  0  0  0  0
 26 27  1  0  0  0  0
 26 28  1  0  0  0  0
 26 29  1  0  0  0  0
M  END
$$$$

  -OEChem-04042215583D

 29 28  0     1  0  0  0  0  0999 V2000
   -3.2888   -3.8163    1.3860 H   0  0  0  0  0  0  0  0  0  0  0  0
   -3.2254   -2.8614    0.8572 C   0  0  0  0  0  0  0  0  0  0  0  0
   -3.9097   -2.1522    1.3294 H   0  0  0  0  0  0  0  0  0  0  0  0
   -3.5283   -3.0125   -0.1815 H   0  0  0  0  0  0  0  0  0  0  0  0
   -1.8074   -2.3251    0.9111 C   0  0  0  0  0  0  0  0  0  0  0  0
   -0.9393   -2.9682    1.4739 O   0  0  0  0  0  0  0  0  0  0  0  0
   -1.5195   -1.1172    0.3142 N   0  0  0  0  0  0  0  0  0  0  0  0
   -2.3164   -0.6001   -0.0565 H   0  0  0  0  0  0  0  0  0  0  0  0
   -0.2625   -0.3560    0.4152 C   0  0  1  0  0  0  0  0  0  0  0  0
    0.3182   -0.6981    1.2757 H   0  0  0  0  0  0  0  0  0  0  0  0
    0.5292   -0.5123   -0.9077 C   0  0  0  0  0  0  0  0  0  0  0  0
   -0.1712   -0.5460   -1.7492 H   0  0  0  0  0  0  0  0  0  0  0  0
    1.1209    0.4011   -1.0356 H   0  0  0  0  0  0  0  0  0  0  0  0
    1.5360   -1.6842   -1.0318 C   0  0  0  0  0  0  0  0  0  0  0  0
    1.0875   -2.4426   -1.6791 H   0  0  0  0  0  0  0  0  0  0  0  0
    2.4410   -1.3304   -1.5341 H   0  0  0  0  0  0  0  0  0  0  0  0
    1.9492   -2.3834    0.2601 C   0  0  0  0  0  0  0  0  0  0  0  0
    2.6247   -1.7963    1.0871 O   0  0  0  0  0  0  0  0  0  0  0  0
    1.6918   -3.6982    0.5126 N   0  0  0  0  0  0  0  0  0  0  0  0
    1.8632   -3.9533    1.4805 H   0  0  0  0  0  0  0  0  0  0  0  0
    0.8506   -4.0665    0.0809 H   0  0  0  0  0  0  0  0  0  0  0  0
   -0.5718    1.1326    0.6649 C   0  0  0  0  0  0  0  0  0  0  0  0
   -1.4868    1.6733    0.0536 O   0  0  0  0  0  0  0  0  0  0  0  0
    0.1307    1.8408    1.6209 N   0  0  0  0  0  0  0  0  0  0  0  0
    0.8748    1.3526    2.1149 H   0  0  0  0  0  0  0  0  0  0  0  0
   -0.1350    3.2375    1.9415 C   0  0  0  0  0  0  0  0  0  0  0  0
   -1.1736    3.3661    2.2644 H   0  0  0  0  0  0  0  0  0  0  0  0
    0.5214    3.5709    2.7511 H   0  0  0  0  0  0  0  0  0  0  0  0
    0.0440    3.8720    1.0671 H   0  0  0  0  0  0  0  0  0  0  0  0
  1  2  1  0  0  0  0
  2  3  1  0  0  0  0
  2  4  1  0  0  0  0
  2  5  1  0  0  0  0
  5  6  2  0  0  0  0
  5  7  1  0  0  0  0
  7  8  1  0  0  0  0
  7  9  1  0  0  0  0
  9 10  1  0  0  0  0
  9 11  1  0  0  0  0
  9 22  1  0  0  0  0
 11 12  1  0  0  0  0
 11 13  1  0  0  0  0
 11 14  1  0  0  0  0
 14 15  1  0  0  0  0
 14 16  1  0  0  0  0
 14 17  1  0  0  0  0
 17 18  2  0  0  0  0
 17 19  1  0  0  0  0
 19 20  1  0  0  0  0
 19 21  1  0  0  0  0
 22 23  2  0  0  0  0
 22 24  1  0  0  0  0
 24 25  1  0  0  0  0
 24 26  1  0  0  0  0
 26 27  1  0  0  0  0
 26 28  1  0  0  0  0
 26 29  1  0  0  0  0
M  END
$$$$

  -OEChem-04042215583D

 29 28  0     1  0  0  0  0  0999 V2000
   -3.3145   -3.8215    1.3642 H   0  0  0  0  0  0  0  0  0  0  0  0
   -3.2254   -2.8726    0.8278 C   0  0  0  0  0  0  0  0  0  0  0  0
   -3.9655   -2.1736    1.2249 H   0  0  0  0  0  0  0  0  0  0  0  0
   -3.4307   -3.0463   -0.2311 H   0  0  0  0  0  0  0  0  0  0  0  0
   -1.8305   -2.3015    1.0007 C   0  0  0  0  0  0  0  0  0  0  0  0
   -1.0310   -2.8755    1.7178 O   0  0  0  0  0  0  0  0  0  0  0  0
   -1.5040   -1.1198    0.3700 N   0  0  0  0  0  0  0  0  0  0  0  0
   -2.2674   -0.6361   -0.1018 H   0  0  0  0  0  0  0  0  0  0  0  0
   -0.2410   -0.3680    0.4774 C   0  0  1  0  0  0  0  0  0  0  0  0
    0.3328   -0.6904    1.3513 H   0  0  0  0  0  0  0  0  0  0  0  0
    0.5781   -0.5335   -0.8306 C   0  0  0  0  0  0  0  0  0  0  0  0
   -0.1203   -0.5855   -1.6730 H   0  0  0  0  0  0  0  0  0  0  0  0
    1.1626    0.3822   -0.9758 H   0  0  0  0  0  0  0  0  0  0  0  0
    1.5863   -1.7056   -0.9451 C   0  0  0  0  0  0  0  0  0  0  0  0
    1.3099   -2.3125   -1.8114 H   0  0  0  0  0  0  0  0  0  0  0  0
    2.5792   -1.2948   -1.1513 H   0  0  0  0  0  0  0  0  0  0  0  0
    1.7202   -2.6367    0.2530 C   0  0  0  0  0  0  0  0  0  0  0  0
    2.3454   -2.2854    1.2372 O   0  0  0  0  0  0  0  0  0  0  0  0
    1.2682   -3.9239    0.2355 N   0  0  0  0  0  0  0  0  0  0  0  0
    1.1836   -4.3244    1.1666 H   0  0  0  0  0  0  0  0  0  0  0  0
    0.5437   -4.1385   -0.4386 H   0  0  0  0  0  0  0  0  0  0  0  0
   -0.5576    1.1291    0.6636 C   0  0  0  0  0  0  0  0  0  0  0  0
   -1.4337    1.6545   -0.0150 O   0  0  0  0  0  0  0  0  0  0  0  0
    0.1164    1.8730    1.6130 N   0  0  0  0  0  0  0  0  0  0  0  0
    0.8035    1.3895    2.1871 H   0  0  0  0  0  0  0  0  0  0  0  0
   -0.1702    3.2761    1.8836 C   0  0  0  0  0  0  0  0  0  0  0  0
   -1.2091    3.3990    2.2073 H   0  0  0  0  0  0  0  0  0  0  0  0
    0.4855    3.6500    2.6759 H   0  0  0  0  0  0  0  0  0  0  0  0
   -0.0064    3.8807    0.9853 H   0  0  0  0  0  0  0  0  0  0  0  0
  1  2  1  0  0  0  0
  2  3  1  0  0  0  0
  2  4  1  0  0  0  0
  2  5  1  0  0  0  0
  5  6  2  0  0  0  0
  5  7  1  0  0  0  0
  7  8  1  0  0  0  0
  7  9  1  0  0  0  0
  9 10  1  0  0  0  0
  9 11  1  0  0  0  0
  9 22  1  0  0  0  0
 11 12  1  0  0  0  0
 11 13  1  0  0  0  0
 11 14  1  0  0  0  0
 14 15  1  0  0  0  0
 14 16  1  0  0  0  0
 14 17  1  0  0  0  0
 17 18  2  0  0  0  0
 17 19  1  0  0  0  0
 19 20  1  0  0  0  0
 19 21  1  0  0  0  0
 22 23  2  0  0  0  0
 22 24  1  0  0  0  0
 24 25  1  0  0  0  0
 24 26  1  0  0  0  0
 26 27  1  0  0  0  0
 26 28  1  0  0  0  0
 26 29  1  0  0  0  0
M  END
$$$$

  -OEChem-04042215583D

 29 28  0     1  0  0  0  0  0999 V2000
   -3.2132   -3.9241    1.4364 H   0  0  0  0  0  0  0  0  0  0  0  0
   -3.1490   -2.9818    0.8848 C   0  0  0  0  0  0  0  0  0  0  0  0
   -3.9271   -2.3071    1.2500 H   0  0  0  0  0  0  0  0  0  0  0  0
   -3.3185   -3.1823   -0.1757 H   0  0  0  0  0  0  0  0  0  0  0  0
   -1.7835   -2.3511    1.0829 C   0  0  0  0  0  0  0  0  0  0  0  0
   -0.9934   -2.8641    1.8535 O   0  0  0  0  0  0  0  0  0  0  0  0
   -1.4846   -1.1733    0.4312 N   0  0  0  0  0  0  0  0  0  0  0  0
   -2.2538   -0.7298   -0.0697 H   0  0  0  0  0  0  0  0  0  0  0  0
   -0.2370   -0.3910    0.5105 C   0  0  1  0  0  0  0  0  0  0  0  0
    0.3663   -0.6971    1.3721 H   0  0  0  0  0  0  0  0  0  0  0  0
    0.5758   -0.5266   -0.8068 C   0  0  0  0  0  0  0  0  0  0  0  0
   -0.1390   -0.6202   -1.6316 H   0  0  0  0  0  0  0  0  0  0  0  0
    1.1207    0.4087   -0.9795 H   0  0  0  0  0  0  0  0  0  0  0  0
    1.6158   -1.6663   -0.9326 C   0  0  0  0  0  0  0  0  0  0  0  0
    1.5463   -2.1000   -1.9338 H   0  0  0  0  0  0  0  0  0  0  0  0
    2.6141   -1.2258   -0.8491 H   0  0  0  0  0  0  0  0  0  0  0  0
    1.5485   -2.7938    0.0855 C   0  0  0  0  0  0  0  0  0  0  0  0
    2.1980   -2.7310    1.1124 O   0  0  0  0  0  0  0  0  0  0  0  0
    0.8792   -3.9579   -0.1578 N   0  0  0  0  0  0  0  0  0  0  0  0
    0.6868   -4.4875    0.6898 H   0  0  0  0  0  0  0  0  0  0  0  0
    0.1769   -3.9397   -0.8865 H   0  0  0  0  0  0  0  0  0  0  0  0
   -0.5960    1.0992    0.6767 C   0  0  0  0  0  0  0  0  0  0  0  0
   -1.4815    1.5927   -0.0134 O   0  0  0  0  0  0  0  0  0  0  0  0
    0.0664    1.8778    1.6064 N   0  0  0  0  0  0  0  0  0  0  0  0
    0.7504    1.4167    2.2017 H   0  0  0  0  0  0  0  0  0  0  0  0
   -0.2545    3.2780    1.8531 C   0  0  0  0  0  0  0  0  0  0  0  0
   -1.2928    3.3805    2.1856 H   0  0  0  0  0  0  0  0  0  0  0  0
    0.3995    3.6838    2.6310 H   0  0  0  0  0  0  0  0  0  0  0  0
   -0.1157    3.8695    0.9421 H   0  0  0  0  0  0  0  0  0  0  0  0
  1  2  1  0  0  0  0
  2  3  1  0  0  0  0
  2  4  1  0  0  0  0
  2  5  1  0  0  0  0
  5  6  2  0  0  0  0
  5  7  1  0  0  0  0
  7  8  1  0  0  0  0
  7  9  1  0  0  0  0
  9 10  1  0  0  0  0
  9 11  1  0  0  0  0
  9 22  1  0  0  0  0
 11 12  1  0  0  0  0
 11 13  1  0  0  0  0
 11 14  1  0  0  0  0
 14 15  1  0  0  0  0
 14 16  1  0  0  0  0
 14 17  1  0  0  0  0
 17 18  2  0  0  0  0
 17 19  1  0  0  0  0
 19 20  1  0  0  0  0
 19 21  1  0  0  0  0
 22 23  2  0  0  0  0
 22 24  1  0  0  0  0
 24 25  1  0  0  0  0
 24 26  1  0  0  0  0
 26 27  1  0  0  0  0
 26 28  1  0  0  0  0
 26 29  1  0  0  0  0
M  END
$$$$

  -OEChem-04042215583D

 29 28  0     1  0  0  0  0  0999 V2000
   -3.1621   -4.0845    1.2833 H   0  0  0  0  0  0  0  0  0  0  0  0
   -3.1401   -3.1468    0.7216 C   0  0  0  0  0  0  0  0  0  0  0  0
   -4.0067   -2.5442    1.0031 H   0  0  0  0  0  0  0  0  0  0  0  0
   -3.1925   -3.3767   -0.3455 H   0  0  0  0  0  0  0  0  0  0  0  0
   -1.8610   -2.3891    1.0199 C   0  0  0  0  0  0  0  0  0  0  0  0
   -1.0556   -2.8337    1.8269 O   0  0  0  0  0  0  0  0  0  0  0  0
   -1.6417   -1.1529    0.4447 N   0  0  0  0  0  0  0  0  0  0  0  0
   -2.3760   -0.7861   -0.1571 H   0  0  0  0  0  0  0  0  0  0  0  0
   -0.3503   -0.4490    0.4429 C   0  0  1  0  0  0  0  0  0  0  0  0
    0.3505   -0.8784    1.1650 H   0  0  0  0  0  0  0  0  0  0  0  0
    0.2625   -0.4451   -0.9843 C   0  0  0  0  0  0  0  0  0  0  0  0
   -0.5647   -0.4092   -1.7022 H   0  0  0  0  0  0  0  0  0  0  0  0
    0.8403    0.4747   -1.1312 H   0  0  0  0  0  0  0  0  0  0  0  0
    1.1839   -1.6241   -1.3735 C   0  0  0  0  0  0  0  0  0  0  0  0
    1.1527   -1.7617   -2.4584 H   0  0  0  0  0  0  0  0  0  0  0  0
    2.2124   -1.3608   -1.1125 H   0  0  0  0  0  0  0  0  0  0  0  0
    0.8715   -2.9557   -0.7047 C   0  0  0  0  0  0  0  0  0  0  0  0
    0.0071   -3.6848   -1.1554 O   0  0  0  0  0  0  0  0  0  0  0  0
    1.5300   -3.3933    0.4081 N   0  0  0  0  0  0  0  0  0  0  0  0
    2.0617   -2.7096    0.9323 H   0  0  0  0  0  0  0  0  0  0  0  0
    1.0134   -4.1000    0.9278 H   0  0  0  0  0  0  0  0  0  0  0  0
   -0.5960    1.0286    0.8190 C   0  0  0  0  0  0  0  0  0  0  0  0
   -1.4773    1.6684    0.2565 O   0  0  0  0  0  0  0  0  0  0  0  0
    0.2239    1.6622    1.7347 N   0  0  0  0  0  0  0  0  0  0  0  0
    0.8836    1.0860    2.2491 H   0  0  0  0  0  0  0  0  0  0  0  0
    0.0279    3.0456    2.1521 C   0  0  0  0  0  0  0  0  0  0  0  0
   -0.9542    3.1693    2.6208 H   0  0  0  0  0  0  0  0  0  0  0  0
    0.7961    3.3353    2.8754 H   0  0  0  0  0  0  0  0  0  0  0  0
    0.0947    3.7187    1.2908 H   0  0  0  0  0  0  0  0  0  0  0  0
  1  2  1  0  0  0  0
  2  3  1  0  0  0  0
  2  4  1  0  0  0  0
  2  5  1  0  0  0  0
  5  6  2  0  0  0  0
  5  7  1  0  0  0  0
  7  8  1  0  0  0  0
  7  9  1  0  0  0  0
  9 10  1  0  0  0  0
  9 11  1  0  0  0  0
  9 22  1  0  0  0  0
 11 12  1  0  0  0  0
 11 13  1  0  0  0  0
 11 14  1  0  0  0  0
 14 15  1  0  0  0  0
 14 16  1  0  0  0  0
 14 17  1  0  0  0  0
 17 18  2  0  0  0  0
 17 19  1  0  0  0  0
 19 20  1  0  0  0  0
 19 21  1  0  0  0  0
 22 23  2  0  0  0  0
 22 24  1  0  0  0  0
 24 25  1  0  0  0  0
 24 26  1  0  0  0  0
 26 27  1  0  0  0  0
 26 28  1  0  0  0  0
 26 29  1  0  0  0  0
M  END
$$$$

  -OEChem-04042215583D

 29 28  0     1  0  0  0  0  0999 V2000
   -3.3157   -3.8721    1.4257 H   0  0  0  0  0  0  0  0  0  0  0  0
   -3.2398   -2.9679    0.8158 C   0  0  0  0  0  0  0  0  0  0  0  0
   -4.0615   -2.2962    1.0751 H   0  0  0  0  0  0  0  0  0  0  0  0
   -3.3223   -3.2465   -0.2380 H   0  0  0  0  0  0  0  0  0  0  0  0
   -1.9097   -2.2822    1.0596 C   0  0  0  0  0  0  0  0  0  0  0  0
   -1.0994   -2.7689    1.8368 O   0  0  0  0  0  0  0  0  0  0  0  0
   -1.6356   -1.0758    0.4476 N   0  0  0  0  0  0  0  0  0  0  0  0
   -2.3644   -0.6830   -0.1448 H   0  0  0  0  0  0  0  0  0  0  0  0
   -0.3147   -0.4305    0.4089 C   0  0  1  0  0  0  0  0  0  0  0  0
    0.3729   -0.8732    1.1362 H   0  0  0  0  0  0  0  0  0  0  0  0
    0.2862   -0.5110   -1.0195 C   0  0  0  0  0  0  0  0  0  0  0  0
   -0.5375   -0.4641   -1.7411 H   0  0  0  0  0  0  0  0  0  0  0  0
    0.9121    0.3700   -1.2009 H   0  0  0  0  0  0  0  0  0  0  0  0
    1.1480   -1.7510   -1.3393 C   0  0  0  0  0  0  0  0  0  0  0  0
    1.3189   -1.8015   -2.4184 H   0  0  0  0  0  0  0  0  0  0  0  0
    2.1237   -1.6308   -0.8612 H   0  0  0  0  0  0  0  0  0  0  0  0
    0.5602   -3.0803   -0.8837 C   0  0  0  0  0  0  0  0  0  0  0  0
   -0.4353   -3.5404   -1.4135 O   0  0  0  0  0  0  0  0  0  0  0  0
    1.1149   -3.8158    0.1236 N   0  0  0  0  0  0  0  0  0  0  0  0
    0.4776   -4.5003    0.5228 H   0  0  0  0  0  0  0  0  0  0  0  0
    1.7427   -3.3305    0.7534 H   0  0  0  0  0  0  0  0  0  0  0  0
   -0.4843    1.0675    0.7422 C   0  0  0  0  0  0  0  0  0  0  0  0
   -1.3471    1.7299    0.1773 O   0  0  0  0  0  0  0  0  0  0  0  0
    0.3775    1.6887    1.6275 N   0  0  0  0  0  0  0  0  0  0  0  0
    1.0222    1.0979    2.1446 H   0  0  0  0  0  0  0  0  0  0  0  0
    0.2457    3.0885    2.0138 C   0  0  0  0  0  0  0  0  0  0  0  0
   -0.7315    3.2688    2.4741 H   0  0  0  0  0  0  0  0  0  0  0  0
    1.0230    3.3565    2.7358 H   0  0  0  0  0  0  0  0  0  0  0  0
    0.3485    3.7390    1.1389 H   0  0  0  0  0  0  0  0  0  0  0  0
  1  2  1  0  0  0  0
  2  3  1  0  0  0  0
  2  4  1  0  0  0  0
  2  5  1  0  0  0  0
  5  6  2  0  0  0  0
  5  7  1  0  0  0  0
  7  8  1  0  0  0  0
  7  9  1  0  0  0  0
  9 10  1  0  0  0  0
  9 11  1  0  0  0  0
  9 22  1  0  0  0  0
 11 12  1  0  0  0  0
 11 13  1  0  0  0  0
 11 14  1  0  0  0  0
 14 15  1  0  0  0  0
 14 16  1  0  0  0  0
 14 17  1  0  0  0  0
 17 18  2  0  0  0  0
 17 19  1  0  0  0  0
 19 20  1  0  0  0  0
 19 21  1  0  0  0  0
 22 23  2  0  0  0  0
 22 24  1  0  0  0  0
 24 25  1  0  0  0  0
 24 26  1  0  0  0  0
 26 27  1  0  0  0  0
 26 28  1  0  0  0  0
 26 29  1  0  0  0  0
M  END
$$$$

  -OEChem-04042215583D

 29 28  0     1  0  0  0  0  0999 V2000
   -3.2283   -3.9074    1.4121 H   0  0  0  0  0  0  0  0  0  0  0  0
   -3.1836   -2.9895    0.8198 C   0  0  0  0  0  0  0  0  0  0  0  0
   -3.9971   -2.3291    1.1294 H   0  0  0  0  0  0  0  0  0  0  0  0
   -3.3107   -3.2446   -0.2356 H   0  0  0  0  0  0  0  0  0  0  0  0
   -1.8483   -2.2998    1.0214 C   0  0  0  0  0  0  0  0  0  0  0  0
   -0.9944   -2.8087    1.7351 O   0  0  0  0  0  0  0  0  0  0  0  0
   -1.6058   -1.0832    0.4176 N   0  0  0  0  0  0  0  0  0  0  0  0
   -2.3556   -0.6857   -0.1451 H   0  0  0  0  0  0  0  0  0  0  0  0
   -0.3024   -0.4053    0.3835 C   0  0  1  0  0  0  0  0  0  0  0  0
    0.3909   -0.8329    1.1142 H   0  0  0  0  0  0  0  0  0  0  0  0
    0.3041   -0.4894   -1.0388 C   0  0  0  0  0  0  0  0  0  0  0  0
   -0.5045   -0.4599   -1.7783 H   0  0  0  0  0  0  0  0  0  0  0  0
    0.9264    0.3948   -1.2163 H   0  0  0  0  0  0  0  0  0  0  0  0
    1.1880   -1.7257   -1.2971 C   0  0  0  0  0  0  0  0  0  0  0  0
    1.5799   -1.6792   -2.3169 H   0  0  0  0  0  0  0  0  0  0  0  0
    2.0423   -1.7039   -0.6154 H   0  0  0  0  0  0  0  0  0  0  0  0
    0.4604   -3.0561   -1.1313 C   0  0  0  0  0  0  0  0  0  0  0  0
   -0.5521   -3.3122   -1.7586 O   0  0  0  0  0  0  0  0  0  0  0  0
    0.9052   -4.0273   -0.2820 N   0  0  0  0  0  0  0  0  0  0  0  0
    0.2126   -4.7432   -0.0827 H   0  0  0  0  0  0  0  0  0  0  0  0
    1.5068   -3.7262    0.4767 H   0  0  0  0  0  0  0  0  0  0  0  0
   -0.5000    1.0871    0.7242 C   0  0  0  0  0  0  0  0  0  0  0  0
   -1.3849    1.7319    0.1736 O   0  0  0  0  0  0  0  0  0  0  0  0
    0.3499    1.7217    1.6115 N   0  0  0  0  0  0  0  0  0  0  0  0
    1.0216    1.1461    2.1112 H   0  0  0  0  0  0  0  0  0  0  0  0
    0.1953    3.1189    1.9984 C   0  0  0  0  0  0  0  0  0  0  0  0
   -0.7834    3.2821    2.4616 H   0  0  0  0  0  0  0  0  0  0  0  0
    0.9700    3.4007    2.7178 H   0  0  0  0  0  0  0  0  0  0  0  0
    0.2839    3.7708    1.1229 H   0  0  0  0  0  0  0  0  0  0  0  0
  1  2  1  0  0  0  0
  2  3  1  0  0  0  0
  2  4  1  0  0  0  0
  2  5  1  0  0  0  0
  5  6  2  0  0  0  0
  5  7  1  0  0  0  0
  7  8  1  0  0  0  0
  7  9  1  0  0  0  0
  9 10  1  0  0  0  0
  9 11  1  0  0  0  0
  9 22  1  0  0  0  0
 11 12  1  0  0  0  0
 11 13  1  0  0  0  0
 11 14  1  0  0  0  0
 14 15  1  0  0  0  0
 14 16  1  0  0  0  0
 14 17  1  0  0  0  0
 17 18  2  0  0  0  0
 17 19  1  0  0  0  0
 19 20  1  0  0  0  0
 19 21  1  0  0  0  0
 22 23  2  0  0  0  0
 22 24  1  0  0  0  0
 24 25  1  0  0  0  0
 24 26  1  0  0  0  0
 26 27  1  0  0  0  0
 26 28  1  0  0  0  0
 26 29  1  0  0  0  0
M  END
$$$$

  -OEChem-04042215583D

 29 28  0     1  0  0  0  0  0999 V2000
   -3.1152   -3.9646    1.3693 H   0  0  0  0  0  0  0  0  0  0  0  0
   -3.1023   -3.0305    0.8010 C   0  0  0  0  0  0  0  0  0  0  0  0
   -3.9022   -2.3829    1.1683 H   0  0  0  0  0  0  0  0  0  0  0  0
   -3.2808   -3.2569   -0.2535 H   0  0  0  0  0  0  0  0  0  0  0  0
   -1.7617   -2.3395    0.9571 C   0  0  0  0  0  0  0  0  0  0  0  0
   -0.8653   -2.8714    1.5985 O   0  0  0  0  0  0  0  0  0  0  0  0
   -1.5521   -1.1092    0.3707 N   0  0  0  0  0  0  0  0  0  0  0  0
   -2.3345   -0.6837   -0.1243 H   0  0  0  0  0  0  0  0  0  0  0  0
   -0.2705   -0.3918    0.3550 C   0  0  1  0  0  0  0  0  0  0  0  0
    0.4249   -0.8041    1.0930 H   0  0  0  0  0  0  0  0  0  0  0  0
    0.3447   -0.4690   -1.0599 C   0  0  0  0  0  0  0  0  0  0  0  0
   -0.4466   -0.4498   -1.8185 H   0  0  0  0  0  0  0  0  0  0  0  0
    0.9604    0.4223   -1.2241 H   0  0  0  0  0  0  0  0  0  0  0  0
    1.2562   -1.6933   -1.2667 C   0  0  0  0  0  0  0  0  0  0  0  0
    1.8494   -1.5471   -2.1736 H   0  0  0  0  0  0  0  0  0  0  0  0
    1.9541   -1.7859   -0.4303 H   0  0  0  0  0  0  0  0  0  0  0  0
    0.4781   -2.9963   -1.4313 C   0  0  0  0  0  0  0  0  0  0  0  0
   -0.3601   -3.1382   -2.3027 O   0  0  0  0  0  0  0  0  0  0  0  0
    0.6690   -4.0703   -0.6124 N   0  0  0  0  0  0  0  0  0  0  0  0
   -0.0317   -4.7960   -0.7236 H   0  0  0  0  0  0  0  0  0  0  0  0
    0.9801   -3.8570    0.3320 H   0  0  0  0  0  0  0  0  0  0  0  0
   -0.5065    1.0915    0.7103 C   0  0  0  0  0  0  0  0  0  0  0  0
   -1.4235    1.7103    0.1832 O   0  0  0  0  0  0  0  0  0  0  0  0
    0.3216    1.7382    1.6094 N   0  0  0  0  0  0  0  0  0  0  0  0
    1.0324    1.1841    2.0782 H   0  0  0  0  0  0  0  0  0  0  0  0
    0.1316    3.1265    2.0125 C   0  0  0  0  0  0  0  0  0  0  0  0
   -0.8368    3.2527    2.5080 H   0  0  0  0  0  0  0  0  0  0  0  0
    0.9191    3.4300    2.7090 H   0  0  0  0  0  0  0  0  0  0  0  0
    0.1699    3.7876    1.1403 H   0  0  0  0  0  0  0  0  0  0  0  0
  1  2  1  0  0  0  0
  2  3  1  0  0  0  0
  2  4  1  0  0  0  0
  2  5  1  0  0  0  0
  5  6  2  0  0  0  0
  5  7  1  0  0  0  0
  7  8  1  0  0  0  0
  7  9  1  0  0  0  0
  9 10  1  0  0  0  0
  9 11  1  0  0  0  0
  9 22  1  0  0  0  0
 11 12  1  0  0  0  0
 11 13  1  0  0  0  0
 11 14  1  0  0  0  0
 14 15  1  0  0  0  0
 14 16  1  0  0  0  0
 14 17  1  0  0  0  0
 17 18  2  0  0  0  0
 17 19  1  0  0  0  0
 19 20  1  0  0  0  0
 19 21  1  0  0  0  0
 22 23  2  0  0  0  0
 22 24  1  0  0  0  0
 24 25  1  0  0  0  0
 24 26  1  0  0  0  0
 26 27  1  0  0  0  0
 26 28  1  0  0  0  0
 26 29  1  0  0  0  0
M  END
$$$$

  -OEChem-04042215583D

 29 28  0     1  0  0  0  0  0999 V2000
   -3.0507   -3.9614    1.4422 H   0  0  0  0  0  0  0  0  0  0  0  0
   -3.0618   -3.0245    0.8785 C   0  0  0  0  0  0  0  0  0  0  0  0
   -3.7927   -2.3504    1.3321 H   0  0  0  0  0  0  0  0  0  0  0  0
   -3.3612   -3.2358   -0.1513 H   0  0  0  0  0  0  0  0  0  0  0  0
   -1.6862   -2.3855    0.8956 C   0  0  0  0  0  0  0  0  0  0  0  0
   -0.7425   -2.9715    1.4084 O   0  0  0  0  0  0  0  0  0  0  0  0
   -1.4975   -1.1478    0.3189 N   0  0  0  0  0  0  0  0  0  0  0  0
   -2.3226   -0.6615   -0.0315 H   0  0  0  0  0  0  0  0  0  0  0  0
   -0.2344   -0.3976    0.3239 C   0  0  1  0  0  0  0  0  0  0  0  0
    0.4511   -0.7910    1.0812 H   0  0  0  0  0  0  0  0  0  0  0  0
    0.4181   -0.4660   -1.0731 C   0  0  0  0  0  0  0  0  0  0  0  0
   -0.3486   -0.4635   -1.8569 H   0  0  0  0  0  0  0  0  0  0  0  0
    1.0179    0.4391   -1.2185 H   0  0  0  0  0  0  0  0  0  0  0  0
    1.3671   -1.6686   -1.2407 C   0  0  0  0  0  0  0  0  0  0  0  0
    2.1425   -1.4087   -1.9671 H   0  0  0  0  0  0  0  0  0  0  0  0
    1.8709   -1.9019   -0.2988 H   0  0  0  0  0  0  0  0  0  0  0  0
    0.6542   -2.9096   -1.7673 C   0  0  0  0  0  0  0  0  0  0  0  0
    0.2380   -2.9692   -2.9090 O   0  0  0  0  0  0  0  0  0  0  0  0
    0.4481   -4.0174   -0.9995 N   0  0  0  0  0  0  0  0  0  0  0  0
   -0.1745   -4.7053   -1.4100 H   0  0  0  0  0  0  0  0  0  0  0  0
    0.4187   -3.8715    0.0110 H   0  0  0  0  0  0  0  0  0  0  0  0
   -0.5167    1.0763    0.6820 C   0  0  0  0  0  0  0  0  0  0  0  0
   -1.4753    1.6529    0.1823 O   0  0  0  0  0  0  0  0  0  0  0  0
    0.2797    1.7427    1.5949 N   0  0  0  0  0  0  0  0  0  0  0  0
    1.0314    1.2207    2.0362 H   0  0  0  0  0  0  0  0  0  0  0  0
    0.0346    3.1170    2.0155 C   0  0  0  0  0  0  0  0  0  0  0  0
   -0.9387    3.1979    2.5109 H   0  0  0  0  0  0  0  0  0  0  0  0
    0.8085    3.4412    2.7178 H   0  0  0  0  0  0  0  0  0  0  0  0
    0.0486    3.7909    1.1523 H   0  0  0  0  0  0  0  0  0  0  0  0
  1  2  1  0  0  0  0
  2  3  1  0  0  0  0
  2  4  1  0  0  0  0
  2  5  1  0  0  0  0
  5  6  2  0  0  0  0
  5  7  1  0  0  0  0
  7  8  1  0  0  0  0
  7  9  1  0  0  0  0
  9 10  1  0  0  0  0
  9 11  1  0  0  0  0
  9 22  1  0  0  0  0
 11 12  1  0  0  0  0
 11 13  1  0  0  0  0
 11 14  1  0  0  0  0
 14 15  1  0  0  0  0
 14 16  1  0  0  0  0
 14 17  1  0  0  0  0
 17 18  2  0  0  0  0
 17 19  1  0  0  0  0
 19 20  1  0  0  0  0
 19 21  1  0  0  0  0
 22 23  2  0  0  0  0
 22 24  1  0  0  0  0
 24 25  1  0  0  0  0
 24 26  1  0  0  0  0
 26 27  1  0  0  0  0
 26 28  1  0  0  0  0
 26 29  1  0  0  0  0
M  END
$$$$

  -OEChem-04042215583D

 29 28  0     1  0  0  0  0  0999 V2000
   -2.9953   -3.9655    1.3919 H   0  0  0  0  0  0  0  0  0  0  0  0
   -3.0251   -3.0088    0.8630 C   0  0  0  0  0  0  0  0  0  0  0  0
   -3.7117   -2.3393    1.3870 H   0  0  0  0  0  0  0  0  0  0  0  0
   -3.3950   -3.1773   -0.1514 H   0  0  0  0  0  0  0  0  0  0  0  0
   -1.6397   -2.3942    0.8113 C   0  0  0  0  0  0  0  0  0  0  0  0
   -0.6732   -3.0236    1.2182 O   0  0  0  0  0  0  0  0  0  0  0  0
   -1.4634   -1.1495    0.2466 N   0  0  0  0  0  0  0  0  0  0  0  0
   -2.3035   -0.6433   -0.0334 H   0  0  0  0  0  0  0  0  0  0  0  0
   -0.2166   -0.3730    0.2936 C   0  0  1  0  0  0  0  0  0  0  0  0
    0.4404   -0.7510    1.0834 H   0  0  0  0  0  0  0  0  0  0  0  0
    0.4811   -0.4765   -1.0763 C   0  0  0  0  0  0  0  0  0  0  0  0
   -0.2573   -0.5113   -1.8861 H   0  0  0  0  0  0  0  0  0  0  0  0
    1.0735    0.4314   -1.2336 H   0  0  0  0  0  0  0  0  0  0  0  0
    1.4478   -1.6775   -1.1458 C   0  0  0  0  0  0  0  0  0  0  0  0
    2.3757   -1.3601   -1.6305 H   0  0  0  0  0  0  0  0  0  0  0  0
    1.7135   -2.0397   -0.1492 H   0  0  0  0  0  0  0  0  0  0  0  0
    0.8727   -2.8224   -1.9692 C   0  0  0  0  0  0  0  0  0  0  0  0
    0.7596   -2.7522   -3.1786 O   0  0  0  0  0  0  0  0  0  0  0  0
    0.3984   -3.9559   -1.3760 N   0  0  0  0  0  0  0  0  0  0  0  0
   -0.1551   -4.5649   -1.9692 H   0  0  0  0  0  0  0  0  0  0  0  0
    0.2090   -3.9150   -0.3730 H   0  0  0  0  0  0  0  0  0  0  0  0
   -0.5257    1.0958    0.6477 C   0  0  0  0  0  0  0  0  0  0  0  0
   -1.4950    1.6510    0.1445 O   0  0  0  0  0  0  0  0  0  0  0  0
    0.2355    1.7699    1.5846 N   0  0  0  0  0  0  0  0  0  0  0  0
    0.9984    1.2649    2.0266 H   0  0  0  0  0  0  0  0  0  0  0  0
   -0.0487    3.1342    2.0131 C   0  0  0  0  0  0  0  0  0  0  0  0
   -1.0305    3.1875    2.4951 H   0  0  0  0  0  0  0  0  0  0  0  0
    0.7072    3.4712    2.7289 H   0  0  0  0  0  0  0  0  0  0  0  0
   -0.0392    3.8156    1.1558 H   0  0  0  0  0  0  0  0  0  0  0  0
  1  2  1  0  0  0  0
  2  3  1  0  0  0  0
  2  4  1  0  0  0  0
  2  5  1  0  0  0  0
  5  6  2  0  0  0  0
  5  7  1  0  0  0  0
  7  8  1  0  0  0  0
  7  9  1  0  0  0  0
  9 10  1  0  0  0  0
  9 11  1  0  0  0  0
  9 22  1  0  0  0  0
 11 12  1  0  0  0  0
 11 13  1  0  0  0  0
 11 14  1  0  0  0  0
 14 15  1  0  0  0  0
 14 16  1  0  0  0  0
 14 17  1  0  0  0  0
 17 18  2  0  0  0  0
 17 19  1  0  0  0  0
 19 20  1  0  0  0  0
 19 21  1  0  0  0  0
 22 23  2  0  0  0  0
 22 24  1  0  0  0  0
 24 25  1  0  0  0  0
 24 26  1  0  0  0  0
 26 27  1  0  0  0  0
 26 28  1  0  0  0  0
 26 29  1  0  0  0  0
M  END
$$$$

  -OEChem-04042215583D

 29 28  0     1  0  0  0  0  0999 V2000
   -2.9688   -3.9656    1.3611 H   0  0  0  0  0  0  0  0  0  0  0  0
   -3.0095   -2.9885    0.8714 C   0  0  0  0  0  0  0  0  0  0  0  0
   -3.6566   -2.3297    1.4557 H   0  0  0  0  0  0  0  0  0  0  0  0
   -3.4347   -3.1116   -0.1277 H   0  0  0  0  0  0  0  0  0  0  0  0
   -1.6177   -2.3933    0.7716 C   0  0  0  0  0  0  0  0  0  0  0  0
   -0.6457   -3.0503    1.1129 O   0  0  0  0  0  0  0  0  0  0  0  0
   -1.4450   -1.1459    0.2115 N   0  0  0  0  0  0  0  0  0  0  0  0
   -2.2929   -0.6325   -0.0295 H   0  0  0  0  0  0  0  0  0  0  0  0
   -0.2106   -0.3487    0.2801 C   0  0  1  0  0  0  0  0  0  0  0  0
    0.4285   -0.7128    1.0910 H   0  0  0  0  0  0  0  0  0  0  0  0
    0.5206   -0.4831   -1.0675 C   0  0  0  0  0  0  0  0  0  0  0  0
   -0.2048   -0.5665   -1.8857 H   0  0  0  0  0  0  0  0  0  0  0  0
    1.0999    0.4274   -1.2558 H   0  0  0  0  0  0  0  0  0  0  0  0
    1.4993   -1.6780   -1.0589 C   0  0  0  0  0  0  0  0  0  0  0  0
    2.5114   -1.3160   -1.2603 H   0  0  0  0  0  0  0  0  0  0  0  0
    1.5278   -2.1765   -0.0870 H   0  0  0  0  0  0  0  0  0  0  0  0
    1.1457   -2.6992   -2.1274 C   0  0  0  0  0  0  0  0  0  0  0  0
    1.3245   -2.4900   -3.3125 O   0  0  0  0  0  0  0  0  0  0  0  0
    0.5127   -3.8594   -1.7855 N   0  0  0  0  0  0  0  0  0  0  0  0
    0.1027   -4.3939   -2.5443 H   0  0  0  0  0  0  0  0  0  0  0  0
    0.1530   -3.9460   -0.8352 H   0  0  0  0  0  0  0  0  0  0  0  0
   -0.5372    1.1177    0.6250 C   0  0  0  0  0  0  0  0  0  0  0  0
   -1.5179    1.6533    0.1229 O   0  0  0  0  0  0  0  0  0  0  0  0
    0.2026    1.8005    1.5725 N   0  0  0  0  0  0  0  0  0  0  0  0
    0.9789    1.3117    2.0096 H   0  0  0  0  0  0  0  0  0  0  0  0
   -0.1096    3.1576    2.0045 C   0  0  0  0  0  0  0  0  0  0  0  0
   -1.1086    3.1970    2.4515 H   0  0  0  0  0  0  0  0  0  0  0  0
    0.6165    3.4934    2.7510 H   0  0  0  0  0  0  0  0  0  0  0  0
   -0.0760    3.8479    1.1550 H   0  0  0  0  0  0  0  0  0  0  0  0
  1  2  1  0  0  0  0
  2  3  1  0  0  0  0
  2  4  1  0  0  0  0
  2  5  1  0  0  0  0
  5  6  2  0  0  0  0
  5  7  1  0  0  0  0
  7  8  1  0  0  0  0
  7  9  1  0  0  0  0
  9 10  1  0  0  0  0
  9 11  1  0  0  0  0
  9 22  1  0  0  0  0
 11 12  1  0  0  0  0
 11 13  1  0  0  0  0
 11 14  1  0  0  0  0
 14 15  1  0  0  0  0
 14 16  1  0  0  0  0
 14 17  1  0  0  0  0
 17 18  2  0  0  0  0
 17 19  1  0  0  0  0
 19 20  1  0  0  0  0
 19 21  1  0  0  0  0
 22 23  2  0  0  0  0
 22 24  1  0  0  0  0
 24 25  1  0  0  0  0
 24 26  1  0  0  0  0
 26 27  1  0  0  0  0
 26 28  1  0  0  0  0
 26 29  1  0  0  0  0
M  END
$$$$

  -OEChem-04042215583D

 29 28  0     1  0  0  0  0  0999 V2000
   -3.0616   -3.9383    1.3488 H   0  0  0  0  0  0  0  0  0  0  0  0
   -3.0720   -2.9640    0.8523 C   0  0  0  0  0  0  0  0  0  0  0  0
   -3.7624   -2.3053    1.3848 H   0  0  0  0  0  0  0  0  0  0  0  0
   -3.4237   -3.0950   -0.1739 H   0  0  0  0  0  0  0  0  0  0  0  0
   -1.6797   -2.3618    0.8507 C   0  0  0  0  0  0  0  0  0  0  0  0
   -0.7483   -2.9757    1.3472 O   0  0  0  0  0  0  0  0  0  0  0  0
   -1.4677   -1.1345    0.2596 N   0  0  0  0  0  0  0  0  0  0  0  0
   -2.2913   -0.6343   -0.0745 H   0  0  0  0  0  0  0  0  0  0  0  0
   -0.2225   -0.3558    0.3422 C   0  0  1  0  0  0  0  0  0  0  0  0
    0.4003   -0.7135    1.1690 H   0  0  0  0  0  0  0  0  0  0  0  0
    0.5428   -0.4925   -0.9870 C   0  0  0  0  0  0  0  0  0  0  0  0
   -0.1767   -0.5836   -1.8092 H   0  0  0  0  0  0  0  0  0  0  0  0
    1.1270    0.4139   -1.1812 H   0  0  0  0  0  0  0  0  0  0  0  0
    1.5106   -1.6943   -0.9678 C   0  0  0  0  0  0  0  0  0  0  0  0
    2.5375   -1.3414   -0.8382 H   0  0  0  0  0  0  0  0  0  0  0  0
    1.2905   -2.3596   -0.1300 H   0  0  0  0  0  0  0  0  0  0  0  0
    1.4240   -2.5069   -2.2512 C   0  0  0  0  0  0  0  0  0  0  0  0
    1.7133   -2.0336   -3.3337 O   0  0  0  0  0  0  0  0  0  0  0  0
    0.9245   -3.7777   -2.2533 N   0  0  0  0  0  0  0  0  0  0  0  0
    0.7029   -4.1748   -3.1612 H   0  0  0  0  0  0  0  0  0  0  0  0
    0.4751   -4.1271   -1.4116 H   0  0  0  0  0  0  0  0  0  0  0  0
   -0.5457    1.1226    0.6360 C   0  0  0  0  0  0  0  0  0  0  0  0
   -1.4923    1.6601    0.0733 O   0  0  0  0  0  0  0  0  0  0  0  0
    0.1712    1.8250    1.5867 N   0  0  0  0  0  0  0  0  0  0  0  0
    0.9192    1.3370    2.0712 H   0  0  0  0  0  0  0  0  0  0  0  0
   -0.1171    3.2088    1.9444 C   0  0  0  0  0  0  0  0  0  0  0  0
   -1.1282    3.2959    2.3558 H   0  0  0  0  0  0  0  0  0  0  0  0
    0.5943    3.5610    2.6977 H   0  0  0  0  0  0  0  0  0  0  0  0
   -0.0373    3.8567    1.0650 H   0  0  0  0  0  0  0  0  0  0  0  0
  1  2  1  0  0  0  0
  2  3  1  0  0  0  0
  2  4  1  0  0  0  0
  2  5  1  0  0  0  0
  5  6  2  0  0  0  0
  5  7  1  0  0  0  0
  7  8  1  0  0  0  0
  7  9  1  0  0  0  0
  9 10  1  0  0  0  0
  9 11  1  0  0  0  0
  9 22  1  0  0  0  0
 11 12  1  0  0  0  0
 11 13  1  0  0  0  0
 11 14  1  0  0  0  0
 14 15  1  0  0  0  0
 14 16  1  0  0  0  0
 14 17  1  0  0  0  0
 17 18  2  0  0  0  0
 17 19  1  0  0  0  0
 19 20  1  0  0  0  0
 19 21  1  0  0  0  0
 22 23  2  0  0  0  0
 22 24  1  0  0  0  0
 24 25  1  0  0  0  0
 24 26  1  0  0  0  0
 26 27  1  0  0  0  0
 26 28  1  0  0  0  0
 26 29  1  0  0  0  0
M  END
$$$$

  -OEChem-04042215583D

 29 28  0     1  0  0  0  0  0999 V2000
   -3.1993   -3.8628    1.3381 H   0  0  0  0  0  0  0  0  0  0  0  0
   -3.1814   -2.8918    0.8352 C   0  0  0  0  0  0  0  0  0  0  0  0
   -3.8905   -2.2246    1.3313 H   0  0  0  0  0  0  0  0  0  0  0  0
   -3.4876   -3.0283   -0.2049 H   0  0  0  0  0  0  0  0  0  0  0  0
   -1.7865   -2.2981    0.8914 C   0  0  0  0  0  0  0  0  0  0  0  0
   -0.8872   -2.9031    1.4543 O   0  0  0  0  0  0  0  0  0  0  0  0
   -1.5390   -1.0801    0.2941 N   0  0  0  0  0  0  0  0  0  0  0  0
   -2.3400   -0.5746   -0.0834 H   0  0  0  0  0  0  0  0  0  0  0  0
   -0.2704   -0.3403    0.3694 C   0  0  1  0  0  0  0  0  0  0  0  0
    0.3498   -0.7175    1.1895 H   0  0  0  0  0  0  0  0  0  0  0  0
    0.4840   -0.4896   -0.9651 C   0  0  0  0  0  0  0  0  0  0  0  0
   -0.2475   -0.5670   -1.7780 H   0  0  0  0  0  0  0  0  0  0  0  0
    1.0902    0.4005   -1.1674 H   0  0  0  0  0  0  0  0  0  0  0  0
    1.4140   -1.7198   -0.9555 C   0  0  0  0  0  0  0  0  0  0  0  0
    2.3902   -1.4473   -0.5456 H   0  0  0  0  0  0  0  0  0  0  0  0
    0.9914   -2.4960   -0.3135 H   0  0  0  0  0  0  0  0  0  0  0  0
    1.5981   -2.3260   -2.3425 C   0  0  0  0  0  0  0  0  0  0  0  0
    1.6384   -1.6496   -3.3532 O   0  0  0  0  0  0  0  0  0  0  0  0
    1.7055   -3.6755   -2.5218 N   0  0  0  0  0  0  0  0  0  0  0  0
    1.6439   -4.0053   -3.4806 H   0  0  0  0  0  0  0  0  0  0  0  0
    1.4714   -4.2921   -1.7503 H   0  0  0  0  0  0  0  0  0  0  0  0
   -0.5498    1.1484    0.6589 C   0  0  0  0  0  0  0  0  0  0  0  0
   -1.4771    1.7145    0.0919 O   0  0  0  0  0  0  0  0  0  0  0  0
    0.1898    1.8339    1.6049 N   0  0  0  0  0  0  0  0  0  0  0  0
    0.9173    1.3233    2.0974 H   0  0  0  0  0  0  0  0  0  0  0  0
   -0.0592    3.2261    1.9599 C   0  0  0  0  0  0  0  0  0  0  0  0
   -1.0593    3.3384    2.3916 H   0  0  0  0  0  0  0  0  0  0  0  0
    0.6758    3.5665    2.6957 H   0  0  0  0  0  0  0  0  0  0  0  0
    0.0169    3.8674    1.0752 H   0  0  0  0  0  0  0  0  0  0  0  0
  1  2  1  0  0  0  0
  2  3  1  0  0  0  0
  2  4  1  0  0  0  0
  2  5  1  0  0  0  0
  5  6  2  0  0  0  0
  5  7  1  0  0  0  0
  7  8  1  0  0  0  0
  7  9  1  0  0  0  0
  9 10  1  0  0  0  0
  9 11  1  0  0  0  0
  9 22  1  0  0  0  0
 11 12  1  0  0  0  0
 11 13  1  0  0  0  0
 11 14  1  0  0  0  0
 14 15  1  0  0  0  0
 14 16  1  0  0  0  0
 14 17  1  0  0  0  0
 17 18  2  0  0  0  0
 17 19  1  0  0  0  0
 19 20  1  0  0  0  0
 19 21  1  0  0  0  0
 22 23  2  0  0  0  0
 22 24  1  0  0  0  0
 24 25  1  0  0  0  0
 24 26  1  0  0  0  0
 26 27  1  0  0  0  0
 26 28  1  0  0  0  0
 26 29  1  0  0  0  0
M  END
$$$$

  -OEChem-04042215583D

 29 28  0     1  0  0  0  0  0999 V2000
   -3.2802   -3.8055    1.3721 H   0  0  0  0  0  0  0  0  0  0  0  0
   -3.2514   -2.8388    0.8614 C   0  0  0  0  0  0  0  0  0  0  0  0
   -3.9432   -2.1561    1.3609 H   0  0  0  0  0  0  0  0  0  0  0  0
   -3.5714   -2.9774   -0.1741 H   0  0  0  0  0  0  0  0  0  0  0  0
   -1.8459   -2.2694    0.8966 C   0  0  0  0  0  0  0  0  0  0  0  0
   -0.9506   -2.8865    1.4532 O   0  0  0  0  0  0  0  0  0  0  0  0
   -1.5851   -1.0552    0.2965 N   0  0  0  0  0  0  0  0  0  0  0  0
   -2.3800   -0.5368   -0.0762 H   0  0  0  0  0  0  0  0  0  0  0  0
   -0.3026   -0.3395    0.3643 C   0  0  1  0  0  0  0  0  0  0  0  0
    0.3149   -0.7289    1.1807 H   0  0  0  0  0  0  0  0  0  0  0  0
    0.4438   -0.5006   -0.9730 C   0  0  0  0  0  0  0  0  0  0  0  0
   -0.2845   -0.5645   -1.7899 H   0  0  0  0  0  0  0  0  0  0  0  0
    1.0693    0.3777   -1.1689 H   0  0  0  0  0  0  0  0  0  0  0  0
    1.3472   -1.7486   -0.9581 C   0  0  0  0  0  0  0  0  0  0  0  0
    2.2173   -1.5695   -0.3213 H   0  0  0  0  0  0  0  0  0  0  0  0
    0.7925   -2.5912   -0.5375 H   0  0  0  0  0  0  0  0  0  0  0  0
    1.8214   -2.1571   -2.3494 C   0  0  0  0  0  0  0  0  0  0  0  0
    1.7923   -1.4074   -3.3076 O   0  0  0  0  0  0  0  0  0  0  0  0
    2.3155   -3.4071   -2.5888 N   0  0  0  0  0  0  0  0  0  0  0  0
    2.4527   -3.6534   -3.5646 H   0  0  0  0  0  0  0  0  0  0  0  0
    2.1803   -4.1308   -1.8906 H   0  0  0  0  0  0  0  0  0  0  0  0
   -0.5535    1.1534    0.6574 C   0  0  0  0  0  0  0  0  0  0  0  0
   -1.4774    1.7367    0.1020 O   0  0  0  0  0  0  0  0  0  0  0  0
    0.2057    1.8217    1.6000 N   0  0  0  0  0  0  0  0  0  0  0  0
    0.9269    1.2954    2.0849 H   0  0  0  0  0  0  0  0  0  0  0  0
   -0.0263    3.2115    1.9742 C   0  0  0  0  0  0  0  0  0  0  0  0
   -1.0258    3.3304    2.4054 H   0  0  0  0  0  0  0  0  0  0  0  0
    0.7111    3.5314    2.7166 H   0  0  0  0  0  0  0  0  0  0  0  0
    0.0600    3.8641    1.0990 H   0  0  0  0  0  0  0  0  0  0  0  0
  1  2  1  0  0  0  0
  2  3  1  0  0  0  0
  2  4  1  0  0  0  0
  2  5  1  0  0  0  0
  5  6  2  0  0  0  0
  5  7  1  0  0  0  0
  7  8  1  0  0  0  0
  7  9  1  0  0  0  0
  9 10  1  0  0  0  0
  9 11  1  0  0  0  0
  9 22  1  0  0  0  0
 11 12  1  0  0  0  0
 11 13  1  0  0  0  0
 11 14  1  0  0  0  0
 14 15  1  0  0  0  0
 14 16  1  0  0  0  0
 14 17  1  0  0  0  0
 17 18  2  0  0  0  0
 17 19  1  0  0  0  0
 19 20  1  0  0  0  0
 19 21  1  0  0  0  0
 22 23  2  0  0  0  0
 22 24  1  0  0  0  0
 24 25  1  0  0  0  0
 24 26  1  0  0  0  0
 26 27  1  0  0  0  0
 26 28  1  0  0  0  0
 26 29  1  0  0  0  0
M  END
$$$$

  -OEChem-04042215583D

 29 28  0     1  0  0  0  0  0999 V2000
   -3.3664   -3.7617    1.4121 H   0  0  0  0  0  0  0  0  0  0  0  0
   -3.3238   -2.7992    0.8947 C   0  0  0  0  0  0  0  0  0  0  0  0
   -3.9910   -2.0974    1.4010 H   0  0  0  0  0  0  0  0  0  0  0  0
   -3.6638   -2.9367   -0.1345 H   0  0  0  0  0  0  0  0  0  0  0  0
   -1.9052   -2.2622    0.9031 C   0  0  0  0  0  0  0  0  0  0  0  0
   -1.0123   -2.9026    1.4368 O   0  0  0  0  0  0  0  0  0  0  0  0
   -1.6279   -1.0540    0.2980 N   0  0  0  0  0  0  0  0  0  0  0  0
   -2.4184   -0.5153   -0.0547 H   0  0  0  0  0  0  0  0  0  0  0  0
   -0.3334   -0.3595    0.3636 C   0  0  1  0  0  0  0  0  0  0  0  0
    0.2742   -0.7618    1.1807 H   0  0  0  0  0  0  0  0  0  0  0  0
    0.4228   -0.5325   -0.9645 C   0  0  0  0  0  0  0  0  0  0  0  0
   -0.2505   -0.3220   -1.8035 H   0  0  0  0  0  0  0  0  0  0  0  0
    1.2422    0.1937   -1.0139 H   0  0  0  0  0  0  0  0  0  0  0  0
    1.0113   -1.9504   -1.0989 C   0  0  0  0  0  0  0  0  0  0  0  0
    1.6905   -2.1461   -0.2647 H   0  0  0  0  0  0  0  0  0  0  0  0
    0.2045   -2.6860   -1.0541 H   0  0  0  0  0  0  0  0  0  0  0  0
    1.7713   -2.1629   -2.4047 C   0  0  0  0  0  0  0  0  0  0  0  0
    1.9686   -1.2762   -3.2148 O   0  0  0  0  0  0  0  0  0  0  0  0
    2.2835   -3.3860   -2.7298 N   0  0  0  0  0  0  0  0  0  0  0  0
    2.6330   -3.4900   -3.6778 H   0  0  0  0  0  0  0  0  0  0  0  0
    2.0017   -4.1986   -2.1915 H   0  0  0  0  0  0  0  0  0  0  0  0
   -0.5537    1.1386    0.6522 C   0  0  0  0  0  0  0  0  0  0  0  0
   -1.4703    1.7368    0.1006 O   0  0  0  0  0  0  0  0  0  0  0  0
    0.2196    1.7941    1.5923 N   0  0  0  0  0  0  0  0  0  0  0  0
    0.9359    1.2569    2.0726 H   0  0  0  0  0  0  0  0  0  0  0  0
    0.0182    3.1903    1.9602 C   0  0  0  0  0  0  0  0  0  0  0  0
   -0.9823    3.3346    2.3814 H   0  0  0  0  0  0  0  0  0  0  0  0
    0.7560    3.4948    2.7087 H   0  0  0  0  0  0  0  0  0  0  0  0
    0.1285    3.8377    1.0838 H   0  0  0  0  0  0  0  0  0  0  0  0
  1  2  1  0  0  0  0
  2  3  1  0  0  0  0
  2  4  1  0  0  0  0
  2  5  1  0  0  0  0
  5  6  2  0  0  0  0
  5  7  1  0  0  0  0
  7  8  1  0  0  0  0
  7  9  1  0  0  0  0
  9 10  1  0  0  0  0
  9 11  1  0  0  0  0
  9 22  1  0  0  0  0
 11 12  1  0  0  0  0
 11 13  1  0  0  0  0
 11 14  1  0  0  0  0
 14 15  1  0  0  0  0
 14 16  1  0  0  0  0
 14 17  1  0  0  0  0
 17 18  2  0  0  0  0
 17 19  1  0  0  0  0
 19 20  1  0  0  0  0
 19 21  1  0  0  0  0
 22 23  2  0  0  0  0
 22 24  1  0  0  0  0
 24 25  1  0  0  0  0
 24 26  1  0  0  0  0
 26 27  1  0  0  0  0
 26 28  1  0  0  0  0
 26 29  1  0  0  0  0
M  END
$$$$

  -OEChem-04042215583D

 29 28  0     1  0  0  0  0  0999 V2000
   -3.3863   -3.7403    1.4327 H   0  0  0  0  0  0  0  0  0  0  0  0
   -3.3401   -2.7890    0.8951 C   0  0  0  0  0  0  0  0  0  0  0  0
   -3.9999   -2.0726    1.3906 H   0  0  0  0  0  0  0  0  0  0  0  0
   -3.6867   -2.9452   -0.1293 H   0  0  0  0  0  0  0  0  0  0  0  0
   -1.9177   -2.2621    0.8857 C   0  0  0  0  0  0  0  0  0  0  0  0
   -1.0203   -2.9151    1.3963 O   0  0  0  0  0  0  0  0  0  0  0  0
   -1.6417   -1.0488    0.2909 N   0  0  0  0  0  0  0  0  0  0  0  0
   -2.4340   -0.4992   -0.0404 H   0  0  0  0  0  0  0  0  0  0  0  0
   -0.3448   -0.3604    0.3573 C   0  0  1  0  0  0  0  0  0  0  0  0
    0.2654   -0.7714    1.1683 H   0  0  0  0  0  0  0  0  0  0  0  0
    0.3953   -0.5310   -0.9793 C   0  0  0  0  0  0  0  0  0  0  0  0
   -0.2705   -0.3021   -1.8189 H   0  0  0  0  0  0  0  0  0  0  0  0
    1.2210    0.1890   -1.0124 H   0  0  0  0  0  0  0  0  0  0  0  0
    0.9713   -1.9537   -1.1261 C   0  0  0  0  0  0  0  0  0  0  0  0
    1.4545   -2.2502   -0.1908 H   0  0  0  0  0  0  0  0  0  0  0  0
    0.1579   -2.6584   -1.3185 H   0  0  0  0  0  0  0  0  0  0  0  0
    2.0054   -2.0747   -2.2415 C   0  0  0  0  0  0  0  0  0  0  0  0
    2.2685   -1.1695   -3.0114 O   0  0  0  0  0  0  0  0  0  0  0  0
    2.6975   -3.2352   -2.4359 N   0  0  0  0  0  0  0  0  0  0  0  0
    3.2381   -3.2968   -3.2938 H   0  0  0  0  0  0  0  0  0  0  0  0
    2.3938   -4.0764   -1.9565 H   0  0  0  0  0  0  0  0  0  0  0  0
   -0.5567    1.1358    0.6623 C   0  0  0  0  0  0  0  0  0  0  0  0
   -1.4767    1.7413    0.1245 O   0  0  0  0  0  0  0  0  0  0  0  0
    0.2237    1.7795    1.6045 N   0  0  0  0  0  0  0  0  0  0  0  0
    0.9554    1.2414    2.0601 H   0  0  0  0  0  0  0  0  0  0  0  0
    0.0436    3.1789    1.9710 C   0  0  0  0  0  0  0  0  0  0  0  0
   -0.9618    3.3441    2.3721 H   0  0  0  0  0  0  0  0  0  0  0  0
    0.7719    3.4664    2.7354 H   0  0  0  0  0  0  0  0  0  0  0  0
    0.1855    3.8247    1.0980 H   0  0  0  0  0  0  0  0  0  0  0  0
  1  2  1  0  0  0  0
  2  3  1  0  0  0  0
  2  4  1  0  0  0  0
  2  5  1  0  0  0  0
  5  6  2  0  0  0  0
  5  7  1  0  0  0  0
  7  8  1  0  0  0  0
  7  9  1  0  0  0  0
  9 10  1  0  0  0  0
  9 11  1  0  0  0  0
  9 22  1  0  0  0  0
 11 12  1  0  0  0  0
 11 13  1  0  0  0  0
 11 14  1  0  0  0  0
 14 15  1  0  0  0  0
 14 16  1  0  0  0  0
 14 17  1  0  0  0  0
 17 18  2  0  0  0  0
 17 19  1  0  0  0  0
 19 20  1  0  0  0  0
 19 21  1  0  0  0  0
 22 23  2  0  0  0  0
 22 24  1  0  0  0  0
 24 25  1  0  0  0  0
 24 26  1  0  0  0  0
 26 27  1  0  0  0  0
 26 28  1  0  0  0  0
 26 29  1  0  0  0  0
M  END
$$$$

  -OEChem-04042215583D

 29 28  0     1  0  0  0  0  0999 V2000
   -3.3800   -3.7539    1.4283 H   0  0  0  0  0  0  0  0  0  0  0  0
   -3.3350   -2.8071    0.8832 C   0  0  0  0  0  0  0  0  0  0  0  0
   -4.0097   -2.0931    1.3617 H   0  0  0  0  0  0  0  0  0  0  0  0
   -3.6641   -2.9757   -0.1450 H   0  0  0  0  0  0  0  0  0  0  0  0
   -1.9179   -2.2662    0.8899 C   0  0  0  0  0  0  0  0  0  0  0  0
   -1.0185   -2.9148    1.4027 O   0  0  0  0  0  0  0  0  0  0  0  0
   -1.6492   -1.0480    0.3016 N   0  0  0  0  0  0  0  0  0  0  0  0
   -2.4442   -0.5044   -0.0327 H   0  0  0  0  0  0  0  0  0  0  0  0
   -0.3527   -0.3574    0.3571 C   0  0  1  0  0  0  0  0  0  0  0  0
    0.2704   -0.7717    1.1563 H   0  0  0  0  0  0  0  0  0  0  0  0
    0.3620   -0.5181   -0.9949 C   0  0  0  0  0  0  0  0  0  0  0  0
   -0.3132   -0.2784   -1.8236 H   0  0  0  0  0  0  0  0  0  0  0  0
    1.1813    0.2090   -1.0243 H   0  0  0  0  0  0  0  0  0  0  0  0
    0.9375   -1.9418   -1.1678 C   0  0  0  0  0  0  0  0  0  0  0  0
    1.2060   -2.3484   -0.1889 H   0  0  0  0  0  0  0  0  0  0  0  0
    0.1679   -2.5915   -1.5932 H   0  0  0  0  0  0  0  0  0  0  0  0
    2.1917   -2.0133   -2.0362 C   0  0  0  0  0  0  0  0  0  0  0  0
    2.6752   -1.0521   -2.6051 O   0  0  0  0  0  0  0  0  0  0  0  0
    2.8532   -3.1941   -2.2134 N   0  0  0  0  0  0  0  0  0  0  0  0
    3.7596   -3.1389   -2.6682 H   0  0  0  0  0  0  0  0  0  0  0  0
    2.6191   -3.9853   -1.6228 H   0  0  0  0  0  0  0  0  0  0  0  0
   -0.5612    1.1366    0.6756 C   0  0  0  0  0  0  0  0  0  0  0  0
   -1.4818    1.7484    0.1460 O   0  0  0  0  0  0  0  0  0  0  0  0
    0.2312    1.7733    1.6127 N   0  0  0  0  0  0  0  0  0  0  0  0
    0.9728    1.2333    2.0495 H   0  0  0  0  0  0  0  0  0  0  0  0
    0.0726    3.1767    1.9741 C   0  0  0  0  0  0  0  0  0  0  0  0
   -0.9330    3.3610    2.3665 H   0  0  0  0  0  0  0  0  0  0  0  0
    0.7993    3.4530    2.7442 H   0  0  0  0  0  0  0  0  0  0  0  0
    0.2335    3.8176    1.1008 H   0  0  0  0  0  0  0  0  0  0  0  0
  1  2  1  0  0  0  0
  2  3  1  0  0  0  0
  2  4  1  0  0  0  0
  2  5  1  0  0  0  0
  5  6  2  0  0  0  0
  5  7  1  0  0  0  0
  7  8  1  0  0  0  0
  7  9  1  0  0  0  0
  9 10  1  0  0  0  0
  9 11  1  0  0  0  0
  9 22  1  0  0  0  0
 11 12  1  0  0  0  0
 11 13  1  0  0  0  0
 11 14  1  0  0  0  0
 14 15  1  0  0  0  0
 14 16  1  0  0  0  0
 14 17  1  0  0  0  0
 17 18  2  0  0  0  0
 17 19  1  0  0  0  0
 19 20  1  0  0  0  0
 19 21  1  0  0  0  0
 22 23  2  0  0  0  0
 22 24  1  0  0  0  0
 24 25  1  0  0  0  0
 24 26  1  0  0  0  0
 26 27  1  0  0  0  0
 26 28  1  0  0  0  0
 26 29  1  0  0  0  0
M  END
$$$$

  -OEChem-04042215583D

 29 28  0     1  0  0  0  0  0999 V2000
   -3.3886   -3.7502    1.4374 H   0  0  0  0  0  0  0  0  0  0  0  0
   -3.3391   -2.8052    0.8891 C   0  0  0  0  0  0  0  0  0  0  0  0
   -4.0098   -2.0863    1.3662 H   0  0  0  0  0  0  0  0  0  0  0  0
   -3.6700   -2.9753   -0.1382 H   0  0  0  0  0  0  0  0  0  0  0  0
   -1.9193   -2.2712    0.8935 C   0  0  0  0  0  0  0  0  0  0  0  0
   -1.0263   -2.9187    1.4180 O   0  0  0  0  0  0  0  0  0  0  0  0
   -1.6455   -1.0534    0.3061 N   0  0  0  0  0  0  0  0  0  0  0  0
   -2.4393   -0.5087   -0.0296 H   0  0  0  0  0  0  0  0  0  0  0  0
   -0.3487   -0.3622    0.3615 C   0  0  1  0  0  0  0  0  0  0  0  0
    0.2774   -0.7770    1.1586 H   0  0  0  0  0  0  0  0  0  0  0  0
    0.3690   -0.5078   -0.9921 C   0  0  0  0  0  0  0  0  0  0  0  0
   -0.3127   -0.2657   -1.8145 H   0  0  0  0  0  0  0  0  0  0  0  0
    1.1736    0.2346   -1.0186 H   0  0  0  0  0  0  0  0  0  0  0  0
    0.9553   -1.9275   -1.1915 C   0  0  0  0  0  0  0  0  0  0  0  0
    0.9750   -2.4555   -0.2349 H   0  0  0  0  0  0  0  0  0  0  0  0
    0.2995   -2.4914   -1.8603 H   0  0  0  0  0  0  0  0  0  0  0  0
    2.3805   -1.9725   -1.7421 C   0  0  0  0  0  0  0  0  0  0  0  0
    3.0086   -0.9896   -2.0898 O   0  0  0  0  0  0  0  0  0  0  0  0
    3.0449   -3.1595   -1.8577 N   0  0  0  0  0  0  0  0  0  0  0  0
    4.0378   -3.0980   -2.0630 H   0  0  0  0  0  0  0  0  0  0  0  0
    2.6651   -3.9808   -1.3984 H   0  0  0  0  0  0  0  0  0  0  0  0
   -0.5639    1.1311    0.6798 C   0  0  0  0  0  0  0  0  0  0  0  0
   -1.4847    1.7394    0.1457 O   0  0  0  0  0  0  0  0  0  0  0  0
    0.2242    1.7720    1.6174 N   0  0  0  0  0  0  0  0  0  0  0  0
    0.9716    1.2376    2.0515 H   0  0  0  0  0  0  0  0  0  0  0  0
    0.0619    3.1764    1.9728 C   0  0  0  0  0  0  0  0  0  0  0  0
   -0.9468    3.3610    2.3571 H   0  0  0  0  0  0  0  0  0  0  0  0
    0.7825    3.4569    2.7470 H   0  0  0  0  0  0  0  0  0  0  0  0
    0.2281    3.8137    1.0980 H   0  0  0  0  0  0  0  0  0  0  0  0
  1  2  1  0  0  0  0
  2  3  1  0  0  0  0
  2  4  1  0  0  0  0
  2  5  1  0  0  0  0
  5  6  2  0  0  0  0
  5  7  1  0  0  0  0
  7  8  1  0  0  0  0
  7  9  1  0  0  0  0
  9 10  1  0  0  0  0
  9 11  1  0  0  0  0
  9 22  1  0  0  0  0
 11 12  1  0  0  0  0
 11 13  1  0  0  0  0
 11 14  1  0  0  0  0
 14 15  1  0  0  0  0
 14 16  1  0  0  0  0
 14 17  1  0  0  0  0
 17 18  2  0  0  0  0
 17 19  1  0  0  0  0
 19 20  1  0  0  0  0
 19 21  1  0  0  0  0
 22 23  2  0  0  0  0
 22 24  1  0  0  0  0
 24 25  1  0  0  0  0
 24 26  1  0  0  0  0
 26 27  1  0  0  0  0
 26 28  1  0  0  0  0
 26 29  1  0  0  0  0
M  END
$$$$

  -OEChem-04042215583D

 29 28  0     1  0  0  0  0  0999 V2000
   -3.4539   -3.7560    1.3902 H   0  0  0  0  0  0  0  0  0  0  0  0
   -3.3934   -2.7725    0.9159 C   0  0  0  0  0  0  0  0  0  0  0  0
   -4.0562   -2.0842    1.4460 H   0  0  0  0  0  0  0  0  0  0  0  0
   -3.7252   -2.8610   -0.1213 H   0  0  0  0  0  0  0  0  0  0  0  0
   -1.9679   -2.2561    0.9627 C   0  0  0  0  0  0  0  0  0  0  0  0
   -1.1134   -2.8862    1.5651 O   0  0  0  0  0  0  0  0  0  0  0  0
   -1.6547   -1.0682    0.3353 N   0  0  0  0  0  0  0  0  0  0  0  0
   -2.4301   -0.5315   -0.0515 H   0  0  0  0  0  0  0  0  0  0  0  0
   -0.3553   -0.3816    0.4063 C   0  0  1  0  0  0  0  0  0  0  0  0
    0.2379   -0.7683    1.2419 H   0  0  0  0  0  0  0  0  0  0  0  0
    0.4244   -0.5763   -0.9063 C   0  0  0  0  0  0  0  0  0  0  0  0
   -0.2444   -0.3856   -1.7525 H   0  0  0  0  0  0  0  0  0  0  0  0
    1.2181    0.1770   -0.9637 H   0  0  0  0  0  0  0  0  0  0  0  0
    1.0225   -1.9980   -1.0348 C   0  0  0  0  0  0  0  0  0  0  0  0
    0.7572   -2.6119   -0.1719 H   0  0  0  0  0  0  0  0  0  0  0  0
    0.5930   -2.4773   -1.9184 H   0  0  0  0  0  0  0  0  0  0  0  0
    2.5445   -2.0168   -1.1601 C   0  0  0  0  0  0  0  0  0  0  0  0
    3.2647   -1.1870   -0.6350 O   0  0  0  0  0  0  0  0  0  0  0  0
    3.1885   -3.0054   -1.8472 N   0  0  0  0  0  0  0  0  0  0  0  0
    4.1939   -3.0533   -1.7095 H   0  0  0  0  0  0  0  0  0  0  0  0
    2.6696   -3.8405   -2.0970 H   0  0  0  0  0  0  0  0  0  0  0  0
   -0.5684    1.1252    0.6492 C   0  0  0  0  0  0  0  0  0  0  0  0
   -1.4667    1.7140    0.0576 O   0  0  0  0  0  0  0  0  0  0  0  0
    0.1929    1.8001    1.5845 N   0  0  0  0  0  0  0  0  0  0  0  0
    0.9338    1.2820    2.0499 H   0  0  0  0  0  0  0  0  0  0  0  0
    0.0308    3.2187    1.8765 C   0  0  0  0  0  0  0  0  0  0  0  0
   -0.9615    3.4112    2.2977 H   0  0  0  0  0  0  0  0  0  0  0  0
    0.7838    3.5436    2.6010 H   0  0  0  0  0  0  0  0  0  0  0  0
    0.1493    3.8143    0.9650 H   0  0  0  0  0  0  0  0  0  0  0  0
  1  2  1  0  0  0  0
  2  3  1  0  0  0  0
  2  4  1  0  0  0  0
  2  5  1  0  0  0  0
  5  6  2  0  0  0  0
  5  7  1  0  0  0  0
  7  8  1  0  0  0  0
  7  9  1  0  0  0  0
  9 10  1  0  0  0  0
  9 11  1  0  0  0  0
  9 22  1  0  0  0  0
 11 12  1  0  0  0  0
 11 13  1  0  0  0  0
 11 14  1  0  0  0  0
 14 15  1  0  0  0  0
 14 16  1  0  0  0  0
 14 17  1  0  0  0  0
 17 18  2  0  0  0  0
 17 19  1  0  0  0  0
 19 20  1  0  0  0  0
 19 21  1  0  0  0  0
 22 23  2  0  0  0  0
 22 24  1  0  0  0  0
 24 25  1  0  0  0  0
 24 26  1  0  0  0  0
 26 27  1  0  0  0  0
 26 28  1  0  0  0  0
 26 29  1  0  0  0  0
M  END
$$$$

  -OEChem-04042215583D

 29 28  0     1  0  0  0  0  0999 V2000
   -3.4570   -3.7460    1.4152 H   0  0  0  0  0  0  0  0  0  0  0  0
   -3.3931   -2.7791    0.9084 C   0  0  0  0  0  0  0  0  0  0  0  0
   -4.0610   -2.0740    1.4091 H   0  0  0  0  0  0  0  0  0  0  0  0
   -3.7158   -2.9027   -0.1281 H   0  0  0  0  0  0  0  0  0  0  0  0
   -1.9683   -2.2597    0.9494 C   0  0  0  0  0  0  0  0  0  0  0  0
   -1.1067   -2.8965    1.5346 O   0  0  0  0  0  0  0  0  0  0  0  0
   -1.6631   -1.0638    0.3325 N   0  0  0  0  0  0  0  0  0  0  0  0
   -2.4432   -0.5224   -0.0377 H   0  0  0  0  0  0  0  0  0  0  0  0
   -0.3609   -0.3795    0.3890 C   0  0  1  0  0  0  0  0  0  0  0  0
    0.2469   -0.7793    1.2081 H   0  0  0  0  0  0  0  0  0  0  0  0
    0.4034   -0.5498   -0.9360 C   0  0  0  0  0  0  0  0  0  0  0  0
   -0.2929   -0.3618   -1.7604 H   0  0  0  0  0  0  0  0  0  0  0  0
    1.1895    0.2092   -1.0175 H   0  0  0  0  0  0  0  0  0  0  0  0
    1.0013   -1.9668   -1.0956 C   0  0  0  0  0  0  0  0  0  0  0  0
    0.5210   -2.6781   -0.4222 H   0  0  0  0  0  0  0  0  0  0  0  0
    0.8059   -2.3047   -2.1168 H   0  0  0  0  0  0  0  0  0  0  0  0
    2.5114   -2.0247   -0.8730 C   0  0  0  0  0  0  0  0  0  0  0  0
    3.1320   -1.1623   -0.2770 O   0  0  0  0  0  0  0  0  0  0  0  0
    3.2479   -3.0928   -1.2980 N   0  0  0  0  0  0  0  0  0  0  0  0
    4.1924   -3.1477   -0.9283 H   0  0  0  0  0  0  0  0  0  0  0  0
    2.7590   -3.9401   -1.5665 H   0  0  0  0  0  0  0  0  0  0  0  0
   -0.5666    1.1239    0.6560 C   0  0  0  0  0  0  0  0  0  0  0  0
   -1.4748    1.7227    0.0897 O   0  0  0  0  0  0  0  0  0  0  0  0
    0.2137    1.7833    1.5863 N   0  0  0  0  0  0  0  0  0  0  0  0
    0.9735    1.2610    2.0161 H   0  0  0  0  0  0  0  0  0  0  0  0
    0.0566    3.1962    1.9072 C   0  0  0  0  0  0  0  0  0  0  0  0
   -0.9476    3.3903    2.2985 H   0  0  0  0  0  0  0  0  0  0  0  0
    0.7862    3.4948    2.6660 H   0  0  0  0  0  0  0  0  0  0  0  0
    0.2130    3.8120    1.0153 H   0  0  0  0  0  0  0  0  0  0  0  0
  1  2  1  0  0  0  0
  2  3  1  0  0  0  0
  2  4  1  0  0  0  0
  2  5  1  0  0  0  0
  5  6  2  0  0  0  0
  5  7  1  0  0  0  0
  7  8  1  0  0  0  0
  7  9  1  0  0  0  0
  9 10  1  0  0  0  0
  9 11  1  0  0  0  0
  9 22  1  0  0  0  0
 11 12  1  0  0  0  0
 11 13  1  0  0  0  0
 11 14  1  0  0  0  0
 14 15  1  0  0  0  0
 14 16  1  0  0  0  0
 14 17  1  0  0  0  0
 17 18  2  0  0  0  0
 17 19  1  0  0  0  0
 19 20  1  0  0  0  0
 19 21  1  0  0  0  0
 22 23  2  0  0  0  0
 22 24  1  0  0  0  0
 24 25  1  0  0  0  0
 24 26  1  0  0  0  0
 26 27  1  0  0  0  0
 26 28  1  0  0  0  0
 26 29  1  0  0  0  0
M  END
$$$$

  -OEChem-04042215583D

 29 28  0     1  0  0  0  0  0999 V2000
   -3.4195   -3.7561    1.4475 H   0  0  0  0  0  0  0  0  0  0  0  0
   -3.3694   -2.8065    0.9076 C   0  0  0  0  0  0  0  0  0  0  0  0
   -4.0266   -2.0864    1.4013 H   0  0  0  0  0  0  0  0  0  0  0  0
   -3.7166   -2.9642   -0.1163 H   0  0  0  0  0  0  0  0  0  0  0  0
   -1.9447   -2.2851    0.8975 C   0  0  0  0  0  0  0  0  0  0  0  0
   -1.0544   -2.9405    1.4163 O   0  0  0  0  0  0  0  0  0  0  0  0
   -1.6688   -1.0700    0.3045 N   0  0  0  0  0  0  0  0  0  0  0  0
   -2.4657   -0.5192   -0.0125 H   0  0  0  0  0  0  0  0  0  0  0  0
   -0.3715   -0.3759    0.3499 C   0  0  1  0  0  0  0  0  0  0  0  0
    0.2484   -0.7909    1.1521 H   0  0  0  0  0  0  0  0  0  0  0  0
    0.3838   -0.5114   -0.9842 C   0  0  0  0  0  0  0  0  0  0  0  0
   -0.3232   -0.3200   -1.7984 H   0  0  0  0  0  0  0  0  0  0  0  0
    1.1653    0.2531   -1.0629 H   0  0  0  0  0  0  0  0  0  0  0  0
    0.9923   -1.9180   -1.1668 C   0  0  0  0  0  0  0  0  0  0  0  0
    0.3571   -2.6847   -0.7211 H   0  0  0  0  0  0  0  0  0  0  0  0
    1.0498   -2.1285   -2.2380 H   0  0  0  0  0  0  0  0  0  0  0  0
    2.4092   -2.0386   -0.6067 C   0  0  0  0  0  0  0  0  0  0  0  0
    2.9717   -1.1389   -0.0065 O   0  0  0  0  0  0  0  0  0  0  0  0
    3.1092   -3.2060   -0.7065 N   0  0  0  0  0  0  0  0  0  0  0  0
    3.9376   -3.2657   -0.1218 H   0  0  0  0  0  0  0  0  0  0  0  0
    2.5972   -4.0501   -0.9403 H   0  0  0  0  0  0  0  0  0  0  0  0
   -0.5735    1.1187    0.6611 C   0  0  0  0  0  0  0  0  0  0  0  0
   -1.5012    1.7291    0.1406 O   0  0  0  0  0  0  0  0  0  0  0  0
    0.2305    1.7508    1.5903 N   0  0  0  0  0  0  0  0  0  0  0  0
    1.0182    1.2235    1.9604 H   0  0  0  0  0  0  0  0  0  0  0  0
    0.0975    3.1592    1.9388 C   0  0  0  0  0  0  0  0  0  0  0  0
   -0.9057    3.3650    2.3264 H   0  0  0  0  0  0  0  0  0  0  0  0
    0.8262    3.4278    2.7096 H   0  0  0  0  0  0  0  0  0  0  0  0
    0.2733    3.7890    1.0605 H   0  0  0  0  0  0  0  0  0  0  0  0
  1  2  1  0  0  0  0
  2  3  1  0  0  0  0
  2  4  1  0  0  0  0
  2  5  1  0  0  0  0
  5  6  2  0  0  0  0
  5  7  1  0  0  0  0
  7  8  1  0  0  0  0
  7  9  1  0  0  0  0
  9 10  1  0  0  0  0
  9 11  1  0  0  0  0
  9 22  1  0  0  0  0
 11 12  1  0  0  0  0
 11 13  1  0  0  0  0
 11 14  1  0  0  0  0
 14 15  1  0  0  0  0
 14 16  1  0  0  0  0
 14 17  1  0  0  0  0
 17 18  2  0  0  0  0
 17 19  1  0  0  0  0
 19 20  1  0  0  0  0
 19 21  1  0  0  0  0
 22 23  2  0  0  0  0
 22 24  1  0  0  0  0
 24 25  1  0  0  0  0
 24 26  1  0  0  0  0
 26 27  1  0  0  0  0
 26 28  1  0  0  0  0
 26 29  1  0  0  0  0
M  END
$$$$

  -OEChem-04042215583D

 29 28  0     1  0  0  0  0  0999 V2000
   -3.1594   -3.9722    1.2314 H   0  0  0  0  0  0  0  0  0  0  0  0
   -3.1894   -2.9488    0.8472 C   0  0  0  0  0  0  0  0  0  0  0  0
   -3.7969   -2.3374    1.5190 H   0  0  0  0  0  0  0  0  0  0  0  0
   -3.6515   -2.9580   -0.1430 H   0  0  0  0  0  0  0  0  0  0  0  0
   -1.7856   -2.3815    0.7590 C   0  0  0  0  0  0  0  0  0  0  0  0
   -0.8305   -3.0405    1.1515 O   0  0  0  0  0  0  0  0  0  0  0  0
   -1.5840   -1.1250    0.2234 N   0  0  0  0  0  0  0  0  0  0  0  0
   -2.4086   -0.5676    0.0009 H   0  0  0  0  0  0  0  0  0  0  0  0
   -0.2933   -0.4234    0.2526 C   0  0  1  0  0  0  0  0  0  0  0  0
    0.3687   -0.8694    1.0011 H   0  0  0  0  0  0  0  0  0  0  0  0
    0.3849   -0.4681   -1.1284 C   0  0  0  0  0  0  0  0  0  0  0  0
   -0.3511   -0.2115   -1.8979 H   0  0  0  0  0  0  0  0  0  0  0  0
    1.1847    0.2799   -1.1812 H   0  0  0  0  0  0  0  0  0  0  0  0
    0.9728   -1.8599   -1.4195 C   0  0  0  0  0  0  0  0  0  0  0  0
    0.2403   -2.6458   -1.2241 H   0  0  0  0  0  0  0  0  0  0  0  0
    1.2274   -1.9189   -2.4811 H   0  0  0  0  0  0  0  0  0  0  0  0
    2.2463   -2.1175   -0.6295 C   0  0  0  0  0  0  0  0  0  0  0  0
    3.2558   -1.4562   -0.7853 O   0  0  0  0  0  0  0  0  0  0  0  0
    2.2275   -2.9727    0.4346 N   0  0  0  0  0  0  0  0  0  0  0  0
    3.0116   -2.9079    1.0753 H   0  0  0  0  0  0  0  0  0  0  0  0
    1.3154   -3.2842    0.7747 H   0  0  0  0  0  0  0  0  0  0  0  0
   -0.5043    1.0453    0.6710 C   0  0  0  0  0  0  0  0  0  0  0  0
   -1.4643    1.6689    0.2327 O   0  0  0  0  0  0  0  0  0  0  0  0
    0.3277    1.6370    1.6028 N   0  0  0  0  0  0  0  0  0  0  0  0
    1.1212    1.0970    1.9377 H   0  0  0  0  0  0  0  0  0  0  0  0
    0.1681    3.0123    2.0589 C   0  0  0  0  0  0  0  0  0  0  0  0
   -0.8072    3.1464    2.5385 H   0  0  0  0  0  0  0  0  0  0  0  0
    0.9473    3.2623    2.7854 H   0  0  0  0  0  0  0  0  0  0  0  0
    0.2455    3.7072    1.2161 H   0  0  0  0  0  0  0  0  0  0  0  0
  1  2  1  0  0  0  0
  2  3  1  0  0  0  0
  2  4  1  0  0  0  0
  2  5  1  0  0  0  0
  5  6  2  0  0  0  0
  5  7  1  0  0  0  0
  7  8  1  0  0  0  0
  7  9  1  0  0  0  0
  9 10  1  0  0  0  0
  9 11  1  0  0  0  0
  9 22  1  0  0  0  0
 11 12  1  0  0  0  0
 11 13  1  0  0  0  0
 11 14  1  0  0  0  0
 14 15  1  0  0  0  0
 14 16  1  0  0  0  0
 14 17  1  0  0  0  0
 17 18  2  0  0  0  0
 17 19  1  0  0  0  0
 19 20  1  0  0  0  0
 19 21  1  0  0  0  0
 22 23  2  0  0  0  0
 22 24  1  0  0  0  0
 24 25  1  0  0  0  0
 24 26  1  0  0  0  0
 26 27  1  0  0  0  0
 26 28  1  0  0  0  0
 26 29  1  0  0  0  0
M  END
$$$$

  -OEChem-04042215583D

 29 28  0     1  0  0  0  0  0999 V2000
   -3.2014   -3.9342    1.2809 H   0  0  0  0  0  0  0  0  0  0  0  0
   -3.1981   -2.9384    0.8289 C   0  0  0  0  0  0  0  0  0  0  0  0
   -3.8356   -2.2799    1.4242 H   0  0  0  0  0  0  0  0  0  0  0  0
   -3.6040   -3.0092   -0.1832 H   0  0  0  0  0  0  0  0  0  0  0  0
   -1.7851   -2.3886    0.7827 C   0  0  0  0  0  0  0  0  0  0  0  0
   -0.8540   -3.0627    1.1973 O   0  0  0  0  0  0  0  0  0  0  0  0
   -1.5556   -1.1396    0.2453 N   0  0  0  0  0  0  0  0  0  0  0  0
   -2.3773   -0.5906   -0.0069 H   0  0  0  0  0  0  0  0  0  0  0  0
   -0.2784   -0.4098    0.2898 C   0  0  1  0  0  0  0  0  0  0  0  0
    0.3721   -0.8340    1.0607 H   0  0  0  0  0  0  0  0  0  0  0  0
    0.4102   -0.4831   -1.0870 C   0  0  0  0  0  0  0  0  0  0  0  0
   -0.3167   -0.2413   -1.8698 H   0  0  0  0  0  0  0  0  0  0  0  0
    1.2008    0.2748   -1.1337 H   0  0  0  0  0  0  0  0  0  0  0  0
    1.0442   -1.8566   -1.3774 C   0  0  0  0  0  0  0  0  0  0  0  0
    0.2695   -2.6277   -1.3874 H   0  0  0  0  0  0  0  0  0  0  0  0
    1.5046   -1.8420   -2.3689 H   0  0  0  0  0  0  0  0  0  0  0  0
    2.1143   -2.2318   -0.3565 C   0  0  0  0  0  0  0  0  0  0  0  0
    3.1098   -1.5481   -0.2029 O   0  0  0  0  0  0  0  0  0  0  0  0
    1.9466   -3.2494    0.5351 N   0  0  0  0  0  0  0  0  0  0  0  0
    2.6016   -3.2469    1.3098 H   0  0  0  0  0  0  0  0  0  0  0  0
    0.9819   -3.5375    0.7136 H   0  0  0  0  0  0  0  0  0  0  0  0
   -0.5189    1.0617    0.6783 C   0  0  0  0  0  0  0  0  0  0  0  0
   -1.4848    1.6592    0.2171 O   0  0  0  0  0  0  0  0  0  0  0  0
    0.2864    1.6803    1.6156 N   0  0  0  0  0  0  0  0  0  0  0  0
    1.0916    1.1630    1.9600 H   0  0  0  0  0  0  0  0  0  0  0  0
    0.0914    3.0562    2.0549 C   0  0  0  0  0  0  0  0  0  0  0  0
   -0.9099    3.1846    2.4793 H   0  0  0  0  0  0  0  0  0  0  0  0
    0.8269    3.3156    2.8224 H   0  0  0  0  0  0  0  0  0  0  0  0
    0.2091    3.7471    1.2136 H   0  0  0  0  0  0  0  0  0  0  0  0
  1  2  1  0  0  0  0
  2  3  1  0  0  0  0
  2  4  1  0  0  0  0
  2  5  1  0  0  0  0
  5  6  2  0  0  0  0
  5  7  1  0  0  0  0
  7  8  1  0  0  0  0
  7  9  1  0  0  0  0
  9 10  1  0  0  0  0
  9 11  1  0  0  0  0
  9 22  1  0  0  0  0
 11 12  1  0  0  0  0
 11 13  1  0  0  0  0
 11 14  1  0  0  0  0
 14 15  1  0  0  0  0
 14 16  1  0  0  0  0
 14 17  1  0  0  0  0
 17 18  2  0  0  0  0
 17 19  1  0  0  0  0
 19 20  1  0  0  0  0
 19 21  1  0  0  0  0
 22 23  2  0  0  0  0
 22 24  1  0  0  0  0
 24 25  1  0  0  0  0
 24 26  1  0  0  0  0
 26 27  1  0  0  0  0
 26 28  1  0  0  0  0
 26 29  1  0  0  0  0
M  END
$$$$

  -OEChem-04042215583D

 29 28  0     1  0  0  0  0  0999 V2000
   -3.2821   -3.8755    1.3252 H   0  0  0  0  0  0  0  0  0  0  0  0
   -3.2388   -2.8991    0.8344 C   0  0  0  0  0  0  0  0  0  0  0  0
   -3.8933   -2.2074    1.3706 H   0  0  0  0  0  0  0  0  0  0  0  0
   -3.5959   -3.0046   -0.1929 H   0  0  0  0  0  0  0  0  0  0  0  0
   -1.8160   -2.3731    0.8374 C   0  0  0  0  0  0  0  0  0  0  0  0
   -0.9212   -3.0537    1.3091 O   0  0  0  0  0  0  0  0  0  0  0  0
   -1.5482   -1.1403    0.2829 N   0  0  0  0  0  0  0  0  0  0  0  0
   -2.3586   -0.6016   -0.0223 H   0  0  0  0  0  0  0  0  0  0  0  0
   -0.2807   -0.3918    0.3485 C   0  0  1  0  0  0  0  0  0  0  0  0
    0.3473   -0.7880    1.1523 H   0  0  0  0  0  0  0  0  0  0  0  0
    0.4420   -0.4987   -1.0113 C   0  0  0  0  0  0  0  0  0  0  0  0
   -0.2607   -0.2641   -1.8180 H   0  0  0  0  0  0  0  0  0  0  0  0
    1.2259    0.2668   -1.0353 H   0  0  0  0  0  0  0  0  0  0  0  0
    1.1228   -1.8529   -1.3011 C   0  0  0  0  0  0  0  0  0  0  0  0
    0.3520   -2.5861   -1.5528 H   0  0  0  0  0  0  0  0  0  0  0  0
    1.7810   -1.7558   -2.1686 H   0  0  0  0  0  0  0  0  0  0  0  0
    1.9330   -2.3970   -0.1255 C   0  0  0  0  0  0  0  0  0  0  0  0
    2.8286   -1.7354    0.3687 O   0  0  0  0  0  0  0  0  0  0  0  0
    1.7128   -3.6148    0.4440 N   0  0  0  0  0  0  0  0  0  0  0  0
    2.2241   -3.7460    1.3106 H   0  0  0  0  0  0  0  0  0  0  0  0
    0.7392   -3.9177    0.4332 H   0  0  0  0  0  0  0  0  0  0  0  0
   -0.5462    1.0882    0.6822 C   0  0  0  0  0  0  0  0  0  0  0  0
   -1.4928    1.6657    0.1595 O   0  0  0  0  0  0  0  0  0  0  0  0
    0.2224    1.7421    1.6262 N   0  0  0  0  0  0  0  0  0  0  0  0
    1.0062    1.2333    2.0288 H   0  0  0  0  0  0  0  0  0  0  0  0
    0.0098    3.1322    2.0092 C   0  0  0  0  0  0  0  0  0  0  0  0
   -1.0033    3.2711    2.4010 H   0  0  0  0  0  0  0  0  0  0  0  0
    0.7230    3.4233    2.7863 H   0  0  0  0  0  0  0  0  0  0  0  0
    0.1484    3.7926    1.1467 H   0  0  0  0  0  0  0  0  0  0  0  0
  1  2  1  0  0  0  0
  2  3  1  0  0  0  0
  2  4  1  0  0  0  0
  2  5  1  0  0  0  0
  5  6  2  0  0  0  0
  5  7  1  0  0  0  0
  7  8  1  0  0  0  0
  7  9  1  0  0  0  0
  9 10  1  0  0  0  0
  9 11  1  0  0  0  0
  9 22  1  0  0  0  0
 11 12  1  0  0  0  0
 11 13  1  0  0  0  0
 11 14  1  0  0  0  0
 14 15  1  0  0  0  0
 14 16  1  0  0  0  0
 14 17  1  0  0  0  0
 17 18  2  0  0  0  0
 17 19  1  0  0  0  0
 19 20  1  0  0  0  0
 19 21  1  0  0  0  0
 22 23  2  0  0  0  0
 22 24  1  0  0  0  0
 24 25  1  0  0  0  0
 24 26  1  0  0  0  0
 26 27  1  0  0  0  0
 26 28  1  0  0  0  0
 26 29  1  0  0  0  0
M  END
$$$$

  -OEChem-04042215583D

 29 28  0     1  0  0  0  0  0999 V2000
   -3.3446   -3.8136    1.3751 H   0  0  0  0  0  0  0  0  0  0  0  0
   -3.2685   -2.8590    0.8471 C   0  0  0  0  0  0  0  0  0  0  0  0
   -3.9657   -2.1499    1.3003 H   0  0  0  0  0  0  0  0  0  0  0  0
   -3.5444   -3.0119   -0.1989 H   0  0  0  0  0  0  0  0  0  0  0  0
   -1.8529   -2.3208    0.9378 C   0  0  0  0  0  0  0  0  0  0  0  0
   -1.0061   -2.9523    1.5443 O   0  0  0  0  0  0  0  0  0  0  0  0
   -1.5496   -1.1182    0.3370 N   0  0  0  0  0  0  0  0  0  0  0  0
   -2.3354   -0.6034   -0.0591 H   0  0  0  0  0  0  0  0  0  0  0  0
   -0.2808   -0.3744    0.4208 C   0  0  1  0  0  0  0  0  0  0  0  0
    0.3181   -0.7365    1.2619 H   0  0  0  0  0  0  0  0  0  0  0  0
    0.4866   -0.5206   -0.9144 C   0  0  0  0  0  0  0  0  0  0  0  0
   -0.1842   -0.2839   -1.7475 H   0  0  0  0  0  0  0  0  0  0  0  0
    1.2738    0.2416   -0.9138 H   0  0  0  0  0  0  0  0  0  0  0  0
    1.1900   -1.8689   -1.1957 C   0  0  0  0  0  0  0  0  0  0  0  0
    0.4762   -2.5193   -1.7080 H   0  0  0  0  0  0  0  0  0  0  0  0
    2.0313   -1.7091   -1.8756 H   0  0  0  0  0  0  0  0  0  0  0  0
    1.6898   -2.6215    0.0346 C   0  0  0  0  0  0  0  0  0  0  0  0
    2.4566   -2.0872    0.8167 O   0  0  0  0  0  0  0  0  0  0  0  0
    1.4320   -3.9437    0.2501 N   0  0  0  0  0  0  0  0  0  0  0  0
    1.6652   -4.2428    1.1924 H   0  0  0  0  0  0  0  0  0  0  0  0
    0.5705   -4.2959   -0.1517 H   0  0  0  0  0  0  0  0  0  0  0  0
   -0.5603    1.1195    0.6721 C   0  0  0  0  0  0  0  0  0  0  0  0
   -1.4680    1.6781    0.0656 O   0  0  0  0  0  0  0  0  0  0  0  0
    0.1674    1.8163    1.6176 N   0  0  0  0  0  0  0  0  0  0  0  0
    0.8993    1.3115    2.1125 H   0  0  0  0  0  0  0  0  0  0  0  0
   -0.0685    3.2176    1.9406 C   0  0  0  0  0  0  0  0  0  0  0  0
   -1.0960    3.3632    2.2901 H   0  0  0  0  0  0  0  0  0  0  0  0
    0.6142    3.5428    2.7316 H   0  0  0  0  0  0  0  0  0  0  0  0
    0.0977    3.8465    1.0597 H   0  0  0  0  0  0  0  0  0  0  0  0
  1  2  1  0  0  0  0
  2  3  1  0  0  0  0
  2  4  1  0  0  0  0
  2  5  1  0  0  0  0
  5  6  2  0  0  0  0
  5  7  1  0  0  0  0
  7  8  1  0  0  0  0
  7  9  1  0  0  0  0
  9 10  1  0  0  0  0
  9 11  1  0  0  0  0
  9 22  1  0  0  0  0
 11 12  1  0  0  0  0
 11 13  1  0  0  0  0
 11 14  1  0  0  0  0
 14 15  1  0  0  0  0
 14 16  1  0  0  0  0
 14 17  1  0  0  0  0
 17 18  2  0  0  0  0
 17 19  1  0  0  0  0
 19 20  1  0  0  0  0
 19 21  1  0  0  0  0
 22 23  2  0  0  0  0
 22 24  1  0  0  0  0
 24 25  1  0  0  0  0
 24 26  1  0  0  0  0
 26 27  1  0  0  0  0
 26 28  1  0  0  0  0
 26 29  1  0  0  0  0
M  END
$$$$

  -OEChem-04042215583D

 29 28  0     1  0  0  0  0  0999 V2000
   -3.3726   -3.8119    1.3853 H   0  0  0  0  0  0  0  0  0  0  0  0
   -3.2732   -2.8672    0.8432 C   0  0  0  0  0  0  0  0  0  0  0  0
   -4.0147   -2.1621    1.2272 H   0  0  0  0  0  0  0  0  0  0  0  0
   -3.4670   -3.0474   -0.2169 H   0  0  0  0  0  0  0  0  0  0  0  0
   -1.8779   -2.3012    1.0290 C   0  0  0  0  0  0  0  0  0  0  0  0
   -1.0989   -2.8635    1.7769 O   0  0  0  0  0  0  0  0  0  0  0  0
   -1.5380   -1.1261    0.3931 N   0  0  0  0  0  0  0  0  0  0  0  0
   -2.2919   -0.6459   -0.0969 H   0  0  0  0  0  0  0  0  0  0  0  0
   -0.2651   -0.3885    0.4844 C   0  0  1  0  0  0  0  0  0  0  0  0
    0.3211   -0.7293    1.3441 H   0  0  0  0  0  0  0  0  0  0  0  0
    0.5377   -0.5454   -0.8329 C   0  0  0  0  0  0  0  0  0  0  0  0
   -0.1190   -0.3095   -1.6774 H   0  0  0  0  0  0  0  0  0  0  0  0
    1.3183    0.2236   -0.8191 H   0  0  0  0  0  0  0  0  0  0  0  0
    1.2631   -1.8813   -1.1259 C   0  0  0  0  0  0  0  0  0  0  0  0
    0.6907   -2.4147   -1.8895 H   0  0  0  0  0  0  0  0  0  0  0  0
    2.2481   -1.6716   -1.5526 H   0  0  0  0  0  0  0  0  0  0  0  0
    1.4468   -2.8304    0.0507 C   0  0  0  0  0  0  0  0  0  0  0  0
    2.1687   -2.5194    0.9807 O   0  0  0  0  0  0  0  0  0  0  0  0
    0.9462   -4.1002    0.0569 N   0  0  0  0  0  0  0  0  0  0  0  0
    0.9206   -4.5105    0.9872 H   0  0  0  0  0  0  0  0  0  0  0  0
    0.1713   -4.2867   -0.5673 H   0  0  0  0  0  0  0  0  0  0  0  0
   -0.5555    1.1138    0.6693 C   0  0  0  0  0  0  0  0  0  0  0  0
   -1.4291    1.6529   -0.0018 O   0  0  0  0  0  0  0  0  0  0  0  0
    0.1417    1.8487    1.6088 N   0  0  0  0  0  0  0  0  0  0  0  0
    0.8222    1.3538    2.1805 H   0  0  0  0  0  0  0  0  0  0  0  0
   -0.1129    3.2589    1.8745 C   0  0  0  0  0  0  0  0  0  0  0  0
   -1.1462    3.4061    2.2061 H   0  0  0  0  0  0  0  0  0  0  0  0
    0.5573    3.6223    2.6596 H   0  0  0  0  0  0  0  0  0  0  0  0
    0.0567    3.8556    0.9720 H   0  0  0  0  0  0  0  0  0  0  0  0
  1  2  1  0  0  0  0
  2  3  1  0  0  0  0
  2  4  1  0  0  0  0
  2  5  1  0  0  0  0
  5  6  2  0  0  0  0
  5  7  1  0  0  0  0
  7  8  1  0  0  0  0
  7  9  1  0  0  0  0
  9 10  1  0  0  0  0
  9 11  1  0  0  0  0
  9 22  1  0  0  0  0
 11 12  1  0  0  0  0
 11 13  1  0  0  0  0
 11 14  1  0  0  0  0
 14 15  1  0  0  0  0
 14 16  1  0  0  0  0
 14 17  1  0  0  0  0
 17 18  2  0  0  0  0
 17 19  1  0  0  0  0
 19 20  1  0  0  0  0
 19 21  1  0  0  0  0
 22 23  2  0  0  0  0
 22 24  1  0  0  0  0
 24 25  1  0  0  0  0
 24 26  1  0  0  0  0
 26 27  1  0  0  0  0
 26 28  1  0  0  0  0
 26 29  1  0  0  0  0
M  END
$$$$

  -OEChem-04042215583D

 29 28  0     1  0  0  0  0  0999 V2000
   -3.3060   -3.9060    1.3886 H   0  0  0  0  0  0  0  0  0  0  0  0
   -3.2189   -2.9644    0.8392 C   0  0  0  0  0  0  0  0  0  0  0  0
   -4.0113   -2.2893    1.1716 H   0  0  0  0  0  0  0  0  0  0  0  0
   -3.3447   -3.1662   -0.2273 H   0  0  0  0  0  0  0  0  0  0  0  0
   -1.8628   -2.3339    1.0934 C   0  0  0  0  0  0  0  0  0  0  0  0
   -1.1174   -2.8298    1.9179 O   0  0  0  0  0  0  0  0  0  0  0  0
   -1.5297   -1.1665    0.4396 N   0  0  0  0  0  0  0  0  0  0  0  0
   -2.2721   -0.7294   -0.1047 H   0  0  0  0  0  0  0  0  0  0  0  0
   -0.2702   -0.4046    0.5326 C   0  0  1  0  0  0  0  0  0  0  0  0
    0.3193   -0.7283    1.3977 H   0  0  0  0  0  0  0  0  0  0  0  0
    0.5612   -0.5403   -0.7718 C   0  0  0  0  0  0  0  0  0  0  0  0
   -0.1048   -0.3364   -1.6177 H   0  0  0  0  0  0  0  0  0  0  0  0
    1.3091    0.2608   -0.7665 H   0  0  0  0  0  0  0  0  0  0  0  0
    1.3334   -1.8485   -1.0730 C   0  0  0  0  0  0  0  0  0  0  0  0
    0.9816   -2.2436   -2.0297 H   0  0  0  0  0  0  0  0  0  0  0  0
    2.3928   -1.6067   -1.2022 H   0  0  0  0  0  0  0  0  0  0  0  0
    1.2461   -2.9673   -0.0476 C   0  0  0  0  0  0  0  0  0  0  0  0
    1.9540   -2.9412    0.9414 O   0  0  0  0  0  0  0  0  0  0  0  0
    0.5116   -4.0996   -0.2540 N   0  0  0  0  0  0  0  0  0  0  0  0
    0.3505   -4.6342    0.5966 H   0  0  0  0  0  0  0  0  0  0  0  0
   -0.2172   -4.0621   -0.9553 H   0  0  0  0  0  0  0  0  0  0  0  0
   -0.5985    1.0944    0.6837 C   0  0  0  0  0  0  0  0  0  0  0  0
   -1.4617    1.6038   -0.0231 O   0  0  0  0  0  0  0  0  0  0  0  0
    0.0673    1.8650    1.6176 N   0  0  0  0  0  0  0  0  0  0  0  0
    0.7299    1.3931    2.2281 H   0  0  0  0  0  0  0  0  0  0  0  0
   -0.2252    3.2742    1.8483 C   0  0  0  0  0  0  0  0  0  0  0  0
   -1.2655    3.4028    2.1649 H   0  0  0  0  0  0  0  0  0  0  0  0
    0.4266    3.6722    2.6320 H   0  0  0  0  0  0  0  0  0  0  0  0
   -0.0601    3.8544    0.9345 H   0  0  0  0  0  0  0  0  0  0  0  0
  1  2  1  0  0  0  0
  2  3  1  0  0  0  0
  2  4  1  0  0  0  0
  2  5  1  0  0  0  0
  5  6  2  0  0  0  0
  5  7  1  0  0  0  0
  7  8  1  0  0  0  0
  7  9  1  0  0  0  0
  9 10  1  0  0  0  0
  9 11  1  0  0  0  0
  9 22  1  0  0  0  0
 11 12  1  0  0  0  0
 11 13  1  0  0  0  0
 11 14  1  0  0  0  0
 14 15  1  0  0  0  0
 14 16  1  0  0  0  0
 14 17  1  0  0  0  0
 17 18  2  0  0  0  0
 17 19  1  0  0  0  0
 19 20  1  0  0  0  0
 19 21  1  0  0  0  0
 22 23  2  0  0  0  0
 22 24  1  0  0  0  0
 24 25  1  0  0  0  0
 24 26  1  0  0  0  0
 26 27  1  0  0  0  0
 26 28  1  0  0  0  0
 26 29  1  0  0  0  0
M  END
$$$$

  -OEChem-04042215583D

 29 28  0     1  0  0  0  0  0999 V2000
   -3.3250   -4.0630    1.1497 H   0  0  0  0  0  0  0  0  0  0  0  0
   -3.2544   -3.1226    0.5962 C   0  0  0  0  0  0  0  0  0  0  0  0
   -4.1199   -2.5020    0.8400 H   0  0  0  0  0  0  0  0  0  0  0  0
   -3.2603   -3.3445   -0.4742 H   0  0  0  0  0  0  0  0  0  0  0  0
   -1.9737   -2.3969    0.9596 C   0  0  0  0  0  0  0  0  0  0  0  0
   -1.2122   -2.8692    1.7930 O   0  0  0  0  0  0  0  0  0  0  0  0
   -1.7028   -1.1584    0.4119 N   0  0  0  0  0  0  0  0  0  0  0  0
   -2.4048   -0.7701   -0.2148 H   0  0  0  0  0  0  0  0  0  0  0  0
   -0.4041   -0.4696    0.4791 C   0  0  1  0  0  0  0  0  0  0  0  0
    0.2547   -0.9252    1.2245 H   0  0  0  0  0  0  0  0  0  0  0  0
    0.2909   -0.4357   -0.9097 C   0  0  0  0  0  0  0  0  0  0  0  0
   -0.4602   -0.1076   -1.6378 H   0  0  0  0  0  0  0  0  0  0  0  0
    1.0649    0.3397   -0.8920 H   0  0  0  0  0  0  0  0  0  0  0  0
    0.9503   -1.7196   -1.4732 C   0  0  0  0  0  0  0  0  0  0  0  0
    0.7157   -1.7956   -2.5393 H   0  0  0  0  0  0  0  0  0  0  0  0
    2.0354   -1.6091   -1.3965 H   0  0  0  0  0  0  0  0  0  0  0  0
    0.5900   -3.0420   -0.8134 C   0  0  0  0  0  0  0  0  0  0  0  0
   -0.2950   -3.7438   -1.2683 O   0  0  0  0  0  0  0  0  0  0  0  0
    1.2634   -3.5239    0.2718 N   0  0  0  0  0  0  0  0  0  0  0  0
    1.8168   -2.8628    0.8026 H   0  0  0  0  0  0  0  0  0  0  0  0
    0.7429   -4.2320    0.7854 H   0  0  0  0  0  0  0  0  0  0  0  0
   -0.6438    1.0081    0.8595 C   0  0  0  0  0  0  0  0  0  0  0  0
   -1.4892    1.6684    0.2665 O   0  0  0  0  0  0  0  0  0  0  0  0
    0.1436    1.6173    1.8192 N   0  0  0  0  0  0  0  0  0  0  0  0
    0.7673    1.0232    2.3577 H   0  0  0  0  0  0  0  0  0  0  0  0
   -0.0451    3.0002    2.2416 C   0  0  0  0  0  0  0  0  0  0  0  0
   -1.0424    3.1364    2.6728 H   0  0  0  0  0  0  0  0  0  0  0  0
    0.6991    3.2700    2.9972 H   0  0  0  0  0  0  0  0  0  0  0  0
    0.0665    3.6801    1.3904 H   0  0  0  0  0  0  0  0  0  0  0  0
  1  2  1  0  0  0  0
  2  3  1  0  0  0  0
  2  4  1  0  0  0  0
  2  5  1  0  0  0  0
  5  6  2  0  0  0  0
  5  7  1  0  0  0  0
  7  8  1  0  0  0  0
  7  9  1  0  0  0  0
  9 10  1  0  0  0  0
  9 11  1  0  0  0  0
  9 22  1  0  0  0  0
 11 12  1  0  0  0  0
 11 13  1  0  0  0  0
 11 14  1  0  0  0  0
 14 15  1  0  0  0  0
 14 16  1  0  0  0  0
 14 17  1  0  0  0  0
 17 18  2  0  0  0  0
 17 19  1  0  0  0  0
 19 20  1  0  0  0  0
 19 21  1  0  0  0  0
 22 23  2  0  0  0  0
 22 24  1  0  0  0  0
 24 25  1  0  0  0  0
 24 26  1  0  0  0  0
 26 27  1  0  0  0  0
 26 28  1  0  0  0  0
 26 29  1  0  0  0  0
M  END
$$$$

  -OEChem-04042215583D

 29 28  0     1  0  0  0  0  0999 V2000
   -3.3277   -3.9551    1.4696 H   0  0  0  0  0  0  0  0  0  0  0  0
   -3.2813   -3.0310    0.8871 C   0  0  0  0  0  0  0  0  0  0  0  0
   -4.0931   -2.3719    1.2035 H   0  0  0  0  0  0  0  0  0  0  0  0
   -3.4092   -3.2755   -0.1708 H   0  0  0  0  0  0  0  0  0  0  0  0
   -1.9439   -2.3473    1.0958 C   0  0  0  0  0  0  0  0  0  0  0  0
   -1.1044   -2.8478    1.8321 O   0  0  0  0  0  0  0  0  0  0  0  0
   -1.6951   -1.1247    0.5051 N   0  0  0  0  0  0  0  0  0  0  0  0
   -2.4453   -0.7262   -0.0563 H   0  0  0  0  0  0  0  0  0  0  0  0
   -0.3857   -0.4553    0.4493 C   0  0  1  0  0  0  0  0  0  0  0  0
    0.3210   -0.9083    1.1514 H   0  0  0  0  0  0  0  0  0  0  0  0
    0.2135   -0.4594   -0.9838 C   0  0  0  0  0  0  0  0  0  0  0  0
   -0.5876   -0.1473   -1.6640 H   0  0  0  0  0  0  0  0  0  0  0  0
    0.9923    0.3089   -1.0436 H   0  0  0  0  0  0  0  0  0  0  0  0
    0.8175   -1.7641   -1.5572 C   0  0  0  0  0  0  0  0  0  0  0  0
    0.7489   -1.7357   -2.6485 H   0  0  0  0  0  0  0  0  0  0  0  0
    1.8814   -1.7827   -1.3058 H   0  0  0  0  0  0  0  0  0  0  0  0
    0.2226   -3.0799   -1.0774 C   0  0  0  0  0  0  0  0  0  0  0  0
   -0.8207   -3.5039   -1.5413 O   0  0  0  0  0  0  0  0  0  0  0  0
    0.8475   -3.8652   -0.1522 N   0  0  0  0  0  0  0  0  0  0  0  0
    1.5379   -3.4150    0.4372 H   0  0  0  0  0  0  0  0  0  0  0  0
    0.2335   -4.5521    0.2778 H   0  0  0  0  0  0  0  0  0  0  0  0
   -0.5728    1.0323    0.8188 C   0  0  0  0  0  0  0  0  0  0  0  0
   -1.4620    1.6918    0.2928 O   0  0  0  0  0  0  0  0  0  0  0  0
    0.3003    1.6480    1.6967 N   0  0  0  0  0  0  0  0  0  0  0  0
    0.9688    1.0579    2.1837 H   0  0  0  0  0  0  0  0  0  0  0  0
    0.1631    3.0401    2.1075 C   0  0  0  0  0  0  0  0  0  0  0  0
   -0.8000    3.1999    2.6036 H   0  0  0  0  0  0  0  0  0  0  0  0
    0.9615    3.3093    2.8056 H   0  0  0  0  0  0  0  0  0  0  0  0
    0.2265    3.7039    1.2388 H   0  0  0  0  0  0  0  0  0  0  0  0
  1  2  1  0  0  0  0
  2  3  1  0  0  0  0
  2  4  1  0  0  0  0
  2  5  1  0  0  0  0
  5  6  2  0  0  0  0
  5  7  1  0  0  0  0
  7  8  1  0  0  0  0
  7  9  1  0  0  0  0
  9 10  1  0  0  0  0
  9 11  1  0  0  0  0
  9 22  1  0  0  0  0
 11 12  1  0  0  0  0
 11 13  1  0  0  0  0
 11 14  1  0  0  0  0
 14 15  1  0  0  0  0
 14 16  1  0  0  0  0
 14 17  1  0  0  0  0
 17 18  2  0  0  0  0
 17 19  1  0  0  0  0
 19 20  1  0  0  0  0
 19 21  1  0  0  0  0
 22 23  2  0  0  0  0
 22 24  1  0  0  0  0
 24 25  1  0  0  0  0
 24 26  1  0  0  0  0
 26 27  1  0  0  0  0
 26 28  1  0  0  0  0
 26 29  1  0  0  0  0
M  END
$$$$

  -OEChem-04042215583D

 29 28  0     1  0  0  0  0  0999 V2000
   -3.4395   -3.8147    1.4300 H   0  0  0  0  0  0  0  0  0  0  0  0
   -3.3590   -2.8903    0.8519 C   0  0  0  0  0  0  0  0  0  0  0  0
   -4.1397   -2.1997    1.1788 H   0  0  0  0  0  0  0  0  0  0  0  0
   -3.5065   -3.1226   -0.2061 H   0  0  0  0  0  0  0  0  0  0  0  0
   -1.9928   -2.2635    1.0529 C   0  0  0  0  0  0  0  0  0  0  0  0
   -1.1738   -2.7956    1.7902 O   0  0  0  0  0  0  0  0  0  0  0  0
   -1.6849   -1.0714    0.4300 N   0  0  0  0  0  0  0  0  0  0  0  0
   -2.4073   -0.6575   -0.1567 H   0  0  0  0  0  0  0  0  0  0  0  0
   -0.3582   -0.4376    0.4121 C   0  0  1  0  0  0  0  0  0  0  0  0
    0.2961   -0.8774    1.1712 H   0  0  0  0  0  0  0  0  0  0  0  0
    0.3217   -0.5319   -0.9791 C   0  0  0  0  0  0  0  0  0  0  0  0
   -0.4222   -0.2360   -1.7280 H   0  0  0  0  0  0  0  0  0  0  0  0
    1.1308    0.2049   -1.0274 H   0  0  0  0  0  0  0  0  0  0  0  0
    0.9142   -1.8904   -1.4188 C   0  0  0  0  0  0  0  0  0  0  0  0
    1.1538   -1.8438   -2.4849 H   0  0  0  0  0  0  0  0  0  0  0  0
    1.8553   -2.0393   -0.8829 H   0  0  0  0  0  0  0  0  0  0  0  0
    0.0501   -3.1228   -1.1830 C   0  0  0  0  0  0  0  0  0  0  0  0
   -1.0093   -3.2768   -1.7643 O   0  0  0  0  0  0  0  0  0  0  0  0
    0.4397   -4.1367   -0.3564 N   0  0  0  0  0  0  0  0  0  0  0  0
   -0.3081   -4.7805   -0.1157 H   0  0  0  0  0  0  0  0  0  0  0  0
    1.1126   -3.9011    0.3649 H   0  0  0  0  0  0  0  0  0  0  0  0
   -0.5200    1.0676    0.7149 C   0  0  0  0  0  0  0  0  0  0  0  0
   -1.3745    1.7260    0.1332 O   0  0  0  0  0  0  0  0  0  0  0  0
    0.3278    1.6948    1.6092 N   0  0  0  0  0  0  0  0  0  0  0  0
    0.9717    1.1099    2.1339 H   0  0  0  0  0  0  0  0  0  0  0  0
    0.2074    3.1033    1.9665 C   0  0  0  0  0  0  0  0  0  0  0  0
   -0.7743    3.3045    2.4078 H   0  0  0  0  0  0  0  0  0  0  0  0
    0.9768    3.3756    2.6952 H   0  0  0  0  0  0  0  0  0  0  0  0
    0.3319    3.7357    1.0812 H   0  0  0  0  0  0  0  0  0  0  0  0
  1  2  1  0  0  0  0
  2  3  1  0  0  0  0
  2  4  1  0  0  0  0
  2  5  1  0  0  0  0
  5  6  2  0  0  0  0
  5  7  1  0  0  0  0
  7  8  1  0  0  0  0
  7  9  1  0  0  0  0
  9 10  1  0  0  0  0
  9 11  1  0  0  0  0
  9 22  1  0  0  0  0
 11 12  1  0  0  0  0
 11 13  1  0  0  0  0
 11 14  1  0  0  0  0
 14 15  1  0  0  0  0
 14 16  1  0  0  0  0
 14 17  1  0  0  0  0
 17 18  2  0  0  0  0
 17 19  1  0  0  0  0
 19 20  1  0  0  0  0
 19 21  1  0  0  0  0
 22 23  2  0  0  0  0
 22 24  1  0  0  0  0
 24 25  1  0  0  0  0
 24 26  1  0  0  0  0
 26 27  1  0  0  0  0
 26 28  1  0  0  0  0
 26 29  1  0  0  0  0
M  END
$$$$

  -OEChem-04042215583D

 29 28  0     1  0  0  0  0  0999 V2000
   -3.3109   -3.8803    1.4127 H   0  0  0  0  0  0  0  0  0  0  0  0
   -3.2694   -2.9411    0.8546 C   0  0  0  0  0  0  0  0  0  0  0  0
   -4.0428   -2.2698    1.2353 H   0  0  0  0  0  0  0  0  0  0  0  0
   -3.4630   -3.1481   -0.2012 H   0  0  0  0  0  0  0  0  0  0  0  0
   -1.9045   -2.2988    1.0082 C   0  0  0  0  0  0  0  0  0  0  0  0
   -1.0320   -2.8557    1.6613 O   0  0  0  0  0  0  0  0  0  0  0  0
   -1.6459   -1.0857    0.4047 N   0  0  0  0  0  0  0  0  0  0  0  0
   -2.4002   -0.6643   -0.1354 H   0  0  0  0  0  0  0  0  0  0  0  0
   -0.3405   -0.4117    0.3791 C   0  0  1  0  0  0  0  0  0  0  0  0
    0.3326   -0.8440    1.1260 H   0  0  0  0  0  0  0  0  0  0  0  0
    0.3198   -0.4964   -1.0183 C   0  0  0  0  0  0  0  0  0  0  0  0
   -0.4243   -0.2149   -1.7727 H   0  0  0  0  0  0  0  0  0  0  0  0
    1.1242    0.2453   -1.0703 H   0  0  0  0  0  0  0  0  0  0  0  0
    0.9265   -1.8619   -1.4075 C   0  0  0  0  0  0  0  0  0  0  0  0
    1.3807   -1.7773   -2.3986 H   0  0  0  0  0  0  0  0  0  0  0  0
    1.7250   -2.1032   -0.7009 H   0  0  0  0  0  0  0  0  0  0  0  0
   -0.0533   -3.0307   -1.4445 C   0  0  0  0  0  0  0  0  0  0  0  0
   -1.0840   -2.9878   -2.0922 O   0  0  0  0  0  0  0  0  0  0  0  0
    0.1825   -4.1971   -0.7760 N   0  0  0  0  0  0  0  0  0  0  0  0
   -0.6207   -4.8156   -0.7267 H   0  0  0  0  0  0  0  0  0  0  0  0
    0.7905   -4.1377    0.0350 H   0  0  0  0  0  0  0  0  0  0  0  0
   -0.5282    1.0834    0.7121 C   0  0  0  0  0  0  0  0  0  0  0  0
   -1.4148    1.7306    0.1675 O   0  0  0  0  0  0  0  0  0  0  0  0
    0.3216    1.7131    1.6030 N   0  0  0  0  0  0  0  0  0  0  0  0
    0.9970    1.1359    2.0957 H   0  0  0  0  0  0  0  0  0  0  0  0
    0.1770    3.1116    1.9890 C   0  0  0  0  0  0  0  0  0  0  0  0
   -0.8036    3.2836    2.4454 H   0  0  0  0  0  0  0  0  0  0  0  0
    0.9493    3.3859    2.7141 H   0  0  0  0  0  0  0  0  0  0  0  0
    0.2779    3.7631    1.1145 H   0  0  0  0  0  0  0  0  0  0  0  0
  1  2  1  0  0  0  0
  2  3  1  0  0  0  0
  2  4  1  0  0  0  0
  2  5  1  0  0  0  0
  5  6  2  0  0  0  0
  5  7  1  0  0  0  0
  7  8  1  0  0  0  0
  7  9  1  0  0  0  0
  9 10  1  0  0  0  0
  9 11  1  0  0  0  0
  9 22  1  0  0  0  0
 11 12  1  0  0  0  0
 11 13  1  0  0  0  0
 11 14  1  0  0  0  0
 14 15  1  0  0  0  0
 14 16  1  0  0  0  0
 14 17  1  0  0  0  0
 17 18  2  0  0  0  0
 17 19  1  0  0  0  0
 19 20  1  0  0  0  0
 19 21  1  0  0  0  0
 22 23  2  0  0  0  0
 22 24  1  0  0  0  0
 24 25  1  0  0  0  0
 24 26  1  0  0  0  0
 26 27  1  0  0  0  0
 26 28  1  0  0  0  0
 26 29  1  0  0  0  0
M  END
$$$$

  -OEChem-04042215583D

 29 28  0     1  0  0  0  0  0999 V2000
   -3.2064   -3.9328    1.3466 H   0  0  0  0  0  0  0  0  0  0  0  0
   -3.1908   -2.9793    0.8117 C   0  0  0  0  0  0  0  0  0  0  0  0
   -3.9460   -2.3195    1.2455 H   0  0  0  0  0  0  0  0  0  0  0  0
   -3.4344   -3.1588   -0.2387 H   0  0  0  0  0  0  0  0  0  0  0  0
   -1.8202   -2.3398    0.9186 C   0  0  0  0  0  0  0  0  0  0  0  0
   -0.9093   -2.9295    1.4851 O   0  0  0  0  0  0  0  0  0  0  0  0
   -1.5909   -1.1105    0.3378 N   0  0  0  0  0  0  0  0  0  0  0  0
   -2.3791   -0.6494   -0.1154 H   0  0  0  0  0  0  0  0  0  0  0  0
   -0.3063   -0.3981    0.3408 C   0  0  1  0  0  0  0  0  0  0  0  0
    0.3646   -0.8182    1.0969 H   0  0  0  0  0  0  0  0  0  0  0  0
    0.3678   -0.4797   -1.0452 C   0  0  0  0  0  0  0  0  0  0  0  0
   -0.3562   -0.2118   -1.8239 H   0  0  0  0  0  0  0  0  0  0  0  0
    1.1692    0.2659   -1.0834 H   0  0  0  0  0  0  0  0  0  0  0  0
    0.9947   -1.8528   -1.3622 C   0  0  0  0  0  0  0  0  0  0  0  0
    1.6675   -1.7464   -2.2176 H   0  0  0  0  0  0  0  0  0  0  0  0
    1.5955   -2.1842   -0.5108 H   0  0  0  0  0  0  0  0  0  0  0  0
   -0.0209   -2.9375   -1.7130 C   0  0  0  0  0  0  0  0  0  0  0  0
   -0.8774   -2.7749   -2.5627 O   0  0  0  0  0  0  0  0  0  0  0  0
   -0.0300   -4.1515   -1.0900 N   0  0  0  0  0  0  0  0  0  0  0  0
   -0.8461   -4.7178   -1.2969 H   0  0  0  0  0  0  0  0  0  0  0  0
    0.3402   -4.1685   -0.1420 H   0  0  0  0  0  0  0  0  0  0  0  0
   -0.5321    1.0870    0.6917 C   0  0  0  0  0  0  0  0  0  0  0  0
   -1.4497    1.7086    0.1695 O   0  0  0  0  0  0  0  0  0  0  0  0
    0.2909    1.7255    1.6012 N   0  0  0  0  0  0  0  0  0  0  0  0
    0.9994    1.1674    2.0689 H   0  0  0  0  0  0  0  0  0  0  0  0
    0.1056    3.1135    2.0075 C   0  0  0  0  0  0  0  0  0  0  0  0
   -0.8694    3.2458    2.4883 H   0  0  0  0  0  0  0  0  0  0  0  0
    0.8844    3.4069    2.7178 H   0  0  0  0  0  0  0  0  0  0  0  0
    0.1635    3.7780    1.1389 H   0  0  0  0  0  0  0  0  0  0  0  0
  1  2  1  0  0  0  0
  2  3  1  0  0  0  0
  2  4  1  0  0  0  0
  2  5  1  0  0  0  0
  5  6  2  0  0  0  0
  5  7  1  0  0  0  0
  7  8  1  0  0  0  0
  7  9  1  0  0  0  0
  9 10  1  0  0  0  0
  9 11  1  0  0  0  0
  9 22  1  0  0  0  0
 11 12  1  0  0  0  0
 11 13  1  0  0  0  0
 11 14  1  0  0  0  0
 14 15  1  0  0  0  0
 14 16  1  0  0  0  0
 14 17  1  0  0  0  0
 17 18  2  0  0  0  0
 17 19  1  0  0  0  0
 19 20  1  0  0  0  0
 19 21  1  0  0  0  0
 22 23  2  0  0  0  0
 22 24  1  0  0  0  0
 24 25  1  0  0  0  0
 24 26  1  0  0  0  0
 26 27  1  0  0  0  0
 26 28  1  0  0  0  0
 26 29  1  0  0  0  0
M  END
$$$$

  -OEChem-04042215583D

 29 28  0     1  0  0  0  0  0999 V2000
   -3.1433   -3.9397    1.3622 H   0  0  0  0  0  0  0  0  0  0  0  0
   -3.1409   -2.9862    0.8268 C   0  0  0  0  0  0  0  0  0  0  0  0
   -3.8448   -2.3076    1.3149 H   0  0  0  0  0  0  0  0  0  0  0  0
   -3.4659   -3.1576   -0.2025 H   0  0  0  0  0  0  0  0  0  0  0  0
   -1.7493   -2.3831    0.8340 C   0  0  0  0  0  0  0  0  0  0  0  0
   -0.8079   -3.0196    1.2868 O   0  0  0  0  0  0  0  0  0  0  0  0
   -1.5386   -1.1420    0.2726 N   0  0  0  0  0  0  0  0  0  0  0  0
   -2.3585   -0.6361   -0.0618 H   0  0  0  0  0  0  0  0  0  0  0  0
   -0.2728   -0.3956    0.3067 C   0  0  1  0  0  0  0  0  0  0  0  0
    0.3872   -0.8043    1.0786 H   0  0  0  0  0  0  0  0  0  0  0  0
    0.4280   -0.4757   -1.0631 C   0  0  0  0  0  0  0  0  0  0  0  0
   -0.2762   -0.2249   -1.8654 H   0  0  0  0  0  0  0  0  0  0  0  0
    1.2203    0.2802   -1.0868 H   0  0  0  0  0  0  0  0  0  0  0  0
    1.0825   -1.8481   -1.3212 C   0  0  0  0  0  0  0  0  0  0  0  0
    1.9419   -1.7103   -1.9832 H   0  0  0  0  0  0  0  0  0  0  0  0
    1.4579   -2.2737   -0.3864 H   0  0  0  0  0  0  0  0  0  0  0  0
    0.1479   -2.8426   -2.0021 C   0  0  0  0  0  0  0  0  0  0  0  0
   -0.3646   -2.6167   -3.0825 O   0  0  0  0  0  0  0  0  0  0  0  0
   -0.1750   -4.0355   -1.4233 N   0  0  0  0  0  0  0  0  0  0  0  0
   -0.9358   -4.5371   -1.8696 H   0  0  0  0  0  0  0  0  0  0  0  0
   -0.0646   -4.0951   -0.4105 H   0  0  0  0  0  0  0  0  0  0  0  0
   -0.5387    1.0800    0.6679 C   0  0  0  0  0  0  0  0  0  0  0  0
   -1.4888    1.6686    0.1664 O   0  0  0  0  0  0  0  0  0  0  0  0
    0.2518    1.7310    1.5971 N   0  0  0  0  0  0  0  0  0  0  0  0
    0.9959    1.2001    2.0405 H   0  0  0  0  0  0  0  0  0  0  0  0
    0.0202    3.1074    2.0189 C   0  0  0  0  0  0  0  0  0  0  0  0
   -0.9566    3.2002    2.5052 H   0  0  0  0  0  0  0  0  0  0  0  0
    0.7919    3.4201    2.7291 H   0  0  0  0  0  0  0  0  0  0  0  0
    0.0505    3.7831    1.1575 H   0  0  0  0  0  0  0  0  0  0  0  0
  1  2  1  0  0  0  0
  2  3  1  0  0  0  0
  2  4  1  0  0  0  0
  2  5  1  0  0  0  0
  5  6  2  0  0  0  0
  5  7  1  0  0  0  0
  7  8  1  0  0  0  0
  7  9  1  0  0  0  0
  9 10  1  0  0  0  0
  9 11  1  0  0  0  0
  9 22  1  0  0  0  0
 11 12  1  0  0  0  0
 11 13  1  0  0  0  0
 11 14  1  0  0  0  0
 14 15  1  0  0  0  0
 14 16  1  0  0  0  0
 14 17  1  0  0  0  0
 17 18  2  0  0  0  0
 17 19  1  0  0  0  0
 19 20  1  0  0  0  0
 19 21  1  0  0  0  0
 22 23  2  0  0  0  0
 22 24  1  0  0  0  0
 24 25  1  0  0  0  0
 24 26  1  0  0  0  0
 26 27  1  0  0  0  0
 26 28  1  0  0  0  0
 26 29  1  0  0  0  0
M  END
$$$$

  -OEChem-04042215583D

 29 28  0     1  0  0  0  0  0999 V2000
   -3.2751   -3.8545    1.2672 H   0  0  0  0  0  0  0  0  0  0  0  0
   -3.2336   -2.9004    0.7350 C   0  0  0  0  0  0  0  0  0  0  0  0
   -4.0452   -2.2610    1.0903 H   0  0  0  0  0  0  0  0  0  0  0  0
   -3.3660   -3.0862   -0.3342 H   0  0  0  0  0  0  0  0  0  0  0  0
   -1.8980   -2.2237    0.9752 C   0  0  0  0  0  0  0  0  0  0  0  0
   -1.0542   -2.7621    1.6779 O   0  0  0  0  0  0  0  0  0  0  0  0
   -1.6270   -1.0175    0.3653 N   0  0  0  0  0  0  0  0  0  0  0  0
   -2.3400   -0.6416   -0.2575 H   0  0  0  0  0  0  0  0  0  0  0  0
   -0.3348   -0.3218    0.4104 C   0  0  1  0  0  0  0  0  0  0  0  0
    0.2998   -0.7255    1.2057 H   0  0  0  0  0  0  0  0  0  0  0  0
    0.3404   -0.5311   -0.9558 C   0  0  0  0  0  0  0  0  0  0  0  0
   -0.3492   -0.2788   -1.7695 H   0  0  0  0  0  0  0  0  0  0  0  0
    1.1801    0.1680   -1.0312 H   0  0  0  0  0  0  0  0  0  0  0  0
    0.9018   -1.9659   -1.1003 C   0  0  0  0  0  0  0  0  0  0  0  0
    1.9000   -1.8979   -1.5411 H   0  0  0  0  0  0  0  0  0  0  0  0
    1.0110   -2.4429   -0.1225 H   0  0  0  0  0  0  0  0  0  0  0  0
    0.0686   -2.8753   -2.0051 C   0  0  0  0  0  0  0  0  0  0  0  0
   -1.0695   -2.6241   -2.3607 O   0  0  0  0  0  0  0  0  0  0  0  0
    0.5547   -4.0793   -2.4266 N   0  0  0  0  0  0  0  0  0  0  0  0
   -0.1290   -4.7053   -2.8419 H   0  0  0  0  0  0  0  0  0  0  0  0
    1.3734   -4.4590   -1.9635 H   0  0  0  0  0  0  0  0  0  0  0  0
   -0.5243    1.1809    0.6965 C   0  0  0  0  0  0  0  0  0  0  0  0
   -1.3671    1.8241    0.0826 O   0  0  0  0  0  0  0  0  0  0  0  0
    0.2781    1.8229    1.6219 N   0  0  0  0  0  0  0  0  0  0  0  0
    0.9102    1.2484    2.1720 H   0  0  0  0  0  0  0  0  0  0  0  0
    0.1188    3.2287    1.9738 C   0  0  0  0  0  0  0  0  0  0  0  0
   -0.8781    3.4086    2.3900 H   0  0  0  0  0  0  0  0  0  0  0  0
    0.8637    3.5187    2.7211 H   0  0  0  0  0  0  0  0  0  0  0  0
    0.2517    3.8625    1.0906 H   0  0  0  0  0  0  0  0  0  0  0  0
  1  2  1  0  0  0  0
  2  3  1  0  0  0  0
  2  4  1  0  0  0  0
  2  5  1  0  0  0  0
  5  6  2  0  0  0  0
  5  7  1  0  0  0  0
  7  8  1  0  0  0  0
  7  9  1  0  0  0  0
  9 10  1  0  0  0  0
  9 11  1  0  0  0  0
  9 22  1  0  0  0  0
 11 12  1  0  0  0  0
 11 13  1  0  0  0  0
 11 14  1  0  0  0  0
 14 15  1  0  0  0  0
 14 16  1  0  0  0  0
 14 17  1  0  0  0  0
 17 18  2  0  0  0  0
 17 19  1  0  0  0  0
 19 20  1  0  0  0  0
 19 21  1  0  0  0  0
 22 23  2  0  0  0  0
 22 24  1  0  0  0  0
 24 25  1  0  0  0  0
 24 26  1  0  0  0  0
 26 27  1  0  0  0  0
 26 28  1  0  0  0  0
 26 29  1  0  0  0  0
M  END
$$$$

  -OEChem-04042215583D

 29 28  0     1  0  0  0  0  0999 V2000
   -3.4564   -3.7508    1.3910 H   0  0  0  0  0  0  0  0  0  0  0  0
   -3.3357   -2.8605    0.7680 C   0  0  0  0  0  0  0  0  0  0  0  0
   -4.1607   -2.1734    0.9698 H   0  0  0  0  0  0  0  0  0  0  0  0
   -3.3667   -3.1585   -0.2833 H   0  0  0  0  0  0  0  0  0  0  0  0
   -2.0112   -2.1857    1.0685 C   0  0  0  0  0  0  0  0  0  0  0  0
   -1.2405   -2.6800    1.8788 O   0  0  0  0  0  0  0  0  0  0  0  0
   -1.6734   -1.0221    0.4098 N   0  0  0  0  0  0  0  0  0  0  0  0
   -2.3363   -0.6726   -0.2796 H   0  0  0  0  0  0  0  0  0  0  0  0
   -0.3583   -0.3691    0.4736 C   0  0  1  0  0  0  0  0  0  0  0  0
    0.2372   -0.7593    1.3053 H   0  0  0  0  0  0  0  0  0  0  0  0
    0.3530   -0.6542   -0.8604 C   0  0  0  0  0  0  0  0  0  0  0  0
   -0.3223   -0.4254   -1.6936 H   0  0  0  0  0  0  0  0  0  0  0  0
    1.2102    0.0207   -0.9564 H   0  0  0  0  0  0  0  0  0  0  0  0
    0.8701   -2.1087   -0.9405 C   0  0  0  0  0  0  0  0  0  0  0  0
    1.9559   -2.0913   -1.0652 H   0  0  0  0  0  0  0  0  0  0  0  0
    0.6621   -2.6573   -0.0183 H   0  0  0  0  0  0  0  0  0  0  0  0
    0.2519   -2.8737   -2.1071 C   0  0  0  0  0  0  0  0  0  0  0  0
   -0.9510   -2.9097   -2.2950 O   0  0  0  0  0  0  0  0  0  0  0  0
    1.0169   -3.5533   -3.0115 N   0  0  0  0  0  0  0  0  0  0  0  0
    0.5126   -4.1640   -3.6477 H   0  0  0  0  0  0  0  0  0  0  0  0
    1.9904   -3.7352   -2.7934 H   0  0  0  0  0  0  0  0  0  0  0  0
   -0.5036    1.1521    0.6767 C   0  0  0  0  0  0  0  0  0  0  0  0
   -1.2824    1.7941   -0.0178 O   0  0  0  0  0  0  0  0  0  0  0  0
    0.2850    1.8117    1.6015 N   0  0  0  0  0  0  0  0  0  0  0  0
    0.8571    1.2418    2.2182 H   0  0  0  0  0  0  0  0  0  0  0  0
    0.1780    3.2420    1.8633 C   0  0  0  0  0  0  0  0  0  0  0  0
   -0.8072    3.4832    2.2758 H   0  0  0  0  0  0  0  0  0  0  0  0
    0.9417    3.5528    2.5827 H   0  0  0  0  0  0  0  0  0  0  0  0
    0.3227    3.8135    0.9403 H   0  0  0  0  0  0  0  0  0  0  0  0
  1  2  1  0  0  0  0
  2  3  1  0  0  0  0
  2  4  1  0  0  0  0
  2  5  1  0  0  0  0
  5  6  2  0  0  0  0
  5  7  1  0  0  0  0
  7  8  1  0  0  0  0
  7  9  1  0  0  0  0
  9 10  1  0  0  0  0
  9 11  1  0  0  0  0
  9 22  1  0  0  0  0
 11 12  1  0  0  0  0
 11 13  1  0  0  0  0
 11 14  1  0  0  0  0
 14 15  1  0  0  0  0
 14 16  1  0  0  0  0
 14 17  1  0  0  0  0
 17 18  2  0  0  0  0
 17 19  1  0  0  0  0
 19 20  1  0  0  0  0
 19 21  1  0  0  0  0
 22 23  2  0  0  0  0
 22 24  1  0  0  0  0
 24 25  1  0  0  0  0
 24 26  1  0  0  0  0
 26 27  1  0  0  0  0
 26 28  1  0  0  0  0
 26 29  1  0  0  0  0
M  END
$$$$

  -OEChem-04042215583D

 29 28  0     1  0  0  0  0  0999 V2000
   -3.2104   -3.8892    1.3493 H   0  0  0  0  0  0  0  0  0  0  0  0
   -3.1776   -2.9250    0.8340 C   0  0  0  0  0  0  0  0  0  0  0  0
   -3.8919   -2.2477    1.3086 H   0  0  0  0  0  0  0  0  0  0  0  0
   -3.4655   -3.0731   -0.2096 H   0  0  0  0  0  0  0  0  0  0  0  0
   -1.7808   -2.3379    0.9086 C   0  0  0  0  0  0  0  0  0  0  0  0
   -0.8993   -2.9371    1.5038 O   0  0  0  0  0  0  0  0  0  0  0  0
   -1.5178   -1.1286    0.2998 N   0  0  0  0  0  0  0  0  0  0  0  0
   -2.3121   -0.6309   -0.1017 H   0  0  0  0  0  0  0  0  0  0  0  0
   -0.2518   -0.3819    0.3785 C   0  0  1  0  0  0  0  0  0  0  0  0
    0.3627   -0.7543    1.2050 H   0  0  0  0  0  0  0  0  0  0  0  0
    0.5242   -0.5255   -0.9443 C   0  0  0  0  0  0  0  0  0  0  0  0
   -0.1681   -0.3347   -1.7731 H   0  0  0  0  0  0  0  0  0  0  0  0
    1.3066    0.2389   -1.0037 H   0  0  0  0  0  0  0  0  0  0  0  0
    1.1863   -1.9117   -1.1026 C   0  0  0  0  0  0  0  0  0  0  0  0
    2.2595   -1.8301   -0.9110 H   0  0  0  0  0  0  0  0  0  0  0  0
    0.7851   -2.6155   -0.3724 H   0  0  0  0  0  0  0  0  0  0  0  0
    0.9797   -2.5015   -2.4923 C   0  0  0  0  0  0  0  0  0  0  0  0
    1.1773   -1.8593   -3.5067 O   0  0  0  0  0  0  0  0  0  0  0  0
    0.5116   -3.7726   -2.6667 N   0  0  0  0  0  0  0  0  0  0  0  0
    0.2357   -4.0287   -3.6100 H   0  0  0  0  0  0  0  0  0  0  0  0
    0.1568   -4.2843   -1.8649 H   0  0  0  0  0  0  0  0  0  0  0  0
   -0.5394    1.1098    0.6419 C   0  0  0  0  0  0  0  0  0  0  0  0
   -1.4604    1.6642    0.0535 O   0  0  0  0  0  0  0  0  0  0  0  0
    0.1869    1.8119    1.5857 N   0  0  0  0  0  0  0  0  0  0  0  0
    0.9024    1.3084    2.1022 H   0  0  0  0  0  0  0  0  0  0  0  0
   -0.0753    3.2067    1.9203 C   0  0  0  0  0  0  0  0  0  0  0  0
   -1.0760    3.3159    2.3515 H   0  0  0  0  0  0  0  0  0  0  0  0
    0.6573    3.5650    2.6499 H   0  0  0  0  0  0  0  0  0  0  0  0
   -0.0063    3.8355    1.0262 H   0  0  0  0  0  0  0  0  0  0  0  0
  1  2  1  0  0  0  0
  2  3  1  0  0  0  0
  2  4  1  0  0  0  0
  2  5  1  0  0  0  0
  5  6  2  0  0  0  0
  5  7  1  0  0  0  0
  7  8  1  0  0  0  0
  7  9  1  0  0  0  0
  9 10  1  0  0  0  0
  9 11  1  0  0  0  0
  9 22  1  0  0  0  0
 11 12  1  0  0  0  0
 11 13  1  0  0  0  0
 11 14  1  0  0  0  0
 14 15  1  0  0  0  0
 14 16  1  0  0  0  0
 14 17  1  0  0  0  0
 17 18  2  0  0  0  0
 17 19  1  0  0  0  0
 19 20  1  0  0  0  0
 19 21  1  0  0  0  0
 22 23  2  0  0  0  0
 22 24  1  0  0  0  0
 24 25  1  0  0  0  0
 24 26  1  0  0  0  0
 26 27  1  0  0  0  0
 26 28  1  0  0  0  0
 26 29  1  0  0  0  0
M  END
$$$$

  -OEChem-04042215583D

 29 28  0     1  0  0  0  0  0999 V2000
   -3.3133   -3.8035    1.3903 H   0  0  0  0  0  0  0  0  0  0  0  0
   -3.2673   -2.8423    0.8706 C   0  0  0  0  0  0  0  0  0  0  0  0
   -3.9631   -2.1491    1.3497 H   0  0  0  0  0  0  0  0  0  0  0  0
   -3.5686   -2.9889   -0.1694 H   0  0  0  0  0  0  0  0  0  0  0  0
   -1.8585   -2.2829    0.9274 C   0  0  0  0  0  0  0  0  0  0  0  0
   -0.9839   -2.8919    1.5238 O   0  0  0  0  0  0  0  0  0  0  0  0
   -1.5765   -1.0817    0.3109 N   0  0  0  0  0  0  0  0  0  0  0  0
   -2.3613   -0.5690   -0.0899 H   0  0  0  0  0  0  0  0  0  0  0  0
   -0.2915   -0.3680    0.3785 C   0  0  1  0  0  0  0  0  0  0  0  0
    0.3172   -0.7529    1.2033 H   0  0  0  0  0  0  0  0  0  0  0  0
    0.4830   -0.5307   -0.9434 C   0  0  0  0  0  0  0  0  0  0  0  0
   -0.2125   -0.3375   -1.7688 H   0  0  0  0  0  0  0  0  0  0  0  0
    1.2791    0.2187   -1.0135 H   0  0  0  0  0  0  0  0  0  0  0  0
    1.1114   -1.9331   -1.0963 C   0  0  0  0  0  0  0  0  0  0  0  0
    2.1002   -1.9475   -0.6307 H   0  0  0  0  0  0  0  0  0  0  0  0
    0.4972   -2.6736   -0.5821 H   0  0  0  0  0  0  0  0  0  0  0  0
    1.2306   -2.3830   -2.5493 C   0  0  0  0  0  0  0  0  0  0  0  0
    1.3194   -1.6029   -3.4791 O   0  0  0  0  0  0  0  0  0  0  0  0
    1.2477   -3.7072   -2.8820 N   0  0  0  0  0  0  0  0  0  0  0  0
    1.1712   -3.9235   -3.8715 H   0  0  0  0  0  0  0  0  0  0  0  0
    0.9925   -4.3956   -2.1817 H   0  0  0  0  0  0  0  0  0  0  0  0
   -0.5418    1.1305    0.6413 C   0  0  0  0  0  0  0  0  0  0  0  0
   -1.4615    1.7047    0.0698 O   0  0  0  0  0  0  0  0  0  0  0  0
    0.2098    1.8133    1.5794 N   0  0  0  0  0  0  0  0  0  0  0  0
    0.9180    1.2906    2.0869 H   0  0  0  0  0  0  0  0  0  0  0  0
   -0.0383    3.2026    1.9451 C   0  0  0  0  0  0  0  0  0  0  0  0
   -1.0359    3.3108    2.3836 H   0  0  0  0  0  0  0  0  0  0  0  0
    0.7008    3.5384    2.6788 H   0  0  0  0  0  0  0  0  0  0  0  0
    0.0320    3.8498    1.0644 H   0  0  0  0  0  0  0  0  0  0  0  0
  1  2  1  0  0  0  0
  2  3  1  0  0  0  0
  2  4  1  0  0  0  0
  2  5  1  0  0  0  0
  5  6  2  0  0  0  0
  5  7  1  0  0  0  0
  7  8  1  0  0  0  0
  7  9  1  0  0  0  0
  9 10  1  0  0  0  0
  9 11  1  0  0  0  0
  9 22  1  0  0  0  0
 11 12  1  0  0  0  0
 11 13  1  0  0  0  0
 11 14  1  0  0  0  0
 14 15  1  0  0  0  0
 14 16  1  0  0  0  0
 14 17  1  0  0  0  0
 17 18  2  0  0  0  0
 17 19  1  0  0  0  0
 19 20  1  0  0  0  0
 19 21  1  0  0  0  0
 22 23  2  0  0  0  0
 22 24  1  0  0  0  0
 24 25  1  0  0  0  0
 24 26  1  0  0  0  0
 26 27  1  0  0  0  0
 26 28  1  0  0  0  0
 26 29  1  0  0  0  0
M  END
$$$$

  -OEChem-04042215583D

 29 28  0     1  0  0  0  0  0999 V2000
   -3.3575   -3.7700    1.4156 H   0  0  0  0  0  0  0  0  0  0  0  0
   -3.3094   -2.8103    0.8937 C   0  0  0  0  0  0  0  0  0  0  0  0
   -3.9853   -2.1071    1.3864 H   0  0  0  0  0  0  0  0  0  0  0  0
   -3.6349   -2.9538   -0.1394 H   0  0  0  0  0  0  0  0  0  0  0  0
   -1.8921   -2.2706    0.9201 C   0  0  0  0  0  0  0  0  0  0  0  0
   -1.0097   -2.8984    1.4850 O   0  0  0  0  0  0  0  0  0  0  0  0
   -1.6080   -1.0680    0.3073 N   0  0  0  0  0  0  0  0  0  0  0  0
   -2.3940   -0.5398   -0.0703 H   0  0  0  0  0  0  0  0  0  0  0  0
   -0.3165   -0.3669    0.3738 C   0  0  1  0  0  0  0  0  0  0  0  0
    0.2893   -0.7602    1.1967 H   0  0  0  0  0  0  0  0  0  0  0  0
    0.4536   -0.5358   -0.9483 C   0  0  0  0  0  0  0  0  0  0  0  0
   -0.2321   -0.3371   -1.7805 H   0  0  0  0  0  0  0  0  0  0  0  0
    1.2613    0.2019   -1.0108 H   0  0  0  0  0  0  0  0  0  0  0  0
    1.0612   -1.9457   -1.0907 C   0  0  0  0  0  0  0  0  0  0  0  0
    1.9115   -2.0509   -0.4120 H   0  0  0  0  0  0  0  0  0  0  0  0
    0.3180   -2.6955   -0.8127 H   0  0  0  0  0  0  0  0  0  0  0  0
    1.5112   -2.2632   -2.5138 C   0  0  0  0  0  0  0  0  0  0  0  0
    1.6335   -1.4159   -3.3788 O   0  0  0  0  0  0  0  0  0  0  0  0
    1.8112   -3.5408   -2.8904 N   0  0  0  0  0  0  0  0  0  0  0  0
    1.9422   -3.6961   -3.8857 H   0  0  0  0  0  0  0  0  0  0  0  0
    1.5547   -4.3085   -2.2786 H   0  0  0  0  0  0  0  0  0  0  0  0
   -0.5494    1.1328    0.6460 C   0  0  0  0  0  0  0  0  0  0  0  0
   -1.4672    1.7189    0.0838 O   0  0  0  0  0  0  0  0  0  0  0  0
    0.2135    1.8025    1.5846 N   0  0  0  0  0  0  0  0  0  0  0  0
    0.9258    1.2726    2.0788 H   0  0  0  0  0  0  0  0  0  0  0  0
   -0.0080    3.1968    1.9476 C   0  0  0  0  0  0  0  0  0  0  0  0
   -1.0084    3.3275    2.3734 H   0  0  0  0  0  0  0  0  0  0  0  0
    0.7290    3.5153    2.6910 H   0  0  0  0  0  0  0  0  0  0  0  0
    0.0882    3.8419    1.0679 H   0  0  0  0  0  0  0  0  0  0  0  0
  1  2  1  0  0  0  0
  2  3  1  0  0  0  0
  2  4  1  0  0  0  0
  2  5  1  0  0  0  0
  5  6  2  0  0  0  0
  5  7  1  0  0  0  0
  7  8  1  0  0  0  0
  7  9  1  0  0  0  0
  9 10  1  0  0  0  0
  9 11  1  0  0  0  0
  9 22  1  0  0  0  0
 11 12  1  0  0  0  0
 11 13  1  0  0  0  0
 11 14  1  0  0  0  0
 14 15  1  0  0  0  0
 14 16  1  0  0  0  0
 14 17  1  0  0  0  0
 17 18  2  0  0  0  0
 17 19  1  0  0  0  0
 19 20  1  0  0  0  0
 19 21  1  0  0  0  0
 22 23  2  0  0  0  0
 22 24  1  0  0  0  0
 24 25  1  0  0  0  0
 24 26  1  0  0  0  0
 26 27  1  0  0  0  0
 26 28  1  0  0  0  0
 26 29  1  0  0  0  0
M  END
$$$$

  -OEChem-04042215583D

 29 28  0     1  0  0  0  0  0999 V2000
   -3.4419   -3.7257    1.5048 H   0  0  0  0  0  0  0  0  0  0  0  0
   -3.3900   -2.7839    0.9514 C   0  0  0  0  0  0  0  0  0  0  0  0
   -4.0399   -2.0534    1.4393 H   0  0  0  0  0  0  0  0  0  0  0  0
   -3.7451   -2.9529   -0.0680 H   0  0  0  0  0  0  0  0  0  0  0  0
   -1.9627   -2.2705    0.9235 C   0  0  0  0  0  0  0  0  0  0  0  0
   -1.0654   -2.9305    1.4248 O   0  0  0  0  0  0  0  0  0  0  0  0
   -1.6829   -1.0633    0.3170 N   0  0  0  0  0  0  0  0  0  0  0  0
   -2.4753   -0.5116   -0.0100 H   0  0  0  0  0  0  0  0  0  0  0  0
   -0.3798   -0.3812    0.3570 C   0  0  1  0  0  0  0  0  0  0  0  0
    0.2282   -0.7981    1.1666 H   0  0  0  0  0  0  0  0  0  0  0  0
    0.3828   -0.5587   -0.9680 C   0  0  0  0  0  0  0  0  0  0  0  0
   -0.2003   -0.1116   -1.7814 H   0  0  0  0  0  0  0  0  0  0  0  0
    1.3342   -0.0182   -0.9114 H   0  0  0  0  0  0  0  0  0  0  0  0
    0.6616   -2.0391   -1.2964 C   0  0  0  0  0  0  0  0  0  0  0  0
    1.2414   -2.4892   -0.4857 H   0  0  0  0  0  0  0  0  0  0  0  0
   -0.2819   -2.5837   -1.3774 H   0  0  0  0  0  0  0  0  0  0  0  0
    1.4188   -2.2263   -2.6079 C   0  0  0  0  0  0  0  0  0  0  0  0
    1.8558   -1.2995   -3.2649 O   0  0  0  0  0  0  0  0  0  0  0  0
    1.6788   -3.4734   -3.0990 N   0  0  0  0  0  0  0  0  0  0  0  0
    2.3437   -3.5220   -3.8654 H   0  0  0  0  0  0  0  0  0  0  0  0
    1.5238   -4.2784   -2.5011 H   0  0  0  0  0  0  0  0  0  0  0  0
   -0.5685    1.1193    0.6535 C   0  0  0  0  0  0  0  0  0  0  0  0
   -1.4898    1.7321    0.1265 O   0  0  0  0  0  0  0  0  0  0  0  0
    0.2364    1.7602    1.5769 N   0  0  0  0  0  0  0  0  0  0  0  0
    0.9660    1.2150    2.0273 H   0  0  0  0  0  0  0  0  0  0  0  0
    0.0838    3.1659    1.9315 C   0  0  0  0  0  0  0  0  0  0  0  0
   -0.9095    3.3491    2.3545 H   0  0  0  0  0  0  0  0  0  0  0  0
    0.8340    3.4520    2.6749 H   0  0  0  0  0  0  0  0  0  0  0  0
    0.2132    3.7999    1.0480 H   0  0  0  0  0  0  0  0  0  0  0  0
  1  2  1  0  0  0  0
  2  3  1  0  0  0  0
  2  4  1  0  0  0  0
  2  5  1  0  0  0  0
  5  6  2  0  0  0  0
  5  7  1  0  0  0  0
  7  8  1  0  0  0  0
  7  9  1  0  0  0  0
  9 10  1  0  0  0  0
  9 11  1  0  0  0  0
  9 22  1  0  0  0  0
 11 12  1  0  0  0  0
 11 13  1  0  0  0  0
 11 14  1  0  0  0  0
 14 15  1  0  0  0  0
 14 16  1  0  0  0  0
 14 17  1  0  0  0  0
 17 18  2  0  0  0  0
 17 19  1  0  0  0  0
 19 20  1  0  0  0  0
 19 21  1  0  0  0  0
 22 23  2  0  0  0  0
 22 24  1  0  0  0  0
 24 25  1  0  0  0  0
 24 26  1  0  0  0  0
 26 27  1  0  0  0  0
 26 28  1  0  0  0  0
 26 29  1  0  0  0  0
M  END
$$$$

  -OEChem-04042215583D

 29 28  0     1  0  0  0  0  0999 V2000
   -3.4289   -3.7376    1.4733 H   0  0  0  0  0  0  0  0  0  0  0  0
   -3.3787   -2.7970    0.9175 C   0  0  0  0  0  0  0  0  0  0  0  0
   -4.0439   -2.0720    1.3927 H   0  0  0  0  0  0  0  0  0  0  0  0
   -3.7165   -2.9738   -0.1064 H   0  0  0  0  0  0  0  0  0  0  0  0
   -1.9566   -2.2686    0.9093 C   0  0  0  0  0  0  0  0  0  0  0  0
   -1.0601   -2.9230    1.4193 O   0  0  0  0  0  0  0  0  0  0  0  0
   -1.6805   -1.0560    0.3117 N   0  0  0  0  0  0  0  0  0  0  0  0
   -2.4731   -0.5093   -0.0230 H   0  0  0  0  0  0  0  0  0  0  0  0
   -0.3788   -0.3715    0.3544 C   0  0  1  0  0  0  0  0  0  0  0  0
    0.2350   -0.7944    1.1563 H   0  0  0  0  0  0  0  0  0  0  0  0
    0.3661   -0.5423   -0.9807 C   0  0  0  0  0  0  0  0  0  0  0  0
   -0.2085   -0.0842   -1.7937 H   0  0  0  0  0  0  0  0  0  0  0  0
    1.3205   -0.0080   -0.9123 H   0  0  0  0  0  0  0  0  0  0  0  0
    0.6326   -2.0249   -1.3120 C   0  0  0  0  0  0  0  0  0  0  0  0
    1.0010   -2.5340   -0.4169 H   0  0  0  0  0  0  0  0  0  0  0  0
   -0.3012   -2.5072   -1.6125 H   0  0  0  0  0  0  0  0  0  0  0  0
    1.6650   -2.2234   -2.4182 C   0  0  0  0  0  0  0  0  0  0  0  0
    2.2169   -1.3032   -2.9929 O   0  0  0  0  0  0  0  0  0  0  0  0
    2.0409   -3.4754   -2.8116 N   0  0  0  0  0  0  0  0  0  0  0  0
    2.8509   -3.5281   -3.4223 H   0  0  0  0  0  0  0  0  0  0  0  0
    1.7755   -4.2702   -2.2395 H   0  0  0  0  0  0  0  0  0  0  0  0
   -0.5645    1.1270    0.6629 C   0  0  0  0  0  0  0  0  0  0  0  0
   -1.4834    1.7463    0.1393 O   0  0  0  0  0  0  0  0  0  0  0  0
    0.2441    1.7593    1.5891 N   0  0  0  0  0  0  0  0  0  0  0  0
    0.9768    1.2105    2.0300 H   0  0  0  0  0  0  0  0  0  0  0  0
    0.1011    3.1646    1.9492 C   0  0  0  0  0  0  0  0  0  0  0  0
   -0.8961    3.3563    2.3591 H   0  0  0  0  0  0  0  0  0  0  0  0
    0.8435    3.4388    2.7050 H   0  0  0  0  0  0  0  0  0  0  0  0
    0.2504    3.8012    1.0707 H   0  0  0  0  0  0  0  0  0  0  0  0
  1  2  1  0  0  0  0
  2  3  1  0  0  0  0
  2  4  1  0  0  0  0
  2  5  1  0  0  0  0
  5  6  2  0  0  0  0
  5  7  1  0  0  0  0
  7  8  1  0  0  0  0
  7  9  1  0  0  0  0
  9 10  1  0  0  0  0
  9 11  1  0  0  0  0
  9 22  1  0  0  0  0
 11 12  1  0  0  0  0
 11 13  1  0  0  0  0
 11 14  1  0  0  0  0
 14 15  1  0  0  0  0
 14 16  1  0  0  0  0
 14 17  1  0  0  0  0
 17 18  2  0  0  0  0
 17 19  1  0  0  0  0
 19 20  1  0  0  0  0
 19 21  1  0  0  0  0
 22 23  2  0  0  0  0
 22 24  1  0  0  0  0
 24 25  1  0  0  0  0
 24 26  1  0  0  0  0
 26 27  1  0  0  0  0
 26 28  1  0  0  0  0
 26 29  1  0  0  0  0
M  END
$$$$

  -OEChem-04042215583D

 29 28  0     1  0  0  0  0  0999 V2000
   -3.4443   -3.7343    1.4515 H   0  0  0  0  0  0  0  0  0  0  0  0
   -3.3832   -2.7900    0.9033 C   0  0  0  0  0  0  0  0  0  0  0  0
   -4.0477   -2.0640    1.3781 H   0  0  0  0  0  0  0  0  0  0  0  0
   -3.7128   -2.9567   -0.1249 H   0  0  0  0  0  0  0  0  0  0  0  0
   -1.9581   -2.2706    0.9114 C   0  0  0  0  0  0  0  0  0  0  0  0
   -1.0738   -2.9243    1.4428 O   0  0  0  0  0  0  0  0  0  0  0  0
   -1.6717   -1.0592    0.3169 N   0  0  0  0  0  0  0  0  0  0  0  0
   -2.4604   -0.5117   -0.0254 H   0  0  0  0  0  0  0  0  0  0  0  0
   -0.3687   -0.3772    0.3602 C   0  0  1  0  0  0  0  0  0  0  0  0
    0.2499   -0.8036    1.1567 H   0  0  0  0  0  0  0  0  0  0  0  0
    0.3644   -0.5348   -0.9837 C   0  0  0  0  0  0  0  0  0  0  0  0
   -0.2085   -0.0610   -1.7885 H   0  0  0  0  0  0  0  0  0  0  0  0
    1.3164    0.0018   -0.9029 H   0  0  0  0  0  0  0  0  0  0  0  0
    0.6295   -2.0136   -1.3434 C   0  0  0  0  0  0  0  0  0  0  0  0
    0.7656   -2.5876   -0.4234 H   0  0  0  0  0  0  0  0  0  0  0  0
   -0.2373   -2.4241   -1.8680 H   0  0  0  0  0  0  0  0  0  0  0  0
    1.8834   -2.2365   -2.1862 C   0  0  0  0  0  0  0  0  0  0  0  0
    2.5522   -1.3322   -2.6517 O   0  0  0  0  0  0  0  0  0  0  0  0
    2.3292   -3.4977   -2.4597 N   0  0  0  0  0  0  0  0  0  0  0  0
    3.2525   -3.5653   -2.8777 H   0  0  0  0  0  0  0  0  0  0  0  0
    1.9399   -4.2797   -1.9434 H   0  0  0  0  0  0  0  0  0  0  0  0
   -0.5588    1.1205    0.6696 C   0  0  0  0  0  0  0  0  0  0  0  0
   -1.4760    1.7384    0.1409 O   0  0  0  0  0  0  0  0  0  0  0  0
    0.2465    1.7548    1.5970 N   0  0  0  0  0  0  0  0  0  0  0  0
    0.9783    1.2069    2.0408 H   0  0  0  0  0  0  0  0  0  0  0  0
    0.0986    3.1593    1.9583 C   0  0  0  0  0  0  0  0  0  0  0  0
   -0.9000    3.3479    2.3665 H   0  0  0  0  0  0  0  0  0  0  0  0
    0.8390    3.4344    2.7159 H   0  0  0  0  0  0  0  0  0  0  0  0
    0.2474    3.7980    1.0812 H   0  0  0  0  0  0  0  0  0  0  0  0
  1  2  1  0  0  0  0
  2  3  1  0  0  0  0
  2  4  1  0  0  0  0
  2  5  1  0  0  0  0
  5  6  2  0  0  0  0
  5  7  1  0  0  0  0
  7  8  1  0  0  0  0
  7  9  1  0  0  0  0
  9 10  1  0  0  0  0
  9 11  1  0  0  0  0
  9 22  1  0  0  0  0
 11 12  1  0  0  0  0
 11 13  1  0  0  0  0
 11 14  1  0  0  0  0
 14 15  1  0  0  0  0
 14 16  1  0  0  0  0
 14 17  1  0  0  0  0
 17 18  2  0  0  0  0
 17 19  1  0  0  0  0
 19 20  1  0  0  0  0
 19 21  1  0  0  0  0
 22 23  2  0  0  0  0
 22 24  1  0  0  0  0
 24 25  1  0  0  0  0
 24 26  1  0  0  0  0
 26 27  1  0  0  0  0
 26 28  1  0  0  0  0
 26 29  1  0  0  0  0
M  END
$$$$

  -OEChem-04042215583D

 29 28  0     1  0  0  0  0  0999 V2000
   -3.4665   -3.7577    1.3609 H   0  0  0  0  0  0  0  0  0  0  0  0
   -3.4066   -2.7767    0.8811 C   0  0  0  0  0  0  0  0  0  0  0  0
   -4.0546   -2.0806    1.4194 H   0  0  0  0  0  0  0  0  0  0  0  0
   -3.7572   -2.8669   -0.1499 H   0  0  0  0  0  0  0  0  0  0  0  0
   -1.9770   -2.2705    0.8995 C   0  0  0  0  0  0  0  0  0  0  0  0
   -1.1032   -2.9298    1.4416 O   0  0  0  0  0  0  0  0  0  0  0  0
   -1.6780   -1.0582    0.3131 N   0  0  0  0  0  0  0  0  0  0  0  0
   -2.4608   -0.5038   -0.0317 H   0  0  0  0  0  0  0  0  0  0  0  0
   -0.3650   -0.3940    0.3405 C   0  0  1  0  0  0  0  0  0  0  0  0
    0.2638   -0.8375    1.1195 H   0  0  0  0  0  0  0  0  0  0  0  0
    0.3433   -0.5366   -1.0204 C   0  0  0  0  0  0  0  0  0  0  0  0
   -0.2455   -0.0434   -1.8019 H   0  0  0  0  0  0  0  0  0  0  0  0
    1.2968   -0.0012   -0.9528 H   0  0  0  0  0  0  0  0  0  0  0  0
    0.5937   -2.0076   -1.4293 C   0  0  0  0  0  0  0  0  0  0  0  0
    0.4759   -2.6549   -0.5586 H   0  0  0  0  0  0  0  0  0  0  0  0
   -0.1483   -2.3140   -2.1712 H   0  0  0  0  0  0  0  0  0  0  0  0
    1.9936   -2.2688   -1.9798 C   0  0  0  0  0  0  0  0  0  0  0  0
    2.6603   -1.4163   -2.5365 O   0  0  0  0  0  0  0  0  0  0  0  0
    2.5839   -3.4941   -1.8585 N   0  0  0  0  0  0  0  0  0  0  0  0
    3.5702   -3.5418   -2.0960 H   0  0  0  0  0  0  0  0  0  0  0  0
    2.1721   -4.1781   -1.2320 H   0  0  0  0  0  0  0  0  0  0  0  0
   -0.5363    1.1028    0.6677 C   0  0  0  0  0  0  0  0  0  0  0  0
   -1.4591    1.7325    0.1631 O   0  0  0  0  0  0  0  0  0  0  0  0
    0.2887    1.7224    1.5878 N   0  0  0  0  0  0  0  0  0  0  0  0
    1.0177    1.1632    2.0219 H   0  0  0  0  0  0  0  0  0  0  0  0
    0.1318    3.1146    1.9909 C   0  0  0  0  0  0  0  0  0  0  0  0
   -0.8414    3.2669    2.4693 H   0  0  0  0  0  0  0  0  0  0  0  0
    0.9150    3.3935    2.7025 H   0  0  0  0  0  0  0  0  0  0  0  0
    0.2045    3.7763    1.1213 H   0  0  0  0  0  0  0  0  0  0  0  0
  1  2  1  0  0  0  0
  2  3  1  0  0  0  0
  2  4  1  0  0  0  0
  2  5  1  0  0  0  0
  5  6  2  0  0  0  0
  5  7  1  0  0  0  0
  7  8  1  0  0  0  0
  7  9  1  0  0  0  0
  9 10  1  0  0  0  0
  9 11  1  0  0  0  0
  9 22  1  0  0  0  0
 11 12  1  0  0  0  0
 11 13  1  0  0  0  0
 11 14  1  0  0  0  0
 14 15  1  0  0  0  0
 14 16  1  0  0  0  0
 14 17  1  0  0  0  0
 17 18  2  0  0  0  0
 17 19  1  0  0  0  0
 19 20  1  0  0  0  0
 19 21  1  0  0  0  0
 22 23  2  0  0  0  0
 22 24  1  0  0  0  0
 24 25  1  0  0  0  0
 24 26  1  0  0  0  0
 26 27  1  0  0  0  0
 26 28  1  0  0  0  0
 26 29  1  0  0  0  0
M  END
$$$$

  -OEChem-04042215583D

 29 28  0     1  0  0  0  0  0999 V2000
   -3.5002   -3.7855    1.3207 H   0  0  0  0  0  0  0  0  0  0  0  0
   -3.4386   -2.7990    0.8527 C   0  0  0  0  0  0  0  0  0  0  0  0
   -4.0699   -2.1039    1.4117 H   0  0  0  0  0  0  0  0  0  0  0  0
   -3.8087   -2.8720   -0.1727 H   0  0  0  0  0  0  0  0  0  0  0  0
   -2.0031   -2.3082    0.8523 C   0  0  0  0  0  0  0  0  0  0  0  0
   -1.1250   -2.9880    1.3625 O   0  0  0  0  0  0  0  0  0  0  0  0
   -1.6993   -1.0855    0.2889 N   0  0  0  0  0  0  0  0  0  0  0  0
   -2.4801   -0.5139   -0.0320 H   0  0  0  0  0  0  0  0  0  0  0  0
   -0.3754   -0.4418    0.3088 C   0  0  1  0  0  0  0  0  0  0  0  0
    0.2595   -0.9145    1.0656 H   0  0  0  0  0  0  0  0  0  0  0  0
    0.3196   -0.5460   -1.0633 C   0  0  0  0  0  0  0  0  0  0  0  0
   -0.2951   -0.0316   -1.8103 H   0  0  0  0  0  0  0  0  0  0  0  0
    1.2724   -0.0063   -1.0140 H   0  0  0  0  0  0  0  0  0  0  0  0
    0.5574   -1.9972   -1.5409 C   0  0  0  0  0  0  0  0  0  0  0  0
    0.1621   -2.7170   -0.8243 H   0  0  0  0  0  0  0  0  0  0  0  0
    0.0299   -2.1587   -2.4848 H   0  0  0  0  0  0  0  0  0  0  0  0
    2.0340   -2.3046   -1.7580 C   0  0  0  0  0  0  0  0  0  0  0  0
    2.7429   -1.6171   -2.4687 O   0  0  0  0  0  0  0  0  0  0  0  0
    2.6569   -3.3175   -1.0866 N   0  0  0  0  0  0  0  0  0  0  0  0
    3.6714   -3.3328   -1.1312 H   0  0  0  0  0  0  0  0  0  0  0  0
    2.1661   -3.7801   -0.3272 H   0  0  0  0  0  0  0  0  0  0  0  0
   -0.5185    1.0488    0.6761 C   0  0  0  0  0  0  0  0  0  0  0  0
   -1.4311    1.7086    0.1921 O   0  0  0  0  0  0  0  0  0  0  0  0
    0.3322    1.6324    1.5962 N   0  0  0  0  0  0  0  0  0  0  0  0
    1.0552    1.0498    2.0087 H   0  0  0  0  0  0  0  0  0  0  0  0
    0.2283    3.0266    2.0087 C   0  0  0  0  0  0  0  0  0  0  0  0
   -0.7371    3.2123    2.4910 H   0  0  0  0  0  0  0  0  0  0  0  0
    1.0234    3.2709    2.7197 H   0  0  0  0  0  0  0  0  0  0  0  0
    0.3239    3.6904    1.1429 H   0  0  0  0  0  0  0  0  0  0  0  0
  1  2  1  0  0  0  0
  2  3  1  0  0  0  0
  2  4  1  0  0  0  0
  2  5  1  0  0  0  0
  5  6  2  0  0  0  0
  5  7  1  0  0  0  0
  7  8  1  0  0  0  0
  7  9  1  0  0  0  0
  9 10  1  0  0  0  0
  9 11  1  0  0  0  0
  9 22  1  0  0  0  0
 11 12  1  0  0  0  0
 11 13  1  0  0  0  0
 11 14  1  0  0  0  0
 14 15  1  0  0  0  0
 14 16  1  0  0  0  0
 14 17  1  0  0  0  0
 17 18  2  0  0  0  0
 17 19  1  0  0  0  0
 19 20  1  0  0  0  0
 19 21  1  0  0  0  0
 22 23  2  0  0  0  0
 22 24  1  0  0  0  0
 24 25  1  0  0  0  0
 24 26  1  0  0  0  0
 26 27  1  0  0  0  0
 26 28  1  0  0  0  0
 26 29  1  0  0  0  0
M  END
$$$$

  -OEChem-04042215583D

 29 28  0     1  0  0  0  0  0999 V2000
   -3.4256   -3.8448    1.2800 H   0  0  0  0  0  0  0  0  0  0  0  0
   -3.3896   -2.8490    0.8296 C   0  0  0  0  0  0  0  0  0  0  0  0
   -4.0164   -2.1738    1.4171 H   0  0  0  0  0  0  0  0  0  0  0  0
   -3.7843   -2.9082   -0.1876 H   0  0  0  0  0  0  0  0  0  0  0  0
   -1.9614   -2.3382    0.8025 C   0  0  0  0  0  0  0  0  0  0  0  0
   -1.0574   -3.0222    1.2616 O   0  0  0  0  0  0  0  0  0  0  0  0
   -1.6849   -1.1011    0.2552 N   0  0  0  0  0  0  0  0  0  0  0  0
   -2.4777   -0.5252   -0.0268 H   0  0  0  0  0  0  0  0  0  0  0  0
   -0.3652   -0.4500    0.2748 C   0  0  1  0  0  0  0  0  0  0  0  0
    0.2754   -0.9287    1.0227 H   0  0  0  0  0  0  0  0  0  0  0  0
    0.3372   -0.5270   -1.0953 C   0  0  0  0  0  0  0  0  0  0  0  0
   -0.2988   -0.0205   -1.8299 H   0  0  0  0  0  0  0  0  0  0  0  0
    1.2818    0.0282   -1.0595 H   0  0  0  0  0  0  0  0  0  0  0  0
    0.5855   -1.9694   -1.5879 C   0  0  0  0  0  0  0  0  0  0  0  0
   -0.0482   -2.6962   -1.0812 H   0  0  0  0  0  0  0  0  0  0  0  0
    0.3377   -2.0239   -2.6516 H   0  0  0  0  0  0  0  0  0  0  0  0
    2.0447   -2.3734   -1.4428 C   0  0  0  0  0  0  0  0  0  0  0  0
    2.9373   -1.8249   -2.0614 O   0  0  0  0  0  0  0  0  0  0  0  0
    2.4237   -3.2845   -0.4993 N   0  0  0  0  0  0  0  0  0  0  0  0
    3.4176   -3.3503   -0.3027 H   0  0  0  0  0  0  0  0  0  0  0  0
    1.7381   -3.5914    0.1867 H   0  0  0  0  0  0  0  0  0  0  0  0
   -0.5134    1.0324    0.6717 C   0  0  0  0  0  0  0  0  0  0  0  0
   -1.4360    1.6954    0.2120 O   0  0  0  0  0  0  0  0  0  0  0  0
    0.3435    1.6019    1.5950 N   0  0  0  0  0  0  0  0  0  0  0  0
    1.0788    1.0170    1.9822 H   0  0  0  0  0  0  0  0  0  0  0  0
    0.2328    2.9849    2.0426 C   0  0  0  0  0  0  0  0  0  0  0  0
   -0.7423    3.1603    2.5090 H   0  0  0  0  0  0  0  0  0  0  0  0
    1.0121    3.2079    2.7777 H   0  0  0  0  0  0  0  0  0  0  0  0
    0.3481    3.6716    1.1974 H   0  0  0  0  0  0  0  0  0  0  0  0
  1  2  1  0  0  0  0
  2  3  1  0  0  0  0
  2  4  1  0  0  0  0
  2  5  1  0  0  0  0
  5  6  2  0  0  0  0
  5  7  1  0  0  0  0
  7  8  1  0  0  0  0
  7  9  1  0  0  0  0
  9 10  1  0  0  0  0
  9 11  1  0  0  0  0
  9 22  1  0  0  0  0
 11 12  1  0  0  0  0
 11 13  1  0  0  0  0
 11 14  1  0  0  0  0
 14 15  1  0  0  0  0
 14 16  1  0  0  0  0
 14 17  1  0  0  0  0
 17 18  2  0  0  0  0
 17 19  1  0  0  0  0
 19 20  1  0  0  0  0
 19 21  1  0  0  0  0
 22 23  2  0  0  0  0
 22 24  1  0  0  0  0
 24 25  1  0  0  0  0
 24 26  1  0  0  0  0
 26 27  1  0  0  0  0
 26 28  1  0  0  0  0
 26 29  1  0  0  0  0
M  END
$$$$

  -OEChem-04042215583D

 29 28  0     1  0  0  0  0  0999 V2000
   -3.3204   -3.9086    1.2298 H   0  0  0  0  0  0  0  0  0  0  0  0
   -3.3144   -2.8938    0.8222 C   0  0  0  0  0  0  0  0  0  0  0  0
   -3.9105   -2.2491    1.4727 H   0  0  0  0  0  0  0  0  0  0  0  0
   -3.7658   -2.9112   -0.1728 H   0  0  0  0  0  0  0  0  0  0  0  0
   -1.8930   -2.3716    0.7371 C   0  0  0  0  0  0  0  0  0  0  0  0
   -0.9588   -3.0623    1.1251 O   0  0  0  0  0  0  0  0  0  0  0  0
   -1.6517   -1.1201    0.2053 N   0  0  0  0  0  0  0  0  0  0  0  0
   -2.4596   -0.5393   -0.0181 H   0  0  0  0  0  0  0  0  0  0  0  0
   -0.3424   -0.4512    0.2403 C   0  0  1  0  0  0  0  0  0  0  0  0
    0.2971   -0.9257    0.9917 H   0  0  0  0  0  0  0  0  0  0  0  0
    0.3811   -0.5054   -1.1192 C   0  0  0  0  0  0  0  0  0  0  0  0
   -0.2506   -0.0039   -1.8608 H   0  0  0  0  0  0  0  0  0  0  0  0
    1.3232    0.0529   -1.0695 H   0  0  0  0  0  0  0  0  0  0  0  0
    0.6461   -1.9456   -1.6006 C   0  0  0  0  0  0  0  0  0  0  0  0
   -0.1550   -2.6329   -1.3287 H   0  0  0  0  0  0  0  0  0  0  0  0
    0.6933   -1.9411   -2.6932 H   0  0  0  0  0  0  0  0  0  0  0  0
    1.9847   -2.4609   -1.1004 C   0  0  0  0  0  0  0  0  0  0  0  0
    3.0465   -2.0287   -1.5083 O   0  0  0  0  0  0  0  0  0  0  0  0
    2.0262   -3.3187   -0.0391 N   0  0  0  0  0  0  0  0  0  0  0  0
    2.9269   -3.4414    0.4119 H   0  0  0  0  0  0  0  0  0  0  0  0
    1.1619   -3.4844    0.4794 H   0  0  0  0  0  0  0  0  0  0  0  0
   -0.5167    1.0218    0.6602 C   0  0  0  0  0  0  0  0  0  0  0  0
   -1.4570    1.6712    0.2171 O   0  0  0  0  0  0  0  0  0  0  0  0
    0.3258    1.5922    1.5959 N   0  0  0  0  0  0  0  0  0  0  0  0
    1.0822    1.0211    1.9628 H   0  0  0  0  0  0  0  0  0  0  0  0
    0.1866    2.9656    2.0650 C   0  0  0  0  0  0  0  0  0  0  0  0
   -0.7847    3.1083    2.5501 H   0  0  0  0  0  0  0  0  0  0  0  0
    0.9725    3.1992    2.7896 H   0  0  0  0  0  0  0  0  0  0  0  0
    0.2690    3.6668    1.2279 H   0  0  0  0  0  0  0  0  0  0  0  0
  1  2  1  0  0  0  0
  2  3  1  0  0  0  0
  2  4  1  0  0  0  0
  2  5  1  0  0  0  0
  5  6  2  0  0  0  0
  5  7  1  0  0  0  0
  7  8  1  0  0  0  0
  7  9  1  0  0  0  0
  9 10  1  0  0  0  0
  9 11  1  0  0  0  0
  9 22  1  0  0  0  0
 11 12  1  0  0  0  0
 11 13  1  0  0  0  0
 11 14  1  0  0  0  0
 14 15  1  0  0  0  0
 14 16  1  0  0  0  0
 14 17  1  0  0  0  0
 17 18  2  0  0  0  0
 17 19  1  0  0  0  0
 19 20  1  0  0  0  0
 19 21  1  0  0  0  0
 22 23  2  0  0  0  0
 22 24  1  0  0  0  0
 24 25  1  0  0  0  0
 24 26  1  0  0  0  0
 26 27  1  0  0  0  0
 26 28  1  0  0  0  0
 26 29  1  0  0  0  0
M  END
$$$$

  -OEChem-04042215583D

 29 28  0     1  0  0  0  0  0999 V2000
   -3.3222   -3.9205    1.2118 H   0  0  0  0  0  0  0  0  0  0  0  0
   -3.2987   -2.9111    0.7916 C   0  0  0  0  0  0  0  0  0  0  0  0
   -3.9258   -2.2595    1.4051 H   0  0  0  0  0  0  0  0  0  0  0  0
   -3.7027   -2.9428   -0.2232 H   0  0  0  0  0  0  0  0  0  0  0  0
   -1.8756   -2.3867    0.7673 C   0  0  0  0  0  0  0  0  0  0  0  0
   -0.9633   -3.0731    1.2024 O   0  0  0  0  0  0  0  0  0  0  0  0
   -1.6154   -1.1411    0.2352 N   0  0  0  0  0  0  0  0  0  0  0  0
   -2.4225   -0.5786   -0.0338 H   0  0  0  0  0  0  0  0  0  0  0  0
   -0.3197   -0.4421    0.2721 C   0  0  1  0  0  0  0  0  0  0  0  0
    0.3245   -0.8998    1.0299 H   0  0  0  0  0  0  0  0  0  0  0  0
    0.3928   -0.5096   -1.0933 C   0  0  0  0  0  0  0  0  0  0  0  0
   -0.2485   -0.0272   -1.8391 H   0  0  0  0  0  0  0  0  0  0  0  0
    1.3263    0.0633   -1.0507 H   0  0  0  0  0  0  0  0  0  0  0  0
    0.6956   -1.9430   -1.5699 C   0  0  0  0  0  0  0  0  0  0  0  0
   -0.1827   -2.5858   -1.4819 H   0  0  0  0  0  0  0  0  0  0  0  0
    0.9695   -1.9165   -2.6281 H   0  0  0  0  0  0  0  0  0  0  0  0
    1.8662   -2.5461   -0.8016 C   0  0  0  0  0  0  0  0  0  0  0  0
    2.9982   -2.1186   -0.9323 O   0  0  0  0  0  0  0  0  0  0  0  0
    1.6936   -3.5009    0.1565 N   0  0  0  0  0  0  0  0  0  0  0  0
    2.4910   -3.6551    0.7644 H   0  0  0  0  0  0  0  0  0  0  0  0
    0.7502   -3.6154    0.5347 H   0  0  0  0  0  0  0  0  0  0  0  0
   -0.5197    1.0332    0.6706 C   0  0  0  0  0  0  0  0  0  0  0  0
   -1.4680    1.6602    0.2125 O   0  0  0  0  0  0  0  0  0  0  0  0
    0.3077    1.6289    1.6039 N   0  0  0  0  0  0  0  0  0  0  0  0
    1.0751    1.0765    1.9772 H   0  0  0  0  0  0  0  0  0  0  0  0
    0.1368    3.0015    2.0648 C   0  0  0  0  0  0  0  0  0  0  0  0
   -0.8442    3.1290    2.5348 H   0  0  0  0  0  0  0  0  0  0  0  0
    0.9070    3.2516    2.8008 H   0  0  0  0  0  0  0  0  0  0  0  0
    0.2198    3.7009    1.2263 H   0  0  0  0  0  0  0  0  0  0  0  0
  1  2  1  0  0  0  0
  2  3  1  0  0  0  0
  2  4  1  0  0  0  0
  2  5  1  0  0  0  0
  5  6  2  0  0  0  0
  5  7  1  0  0  0  0
  7  8  1  0  0  0  0
  7  9  1  0  0  0  0
  9 10  1  0  0  0  0
  9 11  1  0  0  0  0
  9 22  1  0  0  0  0
 11 12  1  0  0  0  0
 11 13  1  0  0  0  0
 11 14  1  0  0  0  0
 14 15  1  0  0  0  0
 14 16  1  0  0  0  0
 14 17  1  0  0  0  0
 17 18  2  0  0  0  0
 17 19  1  0  0  0  0
 19 20  1  0  0  0  0
 19 21  1  0  0  0  0
 22 23  2  0  0  0  0
 22 24  1  0  0  0  0
 24 25  1  0  0  0  0
 24 26  1  0  0  0  0
 26 27  1  0  0  0  0
 26 28  1  0  0  0  0
 26 29  1  0  0  0  0
M  END
$$$$

  -OEChem-04042215583D

 29 28  0     1  0  0  0  0  0999 V2000
   -3.3666   -3.8776    1.2654 H   0  0  0  0  0  0  0  0  0  0  0  0
   -3.3090   -2.8904    0.7983 C   0  0  0  0  0  0  0  0  0  0  0  0
   -3.9647   -2.2055    1.3417 H   0  0  0  0  0  0  0  0  0  0  0  0
   -3.6530   -2.9693   -0.2358 H   0  0  0  0  0  0  0  0  0  0  0  0
   -1.8825   -2.3762    0.8324 C   0  0  0  0  0  0  0  0  0  0  0  0
   -1.0056   -3.0580    1.3342 O   0  0  0  0  0  0  0  0  0  0  0  0
   -1.5936   -1.1456    0.2840 N   0  0  0  0  0  0  0  0  0  0  0  0
   -2.3928   -0.6011   -0.0397 H   0  0  0  0  0  0  0  0  0  0  0  0
   -0.3105   -0.4209    0.3317 C   0  0  1  0  0  0  0  0  0  0  0  0
    0.3260   -0.8507    1.1124 H   0  0  0  0  0  0  0  0  0  0  0  0
    0.4159   -0.5111   -1.0269 C   0  0  0  0  0  0  0  0  0  0  0  0
   -0.2122   -0.0409   -1.7913 H   0  0  0  0  0  0  0  0  0  0  0  0
    1.3430    0.0706   -0.9678 H   0  0  0  0  0  0  0  0  0  0  0  0
    0.7662   -1.9369   -1.4949 C   0  0  0  0  0  0  0  0  0  0  0  0
   -0.1476   -2.5229   -1.6208 H   0  0  0  0  0  0  0  0  0  0  0  0
    1.2637   -1.8906   -2.4674 H   0  0  0  0  0  0  0  0  0  0  0  0
    1.6927   -2.6512   -0.5115 C   0  0  0  0  0  0  0  0  0  0  0  0
    2.7710   -2.1706   -0.2124 O   0  0  0  0  0  0  0  0  0  0  0  0
    1.3964   -3.8408    0.0825 N   0  0  0  0  0  0  0  0  0  0  0  0
    2.0459   -4.0897    0.8214 H   0  0  0  0  0  0  0  0  0  0  0  0
    0.4047   -3.9908    0.2680 H   0  0  0  0  0  0  0  0  0  0  0  0
   -0.5411    1.0617    0.6812 C   0  0  0  0  0  0  0  0  0  0  0  0
   -1.4823    1.6631    0.1759 O   0  0  0  0  0  0  0  0  0  0  0  0
    0.2559    1.6954    1.6155 N   0  0  0  0  0  0  0  0  0  0  0  0
    1.0220    1.1634    2.0209 H   0  0  0  0  0  0  0  0  0  0  0  0
    0.0688    3.0836    2.0181 C   0  0  0  0  0  0  0  0  0  0  0  0
   -0.9244    3.2248    2.4574 H   0  0  0  0  0  0  0  0  0  0  0  0
    0.8191    3.3656    2.7631 H   0  0  0  0  0  0  0  0  0  0  0  0
    0.1711    3.7500    1.1551 H   0  0  0  0  0  0  0  0  0  0  0  0
  1  2  1  0  0  0  0
  2  3  1  0  0  0  0
  2  4  1  0  0  0  0
  2  5  1  0  0  0  0
  5  6  2  0  0  0  0
  5  7  1  0  0  0  0
  7  8  1  0  0  0  0
  7  9  1  0  0  0  0
  9 10  1  0  0  0  0
  9 11  1  0  0  0  0
  9 22  1  0  0  0  0
 11 12  1  0  0  0  0
 11 13  1  0  0  0  0
 11 14  1  0  0  0  0
 14 15  1  0  0  0  0
 14 16  1  0  0  0  0
 14 17  1  0  0  0  0
 17 18  2  0  0  0  0
 17 19  1  0  0  0  0
 19 20  1  0  0  0  0
 19 21  1  0  0  0  0
 22 23  2  0  0  0  0
 22 24  1  0  0  0  0
 24 25  1  0  0  0  0
 24 26  1  0  0  0  0
 26 27  1  0  0  0  0
 26 28  1  0  0  0  0
 26 29  1  0  0  0  0
M  END
$$$$

  -OEChem-04042215583D

 29 28  0     1  0  0  0  0  0999 V2000
   -3.3955   -3.8121    1.3785 H   0  0  0  0  0  0  0  0  0  0  0  0
   -3.3177   -2.8590    0.8477 C   0  0  0  0  0  0  0  0  0  0  0  0
   -4.0115   -2.1467    1.3013 H   0  0  0  0  0  0  0  0  0  0  0  0
   -3.5967   -3.0136   -0.1973 H   0  0  0  0  0  0  0  0  0  0  0  0
   -1.8996   -2.3263    0.9328 C   0  0  0  0  0  0  0  0  0  0  0  0
   -1.0545   -2.9625    1.5366 O   0  0  0  0  0  0  0  0  0  0  0  0
   -1.5947   -1.1206    0.3380 N   0  0  0  0  0  0  0  0  0  0  0  0
   -2.3802   -0.5990   -0.0491 H   0  0  0  0  0  0  0  0  0  0  0  0
   -0.3144   -0.3924    0.3990 C   0  0  1  0  0  0  0  0  0  0  0  0
    0.2971   -0.7857    1.2179 H   0  0  0  0  0  0  0  0  0  0  0  0
    0.4486   -0.5238   -0.9396 C   0  0  0  0  0  0  0  0  0  0  0  0
   -0.1437   -0.0588   -1.7352 H   0  0  0  0  0  0  0  0  0  0  0  0
    1.3771    0.0510   -0.8498 H   0  0  0  0  0  0  0  0  0  0  0  0
    0.8277   -1.9517   -1.3849 C   0  0  0  0  0  0  0  0  0  0  0  0
   -0.0711   -2.4526   -1.7537 H   0  0  0  0  0  0  0  0  0  0  0  0
    1.5420   -1.9024   -2.2112 H   0  0  0  0  0  0  0  0  0  0  0  0
    1.4249   -2.8043   -0.2676 C   0  0  0  0  0  0  0  0  0  0  0  0
    2.2836   -2.3548    0.4712 O   0  0  0  0  0  0  0  0  0  0  0  0
    1.1352   -4.1296   -0.1196 N   0  0  0  0  0  0  0  0  0  0  0  0
    1.4322   -4.5043    0.7767 H   0  0  0  0  0  0  0  0  0  0  0  0
    0.2425   -4.4364   -0.4876 H   0  0  0  0  0  0  0  0  0  0  0  0
   -0.5570    1.1033    0.6733 C   0  0  0  0  0  0  0  0  0  0  0  0
   -1.4679    1.6871    0.0963 O   0  0  0  0  0  0  0  0  0  0  0  0
    0.2085    1.7752    1.6070 N   0  0  0  0  0  0  0  0  0  0  0  0
    0.9370    1.2485    2.0834 H   0  0  0  0  0  0  0  0  0  0  0  0
    0.0088    3.1773    1.9503 C   0  0  0  0  0  0  0  0  0  0  0  0
   -1.0088    3.3403    2.3204 H   0  0  0  0  0  0  0  0  0  0  0  0
    0.7126    3.4785    2.7321 H   0  0  0  0  0  0  0  0  0  0  0  0
    0.1720    3.8130    1.0739 H   0  0  0  0  0  0  0  0  0  0  0  0
  1  2  1  0  0  0  0
  2  3  1  0  0  0  0
  2  4  1  0  0  0  0
  2  5  1  0  0  0  0
  5  6  2  0  0  0  0
  5  7  1  0  0  0  0
  7  8  1  0  0  0  0
  7  9  1  0  0  0  0
  9 10  1  0  0  0  0
  9 11  1  0  0  0  0
  9 22  1  0  0  0  0
 11 12  1  0  0  0  0
 11 13  1  0  0  0  0
 11 14  1  0  0  0  0
 14 15  1  0  0  0  0
 14 16  1  0  0  0  0
 14 17  1  0  0  0  0
 17 18  2  0  0  0  0
 17 19  1  0  0  0  0
 19 20  1  0  0  0  0
 19 21  1  0  0  0  0
 22 23  2  0  0  0  0
 22 24  1  0  0  0  0
 24 25  1  0  0  0  0
 24 26  1  0  0  0  0
 26 27  1  0  0  0  0
 26 28  1  0  0  0  0
 26 29  1  0  0  0  0
M  END
$$$$

  -OEChem-04042215583D

 29 28  0     1  0  0  0  0  0999 V2000
   -3.4143   -3.8156    1.3860 H   0  0  0  0  0  0  0  0  0  0  0  0
   -3.3140   -2.8715    0.8431 C   0  0  0  0  0  0  0  0  0  0  0  0
   -4.0568   -2.1664    1.2243 H   0  0  0  0  0  0  0  0  0  0  0  0
   -3.5043   -3.0527   -0.2174 H   0  0  0  0  0  0  0  0  0  0  0  0
   -1.9197   -2.3045    1.0317 C   0  0  0  0  0  0  0  0  0  0  0  0
   -1.1417   -2.8662    1.7814 O   0  0  0  0  0  0  0  0  0  0  0  0
   -1.5809   -1.1273    0.3986 N   0  0  0  0  0  0  0  0  0  0  0  0
   -2.3355   -0.6445   -0.0873 H   0  0  0  0  0  0  0  0  0  0  0  0
   -0.2983   -0.4028    0.4676 C   0  0  1  0  0  0  0  0  0  0  0  0
    0.2994   -0.7716    1.3082 H   0  0  0  0  0  0  0  0  0  0  0  0
    0.4946   -0.5503   -0.8567 C   0  0  0  0  0  0  0  0  0  0  0  0
   -0.0729   -0.0764   -1.6654 H   0  0  0  0  0  0  0  0  0  0  0  0
    1.4188    0.0257   -0.7351 H   0  0  0  0  0  0  0  0  0  0  0  0
    0.9097   -1.9619   -1.3286 C   0  0  0  0  0  0  0  0  0  0  0  0
    0.1057   -2.3606   -1.9524 H   0  0  0  0  0  0  0  0  0  0  0  0
    1.8036   -1.8910   -1.9544 H   0  0  0  0  0  0  0  0  0  0  0  0
    1.1691   -2.9691   -0.2156 C   0  0  0  0  0  0  0  0  0  0  0  0
    1.9881   -2.7278    0.6525 O   0  0  0  0  0  0  0  0  0  0  0  0
    0.6252   -4.2215   -0.2146 N   0  0  0  0  0  0  0  0  0  0  0  0
    0.6810   -4.6807    0.6913 H   0  0  0  0  0  0  0  0  0  0  0  0
   -0.2027   -4.3661   -0.7789 H   0  0  0  0  0  0  0  0  0  0  0  0
   -0.5557    1.1027    0.6724 C   0  0  0  0  0  0  0  0  0  0  0  0
   -1.4367    1.6636    0.0293 O   0  0  0  0  0  0  0  0  0  0  0  0
    0.1770    1.8165    1.6013 N   0  0  0  0  0  0  0  0  0  0  0  0
    0.8603    1.3039    2.1534 H   0  0  0  0  0  0  0  0  0  0  0  0
   -0.0467    3.2283    1.8861 C   0  0  0  0  0  0  0  0  0  0  0  0
   -1.0678    3.3899    2.2471 H   0  0  0  0  0  0  0  0  0  0  0  0
    0.6509    3.5736    2.6553 H   0  0  0  0  0  0  0  0  0  0  0  0
    0.1080    3.8305    0.9847 H   0  0  0  0  0  0  0  0  0  0  0  0
  1  2  1  0  0  0  0
  2  3  1  0  0  0  0
  2  4  1  0  0  0  0
  2  5  1  0  0  0  0
  5  6  2  0  0  0  0
  5  7  1  0  0  0  0
  7  8  1  0  0  0  0
  7  9  1  0  0  0  0
  9 10  1  0  0  0  0
  9 11  1  0  0  0  0
  9 22  1  0  0  0  0
 11 12  1  0  0  0  0
 11 13  1  0  0  0  0
 11 14  1  0  0  0  0
 14 15  1  0  0  0  0
 14 16  1  0  0  0  0
 14 17  1  0  0  0  0
 17 18  2  0  0  0  0
 17 19  1  0  0  0  0
 19 20  1  0  0  0  0
 19 21  1  0  0  0  0
 22 23  2  0  0  0  0
 22 24  1  0  0  0  0
 24 25  1  0  0  0  0
 24 26  1  0  0  0  0
 26 27  1  0  0  0  0
 26 28  1  0  0  0  0
 26 29  1  0  0  0  0
M  END
$$$$

  -OEChem-04042215583D

 29 28  0     1  0  0  0  0  0999 V2000
   -3.4085   -3.8446    1.4406 H   0  0  0  0  0  0  0  0  0  0  0  0
   -3.2906   -2.9327    0.8484 C   0  0  0  0  0  0  0  0  0  0  0  0
   -4.0723   -2.2246    1.1343 H   0  0  0  0  0  0  0  0  0  0  0  0
   -3.4042   -3.1822   -0.2090 H   0  0  0  0  0  0  0  0  0  0  0  0
   -1.9243   -2.3212    1.0950 C   0  0  0  0  0  0  0  0  0  0  0  0
   -1.1843   -2.8221    1.9216 O   0  0  0  0  0  0  0  0  0  0  0  0
   -1.5791   -1.1583    0.4390 N   0  0  0  0  0  0  0  0  0  0  0  0
   -2.3175   -0.7123   -0.1033 H   0  0  0  0  0  0  0  0  0  0  0  0
   -0.3063   -0.4173    0.5195 C   0  0  1  0  0  0  0  0  0  0  0  0
    0.2783   -0.7632    1.3794 H   0  0  0  0  0  0  0  0  0  0  0  0
    0.5362   -0.5539   -0.7787 C   0  0  0  0  0  0  0  0  0  0  0  0
   -0.0211   -0.0909   -1.6010 H   0  0  0  0  0  0  0  0  0  0  0  0
    1.4364    0.0526   -0.6285 H   0  0  0  0  0  0  0  0  0  0  0  0
    1.0208   -1.9383   -1.2716 C   0  0  0  0  0  0  0  0  0  0  0  0
    0.4092   -2.2240   -2.1316 H   0  0  0  0  0  0  0  0  0  0  0  0
    2.0514   -1.8514   -1.6281 H   0  0  0  0  0  0  0  0  0  0  0  0
    0.9594   -3.0825   -0.2727 C   0  0  0  0  0  0  0  0  0  0  0  0
    1.7415   -3.1156    0.6582 O   0  0  0  0  0  0  0  0  0  0  0  0
    0.1688   -4.1816   -0.4535 N   0  0  0  0  0  0  0  0  0  0  0  0
    0.0647   -4.7502    0.3838 H   0  0  0  0  0  0  0  0  0  0  0  0
   -0.6057   -4.1055   -1.1009 H   0  0  0  0  0  0  0  0  0  0  0  0
   -0.5990    1.0881    0.6774 C   0  0  0  0  0  0  0  0  0  0  0  0
   -1.4691    1.6168   -0.0066 O   0  0  0  0  0  0  0  0  0  0  0  0
    0.0963    1.8393    1.6056 N   0  0  0  0  0  0  0  0  0  0  0  0
    0.7584    1.3498    2.2025 H   0  0  0  0  0  0  0  0  0  0  0  0
   -0.1763    3.2480    1.8617 C   0  0  0  0  0  0  0  0  0  0  0  0
   -1.2091    3.3832    2.1996 H   0  0  0  0  0  0  0  0  0  0  0  0
    0.4945    3.6272    2.6386 H   0  0  0  0  0  0  0  0  0  0  0  0
   -0.0219    3.8398    0.9533 H   0  0  0  0  0  0  0  0  0  0  0  0
  1  2  1  0  0  0  0
  2  3  1  0  0  0  0
  2  4  1  0  0  0  0
  2  5  1  0  0  0  0
  5  6  2  0  0  0  0
  5  7  1  0  0  0  0
  7  8  1  0  0  0  0
  7  9  1  0  0  0  0
  9 10  1  0  0  0  0
  9 11  1  0  0  0  0
  9 22  1  0  0  0  0
 11 12  1  0  0  0  0
 11 13  1  0  0  0  0
 11 14  1  0  0  0  0
 14 15  1  0  0  0  0
 14 16  1  0  0  0  0
 14 17  1  0  0  0  0
 17 18  2  0  0  0  0
 17 19  1  0  0  0  0
 19 20  1  0  0  0  0
 19 21  1  0  0  0  0
 22 23  2  0  0  0  0
 22 24  1  0  0  0  0
 24 25  1  0  0  0  0
 24 26  1  0  0  0  0
 26 27  1  0  0  0  0
 26 28  1  0  0  0  0
 26 29  1  0  0  0  0
M  END
$$$$

  -OEChem-04042215583D

 29 28  0     1  0  0  0  0  0999 V2000
   -3.4936   -3.9924    1.1009 H   0  0  0  0  0  0  0  0  0  0  0  0
   -3.3854   -3.0560    0.5469 C   0  0  0  0  0  0  0  0  0  0  0  0
   -4.2273   -2.4028    0.7874 H   0  0  0  0  0  0  0  0  0  0  0  0
   -3.3977   -3.2787   -0.5232 H   0  0  0  0  0  0  0  0  0  0  0  0
   -2.0786   -2.3797    0.9140 C   0  0  0  0  0  0  0  0  0  0  0  0
   -1.3363   -2.8832    1.7466 O   0  0  0  0  0  0  0  0  0  0  0  0
   -1.7613   -1.1487    0.3728 N   0  0  0  0  0  0  0  0  0  0  0  0
   -2.4484   -0.7302   -0.2515 H   0  0  0  0  0  0  0  0  0  0  0  0
   -0.4542   -0.4803    0.4810 C   0  0  1  0  0  0  0  0  0  0  0  0
    0.1581   -0.9507    1.2564 H   0  0  0  0  0  0  0  0  0  0  0  0
    0.3232   -0.4626   -0.8657 C   0  0  0  0  0  0  0  0  0  0  0  0
   -0.2747    0.1158   -1.5800 H   0  0  0  0  0  0  0  0  0  0  0  0
    1.2461    0.1046   -0.7027 H   0  0  0  0  0  0  0  0  0  0  0  0
    0.7187   -1.7790   -1.5862 C   0  0  0  0  0  0  0  0  0  0  0  0
    0.2817   -1.7622   -2.5895 H   0  0  0  0  0  0  0  0  0  0  0  0
    1.8042   -1.7898   -1.7175 H   0  0  0  0  0  0  0  0  0  0  0  0
    0.3273   -3.1008   -0.9438 C   0  0  0  0  0  0  0  0  0  0  0  0
   -0.5886   -3.7677   -1.3905 O   0  0  0  0  0  0  0  0  0  0  0  0
    1.0304   -3.6372    0.0960 N   0  0  0  0  0  0  0  0  0  0  0  0
    1.6229   -3.0082    0.6236 H   0  0  0  0  0  0  0  0  0  0  0  0
    0.5141   -4.3495    0.6075 H   0  0  0  0  0  0  0  0  0  0  0  0
   -0.6765    1.0040    0.8469 C   0  0  0  0  0  0  0  0  0  0  0  0
   -1.5070    1.6720    0.2415 O   0  0  0  0  0  0  0  0  0  0  0  0
    0.0908    1.6032    1.8290 N   0  0  0  0  0  0  0  0  0  0  0  0
    0.6951    1.0022    2.3819 H   0  0  0  0  0  0  0  0  0  0  0  0
   -0.1051    2.9833    2.2577 C   0  0  0  0  0  0  0  0  0  0  0  0
   -1.1087    3.1161    2.6752 H   0  0  0  0  0  0  0  0  0  0  0  0
    0.6279    3.2486    3.0255 H   0  0  0  0  0  0  0  0  0  0  0  0
    0.0188    3.6691    1.4129 H   0  0  0  0  0  0  0  0  0  0  0  0
  1  2  1  0  0  0  0
  2  3  1  0  0  0  0
  2  4  1  0  0  0  0
  2  5  1  0  0  0  0
  5  6  2  0  0  0  0
  5  7  1  0  0  0  0
  7  8  1  0  0  0  0
  7  9  1  0  0  0  0
  9 10  1  0  0  0  0
  9 11  1  0  0  0  0
  9 22  1  0  0  0  0
 11 12  1  0  0  0  0
 11 13  1  0  0  0  0
 11 14  1  0  0  0  0
 14 15  1  0  0  0  0
 14 16  1  0  0  0  0
 14 17  1  0  0  0  0
 17 18  2  0  0  0  0
 17 19  1  0  0  0  0
 19 20  1  0  0  0  0
 19 21  1  0  0  0  0
 22 23  2  0  0  0  0
 22 24  1  0  0  0  0
 24 25  1  0  0  0  0
 24 26  1  0  0  0  0
 26 27  1  0  0  0  0
 26 28  1  0  0  0  0
 26 29  1  0  0  0  0
M  END
$$$$

  -OEChem-04042215583D

 29 28  0     1  0  0  0  0  0999 V2000
   -3.5588   -3.8662    1.3335 H   0  0  0  0  0  0  0  0  0  0  0  0
   -3.4544   -2.9401    0.7619 C   0  0  0  0  0  0  0  0  0  0  0  0
   -4.2441   -2.2475    1.0622 H   0  0  0  0  0  0  0  0  0  0  0  0
   -3.5647   -3.1694   -0.3011 H   0  0  0  0  0  0  0  0  0  0  0  0
   -2.0938   -2.3193    1.0140 C   0  0  0  0  0  0  0  0  0  0  0  0
   -1.3041   -2.8570    1.7787 O   0  0  0  0  0  0  0  0  0  0  0  0
   -1.7715   -1.1067    0.4374 N   0  0  0  0  0  0  0  0  0  0  0  0
   -2.4828   -0.6758   -0.1506 H   0  0  0  0  0  0  0  0  0  0  0  0
   -0.4461   -0.4672    0.4662 C   0  0  1  0  0  0  0  0  0  0  0  0
    0.1879   -0.9374    1.2242 H   0  0  0  0  0  0  0  0  0  0  0  0
    0.2883   -0.4882   -0.9054 C   0  0  0  0  0  0  0  0  0  0  0  0
   -0.3473    0.0700   -1.6031 H   0  0  0  0  0  0  0  0  0  0  0  0
    1.2160    0.0855   -0.8029 H   0  0  0  0  0  0  0  0  0  0  0  0
    0.6437   -1.8159   -1.6255 C   0  0  0  0  0  0  0  0  0  0  0  0
    0.4399   -1.6963   -2.6940 H   0  0  0  0  0  0  0  0  0  0  0  0
    1.7215   -1.9712   -1.5285 H   0  0  0  0  0  0  0  0  0  0  0  0
   -0.0264   -3.1017   -1.1673 C   0  0  0  0  0  0  0  0  0  0  0  0
   -1.0755   -3.4767   -1.6592 O   0  0  0  0  0  0  0  0  0  0  0  0
    0.5566   -3.9356   -0.2572 N   0  0  0  0  0  0  0  0  0  0  0  0
    1.2533   -3.5268    0.3547 H   0  0  0  0  0  0  0  0  0  0  0  0
   -0.0849   -4.6149    0.1431 H   0  0  0  0  0  0  0  0  0  0  0  0
   -0.6180    1.0274    0.8158 C   0  0  0  0  0  0  0  0  0  0  0  0
   -1.4667    1.7034    0.2457 O   0  0  0  0  0  0  0  0  0  0  0  0
    0.2123    1.6242    1.7467 N   0  0  0  0  0  0  0  0  0  0  0  0
    0.8403    1.0204    2.2695 H   0  0  0  0  0  0  0  0  0  0  0  0
    0.0785    3.0177    2.1536 C   0  0  0  0  0  0  0  0  0  0  0  0
   -0.9105    3.1960    2.5889 H   0  0  0  0  0  0  0  0  0  0  0  0
    0.8366    3.2686    2.9017 H   0  0  0  0  0  0  0  0  0  0  0  0
    0.2106    3.6820    1.2931 H   0  0  0  0  0  0  0  0  0  0  0  0
  1  2  1  0  0  0  0
  2  3  1  0  0  0  0
  2  4  1  0  0  0  0
  2  5  1  0  0  0  0
  5  6  2  0  0  0  0
  5  7  1  0  0  0  0
  7  8  1  0  0  0  0
  7  9  1  0  0  0  0
  9 10  1  0  0  0  0
  9 11  1  0  0  0  0
  9 22  1  0  0  0  0
 11 12  1  0  0  0  0
 11 13  1  0  0  0  0
 11 14  1  0  0  0  0
 14 15  1  0  0  0  0
 14 16  1  0  0  0  0
 14 17  1  0  0  0  0
 17 18  2  0  0  0  0
 17 19  1  0  0  0  0
 19 20  1  0  0  0  0
 19 21  1  0  0  0  0
 22 23  2  0  0  0  0
 22 24  1  0  0  0  0
 24 25  1  0  0  0  0
 24 26  1  0  0  0  0
 26 27  1  0  0  0  0
 26 28  1  0  0  0  0
 26 29  1  0  0  0  0
M  END
$$$$

  -OEChem-04042215583D

 29 28  0     1  0  0  0  0  0999 V2000
   -3.6206   -3.7377    1.4125 H   0  0  0  0  0  0  0  0  0  0  0  0
   -3.5027   -2.8248    0.8226 C   0  0  0  0  0  0  0  0  0  0  0  0
   -4.2667   -2.1056    1.1271 H   0  0  0  0  0  0  0  0  0  0  0  0
   -3.6415   -3.0680   -0.2341 H   0  0  0  0  0  0  0  0  0  0  0  0
   -2.1213   -2.2361    1.0375 C   0  0  0  0  0  0  0  0  0  0  0  0
   -1.3303   -2.7825    1.7946 O   0  0  0  0  0  0  0  0  0  0  0  0
   -1.7678   -1.0611    0.4055 N   0  0  0  0  0  0  0  0  0  0  0  0
   -2.4653   -0.6393   -0.2056 H   0  0  0  0  0  0  0  0  0  0  0  0
   -0.4335   -0.4431    0.4310 C   0  0  1  0  0  0  0  0  0  0  0  0
    0.1674   -0.8787    1.2353 H   0  0  0  0  0  0  0  0  0  0  0  0
    0.3489   -0.5653   -0.9065 C   0  0  0  0  0  0  0  0  0  0  0  0
   -0.2573   -0.0524   -1.6626 H   0  0  0  0  0  0  0  0  0  0  0  0
    1.2819    0.0010   -0.8142 H   0  0  0  0  0  0  0  0  0  0  0  0
    0.7018   -1.9479   -1.5134 C   0  0  0  0  0  0  0  0  0  0  0  0
    0.8069   -1.8369   -2.5967 H   0  0  0  0  0  0  0  0  0  0  0  0
    1.6840   -2.2351   -1.1284 H   0  0  0  0  0  0  0  0  0  0  0  0
   -0.2307   -3.1232   -1.2546 C   0  0  0  0  0  0  0  0  0  0  0  0
   -1.2969   -3.2276   -1.8341 O   0  0  0  0  0  0  0  0  0  0  0  0
    0.1151   -4.1588   -0.4350 N   0  0  0  0  0  0  0  0  0  0  0  0
    0.8007   -3.9583    0.2854 H   0  0  0  0  0  0  0  0  0  0  0  0
   -0.6578   -4.7732   -0.1971 H   0  0  0  0  0  0  0  0  0  0  0  0
   -0.5842    1.0707    0.6968 C   0  0  0  0  0  0  0  0  0  0  0  0
   -1.4132    1.7284    0.0788 O   0  0  0  0  0  0  0  0  0  0  0  0
    0.2364    1.7025    1.6131 N   0  0  0  0  0  0  0  0  0  0  0  0
    0.8553    1.1188    2.1683 H   0  0  0  0  0  0  0  0  0  0  0  0
    0.1178    3.1168    1.9471 C   0  0  0  0  0  0  0  0  0  0  0  0
   -0.8781    3.3344    2.3473 H   0  0  0  0  0  0  0  0  0  0  0  0
    0.8612    3.3907    2.7018 H   0  0  0  0  0  0  0  0  0  0  0  0
    0.2839    3.7357    1.0591 H   0  0  0  0  0  0  0  0  0  0  0  0
  1  2  1  0  0  0  0
  2  3  1  0  0  0  0
  2  4  1  0  0  0  0
  2  5  1  0  0  0  0
  5  6  2  0  0  0  0
  5  7  1  0  0  0  0
  7  8  1  0  0  0  0
  7  9  1  0  0  0  0
  9 10  1  0  0  0  0
  9 11  1  0  0  0  0
  9 22  1  0  0  0  0
 11 12  1  0  0  0  0
 11 13  1  0  0  0  0
 11 14  1  0  0  0  0
 14 15  1  0  0  0  0
 14 16  1  0  0  0  0
 14 17  1  0  0  0  0
 17 18  2  0  0  0  0
 17 19  1  0  0  0  0
 19 20  1  0  0  0  0
 19 21  1  0  0  0  0
 22 23  2  0  0  0  0
 22 24  1  0  0  0  0
 24 25  1  0  0  0  0
 24 26  1  0  0  0  0
 26 27  1  0  0  0  0
 26 28  1  0  0  0  0
 26 29  1  0  0  0  0
M  END
$$$$

  -OEChem-04042215583D

 29 28  0     1  0  0  0  0  0999 V2000
   -3.4783   -3.7923    1.4952 H   0  0  0  0  0  0  0  0  0  0  0  0
   -3.4194   -2.8449    0.9526 C   0  0  0  0  0  0  0  0  0  0  0  0
   -4.1432   -2.1470    1.3801 H   0  0  0  0  0  0  0  0  0  0  0  0
   -3.6711   -3.0220   -0.0965 H   0  0  0  0  0  0  0  0  0  0  0  0
   -2.0212   -2.2670    1.0547 C   0  0  0  0  0  0  0  0  0  0  0  0
   -1.1515   -2.8641    1.6749 O   0  0  0  0  0  0  0  0  0  0  0  0
   -1.7299   -1.0668    0.4403 N   0  0  0  0  0  0  0  0  0  0  0  0
   -2.4816   -0.6191   -0.0826 H   0  0  0  0  0  0  0  0  0  0  0  0
   -0.4069   -0.4291    0.3952 C   0  0  1  0  0  0  0  0  0  0  0  0
    0.2470   -0.8778    1.1494 H   0  0  0  0  0  0  0  0  0  0  0  0
    0.2942   -0.5243   -0.9864 C   0  0  0  0  0  0  0  0  0  0  0  0
   -0.3522   -0.0088   -1.7067 H   0  0  0  0  0  0  0  0  0  0  0  0
    1.2322    0.0393   -0.9379 H   0  0  0  0  0  0  0  0  0  0  0  0
    0.6117   -1.9122   -1.5951 C   0  0  0  0  0  0  0  0  0  0  0  0
    0.9029   -1.7781   -2.6407 H   0  0  0  0  0  0  0  0  0  0  0  0
    1.4808   -2.3148   -1.0683 H   0  0  0  0  0  0  0  0  0  0  0  0
   -0.4783   -2.9767   -1.5501 C   0  0  0  0  0  0  0  0  0  0  0  0
   -1.5430   -2.8308   -2.1231 O   0  0  0  0  0  0  0  0  0  0  0  0
   -0.2975   -4.1744   -0.9204 N   0  0  0  0  0  0  0  0  0  0  0  0
   -1.1436   -4.7266   -0.8247 H   0  0  0  0  0  0  0  0  0  0  0  0
    0.3709   -4.1866   -0.1558 H   0  0  0  0  0  0  0  0  0  0  0  0
   -0.5523    1.0731    0.7192 C   0  0  0  0  0  0  0  0  0  0  0  0
   -1.4327    1.7378    0.1858 O   0  0  0  0  0  0  0  0  0  0  0  0
    0.3235    1.6864    1.5962 N   0  0  0  0  0  0  0  0  0  0  0  0
    0.9923    1.0960    2.0823 H   0  0  0  0  0  0  0  0  0  0  0  0
    0.2233    3.0922    1.9695 C   0  0  0  0  0  0  0  0  0  0  0  0
   -0.7479    3.2985    2.4315 H   0  0  0  0  0  0  0  0  0  0  0  0
    1.0088    3.3504    2.6862 H   0  0  0  0  0  0  0  0  0  0  0  0
    0.3369    3.7314    1.0875 H   0  0  0  0  0  0  0  0  0  0  0  0
  1  2  1  0  0  0  0
  2  3  1  0  0  0  0
  2  4  1  0  0  0  0
  2  5  1  0  0  0  0
  5  6  2  0  0  0  0
  5  7  1  0  0  0  0
  7  8  1  0  0  0  0
  7  9  1  0  0  0  0
  9 10  1  0  0  0  0
  9 11  1  0  0  0  0
  9 22  1  0  0  0  0
 11 12  1  0  0  0  0
 11 13  1  0  0  0  0
 11 14  1  0  0  0  0
 14 15  1  0  0  0  0
 14 16  1  0  0  0  0
 14 17  1  0  0  0  0
 17 18  2  0  0  0  0
 17 19  1  0  0  0  0
 19 20  1  0  0  0  0
 19 21  1  0  0  0  0
 22 23  2  0  0  0  0
 22 24  1  0  0  0  0
 24 25  1  0  0  0  0
 24 26  1  0  0  0  0
 26 27  1  0  0  0  0
 26 28  1  0  0  0  0
 26 29  1  0  0  0  0
M  END
$$$$

  -OEChem-04042215583D

 29 28  0     1  0  0  0  0  0999 V2000
   -3.3706   -3.8586    1.4090 H   0  0  0  0  0  0  0  0  0  0  0  0
   -3.3388   -2.8955    0.8925 C   0  0  0  0  0  0  0  0  0  0  0  0
   -4.0619   -2.2213    1.3576 H   0  0  0  0  0  0  0  0  0  0  0  0
   -3.6139   -3.0458   -0.1549 H   0  0  0  0  0  0  0  0  0  0  0  0
   -1.9469   -2.2997    0.9775 C   0  0  0  0  0  0  0  0  0  0  0  0
   -1.0448   -2.9201    1.5240 O   0  0  0  0  0  0  0  0  0  0  0  0
   -1.6886   -1.0814    0.3857 N   0  0  0  0  0  0  0  0  0  0  0  0
   -2.4611   -0.6236   -0.0972 H   0  0  0  0  0  0  0  0  0  0  0  0
   -0.3851   -0.4045    0.3575 C   0  0  1  0  0  0  0  0  0  0  0  0
    0.2716   -0.8450    1.1143 H   0  0  0  0  0  0  0  0  0  0  0  0
    0.3221   -0.4991   -1.0167 C   0  0  0  0  0  0  0  0  0  0  0  0
   -0.3131   -0.0010   -1.7588 H   0  0  0  0  0  0  0  0  0  0  0  0
    1.2583    0.0666   -0.9624 H   0  0  0  0  0  0  0  0  0  0  0  0
    0.6515   -1.9114   -1.5519 C   0  0  0  0  0  0  0  0  0  0  0  0
    1.1733   -1.8117   -2.5077 H   0  0  0  0  0  0  0  0  0  0  0  0
    1.3405   -2.3912   -0.8517 H   0  0  0  0  0  0  0  0  0  0  0  0
   -0.5326   -2.8484   -1.7711 C   0  0  0  0  0  0  0  0  0  0  0  0
   -1.5113   -2.5205   -2.4171 O   0  0  0  0  0  0  0  0  0  0  0  0
   -0.5522   -4.1168   -1.2667 N   0  0  0  0  0  0  0  0  0  0  0  0
   -1.4487   -4.5860   -1.3426 H   0  0  0  0  0  0  0  0  0  0  0  0
    0.0156   -4.2837   -0.4399 H   0  0  0  0  0  0  0  0  0  0  0  0
   -0.5575    1.0892    0.7026 C   0  0  0  0  0  0  0  0  0  0  0  0
   -1.4620    1.7392    0.1926 O   0  0  0  0  0  0  0  0  0  0  0  0
    0.3050    1.7064    1.5901 N   0  0  0  0  0  0  0  0  0  0  0  0
    1.0000    1.1270    2.0519 H   0  0  0  0  0  0  0  0  0  0  0  0
    0.1707    3.1011    1.9932 C   0  0  0  0  0  0  0  0  0  0  0  0
   -0.7984    3.2689    2.4747 H   0  0  0  0  0  0  0  0  0  0  0  0
    0.9601    3.3682    2.7022 H   0  0  0  0  0  0  0  0  0  0  0  0
    0.2511    3.7611    1.1230 H   0  0  0  0  0  0  0  0  0  0  0  0
  1  2  1  0  0  0  0
  2  3  1  0  0  0  0
  2  4  1  0  0  0  0
  2  5  1  0  0  0  0
  5  6  2  0  0  0  0
  5  7  1  0  0  0  0
  7  8  1  0  0  0  0
  7  9  1  0  0  0  0
  9 10  1  0  0  0  0
  9 11  1  0  0  0  0
  9 22  1  0  0  0  0
 11 12  1  0  0  0  0
 11 13  1  0  0  0  0
 11 14  1  0  0  0  0
 14 15  1  0  0  0  0
 14 16  1  0  0  0  0
 14 17  1  0  0  0  0
 17 18  2  0  0  0  0
 17 19  1  0  0  0  0
 19 20  1  0  0  0  0
 19 21  1  0  0  0  0
 22 23  2  0  0  0  0
 22 24  1  0  0  0  0
 24 25  1  0  0  0  0
 24 26  1  0  0  0  0
 26 27  1  0  0  0  0
 26 28  1  0  0  0  0
 26 29  1  0  0  0  0
M  END
$$$$

  -OEChem-04042215583D

 29 28  0     1  0  0  0  0  0999 V2000
   -3.2935   -3.8931    1.3212 H   0  0  0  0  0  0  0  0  0  0  0  0
   -3.2785   -2.9086    0.8457 C   0  0  0  0  0  0  0  0  0  0  0  0
   -3.9612   -2.2467    1.3840 H   0  0  0  0  0  0  0  0  0  0  0  0
   -3.6210   -3.0094   -0.1874 H   0  0  0  0  0  0  0  0  0  0  0  0
   -1.8750   -2.3344    0.8697 C   0  0  0  0  0  0  0  0  0  0  0  0
   -0.9510   -2.9903    1.3305 O   0  0  0  0  0  0  0  0  0  0  0  0
   -1.6327   -1.1025    0.3007 N   0  0  0  0  0  0  0  0  0  0  0  0
   -2.4325   -0.5996   -0.0835 H   0  0  0  0  0  0  0  0  0  0  0  0
   -0.3463   -0.3921    0.3100 C   0  0  1  0  0  0  0  0  0  0  0  0
    0.2996   -0.8242    1.0811 H   0  0  0  0  0  0  0  0  0  0  0  0
    0.3843   -0.4905   -1.0470 C   0  0  0  0  0  0  0  0  0  0  0  0
   -0.2234   -0.0053   -1.8201 H   0  0  0  0  0  0  0  0  0  0  0  0
    1.3209    0.0719   -0.9733 H   0  0  0  0  0  0  0  0  0  0  0  0
    0.7220   -1.9278   -1.4968 C   0  0  0  0  0  0  0  0  0  0  0  0
    1.4589   -1.8803   -2.3032 H   0  0  0  0  0  0  0  0  0  0  0  0
    1.1828   -2.4642   -0.6627 H   0  0  0  0  0  0  0  0  0  0  0  0
   -0.4644   -2.7359   -2.0153 C   0  0  0  0  0  0  0  0  0  0  0  0
   -1.2577   -2.2928   -2.8251 O   0  0  0  0  0  0  0  0  0  0  0  0
   -0.7095   -4.0050   -1.5764 N   0  0  0  0  0  0  0  0  0  0  0  0
   -1.6094   -4.3849   -1.8510 H   0  0  0  0  0  0  0  0  0  0  0  0
   -0.3227   -4.2543   -0.6683 H   0  0  0  0  0  0  0  0  0  0  0  0
   -0.5567    1.0929    0.6682 C   0  0  0  0  0  0  0  0  0  0  0  0
   -1.4892    1.7161    0.1760 O   0  0  0  0  0  0  0  0  0  0  0  0
    0.2730    1.7190    1.5803 N   0  0  0  0  0  0  0  0  0  0  0  0
    0.9905    1.1567    2.0289 H   0  0  0  0  0  0  0  0  0  0  0  0
    0.0821    3.0970    2.0171 C   0  0  0  0  0  0  0  0  0  0  0  0
   -0.8930    3.2136    2.5016 H   0  0  0  0  0  0  0  0  0  0  0  0
    0.8599    3.3779    2.7336 H   0  0  0  0  0  0  0  0  0  0  0  0
    0.1355    3.7810    1.1635 H   0  0  0  0  0  0  0  0  0  0  0  0
  1  2  1  0  0  0  0
  2  3  1  0  0  0  0
  2  4  1  0  0  0  0
  2  5  1  0  0  0  0
  5  6  2  0  0  0  0
  5  7  1  0  0  0  0
  7  8  1  0  0  0  0
  7  9  1  0  0  0  0
  9 10  1  0  0  0  0
  9 11  1  0  0  0  0
  9 22  1  0  0  0  0
 11 12  1  0  0  0  0
 11 13  1  0  0  0  0
 11 14  1  0  0  0  0
 14 15  1  0  0  0  0
 14 16  1  0  0  0  0
 14 17  1  0  0  0  0
 17 18  2  0  0  0  0
 17 19  1  0  0  0  0
 19 20  1  0  0  0  0
 19 21  1  0  0  0  0
 22 23  2  0  0  0  0
 22 24  1  0  0  0  0
 24 25  1  0  0  0  0
 24 26  1  0  0  0  0
 26 27  1  0  0  0  0
 26 28  1  0  0  0  0
 26 29  1  0  0  0  0
M  END
$$$$

  -OEChem-04042215583D

 29 28  0     1  0  0  0  0  0999 V2000
   -3.2949   -3.8741    1.2560 H   0  0  0  0  0  0  0  0  0  0  0  0
   -3.2632   -2.9049    0.7509 C   0  0  0  0  0  0  0  0  0  0  0  0
   -4.0406   -2.2619    1.1708 H   0  0  0  0  0  0  0  0  0  0  0  0
   -3.4601   -3.0536   -0.3140 H   0  0  0  0  0  0  0  0  0  0  0  0
   -1.9033   -2.2603    0.9363 C   0  0  0  0  0  0  0  0  0  0  0  0
   -1.0264   -2.8457    1.5551 O   0  0  0  0  0  0  0  0  0  0  0  0
   -1.6448   -1.0402    0.3498 N   0  0  0  0  0  0  0  0  0  0  0  0
   -2.3830   -0.6379   -0.2270 H   0  0  0  0  0  0  0  0  0  0  0  0
   -0.3573   -0.3327    0.3741 C   0  0  1  0  0  0  0  0  0  0  0  0
    0.2827   -0.7558    1.1550 H   0  0  0  0  0  0  0  0  0  0  0  0
    0.3454   -0.4976   -0.9878 C   0  0  0  0  0  0  0  0  0  0  0  0
   -0.2463   -0.0201   -1.7775 H   0  0  0  0  0  0  0  0  0  0  0  0
    1.3016    0.0338   -0.9416 H   0  0  0  0  0  0  0  0  0  0  0  0
    0.6285   -1.9760   -1.3416 C   0  0  0  0  0  0  0  0  0  0  0  0
    1.5199   -2.0114   -1.9736 H   0  0  0  0  0  0  0  0  0  0  0  0
    0.8529   -2.5396   -0.4319 H   0  0  0  0  0  0  0  0  0  0  0  0
   -0.4881   -2.6827   -2.1126 C   0  0  0  0  0  0  0  0  0  0  0  0
   -1.4773   -2.1229   -2.5509 O   0  0  0  0  0  0  0  0  0  0  0  0
   -0.4533   -4.0332   -2.3081 N   0  0  0  0  0  0  0  0  0  0  0  0
   -1.3122   -4.4514   -2.6525 H   0  0  0  0  0  0  0  0  0  0  0  0
    0.1946   -4.5849   -1.7552 H   0  0  0  0  0  0  0  0  0  0  0  0
   -0.5442    1.1633    0.6965 C   0  0  0  0  0  0  0  0  0  0  0  0
   -1.4197    1.8109    0.1359 O   0  0  0  0  0  0  0  0  0  0  0  0
    0.2819    1.7904    1.6115 N   0  0  0  0  0  0  0  0  0  0  0  0
    0.9480    1.2128    2.1162 H   0  0  0  0  0  0  0  0  0  0  0  0
    0.1291    3.1888    1.9954 C   0  0  0  0  0  0  0  0  0  0  0  0
   -0.8506    3.3549    2.4556 H   0  0  0  0  0  0  0  0  0  0  0  0
    0.9027    3.4704    2.7163 H   0  0  0  0  0  0  0  0  0  0  0  0
    0.2213    3.8394    1.1194 H   0  0  0  0  0  0  0  0  0  0  0  0
  1  2  1  0  0  0  0
  2  3  1  0  0  0  0
  2  4  1  0  0  0  0
  2  5  1  0  0  0  0
  5  6  2  0  0  0  0
  5  7  1  0  0  0  0
  7  8  1  0  0  0  0
  7  9  1  0  0  0  0
  9 10  1  0  0  0  0
  9 11  1  0  0  0  0
  9 22  1  0  0  0  0
 11 12  1  0  0  0  0
 11 13  1  0  0  0  0
 11 14  1  0  0  0  0
 14 15  1  0  0  0  0
 14 16  1  0  0  0  0
 14 17  1  0  0  0  0
 17 18  2  0  0  0  0
 17 19  1  0  0  0  0
 19 20  1  0  0  0  0
 19 21  1  0  0  0  0
 22 23  2  0  0  0  0
 22 24  1  0  0  0  0
 24 25  1  0  0  0  0
 24 26  1  0  0  0  0
 26 27  1  0  0  0  0
 26 28  1  0  0  0  0
 26 29  1  0  0  0  0
M  END
$$$$

  -OEChem-04042215583D

 29 28  0     1  0  0  0  0  0999 V2000
   -3.3842   -3.8239    1.3482 H   0  0  0  0  0  0  0  0  0  0  0  0
   -3.3186   -2.8824    0.7963 C   0  0  0  0  0  0  0  0  0  0  0  0
   -4.1364   -2.2297    1.1110 H   0  0  0  0  0  0  0  0  0  0  0  0
   -3.4193   -3.0915   -0.2721 H   0  0  0  0  0  0  0  0  0  0  0  0
   -1.9872   -2.2071    1.0636 C   0  0  0  0  0  0  0  0  0  0  0  0
   -1.1782   -2.7223    1.8218 O   0  0  0  0  0  0  0  0  0  0  0  0
   -1.6856   -1.0250    0.4219 N   0  0  0  0  0  0  0  0  0  0  0  0
   -2.3556   -0.7041   -0.2761 H   0  0  0  0  0  0  0  0  0  0  0  0
   -0.3808   -0.3488    0.4509 C   0  0  1  0  0  0  0  0  0  0  0  0
    0.2378   -0.7533    1.2585 H   0  0  0  0  0  0  0  0  0  0  0  0
    0.3261   -0.5897   -0.8967 C   0  0  0  0  0  0  0  0  0  0  0  0
   -0.2487   -0.1262   -1.7075 H   0  0  0  0  0  0  0  0  0  0  0  0
    1.2959   -0.0824   -0.8666 H   0  0  0  0  0  0  0  0  0  0  0  0
    0.5670   -2.0890   -1.1907 C   0  0  0  0  0  0  0  0  0  0  0  0
    1.5832   -2.1968   -1.5791 H   0  0  0  0  0  0  0  0  0  0  0  0
    0.5107   -2.6842   -0.2759 H   0  0  0  0  0  0  0  0  0  0  0  0
   -0.3846   -2.6709   -2.2355 C   0  0  0  0  0  0  0  0  0  0  0  0
   -1.5338   -2.2914   -2.3777 O   0  0  0  0  0  0  0  0  0  0  0  0
   -0.0040   -3.7023   -3.0452 N   0  0  0  0  0  0  0  0  0  0  0  0
   -0.7479   -4.1508   -3.5719 H   0  0  0  0  0  0  0  0  0  0  0  0
    0.8440   -4.2127   -2.8229 H   0  0  0  0  0  0  0  0  0  0  0  0
   -0.5334    1.1663    0.6918 C   0  0  0  0  0  0  0  0  0  0  0  0
   -1.3467    1.8174    0.0476 O   0  0  0  0  0  0  0  0  0  0  0  0
    0.2851    1.8123    1.6001 N   0  0  0  0  0  0  0  0  0  0  0  0
    0.8919    1.2355    2.1755 H   0  0  0  0  0  0  0  0  0  0  0  0
    0.1798    3.2361    1.8956 C   0  0  0  0  0  0  0  0  0  0  0  0
   -0.7970    3.4651    2.3345 H   0  0  0  0  0  0  0  0  0  0  0  0
    0.9579    3.5339    2.6050 H   0  0  0  0  0  0  0  0  0  0  0  0
    0.3027    3.8277    0.9821 H   0  0  0  0  0  0  0  0  0  0  0  0
  1  2  1  0  0  0  0
  2  3  1  0  0  0  0
  2  4  1  0  0  0  0
  2  5  1  0  0  0  0
  5  6  2  0  0  0  0
  5  7  1  0  0  0  0
  7  8  1  0  0  0  0
  7  9  1  0  0  0  0
  9 10  1  0  0  0  0
  9 11  1  0  0  0  0
  9 22  1  0  0  0  0
 11 12  1  0  0  0  0
 11 13  1  0  0  0  0
 11 14  1  0  0  0  0
 14 15  1  0  0  0  0
 14 16  1  0  0  0  0
 14 17  1  0  0  0  0
 17 18  2  0  0  0  0
 17 19  1  0  0  0  0
 19 20  1  0  0  0  0
 19 21  1  0  0  0  0
 22 23  2  0  0  0  0
 22 24  1  0  0  0  0
 24 25  1  0  0  0  0
 24 26  1  0  0  0  0
 26 27  1  0  0  0  0
 26 28  1  0  0  0  0
 26 29  1  0  0  0  0
M  END
$$$$

  -OEChem-04042215583D

 29 28  0     1  0  0  0  0  0999 V2000
   -3.5515   -3.7248    1.4860 H   0  0  0  0  0  0  0  0  0  0  0  0
   -3.4324   -2.8248    0.8766 C   0  0  0  0  0  0  0  0  0  0  0  0
   -4.2390   -2.1272    1.1139 H   0  0  0  0  0  0  0  0  0  0  0  0
   -3.4985   -3.1024   -0.1788 H   0  0  0  0  0  0  0  0  0  0  0  0
   -2.0890   -2.1775    1.1521 C   0  0  0  0  0  0  0  0  0  0  0  0
   -1.3273   -2.6666    1.9736 O   0  0  0  0  0  0  0  0  0  0  0  0
   -1.7250   -1.0434    0.4569 N   0  0  0  0  0  0  0  0  0  0  0  0
   -2.3812   -0.7082   -0.2466 H   0  0  0  0  0  0  0  0  0  0  0  0
   -0.3943   -0.4162    0.4836 C   0  0  1  0  0  0  0  0  0  0  0  0
    0.1941   -0.8037    1.3216 H   0  0  0  0  0  0  0  0  0  0  0  0
    0.3265   -0.7420   -0.8390 C   0  0  0  0  0  0  0  0  0  0  0  0
   -0.2407   -0.3011   -1.6681 H   0  0  0  0  0  0  0  0  0  0  0  0
    1.3088   -0.2584   -0.8336 H   0  0  0  0  0  0  0  0  0  0  0  0
    0.5199   -2.2576   -1.0757 C   0  0  0  0  0  0  0  0  0  0  0  0
    1.5890   -2.4686   -1.1598 H   0  0  0  0  0  0  0  0  0  0  0  0
    0.1509   -2.8511   -0.2373 H   0  0  0  0  0  0  0  0  0  0  0  0
   -0.1722   -2.7188   -2.3521 C   0  0  0  0  0  0  0  0  0  0  0  0
   -1.3860   -2.7315   -2.4476 O   0  0  0  0  0  0  0  0  0  0  0  0
    0.5268   -3.0955   -3.4635 N   0  0  0  0  0  0  0  0  0  0  0  0
   -0.0158   -3.5189   -4.2109 H   0  0  0  0  0  0  0  0  0  0  0  0
    1.5211   -3.2793   -3.3836 H   0  0  0  0  0  0  0  0  0  0  0  0
   -0.4988    1.1139    0.6415 C   0  0  0  0  0  0  0  0  0  0  0  0
   -1.2751    1.7550   -0.0568 O   0  0  0  0  0  0  0  0  0  0  0  0
    0.3192    1.7804    1.5353 N   0  0  0  0  0  0  0  0  0  0  0  0
    0.8851    1.2144    2.1613 H   0  0  0  0  0  0  0  0  0  0  0  0
    0.2379    3.2174    1.7673 C   0  0  0  0  0  0  0  0  0  0  0  0
   -0.7431    3.4840    2.1743 H   0  0  0  0  0  0  0  0  0  0  0  0
    1.0066    3.5299    2.4805 H   0  0  0  0  0  0  0  0  0  0  0  0
    0.3928    3.7666    0.8325 H   0  0  0  0  0  0  0  0  0  0  0  0
  1  2  1  0  0  0  0
  2  3  1  0  0  0  0
  2  4  1  0  0  0  0
  2  5  1  0  0  0  0
  5  6  2  0  0  0  0
  5  7  1  0  0  0  0
  7  8  1  0  0  0  0
  7  9  1  0  0  0  0
  9 10  1  0  0  0  0
  9 11  1  0  0  0  0
  9 22  1  0  0  0  0
 11 12  1  0  0  0  0
 11 13  1  0  0  0  0
 11 14  1  0  0  0  0
 14 15  1  0  0  0  0
 14 16  1  0  0  0  0
 14 17  1  0  0  0  0
 17 18  2  0  0  0  0
 17 19  1  0  0  0  0
 19 20  1  0  0  0  0
 19 21  1  0  0  0  0
 22 23  2  0  0  0  0
 22 24  1  0  0  0  0
 24 25  1  0  0  0  0
 24 26  1  0  0  0  0
 26 27  1  0  0  0  0
 26 28  1  0  0  0  0
 26 29  1  0  0  0  0
M  END
$$$$

  -OEChem-04042215583D

 29 28  0     1  0  0  0  0  0999 V2000
   -3.3208   -3.8482    1.4103 H   0  0  0  0  0  0  0  0  0  0  0  0
   -3.2791   -2.8841    0.8956 C   0  0  0  0  0  0  0  0  0  0  0  0
   -3.9751   -2.1954    1.3809 H   0  0  0  0  0  0  0  0  0  0  0  0
   -3.5840   -3.0258   -0.1440 H   0  0  0  0  0  0  0  0  0  0  0  0
   -1.8715   -2.3215    0.9520 C   0  0  0  0  0  0  0  0  0  0  0  0
   -0.9984   -2.9245    1.5559 O   0  0  0  0  0  0  0  0  0  0  0  0
   -1.5880   -1.1273    0.3219 N   0  0  0  0  0  0  0  0  0  0  0  0
   -2.3737   -0.6200   -0.0844 H   0  0  0  0  0  0  0  0  0  0  0  0
   -0.3058   -0.4051    0.3833 C   0  0  1  0  0  0  0  0  0  0  0  0
    0.2916   -0.7838    1.2191 H   0  0  0  0  0  0  0  0  0  0  0  0
    0.5050   -0.5712   -0.9187 C   0  0  0  0  0  0  0  0  0  0  0  0
   -0.0912   -0.1420   -1.7329 H   0  0  0  0  0  0  0  0  0  0  0  0
    1.4274    0.0161   -0.8579 H   0  0  0  0  0  0  0  0  0  0  0  0
    0.8703   -2.0338   -1.2652 C   0  0  0  0  0  0  0  0  0  0  0  0
    1.9231   -2.2099   -1.0288 H   0  0  0  0  0  0  0  0  0  0  0  0
    0.2904   -2.7322   -0.6632 H   0  0  0  0  0  0  0  0  0  0  0  0
    0.6349   -2.3741   -2.7328 C   0  0  0  0  0  0  0  0  0  0  0  0
    0.9271   -1.6126   -3.6355 O   0  0  0  0  0  0  0  0  0  0  0  0
    0.0650   -3.5564   -3.1101 N   0  0  0  0  0  0  0  0  0  0  0  0
   -0.1920   -3.6464   -4.0886 H   0  0  0  0  0  0  0  0  0  0  0  0
   -0.3438   -4.1616   -2.4061 H   0  0  0  0  0  0  0  0  0  0  0  0
   -0.5558    1.0971    0.6250 C   0  0  0  0  0  0  0  0  0  0  0  0
   -1.4761    1.6625    0.0459 O   0  0  0  0  0  0  0  0  0  0  0  0
    0.1946    1.7927    1.5547 N   0  0  0  0  0  0  0  0  0  0  0  0
    0.9072    1.2792    2.0656 H   0  0  0  0  0  0  0  0  0  0  0  0
   -0.0391    3.1931    1.8864 C   0  0  0  0  0  0  0  0  0  0  0  0
   -1.0324    3.3208    2.3294 H   0  0  0  0  0  0  0  0  0  0  0  0
    0.7087    3.5408    2.6058 H   0  0  0  0  0  0  0  0  0  0  0  0
    0.0303    3.8175    0.9893 H   0  0  0  0  0  0  0  0  0  0  0  0
  1  2  1  0  0  0  0
  2  3  1  0  0  0  0
  2  4  1  0  0  0  0
  2  5  1  0  0  0  0
  5  6  2  0  0  0  0
  5  7  1  0  0  0  0
  7  8  1  0  0  0  0
  7  9  1  0  0  0  0
  9 10  1  0  0  0  0
  9 11  1  0  0  0  0
  9 22  1  0  0  0  0
 11 12  1  0  0  0  0
 11 13  1  0  0  0  0
 11 14  1  0  0  0  0
 14 15  1  0  0  0  0
 14 16  1  0  0  0  0
 14 17  1  0  0  0  0
 17 18  2  0  0  0  0
 17 19  1  0  0  0  0
 19 20  1  0  0  0  0
 19 21  1  0  0  0  0
 22 23  2  0  0  0  0
 22 24  1  0  0  0  0
 24 25  1  0  0  0  0
 24 26  1  0  0  0  0
 26 27  1  0  0  0  0
 26 28  1  0  0  0  0
 26 29  1  0  0  0  0
M  END
$$$$

  -OEChem-04042215583D

 29 28  0     1  0  0  0  0  0999 V2000
   -3.4019   -3.7691    1.4680 H   0  0  0  0  0  0  0  0  0  0  0  0
   -3.3487   -2.8101    0.9450 C   0  0  0  0  0  0  0  0  0  0  0  0
   -4.0144   -2.1005    1.4424 H   0  0  0  0  0  0  0  0  0  0  0  0
   -3.6832   -2.9516   -0.0856 H   0  0  0  0  0  0  0  0  0  0  0  0
   -1.9263   -2.2832    0.9608 C   0  0  0  0  0  0  0  0  0  0  0  0
   -1.0482   -2.9127    1.5299 O   0  0  0  0  0  0  0  0  0  0  0  0
   -1.6325   -1.0919    0.3300 N   0  0  0  0  0  0  0  0  0  0  0  0
   -2.4165   -0.5602   -0.0472 H   0  0  0  0  0  0  0  0  0  0  0  0
   -0.3358   -0.3968    0.3815 C   0  0  1  0  0  0  0  0  0  0  0  0
    0.2585   -0.7878    1.2138 H   0  0  0  0  0  0  0  0  0  0  0  0
    0.4687   -0.5762   -0.9222 C   0  0  0  0  0  0  0  0  0  0  0  0
   -0.1297   -0.1443   -1.7332 H   0  0  0  0  0  0  0  0  0  0  0  0
    1.4017   -0.0045   -0.8718 H   0  0  0  0  0  0  0  0  0  0  0  0
    0.8006   -2.0470   -1.2646 C   0  0  0  0  0  0  0  0  0  0  0  0
    1.7340   -2.3361   -0.7742 H   0  0  0  0  0  0  0  0  0  0  0  0
    0.0188   -2.7085   -0.8917 H   0  0  0  0  0  0  0  0  0  0  0  0
    0.9136   -2.3056   -2.7647 C   0  0  0  0  0  0  0  0  0  0  0  0
    1.1511   -1.4292   -3.5750 O   0  0  0  0  0  0  0  0  0  0  0  0
    0.7679   -3.5617   -3.2799 N   0  0  0  0  0  0  0  0  0  0  0  0
    0.7153   -3.6330   -4.2918 H   0  0  0  0  0  0  0  0  0  0  0  0
    0.4147   -4.3058   -2.6876 H   0  0  0  0  0  0  0  0  0  0  0  0
   -0.5562    1.1083    0.6317 C   0  0  0  0  0  0  0  0  0  0  0  0
   -1.4763    1.6907    0.0690 O   0  0  0  0  0  0  0  0  0  0  0  0
    0.2148    1.7872    1.5568 N   0  0  0  0  0  0  0  0  0  0  0  0
    0.9249    1.2605    2.0575 H   0  0  0  0  0  0  0  0  0  0  0  0
   -0.0021    3.1864    1.9033 C   0  0  0  0  0  0  0  0  0  0  0  0
   -0.9952    3.3212    2.3446 H   0  0  0  0  0  0  0  0  0  0  0  0
    0.7474    3.5175    2.6285 H   0  0  0  0  0  0  0  0  0  0  0  0
    0.0770    3.8190    1.0127 H   0  0  0  0  0  0  0  0  0  0  0  0
  1  2  1  0  0  0  0
  2  3  1  0  0  0  0
  2  4  1  0  0  0  0
  2  5  1  0  0  0  0
  5  6  2  0  0  0  0
  5  7  1  0  0  0  0
  7  8  1  0  0  0  0
  7  9  1  0  0  0  0
  9 10  1  0  0  0  0
  9 11  1  0  0  0  0
  9 22  1  0  0  0  0
 11 12  1  0  0  0  0
 11 13  1  0  0  0  0
 11 14  1  0  0  0  0
 14 15  1  0  0  0  0
 14 16  1  0  0  0  0
 14 17  1  0  0  0  0
 17 18  2  0  0  0  0
 17 19  1  0  0  0  0
 19 20  1  0  0  0  0
 19 21  1  0  0  0  0
 22 23  2  0  0  0  0
 22 24  1  0  0  0  0
 24 25  1  0  0  0  0
 24 26  1  0  0  0  0
 26 27  1  0  0  0  0
 26 28  1  0  0  0  0
 26 29  1  0  0  0  0
M  END
$$$$

  -OEChem-04042215583D

 29 28  0     1  0  0  0  0  0999 V2000
   -3.4248   -3.7466    1.4863 H   0  0  0  0  0  0  0  0  0  0  0  0
   -3.3762   -2.7917    0.9555 C   0  0  0  0  0  0  0  0  0  0  0  0
   -4.0350   -2.0770    1.4546 H   0  0  0  0  0  0  0  0  0  0  0  0
   -3.7220   -2.9407   -0.0703 H   0  0  0  0  0  0  0  0  0  0  0  0
   -1.9530   -2.2673    0.9510 C   0  0  0  0  0  0  0  0  0  0  0  0
   -1.0624   -2.9121    1.4828 O   0  0  0  0  0  0  0  0  0  0  0  0
   -1.6685   -1.0683    0.3307 N   0  0  0  0  0  0  0  0  0  0  0  0
   -2.4581   -0.5265   -0.0194 H   0  0  0  0  0  0  0  0  0  0  0  0
   -0.3664   -0.3832    0.3671 C   0  0  1  0  0  0  0  0  0  0  0  0
    0.2385   -0.7886    1.1849 H   0  0  0  0  0  0  0  0  0  0  0  0
    0.4109   -0.5687   -0.9505 C   0  0  0  0  0  0  0  0  0  0  0  0
   -0.1859   -0.1353   -1.7617 H   0  0  0  0  0  0  0  0  0  0  0  0
    1.3540   -0.0133   -0.9083 H   0  0  0  0  0  0  0  0  0  0  0  0
    0.7098   -2.0467   -1.2807 C   0  0  0  0  0  0  0  0  0  0  0  0
    1.4830   -2.4250   -0.6068 H   0  0  0  0  0  0  0  0  0  0  0  0
   -0.1865   -2.6514   -1.1323 H   0  0  0  0  0  0  0  0  0  0  0  0
    1.1471   -2.2584   -2.7267 C   0  0  0  0  0  0  0  0  0  0  0  0
    1.5180   -1.3522   -3.4496 O   0  0  0  0  0  0  0  0  0  0  0  0
    1.1840   -3.5078   -3.2761 N   0  0  0  0  0  0  0  0  0  0  0  0
    1.6593   -3.5888   -4.1701 H   0  0  0  0  0  0  0  0  0  0  0  0
    1.0939   -4.3145   -2.6675 H   0  0  0  0  0  0  0  0  0  0  0  0
   -0.5638    1.1207    0.6431 C   0  0  0  0  0  0  0  0  0  0  0  0
   -1.4890    1.7211    0.1086 O   0  0  0  0  0  0  0  0  0  0  0  0
    0.2335    1.7780    1.5620 N   0  0  0  0  0  0  0  0  0  0  0  0
    0.9587    1.2405    2.0285 H   0  0  0  0  0  0  0  0  0  0  0  0
    0.0495    3.1783    1.9241 C   0  0  0  0  0  0  0  0  0  0  0  0
   -0.9441    3.3351    2.3571 H   0  0  0  0  0  0  0  0  0  0  0  0
    0.7992    3.4800    2.6619 H   0  0  0  0  0  0  0  0  0  0  0  0
    0.1555    3.8192    1.0425 H   0  0  0  0  0  0  0  0  0  0  0  0
  1  2  1  0  0  0  0
  2  3  1  0  0  0  0
  2  4  1  0  0  0  0
  2  5  1  0  0  0  0
  5  6  2  0  0  0  0
  5  7  1  0  0  0  0
  7  8  1  0  0  0  0
  7  9  1  0  0  0  0
  9 10  1  0  0  0  0
  9 11  1  0  0  0  0
  9 22  1  0  0  0  0
 11 12  1  0  0  0  0
 11 13  1  0  0  0  0
 11 14  1  0  0  0  0
 14 15  1  0  0  0  0
 14 16  1  0  0  0  0
 14 17  1  0  0  0  0
 17 18  2  0  0  0  0
 17 19  1  0  0  0  0
 19 20  1  0  0  0  0
 19 21  1  0  0  0  0
 22 23  2  0  0  0  0
 22 24  1  0  0  0  0
 24 25  1  0  0  0  0
 24 26  1  0  0  0  0
 26 27  1  0  0  0  0
 26 28  1  0  0  0  0
 26 29  1  0  0  0  0
M  END
$$$$

  -OEChem-04042215583D

 29 28  0     1  0  0  0  0  0999 V2000
   -3.4734   -3.7161    1.5608 H   0  0  0  0  0  0  0  0  0  0  0  0
   -3.4260   -2.7808    0.9960 C   0  0  0  0  0  0  0  0  0  0  0  0
   -4.0690   -2.0435    1.4829 H   0  0  0  0  0  0  0  0  0  0  0  0
   -3.7928   -2.9608   -0.0174 H   0  0  0  0  0  0  0  0  0  0  0  0
   -1.9981   -2.2710    0.9455 C   0  0  0  0  0  0  0  0  0  0  0  0
   -1.0947   -2.9370    1.4268 O   0  0  0  0  0  0  0  0  0  0  0  0
   -1.7249   -1.0633    0.3365 N   0  0  0  0  0  0  0  0  0  0  0  0
   -2.5216   -0.5078    0.0270 H   0  0  0  0  0  0  0  0  0  0  0  0
   -0.4184   -0.3851    0.3509 C   0  0  1  0  0  0  0  0  0  0  0  0
    0.1883   -0.8091    1.1577 H   0  0  0  0  0  0  0  0  0  0  0  0
    0.3566   -0.5750   -0.9691 C   0  0  0  0  0  0  0  0  0  0  0  0
   -0.0884    0.0704   -1.7357 H   0  0  0  0  0  0  0  0  0  0  0  0
    1.3919   -0.2465   -0.8265 H   0  0  0  0  0  0  0  0  0  0  0  0
    0.3442   -2.0265   -1.4926 C   0  0  0  0  0  0  0  0  0  0  0  0
    0.7781   -2.6877   -0.7372 H   0  0  0  0  0  0  0  0  0  0  0  0
   -0.6838   -2.3484   -1.6747 H   0  0  0  0  0  0  0  0  0  0  0  0
    1.1170   -2.1945   -2.7977 C   0  0  0  0  0  0  0  0  0  0  0  0
    1.7373   -1.2914   -3.3281 O   0  0  0  0  0  0  0  0  0  0  0  0
    1.1776   -3.4032   -3.4295 N   0  0  0  0  0  0  0  0  0  0  0  0
    1.8591   -3.4790   -4.1788 H   0  0  0  0  0  0  0  0  0  0  0  0
    0.8697   -4.2315   -2.9313 H   0  0  0  0  0  0  0  0  0  0  0  0
   -0.5850    1.1167    0.6536 C   0  0  0  0  0  0  0  0  0  0  0  0
   -1.5126    1.7390    0.1494 O   0  0  0  0  0  0  0  0  0  0  0  0
    0.2469    1.7470    1.5601 N   0  0  0  0  0  0  0  0  0  0  0  0
    0.9827    1.1938    1.9900 H   0  0  0  0  0  0  0  0  0  0  0  0
    0.1218    3.1548    1.9171 C   0  0  0  0  0  0  0  0  0  0  0  0
   -0.8617    3.3538    2.3556 H   0  0  0  0  0  0  0  0  0  0  0  0
    0.8881    3.4289    2.6488 H   0  0  0  0  0  0  0  0  0  0  0  0
    0.2479    3.7868    1.0316 H   0  0  0  0  0  0  0  0  0  0  0  0
  1  2  1  0  0  0  0
  2  3  1  0  0  0  0
  2  4  1  0  0  0  0
  2  5  1  0  0  0  0
  5  6  2  0  0  0  0
  5  7  1  0  0  0  0
  7  8  1  0  0  0  0
  7  9  1  0  0  0  0
  9 10  1  0  0  0  0
  9 11  1  0  0  0  0
  9 22  1  0  0  0  0
 11 12  1  0  0  0  0
 11 13  1  0  0  0  0
 11 14  1  0  0  0  0
 14 15  1  0  0  0  0
 14 16  1  0  0  0  0
 14 17  1  0  0  0  0
 17 18  2  0  0  0  0
 17 19  1  0  0  0  0
 19 20  1  0  0  0  0
 19 21  1  0  0  0  0
 22 23  2  0  0  0  0
 22 24  1  0  0  0  0
 24 25  1  0  0  0  0
 24 26  1  0  0  0  0
 26 27  1  0  0  0  0
 26 28  1  0  0  0  0
 26 29  1  0  0  0  0
M  END
$$$$

  -OEChem-04042215583D

 29 28  0     1  0  0  0  0  0999 V2000
   -3.4829   -3.7170    1.5100 H   0  0  0  0  0  0  0  0  0  0  0  0
   -3.4279   -2.7712    0.9637 C   0  0  0  0  0  0  0  0  0  0  0  0
   -4.0696   -2.0399    1.4610 H   0  0  0  0  0  0  0  0  0  0  0  0
   -3.7898   -2.9300   -0.0549 H   0  0  0  0  0  0  0  0  0  0  0  0
   -1.9975   -2.2675    0.9324 C   0  0  0  0  0  0  0  0  0  0  0  0
   -1.1051   -2.9333    1.4342 O   0  0  0  0  0  0  0  0  0  0  0  0
   -1.7131   -1.0595    0.3299 N   0  0  0  0  0  0  0  0  0  0  0  0
   -2.5042   -0.5035    0.0069 H   0  0  0  0  0  0  0  0  0  0  0  0
   -0.4040   -0.3861    0.3513 C   0  0  1  0  0  0  0  0  0  0  0  0
    0.2058   -0.8180    1.1517 H   0  0  0  0  0  0  0  0  0  0  0  0
    0.3539   -0.5652   -0.9795 C   0  0  0  0  0  0  0  0  0  0  0  0
   -0.0746    0.0963   -1.7412 H   0  0  0  0  0  0  0  0  0  0  0  0
    1.3928   -0.2539   -0.8239 H   0  0  0  0  0  0  0  0  0  0  0  0
    0.3211   -2.0118   -1.5149 C   0  0  0  0  0  0  0  0  0  0  0  0
    0.5349   -2.7019   -0.6940 H   0  0  0  0  0  0  0  0  0  0  0  0
   -0.6751   -2.2420   -1.9016 H   0  0  0  0  0  0  0  0  0  0  0  0
    1.3493   -2.2709   -2.6129 C   0  0  0  0  0  0  0  0  0  0  0  0
    2.0611   -1.4021   -3.0825 O   0  0  0  0  0  0  0  0  0  0  0  0
    1.5297   -3.5228   -3.1263 N   0  0  0  0  0  0  0  0  0  0  0  0
    2.3435   -3.6474   -3.7212 H   0  0  0  0  0  0  0  0  0  0  0  0
    1.1247   -4.3147   -2.6385 H   0  0  0  0  0  0  0  0  0  0  0  0
   -0.5705    1.1145    0.6590 C   0  0  0  0  0  0  0  0  0  0  0  0
   -1.4952    1.7389    0.1516 O   0  0  0  0  0  0  0  0  0  0  0  0
    0.2572    1.7424    1.5708 N   0  0  0  0  0  0  0  0  0  0  0  0
    0.9947    1.1898    1.9989 H   0  0  0  0  0  0  0  0  0  0  0  0
    0.1229    3.1470    1.9368 C   0  0  0  0  0  0  0  0  0  0  0  0
   -0.8620    3.3363    2.3766 H   0  0  0  0  0  0  0  0  0  0  0  0
    0.8872    3.4218    2.6701 H   0  0  0  0  0  0  0  0  0  0  0  0
    0.2439    3.7855    1.0553 H   0  0  0  0  0  0  0  0  0  0  0  0
  1  2  1  0  0  0  0
  2  3  1  0  0  0  0
  2  4  1  0  0  0  0
  2  5  1  0  0  0  0
  5  6  2  0  0  0  0
  5  7  1  0  0  0  0
  7  8  1  0  0  0  0
  7  9  1  0  0  0  0
  9 10  1  0  0  0  0
  9 11  1  0  0  0  0
  9 22  1  0  0  0  0
 11 12  1  0  0  0  0
 11 13  1  0  0  0  0
 11 14  1  0  0  0  0
 14 15  1  0  0  0  0
 14 16  1  0  0  0  0
 14 17  1  0  0  0  0
 17 18  2  0  0  0  0
 17 19  1  0  0  0  0
 19 20  1  0  0  0  0
 19 21  1  0  0  0  0
 22 23  2  0  0  0  0
 22 24  1  0  0  0  0
 24 25  1  0  0  0  0
 24 26  1  0  0  0  0
 26 27  1  0  0  0  0
 26 28  1  0  0  0  0
 26 29  1  0  0  0  0
M  END
$$$$

  -OEChem-04042215583D

 29 28  0     1  0  0  0  0  0999 V2000
   -3.4965   -3.7323    1.4429 H   0  0  0  0  0  0  0  0  0  0  0  0
   -3.4378   -2.7673    0.9314 C   0  0  0  0  0  0  0  0  0  0  0  0
   -4.0831   -2.0540    1.4500 H   0  0  0  0  0  0  0  0  0  0  0  0
   -3.7933   -2.8902   -0.0945 H   0  0  0  0  0  0  0  0  0  0  0  0
   -2.0072   -2.2626    0.9268 C   0  0  0  0  0  0  0  0  0  0  0  0
   -1.1254   -2.9268    1.4491 O   0  0  0  0  0  0  0  0  0  0  0  0
   -1.7119   -1.0540    0.3299 N   0  0  0  0  0  0  0  0  0  0  0  0
   -2.4972   -0.4980   -0.0061 H   0  0  0  0  0  0  0  0  0  0  0  0
   -0.3970   -0.3906    0.3443 C   0  0  1  0  0  0  0  0  0  0  0  0
    0.2213   -0.8335    1.1319 H   0  0  0  0  0  0  0  0  0  0  0  0
    0.3393   -0.5548   -1.0019 C   0  0  0  0  0  0  0  0  0  0  0  0
   -0.0868    0.1253   -1.7483 H   0  0  0  0  0  0  0  0  0  0  0  0
    1.3806   -0.2510   -0.8452 H   0  0  0  0  0  0  0  0  0  0  0  0
    0.2919   -1.9914   -1.5683 C   0  0  0  0  0  0  0  0  0  0  0  0
    0.2670   -2.7034   -0.7407 H   0  0  0  0  0  0  0  0  0  0  0  0
   -0.6173   -2.1287   -2.1596 H   0  0  0  0  0  0  0  0  0  0  0  0
    1.5103   -2.3538   -2.4132 C   0  0  0  0  0  0  0  0  0  0  0  0
    2.2670   -1.5247   -2.8841 O   0  0  0  0  0  0  0  0  0  0  0  0
    1.8224   -3.6565   -2.6774 N   0  0  0  0  0  0  0  0  0  0  0  0
    2.7362   -3.8204   -3.0896 H   0  0  0  0  0  0  0  0  0  0  0  0
    1.3631   -4.3869   -2.1433 H   0  0  0  0  0  0  0  0  0  0  0  0
   -0.5538    1.1095    0.6618 C   0  0  0  0  0  0  0  0  0  0  0  0
   -1.4762    1.7421    0.1602 O   0  0  0  0  0  0  0  0  0  0  0  0
    0.2830    1.7295    1.5707 N   0  0  0  0  0  0  0  0  0  0  0  0
    1.0102    1.1676    2.0043 H   0  0  0  0  0  0  0  0  0  0  0  0
    0.1409    3.1264    1.9628 C   0  0  0  0  0  0  0  0  0  0  0  0
   -0.8387    3.2976    2.4217 H   0  0  0  0  0  0  0  0  0  0  0  0
    0.9144    3.3971    2.6880 H   0  0  0  0  0  0  0  0  0  0  0  0
    0.2410    3.7812    1.0907 H   0  0  0  0  0  0  0  0  0  0  0  0
  1  2  1  0  0  0  0
  2  3  1  0  0  0  0
  2  4  1  0  0  0  0
  2  5  1  0  0  0  0
  5  6  2  0  0  0  0
  5  7  1  0  0  0  0
  7  8  1  0  0  0  0
  7  9  1  0  0  0  0
  9 10  1  0  0  0  0
  9 11  1  0  0  0  0
  9 22  1  0  0  0  0
 11 12  1  0  0  0  0
 11 13  1  0  0  0  0
 11 14  1  0  0  0  0
 14 15  1  0  0  0  0
 14 16  1  0  0  0  0
 14 17  1  0  0  0  0
 17 18  2  0  0  0  0
 17 19  1  0  0  0  0
 19 20  1  0  0  0  0
 19 21  1  0  0  0  0
 22 23  2  0  0  0  0
 22 24  1  0  0  0  0
 24 25  1  0  0  0  0
 24 26  1  0  0  0  0
 26 27  1  0  0  0  0
 26 28  1  0  0  0  0
 26 29  1  0  0  0  0
M  END
$$$$

  -OEChem-04042215583D

 29 28  0     1  0  0  0  0  0999 V2000
   -3.5374   -3.7483    1.3919 H   0  0  0  0  0  0  0  0  0  0  0  0
   -3.4779   -2.7693    0.9082 C   0  0  0  0  0  0  0  0  0  0  0  0
   -4.1069   -2.0654    1.4587 H   0  0  0  0  0  0  0  0  0  0  0  0
   -3.8518   -2.8581   -0.1146 H   0  0  0  0  0  0  0  0  0  0  0  0
   -2.0425   -2.2791    0.8942 C   0  0  0  0  0  0  0  0  0  0  0  0
   -1.1604   -2.9603    1.3945 O   0  0  0  0  0  0  0  0  0  0  0  0
   -1.7418   -1.0630    0.3148 N   0  0  0  0  0  0  0  0  0  0  0  0
   -2.5252   -0.4941   -0.0044 H   0  0  0  0  0  0  0  0  0  0  0  0
   -0.4184   -0.4161    0.3192 C   0  0  1  0  0  0  0  0  0  0  0  0
    0.2045   -0.8818    1.0899 H   0  0  0  0  0  0  0  0  0  0  0  0
    0.3061   -0.5543   -1.0380 C   0  0  0  0  0  0  0  0  0  0  0  0
   -0.1305    0.1470   -1.7580 H   0  0  0  0  0  0  0  0  0  0  0  0
    1.3470   -0.2473   -0.8873 H   0  0  0  0  0  0  0  0  0  0  0  0
    0.2567   -1.9692   -1.6624 C   0  0  0  0  0  0  0  0  0  0  0  0
   -0.0382   -2.7020   -0.9111 H   0  0  0  0  0  0  0  0  0  0  0  0
   -0.4873   -1.9979   -2.4628 H   0  0  0  0  0  0  0  0  0  0  0  0
    1.6064   -2.4246   -2.2087 C   0  0  0  0  0  0  0  0  0  0  0  0
    2.3666   -1.6726   -2.7897 O   0  0  0  0  0  0  0  0  0  0  0  0
    2.0534   -3.7025   -2.0299 N   0  0  0  0  0  0  0  0  0  0  0  0
    3.0307   -3.8677   -2.2517 H   0  0  0  0  0  0  0  0  0  0  0  0
    1.5717   -4.2986   -1.3641 H   0  0  0  0  0  0  0  0  0  0  0  0
   -0.5510    1.0799    0.6677 C   0  0  0  0  0  0  0  0  0  0  0  0
   -1.4692    1.7361    0.1895 O   0  0  0  0  0  0  0  0  0  0  0  0
    0.3102    1.6700    1.5740 N   0  0  0  0  0  0  0  0  0  0  0  0
    1.0369    1.0891    1.9826 H   0  0  0  0  0  0  0  0  0  0  0  0
    0.2115    3.0666    1.9800 C   0  0  0  0  0  0  0  0  0  0  0  0
   -0.7438    3.2534    2.4817 H   0  0  0  0  0  0  0  0  0  0  0  0
    1.0210    3.3170    2.6723 H   0  0  0  0  0  0  0  0  0  0  0  0
    0.2870    3.7257    1.1088 H   0  0  0  0  0  0  0  0  0  0  0  0
  1  2  1  0  0  0  0
  2  3  1  0  0  0  0
  2  4  1  0  0  0  0
  2  5  1  0  0  0  0
  5  6  2  0  0  0  0
  5  7  1  0  0  0  0
  7  8  1  0  0  0  0
  7  9  1  0  0  0  0
  9 10  1  0  0  0  0
  9 11  1  0  0  0  0
  9 22  1  0  0  0  0
 11 12  1  0  0  0  0
 11 13  1  0  0  0  0
 11 14  1  0  0  0  0
 14 15  1  0  0  0  0
 14 16  1  0  0  0  0
 14 17  1  0  0  0  0
 17 18  2  0  0  0  0
 17 19  1  0  0  0  0
 19 20  1  0  0  0  0
 19 21  1  0  0  0  0
 22 23  2  0  0  0  0
 22 24  1  0  0  0  0
 24 25  1  0  0  0  0
 24 26  1  0  0  0  0
 26 27  1  0  0  0  0
 26 28  1  0  0  0  0
 26 29  1  0  0  0  0
M  END
$$$$

  -OEChem-04042215583D

 29 28  0     1  0  0  0  0  0999 V2000
   -3.5584   -3.7787    1.2939 H   0  0  0  0  0  0  0  0  0  0  0  0
   -3.5027   -2.7700    0.8750 C   0  0  0  0  0  0  0  0  0  0  0  0
   -4.0834   -2.0935    1.5070 H   0  0  0  0  0  0  0  0  0  0  0  0
   -3.9352   -2.7816   -0.1285 H   0  0  0  0  0  0  0  0  0  0  0  0
   -2.0595   -2.3074    0.8122 C   0  0  0  0  0  0  0  0  0  0  0  0
   -1.1674   -3.0232    1.2440 O   0  0  0  0  0  0  0  0  0  0  0  0
   -1.7567   -1.0794    0.2584 N   0  0  0  0  0  0  0  0  0  0  0  0
   -2.5388   -0.4818   -0.0076 H   0  0  0  0  0  0  0  0  0  0  0  0
   -0.4223   -0.4566    0.2605 C   0  0  1  0  0  0  0  0  0  0  0  0
    0.1992   -0.9494    1.0152 H   0  0  0  0  0  0  0  0  0  0  0  0
    0.3015   -0.5694   -1.1002 C   0  0  0  0  0  0  0  0  0  0  0  0
   -0.1546    0.1482   -1.7919 H   0  0  0  0  0  0  0  0  0  0  0  0
    1.3444   -0.2579   -0.9697 H   0  0  0  0  0  0  0  0  0  0  0  0
    0.2397   -1.9616   -1.7728 C   0  0  0  0  0  0  0  0  0  0  0  0
   -0.3442   -2.6748   -1.1938 H   0  0  0  0  0  0  0  0  0  0  0  0
   -0.2443   -1.8705   -2.7492 H   0  0  0  0  0  0  0  0  0  0  0  0
    1.6303   -2.5430   -1.9806 C   0  0  0  0  0  0  0  0  0  0  0  0
    2.4371   -2.0353   -2.7361 O   0  0  0  0  0  0  0  0  0  0  0  0
    2.0778   -3.5860   -1.2216 N   0  0  0  0  0  0  0  0  0  0  0  0
    3.0757   -3.7710   -1.2520 H   0  0  0  0  0  0  0  0  0  0  0  0
    1.5227   -3.8814   -0.4228 H   0  0  0  0  0  0  0  0  0  0  0  0
   -0.5287    1.0306    0.6523 C   0  0  0  0  0  0  0  0  0  0  0  0
   -1.4476    1.7105    0.2104 O   0  0  0  0  0  0  0  0  0  0  0  0
    0.3531    1.5831    1.5624 N   0  0  0  0  0  0  0  0  0  0  0  0
    1.0707    0.9789    1.9529 H   0  0  0  0  0  0  0  0  0  0  0  0
    0.2612    2.9613    2.0286 C   0  0  0  0  0  0  0  0  0  0  0  0
   -0.6767    3.1199    2.5711 H   0  0  0  0  0  0  0  0  0  0  0  0
    1.0935    3.1896    2.7014 H   0  0  0  0  0  0  0  0  0  0  0  0
    0.3010    3.6561    1.1830 H   0  0  0  0  0  0  0  0  0  0  0  0
  1  2  1  0  0  0  0
  2  3  1  0  0  0  0
  2  4  1  0  0  0  0
  2  5  1  0  0  0  0
  5  6  2  0  0  0  0
  5  7  1  0  0  0  0
  7  8  1  0  0  0  0
  7  9  1  0  0  0  0
  9 10  1  0  0  0  0
  9 11  1  0  0  0  0
  9 22  1  0  0  0  0
 11 12  1  0  0  0  0
 11 13  1  0  0  0  0
 11 14  1  0  0  0  0
 14 15  1  0  0  0  0
 14 16  1  0  0  0  0
 14 17  1  0  0  0  0
 17 18  2  0  0  0  0
 17 19  1  0  0  0  0
 19 20  1  0  0  0  0
 19 21  1  0  0  0  0
 22 23  2  0  0  0  0
 22 24  1  0  0  0  0
 24 25  1  0  0  0  0
 24 26  1  0  0  0  0
 26 27  1  0  0  0  0
 26 28  1  0  0  0  0
 26 29  1  0  0  0  0
M  END
$$$$

  -OEChem-04042215583D

 29 28  0     1  0  0  0  0  0999 V2000
   -3.4738   -3.8357    1.2493 H   0  0  0  0  0  0  0  0  0  0  0  0
   -3.4434   -2.8228    0.8387 C   0  0  0  0  0  0  0  0  0  0  0  0
   -4.0114   -2.1591    1.4952 H   0  0  0  0  0  0  0  0  0  0  0  0
   -3.9075   -2.8297   -0.1506 H   0  0  0  0  0  0  0  0  0  0  0  0
   -2.0087   -2.3426    0.7337 C   0  0  0  0  0  0  0  0  0  0  0  0
   -1.0884   -3.0703    1.0837 O   0  0  0  0  0  0  0  0  0  0  0  0
   -1.7393   -1.0954    0.2048 N   0  0  0  0  0  0  0  0  0  0  0  0
   -2.5353   -0.4927   -0.0029 H   0  0  0  0  0  0  0  0  0  0  0  0
   -0.4140   -0.4558    0.2276 C   0  0  1  0  0  0  0  0  0  0  0  0
    0.2029   -0.9518    0.9840 H   0  0  0  0  0  0  0  0  0  0  0  0
    0.3397   -0.5444   -1.1178 C   0  0  0  0  0  0  0  0  0  0  0  0
   -0.1340    0.1634   -1.8075 H   0  0  0  0  0  0  0  0  0  0  0  0
    1.3746   -0.2092   -0.9844 H   0  0  0  0  0  0  0  0  0  0  0  0
    0.3048   -1.9337   -1.7953 C   0  0  0  0  0  0  0  0  0  0  0  0
   -0.5037   -2.5697   -1.4395 H   0  0  0  0  0  0  0  0  0  0  0  0
    0.1372   -1.7932   -2.8670 H   0  0  0  0  0  0  0  0  0  0  0  0
    1.6335   -2.6537   -1.6411 C   0  0  0  0  0  0  0  0  0  0  0  0
    2.6326   -2.3182   -2.2491 O   0  0  0  0  0  0  0  0  0  0  0  0
    1.7787   -3.6182   -0.6857 N   0  0  0  0  0  0  0  0  0  0  0  0
    2.7291   -3.8924   -0.4588 H   0  0  0  0  0  0  0  0  0  0  0  0
    1.0305   -3.7368   -0.0029 H   0  0  0  0  0  0  0  0  0  0  0  0
   -0.5406    1.0206    0.6530 C   0  0  0  0  0  0  0  0  0  0  0  0
   -1.4701    1.6960    0.2269 O   0  0  0  0  0  0  0  0  0  0  0  0
    0.3294    1.5646    1.5793 N   0  0  0  0  0  0  0  0  0  0  0  0
    1.0699    0.9698    1.9406 H   0  0  0  0  0  0  0  0  0  0  0  0
    0.2291    2.9372    2.0603 C   0  0  0  0  0  0  0  0  0  0  0  0
   -0.7277    3.0961    2.5687 H   0  0  0  0  0  0  0  0  0  0  0  0
    1.0362    3.1503    2.7677 H   0  0  0  0  0  0  0  0  0  0  0  0
    0.3064    3.6423    1.2259 H   0  0  0  0  0  0  0  0  0  0  0  0
  1  2  1  0  0  0  0
  2  3  1  0  0  0  0
  2  4  1  0  0  0  0
  2  5  1  0  0  0  0
  5  6  2  0  0  0  0
  5  7  1  0  0  0  0
  7  8  1  0  0  0  0
  7  9  1  0  0  0  0
  9 10  1  0  0  0  0
  9 11  1  0  0  0  0
  9 22  1  0  0  0  0
 11 12  1  0  0  0  0
 11 13  1  0  0  0  0
 11 14  1  0  0  0  0
 14 15  1  0  0  0  0
 14 16  1  0  0  0  0
 14 17  1  0  0  0  0
 17 18  2  0  0  0  0
 17 19  1  0  0  0  0
 19 20  1  0  0  0  0
 19 21  1  0  0  0  0
 22 23  2  0  0  0  0
 22 24  1  0  0  0  0
 24 25  1  0  0  0  0
 24 26  1  0  0  0  0
 26 27  1  0  0  0  0
 26 28  1  0  0  0  0
 26 29  1  0  0  0  0
M  END
$$$$

  -OEChem-04042215583D

 29 28  0     1  0  0  0  0  0999 V2000
   -3.4403   -3.8839    1.1863 H   0  0  0  0  0  0  0  0  0  0  0  0
   -3.4104   -2.8663    0.7870 C   0  0  0  0  0  0  0  0  0  0  0  0
   -4.0046   -2.2163    1.4339 H   0  0  0  0  0  0  0  0  0  0  0  0
   -3.8471   -2.8685   -0.2147 H   0  0  0  0  0  0  0  0  0  0  0  0
   -1.9787   -2.3691    0.7275 C   0  0  0  0  0  0  0  0  0  0  0  0
   -1.0646   -3.0842    1.1122 O   0  0  0  0  0  0  0  0  0  0  0  0
   -1.7062   -1.1211    0.2054 N   0  0  0  0  0  0  0  0  0  0  0  0
   -2.5053   -0.5330   -0.0308 H   0  0  0  0  0  0  0  0  0  0  0  0
   -0.3923   -0.4570    0.2388 C   0  0  1  0  0  0  0  0  0  0  0  0
    0.2278   -0.9441    0.9987 H   0  0  0  0  0  0  0  0  0  0  0  0
    0.3648   -0.5368   -1.1053 C   0  0  0  0  0  0  0  0  0  0  0  0
   -0.1211    0.1598   -1.7975 H   0  0  0  0  0  0  0  0  0  0  0  0
    1.3951   -0.1869   -0.9731 H   0  0  0  0  0  0  0  0  0  0  0  0
    0.3593   -1.9244   -1.7808 C   0  0  0  0  0  0  0  0  0  0  0  0
   -0.5709   -2.4705   -1.6198 H   0  0  0  0  0  0  0  0  0  0  0  0
    0.4586   -1.7874   -2.8614 H   0  0  0  0  0  0  0  0  0  0  0  0
    1.5487   -2.7549   -1.3194 C   0  0  0  0  0  0  0  0  0  0  0  0
    2.6736   -2.5467   -1.7342 O   0  0  0  0  0  0  0  0  0  0  0  0
    1.4267   -3.6823   -0.3264 N   0  0  0  0  0  0  0  0  0  0  0  0
    2.2939   -4.0133    0.0829 H   0  0  0  0  0  0  0  0  0  0  0  0
    0.5728   -3.6678    0.2366 H   0  0  0  0  0  0  0  0  0  0  0  0
   -0.5433    1.0181    0.6592 C   0  0  0  0  0  0  0  0  0  0  0  0
   -1.4751    1.6805    0.2179 O   0  0  0  0  0  0  0  0  0  0  0  0
    0.3119    1.5762    1.5910 N   0  0  0  0  0  0  0  0  0  0  0  0
    1.0527    0.9898    1.9656 H   0  0  0  0  0  0  0  0  0  0  0  0
    0.1905    2.9486    2.0673 C   0  0  0  0  0  0  0  0  0  0  0  0
   -0.7669    3.0931    2.5790 H   0  0  0  0  0  0  0  0  0  0  0  0
    0.9969    3.1775    2.7707 H   0  0  0  0  0  0  0  0  0  0  0  0
    0.2531    3.6523    1.2304 H   0  0  0  0  0  0  0  0  0  0  0  0
  1  2  1  0  0  0  0
  2  3  1  0  0  0  0
  2  4  1  0  0  0  0
  2  5  1  0  0  0  0
  5  6  2  0  0  0  0
  5  7  1  0  0  0  0
  7  8  1  0  0  0  0
  7  9  1  0  0  0  0
  9 10  1  0  0  0  0
  9 11  1  0  0  0  0
  9 22  1  0  0  0  0
 11 12  1  0  0  0  0
 11 13  1  0  0  0  0
 11 14  1  0  0  0  0
 14 15  1  0  0  0  0
 14 16  1  0  0  0  0
 14 17  1  0  0  0  0
 17 18  2  0  0  0  0
 17 19  1  0  0  0  0
 19 20  1  0  0  0  0
 19 21  1  0  0  0  0
 22 23  2  0  0  0  0
 22 24  1  0  0  0  0
 24 25  1  0  0  0  0
 24 26  1  0  0  0  0
 26 27  1  0  0  0  0
 26 28  1  0  0  0  0
 26 29  1  0  0  0  0
M  END
$$$$

  -OEChem-04042215583D

 29 28  0     1  0  0  0  0  0999 V2000
   -3.4646   -3.8612    1.2159 H   0  0  0  0  0  0  0  0  0  0  0  0
   -3.3980   -2.8639    0.7723 C   0  0  0  0  0  0  0  0  0  0  0  0
   -4.0441   -2.1848    1.3340 H   0  0  0  0  0  0  0  0  0  0  0  0
   -3.7473   -2.9148   -0.2619 H   0  0  0  0  0  0  0  0  0  0  0  0
   -1.9659   -2.3662    0.8126 C   0  0  0  0  0  0  0  0  0  0  0  0
   -1.0974   -3.0518    1.3250 O   0  0  0  0  0  0  0  0  0  0  0  0
   -1.6578   -1.1388    0.2682 N   0  0  0  0  0  0  0  0  0  0  0  0
   -2.4453   -0.5787   -0.0576 H   0  0  0  0  0  0  0  0  0  0  0  0
   -0.3552   -0.4498    0.3060 C   0  0  1  0  0  0  0  0  0  0  0  0
    0.2690   -0.9095    1.0795 H   0  0  0  0  0  0  0  0  0  0  0  0
    0.3962   -0.5367   -1.0436 C   0  0  0  0  0  0  0  0  0  0  0  0
   -0.0953    0.1501   -1.7419 H   0  0  0  0  0  0  0  0  0  0  0  0
    1.4216   -0.1741   -0.9080 H   0  0  0  0  0  0  0  0  0  0  0  0
    0.4327   -1.9183   -1.7271 C   0  0  0  0  0  0  0  0  0  0  0  0
   -0.5602   -2.3720   -1.7558 H   0  0  0  0  0  0  0  0  0  0  0  0
    0.7610   -1.7959   -2.7630 H   0  0  0  0  0  0  0  0  0  0  0  0
    1.4163   -2.8594   -1.0352 C   0  0  0  0  0  0  0  0  0  0  0  0
    2.6158   -2.6696   -1.1155 O   0  0  0  0  0  0  0  0  0  0  0  0
    1.0450   -3.9401   -0.2935 N   0  0  0  0  0  0  0  0  0  0  0  0
    1.8034   -4.3528    0.2394 H   0  0  0  0  0  0  0  0  0  0  0  0
    0.1268   -3.8869    0.1491 H   0  0  0  0  0  0  0  0  0  0  0  0
   -0.5463    1.0355    0.6721 C   0  0  0  0  0  0  0  0  0  0  0  0
   -1.4783    1.6636    0.1830 O   0  0  0  0  0  0  0  0  0  0  0  0
    0.2752    1.6437    1.6024 N   0  0  0  0  0  0  0  0  0  0  0  0
    1.0154    1.0843    2.0176 H   0  0  0  0  0  0  0  0  0  0  0  0
    0.1085    3.0261    2.0344 C   0  0  0  0  0  0  0  0  0  0  0  0
   -0.8698    3.1647    2.5067 H   0  0  0  0  0  0  0  0  0  0  0  0
    0.8833    3.2917    2.7601 H   0  0  0  0  0  0  0  0  0  0  0  0
    0.1875    3.7072    1.1804 H   0  0  0  0  0  0  0  0  0  0  0  0
  1  2  1  0  0  0  0
  2  3  1  0  0  0  0
  2  4  1  0  0  0  0
  2  5  1  0  0  0  0
  5  6  2  0  0  0  0
  5  7  1  0  0  0  0
  7  8  1  0  0  0  0
  7  9  1  0  0  0  0
  9 10  1  0  0  0  0
  9 11  1  0  0  0  0
  9 22  1  0  0  0  0
 11 12  1  0  0  0  0
 11 13  1  0  0  0  0
 11 14  1  0  0  0  0
 14 15  1  0  0  0  0
 14 16  1  0  0  0  0
 14 17  1  0  0  0  0
 17 18  2  0  0  0  0
 17 19  1  0  0  0  0
 19 20  1  0  0  0  0
 19 21  1  0  0  0  0
 22 23  2  0  0  0  0
 22 24  1  0  0  0  0
 24 25  1  0  0  0  0
 24 26  1  0  0  0  0
 26 27  1  0  0  0  0
 26 28  1  0  0  0  0
 26 29  1  0  0  0  0
M  END
$$$$

  -OEChem-04042215583D

 29 28  0     1  0  0  0  0  0999 V2000
   -3.4460   -3.7991    1.3811 H   0  0  0  0  0  0  0  0  0  0  0  0
   -3.3709   -2.8440    0.8534 C   0  0  0  0  0  0  0  0  0  0  0  0
   -4.0434   -2.1261    1.3296 H   0  0  0  0  0  0  0  0  0  0  0  0
   -3.6802   -2.9886   -0.1845 H   0  0  0  0  0  0  0  0  0  0  0  0
   -1.9448   -2.3287    0.9027 C   0  0  0  0  0  0  0  0  0  0  0  0
   -1.0860   -2.9859    1.4636 O   0  0  0  0  0  0  0  0  0  0  0  0
   -1.6445   -1.1163    0.3188 N   0  0  0  0  0  0  0  0  0  0  0  0
   -2.4341   -0.5768   -0.0343 H   0  0  0  0  0  0  0  0  0  0  0  0
   -0.3530   -0.4060    0.3593 C   0  0  1  0  0  0  0  0  0  0  0  0
    0.2605   -0.8302    1.1620 H   0  0  0  0  0  0  0  0  0  0  0  0
    0.4278   -0.5296   -0.9710 C   0  0  0  0  0  0  0  0  0  0  0  0
   -0.0391    0.1320   -1.7087 H   0  0  0  0  0  0  0  0  0  0  0  0
    1.4489   -0.1647   -0.8117 H   0  0  0  0  0  0  0  0  0  0  0  0
    0.4914   -1.9387   -1.5927 C   0  0  0  0  0  0  0  0  0  0  0  0
   -0.5170   -2.2850   -1.8315 H   0  0  0  0  0  0  0  0  0  0  0  0
    1.0564   -1.8994   -2.5277 H   0  0  0  0  0  0  0  0  0  0  0  0
    1.1672   -2.9462   -0.6641 C   0  0  0  0  0  0  0  0  0  0  0  0
    2.1610   -2.6498   -0.0243 O   0  0  0  0  0  0  0  0  0  0  0  0
    0.7638   -4.2469   -0.5770 N   0  0  0  0  0  0  0  0  0  0  0  0
    1.1508   -4.7334    0.2266 H   0  0  0  0  0  0  0  0  0  0  0  0
   -0.1976   -4.4390   -0.8323 H   0  0  0  0  0  0  0  0  0  0  0  0
   -0.5647    1.0885    0.6657 C   0  0  0  0  0  0  0  0  0  0  0  0
   -1.4862    1.6932    0.1286 O   0  0  0  0  0  0  0  0  0  0  0  0
    0.2342    1.7341    1.5900 N   0  0  0  0  0  0  0  0  0  0  0  0
    0.9662    1.1903    2.0404 H   0  0  0  0  0  0  0  0  0  0  0  0
    0.0581    3.1312    1.9657 C   0  0  0  0  0  0  0  0  0  0  0  0
   -0.9473    3.2969    2.3671 H   0  0  0  0  0  0  0  0  0  0  0  0
    0.7862    3.4106    2.7333 H   0  0  0  0  0  0  0  0  0  0  0  0
    0.2035    3.7824    1.0974 H   0  0  0  0  0  0  0  0  0  0  0  0
  1  2  1  0  0  0  0
  2  3  1  0  0  0  0
  2  4  1  0  0  0  0
  2  5  1  0  0  0  0
  5  6  2  0  0  0  0
  5  7  1  0  0  0  0
  7  8  1  0  0  0  0
  7  9  1  0  0  0  0
  9 10  1  0  0  0  0
  9 11  1  0  0  0  0
  9 22  1  0  0  0  0
 11 12  1  0  0  0  0
 11 13  1  0  0  0  0
 11 14  1  0  0  0  0
 14 15  1  0  0  0  0
 14 16  1  0  0  0  0
 14 17  1  0  0  0  0
 17 18  2  0  0  0  0
 17 19  1  0  0  0  0
 19 20  1  0  0  0  0
 19 21  1  0  0  0  0
 22 23  2  0  0  0  0
 22 24  1  0  0  0  0
 24 25  1  0  0  0  0
 24 26  1  0  0  0  0
 26 27  1  0  0  0  0
 26 28  1  0  0  0  0
 26 29  1  0  0  0  0
M  END
$$$$

  -OEChem-04042215583D

 29 28  0     1  0  0  0  0  0999 V2000
   -3.4547   -3.8056    1.3959 H   0  0  0  0  0  0  0  0  0  0  0  0
   -3.3600   -2.8615    0.8521 C   0  0  0  0  0  0  0  0  0  0  0  0
   -4.0865   -2.1506    1.2532 H   0  0  0  0  0  0  0  0  0  0  0  0
   -3.5791   -3.0390   -0.2033 H   0  0  0  0  0  0  0  0  0  0  0  0
   -1.9562   -2.3078    1.0061 C   0  0  0  0  0  0  0  0  0  0  0  0
   -1.1568   -2.8902    1.7168 O   0  0  0  0  0  0  0  0  0  0  0  0
   -1.6270   -1.1225    0.3827 N   0  0  0  0  0  0  0  0  0  0  0  0
   -2.3905   -0.6235   -0.0719 H   0  0  0  0  0  0  0  0  0  0  0  0
   -0.3344   -0.4135    0.4288 C   0  0  1  0  0  0  0  0  0  0  0  0
    0.2692   -0.8114    1.2523 H   0  0  0  0  0  0  0  0  0  0  0  0
    0.4609   -0.5534   -0.8966 C   0  0  0  0  0  0  0  0  0  0  0  0
    0.0228    0.1185   -1.6430 H   0  0  0  0  0  0  0  0  0  0  0  0
    1.4802   -0.2001   -0.7046 H   0  0  0  0  0  0  0  0  0  0  0  0
    0.5599   -1.9496   -1.5456 C   0  0  0  0  0  0  0  0  0  0  0  0
   -0.3982   -2.1854   -2.0159 H   0  0  0  0  0  0  0  0  0  0  0  0
    1.3199   -1.9370   -2.3317 H   0  0  0  0  0  0  0  0  0  0  0  0
    0.8947   -3.0609   -0.5578 C   0  0  0  0  0  0  0  0  0  0  0  0
    1.8187   -2.9363    0.2254 O   0  0  0  0  0  0  0  0  0  0  0  0
    0.2823   -4.2811   -0.5896 N   0  0  0  0  0  0  0  0  0  0  0  0
    0.4251   -4.8282    0.2556 H   0  0  0  0  0  0  0  0  0  0  0  0
   -0.6076   -4.3452   -1.0680 H   0  0  0  0  0  0  0  0  0  0  0  0
   -0.5611    1.0919    0.6678 C   0  0  0  0  0  0  0  0  0  0  0  0
   -1.4557    1.6765    0.0662 O   0  0  0  0  0  0  0  0  0  0  0  0
    0.2093    1.7772    1.5877 N   0  0  0  0  0  0  0  0  0  0  0  0
    0.8985    1.2439    2.1118 H   0  0  0  0  0  0  0  0  0  0  0  0
    0.0125    3.1855    1.9083 C   0  0  0  0  0  0  0  0  0  0  0  0
   -0.9954    3.3522    2.3027 H   0  0  0  0  0  0  0  0  0  0  0  0
    0.7367    3.5054    2.6637 H   0  0  0  0  0  0  0  0  0  0  0  0
    0.1489    3.8049    1.0156 H   0  0  0  0  0  0  0  0  0  0  0  0
  1  2  1  0  0  0  0
  2  3  1  0  0  0  0
  2  4  1  0  0  0  0
  2  5  1  0  0  0  0
  5  6  2  0  0  0  0
  5  7  1  0  0  0  0
  7  8  1  0  0  0  0
  7  9  1  0  0  0  0
  9 10  1  0  0  0  0
  9 11  1  0  0  0  0
  9 22  1  0  0  0  0
 11 12  1  0  0  0  0
 11 13  1  0  0  0  0
 11 14  1  0  0  0  0
 14 15  1  0  0  0  0
 14 16  1  0  0  0  0
 14 17  1  0  0  0  0
 17 18  2  0  0  0  0
 17 19  1  0  0  0  0
 19 20  1  0  0  0  0
 19 21  1  0  0  0  0
 22 23  2  0  0  0  0
 22 24  1  0  0  0  0
 24 25  1  0  0  0  0
 24 26  1  0  0  0  0
 26 27  1  0  0  0  0
 26 28  1  0  0  0  0
 26 29  1  0  0  0  0
M  END
$$$$

  -OEChem-04042215583D

 29 28  0     1  0  0  0  0  0999 V2000
   -3.4445   -3.8130    1.4664 H   0  0  0  0  0  0  0  0  0  0  0  0
   -3.3559   -2.8809    0.9015 C   0  0  0  0  0  0  0  0  0  0  0  0
   -4.1458   -2.1974    1.2220 H   0  0  0  0  0  0  0  0  0  0  0  0
   -3.4815   -3.1008   -0.1611 H   0  0  0  0  0  0  0  0  0  0  0  0
   -1.9974   -2.2511    1.1445 C   0  0  0  0  0  0  0  0  0  0  0  0
   -1.2644   -2.7120    2.0016 O   0  0  0  0  0  0  0  0  0  0  0  0
   -1.6529   -1.0984    0.4682 N   0  0  0  0  0  0  0  0  0  0  0  0
   -2.3780   -0.6696   -0.1036 H   0  0  0  0  0  0  0  0  0  0  0  0
   -0.3540   -0.4022    0.5108 C   0  0  1  0  0  0  0  0  0  0  0  0
    0.2350   -0.7740    1.3565 H   0  0  0  0  0  0  0  0  0  0  0  0
    0.4669   -0.5751   -0.7987 C   0  0  0  0  0  0  0  0  0  0  0  0
    0.0612    0.0997   -1.5612 H   0  0  0  0  0  0  0  0  0  0  0  0
    1.4813   -0.2273   -0.5752 H   0  0  0  0  0  0  0  0  0  0  0  0
    0.6012   -1.9642   -1.4627 C   0  0  0  0  0  0  0  0  0  0  0  0
   -0.2271   -2.0805   -2.1665 H   0  0  0  0  0  0  0  0  0  0  0  0
    1.5279   -2.0006   -2.0422 H   0  0  0  0  0  0  0  0  0  0  0  0
    0.5696   -3.1589   -0.5216 C   0  0  0  0  0  0  0  0  0  0  0  0
    1.4274   -3.2928    0.3297 O   0  0  0  0  0  0  0  0  0  0  0  0
   -0.2790   -4.2146   -0.7051 N   0  0  0  0  0  0  0  0  0  0  0  0
   -0.0881   -5.0379   -0.1403 H   0  0  0  0  0  0  0  0  0  0  0  0
   -0.8063   -4.2885   -1.5669 H   0  0  0  0  0  0  0  0  0  0  0  0
   -0.5784    1.1144    0.6772 C   0  0  0  0  0  0  0  0  0  0  0  0
   -1.4367    1.6845    0.0116 O   0  0  0  0  0  0  0  0  0  0  0  0
    0.1761    1.8343    1.5841 N   0  0  0  0  0  0  0  0  0  0  0  0
    0.8199    1.3128    2.1736 H   0  0  0  0  0  0  0  0  0  0  0  0
   -0.0255    3.2542    1.8441 C   0  0  0  0  0  0  0  0  0  0  0  0
   -1.0369    3.4346    2.2233 H   0  0  0  0  0  0  0  0  0  0  0  0
    0.6924    3.6068    2.5909 H   0  0  0  0  0  0  0  0  0  0  0  0
    0.1165    3.8364    0.9275 H   0  0  0  0  0  0  0  0  0  0  0  0
  1  2  1  0  0  0  0
  2  3  1  0  0  0  0
  2  4  1  0  0  0  0
  2  5  1  0  0  0  0
  5  6  2  0  0  0  0
  5  7  1  0  0  0  0
  7  8  1  0  0  0  0
  7  9  1  0  0  0  0
  9 10  1  0  0  0  0
  9 11  1  0  0  0  0
  9 22  1  0  0  0  0
 11 12  1  0  0  0  0
 11 13  1  0  0  0  0
 11 14  1  0  0  0  0
 14 15  1  0  0  0  0
 14 16  1  0  0  0  0
 14 17  1  0  0  0  0
 17 18  2  0  0  0  0
 17 19  1  0  0  0  0
 19 20  1  0  0  0  0
 19 21  1  0  0  0  0
 22 23  2  0  0  0  0
 22 24  1  0  0  0  0
 24 25  1  0  0  0  0
 24 26  1  0  0  0  0
 26 27  1  0  0  0  0
 26 28  1  0  0  0  0
 26 29  1  0  0  0  0
M  END
$$$$

  -OEChem-04042215583D

 29 28  0     1  0  0  0  0  0999 V2000
   -3.6427   -3.8446    1.3103 H   0  0  0  0  0  0  0  0  0  0  0  0
   -3.5436   -2.8982    0.7719 C   0  0  0  0  0  0  0  0  0  0  0  0
   -4.3021   -2.2018    1.1368 H   0  0  0  0  0  0  0  0  0  0  0  0
   -3.7090   -3.0814   -0.2931 H   0  0  0  0  0  0  0  0  0  0  0  0
   -2.1593   -2.3167    0.9858 C   0  0  0  0  0  0  0  0  0  0  0  0
   -1.3552   -2.8916    1.7072 O   0  0  0  0  0  0  0  0  0  0  0  0
   -1.8282   -1.0994    0.4236 N   0  0  0  0  0  0  0  0  0  0  0  0
   -2.5490   -0.6370   -0.1284 H   0  0  0  0  0  0  0  0  0  0  0  0
   -0.5002   -0.4658    0.4607 C   0  0  1  0  0  0  0  0  0  0  0  0
    0.1144   -0.9485    1.2270 H   0  0  0  0  0  0  0  0  0  0  0  0
    0.2768   -0.4899   -0.8908 C   0  0  0  0  0  0  0  0  0  0  0  0
   -0.1738    0.2792   -1.5296 H   0  0  0  0  0  0  0  0  0  0  0  0
    1.2981   -0.1554   -0.6793 H   0  0  0  0  0  0  0  0  0  0  0  0
    0.3804   -1.7536   -1.7900 C   0  0  0  0  0  0  0  0  0  0  0  0
   -0.0219   -1.4993   -2.7757 H   0  0  0  0  0  0  0  0  0  0  0  0
    1.4400   -1.9812   -1.9362 H   0  0  0  0  0  0  0  0  0  0  0  0
   -0.2982   -3.0433   -1.3551 C   0  0  0  0  0  0  0  0  0  0  0  0
   -1.3738   -3.3823   -1.8154 O   0  0  0  0  0  0  0  0  0  0  0  0
    0.3157   -3.9327   -0.5213 N   0  0  0  0  0  0  0  0  0  0  0  0
    1.0452   -3.5656    0.0790 H   0  0  0  0  0  0  0  0  0  0  0  0
   -0.3131   -4.6296   -0.1316 H   0  0  0  0  0  0  0  0  0  0  0  0
   -0.6628    1.0263    0.8262 C   0  0  0  0  0  0  0  0  0  0  0  0
   -1.5180    1.7090    0.2743 O   0  0  0  0  0  0  0  0  0  0  0  0
    0.1700    1.6091    1.7635 N   0  0  0  0  0  0  0  0  0  0  0  0
    0.8028    0.9987    2.2725 H   0  0  0  0  0  0  0  0  0  0  0  0
    0.0331    2.9947    2.1960 C   0  0  0  0  0  0  0  0  0  0  0  0
   -0.9573    3.1646    2.6316 H   0  0  0  0  0  0  0  0  0  0  0  0
    0.7884    3.2319    2.9513 H   0  0  0  0  0  0  0  0  0  0  0  0
    0.1668    3.6756    1.3488 H   0  0  0  0  0  0  0  0  0  0  0  0
  1  2  1  0  0  0  0
  2  3  1  0  0  0  0
  2  4  1  0  0  0  0
  2  5  1  0  0  0  0
  5  6  2  0  0  0  0
  5  7  1  0  0  0  0
  7  8  1  0  0  0  0
  7  9  1  0  0  0  0
  9 10  1  0  0  0  0
  9 11  1  0  0  0  0
  9 22  1  0  0  0  0
 11 12  1  0  0  0  0
 11 13  1  0  0  0  0
 11 14  1  0  0  0  0
 14 15  1  0  0  0  0
 14 16  1  0  0  0  0
 14 17  1  0  0  0  0
 17 18  2  0  0  0  0
 17 19  1  0  0  0  0
 19 20  1  0  0  0  0
 19 21  1  0  0  0  0
 22 23  2  0  0  0  0
 22 24  1  0  0  0  0
 24 25  1  0  0  0  0
 24 26  1  0  0  0  0
 26 27  1  0  0  0  0
 26 28  1  0  0  0  0
 26 29  1  0  0  0  0
M  END
$$$$

  -OEChem-04042215583D

 29 28  0     1  0  0  0  0  0999 V2000
   -3.7387   -3.6968    1.3665 H   0  0  0  0  0  0  0  0  0  0  0  0
   -3.6121   -2.7675    0.8048 C   0  0  0  0  0  0  0  0  0  0  0  0
   -4.3526   -2.0420    1.1497 H   0  0  0  0  0  0  0  0  0  0  0  0
   -3.7803   -2.9717   -0.2558 H   0  0  0  0  0  0  0  0  0  0  0  0
   -2.2132   -2.2179    1.0089 C   0  0  0  0  0  0  0  0  0  0  0  0
   -1.4284   -2.7937    1.7505 O   0  0  0  0  0  0  0  0  0  0  0  0
   -1.8364   -1.0455    0.3852 N   0  0  0  0  0  0  0  0  0  0  0  0
   -2.5283   -0.6000   -0.2161 H   0  0  0  0  0  0  0  0  0  0  0  0
   -0.4990   -0.4361    0.4375 C   0  0  1  0  0  0  0  0  0  0  0  0
    0.0647   -0.8750    1.2664 H   0  0  0  0  0  0  0  0  0  0  0  0
    0.3539   -0.5759   -0.8591 C   0  0  0  0  0  0  0  0  0  0  0  0
   -0.0733    0.1345   -1.5768 H   0  0  0  0  0  0  0  0  0  0  0  0
    1.3648   -0.2192   -0.6348 H   0  0  0  0  0  0  0  0  0  0  0  0
    0.4876   -1.9045   -1.6550 C   0  0  0  0  0  0  0  0  0  0  0  0
    0.4407   -1.6716   -2.7231 H   0  0  0  0  0  0  0  0  0  0  0  0
    1.4896   -2.2992   -1.4666 H   0  0  0  0  0  0  0  0  0  0  0  0
   -0.4820   -3.0490   -1.3974 C   0  0  0  0  0  0  0  0  0  0  0  0
   -1.5597   -3.1112   -1.9614 O   0  0  0  0  0  0  0  0  0  0  0  0
   -0.1496   -4.1146   -0.6111 N   0  0  0  0  0  0  0  0  0  0  0  0
    0.5502   -3.9492    0.1050 H   0  0  0  0  0  0  0  0  0  0  0  0
   -0.9319   -4.7195   -0.3800 H   0  0  0  0  0  0  0  0  0  0  0  0
   -0.6432    1.0792    0.7001 C   0  0  0  0  0  0  0  0  0  0  0  0
   -1.4669    1.7398    0.0781 O   0  0  0  0  0  0  0  0  0  0  0  0
    0.1638    1.7054    1.6323 N   0  0  0  0  0  0  0  0  0  0  0  0
    0.7714    1.1182    2.1964 H   0  0  0  0  0  0  0  0  0  0  0  0
    0.0336    3.1164    1.9762 C   0  0  0  0  0  0  0  0  0  0  0  0
   -0.9650    3.3228    2.3758 H   0  0  0  0  0  0  0  0  0  0  0  0
    0.7734    3.3911    2.7341 H   0  0  0  0  0  0  0  0  0  0  0  0
    0.1959    3.7430    1.0928 H   0  0  0  0  0  0  0  0  0  0  0  0
  1  2  1  0  0  0  0
  2  3  1  0  0  0  0
  2  4  1  0  0  0  0
  2  5  1  0  0  0  0
  5  6  2  0  0  0  0
  5  7  1  0  0  0  0
  7  8  1  0  0  0  0
  7  9  1  0  0  0  0
  9 10  1  0  0  0  0
  9 11  1  0  0  0  0
  9 22  1  0  0  0  0
 11 12  1  0  0  0  0
 11 13  1  0  0  0  0
 11 14  1  0  0  0  0
 14 15  1  0  0  0  0
 14 16  1  0  0  0  0
 14 17  1  0  0  0  0
 17 18  2  0  0  0  0
 17 19  1  0  0  0  0
 19 20  1  0  0  0  0
 19 21  1  0  0  0  0
 22 23  2  0  0  0  0
 22 24  1  0  0  0  0
 24 25  1  0  0  0  0
 24 26  1  0  0  0  0
 26 27  1  0  0  0  0
 26 28  1  0  0  0  0
 26 29  1  0  0  0  0
M  END
$$$$

  -OEChem-04042215583D

 29 28  0     1  0  0  0  0  0999 V2000
   -3.5412   -3.7369    1.6269 H   0  0  0  0  0  0  0  0  0  0  0  0
   -3.4943   -2.7772    1.1054 C   0  0  0  0  0  0  0  0  0  0  0  0
   -4.1578   -2.0694    1.6080 H   0  0  0  0  0  0  0  0  0  0  0  0
   -3.8361   -2.9166    0.0763 H   0  0  0  0  0  0  0  0  0  0  0  0
   -2.0736   -2.2458    1.1085 C   0  0  0  0  0  0  0  0  0  0  0  0
   -1.1761   -2.8901    1.6346 O   0  0  0  0  0  0  0  0  0  0  0  0
   -1.7935   -1.0392    0.5010 N   0  0  0  0  0  0  0  0  0  0  0  0
   -2.5694   -0.5580    0.0470 H   0  0  0  0  0  0  0  0  0  0  0  0
   -0.4641   -0.4239    0.3878 C   0  0  1  0  0  0  0  0  0  0  0  0
    0.2069   -0.8992    1.1103 H   0  0  0  0  0  0  0  0  0  0  0  0
    0.2040   -0.5174   -1.0144 C   0  0  0  0  0  0  0  0  0  0  0  0
   -0.3261    0.2062   -1.6452 H   0  0  0  0  0  0  0  0  0  0  0  0
    1.2355   -0.1611   -0.9264 H   0  0  0  0  0  0  0  0  0  0  0  0
    0.2201   -1.8290   -1.8452 C   0  0  0  0  0  0  0  0  0  0  0  0
    0.3027   -1.5678   -2.9041 H   0  0  0  0  0  0  0  0  0  0  0  0
    1.1346   -2.3665   -1.5808 H   0  0  0  0  0  0  0  0  0  0  0  0
   -0.9234   -2.8257   -1.7043 C   0  0  0  0  0  0  0  0  0  0  0  0
   -2.0336   -2.5977   -2.1502 O   0  0  0  0  0  0  0  0  0  0  0  0
   -0.7447   -4.0597   -1.1475 N   0  0  0  0  0  0  0  0  0  0  0  0
   -1.6038   -4.5736   -0.9806 H   0  0  0  0  0  0  0  0  0  0  0  0
    0.0079   -4.1485   -0.4709 H   0  0  0  0  0  0  0  0  0  0  0  0
   -0.5551    1.0749    0.7470 C   0  0  0  0  0  0  0  0  0  0  0  0
   -1.4601    1.7659    0.2945 O   0  0  0  0  0  0  0  0  0  0  0  0
    0.3873    1.6509    1.5791 N   0  0  0  0  0  0  0  0  0  0  0  0
    1.0777    1.0377    2.0028 H   0  0  0  0  0  0  0  0  0  0  0  0
    0.3317    3.0454    2.0008 C   0  0  0  0  0  0  0  0  0  0  0  0
   -0.5872    3.2391    2.5642 H   0  0  0  0  0  0  0  0  0  0  0  0
    1.1870    3.2813    2.6413 H   0  0  0  0  0  0  0  0  0  0  0  0
    0.3586    3.7105    1.1311 H   0  0  0  0  0  0  0  0  0  0  0  0
  1  2  1  0  0  0  0
  2  3  1  0  0  0  0
  2  4  1  0  0  0  0
  2  5  1  0  0  0  0
  5  6  2  0  0  0  0
  5  7  1  0  0  0  0
  7  8  1  0  0  0  0
  7  9  1  0  0  0  0
  9 10  1  0  0  0  0
  9 11  1  0  0  0  0
  9 22  1  0  0  0  0
 11 12  1  0  0  0  0
 11 13  1  0  0  0  0
 11 14  1  0  0  0  0
 14 15  1  0  0  0  0
 14 16  1  0  0  0  0
 14 17  1  0  0  0  0
 17 18  2  0  0  0  0
 17 19  1  0  0  0  0
 19 20  1  0  0  0  0
 19 21  1  0  0  0  0
 22 23  2  0  0  0  0
 22 24  1  0  0  0  0
 24 25  1  0  0  0  0
 24 26  1  0  0  0  0
 26 27  1  0  0  0  0
 26 28  1  0  0  0  0
 26 29  1  0  0  0  0
M  END
$$$$

  -OEChem-04042215583D

 29 28  0     1  0  0  0  0  0999 V2000
   -3.4880   -3.7839    1.4978 H   0  0  0  0  0  0  0  0  0  0  0  0
   -3.4542   -2.8032    1.0156 C   0  0  0  0  0  0  0  0  0  0  0  0
   -4.1138   -2.1205    1.5566 H   0  0  0  0  0  0  0  0  0  0  0  0
   -3.8101   -2.9015   -0.0134 H   0  0  0  0  0  0  0  0  0  0  0  0
   -2.0367   -2.2639    1.0201 C   0  0  0  0  0  0  0  0  0  0  0  0
   -1.1271   -2.9273    1.4988 O   0  0  0  0  0  0  0  0  0  0  0  0
   -1.7689   -1.0483    0.4269 N   0  0  0  0  0  0  0  0  0  0  0  0
   -2.5508   -0.5610   -0.0108 H   0  0  0  0  0  0  0  0  0  0  0  0
   -0.4537   -0.3990    0.3565 C   0  0  1  0  0  0  0  0  0  0  0  0
    0.1980   -0.8580    1.1065 H   0  0  0  0  0  0  0  0  0  0  0  0
    0.2674   -0.5076   -1.0148 C   0  0  0  0  0  0  0  0  0  0  0  0
   -0.2423    0.1901   -1.6899 H   0  0  0  0  0  0  0  0  0  0  0  0
    1.2927   -0.1426   -0.8942 H   0  0  0  0  0  0  0  0  0  0  0  0
    0.3216   -1.8581   -1.7737 C   0  0  0  0  0  0  0  0  0  0  0  0
    0.6823   -1.6725   -2.7892 H   0  0  0  0  0  0  0  0  0  0  0  0
    1.0683   -2.4825   -1.2759 H   0  0  0  0  0  0  0  0  0  0  0  0
   -0.9549   -2.6851   -1.8822 C   0  0  0  0  0  0  0  0  0  0  0  0
   -1.9674   -2.2523   -2.4019 O   0  0  0  0  0  0  0  0  0  0  0  0
   -1.0186   -3.9745   -1.4364 N   0  0  0  0  0  0  0  0  0  0  0  0
   -1.9509   -4.3748   -1.4266 H   0  0  0  0  0  0  0  0  0  0  0  0
   -0.3662   -4.2363   -0.7020 H   0  0  0  0  0  0  0  0  0  0  0  0
   -0.5809    1.0963    0.7149 C   0  0  0  0  0  0  0  0  0  0  0  0
   -1.4936    1.7674    0.2489 O   0  0  0  0  0  0  0  0  0  0  0  0
    0.3263    1.6884    1.5746 N   0  0  0  0  0  0  0  0  0  0  0  0
    1.0266    1.0912    2.0050 H   0  0  0  0  0  0  0  0  0  0  0  0
    0.2295    3.0799    1.9995 C   0  0  0  0  0  0  0  0  0  0  0  0
   -0.7166    3.2555    2.5225 H   0  0  0  0  0  0  0  0  0  0  0  0
    1.0515    3.3264    2.6786 H   0  0  0  0  0  0  0  0  0  0  0  0
    0.2839    3.7494    1.1345 H   0  0  0  0  0  0  0  0  0  0  0  0
  1  2  1  0  0  0  0
  2  3  1  0  0  0  0
  2  4  1  0  0  0  0
  2  5  1  0  0  0  0
  5  6  2  0  0  0  0
  5  7  1  0  0  0  0
  7  8  1  0  0  0  0
  7  9  1  0  0  0  0
  9 10  1  0  0  0  0
  9 11  1  0  0  0  0
  9 22  1  0  0  0  0
 11 12  1  0  0  0  0
 11 13  1  0  0  0  0
 11 14  1  0  0  0  0
 14 15  1  0  0  0  0
 14 16  1  0  0  0  0
 14 17  1  0  0  0  0
 17 18  2  0  0  0  0
 17 19  1  0  0  0  0
 19 20  1  0  0  0  0
 19 21  1  0  0  0  0
 22 23  2  0  0  0  0
 22 24  1  0  0  0  0
 24 25  1  0  0  0  0
 24 26  1  0  0  0  0
 26 27  1  0  0  0  0
 26 28  1  0  0  0  0
 26 29  1  0  0  0  0
M  END
$$$$

  -OEChem-04042215583D

 29 28  0     1  0  0  0  0  0999 V2000
   -3.4182   -3.8374    1.3707 H   0  0  0  0  0  0  0  0  0  0  0  0
   -3.4005   -2.8353    0.9337 C   0  0  0  0  0  0  0  0  0  0  0  0
   -4.0456   -2.1806    1.5248 H   0  0  0  0  0  0  0  0  0  0  0  0
   -3.7861   -2.8870   -0.0878 H   0  0  0  0  0  0  0  0  0  0  0  0
   -1.9844   -2.2924    0.9228 C   0  0  0  0  0  0  0  0  0  0  0  0
   -1.0616   -2.9737    1.3463 O   0  0  0  0  0  0  0  0  0  0  0  0
   -1.7324   -1.0620    0.3549 N   0  0  0  0  0  0  0  0  0  0  0  0
   -2.5263   -0.5589   -0.0418 H   0  0  0  0  0  0  0  0  0  0  0  0
   -0.4334   -0.3776    0.3249 C   0  0  1  0  0  0  0  0  0  0  0  0
    0.2056   -0.8294    1.0904 H   0  0  0  0  0  0  0  0  0  0  0  0
    0.3191   -0.4906   -1.0251 C   0  0  0  0  0  0  0  0  0  0  0  0
   -0.1652    0.1909   -1.7346 H   0  0  0  0  0  0  0  0  0  0  0  0
    1.3424   -0.1298   -0.8802 H   0  0  0  0  0  0  0  0  0  0  0  0
    0.3821   -1.8790   -1.7049 C   0  0  0  0  0  0  0  0  0  0  0  0
    0.9729   -1.7938   -2.6209 H   0  0  0  0  0  0  0  0  0  0  0  0
    0.9143   -2.5593   -1.0343 H   0  0  0  0  0  0  0  0  0  0  0  0
   -0.9480   -2.5276   -2.0783 C   0  0  0  0  0  0  0  0  0  0  0  0
   -1.8357   -1.9236   -2.6518 O   0  0  0  0  0  0  0  0  0  0  0  0
   -1.2127   -3.8345   -1.7833 N   0  0  0  0  0  0  0  0  0  0  0  0
   -2.1741   -4.1242   -1.9287 H   0  0  0  0  0  0  0  0  0  0  0  0
   -0.6693   -4.2618   -1.0377 H   0  0  0  0  0  0  0  0  0  0  0  0
   -0.5924    1.1102    0.6979 C   0  0  0  0  0  0  0  0  0  0  0  0
   -1.5189    1.7655    0.2375 O   0  0  0  0  0  0  0  0  0  0  0  0
    0.2864    1.7065    1.5836 N   0  0  0  0  0  0  0  0  0  0  0  0
    1.0015    1.1209    2.0051 H   0  0  0  0  0  0  0  0  0  0  0  0
    0.1653    3.0936    2.0161 C   0  0  0  0  0  0  0  0  0  0  0  0
   -0.7842    3.2508    2.5385 H   0  0  0  0  0  0  0  0  0  0  0  0
    0.9823    3.3502    2.6972 H   0  0  0  0  0  0  0  0  0  0  0  0
    0.2097    3.7686    1.1548 H   0  0  0  0  0  0  0  0  0  0  0  0
  1  2  1  0  0  0  0
  2  3  1  0  0  0  0
  2  4  1  0  0  0  0
  2  5  1  0  0  0  0
  5  6  2  0  0  0  0
  5  7  1  0  0  0  0
  7  8  1  0  0  0  0
  7  9  1  0  0  0  0
  9 10  1  0  0  0  0
  9 11  1  0  0  0  0
  9 22  1  0  0  0  0
 11 12  1  0  0  0  0
 11 13  1  0  0  0  0
 11 14  1  0  0  0  0
 14 15  1  0  0  0  0
 14 16  1  0  0  0  0
 14 17  1  0  0  0  0
 17 18  2  0  0  0  0
 17 19  1  0  0  0  0
 19 20  1  0  0  0  0
 19 21  1  0  0  0  0
 22 23  2  0  0  0  0
 22 24  1  0  0  0  0
 24 25  1  0  0  0  0
 24 26  1  0  0  0  0
 26 27  1  0  0  0  0
 26 28  1  0  0  0  0
 26 29  1  0  0  0  0
M  END
$$$$

  -OEChem-04042215583D

 29 28  0     1  0  0  0  0  0999 V2000
   -3.3587   -3.8460    1.3571 H   0  0  0  0  0  0  0  0  0  0  0  0
   -3.3351   -2.8769    0.8518 C   0  0  0  0  0  0  0  0  0  0  0  0
   -4.0959   -2.2291    1.2938 H   0  0  0  0  0  0  0  0  0  0  0  0
   -3.5634   -3.0240   -0.2070 H   0  0  0  0  0  0  0  0  0  0  0  0
   -1.9664   -2.2417    1.0003 C   0  0  0  0  0  0  0  0  0  0  0  0
   -1.0807   -2.8272    1.6056 O   0  0  0  0  0  0  0  0  0  0  0  0
   -1.7124   -1.0264    0.4011 N   0  0  0  0  0  0  0  0  0  0  0  0
   -2.4507   -0.6348   -0.1845 H   0  0  0  0  0  0  0  0  0  0  0  0
   -0.4161   -0.3357    0.3843 C   0  0  1  0  0  0  0  0  0  0  0  0
    0.2207   -0.7659    1.1638 H   0  0  0  0  0  0  0  0  0  0  0  0
    0.3135   -0.5071   -0.9694 C   0  0  0  0  0  0  0  0  0  0  0  0
   -0.1446    0.1607   -1.7087 H   0  0  0  0  0  0  0  0  0  0  0  0
    1.3502   -0.1799   -0.8402 H   0  0  0  0  0  0  0  0  0  0  0  0
    0.3174   -1.9438   -1.5433 C   0  0  0  0  0  0  0  0  0  0  0  0
    1.0754   -2.0010   -2.3287 H   0  0  0  0  0  0  0  0  0  0  0  0
    0.6100   -2.6385   -0.7507 H   0  0  0  0  0  0  0  0  0  0  0  0
   -1.0023   -2.4198   -2.1529 C   0  0  0  0  0  0  0  0  0  0  0  0
   -1.8793   -1.6675   -2.5375 O   0  0  0  0  0  0  0  0  0  0  0  0
   -1.2765   -3.7502   -2.2920 N   0  0  0  0  0  0  0  0  0  0  0  0
   -2.0831   -3.9877   -2.8616 H   0  0  0  0  0  0  0  0  0  0  0  0
   -0.5360   -4.4268   -2.1387 H   0  0  0  0  0  0  0  0  0  0  0  0
   -0.5707    1.1642    0.7072 C   0  0  0  0  0  0  0  0  0  0  0  0
   -1.4525    1.8269    0.1753 O   0  0  0  0  0  0  0  0  0  0  0  0
    0.2947    1.7770    1.5950 N   0  0  0  0  0  0  0  0  0  0  0  0
    0.9642    1.1867    2.0799 H   0  0  0  0  0  0  0  0  0  0  0  0
    0.1769    3.1764    1.9858 C   0  0  0  0  0  0  0  0  0  0  0  0
   -0.7907    3.3602    2.4645 H   0  0  0  0  0  0  0  0  0  0  0  0
    0.9686    3.4393    2.6937 H   0  0  0  0  0  0  0  0  0  0  0  0
    0.2668    3.8279    1.1100 H   0  0  0  0  0  0  0  0  0  0  0  0
  1  2  1  0  0  0  0
  2  3  1  0  0  0  0
  2  4  1  0  0  0  0
  2  5  1  0  0  0  0
  5  6  2  0  0  0  0
  5  7  1  0  0  0  0
  7  8  1  0  0  0  0
  7  9  1  0  0  0  0
  9 10  1  0  0  0  0
  9 11  1  0  0  0  0
  9 22  1  0  0  0  0
 11 12  1  0  0  0  0
 11 13  1  0  0  0  0
 11 14  1  0  0  0  0
 14 15  1  0  0  0  0
 14 16  1  0  0  0  0
 14 17  1  0  0  0  0
 17 18  2  0  0  0  0
 17 19  1  0  0  0  0
 19 20  1  0  0  0  0
 19 21  1  0  0  0  0
 22 23  2  0  0  0  0
 22 24  1  0  0  0  0
 24 25  1  0  0  0  0
 24 26  1  0  0  0  0
 26 27  1  0  0  0  0
 26 28  1  0  0  0  0
 26 29  1  0  0  0  0
M  END
$$$$

  -OEChem-04042215583D

 29 28  0     1  0  0  0  0  0999 V2000
   -3.3634   -3.8504    1.3246 H   0  0  0  0  0  0  0  0  0  0  0  0
   -3.3320   -2.8800    0.8217 C   0  0  0  0  0  0  0  0  0  0  0  0
   -4.1268   -2.2472    1.2235 H   0  0  0  0  0  0  0  0  0  0  0  0
   -3.5025   -3.0295   -0.2476 H   0  0  0  0  0  0  0  0  0  0  0  0
   -1.9857   -2.2174    1.0410 C   0  0  0  0  0  0  0  0  0  0  0  0
   -1.1353   -2.7690    1.7239 O   0  0  0  0  0  0  0  0  0  0  0  0
   -1.7118   -1.0174    0.4210 N   0  0  0  0  0  0  0  0  0  0  0  0
   -2.4075   -0.6794   -0.2456 H   0  0  0  0  0  0  0  0  0  0  0  0
   -0.4123   -0.3307    0.4174 C   0  0  1  0  0  0  0  0  0  0  0  0
    0.2150   -0.7509    1.2096 H   0  0  0  0  0  0  0  0  0  0  0  0
    0.3108   -0.5424   -0.9320 C   0  0  0  0  0  0  0  0  0  0  0  0
   -0.1267    0.1174   -1.6908 H   0  0  0  0  0  0  0  0  0  0  0  0
    1.3539   -0.2351   -0.8050 H   0  0  0  0  0  0  0  0  0  0  0  0
    0.2837   -2.0000   -1.4501 C   0  0  0  0  0  0  0  0  0  0  0  0
    1.1829   -2.1563   -2.0521 H   0  0  0  0  0  0  0  0  0  0  0  0
    0.3329   -2.6985   -0.6107 H   0  0  0  0  0  0  0  0  0  0  0  0
   -0.9100   -2.3541   -2.3392 C   0  0  0  0  0  0  0  0  0  0  0  0
   -1.9052   -1.6611   -2.4542 O   0  0  0  0  0  0  0  0  0  0  0  0
   -0.9448   -3.5348   -3.0234 N   0  0  0  0  0  0  0  0  0  0  0  0
   -1.8340   -3.7820   -3.4477 H   0  0  0  0  0  0  0  0  0  0  0  0
   -0.2620   -4.2525   -2.8047 H   0  0  0  0  0  0  0  0  0  0  0  0
   -0.5574    1.1780    0.7018 C   0  0  0  0  0  0  0  0  0  0  0  0
   -1.4086    1.8422    0.1240 O   0  0  0  0  0  0  0  0  0  0  0  0
    0.2967    1.8014    1.5935 N   0  0  0  0  0  0  0  0  0  0  0  0
    0.9364    1.2123    2.1187 H   0  0  0  0  0  0  0  0  0  0  0  0
    0.1925    3.2131    1.9424 C   0  0  0  0  0  0  0  0  0  0  0  0
   -0.7745    3.4208    2.4125 H   0  0  0  0  0  0  0  0  0  0  0  0
    0.9857    3.4891    2.6437 H   0  0  0  0  0  0  0  0  0  0  0  0
    0.2909    3.8374    1.0481 H   0  0  0  0  0  0  0  0  0  0  0  0
  1  2  1  0  0  0  0
  2  3  1  0  0  0  0
  2  4  1  0  0  0  0
  2  5  1  0  0  0  0
  5  6  2  0  0  0  0
  5  7  1  0  0  0  0
  7  8  1  0  0  0  0
  7  9  1  0  0  0  0
  9 10  1  0  0  0  0
  9 11  1  0  0  0  0
  9 22  1  0  0  0  0
 11 12  1  0  0  0  0
 11 13  1  0  0  0  0
 11 14  1  0  0  0  0
 14 15  1  0  0  0  0
 14 16  1  0  0  0  0
 14 17  1  0  0  0  0
 17 18  2  0  0  0  0
 17 19  1  0  0  0  0
 19 20  1  0  0  0  0
 19 21  1  0  0  0  0
 22 23  2  0  0  0  0
 22 24  1  0  0  0  0
 24 25  1  0  0  0  0
 24 26  1  0  0  0  0
 26 27  1  0  0  0  0
 26 28  1  0  0  0  0
 26 29  1  0  0  0  0
M  END
$$$$

  -OEChem-04042215583D

 29 28  0     1  0  0  0  0  0999 V2000
   -3.5260   -3.7383    1.6133 H   0  0  0  0  0  0  0  0  0  0  0  0
   -3.4358   -2.8432    0.9922 C   0  0  0  0  0  0  0  0  0  0  0  0
   -4.2345   -2.1463    1.2570 H   0  0  0  0  0  0  0  0  0  0  0  0
   -3.5458   -3.1289   -0.0572 H   0  0  0  0  0  0  0  0  0  0  0  0
   -2.0852   -2.1879    1.2080 C   0  0  0  0  0  0  0  0  0  0  0  0
   -1.2861   -2.6738    1.9953 O   0  0  0  0  0  0  0  0  0  0  0  0
   -1.7586   -1.0516    0.4981 N   0  0  0  0  0  0  0  0  0  0  0  0
   -2.4206   -0.7677   -0.2242 H   0  0  0  0  0  0  0  0  0  0  0  0
   -0.4327   -0.4136    0.4732 C   0  0  1  0  0  0  0  0  0  0  0  0
    0.1724   -0.7961    1.3014 H   0  0  0  0  0  0  0  0  0  0  0  0
    0.2908   -0.7377   -0.8543 C   0  0  0  0  0  0  0  0  0  0  0  0
   -0.1213   -0.1096   -1.6537 H   0  0  0  0  0  0  0  0  0  0  0  0
    1.3436   -0.4590   -0.7418 H   0  0  0  0  0  0  0  0  0  0  0  0
    0.2107   -2.2208   -1.2844 C   0  0  0  0  0  0  0  0  0  0  0  0
    1.1994   -2.5318   -1.6318 H   0  0  0  0  0  0  0  0  0  0  0  0
   -0.0417   -2.8738   -0.4463 H   0  0  0  0  0  0  0  0  0  0  0  0
   -0.7752   -2.4335   -2.4289 C   0  0  0  0  0  0  0  0  0  0  0  0
   -1.9736   -2.2728   -2.2829 O   0  0  0  0  0  0  0  0  0  0  0  0
   -0.3659   -2.7806   -3.6850 N   0  0  0  0  0  0  0  0  0  0  0  0
   -1.0984   -3.0355   -4.3413 H   0  0  0  0  0  0  0  0  0  0  0  0
    0.5852   -3.1038   -3.8257 H   0  0  0  0  0  0  0  0  0  0  0  0
   -0.5355    1.1167    0.6340 C   0  0  0  0  0  0  0  0  0  0  0  0
   -1.3348    1.7600   -0.0352 O   0  0  0  0  0  0  0  0  0  0  0  0
    0.3168    1.7823    1.4961 N   0  0  0  0  0  0  0  0  0  0  0  0
    0.9058    1.2146    2.0987 H   0  0  0  0  0  0  0  0  0  0  0  0
    0.2379    3.2173    1.7411 C   0  0  0  0  0  0  0  0  0  0  0  0
   -0.7459    3.4841    2.1416 H   0  0  0  0  0  0  0  0  0  0  0  0
    1.0000    3.5197    2.4655 H   0  0  0  0  0  0  0  0  0  0  0  0
    0.4035    3.7744    0.8131 H   0  0  0  0  0  0  0  0  0  0  0  0
  1  2  1  0  0  0  0
  2  3  1  0  0  0  0
  2  4  1  0  0  0  0
  2  5  1  0  0  0  0
  5  6  2  0  0  0  0
  5  7  1  0  0  0  0
  7  8  1  0  0  0  0
  7  9  1  0  0  0  0
  9 10  1  0  0  0  0
  9 11  1  0  0  0  0
  9 22  1  0  0  0  0
 11 12  1  0  0  0  0
 11 13  1  0  0  0  0
 11 14  1  0  0  0  0
 14 15  1  0  0  0  0
 14 16  1  0  0  0  0
 14 17  1  0  0  0  0
 17 18  2  0  0  0  0
 17 19  1  0  0  0  0
 19 20  1  0  0  0  0
 19 21  1  0  0  0  0
 22 23  2  0  0  0  0
 22 24  1  0  0  0  0
 24 25  1  0  0  0  0
 24 26  1  0  0  0  0
 26 27  1  0  0  0  0
 26 28  1  0  0  0  0
 26 29  1  0  0  0  0
M  END
$$$$

  -OEChem-04042215583D

 29 28  0     1  0  0  0  0  0999 V2000
   -3.6522   -3.6671    1.6842 H   0  0  0  0  0  0  0  0  0  0  0  0
   -3.5419   -2.7748    1.0618 C   0  0  0  0  0  0  0  0  0  0  0  0
   -4.2909   -2.0387    1.3629 H   0  0  0  0  0  0  0  0  0  0  0  0
   -3.7109   -3.0497    0.0173 H   0  0  0  0  0  0  0  0  0  0  0  0
   -2.1506   -2.1926    1.2206 C   0  0  0  0  0  0  0  0  0  0  0  0
   -1.3420   -2.7260    1.9657 O   0  0  0  0  0  0  0  0  0  0  0  0
   -1.7954   -1.0704    0.5011 N   0  0  0  0  0  0  0  0  0  0  0  0
   -2.4980   -0.6850   -0.1285 H   0  0  0  0  0  0  0  0  0  0  0  0
   -0.4546   -0.4633    0.4610 C   0  0  1  0  0  0  0  0  0  0  0  0
    0.1437   -0.8517    1.2913 H   0  0  0  0  0  0  0  0  0  0  0  0
    0.2644   -0.8088   -0.8636 C   0  0  0  0  0  0  0  0  0  0  0  0
   -0.1573   -0.1783   -1.6562 H   0  0  0  0  0  0  0  0  0  0  0  0
    1.3200   -0.5339   -0.7689 H   0  0  0  0  0  0  0  0  0  0  0  0
    0.1688   -2.2907   -1.3011 C   0  0  0  0  0  0  0  0  0  0  0  0
    1.1792   -2.7005   -1.3768 H   0  0  0  0  0  0  0  0  0  0  0  0
   -0.3551   -2.9092   -0.5721 H   0  0  0  0  0  0  0  0  0  0  0  0
   -0.5116   -2.4326   -2.6551 C   0  0  0  0  0  0  0  0  0  0  0  0
   -1.7235   -2.4848   -2.7497 O   0  0  0  0  0  0  0  0  0  0  0  0
    0.1931   -2.4623   -3.8249 N   0  0  0  0  0  0  0  0  0  0  0  0
   -0.3351   -2.6915   -4.6620 H   0  0  0  0  0  0  0  0  0  0  0  0
    1.1979   -2.5962   -3.7972 H   0  0  0  0  0  0  0  0  0  0  0  0
   -0.5271    1.0697    0.6098 C   0  0  0  0  0  0  0  0  0  0  0  0
   -1.3344    1.7164   -0.0464 O   0  0  0  0  0  0  0  0  0  0  0  0
    0.3423    1.7293    1.4589 N   0  0  0  0  0  0  0  0  0  0  0  0
    0.9403    1.1599    2.0509 H   0  0  0  0  0  0  0  0  0  0  0  0
    0.3035    3.1703    1.6769 C   0  0  0  0  0  0  0  0  0  0  0  0
   -0.6701    3.4715    2.0780 H   0  0  0  0  0  0  0  0  0  0  0  0
    1.0786    3.4661    2.3905 H   0  0  0  0  0  0  0  0  0  0  0  0
    0.4784    3.7046    0.7371 H   0  0  0  0  0  0  0  0  0  0  0  0
  1  2  1  0  0  0  0
  2  3  1  0  0  0  0
  2  4  1  0  0  0  0
  2  5  1  0  0  0  0
  5  6  2  0  0  0  0
  5  7  1  0  0  0  0
  7  8  1  0  0  0  0
  7  9  1  0  0  0  0
  9 10  1  0  0  0  0
  9 11  1  0  0  0  0
  9 22  1  0  0  0  0
 11 12  1  0  0  0  0
 11 13  1  0  0  0  0
 11 14  1  0  0  0  0
 14 15  1  0  0  0  0
 14 16  1  0  0  0  0
 14 17  1  0  0  0  0
 17 18  2  0  0  0  0
 17 19  1  0  0  0  0
 19 20  1  0  0  0  0
 19 21  1  0  0  0  0
 22 23  2  0  0  0  0
 22 24  1  0  0  0  0
 24 25  1  0  0  0  0
 24 26  1  0  0  0  0
 26 27  1  0  0  0  0
 26 28  1  0  0  0  0
 26 29  1  0  0  0  0
M  END
$$$$

  -OEChem-04042215583D

 29 28  0     1  0  0  0  0  0999 V2000
   -3.4155   -3.7935    1.5114 H   0  0  0  0  0  0  0  0  0  0  0  0
   -3.3779   -2.8242    1.0068 C   0  0  0  0  0  0  0  0  0  0  0  0
   -4.0278   -2.1248    1.5382 H   0  0  0  0  0  0  0  0  0  0  0  0
   -3.7435   -2.9448   -0.0157 H   0  0  0  0  0  0  0  0  0  0  0  0
   -1.9553   -2.2978    0.9907 C   0  0  0  0  0  0  0  0  0  0  0  0
   -1.0633   -2.9321    1.5320 O   0  0  0  0  0  0  0  0  0  0  0  0
   -1.6749   -1.1062    0.3538 N   0  0  0  0  0  0  0  0  0  0  0  0
   -2.4674   -0.5753   -0.0066 H   0  0  0  0  0  0  0  0  0  0  0  0
   -0.3773   -0.4093    0.3734 C   0  0  1  0  0  0  0  0  0  0  0  0
    0.2191   -0.8022    1.2033 H   0  0  0  0  0  0  0  0  0  0  0  0
    0.4402   -0.5980   -0.9263 C   0  0  0  0  0  0  0  0  0  0  0  0
   -0.0234    0.0428   -1.6861 H   0  0  0  0  0  0  0  0  0  0  0  0
    1.4583   -0.2234   -0.7775 H   0  0  0  0  0  0  0  0  0  0  0  0
    0.5096   -2.0430   -1.4836 C   0  0  0  0  0  0  0  0  0  0  0  0
    1.4890   -2.4699   -1.2521 H   0  0  0  0  0  0  0  0  0  0  0  0
   -0.2320   -2.6852   -1.0114 H   0  0  0  0  0  0  0  0  0  0  0  0
    0.2848   -2.1175   -2.9909 C   0  0  0  0  0  0  0  0  0  0  0  0
    0.7228   -1.2847   -3.7623 O   0  0  0  0  0  0  0  0  0  0  0  0
   -0.3960   -3.1550   -3.5612 N   0  0  0  0  0  0  0  0  0  0  0  0
   -0.3333   -3.2224   -4.5728 H   0  0  0  0  0  0  0  0  0  0  0  0
   -0.5810   -3.9823   -3.0041 H   0  0  0  0  0  0  0  0  0  0  0  0
   -0.5857    1.0971    0.6284 C   0  0  0  0  0  0  0  0  0  0  0  0
   -1.5213    1.6811    0.0942 O   0  0  0  0  0  0  0  0  0  0  0  0
    0.2114    1.7732    1.5333 N   0  0  0  0  0  0  0  0  0  0  0  0
    0.9357    1.2450    2.0116 H   0  0  0  0  0  0  0  0  0  0  0  0
    0.0143    3.1754    1.8809 C   0  0  0  0  0  0  0  0  0  0  0  0
   -0.9578    3.3171    2.3648 H   0  0  0  0  0  0  0  0  0  0  0  0
    0.7964    3.5080    2.5703 H   0  0  0  0  0  0  0  0  0  0  0  0
    0.0561    3.8032    0.9844 H   0  0  0  0  0  0  0  0  0  0  0  0
  1  2  1  0  0  0  0
  2  3  1  0  0  0  0
  2  4  1  0  0  0  0
  2  5  1  0  0  0  0
  5  6  2  0  0  0  0
  5  7  1  0  0  0  0
  7  8  1  0  0  0  0
  7  9  1  0  0  0  0
  9 10  1  0  0  0  0
  9 11  1  0  0  0  0
  9 22  1  0  0  0  0
 11 12  1  0  0  0  0
 11 13  1  0  0  0  0
 11 14  1  0  0  0  0
 14 15  1  0  0  0  0
 14 16  1  0  0  0  0
 14 17  1  0  0  0  0
 17 18  2  0  0  0  0
 17 19  1  0  0  0  0
 19 20  1  0  0  0  0
 19 21  1  0  0  0  0
 22 23  2  0  0  0  0
 22 24  1  0  0  0  0
 24 25  1  0  0  0  0
 24 26  1  0  0  0  0
 26 27  1  0  0  0  0
 26 28  1  0  0  0  0
 26 29  1  0  0  0  0
M  END
$$$$

  -OEChem-04042215583D

 29 28  0     1  0  0  0  0  0999 V2000
   -3.4450   -3.7543    1.5494 H   0  0  0  0  0  0  0  0  0  0  0  0
   -3.4040   -2.7906    1.0339 C   0  0  0  0  0  0  0  0  0  0  0  0
   -4.0340   -2.0773    1.5710 H   0  0  0  0  0  0  0  0  0  0  0  0
   -3.7912   -2.9161    0.0198 H   0  0  0  0  0  0  0  0  0  0  0  0
   -1.9749   -2.2841    0.9838 C   0  0  0  0  0  0  0  0  0  0  0  0
   -1.0780   -2.9359    1.4952 O   0  0  0  0  0  0  0  0  0  0  0  0
   -1.6933   -1.0942    0.3443 N   0  0  0  0  0  0  0  0  0  0  0  0
   -2.4868   -0.5468    0.0121 H   0  0  0  0  0  0  0  0  0  0  0  0
   -0.3904   -0.4083    0.3666 C   0  0  1  0  0  0  0  0  0  0  0  0
    0.1971   -0.8028    1.2020 H   0  0  0  0  0  0  0  0  0  0  0  0
    0.4384   -0.6122   -0.9223 C   0  0  0  0  0  0  0  0  0  0  0  0
   -0.0221    0.0177   -1.6931 H   0  0  0  0  0  0  0  0  0  0  0  0
    1.4580   -0.2414   -0.7738 H   0  0  0  0  0  0  0  0  0  0  0  0
    0.4966   -2.0635   -1.4598 C   0  0  0  0  0  0  0  0  0  0  0  0
    1.3219   -2.5971   -0.9810 H   0  0  0  0  0  0  0  0  0  0  0  0
   -0.4203   -2.6010   -1.2194 H   0  0  0  0  0  0  0  0  0  0  0  0
    0.6532   -2.1384   -2.9766 C   0  0  0  0  0  0  0  0  0  0  0  0
    1.1062   -1.2273   -3.6443 O   0  0  0  0  0  0  0  0  0  0  0  0
    0.3079   -3.2624   -3.6710 N   0  0  0  0  0  0  0  0  0  0  0  0
    0.3090   -3.1865   -4.6839 H   0  0  0  0  0  0  0  0  0  0  0  0
   -0.2180   -3.9946   -3.2062 H   0  0  0  0  0  0  0  0  0  0  0  0
   -0.5856    1.0995    0.6209 C   0  0  0  0  0  0  0  0  0  0  0  0
   -1.5185    1.6899    0.0887 O   0  0  0  0  0  0  0  0  0  0  0  0
    0.2156    1.7686    1.5274 N   0  0  0  0  0  0  0  0  0  0  0  0
    0.9428    1.2372    1.9978 H   0  0  0  0  0  0  0  0  0  0  0  0
    0.0285    3.1717    1.8760 C   0  0  0  0  0  0  0  0  0  0  0  0
   -0.9521    3.3228    2.3394 H   0  0  0  0  0  0  0  0  0  0  0  0
    0.7993    3.4921    2.5836 H   0  0  0  0  0  0  0  0  0  0  0  0
    0.0971    3.8015    0.9826 H   0  0  0  0  0  0  0  0  0  0  0  0
  1  2  1  0  0  0  0
  2  3  1  0  0  0  0
  2  4  1  0  0  0  0
  2  5  1  0  0  0  0
  5  6  2  0  0  0  0
  5  7  1  0  0  0  0
  7  8  1  0  0  0  0
  7  9  1  0  0  0  0
  9 10  1  0  0  0  0
  9 11  1  0  0  0  0
  9 22  1  0  0  0  0
 11 12  1  0  0  0  0
 11 13  1  0  0  0  0
 11 14  1  0  0  0  0
 14 15  1  0  0  0  0
 14 16  1  0  0  0  0
 14 17  1  0  0  0  0
 17 18  2  0  0  0  0
 17 19  1  0  0  0  0
 19 20  1  0  0  0  0
 19 21  1  0  0  0  0
 22 23  2  0  0  0  0
 22 24  1  0  0  0  0
 24 25  1  0  0  0  0
 24 26  1  0  0  0  0
 26 27  1  0  0  0  0
 26 28  1  0  0  0  0
 26 29  1  0  0  0  0
M  END
$$$$

  -OEChem-04042215583D

 29 28  0     1  0  0  0  0  0999 V2000
   -3.4694   -3.7180    1.5798 H   0  0  0  0  0  0  0  0  0  0  0  0
   -3.4268   -2.7673    1.0408 C   0  0  0  0  0  0  0  0  0  0  0  0
   -4.0494   -2.0379    1.5648 H   0  0  0  0  0  0  0  0  0  0  0  0
   -3.8214   -2.9152    0.0327 H   0  0  0  0  0  0  0  0  0  0  0  0
   -1.9956   -2.2697    0.9680 C   0  0  0  0  0  0  0  0  0  0  0  0
   -1.0916   -2.9367    1.4470 O   0  0  0  0  0  0  0  0  0  0  0  0
   -1.7197   -1.0708    0.3434 N   0  0  0  0  0  0  0  0  0  0  0  0
   -2.5157   -0.5138    0.0338 H   0  0  0  0  0  0  0  0  0  0  0  0
   -0.4122   -0.3947    0.3543 C   0  0  1  0  0  0  0  0  0  0  0  0
    0.1878   -0.8068    1.1723 H   0  0  0  0  0  0  0  0  0  0  0  0
    0.3824   -0.5961   -0.9546 C   0  0  0  0  0  0  0  0  0  0  0  0
   -0.0761    0.0404   -1.7210 H   0  0  0  0  0  0  0  0  0  0  0  0
    1.4123   -0.2490   -0.8186 H   0  0  0  0  0  0  0  0  0  0  0  0
    0.3961   -2.0476   -1.4851 C   0  0  0  0  0  0  0  0  0  0  0  0
    1.0363   -2.6635   -0.8479 H   0  0  0  0  0  0  0  0  0  0  0  0
   -0.6095   -2.4709   -1.4576 H   0  0  0  0  0  0  0  0  0  0  0  0
    0.8685   -2.1470   -2.9333 C   0  0  0  0  0  0  0  0  0  0  0  0
    1.4165   -1.2323   -3.5203 O   0  0  0  0  0  0  0  0  0  0  0  0
    0.7351   -3.3062   -3.6425 N   0  0  0  0  0  0  0  0  0  0  0  0
    1.2378   -3.3491   -4.5243 H   0  0  0  0  0  0  0  0  0  0  0  0
    0.4929   -4.1585   -3.1483 H   0  0  0  0  0  0  0  0  0  0  0  0
   -0.5863    1.1105    0.6371 C   0  0  0  0  0  0  0  0  0  0  0  0
   -1.5191    1.7206    0.1276 O   0  0  0  0  0  0  0  0  0  0  0  0
    0.2380    1.7563    1.5397 N   0  0  0  0  0  0  0  0  0  0  0  0
    0.9677    1.2097    1.9883 H   0  0  0  0  0  0  0  0  0  0  0  0
    0.0809    3.1589    1.9047 C   0  0  0  0  0  0  0  0  0  0  0  0
   -0.8999    3.3292    2.3613 H   0  0  0  0  0  0  0  0  0  0  0  0
    0.8523    3.4515    2.6235 H   0  0  0  0  0  0  0  0  0  0  0  0
    0.1734    3.7973    1.0197 H   0  0  0  0  0  0  0  0  0  0  0  0
  1  2  1  0  0  0  0
  2  3  1  0  0  0  0
  2  4  1  0  0  0  0
  2  5  1  0  0  0  0
  5  6  2  0  0  0  0
  5  7  1  0  0  0  0
  7  8  1  0  0  0  0
  7  9  1  0  0  0  0
  9 10  1  0  0  0  0
  9 11  1  0  0  0  0
  9 22  1  0  0  0  0
 11 12  1  0  0  0  0
 11 13  1  0  0  0  0
 11 14  1  0  0  0  0
 14 15  1  0  0  0  0
 14 16  1  0  0  0  0
 14 17  1  0  0  0  0
 17 18  2  0  0  0  0
 17 19  1  0  0  0  0
 19 20  1  0  0  0  0
 19 21  1  0  0  0  0
 22 23  2  0  0  0  0
 22 24  1  0  0  0  0
 24 25  1  0  0  0  0
 24 26  1  0  0  0  0
 26 27  1  0  0  0  0
 26 28  1  0  0  0  0
 26 29  1  0  0  0  0
M  END
$$$$

  -OEChem-04042215583D

 29 28  0     1  0  0  0  0  0999 V2000
   -3.4880   -3.7059    1.6184 H   0  0  0  0  0  0  0  0  0  0  0  0
   -3.4495   -2.7700    1.0541 C   0  0  0  0  0  0  0  0  0  0  0  0
   -4.0719   -2.0285    1.5609 H   0  0  0  0  0  0  0  0  0  0  0  0
   -3.8472   -2.9452    0.0517 H   0  0  0  0  0  0  0  0  0  0  0  0
   -2.0193   -2.2722    0.9644 C   0  0  0  0  0  0  0  0  0  0  0  0
   -1.1088   -2.9484    1.4168 O   0  0  0  0  0  0  0  0  0  0  0  0
   -1.7532   -1.0638    0.3541 N   0  0  0  0  0  0  0  0  0  0  0  0
   -2.5538   -0.5006    0.0696 H   0  0  0  0  0  0  0  0  0  0  0  0
   -0.4431   -0.3910    0.3451 C   0  0  1  0  0  0  0  0  0  0  0  0
    0.1659   -0.8196    1.1477 H   0  0  0  0  0  0  0  0  0  0  0  0
    0.3341   -0.5878   -0.9769 C   0  0  0  0  0  0  0  0  0  0  0  0
    0.0705    0.2254   -1.6635 H   0  0  0  0  0  0  0  0  0  0  0  0
    1.4073   -0.5050   -0.7732 H   0  0  0  0  0  0  0  0  0  0  0  0
    0.0467   -1.9196   -1.7017 C   0  0  0  0  0  0  0  0  0  0  0  0
    0.2965   -2.7533   -1.0395 H   0  0  0  0  0  0  0  0  0  0  0  0
   -1.0154   -1.9864   -1.9509 H   0  0  0  0  0  0  0  0  0  0  0  0
    0.8365   -2.0698   -2.9992 C   0  0  0  0  0  0  0  0  0  0  0  0
    1.6287   -1.2369   -3.4001 O   0  0  0  0  0  0  0  0  0  0  0  0
    0.7068   -3.1837   -3.7779 N   0  0  0  0  0  0  0  0  0  0  0  0
    1.3930   -3.2907   -4.5192 H   0  0  0  0  0  0  0  0  0  0  0  0
    0.2351   -3.9961   -3.3954 H   0  0  0  0  0  0  0  0  0  0  0  0
   -0.5977    1.1106    0.6560 C   0  0  0  0  0  0  0  0  0  0  0  0
   -1.5337    1.7363    0.1716 O   0  0  0  0  0  0  0  0  0  0  0  0
    0.2530    1.7371    1.5477 N   0  0  0  0  0  0  0  0  0  0  0  0
    0.9988    1.1827    1.9590 H   0  0  0  0  0  0  0  0  0  0  0  0
    0.1363    3.1444    1.9098 C   0  0  0  0  0  0  0  0  0  0  0  0
   -0.8378    3.3434    2.3689 H   0  0  0  0  0  0  0  0  0  0  0  0
    0.9175    3.4173    2.6258 H   0  0  0  0  0  0  0  0  0  0  0  0
    0.2439    3.7778    1.0229 H   0  0  0  0  0  0  0  0  0  0  0  0
  1  2  1  0  0  0  0
  2  3  1  0  0  0  0
  2  4  1  0  0  0  0
  2  5  1  0  0  0  0
  5  6  2  0  0  0  0
  5  7  1  0  0  0  0
  7  8  1  0  0  0  0
  7  9  1  0  0  0  0
  9 10  1  0  0  0  0
  9 11  1  0  0  0  0
  9 22  1  0  0  0  0
 11 12  1  0  0  0  0
 11 13  1  0  0  0  0
 11 14  1  0  0  0  0
 14 15  1  0  0  0  0
 14 16  1  0  0  0  0
 14 17  1  0  0  0  0
 17 18  2  0  0  0  0
 17 19  1  0  0  0  0
 19 20  1  0  0  0  0
 19 21  1  0  0  0  0
 22 23  2  0  0  0  0
 22 24  1  0  0  0  0
 24 25  1  0  0  0  0
 24 26  1  0  0  0  0
 26 27  1  0  0  0  0
 26 28  1  0  0  0  0
 26 29  1  0  0  0  0
M  END
$$$$

  -OEChem-04042215583D

 29 28  0     1  0  0  0  0  0999 V2000
   -3.5102   -3.7064    1.5465 H   0  0  0  0  0  0  0  0  0  0  0  0
   -3.4650   -2.7448    1.0274 C   0  0  0  0  0  0  0  0  0  0  0  0
   -4.0686   -2.0193    1.5782 H   0  0  0  0  0  0  0  0  0  0  0  0
   -3.8794   -2.8656    0.0237 H   0  0  0  0  0  0  0  0  0  0  0  0
   -2.0291   -2.2634    0.9409 C   0  0  0  0  0  0  0  0  0  0  0  0
   -1.1276   -2.9480    1.3988 O   0  0  0  0  0  0  0  0  0  0  0  0
   -1.7503   -1.0538    0.3389 N   0  0  0  0  0  0  0  0  0  0  0  0
   -2.5458   -0.4831    0.0551 H   0  0  0  0  0  0  0  0  0  0  0  0
   -0.4349   -0.3907    0.3308 C   0  0  1  0  0  0  0  0  0  0  0  0
    0.1774   -0.8317    1.1244 H   0  0  0  0  0  0  0  0  0  0  0  0
    0.3255   -0.5750   -1.0024 C   0  0  0  0  0  0  0  0  0  0  0  0
    0.0821    0.2511   -1.6809 H   0  0  0  0  0  0  0  0  0  0  0  0
    1.3989   -0.5143   -0.7910 H   0  0  0  0  0  0  0  0  0  0  0  0
    0.0156   -1.8948   -1.7397 C   0  0  0  0  0  0  0  0  0  0  0  0
    0.0437   -2.7202   -1.0239 H   0  0  0  0  0  0  0  0  0  0  0  0
   -0.9862   -1.8530   -2.1756 H   0  0  0  0  0  0  0  0  0  0  0  0
    1.0253   -2.2134   -2.8391 C   0  0  0  0  0  0  0  0  0  0  0  0
    1.8618   -1.4192   -3.2283 O   0  0  0  0  0  0  0  0  0  0  0  0
    1.0504   -3.4383   -3.4415 N   0  0  0  0  0  0  0  0  0  0  0  0
    1.8603   -3.6287   -4.0242 H   0  0  0  0  0  0  0  0  0  0  0  0
    0.5352   -4.2021   -3.0169 H   0  0  0  0  0  0  0  0  0  0  0  0
   -0.5813    1.1097    0.6521 C   0  0  0  0  0  0  0  0  0  0  0  0
   -1.5186    1.7416    0.1783 O   0  0  0  0  0  0  0  0  0  0  0  0
    0.2741    1.7263    1.5461 N   0  0  0  0  0  0  0  0  0  0  0  0
    1.0166    1.1656    1.9546 H   0  0  0  0  0  0  0  0  0  0  0  0
    0.1438    3.1229    1.9430 C   0  0  0  0  0  0  0  0  0  0  0  0
   -0.8255    3.2959    2.4222 H   0  0  0  0  0  0  0  0  0  0  0  0
    0.9326    3.3903    2.6525 H   0  0  0  0  0  0  0  0  0  0  0  0
    0.2278    3.7785    1.0699 H   0  0  0  0  0  0  0  0  0  0  0  0
  1  2  1  0  0  0  0
  2  3  1  0  0  0  0
  2  4  1  0  0  0  0
  2  5  1  0  0  0  0
  5  6  2  0  0  0  0
  5  7  1  0  0  0  0
  7  8  1  0  0  0  0
  7  9  1  0  0  0  0
  9 10  1  0  0  0  0
  9 11  1  0  0  0  0
  9 22  1  0  0  0  0
 11 12  1  0  0  0  0
 11 13  1  0  0  0  0
 11 14  1  0  0  0  0
 14 15  1  0  0  0  0
 14 16  1  0  0  0  0
 14 17  1  0  0  0  0
 17 18  2  0  0  0  0
 17 19  1  0  0  0  0
 19 20  1  0  0  0  0
 19 21  1  0  0  0  0
 22 23  2  0  0  0  0
 22 24  1  0  0  0  0
 24 25  1  0  0  0  0
 24 26  1  0  0  0  0
 26 27  1  0  0  0  0
 26 28  1  0  0  0  0
 26 29  1  0  0  0  0
M  END
$$$$

  -OEChem-04042215583D

 29 28  0     1  0  0  0  0  0999 V2000
   -3.5453   -3.7160    1.4778 H   0  0  0  0  0  0  0  0  0  0  0  0
   -3.4936   -2.7371    0.9930 C   0  0  0  0  0  0  0  0  0  0  0  0
   -4.0912   -2.0266    1.5694 H   0  0  0  0  0  0  0  0  0  0  0  0
   -3.9102   -2.8198   -0.0138 H   0  0  0  0  0  0  0  0  0  0  0  0
   -2.0543   -2.2632    0.9216 C   0  0  0  0  0  0  0  0  0  0  0  0
   -1.1592   -2.9575    1.3778 O   0  0  0  0  0  0  0  0  0  0  0  0
   -1.7640   -1.0500    0.3317 N   0  0  0  0  0  0  0  0  0  0  0  0
   -2.5539   -0.4720    0.0468 H   0  0  0  0  0  0  0  0  0  0  0  0
   -0.4412   -0.4015    0.3189 C   0  0  1  0  0  0  0  0  0  0  0  0
    0.1762   -0.8592    1.0988 H   0  0  0  0  0  0  0  0  0  0  0  0
    0.3020   -0.5651   -1.0289 C   0  0  0  0  0  0  0  0  0  0  0  0
    0.0698    0.2801   -1.6871 H   0  0  0  0  0  0  0  0  0  0  0  0
    1.3758   -0.5185   -0.8161 H   0  0  0  0  0  0  0  0  0  0  0  0
   -0.0185   -1.8621   -1.8058 C   0  0  0  0  0  0  0  0  0  0  0  0
   -0.2336   -2.6667   -1.1003 H   0  0  0  0  0  0  0  0  0  0  0  0
   -0.9012   -1.7161   -2.4339 H   0  0  0  0  0  0  0  0  0  0  0  0
    1.1499   -2.3440   -2.6610 C   0  0  0  0  0  0  0  0  0  0  0  0
    1.9887   -1.5899   -3.1185 O   0  0  0  0  0  0  0  0  0  0  0  0
    1.3247   -3.6678   -2.9463 N   0  0  0  0  0  0  0  0  0  0  0  0
    2.2170   -3.9165   -3.3627 H   0  0  0  0  0  0  0  0  0  0  0  0
    0.8016   -4.3539   -2.4123 H   0  0  0  0  0  0  0  0  0  0  0  0
   -0.5730    1.0961    0.6599 C   0  0  0  0  0  0  0  0  0  0  0  0
   -1.5041    1.7436    0.1952 O   0  0  0  0  0  0  0  0  0  0  0  0
    0.2950    1.6950    1.5538 N   0  0  0  0  0  0  0  0  0  0  0  0
    1.0275    1.1194    1.9596 H   0  0  0  0  0  0  0  0  0  0  0  0
    0.1835    3.0897    1.9636 C   0  0  0  0  0  0  0  0  0  0  0  0
   -0.7721    3.2660    2.4685 H   0  0  0  0  0  0  0  0  0  0  0  0
    0.9923    3.3471    2.6543 H   0  0  0  0  0  0  0  0  0  0  0  0
    0.2491    3.7510    1.0931 H   0  0  0  0  0  0  0  0  0  0  0  0
  1  2  1  0  0  0  0
  2  3  1  0  0  0  0
  2  4  1  0  0  0  0
  2  5  1  0  0  0  0
  5  6  2  0  0  0  0
  5  7  1  0  0  0  0
  7  8  1  0  0  0  0
  7  9  1  0  0  0  0
  9 10  1  0  0  0  0
  9 11  1  0  0  0  0
  9 22  1  0  0  0  0
 11 12  1  0  0  0  0
 11 13  1  0  0  0  0
 11 14  1  0  0  0  0
 14 15  1  0  0  0  0
 14 16  1  0  0  0  0
 14 17  1  0  0  0  0
 17 18  2  0  0  0  0
 17 19  1  0  0  0  0
 19 20  1  0  0  0  0
 19 21  1  0  0  0  0
 22 23  2  0  0  0  0
 22 24  1  0  0  0  0
 24 25  1  0  0  0  0
 24 26  1  0  0  0  0
 26 27  1  0  0  0  0
 26 28  1  0  0  0  0
 26 29  1  0  0  0  0
M  END
$$$$

  -OEChem-04042215583D

 29 28  0     1  0  0  0  0  0999 V2000
   -3.6079   -3.7277    1.3782 H   0  0  0  0  0  0  0  0  0  0  0  0
   -3.5536   -2.7208    0.9549 C   0  0  0  0  0  0  0  0  0  0  0  0
   -4.1034   -2.0356    1.6046 H   0  0  0  0  0  0  0  0  0  0  0  0
   -4.0202   -2.7282   -0.0331 H   0  0  0  0  0  0  0  0  0  0  0  0
   -2.1073   -2.2777    0.8418 C   0  0  0  0  0  0  0  0  0  0  0  0
   -1.2098   -3.0114    1.2284 O   0  0  0  0  0  0  0  0  0  0  0  0
   -1.8081   -1.0523    0.2811 N   0  0  0  0  0  0  0  0  0  0  0  0
   -2.5922   -0.4450    0.0445 H   0  0  0  0  0  0  0  0  0  0  0  0
   -0.4696   -0.4374    0.2537 C   0  0  1  0  0  0  0  0  0  0  0  0
    0.1510   -0.9328    1.0077 H   0  0  0  0  0  0  0  0  0  0  0  0
    0.2534   -0.5770   -1.1090 C   0  0  0  0  0  0  0  0  0  0  0  0
    0.0187    0.2937   -1.7322 H   0  0  0  0  0  0  0  0  0  0  0  0
    1.3314   -0.5415   -0.9162 H   0  0  0  0  0  0  0  0  0  0  0  0
   -0.0898   -1.8366   -1.9402 C   0  0  0  0  0  0  0  0  0  0  0  0
   -0.5860   -2.5927   -1.3326 H   0  0  0  0  0  0  0  0  0  0  0  0
   -0.7691   -1.5719   -2.7553 H   0  0  0  0  0  0  0  0  0  0  0  0
    1.1637   -2.4848   -2.5121 C   0  0  0  0  0  0  0  0  0  0  0  0
    1.9032   -1.8936   -3.2757 O   0  0  0  0  0  0  0  0  0  0  0  0
    1.5805   -3.7183   -2.1006 N   0  0  0  0  0  0  0  0  0  0  0  0
    2.5295   -3.9756   -2.3542 H   0  0  0  0  0  0  0  0  0  0  0  0
    1.1385   -4.1325   -1.2851 H   0  0  0  0  0  0  0  0  0  0  0  0
   -0.5559    1.0515    0.6458 C   0  0  0  0  0  0  0  0  0  0  0  0
   -1.4827    1.7357    0.2277 O   0  0  0  0  0  0  0  0  0  0  0  0
    0.3490    1.6001    1.5356 N   0  0  0  0  0  0  0  0  0  0  0  0
    1.0715    0.9922    1.9110 H   0  0  0  0  0  0  0  0  0  0  0  0
    0.2697    2.9770    2.0086 C   0  0  0  0  0  0  0  0  0  0  0  0
   -0.6591    3.1373    2.5664 H   0  0  0  0  0  0  0  0  0  0  0  0
    1.1135    3.1996    2.6688 H   0  0  0  0  0  0  0  0  0  0  0  0
    0.2994    3.6751    1.1654 H   0  0  0  0  0  0  0  0  0  0  0  0
  1  2  1  0  0  0  0
  2  3  1  0  0  0  0
  2  4  1  0  0  0  0
  2  5  1  0  0  0  0
  5  6  2  0  0  0  0
  5  7  1  0  0  0  0
  7  8  1  0  0  0  0
  7  9  1  0  0  0  0
  9 10  1  0  0  0  0
  9 11  1  0  0  0  0
  9 22  1  0  0  0  0
 11 12  1  0  0  0  0
 11 13  1  0  0  0  0
 11 14  1  0  0  0  0
 14 15  1  0  0  0  0
 14 16  1  0  0  0  0
 14 17  1  0  0  0  0
 17 18  2  0  0  0  0
 17 19  1  0  0  0  0
 19 20  1  0  0  0  0
 19 21  1  0  0  0  0
 22 23  2  0  0  0  0
 22 24  1  0  0  0  0
 24 25  1  0  0  0  0
 24 26  1  0  0  0  0
 26 27  1  0  0  0  0
 26 28  1  0  0  0  0
 26 29  1  0  0  0  0
M  END
$$$$

  -OEChem-04042215583D

 29 28  0     1  0  0  0  0  0999 V2000
   -3.5841   -3.7641    1.3042 H   0  0  0  0  0  0  0  0  0  0  0  0
   -3.5441   -2.7475    0.9031 C   0  0  0  0  0  0  0  0  0  0  0  0
   -4.0712   -2.0779    1.5869 H   0  0  0  0  0  0  0  0  0  0  0  0
   -4.0441   -2.7320   -0.0684 H   0  0  0  0  0  0  0  0  0  0  0  0
   -2.1026   -2.3018    0.7511 C   0  0  0  0  0  0  0  0  0  0  0  0
   -1.1903   -3.0571    1.0570 O   0  0  0  0  0  0  0  0  0  0  0  0
   -1.8191   -1.0593    0.2197 N   0  0  0  0  0  0  0  0  0  0  0  0
   -2.6071   -0.4374    0.0401 H   0  0  0  0  0  0  0  0  0  0  0  0
   -0.4810   -0.4455    0.2103 C   0  0  1  0  0  0  0  0  0  0  0  0
    0.1288   -0.9546    0.9639 H   0  0  0  0  0  0  0  0  0  0  0  0
    0.2708   -0.5712   -1.1378 C   0  0  0  0  0  0  0  0  0  0  0  0
    0.0132    0.3007   -1.7500 H   0  0  0  0  0  0  0  0  0  0  0  0
    1.3477   -0.5063   -0.9451 H   0  0  0  0  0  0  0  0  0  0  0  0
   -0.0465   -1.8222   -1.9953 C   0  0  0  0  0  0  0  0  0  0  0  0
   -0.8076   -2.4650   -1.5571 H   0  0  0  0  0  0  0  0  0  0  0  0
   -0.4277   -1.5017   -2.9691 H   0  0  0  0  0  0  0  0  0  0  0  0
    1.2044   -2.6547   -2.2241 C   0  0  0  0  0  0  0  0  0  0  0  0
    2.0722   -2.3185   -3.0074 O   0  0  0  0  0  0  0  0  0  0  0  0
    1.4614   -3.7467   -1.4457 N   0  0  0  0  0  0  0  0  0  0  0  0
    2.4071   -4.1139   -1.4813 H   0  0  0  0  0  0  0  0  0  0  0  0
    0.8797   -3.9021   -0.6247 H   0  0  0  0  0  0  0  0  0  0  0  0
   -0.5627    1.0327    0.6411 C   0  0  0  0  0  0  0  0  0  0  0  0
   -1.4887    1.7294    0.2433 O   0  0  0  0  0  0  0  0  0  0  0  0
    0.3438    1.5542    1.5453 N   0  0  0  0  0  0  0  0  0  0  0  0
    1.0695    0.9365    1.8976 H   0  0  0  0  0  0  0  0  0  0  0  0
    0.2762    2.9212    2.0481 C   0  0  0  0  0  0  0  0  0  0  0  0
   -0.6540    3.0797    2.6038 H   0  0  0  0  0  0  0  0  0  0  0  0
    1.1179    3.1195    2.7187 H   0  0  0  0  0  0  0  0  0  0  0  0
    0.3189    3.6371    1.2205 H   0  0  0  0  0  0  0  0  0  0  0  0
  1  2  1  0  0  0  0
  2  3  1  0  0  0  0
  2  4  1  0  0  0  0
  2  5  1  0  0  0  0
  5  6  2  0  0  0  0
  5  7  1  0  0  0  0
  7  8  1  0  0  0  0
  7  9  1  0  0  0  0
  9 10  1  0  0  0  0
  9 11  1  0  0  0  0
  9 22  1  0  0  0  0
 11 12  1  0  0  0  0
 11 13  1  0  0  0  0
 11 14  1  0  0  0  0
 14 15  1  0  0  0  0
 14 16  1  0  0  0  0
 14 17  1  0  0  0  0
 17 18  2  0  0  0  0
 17 19  1  0  0  0  0
 19 20  1  0  0  0  0
 19 21  1  0  0  0  0
 22 23  2  0  0  0  0
 22 24  1  0  0  0  0
 24 25  1  0  0  0  0
 24 26  1  0  0  0  0
 26 27  1  0  0  0  0
 26 28  1  0  0  0  0
 26 29  1  0  0  0  0
M  END
$$$$

  -OEChem-04042215583D

 29 28  0     1  0  0  0  0  0999 V2000
   -3.5280   -3.8148    1.2297 H   0  0  0  0  0  0  0  0  0  0  0  0
   -3.5010   -2.7938    0.8388 C   0  0  0  0  0  0  0  0  0  0  0  0
   -4.0318   -2.1372    1.5324 H   0  0  0  0  0  0  0  0  0  0  0  0
   -4.0069   -2.7742   -0.1296 H   0  0  0  0  0  0  0  0  0  0  0  0
   -2.0655   -2.3300    0.6826 C   0  0  0  0  0  0  0  0  0  0  0  0
   -1.1414   -3.0857    0.9535 O   0  0  0  0  0  0  0  0  0  0  0  0
   -1.7984   -1.0751    0.1720 N   0  0  0  0  0  0  0  0  0  0  0  0
   -2.5946   -0.4578    0.0129 H   0  0  0  0  0  0  0  0  0  0  0  0
   -0.4692   -0.4422    0.1869 C   0  0  1  0  0  0  0  0  0  0  0  0
    0.1327   -0.9511    0.9469 H   0  0  0  0  0  0  0  0  0  0  0  0
    0.3128   -0.5564   -1.1441 C   0  0  0  0  0  0  0  0  0  0  0  0
    0.0323    0.3056   -1.7602 H   0  0  0  0  0  0  0  0  0  0  0  0
    1.3871   -0.4624   -0.9483 H   0  0  0  0  0  0  0  0  0  0  0  0
    0.0253   -1.8141   -1.9992 C   0  0  0  0  0  0  0  0  0  0  0  0
   -0.9165   -2.3073   -1.7621 H   0  0  0  0  0  0  0  0  0  0  0  0
   -0.0421   -1.5122   -3.0485 H   0  0  0  0  0  0  0  0  0  0  0  0
    1.1717   -2.8056   -1.8881 C   0  0  0  0  0  0  0  0  0  0  0  0
    2.1966   -2.6876   -2.5329 O   0  0  0  0  0  0  0  0  0  0  0  0
    1.1387   -3.7919   -0.9446 N   0  0  0  0  0  0  0  0  0  0  0  0
    2.0187   -4.2574   -0.7488 H   0  0  0  0  0  0  0  0  0  0  0  0
    0.4145   -3.7417   -0.2241 H   0  0  0  0  0  0  0  0  0  0  0  0
   -0.5705    1.0284    0.6373 C   0  0  0  0  0  0  0  0  0  0  0  0
   -1.5021    1.7187    0.2419 O   0  0  0  0  0  0  0  0  0  0  0  0
    0.3210    1.5470    1.5579 N   0  0  0  0  0  0  0  0  0  0  0  0
    1.0562    0.9358    1.9021 H   0  0  0  0  0  0  0  0  0  0  0  0
    0.2334    2.9064    2.0776 C   0  0  0  0  0  0  0  0  0  0  0  0
   -0.7098    3.0510    2.6150 H   0  0  0  0  0  0  0  0  0  0  0  0
    1.0589    3.1009    2.7692 H   0  0  0  0  0  0  0  0  0  0  0  0
    0.2888    3.6338    1.2608 H   0  0  0  0  0  0  0  0  0  0  0  0
  1  2  1  0  0  0  0
  2  3  1  0  0  0  0
  2  4  1  0  0  0  0
  2  5  1  0  0  0  0
  5  6  2  0  0  0  0
  5  7  1  0  0  0  0
  7  8  1  0  0  0  0
  7  9  1  0  0  0  0
  9 10  1  0  0  0  0
  9 11  1  0  0  0  0
  9 22  1  0  0  0  0
 11 12  1  0  0  0  0
 11 13  1  0  0  0  0
 11 14  1  0  0  0  0
 14 15  1  0  0  0  0
 14 16  1  0  0  0  0
 14 17  1  0  0  0  0
 17 18  2  0  0  0  0
 17 19  1  0  0  0  0
 19 20  1  0  0  0  0
 19 21  1  0  0  0  0
 22 23  2  0  0  0  0
 22 24  1  0  0  0  0
 24 25  1  0  0  0  0
 24 26  1  0  0  0  0
 26 27  1  0  0  0  0
 26 28  1  0  0  0  0
 26 29  1  0  0  0  0
M  END
$$$$

  -OEChem-04042215583D

 29 28  0     1  0  0  0  0  0999 V2000
   -3.5579   -3.8245    1.1945 H   0  0  0  0  0  0  0  0  0  0  0  0
   -3.4953   -2.8180    0.7712 C   0  0  0  0  0  0  0  0  0  0  0  0
   -4.1062   -2.1427    1.3755 H   0  0  0  0  0  0  0  0  0  0  0  0
   -3.8889   -2.8398   -0.2481 H   0  0  0  0  0  0  0  0  0  0  0  0
   -2.0550   -2.3426    0.7612 C   0  0  0  0  0  0  0  0  0  0  0  0
   -1.1724   -3.0556    1.2112 O   0  0  0  0  0  0  0  0  0  0  0  0
   -1.7446   -1.1088    0.2310 N   0  0  0  0  0  0  0  0  0  0  0  0
   -2.5287   -0.5196   -0.0490 H   0  0  0  0  0  0  0  0  0  0  0  0
   -0.4222   -0.4595    0.2550 C   0  0  1  0  0  0  0  0  0  0  0  0
    0.1865   -0.9491    1.0224 H   0  0  0  0  0  0  0  0  0  0  0  0
    0.3513   -0.5581   -1.0861 C   0  0  0  0  0  0  0  0  0  0  0  0
    0.0570    0.3051   -1.6942 H   0  0  0  0  0  0  0  0  0  0  0  0
    1.4257   -0.4549   -0.8954 H   0  0  0  0  0  0  0  0  0  0  0  0
    0.0931   -1.8017   -1.9656 C   0  0  0  0  0  0  0  0  0  0  0  0
   -0.9380   -2.1527   -1.9026 H   0  0  0  0  0  0  0  0  0  0  0  0
    0.2688   -1.5322   -3.0113 H   0  0  0  0  0  0  0  0  0  0  0  0
    1.0576   -2.9319   -1.6201 C   0  0  0  0  0  0  0  0  0  0  0  0
    2.1716   -2.9731   -2.1077 O   0  0  0  0  0  0  0  0  0  0  0  0
    0.7689   -3.9154   -0.7214 N   0  0  0  0  0  0  0  0  0  0  0  0
    1.5615   -4.4772   -0.4283 H   0  0  0  0  0  0  0  0  0  0  0  0
    0.0143   -3.7416   -0.0552 H   0  0  0  0  0  0  0  0  0  0  0  0
   -0.5632    1.0221    0.6587 C   0  0  0  0  0  0  0  0  0  0  0  0
   -1.4869    1.6871    0.2048 O   0  0  0  0  0  0  0  0  0  0  0  0
    0.2946    1.5863    1.5843 N   0  0  0  0  0  0  0  0  0  0  0  0
    1.0160    0.9928    1.9848 H   0  0  0  0  0  0  0  0  0  0  0  0
    0.1681    2.9595    2.0577 C   0  0  0  0  0  0  0  0  0  0  0  0
   -0.7923    3.1034    2.5638 H   0  0  0  0  0  0  0  0  0  0  0  0
    0.9699    3.1914    2.7654 H   0  0  0  0  0  0  0  0  0  0  0  0
    0.2342    3.6618    1.2200 H   0  0  0  0  0  0  0  0  0  0  0  0
  1  2  1  0  0  0  0
  2  3  1  0  0  0  0
  2  4  1  0  0  0  0
  2  5  1  0  0  0  0
  5  6  2  0  0  0  0
  5  7  1  0  0  0  0
  7  8  1  0  0  0  0
  7  9  1  0  0  0  0
  9 10  1  0  0  0  0
  9 11  1  0  0  0  0
  9 22  1  0  0  0  0
 11 12  1  0  0  0  0
 11 13  1  0  0  0  0
 11 14  1  0  0  0  0
 14 15  1  0  0  0  0
 14 16  1  0  0  0  0
 14 17  1  0  0  0  0
 17 18  2  0  0  0  0
 17 19  1  0  0  0  0
 19 20  1  0  0  0  0
 19 21  1  0  0  0  0
 22 23  2  0  0  0  0
 22 24  1  0  0  0  0
 24 25  1  0  0  0  0
 24 26  1  0  0  0  0
 26 27  1  0  0  0  0
 26 28  1  0  0  0  0
 26 29  1  0  0  0  0
M  END
$$$$

  -OEChem-04042215583D

 29 28  0     1  0  0  0  0  0999 V2000
   -3.5540   -3.8184    1.2249 H   0  0  0  0  0  0  0  0  0  0  0  0
   -3.4705   -2.8266    0.7715 C   0  0  0  0  0  0  0  0  0  0  0  0
   -4.1301   -2.1386    1.3061 H   0  0  0  0  0  0  0  0  0  0  0  0
   -3.7897   -2.8886   -0.2718 H   0  0  0  0  0  0  0  0  0  0  0  0
   -2.0381   -2.3337    0.8487 C   0  0  0  0  0  0  0  0  0  0  0  0
   -1.1924   -3.0080    1.4104 O   0  0  0  0  0  0  0  0  0  0  0  0
   -1.7021   -1.1232    0.2856 N   0  0  0  0  0  0  0  0  0  0  0  0
   -2.4739   -0.5635   -0.0768 H   0  0  0  0  0  0  0  0  0  0  0  0
   -0.3897   -0.4526    0.3226 C   0  0  1  0  0  0  0  0  0  0  0  0
    0.2135   -0.9096    1.1145 H   0  0  0  0  0  0  0  0  0  0  0  0
    0.4016   -0.5577   -1.0095 C   0  0  0  0  0  0  0  0  0  0  0  0
    0.1175    0.2982   -1.6326 H   0  0  0  0  0  0  0  0  0  0  0  0
    1.4700   -0.4481   -0.7921 H   0  0  0  0  0  0  0  0  0  0  0  0
    0.1962   -1.8045   -1.8940 C   0  0  0  0  0  0  0  0  0  0  0  0
   -0.8669   -2.0173   -2.0270 H   0  0  0  0  0  0  0  0  0  0  0  0
    0.6099   -1.6052   -2.8868 H   0  0  0  0  0  0  0  0  0  0  0  0
    0.9051   -3.0376   -1.3359 C   0  0  0  0  0  0  0  0  0  0  0  0
    2.1079   -3.1599   -1.4718 O   0  0  0  0  0  0  0  0  0  0  0  0
    0.2865   -4.0947   -0.7405 N   0  0  0  0  0  0  0  0  0  0  0  0
    0.9402   -4.7601   -0.3400 H   0  0  0  0  0  0  0  0  0  0  0  0
   -0.5353   -3.8662   -0.1852 H   0  0  0  0  0  0  0  0  0  0  0  0
   -0.5699    1.0417    0.6603 C   0  0  0  0  0  0  0  0  0  0  0  0
   -1.4866    1.6731    0.1469 O   0  0  0  0  0  0  0  0  0  0  0  0
    0.2493    1.6567    1.5883 N   0  0  0  0  0  0  0  0  0  0  0  0
    0.9628    1.0896    2.0382 H   0  0  0  0  0  0  0  0  0  0  0  0
    0.0852    3.0440    2.0053 C   0  0  0  0  0  0  0  0  0  0  0  0
   -0.8888    3.1873    2.4847 H   0  0  0  0  0  0  0  0  0  0  0  0
    0.8665    3.3189    2.7204 H   0  0  0  0  0  0  0  0  0  0  0  0
    0.1559    3.7150    1.1428 H   0  0  0  0  0  0  0  0  0  0  0  0
  1  2  1  0  0  0  0
  2  3  1  0  0  0  0
  2  4  1  0  0  0  0
  2  5  1  0  0  0  0
  5  6  2  0  0  0  0
  5  7  1  0  0  0  0
  7  8  1  0  0  0  0
  7  9  1  0  0  0  0
  9 10  1  0  0  0  0
  9 11  1  0  0  0  0
  9 22  1  0  0  0  0
 11 12  1  0  0  0  0
 11 13  1  0  0  0  0
 11 14  1  0  0  0  0
 14 15  1  0  0  0  0
 14 16  1  0  0  0  0
 14 17  1  0  0  0  0
 17 18  2  0  0  0  0
 17 19  1  0  0  0  0
 19 20  1  0  0  0  0
 19 21  1  0  0  0  0
 22 23  2  0  0  0  0
 22 24  1  0  0  0  0
 24 25  1  0  0  0  0
 24 26  1  0  0  0  0
 26 27  1  0  0  0  0
 26 28  1  0  0  0  0
 26 29  1  0  0  0  0
M  END
$$$$

  -OEChem-04042215583D

 29 28  0     1  0  0  0  0  0999 V2000
   -3.4887   -3.7857    1.4042 H   0  0  0  0  0  0  0  0  0  0  0  0
   -3.4058   -2.8356    0.8687 C   0  0  0  0  0  0  0  0  0  0  0  0
   -4.0937   -2.1168    1.3206 H   0  0  0  0  0  0  0  0  0  0  0  0
   -3.6885   -2.9931   -0.1748 H   0  0  0  0  0  0  0  0  0  0  0  0
   -1.9847   -2.3110    0.9498 C   0  0  0  0  0  0  0  0  0  0  0  0
   -1.1473   -2.9365    1.5754 O   0  0  0  0  0  0  0  0  0  0  0  0
   -1.6707   -1.1128    0.3428 N   0  0  0  0  0  0  0  0  0  0  0  0
   -2.4489   -0.5803   -0.0441 H   0  0  0  0  0  0  0  0  0  0  0  0
   -0.3693   -0.4200    0.3765 C   0  0  1  0  0  0  0  0  0  0  0  0
    0.2301   -0.8423    1.1904 H   0  0  0  0  0  0  0  0  0  0  0  0
    0.4433   -0.5561   -0.9403 C   0  0  0  0  0  0  0  0  0  0  0  0
    0.1783    0.2778   -1.5999 H   0  0  0  0  0  0  0  0  0  0  0  0
    1.5066   -0.4462   -0.6992 H   0  0  0  0  0  0  0  0  0  0  0  0
    0.2505   -1.8428   -1.7675 C   0  0  0  0  0  0  0  0  0  0  0  0
   -0.7908   -1.9192   -2.0900 H   0  0  0  0  0  0  0  0  0  0  0  0
    0.8708   -1.7935   -2.6666 H   0  0  0  0  0  0  0  0  0  0  0  0
    0.6325   -3.0994   -0.9913 C   0  0  0  0  0  0  0  0  0  0  0  0
    1.6729   -3.1565   -0.3616 O   0  0  0  0  0  0  0  0  0  0  0  0
   -0.1043   -4.2477   -1.0476 N   0  0  0  0  0  0  0  0  0  0  0  0
    0.1210   -4.9141   -0.3135 H   0  0  0  0  0  0  0  0  0  0  0  0
   -1.0621   -4.1745   -1.3666 H   0  0  0  0  0  0  0  0  0  0  0  0
   -0.5735    1.0818    0.6573 C   0  0  0  0  0  0  0  0  0  0  0  0
   -1.4804    1.6873    0.0966 O   0  0  0  0  0  0  0  0  0  0  0  0
    0.2237    1.7386    1.5753 N   0  0  0  0  0  0  0  0  0  0  0  0
    0.9246    1.1901    2.0669 H   0  0  0  0  0  0  0  0  0  0  0  0
    0.0436    3.1396    1.9350 C   0  0  0  0  0  0  0  0  0  0  0  0
   -0.9529    3.3010    2.3597 H   0  0  0  0  0  0  0  0  0  0  0  0
    0.7890    3.4378    2.6786 H   0  0  0  0  0  0  0  0  0  0  0  0
    0.1595    3.7797    1.0540 H   0  0  0  0  0  0  0  0  0  0  0  0
  1  2  1  0  0  0  0
  2  3  1  0  0  0  0
  2  4  1  0  0  0  0
  2  5  1  0  0  0  0
  5  6  2  0  0  0  0
  5  7  1  0  0  0  0
  7  8  1  0  0  0  0
  7  9  1  0  0  0  0
  9 10  1  0  0  0  0
  9 11  1  0  0  0  0
  9 22  1  0  0  0  0
 11 12  1  0  0  0  0
 11 13  1  0  0  0  0
 11 14  1  0  0  0  0
 14 15  1  0  0  0  0
 14 16  1  0  0  0  0
 14 17  1  0  0  0  0
 17 18  2  0  0  0  0
 17 19  1  0  0  0  0
 19 20  1  0  0  0  0
 19 21  1  0  0  0  0
 22 23  2  0  0  0  0
 22 24  1  0  0  0  0
 24 25  1  0  0  0  0
 24 26  1  0  0  0  0
 26 27  1  0  0  0  0
 26 28  1  0  0  0  0
 26 29  1  0  0  0  0
M  END
$$$$

  -OEChem-04042215583D

 29 28  0     1  0  0  0  0  0999 V2000
   -3.4863   -3.7808    1.4953 H   0  0  0  0  0  0  0  0  0  0  0  0
   -3.4005   -2.8471    0.9325 C   0  0  0  0  0  0  0  0  0  0  0  0
   -4.1570   -2.1464    1.2936 H   0  0  0  0  0  0  0  0  0  0  0  0
   -3.5805   -3.0559   -0.1245 H   0  0  0  0  0  0  0  0  0  0  0  0
   -2.0167   -2.2531    1.1150 C   0  0  0  0  0  0  0  0  0  0  0  0
   -1.2422   -2.7579    1.9087 O   0  0  0  0  0  0  0  0  0  0  0  0
   -1.6839   -1.0907    0.4489 N   0  0  0  0  0  0  0  0  0  0  0  0
   -2.4281   -0.6270   -0.0688 H   0  0  0  0  0  0  0  0  0  0  0  0
   -0.3756   -0.4123    0.4714 C   0  0  1  0  0  0  0  0  0  0  0  0
    0.2171   -0.8033    1.3057 H   0  0  0  0  0  0  0  0  0  0  0  0
    0.4437   -0.5844   -0.8419 C   0  0  0  0  0  0  0  0  0  0  0  0
    0.2203    0.2521   -1.5140 H   0  0  0  0  0  0  0  0  0  0  0  0
    1.5016   -0.4987   -0.5707 H   0  0  0  0  0  0  0  0  0  0  0  0
    0.2774   -1.8685   -1.6827 C   0  0  0  0  0  0  0  0  0  0  0  0
   -0.6752   -1.8079   -2.2154 H   0  0  0  0  0  0  0  0  0  0  0  0
    1.0711   -1.9164   -2.4331 H   0  0  0  0  0  0  0  0  0  0  0  0
    0.2895   -3.1635   -0.8822 C   0  0  0  0  0  0  0  0  0  0  0  0
    1.2211   -3.4303   -0.1480 O   0  0  0  0  0  0  0  0  0  0  0  0
   -0.6288   -4.1557   -1.0833 N   0  0  0  0  0  0  0  0  0  0  0  0
   -0.4049   -5.0501   -0.6556 H   0  0  0  0  0  0  0  0  0  0  0  0
   -1.2342   -4.1114   -1.8946 H   0  0  0  0  0  0  0  0  0  0  0  0
   -0.5802    1.1030    0.6730 C   0  0  0  0  0  0  0  0  0  0  0  0
   -1.4535    1.6917    0.0443 O   0  0  0  0  0  0  0  0  0  0  0  0
    0.2030    1.7998    1.5736 N   0  0  0  0  0  0  0  0  0  0  0  0
    0.8637    1.2648    2.1312 H   0  0  0  0  0  0  0  0  0  0  0  0
    0.0228    3.2173    1.8614 C   0  0  0  0  0  0  0  0  0  0  0  0
   -0.9792    3.4024    2.2627 H   0  0  0  0  0  0  0  0  0  0  0  0
    0.7584    3.5493    2.6003 H   0  0  0  0  0  0  0  0  0  0  0  0
    0.1545    3.8128    0.9519 H   0  0  0  0  0  0  0  0  0  0  0  0
  1  2  1  0  0  0  0
  2  3  1  0  0  0  0
  2  4  1  0  0  0  0
  2  5  1  0  0  0  0
  5  6  2  0  0  0  0
  5  7  1  0  0  0  0
  7  8  1  0  0  0  0
  7  9  1  0  0  0  0
  9 10  1  0  0  0  0
  9 11  1  0  0  0  0
  9 22  1  0  0  0  0
 11 12  1  0  0  0  0
 11 13  1  0  0  0  0
 11 14  1  0  0  0  0
 14 15  1  0  0  0  0
 14 16  1  0  0  0  0
 14 17  1  0  0  0  0
 17 18  2  0  0  0  0
 17 19  1  0  0  0  0
 19 20  1  0  0  0  0
 19 21  1  0  0  0  0
 22 23  2  0  0  0  0
 22 24  1  0  0  0  0
 24 25  1  0  0  0  0
 24 26  1  0  0  0  0
 26 27  1  0  0  0  0
 26 28  1  0  0  0  0
 26 29  1  0  0  0  0
M  END
$$$$

  -OEChem-04042215583D

 29 28  0     1  0  0  0  0  0999 V2000
   -3.3538   -3.8747    1.6818 H   0  0  0  0  0  0  0  0  0  0  0  0
   -3.3299   -2.9286    1.1337 C   0  0  0  0  0  0  0  0  0  0  0  0
   -4.0754   -2.2534    1.5606 H   0  0  0  0  0  0  0  0  0  0  0  0
   -3.5791   -3.1227    0.0881 H   0  0  0  0  0  0  0  0  0  0  0  0
   -1.9507   -2.3039    1.2326 C   0  0  0  0  0  0  0  0  0  0  0  0
   -1.1297   -2.7712    2.0028 O   0  0  0  0  0  0  0  0  0  0  0  0
   -1.6782   -1.1382    0.5435 N   0  0  0  0  0  0  0  0  0  0  0  0
   -2.4545   -0.6968    0.0543 H   0  0  0  0  0  0  0  0  0  0  0  0
   -0.3864   -0.4307    0.5147 C   0  0  1  0  0  0  0  0  0  0  0  0
    0.2431   -0.7983    1.3324 H   0  0  0  0  0  0  0  0  0  0  0  0
    0.4103   -0.5606   -0.8208 C   0  0  0  0  0  0  0  0  0  0  0  0
    0.1639    0.2907   -1.4659 H   0  0  0  0  0  0  0  0  0  0  0  0
    1.4663   -0.4509   -0.5519 H   0  0  0  0  0  0  0  0  0  0  0  0
    0.3069   -1.8147   -1.7222 C   0  0  0  0  0  0  0  0  0  0  0  0
   -0.5052   -1.6419   -2.4332 H   0  0  0  0  0  0  0  0  0  0  0  0
    1.2277   -1.9099   -2.3045 H   0  0  0  0  0  0  0  0  0  0  0  0
    0.0315   -3.1497   -1.0472 C   0  0  0  0  0  0  0  0  0  0  0  0
    0.8834   -3.6902   -0.3707 O   0  0  0  0  0  0  0  0  0  0  0  0
   -1.0666   -3.9078   -1.3456 N   0  0  0  0  0  0  0  0  0  0  0  0
   -1.0055   -4.8798   -1.0543 H   0  0  0  0  0  0  0  0  0  0  0  0
   -1.6222   -3.6547   -2.1547 H   0  0  0  0  0  0  0  0  0  0  0  0
   -0.6378    1.0786    0.7163 C   0  0  0  0  0  0  0  0  0  0  0  0
   -1.5455    1.6357    0.1074 O   0  0  0  0  0  0  0  0  0  0  0  0
    0.1505    1.8084    1.5859 N   0  0  0  0  0  0  0  0  0  0  0  0
    0.8395    1.2992    2.1333 H   0  0  0  0  0  0  0  0  0  0  0  0
   -0.0598    3.2248    1.8582 C   0  0  0  0  0  0  0  0  0  0  0  0
   -1.0589    3.3910    2.2747 H   0  0  0  0  0  0  0  0  0  0  0  0
    0.6802    3.5854    2.5792 H   0  0  0  0  0  0  0  0  0  0  0  0
    0.0412    3.8100    0.9381 H   0  0  0  0  0  0  0  0  0  0  0  0
  1  2  1  0  0  0  0
  2  3  1  0  0  0  0
  2  4  1  0  0  0  0
  2  5  1  0  0  0  0
  5  6  2  0  0  0  0
  5  7  1  0  0  0  0
  7  8  1  0  0  0  0
  7  9  1  0  0  0  0
  9 10  1  0  0  0  0
  9 11  1  0  0  0  0
  9 22  1  0  0  0  0
 11 12  1  0  0  0  0
 11 13  1  0  0  0  0
 11 14  1  0  0  0  0
 14 15  1  0  0  0  0
 14 16  1  0  0  0  0
 14 17  1  0  0  0  0
 17 18  2  0  0  0  0
 17 19  1  0  0  0  0
 19 20  1  0  0  0  0
 19 21  1  0  0  0  0
 22 23  2  0  0  0  0
 22 24  1  0  0  0  0
 24 25  1  0  0  0  0
 24 26  1  0  0  0  0
 26 27  1  0  0  0  0
 26 28  1  0  0  0  0
 26 29  1  0  0  0  0
M  END
$$$$

  -OEChem-04042215583D

 29 28  0     1  0  0  0  0  0999 V2000
   -3.7631   -3.7419    1.3443 H   0  0  0  0  0  0  0  0  0  0  0  0
   -3.6485   -2.7973    0.8060 C   0  0  0  0  0  0  0  0  0  0  0  0
   -4.3633   -2.0736    1.2047 H   0  0  0  0  0  0  0  0  0  0  0  0
   -3.8647   -2.9672   -0.2519 H   0  0  0  0  0  0  0  0  0  0  0  0
   -2.2344   -2.2720    0.9659 C   0  0  0  0  0  0  0  0  0  0  0  0
   -1.4227   -2.8880    1.6434 O   0  0  0  0  0  0  0  0  0  0  0  0
   -1.8775   -1.0648    0.3964 N   0  0  0  0  0  0  0  0  0  0  0  0
   -2.5976   -0.5713   -0.1294 H   0  0  0  0  0  0  0  0  0  0  0  0
   -0.5361   -0.4603    0.4325 C   0  0  1  0  0  0  0  0  0  0  0  0
    0.0511   -0.9473    1.2172 H   0  0  0  0  0  0  0  0  0  0  0  0
    0.2759   -0.5330   -0.9001 C   0  0  0  0  0  0  0  0  0  0  0  0
    0.0841    0.3875   -1.4643 H   0  0  0  0  0  0  0  0  0  0  0  0
    1.3324   -0.5005   -0.6143 H   0  0  0  0  0  0  0  0  0  0  0  0
    0.1189   -1.6827   -1.9345 C   0  0  0  0  0  0  0  0  0  0  0  0
   -0.4414   -1.2820   -2.7852 H   0  0  0  0  0  0  0  0  0  0  0  0
    1.1101   -1.9504   -2.3109 H   0  0  0  0  0  0  0  0  0  0  0  0
   -0.5860   -2.9681   -1.5280 C   0  0  0  0  0  0  0  0  0  0  0  0
   -1.6920   -3.2528   -1.9513 O   0  0  0  0  0  0  0  0  0  0  0  0
    0.0364   -3.9155   -0.7677 N   0  0  0  0  0  0  0  0  0  0  0  0
    0.8016   -3.5997   -0.1826 H   0  0  0  0  0  0  0  0  0  0  0  0
   -0.5928   -4.6177   -0.3887 H   0  0  0  0  0  0  0  0  0  0  0  0
   -0.6664    1.0373    0.7884 C   0  0  0  0  0  0  0  0  0  0  0  0
   -1.5098    1.7323    0.2340 O   0  0  0  0  0  0  0  0  0  0  0  0
    0.1767    1.6092    1.7236 N   0  0  0  0  0  0  0  0  0  0  0  0
    0.7995    0.9900    2.2342 H   0  0  0  0  0  0  0  0  0  0  0  0
    0.0668    2.9997    2.1491 C   0  0  0  0  0  0  0  0  0  0  0  0
   -0.9137    3.1862    2.5999 H   0  0  0  0  0  0  0  0  0  0  0  0
    0.8381    3.2310    2.8901 H   0  0  0  0  0  0  0  0  0  0  0  0
    0.1960    3.6735    1.2955 H   0  0  0  0  0  0  0  0  0  0  0  0
  1  2  1  0  0  0  0
  2  3  1  0  0  0  0
  2  4  1  0  0  0  0
  2  5  1  0  0  0  0
  5  6  2  0  0  0  0
  5  7  1  0  0  0  0
  7  8  1  0  0  0  0
  7  9  1  0  0  0  0
  9 10  1  0  0  0  0
  9 11  1  0  0  0  0
  9 22  1  0  0  0  0
 11 12  1  0  0  0  0
 11 13  1  0  0  0  0
 11 14  1  0  0  0  0
 14 15  1  0  0  0  0
 14 16  1  0  0  0  0
 14 17  1  0  0  0  0
 17 18  2  0  0  0  0
 17 19  1  0  0  0  0
 19 20  1  0  0  0  0
 19 21  1  0  0  0  0
 22 23  2  0  0  0  0
 22 24  1  0  0  0  0
 24 25  1  0  0  0  0
 24 26  1  0  0  0  0
 26 27  1  0  0  0  0
 26 28  1  0  0  0  0
 26 29  1  0  0  0  0
M  END
$$$$

  -OEChem-04042215583D

 29 28  0     1  0  0  0  0  0999 V2000
   -3.8552   -3.6402    1.2879 H   0  0  0  0  0  0  0  0  0  0  0  0
   -3.7209   -2.6822    0.7785 C   0  0  0  0  0  0  0  0  0  0  0  0
   -4.4299   -1.9600    1.1899 H   0  0  0  0  0  0  0  0  0  0  0  0
   -3.9282   -2.8178   -0.2862 H   0  0  0  0  0  0  0  0  0  0  0  0
   -2.3022   -2.1805    0.9696 C   0  0  0  0  0  0  0  0  0  0  0  0
   -1.5233   -2.7965    1.6845 O   0  0  0  0  0  0  0  0  0  0  0  0
   -1.8968   -1.0120    0.3561 N   0  0  0  0  0  0  0  0  0  0  0  0
   -2.5796   -0.5381   -0.2344 H   0  0  0  0  0  0  0  0  0  0  0  0
   -0.5518   -0.4233    0.4352 C   0  0  1  0  0  0  0  0  0  0  0  0
   -0.0280   -0.8679    1.2871 H   0  0  0  0  0  0  0  0  0  0  0  0
    0.3569   -0.5975   -0.8232 C   0  0  0  0  0  0  0  0  0  0  0  0
    0.1838    0.2772   -1.4614 H   0  0  0  0  0  0  0  0  0  0  0  0
    1.3931   -0.5210   -0.4777 H   0  0  0  0  0  0  0  0  0  0  0  0
    0.2795   -1.8101   -1.7970 C   0  0  0  0  0  0  0  0  0  0  0  0
    0.0826   -1.4207   -2.8006 H   0  0  0  0  0  0  0  0  0  0  0  0
    1.2693   -2.2733   -1.8344 H   0  0  0  0  0  0  0  0  0  0  0  0
   -0.7238   -2.9301   -1.5617 C   0  0  0  0  0  0  0  0  0  0  0  0
   -1.8167   -2.9382   -2.0993 O   0  0  0  0  0  0  0  0  0  0  0  0
   -0.4049   -4.0367   -0.8283 N   0  0  0  0  0  0  0  0  0  0  0  0
    0.3184   -3.9228   -0.1255 H   0  0  0  0  0  0  0  0  0  0  0  0
   -1.1975   -4.6304   -0.6044 H   0  0  0  0  0  0  0  0  0  0  0  0
   -0.6763    1.0939    0.6992 C   0  0  0  0  0  0  0  0  0  0  0  0
   -1.4811    1.7667    0.0659 O   0  0  0  0  0  0  0  0  0  0  0  0
    0.1226    1.7061    1.6477 N   0  0  0  0  0  0  0  0  0  0  0  0
    0.7120    1.1092    2.2207 H   0  0  0  0  0  0  0  0  0  0  0  0
    0.0100    3.1187    1.9915 C   0  0  0  0  0  0  0  0  0  0  0  0
   -0.9847    3.3364    2.3946 H   0  0  0  0  0  0  0  0  0  0  0  0
    0.7559    3.3852    2.7467 H   0  0  0  0  0  0  0  0  0  0  0  0
    0.1767    3.7433    1.1073 H   0  0  0  0  0  0  0  0  0  0  0  0
  1  2  1  0  0  0  0
  2  3  1  0  0  0  0
  2  4  1  0  0  0  0
  2  5  1  0  0  0  0
  5  6  2  0  0  0  0
  5  7  1  0  0  0  0
  7  8  1  0  0  0  0
  7  9  1  0  0  0  0
  9 10  1  0  0  0  0
  9 11  1  0  0  0  0
  9 22  1  0  0  0  0
 11 12  1  0  0  0  0
 11 13  1  0  0  0  0
 11 14  1  0  0  0  0
 14 15  1  0  0  0  0
 14 16  1  0  0  0  0
 14 17  1  0  0  0  0
 17 18  2  0  0  0  0
 17 19  1  0  0  0  0
 19 20  1  0  0  0  0
 19 21  1  0  0  0  0
 22 23  2  0  0  0  0
 22 24  1  0  0  0  0
 24 25  1  0  0  0  0
 24 26  1  0  0  0  0
 26 27  1  0  0  0  0
 26 28  1  0  0  0  0
 26 29  1  0  0  0  0
M  END
$$$$

  -OEChem-04042215583D

 29 28  0     1  0  0  0  0  0999 V2000
   -3.5427   -3.7455    1.6590 H   0  0  0  0  0  0  0  0  0  0  0  0
   -3.5193   -2.7655    1.1752 C   0  0  0  0  0  0  0  0  0  0  0  0
   -4.1399   -2.0734    1.7493 H   0  0  0  0  0  0  0  0  0  0  0  0
   -3.9306   -2.8588    0.1667 H   0  0  0  0  0  0  0  0  0  0  0  0
   -2.0953   -2.2476    1.1053 C   0  0  0  0  0  0  0  0  0  0  0  0
   -1.1735   -2.9208    1.5455 O   0  0  0  0  0  0  0  0  0  0  0  0
   -1.8394   -1.0252    0.5189 N   0  0  0  0  0  0  0  0  0  0  0  0
   -2.6354   -0.5245    0.1236 H   0  0  0  0  0  0  0  0  0  0  0  0
   -0.5167   -0.4026    0.3751 C   0  0  1  0  0  0  0  0  0  0  0  0
    0.1645   -0.8897    1.0800 H   0  0  0  0  0  0  0  0  0  0  0  0
    0.1456   -0.4849   -1.0353 C   0  0  0  0  0  0  0  0  0  0  0  0
   -0.1984    0.4042   -1.5771 H   0  0  0  0  0  0  0  0  0  0  0  0
    1.2259   -0.3648   -0.9032 H   0  0  0  0  0  0  0  0  0  0  0  0
   -0.0876   -1.6503   -2.0410 C   0  0  0  0  0  0  0  0  0  0  0  0
   -0.1852   -1.2225   -3.0434 H   0  0  0  0  0  0  0  0  0  0  0  0
    0.8231   -2.2552   -2.0490 H   0  0  0  0  0  0  0  0  0  0  0  0
   -1.2450   -2.6227   -1.8523 C   0  0  0  0  0  0  0  0  0  0  0  0
   -2.3816   -2.3478   -2.1923 O   0  0  0  0  0  0  0  0  0  0  0  0
   -1.0536   -3.8885   -1.3762 N   0  0  0  0  0  0  0  0  0  0  0  0
   -1.9081   -4.3947   -1.1678 H   0  0  0  0  0  0  0  0  0  0  0  0
   -0.2472   -4.0333   -0.7755 H   0  0  0  0  0  0  0  0  0  0  0  0
   -0.5975    1.0871    0.7739 C   0  0  0  0  0  0  0  0  0  0  0  0
   -1.5226    1.7845    0.3757 O   0  0  0  0  0  0  0  0  0  0  0  0
    0.3722    1.6455    1.5865 N   0  0  0  0  0  0  0  0  0  0  0  0
    1.0789    1.0244    1.9697 H   0  0  0  0  0  0  0  0  0  0  0  0
    0.3254    3.0274    2.0494 C   0  0  0  0  0  0  0  0  0  0  0  0
   -0.5741    3.1998    2.6497 H   0  0  0  0  0  0  0  0  0  0  0  0
    1.2014    3.2496    2.6661 H   0  0  0  0  0  0  0  0  0  0  0  0
    0.3190    3.7172    1.1989 H   0  0  0  0  0  0  0  0  0  0  0  0
  1  2  1  0  0  0  0
  2  3  1  0  0  0  0
  2  4  1  0  0  0  0
  2  5  1  0  0  0  0
  5  6  2  0  0  0  0
  5  7  1  0  0  0  0
  7  8  1  0  0  0  0
  7  9  1  0  0  0  0
  9 10  1  0  0  0  0
  9 11  1  0  0  0  0
  9 22  1  0  0  0  0
 11 12  1  0  0  0  0
 11 13  1  0  0  0  0
 11 14  1  0  0  0  0
 14 15  1  0  0  0  0
 14 16  1  0  0  0  0
 14 17  1  0  0  0  0
 17 18  2  0  0  0  0
 17 19  1  0  0  0  0
 19 20  1  0  0  0  0
 19 21  1  0  0  0  0
 22 23  2  0  0  0  0
 22 24  1  0  0  0  0
 24 25  1  0  0  0  0
 24 26  1  0  0  0  0
 26 27  1  0  0  0  0
 26 28  1  0  0  0  0
 26 29  1  0  0  0  0
M  END
$$$$

  -OEChem-04042215583D

 29 28  0     1  0  0  0  0  0999 V2000
   -3.4876   -3.7077    1.7131 H   0  0  0  0  0  0  0  0  0  0  0  0
   -3.4770   -2.7062    1.2745 C   0  0  0  0  0  0  0  0  0  0  0  0
   -4.0281   -2.0278    1.9304 H   0  0  0  0  0  0  0  0  0  0  0  0
   -3.9730   -2.7401    0.3009 H   0  0  0  0  0  0  0  0  0  0  0  0
   -2.0499   -2.2190    1.1103 C   0  0  0  0  0  0  0  0  0  0  0  0
   -1.1146   -2.9255    1.4591 O   0  0  0  0  0  0  0  0  0  0  0  0
   -1.8103   -1.0017    0.5085 N   0  0  0  0  0  0  0  0  0  0  0  0
   -2.6202   -0.4823    0.1683 H   0  0  0  0  0  0  0  0  0  0  0  0
   -0.4936   -0.3808    0.3193 C   0  0  1  0  0  0  0  0  0  0  0  0
    0.1989   -0.8604    1.0183 H   0  0  0  0  0  0  0  0  0  0  0  0
    0.1400   -0.5120   -1.0975 C   0  0  0  0  0  0  0  0  0  0  0  0
   -0.2253    0.3516   -1.6660 H   0  0  0  0  0  0  0  0  0  0  0  0
    1.2232   -0.3862   -1.0006 H   0  0  0  0  0  0  0  0  0  0  0  0
   -0.1271   -1.7245   -2.0325 C   0  0  0  0  0  0  0  0  0  0  0  0
    0.0177   -1.4020   -3.0674 H   0  0  0  0  0  0  0  0  0  0  0  0
    0.6487   -2.4653   -1.8213 H   0  0  0  0  0  0  0  0  0  0  0  0
   -1.4587   -2.4640   -1.9649 C   0  0  0  0  0  0  0  0  0  0  0  0
   -2.5082   -1.9474   -2.3026 O   0  0  0  0  0  0  0  0  0  0  0  0
   -1.5367   -3.7707   -1.5739 N   0  0  0  0  0  0  0  0  0  0  0  0
   -2.4786   -4.1230   -1.4387 H   0  0  0  0  0  0  0  0  0  0  0  0
   -0.7900   -4.1197   -0.9789 H   0  0  0  0  0  0  0  0  0  0  0  0
   -0.5485    1.1129    0.7046 C   0  0  0  0  0  0  0  0  0  0  0  0
   -1.4877    1.8105    0.3425 O   0  0  0  0  0  0  0  0  0  0  0  0
    0.4523    1.6709    1.4790 N   0  0  0  0  0  0  0  0  0  0  0  0
    1.1766    1.0512    1.8302 H   0  0  0  0  0  0  0  0  0  0  0  0
    0.4344    3.0584    1.9272 C   0  0  0  0  0  0  0  0  0  0  0  0
   -0.4508    3.2515    2.5423 H   0  0  0  0  0  0  0  0  0  0  0  0
    1.3252    3.2738    2.5251 H   0  0  0  0  0  0  0  0  0  0  0  0
    0.4220    3.7387    1.0690 H   0  0  0  0  0  0  0  0  0  0  0  0
  1  2  1  0  0  0  0
  2  3  1  0  0  0  0
  2  4  1  0  0  0  0
  2  5  1  0  0  0  0
  5  6  2  0  0  0  0
  5  7  1  0  0  0  0
  7  8  1  0  0  0  0
  7  9  1  0  0  0  0
  9 10  1  0  0  0  0
  9 11  1  0  0  0  0
  9 22  1  0  0  0  0
 11 12  1  0  0  0  0
 11 13  1  0  0  0  0
 11 14  1  0  0  0  0
 14 15  1  0  0  0  0
 14 16  1  0  0  0  0
 14 17  1  0  0  0  0
 17 18  2  0  0  0  0
 17 19  1  0  0  0  0
 19 20  1  0  0  0  0
 19 21  1  0  0  0  0
 22 23  2  0  0  0  0
 22 24  1  0  0  0  0
 24 25  1  0  0  0  0
 24 26  1  0  0  0  0
 26 27  1  0  0  0  0
 26 28  1  0  0  0  0
 26 29  1  0  0  0  0
M  END
$$$$

  -OEChem-04042215583D

 29 28  0     1  0  0  0  0  0999 V2000
   -3.4615   -3.7876    1.4781 H   0  0  0  0  0  0  0  0  0  0  0  0
   -3.4544   -2.7776    1.0600 C   0  0  0  0  0  0  0  0  0  0  0  0
   -4.0966   -2.1377    1.6699 H   0  0  0  0  0  0  0  0  0  0  0  0
   -3.8513   -2.8133    0.0423 H   0  0  0  0  0  0  0  0  0  0  0  0
   -2.0415   -2.2253    1.0453 C   0  0  0  0  0  0  0  0  0  0  0  0
   -1.1226   -2.8744    1.5235 O   0  0  0  0  0  0  0  0  0  0  0  0
   -1.7957   -1.0010    0.4598 N   0  0  0  0  0  0  0  0  0  0  0  0
   -2.5772   -0.5449   -0.0128 H   0  0  0  0  0  0  0  0  0  0  0  0
   -0.4867   -0.3443    0.3651 C   0  0  1  0  0  0  0  0  0  0  0  0
    0.1682   -0.8051    1.1114 H   0  0  0  0  0  0  0  0  0  0  0  0
    0.2346   -0.4832   -1.0063 C   0  0  0  0  0  0  0  0  0  0  0  0
   -0.0954    0.3638   -1.6196 H   0  0  0  0  0  0  0  0  0  0  0  0
    1.3095   -0.3566   -0.8428 H   0  0  0  0  0  0  0  0  0  0  0  0
    0.0175   -1.7359   -1.8965 C   0  0  0  0  0  0  0  0  0  0  0  0
    0.4449   -1.5413   -2.8838 H   0  0  0  0  0  0  0  0  0  0  0  0
    0.5921   -2.5515   -1.4489 H   0  0  0  0  0  0  0  0  0  0  0  0
   -1.4054   -2.2499   -2.1005 C   0  0  0  0  0  0  0  0  0  0  0  0
   -2.3243   -1.5230   -2.4316 O   0  0  0  0  0  0  0  0  0  0  0  0
   -1.7210   -3.5717   -1.9571 N   0  0  0  0  0  0  0  0  0  0  0  0
   -2.6385   -3.8659   -2.2771 H   0  0  0  0  0  0  0  0  0  0  0  0
   -0.9860   -4.2496   -1.7829 H   0  0  0  0  0  0  0  0  0  0  0  0
   -0.5955    1.1485    0.7399 C   0  0  0  0  0  0  0  0  0  0  0  0
   -1.5113    1.8339    0.3028 O   0  0  0  0  0  0  0  0  0  0  0  0
    0.3391    1.7251    1.5808 N   0  0  0  0  0  0  0  0  0  0  0  0
    1.0358    1.1138    1.9965 H   0  0  0  0  0  0  0  0  0  0  0  0
    0.2582    3.1094    2.0312 C   0  0  0  0  0  0  0  0  0  0  0  0
   -0.6651    3.2751    2.5962 H   0  0  0  0  0  0  0  0  0  0  0  0
    1.1078    3.3469    2.6784 H   0  0  0  0  0  0  0  0  0  0  0  0
    0.2750    3.7927    1.1756 H   0  0  0  0  0  0  0  0  0  0  0  0
  1  2  1  0  0  0  0
  2  3  1  0  0  0  0
  2  4  1  0  0  0  0
  2  5  1  0  0  0  0
  5  6  2  0  0  0  0
  5  7  1  0  0  0  0
  7  8  1  0  0  0  0
  7  9  1  0  0  0  0
  9 10  1  0  0  0  0
  9 11  1  0  0  0  0
  9 22  1  0  0  0  0
 11 12  1  0  0  0  0
 11 13  1  0  0  0  0
 11 14  1  0  0  0  0
 14 15  1  0  0  0  0
 14 16  1  0  0  0  0
 14 17  1  0  0  0  0
 17 18  2  0  0  0  0
 17 19  1  0  0  0  0
 19 20  1  0  0  0  0
 19 21  1  0  0  0  0
 22 23  2  0  0  0  0
 22 24  1  0  0  0  0
 24 25  1  0  0  0  0
 24 26  1  0  0  0  0
 26 27  1  0  0  0  0
 26 28  1  0  0  0  0
 26 29  1  0  0  0  0
M  END
$$$$

  -OEChem-04042215583D

 29 28  0     1  0  0  0  0  0999 V2000
   -3.4158   -3.8134    1.4174 H   0  0  0  0  0  0  0  0  0  0  0  0
   -3.4070   -2.8194    0.9623 C   0  0  0  0  0  0  0  0  0  0  0  0
   -4.0935   -2.1722    1.5132 H   0  0  0  0  0  0  0  0  0  0  0  0
   -3.7484   -2.9009   -0.0725 H   0  0  0  0  0  0  0  0  0  0  0  0
   -2.0070   -2.2368    1.0007 C   0  0  0  0  0  0  0  0  0  0  0  0
   -1.0933   -2.8682    1.5104 O   0  0  0  0  0  0  0  0  0  0  0  0
   -1.7638   -1.0106    0.4190 N   0  0  0  0  0  0  0  0  0  0  0  0
   -2.5385   -0.5649   -0.0749 H   0  0  0  0  0  0  0  0  0  0  0  0
   -0.4644   -0.3288    0.3627 C   0  0  1  0  0  0  0  0  0  0  0  0
    0.1753   -0.7756    1.1304 H   0  0  0  0  0  0  0  0  0  0  0  0
    0.2813   -0.4900   -0.9899 C   0  0  0  0  0  0  0  0  0  0  0  0
   -0.0201    0.3408   -1.6391 H   0  0  0  0  0  0  0  0  0  0  0  0
    1.3544   -0.3792   -0.8045 H   0  0  0  0  0  0  0  0  0  0  0  0
    0.0508   -1.7886   -1.8027 C   0  0  0  0  0  0  0  0  0  0  0  0
    0.6749   -1.7553   -2.6997 H   0  0  0  0  0  0  0  0  0  0  0  0
    0.3935   -2.6298   -1.1934 H   0  0  0  0  0  0  0  0  0  0  0  0
   -1.3810   -2.0823   -2.2487 C   0  0  0  0  0  0  0  0  0  0  0  0
   -2.1781   -1.2122   -2.5467 O   0  0  0  0  0  0  0  0  0  0  0  0
   -1.8478   -3.3625   -2.3437 N   0  0  0  0  0  0  0  0  0  0  0  0
   -2.7293   -3.4824   -2.8338 H   0  0  0  0  0  0  0  0  0  0  0  0
   -1.1889   -4.1313   -2.2769 H   0  0  0  0  0  0  0  0  0  0  0  0
   -0.5951    1.1653    0.7242 C   0  0  0  0  0  0  0  0  0  0  0  0
   -1.5082    1.8389    0.2642 O   0  0  0  0  0  0  0  0  0  0  0  0
    0.3105    1.7545    1.5880 N   0  0  0  0  0  0  0  0  0  0  0  0
    1.0057    1.1537    2.0210 H   0  0  0  0  0  0  0  0  0  0  0  0
    0.2093    3.1422    2.0238 C   0  0  0  0  0  0  0  0  0  0  0  0
   -0.7249    3.3038    2.5719 H   0  0  0  0  0  0  0  0  0  0  0  0
    1.0461    3.3946    2.6823 H   0  0  0  0  0  0  0  0  0  0  0  0
    0.2336    3.8172    1.1617 H   0  0  0  0  0  0  0  0  0  0  0  0
  1  2  1  0  0  0  0
  2  3  1  0  0  0  0
  2  4  1  0  0  0  0
  2  5  1  0  0  0  0
  5  6  2  0  0  0  0
  5  7  1  0  0  0  0
  7  8  1  0  0  0  0
  7  9  1  0  0  0  0
  9 10  1  0  0  0  0
  9 11  1  0  0  0  0
  9 22  1  0  0  0  0
 11 12  1  0  0  0  0
 11 13  1  0  0  0  0
 11 14  1  0  0  0  0
 14 15  1  0  0  0  0
 14 16  1  0  0  0  0
 14 17  1  0  0  0  0
 17 18  2  0  0  0  0
 17 19  1  0  0  0  0
 19 20  1  0  0  0  0
 19 21  1  0  0  0  0
 22 23  2  0  0  0  0
 22 24  1  0  0  0  0
 24 25  1  0  0  0  0
 24 26  1  0  0  0  0
 26 27  1  0  0  0  0
 26 28  1  0  0  0  0
 26 29  1  0  0  0  0
M  END
$$$$

  -OEChem-04042215583D

 29 28  0     1  0  0  0  0  0999 V2000
   -3.3918   -3.8204    1.4301 H   0  0  0  0  0  0  0  0  0  0  0  0
   -3.3623   -2.8642    0.9008 C   0  0  0  0  0  0  0  0  0  0  0  0
   -4.1233   -2.2035    1.3226 H   0  0  0  0  0  0  0  0  0  0  0  0
   -3.5860   -3.0364   -0.1549 H   0  0  0  0  0  0  0  0  0  0  0  0
   -1.9926   -2.2283    1.0408 C   0  0  0  0  0  0  0  0  0  0  0  0
   -1.1015   -2.8162    1.6353 O   0  0  0  0  0  0  0  0  0  0  0  0
   -1.7447   -1.0130    0.4399 N   0  0  0  0  0  0  0  0  0  0  0  0
   -2.4863   -0.6243   -0.1460 H   0  0  0  0  0  0  0  0  0  0  0  0
   -0.4495   -0.3200    0.3987 C   0  0  1  0  0  0  0  0  0  0  0  0
    0.1870   -0.7504    1.1782 H   0  0  0  0  0  0  0  0  0  0  0  0
    0.2840   -0.5173   -0.9530 C   0  0  0  0  0  0  0  0  0  0  0  0
    0.0072    0.2998   -1.6300 H   0  0  0  0  0  0  0  0  0  0  0  0
    1.3596   -0.4301   -0.7695 H   0  0  0  0  0  0  0  0  0  0  0  0
    0.0102   -1.8523   -1.6874 C   0  0  0  0  0  0  0  0  0  0  0  0
    0.7752   -1.9786   -2.4577 H   0  0  0  0  0  0  0  0  0  0  0  0
    0.1204   -2.6777   -0.9785 H   0  0  0  0  0  0  0  0  0  0  0  0
   -1.3487   -1.9734   -2.3800 C   0  0  0  0  0  0  0  0  0  0  0  0
   -2.1481   -1.0609   -2.4801 O   0  0  0  0  0  0  0  0  0  0  0  0
   -1.7615   -3.1637   -2.9062 N   0  0  0  0  0  0  0  0  0  0  0  0
   -2.5902   -3.1284   -3.4928 H   0  0  0  0  0  0  0  0  0  0  0  0
   -1.0863   -3.9128   -3.0176 H   0  0  0  0  0  0  0  0  0  0  0  0
   -0.5850    1.1819    0.7234 C   0  0  0  0  0  0  0  0  0  0  0  0
   -1.4734    1.8533    0.2150 O   0  0  0  0  0  0  0  0  0  0  0  0
    0.3048    1.7872    1.5925 N   0  0  0  0  0  0  0  0  0  0  0  0
    0.9862    1.1935    2.0562 H   0  0  0  0  0  0  0  0  0  0  0  0
    0.2153    3.1909    1.9759 C   0  0  0  0  0  0  0  0  0  0  0  0
   -0.7562    3.4018    2.4353 H   0  0  0  0  0  0  0  0  0  0  0  0
    0.9997    3.4369    2.6979 H   0  0  0  0  0  0  0  0  0  0  0  0
    0.3380    3.8352    1.0990 H   0  0  0  0  0  0  0  0  0  0  0  0
  1  2  1  0  0  0  0
  2  3  1  0  0  0  0
  2  4  1  0  0  0  0
  2  5  1  0  0  0  0
  5  6  2  0  0  0  0
  5  7  1  0  0  0  0
  7  8  1  0  0  0  0
  7  9  1  0  0  0  0
  9 10  1  0  0  0  0
  9 11  1  0  0  0  0
  9 22  1  0  0  0  0
 11 12  1  0  0  0  0
 11 13  1  0  0  0  0
 11 14  1  0  0  0  0
 14 15  1  0  0  0  0
 14 16  1  0  0  0  0
 14 17  1  0  0  0  0
 17 18  2  0  0  0  0
 17 19  1  0  0  0  0
 19 20  1  0  0  0  0
 19 21  1  0  0  0  0
 22 23  2  0  0  0  0
 22 24  1  0  0  0  0
 24 25  1  0  0  0  0
 24 26  1  0  0  0  0
 26 27  1  0  0  0  0
 26 28  1  0  0  0  0
 26 29  1  0  0  0  0
M  END
$$$$

  -OEChem-04042215583D

 29 28  0     1  0  0  0  0  0999 V2000
   -3.5463   -3.7130    1.8667 H   0  0  0  0  0  0  0  0  0  0  0  0
   -3.4754   -2.8562    1.1914 C   0  0  0  0  0  0  0  0  0  0  0  0
   -4.2400   -2.1257    1.4657 H   0  0  0  0  0  0  0  0  0  0  0  0
   -3.6592   -3.1974    0.1697 H   0  0  0  0  0  0  0  0  0  0  0  0
   -2.0987   -2.2259    1.2867 C   0  0  0  0  0  0  0  0  0  0  0  0
   -1.2610   -2.7005    2.0402 O   0  0  0  0  0  0  0  0  0  0  0  0
   -1.7993   -1.1083    0.5339 N   0  0  0  0  0  0  0  0  0  0  0  0
   -2.4977   -0.8272   -0.1545 H   0  0  0  0  0  0  0  0  0  0  0  0
   -0.4736   -0.4734    0.4558 C   0  0  1  0  0  0  0  0  0  0  0  0
    0.1379   -0.8265    1.2921 H   0  0  0  0  0  0  0  0  0  0  0  0
    0.2672   -0.8287   -0.8599 C   0  0  0  0  0  0  0  0  0  0  0  0
    0.0584   -0.0634   -1.6171 H   0  0  0  0  0  0  0  0  0  0  0  0
    1.3419   -0.7866   -0.6550 H   0  0  0  0  0  0  0  0  0  0  0  0
   -0.0647   -2.2117   -1.4623 C   0  0  0  0  0  0  0  0  0  0  0  0
    0.8044   -2.5702   -2.0198 H   0  0  0  0  0  0  0  0  0  0  0  0
   -0.2608   -2.9471   -0.6776 H   0  0  0  0  0  0  0  0  0  0  0  0
   -1.2420   -2.1431   -2.4314 C   0  0  0  0  0  0  0  0  0  0  0  0
   -2.3816   -2.4044   -2.0920 O   0  0  0  0  0  0  0  0  0  0  0  0
   -1.0809   -1.7624   -3.7331 N   0  0  0  0  0  0  0  0  0  0  0  0
   -1.8901   -1.8553   -4.3404 H   0  0  0  0  0  0  0  0  0  0  0  0
   -0.1484   -1.6686   -4.1203 H   0  0  0  0  0  0  0  0  0  0  0  0
   -0.5776    1.0602    0.5781 C   0  0  0  0  0  0  0  0  0  0  0  0
   -1.3840    1.6818   -0.1032 O   0  0  0  0  0  0  0  0  0  0  0  0
    0.2941    1.7523    1.3986 N   0  0  0  0  0  0  0  0  0  0  0  0
    0.8917    1.2044    2.0111 H   0  0  0  0  0  0  0  0  0  0  0  0
    0.2368    3.1974    1.5820 C   0  0  0  0  0  0  0  0  0  0  0  0
   -0.7299    3.4923    2.0035 H   0  0  0  0  0  0  0  0  0  0  0  0
    1.0270    3.5232    2.2651 H   0  0  0  0  0  0  0  0  0  0  0  0
    0.3755    3.7112    0.6250 H   0  0  0  0  0  0  0  0  0  0  0  0
  1  2  1  0  0  0  0
  2  3  1  0  0  0  0
  2  4  1  0  0  0  0
  2  5  1  0  0  0  0
  5  6  2  0  0  0  0
  5  7  1  0  0  0  0
  7  8  1  0  0  0  0
  7  9  1  0  0  0  0
  9 10  1  0  0  0  0
  9 11  1  0  0  0  0
  9 22  1  0  0  0  0
 11 12  1  0  0  0  0
 11 13  1  0  0  0  0
 11 14  1  0  0  0  0
 14 15  1  0  0  0  0
 14 16  1  0  0  0  0
 14 17  1  0  0  0  0
 17 18  2  0  0  0  0
 17 19  1  0  0  0  0
 19 20  1  0  0  0  0
 19 21  1  0  0  0  0
 22 23  2  0  0  0  0
 22 24  1  0  0  0  0
 24 25  1  0  0  0  0
 24 26  1  0  0  0  0
 26 27  1  0  0  0  0
 26 28  1  0  0  0  0
 26 29  1  0  0  0  0
M  END
$$$$

  -OEChem-04042215583D

 29 28  0     1  0  0  0  0  0999 V2000
   -3.5537   -3.7466    1.7476 H   0  0  0  0  0  0  0  0  0  0  0  0
   -3.4952   -2.8328    1.1501 C   0  0  0  0  0  0  0  0  0  0  0  0
   -4.2527   -2.1294    1.5040 H   0  0  0  0  0  0  0  0  0  0  0  0
   -3.6986   -3.0798    0.1047 H   0  0  0  0  0  0  0  0  0  0  0  0
   -2.1167   -2.2133    1.2729 C   0  0  0  0  0  0  0  0  0  0  0  0
   -1.2741   -2.7262    1.9944 O   0  0  0  0  0  0  0  0  0  0  0  0
   -1.8108   -1.0848    0.5416 N   0  0  0  0  0  0  0  0  0  0  0  0
   -2.5266   -0.7519   -0.1047 H   0  0  0  0  0  0  0  0  0  0  0  0
   -0.4827   -0.4556    0.4500 C   0  0  1  0  0  0  0  0  0  0  0  0
    0.1418   -0.8324    1.2663 H   0  0  0  0  0  0  0  0  0  0  0  0
    0.2197   -0.8001   -0.8885 C   0  0  0  0  0  0  0  0  0  0  0  0
   -0.0076   -0.0210   -1.6265 H   0  0  0  0  0  0  0  0  0  0  0  0
    1.3000   -0.7638   -0.7149 H   0  0  0  0  0  0  0  0  0  0  0  0
   -0.1376   -2.1759   -1.5000 C   0  0  0  0  0  0  0  0  0  0  0  0
    0.7833   -2.6364   -1.8670 H   0  0  0  0  0  0  0  0  0  0  0  0
   -0.5479   -2.8707   -0.7657 H   0  0  0  0  0  0  0  0  0  0  0  0
   -1.0809   -2.0350   -2.6864 C   0  0  0  0  0  0  0  0  0  0  0  0
   -2.2881   -2.0349   -2.5304 O   0  0  0  0  0  0  0  0  0  0  0  0
   -0.6280   -1.8662   -3.9642 N   0  0  0  0  0  0  0  0  0  0  0  0
   -1.3259   -1.9016   -4.7019 H   0  0  0  0  0  0  0  0  0  0  0  0
    0.3533   -2.0146   -4.1725 H   0  0  0  0  0  0  0  0  0  0  0  0
   -0.5677    1.0766    0.6032 C   0  0  0  0  0  0  0  0  0  0  0  0
   -1.3952    1.7180   -0.0322 O   0  0  0  0  0  0  0  0  0  0  0  0
    0.3275    1.7445    1.4185 N   0  0  0  0  0  0  0  0  0  0  0  0
    0.9472    1.1806    1.9932 H   0  0  0  0  0  0  0  0  0  0  0  0
    0.2923    3.1870    1.6274 C   0  0  0  0  0  0  0  0  0  0  0  0
   -0.6641    3.4874    2.0682 H   0  0  0  0  0  0  0  0  0  0  0  0
    1.0967    3.4911    2.3041 H   0  0  0  0  0  0  0  0  0  0  0  0
    0.4232    3.7151    0.6769 H   0  0  0  0  0  0  0  0  0  0  0  0
  1  2  1  0  0  0  0
  2  3  1  0  0  0  0
  2  4  1  0  0  0  0
  2  5  1  0  0  0  0
  5  6  2  0  0  0  0
  5  7  1  0  0  0  0
  7  8  1  0  0  0  0
  7  9  1  0  0  0  0
  9 10  1  0  0  0  0
  9 11  1  0  0  0  0
  9 22  1  0  0  0  0
 11 12  1  0  0  0  0
 11 13  1  0  0  0  0
 11 14  1  0  0  0  0
 14 15  1  0  0  0  0
 14 16  1  0  0  0  0
 14 17  1  0  0  0  0
 17 18  2  0  0  0  0
 17 19  1  0  0  0  0
 19 20  1  0  0  0  0
 19 21  1  0  0  0  0
 22 23  2  0  0  0  0
 22 24  1  0  0  0  0
 24 25  1  0  0  0  0
 24 26  1  0  0  0  0
 26 27  1  0  0  0  0
 26 28  1  0  0  0  0
 26 29  1  0  0  0  0
M  END
$$$$

  -OEChem-04042215583D

 29 28  0     1  0  0  0  0  0999 V2000
   -3.3749   -3.8408    1.5255 H   0  0  0  0  0  0  0  0  0  0  0  0
   -3.3572   -2.8668    1.0285 C   0  0  0  0  0  0  0  0  0  0  0  0
   -3.9934   -2.1751    1.5864 H   0  0  0  0  0  0  0  0  0  0  0  0
   -3.7541   -2.9803    0.0169 H   0  0  0  0  0  0  0  0  0  0  0  0
   -1.9380   -2.3338    0.9731 C   0  0  0  0  0  0  0  0  0  0  0  0
   -1.0270   -2.9684    1.4804 O   0  0  0  0  0  0  0  0  0  0  0  0
   -1.6820   -1.1375    0.3347 N   0  0  0  0  0  0  0  0  0  0  0  0
   -2.4877   -0.6058    0.0059 H   0  0  0  0  0  0  0  0  0  0  0  0
   -0.3922   -0.4257    0.3442 C   0  0  1  0  0  0  0  0  0  0  0  0
    0.2011   -0.8110    1.1799 H   0  0  0  0  0  0  0  0  0  0  0  0
    0.4497   -0.6149   -0.9441 C   0  0  0  0  0  0  0  0  0  0  0  0
    0.1961    0.2002   -1.6331 H   0  0  0  0  0  0  0  0  0  0  0  0
    1.5065   -0.4852   -0.6888 H   0  0  0  0  0  0  0  0  0  0  0  0
    0.2842   -1.9575   -1.7018 C   0  0  0  0  0  0  0  0  0  0  0  0
    1.2600   -2.4482   -1.7552 H   0  0  0  0  0  0  0  0  0  0  0  0
   -0.3749   -2.6494   -1.1795 H   0  0  0  0  0  0  0  0  0  0  0  0
   -0.2152   -1.7685   -3.1292 C   0  0  0  0  0  0  0  0  0  0  0  0
    0.3746   -1.0726   -3.9340 O   0  0  0  0  0  0  0  0  0  0  0  0
   -1.3526   -2.3750   -3.5801 N   0  0  0  0  0  0  0  0  0  0  0  0
   -1.5085   -2.3319   -4.5829 H   0  0  0  0  0  0  0  0  0  0  0  0
   -1.7532   -3.1280   -3.0322 H   0  0  0  0  0  0  0  0  0  0  0  0
   -0.6146    1.0778    0.6044 C   0  0  0  0  0  0  0  0  0  0  0  0
   -1.5649    1.6500    0.0836 O   0  0  0  0  0  0  0  0  0  0  0  0
    0.1834    1.7606    1.5037 N   0  0  0  0  0  0  0  0  0  0  0  0
    0.9237    1.2418    1.9677 H   0  0  0  0  0  0  0  0  0  0  0  0
   -0.0262    3.1591    1.8574 C   0  0  0  0  0  0  0  0  0  0  0  0
   -1.0156    3.2965    2.3061 H   0  0  0  0  0  0  0  0  0  0  0  0
    0.7290    3.4836    2.5797 H   0  0  0  0  0  0  0  0  0  0  0  0
    0.0499    3.7949    0.9689 H   0  0  0  0  0  0  0  0  0  0  0  0
  1  2  1  0  0  0  0
  2  3  1  0  0  0  0
  2  4  1  0  0  0  0
  2  5  1  0  0  0  0
  5  6  2  0  0  0  0
  5  7  1  0  0  0  0
  7  8  1  0  0  0  0
  7  9  1  0  0  0  0
  9 10  1  0  0  0  0
  9 11  1  0  0  0  0
  9 22  1  0  0  0  0
 11 12  1  0  0  0  0
 11 13  1  0  0  0  0
 11 14  1  0  0  0  0
 14 15  1  0  0  0  0
 14 16  1  0  0  0  0
 14 17  1  0  0  0  0
 17 18  2  0  0  0  0
 17 19  1  0  0  0  0
 19 20  1  0  0  0  0
 19 21  1  0  0  0  0
 22 23  2  0  0  0  0
 22 24  1  0  0  0  0
 24 25  1  0  0  0  0
 24 26  1  0  0  0  0
 26 27  1  0  0  0  0
 26 28  1  0  0  0  0
 26 29  1  0  0  0  0
M  END
$$$$

  -OEChem-04042215583D

 29 28  0     1  0  0  0  0  0999 V2000
   -3.3565   -3.8435    1.7915 H   0  0  0  0  0  0  0  0  0  0  0  0
   -3.3352   -2.9589    1.1487 C   0  0  0  0  0  0  0  0  0  0  0  0
   -4.0088   -2.2061    1.5651 H   0  0  0  0  0  0  0  0  0  0  0  0
   -3.6845   -3.2393    0.1521 H   0  0  0  0  0  0  0  0  0  0  0  0
   -1.9247   -2.4060    1.0673 C   0  0  0  0  0  0  0  0  0  0  0  0
   -1.0092   -2.9859    1.6281 O   0  0  0  0  0  0  0  0  0  0  0  0
   -1.6806   -1.2501    0.3521 N   0  0  0  0  0  0  0  0  0  0  0  0
   -2.4940   -0.7373    0.0139 H   0  0  0  0  0  0  0  0  0  0  0  0
   -0.3980   -0.5246    0.3460 C   0  0  1  0  0  0  0  0  0  0  0  0
    0.1824   -0.8457    1.2174 H   0  0  0  0  0  0  0  0  0  0  0  0
    0.4775   -0.7787   -0.9090 C   0  0  0  0  0  0  0  0  0  0  0  0
    0.2129   -0.0141   -1.6492 H   0  0  0  0  0  0  0  0  0  0  0  0
    1.5287   -0.6095   -0.6520 H   0  0  0  0  0  0  0  0  0  0  0  0
    0.3486   -2.1618   -1.5949 C   0  0  0  0  0  0  0  0  0  0  0  0
    1.2207   -2.7724   -1.3435 H   0  0  0  0  0  0  0  0  0  0  0  0
   -0.5282   -2.7165   -1.2626 H   0  0  0  0  0  0  0  0  0  0  0  0
    0.2520   -2.0197   -3.1075 C   0  0  0  0  0  0  0  0  0  0  0  0
    1.2363   -2.0611   -3.8195 O   0  0  0  0  0  0  0  0  0  0  0  0
   -0.9339   -1.7526   -3.7297 N   0  0  0  0  0  0  0  0  0  0  0  0
   -0.8653   -1.4608   -4.7003 H   0  0  0  0  0  0  0  0  0  0  0  0
   -1.7197   -1.4525   -3.1631 H   0  0  0  0  0  0  0  0  0  0  0  0
   -0.6494    0.9883    0.5019 C   0  0  0  0  0  0  0  0  0  0  0  0
   -1.5718    1.5109   -0.1138 O   0  0  0  0  0  0  0  0  0  0  0  0
    0.1108    1.7464    1.3723 N   0  0  0  0  0  0  0  0  0  0  0  0
    0.8303    1.2705    1.9098 H   0  0  0  0  0  0  0  0  0  0  0  0
   -0.1184    3.1675    1.6033 C   0  0  0  0  0  0  0  0  0  0  0  0
   -1.1210    3.3329    2.0117 H   0  0  0  0  0  0  0  0  0  0  0  0
    0.6141    3.5581    2.3162 H   0  0  0  0  0  0  0  0  0  0  0  0
   -0.0217    3.7285    0.6677 H   0  0  0  0  0  0  0  0  0  0  0  0
  1  2  1  0  0  0  0
  2  3  1  0  0  0  0
  2  4  1  0  0  0  0
  2  5  1  0  0  0  0
  5  6  2  0  0  0  0
  5  7  1  0  0  0  0
  7  8  1  0  0  0  0
  7  9  1  0  0  0  0
  9 10  1  0  0  0  0
  9 11  1  0  0  0  0
  9 22  1  0  0  0  0
 11 12  1  0  0  0  0
 11 13  1  0  0  0  0
 11 14  1  0  0  0  0
 14 15  1  0  0  0  0
 14 16  1  0  0  0  0
 14 17  1  0  0  0  0
 17 18  2  0  0  0  0
 17 19  1  0  0  0  0
 19 20  1  0  0  0  0
 19 21  1  0  0  0  0
 22 23  2  0  0  0  0
 22 24  1  0  0  0  0
 24 25  1  0  0  0  0
 24 26  1  0  0  0  0
 26 27  1  0  0  0  0
 26 28  1  0  0  0  0
 26 29  1  0  0  0  0
M  END
$$$$

  -OEChem-04042215583D

 29 28  0     1  0  0  0  0  0999 V2000
   -3.4536   -3.7424    1.6373 H   0  0  0  0  0  0  0  0  0  0  0  0
   -3.4311   -2.7778    1.1225 C   0  0  0  0  0  0  0  0  0  0  0  0
   -4.0279   -2.0612    1.6919 H   0  0  0  0  0  0  0  0  0  0  0  0
   -3.8692   -2.8977    0.1287 H   0  0  0  0  0  0  0  0  0  0  0  0
   -2.0027   -2.2816    1.0030 C   0  0  0  0  0  0  0  0  0  0  0  0
   -1.0841   -2.9500    1.4503 O   0  0  0  0  0  0  0  0  0  0  0  0
   -1.7473   -1.0832    0.3689 N   0  0  0  0  0  0  0  0  0  0  0  0
   -2.5533   -0.5247    0.0897 H   0  0  0  0  0  0  0  0  0  0  0  0
   -0.4423   -0.4022    0.3467 C   0  0  1  0  0  0  0  0  0  0  0  0
    0.1588   -0.8061    1.1677 H   0  0  0  0  0  0  0  0  0  0  0  0
    0.3738   -0.6188   -0.9532 C   0  0  0  0  0  0  0  0  0  0  0  0
    0.0783    0.1816   -1.6424 H   0  0  0  0  0  0  0  0  0  0  0  0
    1.4408   -0.4830   -0.7487 H   0  0  0  0  0  0  0  0  0  0  0  0
    0.1599   -1.9645   -1.6925 C   0  0  0  0  0  0  0  0  0  0  0  0
    0.8356   -2.7190   -1.2811 H   0  0  0  0  0  0  0  0  0  0  0  0
   -0.8587   -2.3271   -1.5548 H   0  0  0  0  0  0  0  0  0  0  0  0
    0.3648   -1.8566   -3.2015 C   0  0  0  0  0  0  0  0  0  0  0  0
    1.0652   -1.0048   -3.7164 O   0  0  0  0  0  0  0  0  0  0  0  0
   -0.1972   -2.7570   -4.0608 N   0  0  0  0  0  0  0  0  0  0  0  0
    0.1391   -2.7261   -5.0189 H   0  0  0  0  0  0  0  0  0  0  0  0
   -0.5942   -3.6112   -3.6845 H   0  0  0  0  0  0  0  0  0  0  0  0
   -0.6166    1.1035    0.6300 C   0  0  0  0  0  0  0  0  0  0  0  0
   -1.5711    1.7043    0.1502 O   0  0  0  0  0  0  0  0  0  0  0  0
    0.2258    1.7562    1.5109 N   0  0  0  0  0  0  0  0  0  0  0  0
    0.9765    1.2178    1.9342 H   0  0  0  0  0  0  0  0  0  0  0  0
    0.0643    3.1564    1.8835 C   0  0  0  0  0  0  0  0  0  0  0  0
   -0.8996    3.3118    2.3794 H   0  0  0  0  0  0  0  0  0  0  0  0
    0.8597    3.4592    2.5712 H   0  0  0  0  0  0  0  0  0  0  0  0
    0.1122    3.7973    0.9968 H   0  0  0  0  0  0  0  0  0  0  0  0
  1  2  1  0  0  0  0
  2  3  1  0  0  0  0
  2  4  1  0  0  0  0
  2  5  1  0  0  0  0
  5  6  2  0  0  0  0
  5  7  1  0  0  0  0
  7  8  1  0  0  0  0
  7  9  1  0  0  0  0
  9 10  1  0  0  0  0
  9 11  1  0  0  0  0
  9 22  1  0  0  0  0
 11 12  1  0  0  0  0
 11 13  1  0  0  0  0
 11 14  1  0  0  0  0
 14 15  1  0  0  0  0
 14 16  1  0  0  0  0
 14 17  1  0  0  0  0
 17 18  2  0  0  0  0
 17 19  1  0  0  0  0
 19 20  1  0  0  0  0
 19 21  1  0  0  0  0
 22 23  2  0  0  0  0
 22 24  1  0  0  0  0
 24 25  1  0  0  0  0
 24 26  1  0  0  0  0
 26 27  1  0  0  0  0
 26 28  1  0  0  0  0
 26 29  1  0  0  0  0
M  END
$$$$

  -OEChem-04042215583D

 29 28  0     1  0  0  0  0  0999 V2000
   -3.4726   -3.7150    1.6403 H   0  0  0  0  0  0  0  0  0  0  0  0
   -3.4437   -2.7636    1.1016 C   0  0  0  0  0  0  0  0  0  0  0  0
   -4.0447   -2.0320    1.6473 H   0  0  0  0  0  0  0  0  0  0  0  0
   -3.8725   -2.9076    0.1069 H   0  0  0  0  0  0  0  0  0  0  0  0
   -2.0133   -2.2724    0.9834 C   0  0  0  0  0  0  0  0  0  0  0  0
   -1.0969   -2.9483    1.4241 O   0  0  0  0  0  0  0  0  0  0  0  0
   -1.7542   -1.0687    0.3609 N   0  0  0  0  0  0  0  0  0  0  0  0
   -2.5583   -0.5037    0.0898 H   0  0  0  0  0  0  0  0  0  0  0  0
   -0.4457   -0.3944    0.3419 C   0  0  1  0  0  0  0  0  0  0  0  0
    0.1593   -0.8114    1.1537 H   0  0  0  0  0  0  0  0  0  0  0  0
    0.3488   -0.6060   -0.9695 C   0  0  0  0  0  0  0  0  0  0  0  0
    0.0642    0.1985   -1.6584 H   0  0  0  0  0  0  0  0  0  0  0  0
    1.4203   -0.4959   -0.7711 H   0  0  0  0  0  0  0  0  0  0  0  0
    0.0928   -1.9469   -1.6968 C   0  0  0  0  0  0  0  0  0  0  0  0
    0.5583   -2.7620   -1.1358 H   0  0  0  0  0  0  0  0  0  0  0  0
   -0.9788   -2.1473   -1.7565 H   0  0  0  0  0  0  0  0  0  0  0  0
    0.6096   -1.9509   -3.1334 C   0  0  0  0  0  0  0  0  0  0  0  0
    1.3354   -1.0839   -3.5845 O   0  0  0  0  0  0  0  0  0  0  0  0
    0.3083   -2.9706   -3.9900 N   0  0  0  0  0  0  0  0  0  0  0  0
    0.8377   -2.9932   -4.8567 H   0  0  0  0  0  0  0  0  0  0  0  0
   -0.0975   -3.8214   -3.6154 H   0  0  0  0  0  0  0  0  0  0  0  0
   -0.6068    1.1096    0.6408 C   0  0  0  0  0  0  0  0  0  0  0  0
   -1.5540    1.7242    0.1643 O   0  0  0  0  0  0  0  0  0  0  0  0
    0.2434    1.7472    1.5251 N   0  0  0  0  0  0  0  0  0  0  0  0
    0.9903    1.1986    1.9417 H   0  0  0  0  0  0  0  0  0  0  0  0
    0.1021    3.1485    1.9014 C   0  0  0  0  0  0  0  0  0  0  0  0
   -0.8672    3.3206    2.3809 H   0  0  0  0  0  0  0  0  0  0  0  0
    0.8908    3.4328    2.6044 H   0  0  0  0  0  0  0  0  0  0  0  0
    0.1782    3.7921    1.0187 H   0  0  0  0  0  0  0  0  0  0  0  0
  1  2  1  0  0  0  0
  2  3  1  0  0  0  0
  2  4  1  0  0  0  0
  2  5  1  0  0  0  0
  5  6  2  0  0  0  0
  5  7  1  0  0  0  0
  7  8  1  0  0  0  0
  7  9  1  0  0  0  0
  9 10  1  0  0  0  0
  9 11  1  0  0  0  0
  9 22  1  0  0  0  0
 11 12  1  0  0  0  0
 11 13  1  0  0  0  0
 11 14  1  0  0  0  0
 14 15  1  0  0  0  0
 14 16  1  0  0  0  0
 14 17  1  0  0  0  0
 17 18  2  0  0  0  0
 17 19  1  0  0  0  0
 19 20  1  0  0  0  0
 19 21  1  0  0  0  0
 22 23  2  0  0  0  0
 22 24  1  0  0  0  0
 24 25  1  0  0  0  0
 24 26  1  0  0  0  0
 26 27  1  0  0  0  0
 26 28  1  0  0  0  0
 26 29  1  0  0  0  0
M  END
$$$$

  -OEChem-04042215583D

 29 28  0     1  0  0  0  0  0999 V2000
   -3.4724   -3.7143    1.6303 H   0  0  0  0  0  0  0  0  0  0  0  0
   -3.4470   -2.7574    1.1014 C   0  0  0  0  0  0  0  0  0  0  0  0
   -4.0400   -2.0303    1.6616 H   0  0  0  0  0  0  0  0  0  0  0  0
   -3.8875   -2.8902    0.1104 H   0  0  0  0  0  0  0  0  0  0  0  0
   -2.0168   -2.2688    0.9708 C   0  0  0  0  0  0  0  0  0  0  0  0
   -1.0969   -2.9530    1.3903 O   0  0  0  0  0  0  0  0  0  0  0  0
   -1.7618   -1.0583    0.3607 N   0  0  0  0  0  0  0  0  0  0  0  0
   -2.5675   -0.4850    0.1132 H   0  0  0  0  0  0  0  0  0  0  0  0
   -0.4503   -0.3886    0.3314 C   0  0  1  0  0  0  0  0  0  0  0  0
    0.1662   -0.8157    1.1293 H   0  0  0  0  0  0  0  0  0  0  0  0
    0.3198   -0.5891   -0.9980 C   0  0  0  0  0  0  0  0  0  0  0  0
    0.2795    0.3417   -1.5762 H   0  0  0  0  0  0  0  0  0  0  0  0
    1.3740   -0.7776   -0.7669 H   0  0  0  0  0  0  0  0  0  0  0  0
   -0.2144   -1.7205   -1.9029 C   0  0  0  0  0  0  0  0  0  0  0  0
   -0.1756   -2.6687   -1.3592 H   0  0  0  0  0  0  0  0  0  0  0  0
   -1.2548   -1.5195   -2.1714 H   0  0  0  0  0  0  0  0  0  0  0  0
    0.5834   -1.8709   -3.1959 C   0  0  0  0  0  0  0  0  0  0  0  0
    1.5324   -1.1640   -3.4820 O   0  0  0  0  0  0  0  0  0  0  0  0
    0.2758   -2.8407   -4.1065 N   0  0  0  0  0  0  0  0  0  0  0  0
    0.9566   -2.9869   -4.8461 H   0  0  0  0  0  0  0  0  0  0  0  0
   -0.3500   -3.5901   -3.8315 H   0  0  0  0  0  0  0  0  0  0  0  0
   -0.6058    1.1113    0.6528 C   0  0  0  0  0  0  0  0  0  0  0  0
   -1.5576    1.7332    0.1948 O   0  0  0  0  0  0  0  0  0  0  0  0
    0.2569    1.7368    1.5336 N   0  0  0  0  0  0  0  0  0  0  0  0
    1.0134    1.1842    1.9271 H   0  0  0  0  0  0  0  0  0  0  0  0
    0.1250    3.1344    1.9269 C   0  0  0  0  0  0  0  0  0  0  0  0
   -0.8412    3.3074    2.4126 H   0  0  0  0  0  0  0  0  0  0  0  0
    0.9182    3.4055    2.6303 H   0  0  0  0  0  0  0  0  0  0  0  0
    0.2014    3.7876    1.0512 H   0  0  0  0  0  0  0  0  0  0  0  0
  1  2  1  0  0  0  0
  2  3  1  0  0  0  0
  2  4  1  0  0  0  0
  2  5  1  0  0  0  0
  5  6  2  0  0  0  0
  5  7  1  0  0  0  0
  7  8  1  0  0  0  0
  7  9  1  0  0  0  0
  9 10  1  0  0  0  0
  9 11  1  0  0  0  0
  9 22  1  0  0  0  0
 11 12  1  0  0  0  0
 11 13  1  0  0  0  0
 11 14  1  0  0  0  0
 14 15  1  0  0  0  0
 14 16  1  0  0  0  0
 14 17  1  0  0  0  0
 17 18  2  0  0  0  0
 17 19  1  0  0  0  0
 19 20  1  0  0  0  0
 19 21  1  0  0  0  0
 22 23  2  0  0  0  0
 22 24  1  0  0  0  0
 24 25  1  0  0  0  0
 24 26  1  0  0  0  0
 26 27  1  0  0  0  0
 26 28  1  0  0  0  0
 26 29  1  0  0  0  0
M  END
$$$$

  -OEChem-04042215583D

 29 28  0     1  0  0  0  0  0999 V2000
   -3.5019   -3.7057    1.5876 H   0  0  0  0  0  0  0  0  0  0  0  0
   -3.4711   -2.7370    1.0808 C   0  0  0  0  0  0  0  0  0  0  0  0
   -4.0499   -2.0165    1.6640 H   0  0  0  0  0  0  0  0  0  0  0  0
   -3.9234   -2.8420    0.0918 H   0  0  0  0  0  0  0  0  0  0  0  0
   -2.0367   -2.2617    0.9478 C   0  0  0  0  0  0  0  0  0  0  0  0
   -1.1225   -2.9567    1.3621 O   0  0  0  0  0  0  0  0  0  0  0  0
   -1.7716   -1.0482    0.3474 N   0  0  0  0  0  0  0  0  0  0  0  0
   -2.5725   -0.4678    0.1008 H   0  0  0  0  0  0  0  0  0  0  0  0
   -0.4540   -0.3895    0.3196 C   0  0  1  0  0  0  0  0  0  0  0  0
    0.1644   -0.8306    1.1084 H   0  0  0  0  0  0  0  0  0  0  0  0
    0.3049   -0.5724   -1.0192 C   0  0  0  0  0  0  0  0  0  0  0  0
    0.2915    0.3668   -1.5848 H   0  0  0  0  0  0  0  0  0  0  0  0
    1.3525   -0.7876   -0.7805 H   0  0  0  0  0  0  0  0  0  0  0  0
   -0.2423   -1.6820   -1.9431 C   0  0  0  0  0  0  0  0  0  0  0  0
   -0.4228   -2.5855   -1.3555 H   0  0  0  0  0  0  0  0  0  0  0  0
   -1.1899   -1.3651   -2.3867 H   0  0  0  0  0  0  0  0  0  0  0  0
    0.7338   -2.0604   -3.0542 C   0  0  0  0  0  0  0  0  0  0  0  0
    1.7100   -1.3918   -3.3412 O   0  0  0  0  0  0  0  0  0  0  0  0
    0.5618   -3.1988   -3.7882 N   0  0  0  0  0  0  0  0  0  0  0  0
    1.3442   -3.4687   -4.3771 H   0  0  0  0  0  0  0  0  0  0  0  0
   -0.0946   -3.8982   -3.4583 H   0  0  0  0  0  0  0  0  0  0  0  0
   -0.5984    1.1084    0.6551 C   0  0  0  0  0  0  0  0  0  0  0  0
   -1.5445    1.7427    0.2021 O   0  0  0  0  0  0  0  0  0  0  0  0
    0.2718    1.7189    1.5391 N   0  0  0  0  0  0  0  0  0  0  0  0
    1.0238    1.1559    1.9266 H   0  0  0  0  0  0  0  0  0  0  0  0
    0.1485    3.1117    1.9513 C   0  0  0  0  0  0  0  0  0  0  0  0
   -0.8125    3.2811    2.4482 H   0  0  0  0  0  0  0  0  0  0  0  0
    0.9491    3.3713    2.6507 H   0  0  0  0  0  0  0  0  0  0  0  0
    0.2188    3.7758    1.0835 H   0  0  0  0  0  0  0  0  0  0  0  0
  1  2  1  0  0  0  0
  2  3  1  0  0  0  0
  2  4  1  0  0  0  0
  2  5  1  0  0  0  0
  5  6  2  0  0  0  0
  5  7  1  0  0  0  0
  7  8  1  0  0  0  0
  7  9  1  0  0  0  0
  9 10  1  0  0  0  0
  9 11  1  0  0  0  0
  9 22  1  0  0  0  0
 11 12  1  0  0  0  0
 11 13  1  0  0  0  0
 11 14  1  0  0  0  0
 14 15  1  0  0  0  0
 14 16  1  0  0  0  0
 14 17  1  0  0  0  0
 17 18  2  0  0  0  0
 17 19  1  0  0  0  0
 19 20  1  0  0  0  0
 19 21  1  0  0  0  0
 22 23  2  0  0  0  0
 22 24  1  0  0  0  0
 24 25  1  0  0  0  0
 24 26  1  0  0  0  0
 26 27  1  0  0  0  0
 26 28  1  0  0  0  0
 26 29  1  0  0  0  0
M  END
$$$$

  -OEChem-04042215583D

 29 28  0     1  0  0  0  0  0999 V2000
   -3.5569   -3.7302    1.4590 H   0  0  0  0  0  0  0  0  0  0  0  0
   -3.5234   -2.7215    1.0380 C   0  0  0  0  0  0  0  0  0  0  0  0
   -4.0666   -2.0444    1.7016 H   0  0  0  0  0  0  0  0  0  0  0  0
   -4.0120   -2.7314    0.0606 H   0  0  0  0  0  0  0  0  0  0  0  0
   -2.0850   -2.2612    0.8945 C   0  0  0  0  0  0  0  0  0  0  0  0
   -1.1714   -2.9863    1.2565 O   0  0  0  0  0  0  0  0  0  0  0  0
   -1.8126   -1.0353    0.3231 N   0  0  0  0  0  0  0  0  0  0  0  0
   -2.6089   -0.4359    0.1086 H   0  0  0  0  0  0  0  0  0  0  0  0
   -0.4848   -0.3982    0.2800 C   0  0  1  0  0  0  0  0  0  0  0  0
    0.1422   -0.8715    1.0429 H   0  0  0  0  0  0  0  0  0  0  0  0
    0.2477   -0.5523   -1.0786 C   0  0  0  0  0  0  0  0  0  0  0  0
    0.2459    0.4045   -1.6138 H   0  0  0  0  0  0  0  0  0  0  0  0
    1.2947   -0.7859   -0.8548 H   0  0  0  0  0  0  0  0  0  0  0  0
   -0.3152   -1.6225   -2.0425 C   0  0  0  0  0  0  0  0  0  0  0  0
   -0.7344   -2.4567   -1.4779 H   0  0  0  0  0  0  0  0  0  0  0  0
   -1.1117   -1.1957   -2.6578 H   0  0  0  0  0  0  0  0  0  0  0  0
    0.7730   -2.2124   -2.9335 C   0  0  0  0  0  0  0  0  0  0  0  0
    1.6532   -1.5303   -3.4246 O   0  0  0  0  0  0  0  0  0  0  0  0
    0.8552   -3.5541   -3.1743 N   0  0  0  0  0  0  0  0  0  0  0  0
    1.7224   -3.8736   -3.5960 H   0  0  0  0  0  0  0  0  0  0  0  0
    0.3090   -4.1842   -2.5959 H   0  0  0  0  0  0  0  0  0  0  0  0
   -0.5937    1.0918    0.6621 C   0  0  0  0  0  0  0  0  0  0  0  0
   -1.5384    1.7553    0.2506 O   0  0  0  0  0  0  0  0  0  0  0  0
    0.3090    1.6627    1.5401 N   0  0  0  0  0  0  0  0  0  0  0  0
    1.0584    1.0758    1.8960 H   0  0  0  0  0  0  0  0  0  0  0  0
    0.2268    3.0493    1.9836 C   0  0  0  0  0  0  0  0  0  0  0  0
   -0.6971    3.2173    2.5469 H   0  0  0  0  0  0  0  0  0  0  0  0
    1.0756    3.2903    2.6308 H   0  0  0  0  0  0  0  0  0  0  0  0
    0.2447    3.7288    1.1249 H   0  0  0  0  0  0  0  0  0  0  0  0
  1  2  1  0  0  0  0
  2  3  1  0  0  0  0
  2  4  1  0  0  0  0
  2  5  1  0  0  0  0
  5  6  2  0  0  0  0
  5  7  1  0  0  0  0
  7  8  1  0  0  0  0
  7  9  1  0  0  0  0
  9 10  1  0  0  0  0
  9 11  1  0  0  0  0
  9 22  1  0  0  0  0
 11 12  1  0  0  0  0
 11 13  1  0  0  0  0
 11 14  1  0  0  0  0
 14 15  1  0  0  0  0
 14 16  1  0  0  0  0
 14 17  1  0  0  0  0
 17 18  2  0  0  0  0
 17 19  1  0  0  0  0
 19 20  1  0  0  0  0
 19 21  1  0  0  0  0
 22 23  2  0  0  0  0
 22 24  1  0  0  0  0
 24 25  1  0  0  0  0
 24 26  1  0  0  0  0
 26 27  1  0  0  0  0
 26 28  1  0  0  0  0
 26 29  1  0  0  0  0
M  END
$$$$

  -OEChem-04042215583D

 29 28  0     1  0  0  0  0  0999 V2000
   -3.6247   -3.7304    1.3761 H   0  0  0  0  0  0  0  0  0  0  0  0
   -3.5888   -2.7127    0.9774 C   0  0  0  0  0  0  0  0  0  0  0  0
   -4.0906   -2.0420    1.6790 H   0  0  0  0  0  0  0  0  0  0  0  0
   -4.1173   -2.6902    0.0212 H   0  0  0  0  0  0  0  0  0  0  0  0
   -2.1486   -2.2772    0.7844 C   0  0  0  0  0  0  0  0  0  0  0  0
   -1.2351   -3.0438    1.0517 O   0  0  0  0  0  0  0  0  0  0  0  0
   -1.8706   -1.0329    0.2554 N   0  0  0  0  0  0  0  0  0  0  0  0
   -2.6593   -0.4040    0.1057 H   0  0  0  0  0  0  0  0  0  0  0  0
   -0.5297   -0.4253    0.2123 C   0  0  1  0  0  0  0  0  0  0  0  0
    0.0906   -0.9391    0.9544 H   0  0  0  0  0  0  0  0  0  0  0  0
    0.1993   -0.5582   -1.1509 C   0  0  0  0  0  0  0  0  0  0  0  0
    0.2023    0.4149   -1.6555 H   0  0  0  0  0  0  0  0  0  0  0  0
    1.2470   -0.7977   -0.9368 H   0  0  0  0  0  0  0  0  0  0  0  0
   -0.3691   -1.5876   -2.1592 C   0  0  0  0  0  0  0  0  0  0  0  0
   -1.0531   -2.2948   -1.6914 H   0  0  0  0  0  0  0  0  0  0  0  0
   -0.9242   -1.0693   -2.9462 H   0  0  0  0  0  0  0  0  0  0  0  0
    0.7509   -2.4089   -2.7799 C   0  0  0  0  0  0  0  0  0  0  0  0
    1.4940   -1.9478   -3.6250 O   0  0  0  0  0  0  0  0  0  0  0  0
    1.0530   -3.6567   -2.3145 N   0  0  0  0  0  0  0  0  0  0  0  0
    1.9445   -4.0412   -2.6117 H   0  0  0  0  0  0  0  0  0  0  0  0
    0.6250   -3.9665   -1.4459 H   0  0  0  0  0  0  0  0  0  0  0  0
   -0.5908    1.0504    0.6553 C   0  0  0  0  0  0  0  0  0  0  0  0
   -1.5206    1.7564    0.2839 O   0  0  0  0  0  0  0  0  0  0  0  0
    0.3438    1.5614    1.5367 N   0  0  0  0  0  0  0  0  0  0  0  0
    1.0802    0.9401    1.8595 H   0  0  0  0  0  0  0  0  0  0  0  0
    0.3167    2.9356    2.0234 C   0  0  0  0  0  0  0  0  0  0  0  0
   -0.5962    3.1202    2.5994 H   0  0  0  0  0  0  0  0  0  0  0  0
    1.1788    3.1248    2.6704 H   0  0  0  0  0  0  0  0  0  0  0  0
    0.3536    3.6400    1.1855 H   0  0  0  0  0  0  0  0  0  0  0  0
  1  2  1  0  0  0  0
  2  3  1  0  0  0  0
  2  4  1  0  0  0  0
  2  5  1  0  0  0  0
  5  6  2  0  0  0  0
  5  7  1  0  0  0  0
  7  8  1  0  0  0  0
  7  9  1  0  0  0  0
  9 10  1  0  0  0  0
  9 11  1  0  0  0  0
  9 22  1  0  0  0  0
 11 12  1  0  0  0  0
 11 13  1  0  0  0  0
 11 14  1  0  0  0  0
 14 15  1  0  0  0  0
 14 16  1  0  0  0  0
 14 17  1  0  0  0  0
 17 18  2  0  0  0  0
 17 19  1  0  0  0  0
 19 20  1  0  0  0  0
 19 21  1  0  0  0  0
 22 23  2  0  0  0  0
 22 24  1  0  0  0  0
 24 25  1  0  0  0  0
 24 26  1  0  0  0  0
 26 27  1  0  0  0  0
 26 28  1  0  0  0  0
 26 29  1  0  0  0  0
M  END
$$$$

  -OEChem-04042215583D

 29 28  0     1  0  0  0  0  0999 V2000
   -3.5928   -3.7482    1.2830 H   0  0  0  0  0  0  0  0  0  0  0  0
   -3.5705   -2.7208    0.9090 C   0  0  0  0  0  0  0  0  0  0  0  0
   -4.0361   -2.0663    1.6499 H   0  0  0  0  0  0  0  0  0  0  0  0
   -4.1425   -2.6714   -0.0209 H   0  0  0  0  0  0  0  0  0  0  0  0
   -2.1390   -2.2851    0.6607 C   0  0  0  0  0  0  0  0  0  0  0  0
   -1.2163   -3.0716    0.8288 O   0  0  0  0  0  0  0  0  0  0  0  0
   -1.8774   -1.0237    0.1643 N   0  0  0  0  0  0  0  0  0  0  0  0
   -2.6680   -0.3853    0.0769 H   0  0  0  0  0  0  0  0  0  0  0  0
   -0.5391   -0.4118    0.1533 C   0  0  1  0  0  0  0  0  0  0  0  0
    0.0585   -0.9362    0.9066 H   0  0  0  0  0  0  0  0  0  0  0  0
    0.2368   -0.5526   -1.1814 C   0  0  0  0  0  0  0  0  0  0  0  0
    0.2156    0.4181   -1.6898 H   0  0  0  0  0  0  0  0  0  0  0  0
    1.2891   -0.7536   -0.9497 H   0  0  0  0  0  0  0  0  0  0  0  0
   -0.2931   -1.5951   -2.2005 C   0  0  0  0  0  0  0  0  0  0  0  0
   -1.2019   -2.1058   -1.8871 H   0  0  0  0  0  0  0  0  0  0  0  0
   -0.5302   -1.0862   -3.1393 H   0  0  0  0  0  0  0  0  0  0  0  0
    0.7702   -2.6430   -2.4800 C   0  0  0  0  0  0  0  0  0  0  0  0
    1.6390   -2.4839   -3.3163 O   0  0  0  0  0  0  0  0  0  0  0  0
    0.8556   -3.7532   -1.6891 N   0  0  0  0  0  0  0  0  0  0  0  0
    1.7126   -4.2926   -1.7581 H   0  0  0  0  0  0  0  0  0  0  0  0
    0.3002   -3.7780   -0.8332 H   0  0  0  0  0  0  0  0  0  0  0  0
   -0.5998    1.0525    0.6319 C   0  0  0  0  0  0  0  0  0  0  0  0
   -1.5352    1.7632    0.2850 O   0  0  0  0  0  0  0  0  0  0  0  0
    0.3275    1.5381    1.5352 N   0  0  0  0  0  0  0  0  0  0  0  0
    1.0650    0.9098    1.8416 H   0  0  0  0  0  0  0  0  0  0  0  0
    0.2773    2.8867    2.0868 C   0  0  0  0  0  0  0  0  0  0  0  0
   -0.6394    3.0285    2.6689 H   0  0  0  0  0  0  0  0  0  0  0  0
    1.1350    3.0582    2.7444 H   0  0  0  0  0  0  0  0  0  0  0  0
    0.3043    3.6313    1.2842 H   0  0  0  0  0  0  0  0  0  0  0  0
  1  2  1  0  0  0  0
  2  3  1  0  0  0  0
  2  4  1  0  0  0  0
  2  5  1  0  0  0  0
  5  6  2  0  0  0  0
  5  7  1  0  0  0  0
  7  8  1  0  0  0  0
  7  9  1  0  0  0  0
  9 10  1  0  0  0  0
  9 11  1  0  0  0  0
  9 22  1  0  0  0  0
 11 12  1  0  0  0  0
 11 13  1  0  0  0  0
 11 14  1  0  0  0  0
 14 15  1  0  0  0  0
 14 16  1  0  0  0  0
 14 17  1  0  0  0  0
 17 18  2  0  0  0  0
 17 19  1  0  0  0  0
 19 20  1  0  0  0  0
 19 21  1  0  0  0  0
 22 23  2  0  0  0  0
 22 24  1  0  0  0  0
 24 25  1  0  0  0  0
 24 26  1  0  0  0  0
 26 27  1  0  0  0  0
 26 28  1  0  0  0  0
 26 29  1  0  0  0  0
M  END
$$$$

  -OEChem-04042215583D

 29 28  0     1  0  0  0  0  0999 V2000
   -3.6196   -3.7727    1.1950 H   0  0  0  0  0  0  0  0  0  0  0  0
   -3.5721   -2.7516    0.8064 C   0  0  0  0  0  0  0  0  0  0  0  0
   -4.1063   -2.0889    1.4917 H   0  0  0  0  0  0  0  0  0  0  0  0
   -4.0606   -2.7236   -0.1708 H   0  0  0  0  0  0  0  0  0  0  0  0
   -2.1279   -2.3070    0.6761 C   0  0  0  0  0  0  0  0  0  0  0  0
   -1.2192   -3.0725    0.9630 O   0  0  0  0  0  0  0  0  0  0  0  0
   -1.8363   -1.0560    0.1744 N   0  0  0  0  0  0  0  0  0  0  0  0
   -2.6243   -0.4308    0.0052 H   0  0  0  0  0  0  0  0  0  0  0  0
   -0.5025   -0.4329    0.1890 C   0  0  1  0  0  0  0  0  0  0  0  0
    0.0903   -0.9469    0.9528 H   0  0  0  0  0  0  0  0  0  0  0  0
    0.2903   -0.5569   -1.1402 C   0  0  0  0  0  0  0  0  0  0  0  0
    0.2431    0.4172   -1.6403 H   0  0  0  0  0  0  0  0  0  0  0  0
    1.3479   -0.7346   -0.9139 H   0  0  0  0  0  0  0  0  0  0  0  0
   -0.2120   -1.5915   -2.1774 C   0  0  0  0  0  0  0  0  0  0  0  0
   -1.2485   -1.8952   -2.0310 H   0  0  0  0  0  0  0  0  0  0  0  0
   -0.1627   -1.1388   -3.1721 H   0  0  0  0  0  0  0  0  0  0  0  0
    0.6902   -2.8181   -2.1904 C   0  0  0  0  0  0  0  0  0  0  0  0
    1.6295   -2.9116   -2.9578 O   0  0  0  0  0  0  0  0  0  0  0  0
    0.5380   -3.8300   -1.2871 N   0  0  0  0  0  0  0  0  0  0  0  0
    1.3059   -4.4902   -1.2248 H   0  0  0  0  0  0  0  0  0  0  0  0
   -0.0568   -3.6664   -0.4715 H   0  0  0  0  0  0  0  0  0  0  0  0
   -0.5979    1.0371    0.6450 C   0  0  0  0  0  0  0  0  0  0  0  0
   -1.5232    1.7340    0.2463 O   0  0  0  0  0  0  0  0  0  0  0  0
    0.2955    1.5504    1.5668 N   0  0  0  0  0  0  0  0  0  0  0  0
    1.0239    0.9339    1.9161 H   0  0  0  0  0  0  0  0  0  0  0  0
    0.2178    2.9120    2.0824 C   0  0  0  0  0  0  0  0  0  0  0  0
   -0.7213    3.0639    2.6248 H   0  0  0  0  0  0  0  0  0  0  0  0
    1.0484    3.1048    2.7681 H   0  0  0  0  0  0  0  0  0  0  0  0
    0.2723    3.6362    1.2627 H   0  0  0  0  0  0  0  0  0  0  0  0
  1  2  1  0  0  0  0
  2  3  1  0  0  0  0
  2  4  1  0  0  0  0
  2  5  1  0  0  0  0
  5  6  2  0  0  0  0
  5  7  1  0  0  0  0
  7  8  1  0  0  0  0
  7  9  1  0  0  0  0
  9 10  1  0  0  0  0
  9 11  1  0  0  0  0
  9 22  1  0  0  0  0
 11 12  1  0  0  0  0
 11 13  1  0  0  0  0
 11 14  1  0  0  0  0
 14 15  1  0  0  0  0
 14 16  1  0  0  0  0
 14 17  1  0  0  0  0
 17 18  2  0  0  0  0
 17 19  1  0  0  0  0
 19 20  1  0  0  0  0
 19 21  1  0  0  0  0
 22 23  2  0  0  0  0
 22 24  1  0  0  0  0
 24 25  1  0  0  0  0
 24 26  1  0  0  0  0
 26 27  1  0  0  0  0
 26 28  1  0  0  0  0
 26 29  1  0  0  0  0
M  END
$$$$

  -OEChem-04042215583D

 29 28  0     1  0  0  0  0  0999 V2000
   -3.6603   -3.7801    1.1565 H   0  0  0  0  0  0  0  0  0  0  0  0
   -3.5745   -2.7767    0.7298 C   0  0  0  0  0  0  0  0  0  0  0  0
   -4.2078   -2.0949    1.3027 H   0  0  0  0  0  0  0  0  0  0  0  0
   -3.9239   -2.8036   -0.3053 H   0  0  0  0  0  0  0  0  0  0  0  0
   -2.1329   -2.3084    0.7789 C   0  0  0  0  0  0  0  0  0  0  0  0
   -1.2783   -3.0040    1.3041 O   0  0  0  0  0  0  0  0  0  0  0  0
   -1.7867   -1.0903    0.2365 N   0  0  0  0  0  0  0  0  0  0  0  0
   -2.5504   -0.5007   -0.0944 H   0  0  0  0  0  0  0  0  0  0  0  0
   -0.4509   -0.4690    0.2681 C   0  0  1  0  0  0  0  0  0  0  0  0
    0.1415   -0.9575    1.0487 H   0  0  0  0  0  0  0  0  0  0  0  0
    0.3438   -0.5738   -1.0668 C   0  0  0  0  0  0  0  0  0  0  0  0
    0.3091    0.4082   -1.5530 H   0  0  0  0  0  0  0  0  0  0  0  0
    1.3980   -0.7667   -0.8377 H   0  0  0  0  0  0  0  0  0  0  0  0
   -0.1368   -1.5811   -2.1358 C   0  0  0  0  0  0  0  0  0  0  0  0
   -1.2242   -1.6769   -2.1451 H   0  0  0  0  0  0  0  0  0  0  0  0
    0.1504   -1.1992   -3.1203 H   0  0  0  0  0  0  0  0  0  0  0  0
    0.5047   -2.9584   -1.9787 C   0  0  0  0  0  0  0  0  0  0  0  0
    1.3861   -3.3185   -2.7355 O   0  0  0  0  0  0  0  0  0  0  0  0
    0.1705   -3.8620   -1.0150 N   0  0  0  0  0  0  0  0  0  0  0  0
    0.8010   -4.6522   -0.9256 H   0  0  0  0  0  0  0  0  0  0  0  0
   -0.3273   -3.5306   -0.1884 H   0  0  0  0  0  0  0  0  0  0  0  0
   -0.5844    1.0196    0.6525 C   0  0  0  0  0  0  0  0  0  0  0  0
   -1.4845    1.6934    0.1650 O   0  0  0  0  0  0  0  0  0  0  0  0
    0.2655    1.5848    1.5847 N   0  0  0  0  0  0  0  0  0  0  0  0
    0.9596    0.9824    2.0183 H   0  0  0  0  0  0  0  0  0  0  0  0
    0.1463    2.9641    2.0419 C   0  0  0  0  0  0  0  0  0  0  0  0
   -0.8137    3.1196    2.5451 H   0  0  0  0  0  0  0  0  0  0  0  0
    0.9491    3.1994    2.7473 H   0  0  0  0  0  0  0  0  0  0  0  0
    0.2176    3.6563    1.1963 H   0  0  0  0  0  0  0  0  0  0  0  0
  1  2  1  0  0  0  0
  2  3  1  0  0  0  0
  2  4  1  0  0  0  0
  2  5  1  0  0  0  0
  5  6  2  0  0  0  0
  5  7  1  0  0  0  0
  7  8  1  0  0  0  0
  7  9  1  0  0  0  0
  9 10  1  0  0  0  0
  9 11  1  0  0  0  0
  9 22  1  0  0  0  0
 11 12  1  0  0  0  0
 11 13  1  0  0  0  0
 11 14  1  0  0  0  0
 14 15  1  0  0  0  0
 14 16  1  0  0  0  0
 14 17  1  0  0  0  0
 17 18  2  0  0  0  0
 17 19  1  0  0  0  0
 19 20  1  0  0  0  0
 19 21  1  0  0  0  0
 22 23  2  0  0  0  0
 22 24  1  0  0  0  0
 24 25  1  0  0  0  0
 24 26  1  0  0  0  0
 26 27  1  0  0  0  0
 26 28  1  0  0  0  0
 26 29  1  0  0  0  0
M  END
$$$$

  -OEChem-04042215583D

 29 28  0     1  0  0  0  0  0999 V2000
   -3.5093   -3.7685    1.3676 H   0  0  0  0  0  0  0  0  0  0  0  0
   -3.4485   -2.7891    0.8844 C   0  0  0  0  0  0  0  0  0  0  0  0
   -4.0755   -2.0855    1.4376 H   0  0  0  0  0  0  0  0  0  0  0  0
   -3.8253   -2.8760   -0.1374 H   0  0  0  0  0  0  0  0  0  0  0  0
   -2.0122   -2.3011    0.8708 C   0  0  0  0  0  0  0  0  0  0  0  0
   -1.1395   -2.9777    1.3858 O   0  0  0  0  0  0  0  0  0  0  0  0
   -1.7102   -1.0913    0.2816 N   0  0  0  0  0  0  0  0  0  0  0  0
   -2.4972   -0.5203   -0.0251 H   0  0  0  0  0  0  0  0  0  0  0  0
   -0.3989   -0.4193    0.3191 C   0  0  1  0  0  0  0  0  0  0  0  0
    0.1866   -0.8558    1.1355 H   0  0  0  0  0  0  0  0  0  0  0  0
    0.4387   -0.5616   -0.9825 C   0  0  0  0  0  0  0  0  0  0  0  0
    0.3954    0.3897   -1.5248 H   0  0  0  0  0  0  0  0  0  0  0  0
    1.4888   -0.7180   -0.7107 H   0  0  0  0  0  0  0  0  0  0  0  0
    0.0002   -1.6475   -1.9871 C   0  0  0  0  0  0  0  0  0  0  0  0
   -1.0738   -1.5862   -2.1776 H   0  0  0  0  0  0  0  0  0  0  0  0
    0.5058   -1.4732   -2.9409 H   0  0  0  0  0  0  0  0  0  0  0  0
    0.3765   -3.0502   -1.5185 C   0  0  0  0  0  0  0  0  0  0  0  0
    1.5094   -3.3192   -1.1641 O   0  0  0  0  0  0  0  0  0  0  0  0
   -0.5076   -4.0903   -1.5403 N   0  0  0  0  0  0  0  0  0  0  0  0
   -0.2147   -4.8924   -0.9891 H   0  0  0  0  0  0  0  0  0  0  0  0
   -1.4929   -3.8663   -1.5981 H   0  0  0  0  0  0  0  0  0  0  0  0
   -0.5885    1.0773    0.6373 C   0  0  0  0  0  0  0  0  0  0  0  0
   -1.5062    1.6974    0.1115 O   0  0  0  0  0  0  0  0  0  0  0  0
    0.2210    1.7066    1.5640 N   0  0  0  0  0  0  0  0  0  0  0  0
    0.9315    1.1457    2.0267 H   0  0  0  0  0  0  0  0  0  0  0  0
    0.0444    3.0959    1.9686 C   0  0  0  0  0  0  0  0  0  0  0  0
   -0.9292    3.2335    2.4506 H   0  0  0  0  0  0  0  0  0  0  0  0
    0.8260    3.3851    2.6776 H   0  0  0  0  0  0  0  0  0  0  0  0
    0.1047    3.7598    1.0998 H   0  0  0  0  0  0  0  0  0  0  0  0
  1  2  1  0  0  0  0
  2  3  1  0  0  0  0
  2  4  1  0  0  0  0
  2  5  1  0  0  0  0
  5  6  2  0  0  0  0
  5  7  1  0  0  0  0
  7  8  1  0  0  0  0
  7  9  1  0  0  0  0
  9 10  1  0  0  0  0
  9 11  1  0  0  0  0
  9 22  1  0  0  0  0
 11 12  1  0  0  0  0
 11 13  1  0  0  0  0
 11 14  1  0  0  0  0
 14 15  1  0  0  0  0
 14 16  1  0  0  0  0
 14 17  1  0  0  0  0
 17 18  2  0  0  0  0
 17 19  1  0  0  0  0
 19 20  1  0  0  0  0
 19 21  1  0  0  0  0
 22 23  2  0  0  0  0
 22 24  1  0  0  0  0
 24 25  1  0  0  0  0
 24 26  1  0  0  0  0
 26 27  1  0  0  0  0
 26 28  1  0  0  0  0
 26 29  1  0  0  0  0
M  END
$$$$

  -OEChem-04042215583D

 29 28  0     1  0  0  0  0  0999 V2000
   -3.4919   -3.7660    1.5058 H   0  0  0  0  0  0  0  0  0  0  0  0
   -3.4200   -2.8305    0.9439 C   0  0  0  0  0  0  0  0  0  0  0  0
   -4.1459   -2.1203    1.3471 H   0  0  0  0  0  0  0  0  0  0  0  0
   -3.6576   -3.0309   -0.1032 H   0  0  0  0  0  0  0  0  0  0  0  0
   -2.0190   -2.2599    1.0578 C   0  0  0  0  0  0  0  0  0  0  0  0
   -1.1972   -2.8124    1.7684 O   0  0  0  0  0  0  0  0  0  0  0  0
   -1.7068   -1.0815    0.4092 N   0  0  0  0  0  0  0  0  0  0  0  0
   -2.4711   -0.5802   -0.0402 H   0  0  0  0  0  0  0  0  0  0  0  0
   -0.3929   -0.4141    0.4255 C   0  0  1  0  0  0  0  0  0  0  0  0
    0.2008   -0.8171    1.2531 H   0  0  0  0  0  0  0  0  0  0  0  0
    0.4280   -0.5853   -0.8872 C   0  0  0  0  0  0  0  0  0  0  0  0
    0.4190    0.3598   -1.4417 H   0  0  0  0  0  0  0  0  0  0  0  0
    1.4699   -0.7744   -0.6061 H   0  0  0  0  0  0  0  0  0  0  0  0
   -0.0096   -1.6785   -1.8846 C   0  0  0  0  0  0  0  0  0  0  0  0
   -1.0211   -1.4571   -2.2352 H   0  0  0  0  0  0  0  0  0  0  0  0
    0.6519   -1.6553   -2.7546 H   0  0  0  0  0  0  0  0  0  0  0  0
    0.0197   -3.0885   -1.3065 C   0  0  0  0  0  0  0  0  0  0  0  0
    1.0064   -3.5196   -0.7417 O   0  0  0  0  0  0  0  0  0  0  0  0
   -0.9884   -3.9848   -1.5260 N   0  0  0  0  0  0  0  0  0  0  0  0
   -0.7732   -4.9473   -1.2806 H   0  0  0  0  0  0  0  0  0  0  0  0
   -1.6765   -3.7811   -2.2417 H   0  0  0  0  0  0  0  0  0  0  0  0
   -0.5867    1.0967    0.6681 C   0  0  0  0  0  0  0  0  0  0  0  0
   -1.4676    1.7030    0.0678 O   0  0  0  0  0  0  0  0  0  0  0  0
    0.2139    1.7695    1.5718 N   0  0  0  0  0  0  0  0  0  0  0  0
    0.8896    1.2220    2.0984 H   0  0  0  0  0  0  0  0  0  0  0  0
    0.0568    3.1849    1.8825 C   0  0  0  0  0  0  0  0  0  0  0  0
   -0.9387    3.3789    2.2954 H   0  0  0  0  0  0  0  0  0  0  0  0
    0.8035    3.4951    2.6198 H   0  0  0  0  0  0  0  0  0  0  0  0
    0.1893    3.7920    0.9808 H   0  0  0  0  0  0  0  0  0  0  0  0
  1  2  1  0  0  0  0
  2  3  1  0  0  0  0
  2  4  1  0  0  0  0
  2  5  1  0  0  0  0
  5  6  2  0  0  0  0
  5  7  1  0  0  0  0
  7  8  1  0  0  0  0
  7  9  1  0  0  0  0
  9 10  1  0  0  0  0
  9 11  1  0  0  0  0
  9 22  1  0  0  0  0
 11 12  1  0  0  0  0
 11 13  1  0  0  0  0
 11 14  1  0  0  0  0
 14 15  1  0  0  0  0
 14 16  1  0  0  0  0
 14 17  1  0  0  0  0
 17 18  2  0  0  0  0
 17 19  1  0  0  0  0
 19 20  1  0  0  0  0
 19 21  1  0  0  0  0
 22 23  2  0  0  0  0
 22 24  1  0  0  0  0
 24 25  1  0  0  0  0
 24 26  1  0  0  0  0
 26 27  1  0  0  0  0
 26 28  1  0  0  0  0
 26 29  1  0  0  0  0
M  END
$$$$

  -OEChem-04042215583D

 29 28  0     1  0  0  0  0  0999 V2000
   -3.4697   -3.7872    1.6107 H   0  0  0  0  0  0  0  0  0  0  0  0
   -3.4239   -2.8262    1.0906 C   0  0  0  0  0  0  0  0  0  0  0  0
   -4.1307   -2.1367    1.5585 H   0  0  0  0  0  0  0  0  0  0  0  0
   -3.7094   -2.9779    0.0473 H   0  0  0  0  0  0  0  0  0  0  0  0
   -2.0186   -2.2597    1.1694 C   0  0  0  0  0  0  0  0  0  0  0  0
   -1.2029   -2.7699    1.9182 O   0  0  0  0  0  0  0  0  0  0  0  0
   -1.7073   -1.1039    0.4794 N   0  0  0  0  0  0  0  0  0  0  0  0
   -2.4697   -0.6227    0.0060 H   0  0  0  0  0  0  0  0  0  0  0  0
   -0.3921   -0.4408    0.4735 C   0  0  1  0  0  0  0  0  0  0  0  0
    0.2040   -0.8157    1.3123 H   0  0  0  0  0  0  0  0  0  0  0  0
    0.4395   -0.6156   -0.8365 C   0  0  0  0  0  0  0  0  0  0  0  0
    0.4635    0.3346   -1.3826 H   0  0  0  0  0  0  0  0  0  0  0  0
    1.4691   -0.8196   -0.5228 H   0  0  0  0  0  0  0  0  0  0  0  0
    0.0618   -1.6990   -1.8724 C   0  0  0  0  0  0  0  0  0  0  0  0
   -0.8178   -1.3474   -2.4180 H   0  0  0  0  0  0  0  0  0  0  0  0
    0.8759   -1.7992   -2.5957 H   0  0  0  0  0  0  0  0  0  0  0  0
   -0.2557   -3.0823   -1.3217 C   0  0  0  0  0  0  0  0  0  0  0  0
    0.5840   -3.7280   -0.7272 O   0  0  0  0  0  0  0  0  0  0  0  0
   -1.4116   -3.7437   -1.6305 N   0  0  0  0  0  0  0  0  0  0  0  0
   -1.3959   -4.7415   -1.4378 H   0  0  0  0  0  0  0  0  0  0  0  0
   -1.9853   -3.3830   -2.3844 H   0  0  0  0  0  0  0  0  0  0  0  0
   -0.6050    1.0752    0.6680 C   0  0  0  0  0  0  0  0  0  0  0  0
   -1.4843    1.6555    0.0397 O   0  0  0  0  0  0  0  0  0  0  0  0
    0.1863    1.7847    1.5516 N   0  0  0  0  0  0  0  0  0  0  0  0
    0.8532    1.2582    2.1096 H   0  0  0  0  0  0  0  0  0  0  0  0
    0.0126    3.2075    1.8166 C   0  0  0  0  0  0  0  0  0  0  0  0
   -0.9826    3.4016    2.2301 H   0  0  0  0  0  0  0  0  0  0  0  0
    0.7605    3.5516    2.5374 H   0  0  0  0  0  0  0  0  0  0  0  0
    0.1306    3.7865    0.8946 H   0  0  0  0  0  0  0  0  0  0  0  0
  1  2  1  0  0  0  0
  2  3  1  0  0  0  0
  2  4  1  0  0  0  0
  2  5  1  0  0  0  0
  5  6  2  0  0  0  0
  5  7  1  0  0  0  0
  7  8  1  0  0  0  0
  7  9  1  0  0  0  0
  9 10  1  0  0  0  0
  9 11  1  0  0  0  0
  9 22  1  0  0  0  0
 11 12  1  0  0  0  0
 11 13  1  0  0  0  0
 11 14  1  0  0  0  0
 14 15  1  0  0  0  0
 14 16  1  0  0  0  0
 14 17  1  0  0  0  0
 17 18  2  0  0  0  0
 17 19  1  0  0  0  0
 19 20  1  0  0  0  0
 19 21  1  0  0  0  0
 22 23  2  0  0  0  0
 22 24  1  0  0  0  0
 24 25  1  0  0  0  0
 24 26  1  0  0  0  0
 26 27  1  0  0  0  0
 26 28  1  0  0  0  0
 26 29  1  0  0  0  0
M  END
$$$$

  -OEChem-04042215583D

 29 28  0     1  0  0  0  0  0999 V2000
   -3.4255   -3.8424    1.6646 H   0  0  0  0  0  0  0  0  0  0  0  0
   -3.4159   -2.8502    1.2050 C   0  0  0  0  0  0  0  0  0  0  0  0
   -4.1040   -2.1997    1.7498 H   0  0  0  0  0  0  0  0  0  0  0  0
   -3.7536   -2.9405    0.1705 H   0  0  0  0  0  0  0  0  0  0  0  0
   -2.0142   -2.2711    1.2503 C   0  0  0  0  0  0  0  0  0  0  0  0
   -1.1879   -2.7508    2.0086 O   0  0  0  0  0  0  0  0  0  0  0  0
   -1.7204   -1.1234    0.5375 N   0  0  0  0  0  0  0  0  0  0  0  0
   -2.4863   -0.6632    0.0496 H   0  0  0  0  0  0  0  0  0  0  0  0
   -0.4070   -0.4602    0.5133 C   0  0  1  0  0  0  0  0  0  0  0  0
    0.1933   -0.8174    1.3570 H   0  0  0  0  0  0  0  0  0  0  0  0
    0.4329   -0.6367   -0.7937 C   0  0  0  0  0  0  0  0  0  0  0  0
    0.4764    0.3183   -1.3299 H   0  0  0  0  0  0  0  0  0  0  0  0
    1.4542   -0.8426   -0.4556 H   0  0  0  0  0  0  0  0  0  0  0  0
    0.1088   -1.7125   -1.8624 C   0  0  0  0  0  0  0  0  0  0  0  0
   -0.5735   -1.2543   -2.5834 H   0  0  0  0  0  0  0  0  0  0  0  0
    1.0278   -1.9546   -2.4039 H   0  0  0  0  0  0  0  0  0  0  0  0
   -0.5322   -3.0205   -1.4219 C   0  0  0  0  0  0  0  0  0  0  0  0
    0.1084   -3.8795   -0.8511 O   0  0  0  0  0  0  0  0  0  0  0  0
   -1.7853   -3.3882   -1.8265 N   0  0  0  0  0  0  0  0  0  0  0  0
   -1.9867   -4.3799   -1.7332 H   0  0  0  0  0  0  0  0  0  0  0  0
   -2.2214   -2.8538   -2.5699 H   0  0  0  0  0  0  0  0  0  0  0  0
   -0.6311    1.0570    0.6893 C   0  0  0  0  0  0  0  0  0  0  0  0
   -1.5080    1.6252    0.0465 O   0  0  0  0  0  0  0  0  0  0  0  0
    0.1592    1.7852    1.5586 N   0  0  0  0  0  0  0  0  0  0  0  0
    0.8242    1.2708    2.1301 H   0  0  0  0  0  0  0  0  0  0  0  0
   -0.0230    3.2111    1.8010 C   0  0  0  0  0  0  0  0  0  0  0  0
   -1.0257    3.4081    2.1949 H   0  0  0  0  0  0  0  0  0  0  0  0
    0.7111    3.5678    2.5300 H   0  0  0  0  0  0  0  0  0  0  0  0
    0.1093    3.7770    0.8727 H   0  0  0  0  0  0  0  0  0  0  0  0
  1  2  1  0  0  0  0
  2  3  1  0  0  0  0
  2  4  1  0  0  0  0
  2  5  1  0  0  0  0
  5  6  2  0  0  0  0
  5  7  1  0  0  0  0
  7  8  1  0  0  0  0
  7  9  1  0  0  0  0
  9 10  1  0  0  0  0
  9 11  1  0  0  0  0
  9 22  1  0  0  0  0
 11 12  1  0  0  0  0
 11 13  1  0  0  0  0
 11 14  1  0  0  0  0
 14 15  1  0  0  0  0
 14 16  1  0  0  0  0
 14 17  1  0  0  0  0
 17 18  2  0  0  0  0
 17 19  1  0  0  0  0
 19 20  1  0  0  0  0
 19 21  1  0  0  0  0
 22 23  2  0  0  0  0
 22 24  1  0  0  0  0
 24 25  1  0  0  0  0
 24 26  1  0  0  0  0
 26 27  1  0  0  0  0
 26 28  1  0  0  0  0
 26 29  1  0  0  0  0
M  END
$$$$

  -OEChem-04042215583D

 29 28  0     1  0  0  0  0  0999 V2000
   -3.4568   -3.8331    1.7512 H   0  0  0  0  0  0  0  0  0  0  0  0
   -3.4317   -2.8779    1.2196 C   0  0  0  0  0  0  0  0  0  0  0  0
   -4.1309   -2.1876    1.6972 H   0  0  0  0  0  0  0  0  0  0  0  0
   -3.7432   -3.0449    0.1867 H   0  0  0  0  0  0  0  0  0  0  0  0
   -2.0293   -2.2999    1.2563 C   0  0  0  0  0  0  0  0  0  0  0  0
   -1.1938   -2.7870    2.0009 O   0  0  0  0  0  0  0  0  0  0  0  0
   -1.7414   -1.1435    0.5540 N   0  0  0  0  0  0  0  0  0  0  0  0
   -2.5062   -0.6870    0.0609 H   0  0  0  0  0  0  0  0  0  0  0  0
   -0.4272   -0.4848    0.5360 C   0  0  1  0  0  0  0  0  0  0  0  0
    0.1663   -0.8472    1.3821 H   0  0  0  0  0  0  0  0  0  0  0  0
    0.4323   -0.6517   -0.7609 C   0  0  0  0  0  0  0  0  0  0  0  0
    0.4782    0.3117   -1.2823 H   0  0  0  0  0  0  0  0  0  0  0  0
    1.4497   -0.8487   -0.4066 H   0  0  0  0  0  0  0  0  0  0  0  0
    0.1490   -1.7126   -1.8623 C   0  0  0  0  0  0  0  0  0  0  0  0
   -0.2668   -1.1815   -2.7228 H   0  0  0  0  0  0  0  0  0  0  0  0
    1.1069   -2.1297   -2.1871 H   0  0  0  0  0  0  0  0  0  0  0  0
   -0.7839   -2.8834   -1.5857 C   0  0  0  0  0  0  0  0  0  0  0  0
   -0.3848   -3.9259   -1.1075 O   0  0  0  0  0  0  0  0  0  0  0  0
   -2.0677   -2.9095   -2.0562 N   0  0  0  0  0  0  0  0  0  0  0  0
   -2.3444   -2.1991   -2.7254 H   0  0  0  0  0  0  0  0  0  0  0  0
   -2.4840   -3.8354   -2.1024 H   0  0  0  0  0  0  0  0  0  0  0  0
   -0.6520    1.0300    0.7303 C   0  0  0  0  0  0  0  0  0  0  0  0
   -1.5255    1.6063    0.0901 O   0  0  0  0  0  0  0  0  0  0  0  0
    0.1388    1.7476    1.6079 N   0  0  0  0  0  0  0  0  0  0  0  0
    0.7931    1.2237    2.1832 H   0  0  0  0  0  0  0  0  0  0  0  0
   -0.0545    3.1671    1.8770 C   0  0  0  0  0  0  0  0  0  0  0  0
   -1.0497    3.3452    2.2976 H   0  0  0  0  0  0  0  0  0  0  0  0
    0.6928    3.5213    2.5934 H   0  0  0  0  0  0  0  0  0  0  0  0
    0.0485    3.7499    0.9556 H   0  0  0  0  0  0  0  0  0  0  0  0
  1  2  1  0  0  0  0
  2  3  1  0  0  0  0
  2  4  1  0  0  0  0
  2  5  1  0  0  0  0
  5  6  2  0  0  0  0
  5  7  1  0  0  0  0
  7  8  1  0  0  0  0
  7  9  1  0  0  0  0
  9 10  1  0  0  0  0
  9 11  1  0  0  0  0
  9 22  1  0  0  0  0
 11 12  1  0  0  0  0
 11 13  1  0  0  0  0
 11 14  1  0  0  0  0
 14 15  1  0  0  0  0
 14 16  1  0  0  0  0
 14 17  1  0  0  0  0
 17 18  2  0  0  0  0
 17 19  1  0  0  0  0
 19 20  1  0  0  0  0
 19 21  1  0  0  0  0
 22 23  2  0  0  0  0
 22 24  1  0  0  0  0
 24 25  1  0  0  0  0
 24 26  1  0  0  0  0
 26 27  1  0  0  0  0
 26 28  1  0  0  0  0
 26 29  1  0  0  0  0
M  END
$$$$

  -OEChem-04042215583D

 29 28  0     1  0  0  0  0  0999 V2000
   -3.6353   -3.7187    1.5550 H   0  0  0  0  0  0  0  0  0  0  0  0
   -3.5954   -2.7309    1.0880 C   0  0  0  0  0  0  0  0  0  0  0  0
   -4.2152   -2.0418    1.6667 H   0  0  0  0  0  0  0  0  0  0  0  0
   -3.9965   -2.8028    0.0736 H   0  0  0  0  0  0  0  0  0  0  0  0
   -2.1651   -2.2271    1.0441 C   0  0  0  0  0  0  0  0  0  0  0  0
   -1.2555   -2.9195    1.4792 O   0  0  0  0  0  0  0  0  0  0  0  0
   -1.8869   -1.0030    0.4715 N   0  0  0  0  0  0  0  0  0  0  0  0
   -2.6704   -0.4899    0.0663 H   0  0  0  0  0  0  0  0  0  0  0  0
   -0.5592   -0.3823    0.3806 C   0  0  1  0  0  0  0  0  0  0  0  0
    0.0845   -0.8652    1.1228 H   0  0  0  0  0  0  0  0  0  0  0  0
    0.1790   -0.4803   -0.9941 C   0  0  0  0  0  0  0  0  0  0  0  0
    0.1442    0.5164   -1.4496 H   0  0  0  0  0  0  0  0  0  0  0  0
    1.2333   -0.6699   -0.7674 H   0  0  0  0  0  0  0  0  0  0  0  0
   -0.2235   -1.4543   -2.1433 C   0  0  0  0  0  0  0  0  0  0  0  0
   -0.4291   -0.8507   -3.0328 H   0  0  0  0  0  0  0  0  0  0  0  0
    0.6502   -2.0672   -2.3815 H   0  0  0  0  0  0  0  0  0  0  0  0
   -1.4034   -2.4057   -1.9901 C   0  0  0  0  0  0  0  0  0  0  0  0
   -2.5375   -2.0939   -2.3063 O   0  0  0  0  0  0  0  0  0  0  0  0
   -1.2331   -3.6930   -1.5662 N   0  0  0  0  0  0  0  0  0  0  0  0
   -0.4201   -3.8820   -0.9867 H   0  0  0  0  0  0  0  0  0  0  0  0
   -2.0938   -4.1948   -1.3731 H   0  0  0  0  0  0  0  0  0  0  0  0
   -0.6583    1.1061    0.7805 C   0  0  0  0  0  0  0  0  0  0  0  0
   -1.5634    1.8045    0.3413 O   0  0  0  0  0  0  0  0  0  0  0  0
    0.2771    1.6643    1.6326 N   0  0  0  0  0  0  0  0  0  0  0  0
    0.9694    1.0444    2.0428 H   0  0  0  0  0  0  0  0  0  0  0  0
    0.2168    3.0487    2.0854 C   0  0  0  0  0  0  0  0  0  0  0  0
   -0.7091    3.2297    2.6415 H   0  0  0  0  0  0  0  0  0  0  0  0
    1.0639    3.2693    2.7421 H   0  0  0  0  0  0  0  0  0  0  0  0
    0.2551    3.7333    1.2316 H   0  0  0  0  0  0  0  0  0  0  0  0
  1  2  1  0  0  0  0
  2  3  1  0  0  0  0
  2  4  1  0  0  0  0
  2  5  1  0  0  0  0
  5  6  2  0  0  0  0
  5  7  1  0  0  0  0
  7  8  1  0  0  0  0
  7  9  1  0  0  0  0
  9 10  1  0  0  0  0
  9 11  1  0  0  0  0
  9 22  1  0  0  0  0
 11 12  1  0  0  0  0
 11 13  1  0  0  0  0
 11 14  1  0  0  0  0
 14 15  1  0  0  0  0
 14 16  1  0  0  0  0
 14 17  1  0  0  0  0
 17 18  2  0  0  0  0
 17 19  1  0  0  0  0
 19 20  1  0  0  0  0
 19 21  1  0  0  0  0
 22 23  2  0  0  0  0
 22 24  1  0  0  0  0
 24 25  1  0  0  0  0
 24 26  1  0  0  0  0
 26 27  1  0  0  0  0
 26 28  1  0  0  0  0
 26 29  1  0  0  0  0
M  END
$$$$

  -OEChem-04042215583D

 29 28  0     1  0  0  0  0  0999 V2000
   -3.4370   -3.6360    1.9056 H   0  0  0  0  0  0  0  0  0  0  0  0
   -3.4444   -2.6279    1.4827 C   0  0  0  0  0  0  0  0  0  0  0  0
   -3.9139   -1.9480    2.1978 H   0  0  0  0  0  0  0  0  0  0  0  0
   -4.0315   -2.6344    0.5607 H   0  0  0  0  0  0  0  0  0  0  0  0
   -2.0280   -2.1706    1.1903 C   0  0  0  0  0  0  0  0  0  0  0  0
   -1.0799   -2.8974    1.4503 O   0  0  0  0  0  0  0  0  0  0  0  0
   -1.8194   -0.9588    0.5671 N   0  0  0  0  0  0  0  0  0  0  0  0
   -2.6462   -0.4261    0.2930 H   0  0  0  0  0  0  0  0  0  0  0  0
   -0.5139   -0.3563    0.2760 C   0  0  1  0  0  0  0  0  0  0  0  0
    0.2148   -0.8352    0.9380 H   0  0  0  0  0  0  0  0  0  0  0  0
    0.0353   -0.5234   -1.1759 C   0  0  0  0  0  0  0  0  0  0  0  0
   -0.1002    0.4491   -1.6636 H   0  0  0  0  0  0  0  0  0  0  0  0
    1.1166   -0.6792   -1.1036 H   0  0  0  0  0  0  0  0  0  0  0  0
   -0.5251   -1.5470   -2.2086 C   0  0  0  0  0  0  0  0  0  0  0  0
   -0.5681   -1.0574   -3.1859 H   0  0  0  0  0  0  0  0  0  0  0  0
    0.2125   -2.3495   -2.2950 H   0  0  0  0  0  0  0  0  0  0  0  0
   -1.8723   -2.2263   -1.9895 C   0  0  0  0  0  0  0  0  0  0  0  0
   -2.9309   -1.6516   -2.1660 O   0  0  0  0  0  0  0  0  0  0  0  0
   -1.9613   -3.5425   -1.6338 N   0  0  0  0  0  0  0  0  0  0  0  0
   -2.8930   -3.8635   -1.3916 H   0  0  0  0  0  0  0  0  0  0  0  0
   -1.1570   -3.9561   -1.1701 H   0  0  0  0  0  0  0  0  0  0  0  0
   -0.5229    1.1397    0.6583 C   0  0  0  0  0  0  0  0  0  0  0  0
   -1.4766    1.8477    0.3608 O   0  0  0  0  0  0  0  0  0  0  0  0
    0.5391    1.6900    1.3528 N   0  0  0  0  0  0  0  0  0  0  0  0
    1.2824    1.0649    1.6508 H   0  0  0  0  0  0  0  0  0  0  0  0
    0.5759    3.0829    1.7822 C   0  0  0  0  0  0  0  0  0  0  0  0
   -0.2518    3.2962    2.4669 H   0  0  0  0  0  0  0  0  0  0  0  0
    1.5164    3.2947    2.2998 H   0  0  0  0  0  0  0  0  0  0  0  0
    0.4997    3.7519    0.9186 H   0  0  0  0  0  0  0  0  0  0  0  0
  1  2  1  0  0  0  0
  2  3  1  0  0  0  0
  2  4  1  0  0  0  0
  2  5  1  0  0  0  0
  5  6  2  0  0  0  0
  5  7  1  0  0  0  0
  7  8  1  0  0  0  0
  7  9  1  0  0  0  0
  9 10  1  0  0  0  0
  9 11  1  0  0  0  0
  9 22  1  0  0  0  0
 11 12  1  0  0  0  0
 11 13  1  0  0  0  0
 11 14  1  0  0  0  0
 14 15  1  0  0  0  0
 14 16  1  0  0  0  0
 14 17  1  0  0  0  0
 17 18  2  0  0  0  0
 17 19  1  0  0  0  0
 19 20  1  0  0  0  0
 19 21  1  0  0  0  0
 22 23  2  0  0  0  0
 22 24  1  0  0  0  0
 24 25  1  0  0  0  0
 24 26  1  0  0  0  0
 26 27  1  0  0  0  0
 26 28  1  0  0  0  0
 26 29  1  0  0  0  0
M  END
$$$$

  -OEChem-04042215583D

 29 28  0     1  0  0  0  0  0999 V2000
   -3.3291   -3.8032    1.6522 H   0  0  0  0  0  0  0  0  0  0  0  0
   -3.3707   -2.7718    1.2918 C   0  0  0  0  0  0  0  0  0  0  0  0
   -3.9319   -2.1678    2.0088 H   0  0  0  0  0  0  0  0  0  0  0  0
   -3.8893   -2.7539    0.3301 H   0  0  0  0  0  0  0  0  0  0  0  0
   -1.9690   -2.2137    1.1354 C   0  0  0  0  0  0  0  0  0  0  0  0
   -1.0050   -2.8617    1.5154 O   0  0  0  0  0  0  0  0  0  0  0  0
   -1.7893   -0.9797    0.5467 N   0  0  0  0  0  0  0  0  0  0  0  0
   -2.6150   -0.5264    0.1508 H   0  0  0  0  0  0  0  0  0  0  0  0
   -0.5005   -0.3141    0.3310 C   0  0  1  0  0  0  0  0  0  0  0  0
    0.2189   -0.7752    1.0149 H   0  0  0  0  0  0  0  0  0  0  0  0
    0.1098   -0.4443   -1.0990 C   0  0  0  0  0  0  0  0  0  0  0  0
   -0.0539    0.5231   -1.5883 H   0  0  0  0  0  0  0  0  0  0  0  0
    1.1935   -0.5593   -0.9955 H   0  0  0  0  0  0  0  0  0  0  0  0
   -0.3909   -1.4898   -2.1375 C   0  0  0  0  0  0  0  0  0  0  0  0
   -0.1700   -1.1167   -3.1415 H   0  0  0  0  0  0  0  0  0  0  0  0
    0.2127   -2.3896   -1.9914 H   0  0  0  0  0  0  0  0  0  0  0  0
   -1.8489   -1.9416   -2.1229 C   0  0  0  0  0  0  0  0  0  0  0  0
   -2.7785   -1.1618   -2.2198 O   0  0  0  0  0  0  0  0  0  0  0  0
   -2.1953   -3.2609   -2.0401 N   0  0  0  0  0  0  0  0  0  0  0  0
   -3.1622   -3.4879   -2.2516 H   0  0  0  0  0  0  0  0  0  0  0  0
   -1.4717   -3.9683   -2.1151 H   0  0  0  0  0  0  0  0  0  0  0  0
   -0.5820    1.1730    0.7380 C   0  0  0  0  0  0  0  0  0  0  0  0
   -1.5402    1.8583    0.4042 O   0  0  0  0  0  0  0  0  0  0  0  0
    0.4283    1.7444    1.4904 N   0  0  0  0  0  0  0  0  0  0  0  0
    1.1667    1.1324    1.8252 H   0  0  0  0  0  0  0  0  0  0  0  0
    0.3831    3.1202    1.9711 C   0  0  0  0  0  0  0  0  0  0  0  0
   -0.4761    3.2659    2.6344 H   0  0  0  0  0  0  0  0  0  0  0  0
    1.2951    3.3568    2.5274 H   0  0  0  0  0  0  0  0  0  0  0  0
    0.3016    3.8177    1.1308 H   0  0  0  0  0  0  0  0  0  0  0  0
  1  2  1  0  0  0  0
  2  3  1  0  0  0  0
  2  4  1  0  0  0  0
  2  5  1  0  0  0  0
  5  6  2  0  0  0  0
  5  7  1  0  0  0  0
  7  8  1  0  0  0  0
  7  9  1  0  0  0  0
  9 10  1  0  0  0  0
  9 11  1  0  0  0  0
  9 22  1  0  0  0  0
 11 12  1  0  0  0  0
 11 13  1  0  0  0  0
 11 14  1  0  0  0  0
 14 15  1  0  0  0  0
 14 16  1  0  0  0  0
 14 17  1  0  0  0  0
 17 18  2  0  0  0  0
 17 19  1  0  0  0  0
 19 20  1  0  0  0  0
 19 21  1  0  0  0  0
 22 23  2  0  0  0  0
 22 24  1  0  0  0  0
 24 25  1  0  0  0  0
 24 26  1  0  0  0  0
 26 27  1  0  0  0  0
 26 28  1  0  0  0  0
 26 29  1  0  0  0  0
M  END
$$$$

  -OEChem-04042215583D

 29 28  0     1  0  0  0  0  0999 V2000
   -3.4304   -3.7768    1.5029 H   0  0  0  0  0  0  0  0  0  0  0  0
   -3.4320   -2.7773    1.0594 C   0  0  0  0  0  0  0  0  0  0  0  0
   -4.0698   -2.1249    1.6608 H   0  0  0  0  0  0  0  0  0  0  0  0
   -3.8407   -2.8398    0.0481 H   0  0  0  0  0  0  0  0  0  0  0  0
   -2.0213   -2.2211    1.0153 C   0  0  0  0  0  0  0  0  0  0  0  0
   -1.0894   -2.8784    1.4540 O   0  0  0  0  0  0  0  0  0  0  0  0
   -1.7927   -0.9847    0.4503 N   0  0  0  0  0  0  0  0  0  0  0  0
   -2.5874   -0.5098    0.0174 H   0  0  0  0  0  0  0  0  0  0  0  0
   -0.4929   -0.3104    0.3555 C   0  0  1  0  0  0  0  0  0  0  0  0
    0.1614   -0.7700    1.1030 H   0  0  0  0  0  0  0  0  0  0  0  0
    0.2361   -0.4620   -1.0123 C   0  0  0  0  0  0  0  0  0  0  0  0
    0.1282    0.4939   -1.5381 H   0  0  0  0  0  0  0  0  0  0  0  0
    1.3049   -0.5957   -0.8172 H   0  0  0  0  0  0  0  0  0  0  0  0
   -0.2139   -1.5427   -2.0322 C   0  0  0  0  0  0  0  0  0  0  0  0
    0.2819   -1.3505   -2.9875 H   0  0  0  0  0  0  0  0  0  0  0  0
    0.1522   -2.5043   -1.6620 H   0  0  0  0  0  0  0  0  0  0  0  0
   -1.7075   -1.7081   -2.3065 C   0  0  0  0  0  0  0  0  0  0  0  0
   -2.4672   -0.7662   -2.4308 O   0  0  0  0  0  0  0  0  0  0  0  0
   -2.2777   -2.9416   -2.4475 N   0  0  0  0  0  0  0  0  0  0  0  0
   -3.2149   -2.9539   -2.8390 H   0  0  0  0  0  0  0  0  0  0  0  0
   -1.6725   -3.7503   -2.5446 H   0  0  0  0  0  0  0  0  0  0  0  0
   -0.6052    1.1765    0.7542 C   0  0  0  0  0  0  0  0  0  0  0  0
   -1.5401    1.8599    0.3574 O   0  0  0  0  0  0  0  0  0  0  0  0
    0.3364    1.7436    1.5941 N   0  0  0  0  0  0  0  0  0  0  0  0
    1.0479    1.1314    1.9822 H   0  0  0  0  0  0  0  0  0  0  0  0
    0.2485    3.1162    2.0780 C   0  0  0  0  0  0  0  0  0  0  0  0
   -0.6573    3.2530    2.6780 H   0  0  0  0  0  0  0  0  0  0  0  0
    1.1160    3.3546    2.7007 H   0  0  0  0  0  0  0  0  0  0  0  0
    0.2240    3.8185    1.2379 H   0  0  0  0  0  0  0  0  0  0  0  0
  1  2  1  0  0  0  0
  2  3  1  0  0  0  0
  2  4  1  0  0  0  0
  2  5  1  0  0  0  0
  5  6  2  0  0  0  0
  5  7  1  0  0  0  0
  7  8  1  0  0  0  0
  7  9  1  0  0  0  0
  9 10  1  0  0  0  0
  9 11  1  0  0  0  0
  9 22  1  0  0  0  0
 11 12  1  0  0  0  0
 11 13  1  0  0  0  0
 11 14  1  0  0  0  0
 14 15  1  0  0  0  0
 14 16  1  0  0  0  0
 14 17  1  0  0  0  0
 17 18  2  0  0  0  0
 17 19  1  0  0  0  0
 19 20  1  0  0  0  0
 19 21  1  0  0  0  0
 22 23  2  0  0  0  0
 22 24  1  0  0  0  0
 24 25  1  0  0  0  0
 24 26  1  0  0  0  0
 26 27  1  0  0  0  0
 26 28  1  0  0  0  0
 26 29  1  0  0  0  0
M  END
$$$$

  -OEChem-04042215583D

 29 28  0     1  0  0  0  0  0999 V2000
   -3.4094   -3.7849    1.4693 H   0  0  0  0  0  0  0  0  0  0  0  0
   -3.3966   -2.8069    0.9804 C   0  0  0  0  0  0  0  0  0  0  0  0
   -4.0853   -2.1407    1.5055 H   0  0  0  0  0  0  0  0  0  0  0  0
   -3.7319   -2.9227   -0.0530 H   0  0  0  0  0  0  0  0  0  0  0  0
   -1.9962   -2.2253    1.0059 C   0  0  0  0  0  0  0  0  0  0  0  0
   -1.0760   -2.8618    1.4964 O   0  0  0  0  0  0  0  0  0  0  0  0
   -1.7608   -0.9965    0.4289 N   0  0  0  0  0  0  0  0  0  0  0  0
   -2.5447   -0.5333   -0.0355 H   0  0  0  0  0  0  0  0  0  0  0  0
   -0.4658   -0.3078    0.3637 C   0  0  1  0  0  0  0  0  0  0  0  0
    0.1746   -0.7493    1.1339 H   0  0  0  0  0  0  0  0  0  0  0  0
    0.2784   -0.4919   -0.9885 C   0  0  0  0  0  0  0  0  0  0  0  0
    0.1997    0.4466   -1.5499 H   0  0  0  0  0  0  0  0  0  0  0  0
    1.3406   -0.6479   -0.7752 H   0  0  0  0  0  0  0  0  0  0  0  0
   -0.2030   -1.6175   -1.9390 C   0  0  0  0  0  0  0  0  0  0  0  0
    0.4458   -1.6298   -2.8186 H   0  0  0  0  0  0  0  0  0  0  0  0
   -0.0755   -2.5734   -1.4228 H   0  0  0  0  0  0  0  0  0  0  0  0
   -1.6479   -1.5366   -2.4325 C   0  0  0  0  0  0  0  0  0  0  0  0
   -2.2950   -0.5074   -2.4600 O   0  0  0  0  0  0  0  0  0  0  0  0
   -2.3064   -2.6470   -2.8775 N   0  0  0  0  0  0  0  0  0  0  0  0
   -3.1774   -2.4727   -3.3709 H   0  0  0  0  0  0  0  0  0  0  0  0
   -1.7690   -3.4848   -3.0739 H   0  0  0  0  0  0  0  0  0  0  0  0
   -0.5955    1.1856    0.7318 C   0  0  0  0  0  0  0  0  0  0  0  0
   -1.5297    1.8550    0.3112 O   0  0  0  0  0  0  0  0  0  0  0  0
    0.3193    1.7712    1.5888 N   0  0  0  0  0  0  0  0  0  0  0  0
    1.0299    1.1715    1.9977 H   0  0  0  0  0  0  0  0  0  0  0  0
    0.2095    3.1501    2.0501 C   0  0  0  0  0  0  0  0  0  0  0  0
   -0.7096    3.2880    2.6290 H   0  0  0  0  0  0  0  0  0  0  0  0
    1.0622    3.4051    2.6866 H   0  0  0  0  0  0  0  0  0  0  0  0
    0.1963    3.8396    1.1993 H   0  0  0  0  0  0  0  0  0  0  0  0
  1  2  1  0  0  0  0
  2  3  1  0  0  0  0
  2  4  1  0  0  0  0
  2  5  1  0  0  0  0
  5  6  2  0  0  0  0
  5  7  1  0  0  0  0
  7  8  1  0  0  0  0
  7  9  1  0  0  0  0
  9 10  1  0  0  0  0
  9 11  1  0  0  0  0
  9 22  1  0  0  0  0
 11 12  1  0  0  0  0
 11 13  1  0  0  0  0
 11 14  1  0  0  0  0
 14 15  1  0  0  0  0
 14 16  1  0  0  0  0
 14 17  1  0  0  0  0
 17 18  2  0  0  0  0
 17 19  1  0  0  0  0
 19 20  1  0  0  0  0
 19 21  1  0  0  0  0
 22 23  2  0  0  0  0
 22 24  1  0  0  0  0
 24 25  1  0  0  0  0
 24 26  1  0  0  0  0
 26 27  1  0  0  0  0
 26 28  1  0  0  0  0
 26 29  1  0  0  0  0
M  END
$$$$

  -OEChem-04042215583D

 29 28  0     1  0  0  0  0  0999 V2000
   -3.3845   -3.8294    1.5531 H   0  0  0  0  0  0  0  0  0  0  0  0
   -3.3814   -2.8591    1.0492 C   0  0  0  0  0  0  0  0  0  0  0  0
   -4.1286   -2.2146    1.5184 H   0  0  0  0  0  0  0  0  0  0  0  0
   -3.6467   -3.0047   -0.0010 H   0  0  0  0  0  0  0  0  0  0  0  0
   -2.0108   -2.2182    1.1514 C   0  0  0  0  0  0  0  0  0  0  0  0
   -1.1104   -2.7876    1.7497 O   0  0  0  0  0  0  0  0  0  0  0  0
   -1.7762   -1.0165    0.5200 N   0  0  0  0  0  0  0  0  0  0  0  0
   -2.5227   -0.6502   -0.0774 H   0  0  0  0  0  0  0  0  0  0  0  0
   -0.4824   -0.3291    0.4273 C   0  0  1  0  0  0  0  0  0  0  0  0
    0.1687   -0.7416    1.2045 H   0  0  0  0  0  0  0  0  0  0  0  0
    0.2264   -0.5695   -0.9341 C   0  0  0  0  0  0  0  0  0  0  0  0
    0.1624    0.3465   -1.5330 H   0  0  0  0  0  0  0  0  0  0  0  0
    1.2875   -0.7433   -0.7294 H   0  0  0  0  0  0  0  0  0  0  0  0
   -0.2993   -1.7310   -1.8149 C   0  0  0  0  0  0  0  0  0  0  0  0
    0.4568   -1.9309   -2.5784 H   0  0  0  0  0  0  0  0  0  0  0  0
   -0.3909   -2.6365   -1.2088 H   0  0  0  0  0  0  0  0  0  0  0  0
   -1.6232   -1.4912   -2.5462 C   0  0  0  0  0  0  0  0  0  0  0  0
   -2.4583   -0.6734   -2.2086 O   0  0  0  0  0  0  0  0  0  0  0  0
   -1.9631   -2.2357   -3.6390 N   0  0  0  0  0  0  0  0  0  0  0  0
   -2.7699   -1.9097   -4.1638 H   0  0  0  0  0  0  0  0  0  0  0  0
   -1.2522   -2.8004   -4.0913 H   0  0  0  0  0  0  0  0  0  0  0  0
   -0.5995    1.1808    0.7253 C   0  0  0  0  0  0  0  0  0  0  0  0
   -1.4881    1.8555    0.2226 O   0  0  0  0  0  0  0  0  0  0  0  0
    0.3216    1.7942    1.5557 N   0  0  0  0  0  0  0  0  0  0  0  0
    0.9985    1.1993    2.0242 H   0  0  0  0  0  0  0  0  0  0  0  0
    0.2499    3.2033    1.9227 C   0  0  0  0  0  0  0  0  0  0  0  0
   -0.6869    3.4152    2.4490 H   0  0  0  0  0  0  0  0  0  0  0  0
    1.0840    3.4652    2.5806 H   0  0  0  0  0  0  0  0  0  0  0  0
    0.3034    3.8353    1.0299 H   0  0  0  0  0  0  0  0  0  0  0  0
  1  2  1  0  0  0  0
  2  3  1  0  0  0  0
  2  4  1  0  0  0  0
  2  5  1  0  0  0  0
  5  6  2  0  0  0  0
  5  7  1  0  0  0  0
  7  8  1  0  0  0  0
  7  9  1  0  0  0  0
  9 10  1  0  0  0  0
  9 11  1  0  0  0  0
  9 22  1  0  0  0  0
 11 12  1  0  0  0  0
 11 13  1  0  0  0  0
 11 14  1  0  0  0  0
 14 15  1  0  0  0  0
 14 16  1  0  0  0  0
 14 17  1  0  0  0  0
 17 18  2  0  0  0  0
 17 19  1  0  0  0  0
 19 20  1  0  0  0  0
 19 21  1  0  0  0  0
 22 23  2  0  0  0  0
 22 24  1  0  0  0  0
 24 25  1  0  0  0  0
 24 26  1  0  0  0  0
 26 27  1  0  0  0  0
 26 28  1  0  0  0  0
 26 29  1  0  0  0  0
M  END
$$$$

  -OEChem-04042215583D

 29 28  0     1  0  0  0  0  0999 V2000
   -3.4486   -3.8343    1.7771 H   0  0  0  0  0  0  0  0  0  0  0  0
   -3.4370   -2.9027    1.2049 C   0  0  0  0  0  0  0  0  0  0  0  0
   -4.2075   -2.2351    1.5976 H   0  0  0  0  0  0  0  0  0  0  0  0
   -3.6611   -3.1278    0.1588 H   0  0  0  0  0  0  0  0  0  0  0  0
   -2.0771   -2.2398    1.3090 C   0  0  0  0  0  0  0  0  0  0  0  0
   -1.2122   -2.7193    2.0269 O   0  0  0  0  0  0  0  0  0  0  0  0
   -1.8105   -1.1163    0.5557 N   0  0  0  0  0  0  0  0  0  0  0  0
   -2.5326   -0.8375   -0.1120 H   0  0  0  0  0  0  0  0  0  0  0  0
   -0.4923   -0.4739    0.4234 C   0  0  1  0  0  0  0  0  0  0  0  0
    0.1556   -0.8272    1.2320 H   0  0  0  0  0  0  0  0  0  0  0  0
    0.1928   -0.8271   -0.9267 C   0  0  0  0  0  0  0  0  0  0  0  0
    0.1923    0.0481   -1.5870 H   0  0  0  0  0  0  0  0  0  0  0  0
    1.2412   -1.0547   -0.7080 H   0  0  0  0  0  0  0  0  0  0  0  0
   -0.4097   -2.0257   -1.6959 C   0  0  0  0  0  0  0  0  0  0  0  0
    0.3792   -2.4767   -2.3036 H   0  0  0  0  0  0  0  0  0  0  0  0
   -0.7634   -2.8118   -1.0243 H   0  0  0  0  0  0  0  0  0  0  0  0
   -1.5165   -1.5865   -2.6460 C   0  0  0  0  0  0  0  0  0  0  0  0
   -2.6852   -1.6271   -2.3057 O   0  0  0  0  0  0  0  0  0  0  0  0
   -1.2602   -1.0918   -3.8928 N   0  0  0  0  0  0  0  0  0  0  0  0
   -2.0430   -0.6378   -4.3553 H   0  0  0  0  0  0  0  0  0  0  0  0
   -0.3099   -0.8283   -4.1284 H   0  0  0  0  0  0  0  0  0  0  0  0
   -0.5977    1.0590    0.5623 C   0  0  0  0  0  0  0  0  0  0  0  0
   -1.4204    1.6840   -0.0955 O   0  0  0  0  0  0  0  0  0  0  0  0
    0.3063    1.7500    1.3484 N   0  0  0  0  0  0  0  0  0  0  0  0
    0.9209    1.2009    1.9428 H   0  0  0  0  0  0  0  0  0  0  0  0
    0.2527    3.1945    1.5400 C   0  0  0  0  0  0  0  0  0  0  0  0
   -0.6897    3.4828    2.0177 H   0  0  0  0  0  0  0  0  0  0  0  0
    1.0795    3.5221    2.1776 H   0  0  0  0  0  0  0  0  0  0  0  0
    0.3335    3.7128    0.5785 H   0  0  0  0  0  0  0  0  0  0  0  0
  1  2  1  0  0  0  0
  2  3  1  0  0  0  0
  2  4  1  0  0  0  0
  2  5  1  0  0  0  0
  5  6  2  0  0  0  0
  5  7  1  0  0  0  0
  7  8  1  0  0  0  0
  7  9  1  0  0  0  0
  9 10  1  0  0  0  0
  9 11  1  0  0  0  0
  9 22  1  0  0  0  0
 11 12  1  0  0  0  0
 11 13  1  0  0  0  0
 11 14  1  0  0  0  0
 14 15  1  0  0  0  0
 14 16  1  0  0  0  0
 14 17  1  0  0  0  0
 17 18  2  0  0  0  0
 17 19  1  0  0  0  0
 19 20  1  0  0  0  0
 19 21  1  0  0  0  0
 22 23  2  0  0  0  0
 22 24  1  0  0  0  0
 24 25  1  0  0  0  0
 24 26  1  0  0  0  0
 26 27  1  0  0  0  0
 26 28  1  0  0  0  0
 26 29  1  0  0  0  0
M  END
$$$$

  -OEChem-04042215583D

 29 28  0     1  0  0  0  0  0999 V2000
   -3.3551   -3.8706    1.5023 H   0  0  0  0  0  0  0  0  0  0  0  0
   -3.3512   -2.8902    1.0176 C   0  0  0  0  0  0  0  0  0  0  0  0
   -3.9622   -2.2032    1.6084 H   0  0  0  0  0  0  0  0  0  0  0  0
   -3.7865   -2.9885    0.0205 H   0  0  0  0  0  0  0  0  0  0  0  0
   -1.9324   -2.3627    0.9163 C   0  0  0  0  0  0  0  0  0  0  0  0
   -1.0066   -3.0066    1.3828 O   0  0  0  0  0  0  0  0  0  0  0  0
   -1.6927   -1.1588    0.2856 N   0  0  0  0  0  0  0  0  0  0  0  0
   -2.5066   -0.6119    0.0048 H   0  0  0  0  0  0  0  0  0  0  0  0
   -0.4058   -0.4417    0.3057 C   0  0  1  0  0  0  0  0  0  0  0  0
    0.1806   -0.8234    1.1481 H   0  0  0  0  0  0  0  0  0  0  0  0
    0.4569   -0.6232   -0.9725 C   0  0  0  0  0  0  0  0  0  0  0  0
    0.4628    0.3134   -1.5437 H   0  0  0  0  0  0  0  0  0  0  0  0
    1.4889   -0.7900   -0.6475 H   0  0  0  0  0  0  0  0  0  0  0  0
    0.0679   -1.7781   -1.9266 C   0  0  0  0  0  0  0  0  0  0  0  0
    0.9862   -2.2710   -2.2582 H   0  0  0  0  0  0  0  0  0  0  0  0
   -0.5273   -2.5484   -1.4353 H   0  0  0  0  0  0  0  0  0  0  0  0
   -0.6353   -1.2704   -3.1782 C   0  0  0  0  0  0  0  0  0  0  0  0
   -0.0407   -0.6553   -4.0428 O   0  0  0  0  0  0  0  0  0  0  0  0
   -1.9703   -1.4681   -3.3867 N   0  0  0  0  0  0  0  0  0  0  0  0
   -2.3204   -1.2256   -4.3090 H   0  0  0  0  0  0  0  0  0  0  0  0
   -2.4665   -2.1326   -2.8046 H   0  0  0  0  0  0  0  0  0  0  0  0
   -0.6454    1.0572    0.5795 C   0  0  0  0  0  0  0  0  0  0  0  0
   -1.6053    1.6210    0.0674 O   0  0  0  0  0  0  0  0  0  0  0  0
    0.1406    1.7414    1.4882 N   0  0  0  0  0  0  0  0  0  0  0  0
    0.8959    1.2322    1.9385 H   0  0  0  0  0  0  0  0  0  0  0  0
   -0.0792    3.1380    1.8446 C   0  0  0  0  0  0  0  0  0  0  0  0
   -1.0768    3.2720    2.2763 H   0  0  0  0  0  0  0  0  0  0  0  0
    0.6621    3.4614    2.5818 H   0  0  0  0  0  0  0  0  0  0  0  0
    0.0109    3.7779    0.9603 H   0  0  0  0  0  0  0  0  0  0  0  0
  1  2  1  0  0  0  0
  2  3  1  0  0  0  0
  2  4  1  0  0  0  0
  2  5  1  0  0  0  0
  5  6  2  0  0  0  0
  5  7  1  0  0  0  0
  7  8  1  0  0  0  0
  7  9  1  0  0  0  0
  9 10  1  0  0  0  0
  9 11  1  0  0  0  0
  9 22  1  0  0  0  0
 11 12  1  0  0  0  0
 11 13  1  0  0  0  0
 11 14  1  0  0  0  0
 14 15  1  0  0  0  0
 14 16  1  0  0  0  0
 14 17  1  0  0  0  0
 17 18  2  0  0  0  0
 17 19  1  0  0  0  0
 19 20  1  0  0  0  0
 19 21  1  0  0  0  0
 22 23  2  0  0  0  0
 22 24  1  0  0  0  0
 24 25  1  0  0  0  0
 24 26  1  0  0  0  0
 26 27  1  0  0  0  0
 26 28  1  0  0  0  0
 26 29  1  0  0  0  0
M  END
$$$$

  -OEChem-04042215583D

 29 28  0     1  0  0  0  0  0999 V2000
   -3.2816   -3.9816    1.7227 H   0  0  0  0  0  0  0  0  0  0  0  0
   -3.2993   -3.0440    1.1600 C   0  0  0  0  0  0  0  0  0  0  0  0
   -3.9714   -2.3441    1.6624 H   0  0  0  0  0  0  0  0  0  0  0  0
   -3.6774   -3.2444    0.1545 H   0  0  0  0  0  0  0  0  0  0  0  0
   -1.9036   -2.4554    1.0810 C   0  0  0  0  0  0  0  0  0  0  0  0
   -0.9772   -2.9970    1.6621 O   0  0  0  0  0  0  0  0  0  0  0  0
   -1.6867   -1.3017    0.3545 N   0  0  0  0  0  0  0  0  0  0  0  0
   -2.5084   -0.8257   -0.0150 H   0  0  0  0  0  0  0  0  0  0  0  0
   -0.4130   -0.5629    0.3223 C   0  0  1  0  0  0  0  0  0  0  0  0
    0.1976   -0.8679    1.1788 H   0  0  0  0  0  0  0  0  0  0  0  0
    0.4262   -0.7853   -0.9681 C   0  0  0  0  0  0  0  0  0  0  0  0
    0.4155    0.1321   -1.5684 H   0  0  0  0  0  0  0  0  0  0  0  0
    1.4681   -0.9243   -0.6603 H   0  0  0  0  0  0  0  0  0  0  0  0
    0.0422   -1.9828   -1.8769 C   0  0  0  0  0  0  0  0  0  0  0  0
    0.9097   -2.6435   -1.9666 H   0  0  0  0  0  0  0  0  0  0  0  0
   -0.7669   -2.5932   -1.4778 H   0  0  0  0  0  0  0  0  0  0  0  0
   -0.3463   -1.5139   -3.2734 C   0  0  0  0  0  0  0  0  0  0  0  0
    0.2322   -1.9020   -4.2695 O   0  0  0  0  0  0  0  0  0  0  0  0
   -1.3752   -0.6361   -3.4719 N   0  0  0  0  0  0  0  0  0  0  0  0
   -1.4450   -0.2475   -4.4078 H   0  0  0  0  0  0  0  0  0  0  0  0
   -1.7145   -0.1020   -2.6761 H   0  0  0  0  0  0  0  0  0  0  0  0
   -0.7073    0.9419    0.4750 C   0  0  0  0  0  0  0  0  0  0  0  0
   -1.6100    1.4409   -0.1891 O   0  0  0  0  0  0  0  0  0  0  0  0
    0.0389    1.7309    1.3293 N   0  0  0  0  0  0  0  0  0  0  0  0
    0.7425    1.2722    1.9019 H   0  0  0  0  0  0  0  0  0  0  0  0
   -0.2223    3.1502    1.5371 C   0  0  0  0  0  0  0  0  0  0  0  0
   -1.2315    3.3002    1.9349 H   0  0  0  0  0  0  0  0  0  0  0  0
    0.4960    3.5665    2.2501 H   0  0  0  0  0  0  0  0  0  0  0  0
   -0.1300    3.6994    0.5942 H   0  0  0  0  0  0  0  0  0  0  0  0
  1  2  1  0  0  0  0
  2  3  1  0  0  0  0
  2  4  1  0  0  0  0
  2  5  1  0  0  0  0
  5  6  2  0  0  0  0
  5  7  1  0  0  0  0
  7  8  1  0  0  0  0
  7  9  1  0  0  0  0
  9 10  1  0  0  0  0
  9 11  1  0  0  0  0
  9 22  1  0  0  0  0
 11 12  1  0  0  0  0
 11 13  1  0  0  0  0
 11 14  1  0  0  0  0
 14 15  1  0  0  0  0
 14 16  1  0  0  0  0
 14 17  1  0  0  0  0
 17 18  2  0  0  0  0
 17 19  1  0  0  0  0
 19 20  1  0  0  0  0
 19 21  1  0  0  0  0
 22 23  2  0  0  0  0
 22 24  1  0  0  0  0
 24 25  1  0  0  0  0
 24 26  1  0  0  0  0
 26 27  1  0  0  0  0
 26 28  1  0  0  0  0
 26 29  1  0  0  0  0
M  END
$$$$

  -OEChem-04042215583D

 29 28  0     1  0  0  0  0  0999 V2000
   -3.4033   -3.8050    1.6646 H   0  0  0  0  0  0  0  0  0  0  0  0
   -3.4013   -2.8319    1.1652 C   0  0  0  0  0  0  0  0  0  0  0  0
   -3.9963   -2.1314    1.7563 H   0  0  0  0  0  0  0  0  0  0  0  0
   -3.8554   -2.9417    0.1774 H   0  0  0  0  0  0  0  0  0  0  0  0
   -1.9809   -2.3170    1.0290 C   0  0  0  0  0  0  0  0  0  0  0  0
   -1.0513   -2.9632    1.4852 O   0  0  0  0  0  0  0  0  0  0  0  0
   -1.7452   -1.1245    0.3760 N   0  0  0  0  0  0  0  0  0  0  0  0
   -2.5598   -0.5748    0.1048 H   0  0  0  0  0  0  0  0  0  0  0  0
   -0.4478   -0.4300    0.3404 C   0  0  1  0  0  0  0  0  0  0  0  0
    0.1531   -0.8089    1.1736 H   0  0  0  0  0  0  0  0  0  0  0  0
    0.3901   -0.6544   -0.9494 C   0  0  0  0  0  0  0  0  0  0  0  0
    0.3292    0.2714   -1.5343 H   0  0  0  0  0  0  0  0  0  0  0  0
    1.4431   -0.7737   -0.6744 H   0  0  0  0  0  0  0  0  0  0  0  0
   -0.0127   -1.8253   -1.8870 C   0  0  0  0  0  0  0  0  0  0  0  0
    0.6865   -2.6546   -1.7501 H   0  0  0  0  0  0  0  0  0  0  0  0
   -1.0070   -2.2076   -1.6591 H   0  0  0  0  0  0  0  0  0  0  0  0
   -0.0200   -1.4147   -3.3566 C   0  0  0  0  0  0  0  0  0  0  0  0
    0.8893   -0.7795   -3.8571 O   0  0  0  0  0  0  0  0  0  0  0  0
   -1.0438   -1.7504   -4.1960 N   0  0  0  0  0  0  0  0  0  0  0  0
   -0.8869   -1.5762   -5.1845 H   0  0  0  0  0  0  0  0  0  0  0  0
   -1.7225   -2.4415   -3.8965 H   0  0  0  0  0  0  0  0  0  0  0  0
   -0.6485    1.0763    0.6041 C   0  0  0  0  0  0  0  0  0  0  0  0
   -1.6115    1.6541    0.1132 O   0  0  0  0  0  0  0  0  0  0  0  0
    0.1831    1.7562    1.4744 N   0  0  0  0  0  0  0  0  0  0  0  0
    0.9439    1.2374    1.9044 H   0  0  0  0  0  0  0  0  0  0  0  0
    0.0044    3.1620    1.8167 C   0  0  0  0  0  0  0  0  0  0  0  0
   -0.9576    3.3151    2.3170 H   0  0  0  0  0  0  0  0  0  0  0  0
    0.8011    3.4917    2.4904 H   0  0  0  0  0  0  0  0  0  0  0  0
    0.0359    3.7828    0.9151 H   0  0  0  0  0  0  0  0  0  0  0  0
  1  2  1  0  0  0  0
  2  3  1  0  0  0  0
  2  4  1  0  0  0  0
  2  5  1  0  0  0  0
  5  6  2  0  0  0  0
  5  7  1  0  0  0  0
  7  8  1  0  0  0  0
  7  9  1  0  0  0  0
  9 10  1  0  0  0  0
  9 11  1  0  0  0  0
  9 22  1  0  0  0  0
 11 12  1  0  0  0  0
 11 13  1  0  0  0  0
 11 14  1  0  0  0  0
 14 15  1  0  0  0  0
 14 16  1  0  0  0  0
 14 17  1  0  0  0  0
 17 18  2  0  0  0  0
 17 19  1  0  0  0  0
 19 20  1  0  0  0  0
 19 21  1  0  0  0  0
 22 23  2  0  0  0  0
 22 24  1  0  0  0  0
 24 25  1  0  0  0  0
 24 26  1  0  0  0  0
 26 27  1  0  0  0  0
 26 28  1  0  0  0  0
 26 29  1  0  0  0  0
M  END
$$$$

  -OEChem-04042215583D

 29 28  0     1  0  0  0  0  0999 V2000
   -3.4293   -3.7464    1.6933 H   0  0  0  0  0  0  0  0  0  0  0  0
   -3.4230   -2.7826    1.1765 C   0  0  0  0  0  0  0  0  0  0  0  0
   -4.0021   -2.0651    1.7629 H   0  0  0  0  0  0  0  0  0  0  0  0
   -3.8914   -2.9046    0.1970 H   0  0  0  0  0  0  0  0  0  0  0  0
   -1.9988   -2.2866    1.0126 C   0  0  0  0  0  0  0  0  0  0  0  0
   -1.0672   -2.9567    1.4289 O   0  0  0  0  0  0  0  0  0  0  0  0
   -1.7627   -1.0837    0.3800 N   0  0  0  0  0  0  0  0  0  0  0  0
   -2.5763   -0.5197    0.1361 H   0  0  0  0  0  0  0  0  0  0  0  0
   -0.4590   -0.4018    0.3341 C   0  0  1  0  0  0  0  0  0  0  0  0
    0.1530   -0.8035    1.1485 H   0  0  0  0  0  0  0  0  0  0  0  0
    0.3471   -0.6227   -0.9747 C   0  0  0  0  0  0  0  0  0  0  0  0
    0.2687    0.3049   -1.5545 H   0  0  0  0  0  0  0  0  0  0  0  0
    1.4073   -0.7536   -0.7344 H   0  0  0  0  0  0  0  0  0  0  0  0
   -0.1098   -1.7814   -1.8987 C   0  0  0  0  0  0  0  0  0  0  0  0
    0.3686   -2.7127   -1.5840 H   0  0  0  0  0  0  0  0  0  0  0  0
   -1.1891   -1.9246   -1.8351 H   0  0  0  0  0  0  0  0  0  0  0  0
    0.1838   -1.5195   -3.3744 C   0  0  0  0  0  0  0  0  0  0  0  0
    1.0669   -0.7720   -3.7525 O   0  0  0  0  0  0  0  0  0  0  0  0
   -0.5037   -2.1656   -4.3618 N   0  0  0  0  0  0  0  0  0  0  0  0
   -0.1187   -2.0816   -5.2982 H   0  0  0  0  0  0  0  0  0  0  0  0
   -1.0846   -2.9598   -4.1163 H   0  0  0  0  0  0  0  0  0  0  0  0
   -0.6341    1.1014    0.6316 C   0  0  0  0  0  0  0  0  0  0  0  0
   -1.6020    1.7003    0.1770 O   0  0  0  0  0  0  0  0  0  0  0  0
    0.2234    1.7519    1.4992 N   0  0  0  0  0  0  0  0  0  0  0  0
    0.9864    1.2146    1.9014 H   0  0  0  0  0  0  0  0  0  0  0  0
    0.0622    3.1481    1.8865 C   0  0  0  0  0  0  0  0  0  0  0  0
   -0.8948    3.2957    2.3981 H   0  0  0  0  0  0  0  0  0  0  0  0
    0.8668    3.4478    2.5649 H   0  0  0  0  0  0  0  0  0  0  0  0
    0.0946    3.7968    1.0047 H   0  0  0  0  0  0  0  0  0  0  0  0
  1  2  1  0  0  0  0
  2  3  1  0  0  0  0
  2  4  1  0  0  0  0
  2  5  1  0  0  0  0
  5  6  2  0  0  0  0
  5  7  1  0  0  0  0
  7  8  1  0  0  0  0
  7  9  1  0  0  0  0
  9 10  1  0  0  0  0
  9 11  1  0  0  0  0
  9 22  1  0  0  0  0
 11 12  1  0  0  0  0
 11 13  1  0  0  0  0
 11 14  1  0  0  0  0
 14 15  1  0  0  0  0
 14 16  1  0  0  0  0
 14 17  1  0  0  0  0
 17 18  2  0  0  0  0
 17 19  1  0  0  0  0
 19 20  1  0  0  0  0
 19 21  1  0  0  0  0
 22 23  2  0  0  0  0
 22 24  1  0  0  0  0
 24 25  1  0  0  0  0
 24 26  1  0  0  0  0
 26 27  1  0  0  0  0
 26 28  1  0  0  0  0
 26 29  1  0  0  0  0
M  END
$$$$

  -OEChem-04042215583D

 29 28  0     1  0  0  0  0  0999 V2000
   -3.4493   -3.7216    1.6891 H   0  0  0  0  0  0  0  0  0  0  0  0
   -3.4340   -2.7769    1.1383 C   0  0  0  0  0  0  0  0  0  0  0  0
   -4.0325   -2.0425    1.6831 H   0  0  0  0  0  0  0  0  0  0  0  0
   -3.8751   -2.9364    0.1516 H   0  0  0  0  0  0  0  0  0  0  0  0
   -2.0087   -2.2788    0.9931 C   0  0  0  0  0  0  0  0  0  0  0  0
   -1.0804   -2.9563    1.4049 O   0  0  0  0  0  0  0  0  0  0  0  0
   -1.7672   -1.0695    0.3749 N   0  0  0  0  0  0  0  0  0  0  0  0
   -2.5784   -0.5020    0.1312 H   0  0  0  0  0  0  0  0  0  0  0  0
   -0.4604   -0.3926    0.3372 C   0  0  1  0  0  0  0  0  0  0  0  0
    0.1557   -0.8087    1.1412 H   0  0  0  0  0  0  0  0  0  0  0  0
    0.3236   -0.6030   -0.9842 C   0  0  0  0  0  0  0  0  0  0  0  0
    0.2578    0.3259   -1.5633 H   0  0  0  0  0  0  0  0  0  0  0  0
    1.3828   -0.7616   -0.7554 H   0  0  0  0  0  0  0  0  0  0  0  0
   -0.1788   -1.7482   -1.8944 C   0  0  0  0  0  0  0  0  0  0  0  0
    0.0756   -2.7126   -1.4462 H   0  0  0  0  0  0  0  0  0  0  0  0
   -1.2650   -1.6953   -1.9962 H   0  0  0  0  0  0  0  0  0  0  0  0
    0.3881   -1.6738   -3.3105 C   0  0  0  0  0  0  0  0  0  0  0  0
    1.2845   -0.9160   -3.6332 O   0  0  0  0  0  0  0  0  0  0  0  0
   -0.0647   -2.5005   -4.2984 N   0  0  0  0  0  0  0  0  0  0  0  0
    0.4860   -2.5145   -5.1520 H   0  0  0  0  0  0  0  0  0  0  0  0
   -0.6396   -3.2972   -4.0466 H   0  0  0  0  0  0  0  0  0  0  0  0
   -0.6231    1.1081    0.6515 C   0  0  0  0  0  0  0  0  0  0  0  0
   -1.5800    1.7223    0.1940 O   0  0  0  0  0  0  0  0  0  0  0  0
    0.2399    1.7422    1.5258 N   0  0  0  0  0  0  0  0  0  0  0  0
    0.9996    1.1945    1.9201 H   0  0  0  0  0  0  0  0  0  0  0  0
    0.1106    3.1446    1.9024 C   0  0  0  0  0  0  0  0  0  0  0  0
   -0.8543    3.3247    2.3882 H   0  0  0  0  0  0  0  0  0  0  0  0
    0.9059    3.4230    2.6005 H   0  0  0  0  0  0  0  0  0  0  0  0
    0.1857    3.7867    1.0185 H   0  0  0  0  0  0  0  0  0  0  0  0
  1  2  1  0  0  0  0
  2  3  1  0  0  0  0
  2  4  1  0  0  0  0
  2  5  1  0  0  0  0
  5  6  2  0  0  0  0
  5  7  1  0  0  0  0
  7  8  1  0  0  0  0
  7  9  1  0  0  0  0
  9 10  1  0  0  0  0
  9 11  1  0  0  0  0
  9 22  1  0  0  0  0
 11 12  1  0  0  0  0
 11 13  1  0  0  0  0
 11 14  1  0  0  0  0
 14 15  1  0  0  0  0
 14 16  1  0  0  0  0
 14 17  1  0  0  0  0
 17 18  2  0  0  0  0
 17 19  1  0  0  0  0
 19 20  1  0  0  0  0
 19 21  1  0  0  0  0
 22 23  2  0  0  0  0
 22 24  1  0  0  0  0
 24 25  1  0  0  0  0
 24 26  1  0  0  0  0
 26 27  1  0  0  0  0
 26 28  1  0  0  0  0
 26 29  1  0  0  0  0
M  END
$$$$

  -OEChem-04042215583D

 29 28  0     1  0  0  0  0  0999 V2000
   -3.4533   -3.7135    1.6745 H   0  0  0  0  0  0  0  0  0  0  0  0
   -3.4300   -2.7664    1.1283 C   0  0  0  0  0  0  0  0  0  0  0  0
   -4.0230   -2.0299    1.6761 H   0  0  0  0  0  0  0  0  0  0  0  0
   -3.8715   -2.9175    0.1404 H   0  0  0  0  0  0  0  0  0  0  0  0
   -2.0008   -2.2786    0.9866 C   0  0  0  0  0  0  0  0  0  0  0  0
   -1.0779   -2.9594    1.4044 O   0  0  0  0  0  0  0  0  0  0  0  0
   -1.7503   -1.0702    0.3712 N   0  0  0  0  0  0  0  0  0  0  0  0
   -2.5567   -0.4948    0.1309 H   0  0  0  0  0  0  0  0  0  0  0  0
   -0.4376   -0.4034    0.3377 C   0  0  1  0  0  0  0  0  0  0  0  0
    0.1889   -0.8211    1.1329 H   0  0  0  0  0  0  0  0  0  0  0  0
    0.3199   -0.5911   -1.0024 C   0  0  0  0  0  0  0  0  0  0  0  0
    0.5415    0.3906   -1.4379 H   0  0  0  0  0  0  0  0  0  0  0  0
    1.2821   -1.0690   -0.7875 H   0  0  0  0  0  0  0  0  0  0  0  0
   -0.4169   -1.4345   -2.0646 C   0  0  0  0  0  0  0  0  0  0  0  0
   -0.6113   -2.4343   -1.6670 H   0  0  0  0  0  0  0  0  0  0  0  0
   -1.3752   -0.9653   -2.3037 H   0  0  0  0  0  0  0  0  0  0  0  0
    0.3809   -1.5812   -3.3583 C   0  0  0  0  0  0  0  0  0  0  0  0
    1.4706   -1.0674   -3.5336 O   0  0  0  0  0  0  0  0  0  0  0  0
   -0.0927   -2.3254   -4.4006 N   0  0  0  0  0  0  0  0  0  0  0  0
    0.5673   -2.5118   -5.1500 H   0  0  0  0  0  0  0  0  0  0  0  0
   -0.8818   -2.9432   -4.2464 H   0  0  0  0  0  0  0  0  0  0  0  0
   -0.6101    1.0953    0.6574 C   0  0  0  0  0  0  0  0  0  0  0  0
   -1.5632    1.7090    0.1904 O   0  0  0  0  0  0  0  0  0  0  0  0
    0.2451    1.7305    1.5382 N   0  0  0  0  0  0  0  0  0  0  0  0
    1.0049    1.1852    1.9357 H   0  0  0  0  0  0  0  0  0  0  0  0
    0.1075    3.1312    1.9176 C   0  0  0  0  0  0  0  0  0  0  0  0
   -0.8637    3.3066    2.3922 H   0  0  0  0  0  0  0  0  0  0  0  0
    0.8935    3.4098    2.6263 H   0  0  0  0  0  0  0  0  0  0  0  0
    0.1912    3.7762    1.0366 H   0  0  0  0  0  0  0  0  0  0  0  0
  1  2  1  0  0  0  0
  2  3  1  0  0  0  0
  2  4  1  0  0  0  0
  2  5  1  0  0  0  0
  5  6  2  0  0  0  0
  5  7  1  0  0  0  0
  7  8  1  0  0  0  0
  7  9  1  0  0  0  0
  9 10  1  0  0  0  0
  9 11  1  0  0  0  0
  9 22  1  0  0  0  0
 11 12  1  0  0  0  0
 11 13  1  0  0  0  0
 11 14  1  0  0  0  0
 14 15  1  0  0  0  0
 14 16  1  0  0  0  0
 14 17  1  0  0  0  0
 17 18  2  0  0  0  0
 17 19  1  0  0  0  0
 19 20  1  0  0  0  0
 19 21  1  0  0  0  0
 22 23  2  0  0  0  0
 22 24  1  0  0  0  0
 24 25  1  0  0  0  0
 24 26  1  0  0  0  0
 26 27  1  0  0  0  0
 26 28  1  0  0  0  0
 26 29  1  0  0  0  0
M  END
$$$$

  -OEChem-04042215583D

 29 28  0     1  0  0  0  0  0999 V2000
   -3.4811   -3.7263    1.5866 H   0  0  0  0  0  0  0  0  0  0  0  0
   -3.4606   -2.7421    1.1101 C   0  0  0  0  0  0  0  0  0  0  0  0
   -4.0252   -2.0398    1.7284 H   0  0  0  0  0  0  0  0  0  0  0  0
   -3.9348   -2.8158    0.1285 H   0  0  0  0  0  0  0  0  0  0  0  0
   -2.0289   -2.2638    0.9593 C   0  0  0  0  0  0  0  0  0  0  0  0
   -1.1076   -2.9615    1.3520 O   0  0  0  0  0  0  0  0  0  0  0  0
   -1.7721   -1.0491    0.3585 N   0  0  0  0  0  0  0  0  0  0  0  0
   -2.5750   -0.4623    0.1343 H   0  0  0  0  0  0  0  0  0  0  0  0
   -0.4530   -0.3947    0.3202 C   0  0  1  0  0  0  0  0  0  0  0  0
    0.1758   -0.8299    1.1044 H   0  0  0  0  0  0  0  0  0  0  0  0
    0.2964   -0.5659   -1.0270 C   0  0  0  0  0  0  0  0  0  0  0  0
    0.5443    0.4149   -1.4494 H   0  0  0  0  0  0  0  0  0  0  0  0
    1.2469   -1.0645   -0.8061 H   0  0  0  0  0  0  0  0  0  0  0  0
   -0.4416   -1.3856   -2.1086 C   0  0  0  0  0  0  0  0  0  0  0  0
   -0.8432   -2.3006   -1.6668 H   0  0  0  0  0  0  0  0  0  0  0  0
   -1.2742   -0.8031   -2.5121 H   0  0  0  0  0  0  0  0  0  0  0  0
    0.4793   -1.8154   -3.2482 C   0  0  0  0  0  0  0  0  0  0  0  0
    1.5724   -1.3168   -3.4449 O   0  0  0  0  0  0  0  0  0  0  0  0
    0.1183   -2.8046   -4.1176 N   0  0  0  0  0  0  0  0  0  0  0  0
    0.8527   -3.1442   -4.7317 H   0  0  0  0  0  0  0  0  0  0  0  0
   -0.6693   -3.3996   -3.8843 H   0  0  0  0  0  0  0  0  0  0  0  0
   -0.6058    1.1010    0.6627 C   0  0  0  0  0  0  0  0  0  0  0  0
   -1.5582    1.7310    0.2166 O   0  0  0  0  0  0  0  0  0  0  0  0
    0.2656    1.7150    1.5429 N   0  0  0  0  0  0  0  0  0  0  0  0
    1.0235    1.1560    1.9247 H   0  0  0  0  0  0  0  0  0  0  0  0
    0.1391    3.1082    1.9527 C   0  0  0  0  0  0  0  0  0  0  0  0
   -0.8111    3.2698    2.4723 H   0  0  0  0  0  0  0  0  0  0  0  0
    0.9545    3.3785    2.6305 H   0  0  0  0  0  0  0  0  0  0  0  0
    0.1813    3.7697    1.0809 H   0  0  0  0  0  0  0  0  0  0  0  0
  1  2  1  0  0  0  0
  2  3  1  0  0  0  0
  2  4  1  0  0  0  0
  2  5  1  0  0  0  0
  5  6  2  0  0  0  0
  5  7  1  0  0  0  0
  7  8  1  0  0  0  0
  7  9  1  0  0  0  0
  9 10  1  0  0  0  0
  9 11  1  0  0  0  0
  9 22  1  0  0  0  0
 11 12  1  0  0  0  0
 11 13  1  0  0  0  0
 11 14  1  0  0  0  0
 14 15  1  0  0  0  0
 14 16  1  0  0  0  0
 14 17  1  0  0  0  0
 17 18  2  0  0  0  0
 17 19  1  0  0  0  0
 19 20  1  0  0  0  0
 19 21  1  0  0  0  0
 22 23  2  0  0  0  0
 22 24  1  0  0  0  0
 24 25  1  0  0  0  0
 24 26  1  0  0  0  0
 26 27  1  0  0  0  0
 26 28  1  0  0  0  0
 26 29  1  0  0  0  0
M  END
$$$$

  -OEChem-04042215583D

 29 28  0     1  0  0  0  0  0999 V2000
   -3.5788   -3.6980    1.4958 H   0  0  0  0  0  0  0  0  0  0  0  0
   -3.5529   -2.6964    1.0576 C   0  0  0  0  0  0  0  0  0  0  0  0
   -4.0506   -2.0016    1.7384 H   0  0  0  0  0  0  0  0  0  0  0  0
   -4.0918   -2.7132    0.1073 H   0  0  0  0  0  0  0  0  0  0  0  0
   -2.1176   -2.2614    0.8313 C   0  0  0  0  0  0  0  0  0  0  0  0
   -1.1977   -3.0204    1.0944 O   0  0  0  0  0  0  0  0  0  0  0  0
   -1.8538   -1.0203    0.2906 N   0  0  0  0  0  0  0  0  0  0  0  0
   -2.6469   -0.3944    0.1523 H   0  0  0  0  0  0  0  0  0  0  0  0
   -0.5175   -0.4071    0.2232 C   0  0  1  0  0  0  0  0  0  0  0  0
    0.1271   -0.9054    0.9550 H   0  0  0  0  0  0  0  0  0  0  0  0
    0.1748   -0.5299   -1.1608 C   0  0  0  0  0  0  0  0  0  0  0  0
    0.4427    0.4636   -1.5387 H   0  0  0  0  0  0  0  0  0  0  0  0
    1.1170   -1.0634   -0.9929 H   0  0  0  0  0  0  0  0  0  0  0  0
   -0.6084   -1.2664   -2.2723 C   0  0  0  0  0  0  0  0  0  0  0  0
   -1.2445   -2.0521   -1.8619 H   0  0  0  0  0  0  0  0  0  0  0  0
   -1.2509   -0.5628   -2.8093 H   0  0  0  0  0  0  0  0  0  0  0  0
    0.3486   -1.9459   -3.2418 C   0  0  0  0  0  0  0  0  0  0  0  0
    1.0634   -1.3068   -3.9896 O   0  0  0  0  0  0  0  0  0  0  0  0
    0.5461   -3.2971   -3.2258 N   0  0  0  0  0  0  0  0  0  0  0  0
    1.3608   -3.6311   -3.7323 H   0  0  0  0  0  0  0  0  0  0  0  0
    0.1776   -3.8311   -2.4448 H   0  0  0  0  0  0  0  0  0  0  0  0
   -0.6003    1.0691    0.6609 C   0  0  0  0  0  0  0  0  0  0  0  0
   -1.5485    1.7563    0.2998 O   0  0  0  0  0  0  0  0  0  0  0  0
    0.3350    1.5997    1.5297 N   0  0  0  0  0  0  0  0  0  0  0  0
    1.0847    0.9918    1.8475 H   0  0  0  0  0  0  0  0  0  0  0  0
    0.2827    2.9713    2.0208 C   0  0  0  0  0  0  0  0  0  0  0  0
   -0.6506    3.1484    2.5656 H   0  0  0  0  0  0  0  0  0  0  0  0
    1.1201    3.1623    2.6989 H   0  0  0  0  0  0  0  0  0  0  0  0
    0.3446    3.6787    1.1872 H   0  0  0  0  0  0  0  0  0  0  0  0
  1  2  1  0  0  0  0
  2  3  1  0  0  0  0
  2  4  1  0  0  0  0
  2  5  1  0  0  0  0
  5  6  2  0  0  0  0
  5  7  1  0  0  0  0
  7  8  1  0  0  0  0
  7  9  1  0  0  0  0
  9 10  1  0  0  0  0
  9 11  1  0  0  0  0
  9 22  1  0  0  0  0
 11 12  1  0  0  0  0
 11 13  1  0  0  0  0
 11 14  1  0  0  0  0
 14 15  1  0  0  0  0
 14 16  1  0  0  0  0
 14 17  1  0  0  0  0
 17 18  2  0  0  0  0
 17 19  1  0  0  0  0
 19 20  1  0  0  0  0
 19 21  1  0  0  0  0
 22 23  2  0  0  0  0
 22 24  1  0  0  0  0
 24 25  1  0  0  0  0
 24 26  1  0  0  0  0
 26 27  1  0  0  0  0
 26 28  1  0  0  0  0
 26 29  1  0  0  0  0
M  END
$$$$

  -OEChem-04042215583D

 29 28  0     1  0  0  0  0  0999 V2000
   -3.6265   -3.7064    1.3353 H   0  0  0  0  0  0  0  0  0  0  0  0
   -3.5919   -2.6709    0.9855 C   0  0  0  0  0  0  0  0  0  0  0  0
   -4.0344   -2.0258    1.7485 H   0  0  0  0  0  0  0  0  0  0  0  0
   -4.1772   -2.5900    0.0665 H   0  0  0  0  0  0  0  0  0  0  0  0
   -2.1571   -2.2540    0.7251 C   0  0  0  0  0  0  0  0  0  0  0  0
   -1.2422   -3.0427    0.9111 O   0  0  0  0  0  0  0  0  0  0  0  0
   -1.8869   -1.0005    0.2172 N   0  0  0  0  0  0  0  0  0  0  0  0
   -2.6731   -0.3568    0.1278 H   0  0  0  0  0  0  0  0  0  0  0  0
   -0.5449   -0.3994    0.1730 C   0  0  1  0  0  0  0  0  0  0  0  0
    0.0764   -0.9188    0.9104 H   0  0  0  0  0  0  0  0  0  0  0  0
    0.1827   -0.5307   -1.1923 C   0  0  0  0  0  0  0  0  0  0  0  0
    0.4521    0.4656   -1.5612 H   0  0  0  0  0  0  0  0  0  0  0  0
    1.1279   -1.0495   -0.9968 H   0  0  0  0  0  0  0  0  0  0  0  0
   -0.5630   -1.2648   -2.3366 C   0  0  0  0  0  0  0  0  0  0  0  0
   -1.4146   -1.8484   -1.9885 H   0  0  0  0  0  0  0  0  0  0  0  0
   -0.9453   -0.5339   -3.0551 H   0  0  0  0  0  0  0  0  0  0  0  0
    0.3713   -2.2362   -3.0410 C   0  0  0  0  0  0  0  0  0  0  0  0
    1.0948   -1.8878   -3.9541 O   0  0  0  0  0  0  0  0  0  0  0  0
    0.5194   -3.5175   -2.5918 N   0  0  0  0  0  0  0  0  0  0  0  0
    1.3158   -4.0298   -2.9582 H   0  0  0  0  0  0  0  0  0  0  0  0
    0.1281   -3.7603   -1.6846 H   0  0  0  0  0  0  0  0  0  0  0  0
   -0.6057    1.0669    0.6465 C   0  0  0  0  0  0  0  0  0  0  0  0
   -1.5462    1.7745    0.3065 O   0  0  0  0  0  0  0  0  0  0  0  0
    0.3343    1.5618    1.5314 N   0  0  0  0  0  0  0  0  0  0  0  0
    1.0708    0.9338    1.8405 H   0  0  0  0  0  0  0  0  0  0  0  0
    0.2867    2.9138    2.0750 C   0  0  0  0  0  0  0  0  0  0  0  0
   -0.6119    3.0493    2.6860 H   0  0  0  0  0  0  0  0  0  0  0  0
    1.1636    3.1003    2.7025 H   0  0  0  0  0  0  0  0  0  0  0  0
    0.2785    3.6527    1.2666 H   0  0  0  0  0  0  0  0  0  0  0  0
  1  2  1  0  0  0  0
  2  3  1  0  0  0  0
  2  4  1  0  0  0  0
  2  5  1  0  0  0  0
  5  6  2  0  0  0  0
  5  7  1  0  0  0  0
  7  8  1  0  0  0  0
  7  9  1  0  0  0  0
  9 10  1  0  0  0  0
  9 11  1  0  0  0  0
  9 22  1  0  0  0  0
 11 12  1  0  0  0  0
 11 13  1  0  0  0  0
 11 14  1  0  0  0  0
 14 15  1  0  0  0  0
 14 16  1  0  0  0  0
 14 17  1  0  0  0  0
 17 18  2  0  0  0  0
 17 19  1  0  0  0  0
 19 20  1  0  0  0  0
 19 21  1  0  0  0  0
 22 23  2  0  0  0  0
 22 24  1  0  0  0  0
 24 25  1  0  0  0  0
 24 26  1  0  0  0  0
 26 27  1  0  0  0  0
 26 28  1  0  0  0  0
 26 29  1  0  0  0  0
M  END
$$$$

  -OEChem-04042215583D

 29 28  0     1  0  0  0  0  0999 V2000
   -3.6132   -3.7317    1.2198 H   0  0  0  0  0  0  0  0  0  0  0  0
   -3.5917   -2.6930    0.8783 C   0  0  0  0  0  0  0  0  0  0  0  0
   -4.0401   -2.0598    1.6479 H   0  0  0  0  0  0  0  0  0  0  0  0
   -4.1803   -2.6111   -0.0388 H   0  0  0  0  0  0  0  0  0  0  0  0
   -2.1625   -2.2583    0.6169 C   0  0  0  0  0  0  0  0  0  0  0  0
   -1.2425   -3.0570    0.7290 O   0  0  0  0  0  0  0  0  0  0  0  0
   -1.9017   -0.9901    0.1419 N   0  0  0  0  0  0  0  0  0  0  0  0
   -2.6905   -0.3453    0.0884 H   0  0  0  0  0  0  0  0  0  0  0  0
   -0.5634   -0.3793    0.1378 C   0  0  1  0  0  0  0  0  0  0  0  0
    0.0303   -0.9084    0.8911 H   0  0  0  0  0  0  0  0  0  0  0  0
    0.2163   -0.5255   -1.1948 C   0  0  0  0  0  0  0  0  0  0  0  0
    0.4511    0.4778   -1.5678 H   0  0  0  0  0  0  0  0  0  0  0  0
    1.1797   -0.9989   -0.9732 H   0  0  0  0  0  0  0  0  0  0  0  0
   -0.4843   -1.2841   -2.3529 C   0  0  0  0  0  0  0  0  0  0  0  0
   -1.5004   -1.6075   -2.1312 H   0  0  0  0  0  0  0  0  0  0  0  0
   -0.5545   -0.6191   -3.2188 H   0  0  0  0  0  0  0  0  0  0  0  0
    0.3360   -2.5007   -2.7499 C   0  0  0  0  0  0  0  0  0  0  0  0
    1.1235   -2.4802   -3.6766 O   0  0  0  0  0  0  0  0  0  0  0  0
    0.2791   -3.6422   -2.0013 N   0  0  0  0  0  0  0  0  0  0  0  0
    1.0053   -4.3295   -2.1750 H   0  0  0  0  0  0  0  0  0  0  0  0
   -0.1764   -3.5995   -1.0877 H   0  0  0  0  0  0  0  0  0  0  0  0
   -0.6226    1.0771    0.6398 C   0  0  0  0  0  0  0  0  0  0  0  0
   -1.5599    1.7921    0.3077 O   0  0  0  0  0  0  0  0  0  0  0  0
    0.3063    1.5489    1.5485 N   0  0  0  0  0  0  0  0  0  0  0  0
    1.0460    0.9171    1.8420 H   0  0  0  0  0  0  0  0  0  0  0  0
    0.2651    2.8942    2.1089 C   0  0  0  0  0  0  0  0  0  0  0  0
   -0.6428    3.0330    2.7051 H   0  0  0  0  0  0  0  0  0  0  0  0
    1.1326    3.0614    2.7546 H   0  0  0  0  0  0  0  0  0  0  0  0
    0.2809    3.6433    1.3101 H   0  0  0  0  0  0  0  0  0  0  0  0
  1  2  1  0  0  0  0
  2  3  1  0  0  0  0
  2  4  1  0  0  0  0
  2  5  1  0  0  0  0
  5  6  2  0  0  0  0
  5  7  1  0  0  0  0
  7  8  1  0  0  0  0
  7  9  1  0  0  0  0
  9 10  1  0  0  0  0
  9 11  1  0  0  0  0
  9 22  1  0  0  0  0
 11 12  1  0  0  0  0
 11 13  1  0  0  0  0
 11 14  1  0  0  0  0
 14 15  1  0  0  0  0
 14 16  1  0  0  0  0
 14 17  1  0  0  0  0
 17 18  2  0  0  0  0
 17 19  1  0  0  0  0
 19 20  1  0  0  0  0
 19 21  1  0  0  0  0
 22 23  2  0  0  0  0
 22 24  1  0  0  0  0
 24 25  1  0  0  0  0
 24 26  1  0  0  0  0
 26 27  1  0  0  0  0
 26 28  1  0  0  0  0
 26 29  1  0  0  0  0
M  END
$$$$

  -OEChem-04042215583D

 29 28  0     1  0  0  0  0  0999 V2000
   -3.6792   -3.7162    1.1700 H   0  0  0  0  0  0  0  0  0  0  0  0
   -3.6150   -2.6960    0.7812 C   0  0  0  0  0  0  0  0  0  0  0  0
   -4.1514   -2.0268    1.4584 H   0  0  0  0  0  0  0  0  0  0  0  0
   -4.0895   -2.6634   -0.2026 H   0  0  0  0  0  0  0  0  0  0  0  0
   -2.1643   -2.2682    0.6706 C   0  0  0  0  0  0  0  0  0  0  0  0
   -1.2675   -3.0400    0.9756 O   0  0  0  0  0  0  0  0  0  0  0  0
   -1.8481   -1.0266    0.1633 N   0  0  0  0  0  0  0  0  0  0  0  0
   -2.6248   -0.3912   -0.0212 H   0  0  0  0  0  0  0  0  0  0  0  0
   -0.5056   -0.4229    0.1906 C   0  0  1  0  0  0  0  0  0  0  0  0
    0.0788   -0.9317    0.9647 H   0  0  0  0  0  0  0  0  0  0  0  0
    0.2927   -0.5521   -1.1370 C   0  0  0  0  0  0  0  0  0  0  0  0
    0.5288    0.4579   -1.4910 H   0  0  0  0  0  0  0  0  0  0  0  0
    1.2549   -1.0302   -0.9219 H   0  0  0  0  0  0  0  0  0  0  0  0
   -0.3927   -1.2853   -2.3164 C   0  0  0  0  0  0  0  0  0  0  0  0
   -1.4777   -1.3403   -2.2206 H   0  0  0  0  0  0  0  0  0  0  0  0
   -0.1959   -0.7195   -3.2320 H   0  0  0  0  0  0  0  0  0  0  0  0
    0.1841   -2.6830   -2.5123 C   0  0  0  0  0  0  0  0  0  0  0  0
    0.9011   -2.9471   -3.4587 O   0  0  0  0  0  0  0  0  0  0  0  0
   -0.0450   -3.6999   -1.6309 N   0  0  0  0  0  0  0  0  0  0  0  0
    0.5303   -4.5275   -1.7494 H   0  0  0  0  0  0  0  0  0  0  0  0
   -0.4214   -3.4750   -0.7079 H   0  0  0  0  0  0  0  0  0  0  0  0
   -0.6058    1.0506    0.6357 C   0  0  0  0  0  0  0  0  0  0  0  0
   -1.5214    1.7483    0.2161 O   0  0  0  0  0  0  0  0  0  0  0  0
    0.2736    1.5664    1.5694 N   0  0  0  0  0  0  0  0  0  0  0  0
    0.9863    0.9456    1.9425 H   0  0  0  0  0  0  0  0  0  0  0  0
    0.1826    2.9261    2.0876 C   0  0  0  0  0  0  0  0  0  0  0  0
   -0.7604    3.0686    2.6255 H   0  0  0  0  0  0  0  0  0  0  0  0
    1.0083    3.1234    2.7780 H   0  0  0  0  0  0  0  0  0  0  0  0
    0.2353    3.6530    1.2702 H   0  0  0  0  0  0  0  0  0  0  0  0
  1  2  1  0  0  0  0
  2  3  1  0  0  0  0
  2  4  1  0  0  0  0
  2  5  1  0  0  0  0
  5  6  2  0  0  0  0
  5  7  1  0  0  0  0
  7  8  1  0  0  0  0
  7  9  1  0  0  0  0
  9 10  1  0  0  0  0
  9 11  1  0  0  0  0
  9 22  1  0  0  0  0
 11 12  1  0  0  0  0
 11 13  1  0  0  0  0
 11 14  1  0  0  0  0
 14 15  1  0  0  0  0
 14 16  1  0  0  0  0
 14 17  1  0  0  0  0
 17 18  2  0  0  0  0
 17 19  1  0  0  0  0
 19 20  1  0  0  0  0
 19 21  1  0  0  0  0
 22 23  2  0  0  0  0
 22 24  1  0  0  0  0
 24 25  1  0  0  0  0
 24 26  1  0  0  0  0
 26 27  1  0  0  0  0
 26 28  1  0  0  0  0
 26 29  1  0  0  0  0
M  END
$$$$

  -OEChem-04042215583D

 29 28  0     1  0  0  0  0  0999 V2000
   -3.7720   -3.7021    1.0540 H   0  0  0  0  0  0  0  0  0  0  0  0
   -3.6675   -2.6938    0.6439 C   0  0  0  0  0  0  0  0  0  0  0  0
   -4.2886   -2.0098    1.2274 H   0  0  0  0  0  0  0  0  0  0  0  0
   -4.0163   -2.6979   -0.3918 H   0  0  0  0  0  0  0  0  0  0  0  0
   -2.2174   -2.2537    0.7004 C   0  0  0  0  0  0  0  0  0  0  0  0
   -1.3690   -2.9803    1.1948 O   0  0  0  0  0  0  0  0  0  0  0  0
   -1.8427   -1.0382    0.1693 N   0  0  0  0  0  0  0  0  0  0  0  0
   -2.5884   -0.4215   -0.1536 H   0  0  0  0  0  0  0  0  0  0  0  0
   -0.4929   -0.4544    0.2499 C   0  0  1  0  0  0  0  0  0  0  0  0
    0.0617   -0.9486    1.0545 H   0  0  0  0  0  0  0  0  0  0  0  0
    0.3391   -0.5964   -1.0577 C   0  0  0  0  0  0  0  0  0  0  0  0
    0.6035    0.4084   -1.4071 H   0  0  0  0  0  0  0  0  0  0  0  0
    1.2853   -1.0967   -0.8238 H   0  0  0  0  0  0  0  0  0  0  0  0
   -0.3333   -1.3146   -2.2523 C   0  0  0  0  0  0  0  0  0  0  0  0
   -1.4033   -1.1005   -2.2977 H   0  0  0  0  0  0  0  0  0  0  0  0
    0.1045   -0.9122   -3.1706 H   0  0  0  0  0  0  0  0  0  0  0  0
   -0.1071   -2.8256   -2.2871 C   0  0  0  0  0  0  0  0  0  0  0  0
   -0.1446   -3.4320   -3.3402 O   0  0  0  0  0  0  0  0  0  0  0  0
    0.1566   -3.5902   -1.1872 N   0  0  0  0  0  0  0  0  0  0  0  0
    0.1117   -4.5918   -1.3450 H   0  0  0  0  0  0  0  0  0  0  0  0
   -0.1243   -3.2272   -0.2751 H   0  0  0  0  0  0  0  0  0  0  0  0
   -0.6058    1.0354    0.6371 C   0  0  0  0  0  0  0  0  0  0  0  0
   -1.4674    1.7331    0.1157 O   0  0  0  0  0  0  0  0  0  0  0  0
    0.2221    1.5789    1.6017 N   0  0  0  0  0  0  0  0  0  0  0  0
    0.8826    0.9593    2.0626 H   0  0  0  0  0  0  0  0  0  0  0  0
    0.1232    2.9625    2.0515 C   0  0  0  0  0  0  0  0  0  0  0  0
   -0.8554    3.1488    2.5063 H   0  0  0  0  0  0  0  0  0  0  0  0
    0.8965    3.1746    2.7960 H   0  0  0  0  0  0  0  0  0  0  0  0
    0.2578    3.6503    1.2101 H   0  0  0  0  0  0  0  0  0  0  0  0
  1  2  1  0  0  0  0
  2  3  1  0  0  0  0
  2  4  1  0  0  0  0
  2  5  1  0  0  0  0
  5  6  2  0  0  0  0
  5  7  1  0  0  0  0
  7  8  1  0  0  0  0
  7  9  1  0  0  0  0
  9 10  1  0  0  0  0
  9 11  1  0  0  0  0
  9 22  1  0  0  0  0
 11 12  1  0  0  0  0
 11 13  1  0  0  0  0
 11 14  1  0  0  0  0
 14 15  1  0  0  0  0
 14 16  1  0  0  0  0
 14 17  1  0  0  0  0
 17 18  2  0  0  0  0
 17 19  1  0  0  0  0
 19 20  1  0  0  0  0
 19 21  1  0  0  0  0
 22 23  2  0  0  0  0
 22 24  1  0  0  0  0
 24 25  1  0  0  0  0
 24 26  1  0  0  0  0
 26 27  1  0  0  0  0
 26 28  1  0  0  0  0
 26 29  1  0  0  0  0
M  END
$$$$

  -OEChem-04042215583D

 29 28  0     1  0  0  0  0  0999 V2000
   -3.4927   -3.7330    1.5074 H   0  0  0  0  0  0  0  0  0  0  0  0
   -3.4230   -2.8046    0.9337 C   0  0  0  0  0  0  0  0  0  0  0  0
   -4.1133   -2.0735    1.3612 H   0  0  0  0  0  0  0  0  0  0  0  0
   -3.7107   -3.0077   -0.1003 H   0  0  0  0  0  0  0  0  0  0  0  0
   -2.0052   -2.2676    0.9806 C   0  0  0  0  0  0  0  0  0  0  0  0
   -1.1487   -2.8680    1.6073 O   0  0  0  0  0  0  0  0  0  0  0  0
   -1.7060   -1.0753    0.3522 N   0  0  0  0  0  0  0  0  0  0  0  0
   -2.4838   -0.5376   -0.0266 H   0  0  0  0  0  0  0  0  0  0  0  0
   -0.3897   -0.4150    0.3786 C   0  0  1  0  0  0  0  0  0  0  0  0
    0.2033   -0.8235    1.2038 H   0  0  0  0  0  0  0  0  0  0  0  0
    0.4317   -0.5848   -0.9322 C   0  0  0  0  0  0  0  0  0  0  0  0
    0.6598    0.4054   -1.3424 H   0  0  0  0  0  0  0  0  0  0  0  0
    1.3937   -1.0442   -0.6783 H   0  0  0  0  0  0  0  0  0  0  0  0
   -0.2241   -1.4043   -2.0646 C   0  0  0  0  0  0  0  0  0  0  0  0
   -1.2470   -1.0586   -2.2345 H   0  0  0  0  0  0  0  0  0  0  0  0
    0.3324   -1.2326   -2.9900 H   0  0  0  0  0  0  0  0  0  0  0  0
   -0.2137   -2.9067   -1.8011 C   0  0  0  0  0  0  0  0  0  0  0  0
    0.8053   -3.5002   -1.5042 O   0  0  0  0  0  0  0  0  0  0  0  0
   -1.3222   -3.6819   -1.9940 N   0  0  0  0  0  0  0  0  0  0  0  0
   -1.1569   -4.6845   -1.9878 H   0  0  0  0  0  0  0  0  0  0  0  0
   -2.1007   -3.2962   -2.5156 H   0  0  0  0  0  0  0  0  0  0  0  0
   -0.5874    1.0893    0.6541 C   0  0  0  0  0  0  0  0  0  0  0  0
   -1.4760    1.7029    0.0729 O   0  0  0  0  0  0  0  0  0  0  0  0
    0.2121    1.7458    1.5705 N   0  0  0  0  0  0  0  0  0  0  0  0
    0.8946    1.1913    2.0805 H   0  0  0  0  0  0  0  0  0  0  0  0
    0.0453    3.1521    1.9159 C   0  0  0  0  0  0  0  0  0  0  0  0
   -0.9493    3.3280    2.3389 H   0  0  0  0  0  0  0  0  0  0  0  0
    0.7938    3.4505    2.6561 H   0  0  0  0  0  0  0  0  0  0  0  0
    0.1677    3.7819    1.0285 H   0  0  0  0  0  0  0  0  0  0  0  0
  1  2  1  0  0  0  0
  2  3  1  0  0  0  0
  2  4  1  0  0  0  0
  2  5  1  0  0  0  0
  5  6  2  0  0  0  0
  5  7  1  0  0  0  0
  7  8  1  0  0  0  0
  7  9  1  0  0  0  0
  9 10  1  0  0  0  0
  9 11  1  0  0  0  0
  9 22  1  0  0  0  0
 11 12  1  0  0  0  0
 11 13  1  0  0  0  0
 11 14  1  0  0  0  0
 14 15  1  0  0  0  0
 14 16  1  0  0  0  0
 14 17  1  0  0  0  0
 17 18  2  0  0  0  0
 17 19  1  0  0  0  0
 19 20  1  0  0  0  0
 19 21  1  0  0  0  0
 22 23  2  0  0  0  0
 22 24  1  0  0  0  0
 24 25  1  0  0  0  0
 24 26  1  0  0  0  0
 26 27  1  0  0  0  0
 26 28  1  0  0  0  0
 26 29  1  0  0  0  0
M  END
$$$$

  -OEChem-04042215583D

 29 28  0     1  0  0  0  0  0999 V2000
   -3.4823   -3.7608    1.5817 H   0  0  0  0  0  0  0  0  0  0  0  0
   -3.4280   -2.8133    1.0384 C   0  0  0  0  0  0  0  0  0  0  0  0
   -4.1229   -2.1039    1.4940 H   0  0  0  0  0  0  0  0  0  0  0  0
   -3.7224   -2.9864    0.0010 H   0  0  0  0  0  0  0  0  0  0  0  0
   -2.0153   -2.2632    1.0945 C   0  0  0  0  0  0  0  0  0  0  0  0
   -1.1805   -2.8097    1.7958 O   0  0  0  0  0  0  0  0  0  0  0  0
   -1.7086   -1.0947    0.4242 N   0  0  0  0  0  0  0  0  0  0  0  0
   -2.4763   -0.5874   -0.0118 H   0  0  0  0  0  0  0  0  0  0  0  0
   -0.3896   -0.4409    0.4319 C   0  0  1  0  0  0  0  0  0  0  0  0
    0.2056   -0.8246    1.2671 H   0  0  0  0  0  0  0  0  0  0  0  0
    0.4369   -0.6154   -0.8782 C   0  0  0  0  0  0  0  0  0  0  0  0
    0.7007    0.3693   -1.2802 H   0  0  0  0  0  0  0  0  0  0  0  0
    1.3795   -1.1008   -0.6017 H   0  0  0  0  0  0  0  0  0  0  0  0
   -0.1764   -1.4324   -2.0366 C   0  0  0  0  0  0  0  0  0  0  0  0
   -1.0910   -0.9331   -2.3678 H   0  0  0  0  0  0  0  0  0  0  0  0
    0.5201   -1.4321   -2.8794 H   0  0  0  0  0  0  0  0  0  0  0  0
   -0.5020   -2.8833   -1.7015 C   0  0  0  0  0  0  0  0  0  0  0  0
    0.3362   -3.6372   -1.2484 O   0  0  0  0  0  0  0  0  0  0  0  0
   -1.7029   -3.4508   -2.0235 N   0  0  0  0  0  0  0  0  0  0  0  0
   -1.7194   -4.4664   -1.9863 H   0  0  0  0  0  0  0  0  0  0  0  0
   -2.3077   -2.9585   -2.6716 H   0  0  0  0  0  0  0  0  0  0  0  0
   -0.5979    1.0713    0.6556 C   0  0  0  0  0  0  0  0  0  0  0  0
   -1.4731    1.6655    0.0346 O   0  0  0  0  0  0  0  0  0  0  0  0
    0.1936    1.7625    1.5533 N   0  0  0  0  0  0  0  0  0  0  0  0
    0.8625    1.2257    2.0992 H   0  0  0  0  0  0  0  0  0  0  0  0
    0.0264    3.1819    1.8394 C   0  0  0  0  0  0  0  0  0  0  0  0
   -0.9693    3.3748    2.2522 H   0  0  0  0  0  0  0  0  0  0  0  0
    0.7733    3.5110    2.5682 H   0  0  0  0  0  0  0  0  0  0  0  0
    0.1509    3.7744    0.9269 H   0  0  0  0  0  0  0  0  0  0  0  0
  1  2  1  0  0  0  0
  2  3  1  0  0  0  0
  2  4  1  0  0  0  0
  2  5  1  0  0  0  0
  5  6  2  0  0  0  0
  5  7  1  0  0  0  0
  7  8  1  0  0  0  0
  7  9  1  0  0  0  0
  9 10  1  0  0  0  0
  9 11  1  0  0  0  0
  9 22  1  0  0  0  0
 11 12  1  0  0  0  0
 11 13  1  0  0  0  0
 11 14  1  0  0  0  0
 14 15  1  0  0  0  0
 14 16  1  0  0  0  0
 14 17  1  0  0  0  0
 17 18  2  0  0  0  0
 17 19  1  0  0  0  0
 19 20  1  0  0  0  0
 19 21  1  0  0  0  0
 22 23  2  0  0  0  0
 22 24  1  0  0  0  0
 24 25  1  0  0  0  0
 24 26  1  0  0  0  0
 26 27  1  0  0  0  0
 26 28  1  0  0  0  0
 26 29  1  0  0  0  0
M  END
$$$$

  -OEChem-04042215583D

 29 28  0     1  0  0  0  0  0999 V2000
   -3.4624   -3.7807    1.6844 H   0  0  0  0  0  0  0  0  0  0  0  0
   -3.4330   -2.8137    1.1747 C   0  0  0  0  0  0  0  0  0  0  0  0
   -4.1204   -2.1281    1.6755 H   0  0  0  0  0  0  0  0  0  0  0  0
   -3.7574   -2.9532    0.1415 H   0  0  0  0  0  0  0  0  0  0  0  0
   -2.0241   -2.2512    1.2097 C   0  0  0  0  0  0  0  0  0  0  0  0
   -1.1944   -2.7476    1.9542 O   0  0  0  0  0  0  0  0  0  0  0  0
   -1.7219   -1.1062    0.4961 N   0  0  0  0  0  0  0  0  0  0  0  0
   -2.4842   -0.6338    0.0144 H   0  0  0  0  0  0  0  0  0  0  0  0
   -0.4001   -0.4609    0.4755 C   0  0  1  0  0  0  0  0  0  0  0  0
    0.1983   -0.8155    1.3214 H   0  0  0  0  0  0  0  0  0  0  0  0
    0.4322   -0.6553   -0.8318 C   0  0  0  0  0  0  0  0  0  0  0  0
    0.7334    0.3208   -1.2289 H   0  0  0  0  0  0  0  0  0  0  0  0
    1.3548   -1.1590   -0.5234 H   0  0  0  0  0  0  0  0  0  0  0  0
   -0.1250   -1.4796   -2.0184 C   0  0  0  0  0  0  0  0  0  0  0  0
   -0.8671   -0.8598   -2.5287 H   0  0  0  0  0  0  0  0  0  0  0  0
    0.6857   -1.6645   -2.7288 H   0  0  0  0  0  0  0  0  0  0  0  0
   -0.7823   -2.8171   -1.7032 C   0  0  0  0  0  0  0  0  0  0  0  0
   -0.1641   -3.7308   -1.1957 O   0  0  0  0  0  0  0  0  0  0  0  0
   -2.0527   -3.1150   -2.1103 N   0  0  0  0  0  0  0  0  0  0  0  0
   -2.2809   -4.1051   -2.0987 H   0  0  0  0  0  0  0  0  0  0  0  0
   -2.4884   -2.5066   -2.7948 H   0  0  0  0  0  0  0  0  0  0  0  0
   -0.6137    1.0574    0.6514 C   0  0  0  0  0  0  0  0  0  0  0  0
   -1.4795    1.6330    0.0000 O   0  0  0  0  0  0  0  0  0  0  0  0
    0.1788    1.7797    1.5237 N   0  0  0  0  0  0  0  0  0  0  0  0
    0.8364    1.2597    2.0987 H   0  0  0  0  0  0  0  0  0  0  0  0
    0.0041    3.2063    1.7678 C   0  0  0  0  0  0  0  0  0  0  0  0
   -0.9896    3.4057    2.1824 H   0  0  0  0  0  0  0  0  0  0  0  0
    0.7544    3.5626    2.4801 H   0  0  0  0  0  0  0  0  0  0  0  0
    0.1173    3.7713    0.8367 H   0  0  0  0  0  0  0  0  0  0  0  0
  1  2  1  0  0  0  0
  2  3  1  0  0  0  0
  2  4  1  0  0  0  0
  2  5  1  0  0  0  0
  5  6  2  0  0  0  0
  5  7  1  0  0  0  0
  7  8  1  0  0  0  0
  7  9  1  0  0  0  0
  9 10  1  0  0  0  0
  9 11  1  0  0  0  0
  9 22  1  0  0  0  0
 11 12  1  0  0  0  0
 11 13  1  0  0  0  0
 11 14  1  0  0  0  0
 14 15  1  0  0  0  0
 14 16  1  0  0  0  0
 14 17  1  0  0  0  0
 17 18  2  0  0  0  0
 17 19  1  0  0  0  0
 19 20  1  0  0  0  0
 19 21  1  0  0  0  0
 22 23  2  0  0  0  0
 22 24  1  0  0  0  0
 24 25  1  0  0  0  0
 24 26  1  0  0  0  0
 26 27  1  0  0  0  0
 26 28  1  0  0  0  0
 26 29  1  0  0  0  0
M  END
$$$$

  -OEChem-04042215583D

 29 28  0     1  0  0  0  0  0999 V2000
   -3.4784   -3.7226    1.8910 H   0  0  0  0  0  0  0  0  0  0  0  0
   -3.4291   -2.8325    1.2577 C   0  0  0  0  0  0  0  0  0  0  0  0
   -4.1461   -2.0955    1.6268 H   0  0  0  0  0  0  0  0  0  0  0  0
   -3.6975   -3.1142    0.2376 H   0  0  0  0  0  0  0  0  0  0  0  0
   -2.0278   -2.2515    1.2859 C   0  0  0  0  0  0  0  0  0  0  0  0
   -1.1928   -2.7209    2.0434 O   0  0  0  0  0  0  0  0  0  0  0  0
   -1.7357   -1.1203    0.5459 N   0  0  0  0  0  0  0  0  0  0  0  0
   -2.4947   -0.6833    0.0273 H   0  0  0  0  0  0  0  0  0  0  0  0
   -0.4153   -0.4766    0.5050 C   0  0  1  0  0  0  0  0  0  0  0  0
    0.1849   -0.8085    1.3587 H   0  0  0  0  0  0  0  0  0  0  0  0
    0.4250   -0.6883   -0.7963 C   0  0  0  0  0  0  0  0  0  0  0  0
    0.7471    0.2822   -1.1909 H   0  0  0  0  0  0  0  0  0  0  0  0
    1.3367   -1.1940   -0.4598 H   0  0  0  0  0  0  0  0  0  0  0  0
   -0.0827   -1.5257   -2.0019 C   0  0  0  0  0  0  0  0  0  0  0  0
   -0.5994   -0.8343   -2.6732 H   0  0  0  0  0  0  0  0  0  0  0  0
    0.7844   -1.9084   -2.5477 H   0  0  0  0  0  0  0  0  0  0  0  0
   -1.0301   -2.6945   -1.7640 C   0  0  0  0  0  0  0  0  0  0  0  0
   -0.6508   -3.7516   -1.3018 O   0  0  0  0  0  0  0  0  0  0  0  0
   -2.3296   -2.6684   -2.1891 N   0  0  0  0  0  0  0  0  0  0  0  0
   -2.7774   -3.5786   -2.2488 H   0  0  0  0  0  0  0  0  0  0  0  0
   -2.6069   -1.9292   -2.8263 H   0  0  0  0  0  0  0  0  0  0  0  0
   -0.6389    1.0436    0.6525 C   0  0  0  0  0  0  0  0  0  0  0  0
   -1.5020    1.6026   -0.0167 O   0  0  0  0  0  0  0  0  0  0  0  0
    0.1516    1.7897    1.5065 N   0  0  0  0  0  0  0  0  0  0  0  0
    0.8018    1.2844    2.1024 H   0  0  0  0  0  0  0  0  0  0  0  0
   -0.0373    3.2187    1.7241 C   0  0  0  0  0  0  0  0  0  0  0  0
   -1.0385    3.4173    2.1208 H   0  0  0  0  0  0  0  0  0  0  0  0
    0.6995    3.5927    2.4415 H   0  0  0  0  0  0  0  0  0  0  0  0
    0.0855    3.7689    0.7853 H   0  0  0  0  0  0  0  0  0  0  0  0
  1  2  1  0  0  0  0
  2  3  1  0  0  0  0
  2  4  1  0  0  0  0
  2  5  1  0  0  0  0
  5  6  2  0  0  0  0
  5  7  1  0  0  0  0
  7  8  1  0  0  0  0
  7  9  1  0  0  0  0
  9 10  1  0  0  0  0
  9 11  1  0  0  0  0
  9 22  1  0  0  0  0
 11 12  1  0  0  0  0
 11 13  1  0  0  0  0
 11 14  1  0  0  0  0
 14 15  1  0  0  0  0
 14 16  1  0  0  0  0
 14 17  1  0  0  0  0
 17 18  2  0  0  0  0
 17 19  1  0  0  0  0
 19 20  1  0  0  0  0
 19 21  1  0  0  0  0
 22 23  2  0  0  0  0
 22 24  1  0  0  0  0
 24 25  1  0  0  0  0
 24 26  1  0  0  0  0
 26 27  1  0  0  0  0
 26 28  1  0  0  0  0
 26 29  1  0  0  0  0
M  END
$$$$

  -OEChem-04042215583D

 29 28  0     1  0  0  0  0  0999 V2000
   -3.6863   -3.6645    1.5351 H   0  0  0  0  0  0  0  0  0  0  0  0
   -3.6354   -2.6737    1.0754 C   0  0  0  0  0  0  0  0  0  0  0  0
   -4.2450   -1.9813    1.6609 H   0  0  0  0  0  0  0  0  0  0  0  0
   -4.0402   -2.7326    0.0616 H   0  0  0  0  0  0  0  0  0  0  0  0
   -2.1991   -2.1870    1.0313 C   0  0  0  0  0  0  0  0  0  0  0  0
   -1.2974   -2.8873    1.4685 O   0  0  0  0  0  0  0  0  0  0  0  0
   -1.9040   -0.9759    0.4413 N   0  0  0  0  0  0  0  0  0  0  0  0
   -2.6796   -0.4568    0.0271 H   0  0  0  0  0  0  0  0  0  0  0  0
   -0.5722   -0.3637    0.3696 C   0  0  1  0  0  0  0  0  0  0  0  0
    0.0534   -0.8236    1.1416 H   0  0  0  0  0  0  0  0  0  0  0  0
    0.1946   -0.4989   -0.9859 C   0  0  0  0  0  0  0  0  0  0  0  0
    0.4859    0.5022   -1.3243 H   0  0  0  0  0  0  0  0  0  0  0  0
    1.1285   -1.0135   -0.7364 H   0  0  0  0  0  0  0  0  0  0  0  0
   -0.3723   -1.2370   -2.2362 C   0  0  0  0  0  0  0  0  0  0  0  0
   -0.6719   -0.4663   -2.9531 H   0  0  0  0  0  0  0  0  0  0  0  0
    0.4408   -1.7987   -2.7038 H   0  0  0  0  0  0  0  0  0  0  0  0
   -1.5701   -2.1711   -2.1088 C   0  0  0  0  0  0  0  0  0  0  0  0
   -2.7073   -1.8208   -2.3684 O   0  0  0  0  0  0  0  0  0  0  0  0
   -1.4144   -3.4811   -1.7544 N   0  0  0  0  0  0  0  0  0  0  0  0
   -0.5770   -3.7282   -1.2353 H   0  0  0  0  0  0  0  0  0  0  0  0
   -2.2764   -3.9815   -1.5640 H   0  0  0  0  0  0  0  0  0  0  0  0
   -0.6808    1.1319    0.7370 C   0  0  0  0  0  0  0  0  0  0  0  0
   -1.5705    1.8224    0.2562 O   0  0  0  0  0  0  0  0  0  0  0  0
    0.2330    1.7074    1.6011 N   0  0  0  0  0  0  0  0  0  0  0  0
    0.9156    1.0964    2.0401 H   0  0  0  0  0  0  0  0  0  0  0  0
    0.1679    3.1035    2.0166 C   0  0  0  0  0  0  0  0  0  0  0  0
   -0.7656    3.3002    2.5542 H   0  0  0  0  0  0  0  0  0  0  0  0
    1.0059    3.3408    2.6789 H   0  0  0  0  0  0  0  0  0  0  0  0
    0.2192    3.7656    1.1457 H   0  0  0  0  0  0  0  0  0  0  0  0
  1  2  1  0  0  0  0
  2  3  1  0  0  0  0
  2  4  1  0  0  0  0
  2  5  1  0  0  0  0
  5  6  2  0  0  0  0
  5  7  1  0  0  0  0
  7  8  1  0  0  0  0
  7  9  1  0  0  0  0
  9 10  1  0  0  0  0
  9 11  1  0  0  0  0
  9 22  1  0  0  0  0
 11 12  1  0  0  0  0
 11 13  1  0  0  0  0
 11 14  1  0  0  0  0
 14 15  1  0  0  0  0
 14 16  1  0  0  0  0
 14 17  1  0  0  0  0
 17 18  2  0  0  0  0
 17 19  1  0  0  0  0
 19 20  1  0  0  0  0
 19 21  1  0  0  0  0
 22 23  2  0  0  0  0
 22 24  1  0  0  0  0
 24 25  1  0  0  0  0
 24 26  1  0  0  0  0
 26 27  1  0  0  0  0
 26 28  1  0  0  0  0
 26 29  1  0  0  0  0
M  END
$$$$

  -OEChem-04042215583D

 29 28  0     1  0  0  0  0  0999 V2000
   -3.4673   -3.5602    1.9450 H   0  0  0  0  0  0  0  0  0  0  0  0
   -3.4652   -2.5478    1.5318 C   0  0  0  0  0  0  0  0  0  0  0  0
   -3.9224   -1.8693    2.2560 H   0  0  0  0  0  0  0  0  0  0  0  0
   -4.0585   -2.5386    0.6139 H   0  0  0  0  0  0  0  0  0  0  0  0
   -2.0455   -2.1036    1.2352 C   0  0  0  0  0  0  0  0  0  0  0  0
   -1.1006   -2.8164    1.5393 O   0  0  0  0  0  0  0  0  0  0  0  0
   -1.8283   -0.9185    0.5662 N   0  0  0  0  0  0  0  0  0  0  0  0
   -2.6512   -0.4004    0.2522 H   0  0  0  0  0  0  0  0  0  0  0  0
   -0.5186   -0.3306    0.2678 C   0  0  1  0  0  0  0  0  0  0  0  0
    0.2056   -0.7735    0.9596 H   0  0  0  0  0  0  0  0  0  0  0  0
    0.0439   -0.5554   -1.1730 C   0  0  0  0  0  0  0  0  0  0  0  0
    0.2530    0.4303   -1.6045 H   0  0  0  0  0  0  0  0  0  0  0  0
    1.0186   -1.0371   -1.0435 H   0  0  0  0  0  0  0  0  0  0  0  0
   -0.6961   -1.3573   -2.2889 C   0  0  0  0  0  0  0  0  0  0  0  0
   -0.8304   -0.6861   -3.1424 H   0  0  0  0  0  0  0  0  0  0  0  0
   -0.0282   -2.1553   -2.6251 H   0  0  0  0  0  0  0  0  0  0  0  0
   -2.0580   -1.9929   -2.0313 C   0  0  0  0  0  0  0  0  0  0  0  0
   -3.1014   -1.3696   -2.1029 O   0  0  0  0  0  0  0  0  0  0  0  0
   -2.1777   -3.3226   -1.7392 N   0  0  0  0  0  0  0  0  0  0  0  0
   -3.1033   -3.6307   -1.4594 H   0  0  0  0  0  0  0  0  0  0  0  0
   -1.3578   -3.8083   -1.3873 H   0  0  0  0  0  0  0  0  0  0  0  0
   -0.5414    1.1792    0.5916 C   0  0  0  0  0  0  0  0  0  0  0  0
   -1.4890    1.8727    0.2453 O   0  0  0  0  0  0  0  0  0  0  0  0
    0.5078    1.7610    1.2800 N   0  0  0  0  0  0  0  0  0  0  0  0
    1.2427    1.1488    1.6222 H   0  0  0  0  0  0  0  0  0  0  0  0
    0.5280    3.1676    1.6639 C   0  0  0  0  0  0  0  0  0  0  0  0
   -0.2999    3.3909    2.3449 H   0  0  0  0  0  0  0  0  0  0  0  0
    1.4679    3.4079    2.1703 H   0  0  0  0  0  0  0  0  0  0  0  0
    0.4394    3.8080    0.7798 H   0  0  0  0  0  0  0  0  0  0  0  0
  1  2  1  0  0  0  0
  2  3  1  0  0  0  0
  2  4  1  0  0  0  0
  2  5  1  0  0  0  0
  5  6  2  0  0  0  0
  5  7  1  0  0  0  0
  7  8  1  0  0  0  0
  7  9  1  0  0  0  0
  9 10  1  0  0  0  0
  9 11  1  0  0  0  0
  9 22  1  0  0  0  0
 11 12  1  0  0  0  0
 11 13  1  0  0  0  0
 11 14  1  0  0  0  0
 14 15  1  0  0  0  0
 14 16  1  0  0  0  0
 14 17  1  0  0  0  0
 17 18  2  0  0  0  0
 17 19  1  0  0  0  0
 19 20  1  0  0  0  0
 19 21  1  0  0  0  0
 22 23  2  0  0  0  0
 22 24  1  0  0  0  0
 24 25  1  0  0  0  0
 24 26  1  0  0  0  0
 26 27  1  0  0  0  0
 26 28  1  0  0  0  0
 26 29  1  0  0  0  0
M  END
$$$$

  -OEChem-04042215583D

 29 28  0     1  0  0  0  0  0999 V2000
   -3.2306   -3.7929    2.1744 H   0  0  0  0  0  0  0  0  0  0  0  0
   -3.2625   -2.9342    1.4984 C   0  0  0  0  0  0  0  0  0  0  0  0
   -3.9903   -2.2130    1.8769 H   0  0  0  0  0  0  0  0  0  0  0  0
   -3.5793   -3.2778    0.5106 H   0  0  0  0  0  0  0  0  0  0  0  0
   -1.8923   -2.2902    1.4065 C   0  0  0  0  0  0  0  0  0  0  0  0
   -0.9550   -2.7512    2.0404 O   0  0  0  0  0  0  0  0  0  0  0  0
   -1.7139   -1.1609    0.6318 N   0  0  0  0  0  0  0  0  0  0  0  0
   -2.5245   -0.8111    0.1221 H   0  0  0  0  0  0  0  0  0  0  0  0
   -0.4221   -0.5042    0.3998 C   0  0  1  0  0  0  0  0  0  0  0  0
    0.2866   -0.8205    1.1722 H   0  0  0  0  0  0  0  0  0  0  0  0
    0.2457   -0.7630   -0.9924 C   0  0  0  0  0  0  0  0  0  0  0  0
    0.4259    0.2105   -1.4622 H   0  0  0  0  0  0  0  0  0  0  0  0
    1.2369   -1.1817   -0.7883 H   0  0  0  0  0  0  0  0  0  0  0  0
   -0.3916   -1.6534   -2.1026 C   0  0  0  0  0  0  0  0  0  0  0  0
   -0.2302   -1.1700   -3.0699 H   0  0  0  0  0  0  0  0  0  0  0  0
    0.1674   -2.5942   -2.1223 H   0  0  0  0  0  0  0  0  0  0  0  0
   -1.8652   -2.0364   -2.0167 C   0  0  0  0  0  0  0  0  0  0  0  0
   -2.2420   -3.1896   -1.9335 O   0  0  0  0  0  0  0  0  0  0  0  0
   -2.8532   -1.0957   -2.1211 N   0  0  0  0  0  0  0  0  0  0  0  0
   -3.7859   -1.4427   -2.3250 H   0  0  0  0  0  0  0  0  0  0  0  0
   -2.5986   -0.1385   -2.3522 H   0  0  0  0  0  0  0  0  0  0  0  0
   -0.6249    1.0163    0.5661 C   0  0  0  0  0  0  0  0  0  0  0  0
   -1.5406    1.5729   -0.0319 O   0  0  0  0  0  0  0  0  0  0  0  0
    0.2761    1.7725    1.2921 N   0  0  0  0  0  0  0  0  0  0  0  0
    0.9818    1.2730    1.8267 H   0  0  0  0  0  0  0  0  0  0  0  0
    0.1310    3.2093    1.4912 C   0  0  0  0  0  0  0  0  0  0  0  0
   -0.7984    3.4292    2.0268 H   0  0  0  0  0  0  0  0  0  0  0  0
    0.9694    3.5968    2.0781 H   0  0  0  0  0  0  0  0  0  0  0  0
    0.1152    3.7307    0.5285 H   0  0  0  0  0  0  0  0  0  0  0  0
  1  2  1  0  0  0  0
  2  3  1  0  0  0  0
  2  4  1  0  0  0  0
  2  5  1  0  0  0  0
  5  6  2  0  0  0  0
  5  7  1  0  0  0  0
  7  8  1  0  0  0  0
  7  9  1  0  0  0  0
  9 10  1  0  0  0  0
  9 11  1  0  0  0  0
  9 22  1  0  0  0  0
 11 12  1  0  0  0  0
 11 13  1  0  0  0  0
 11 14  1  0  0  0  0
 14 15  1  0  0  0  0
 14 16  1  0  0  0  0
 14 17  1  0  0  0  0
 17 18  2  0  0  0  0
 17 19  1  0  0  0  0
 19 20  1  0  0  0  0
 19 21  1  0  0  0  0
 22 23  2  0  0  0  0
 22 24  1  0  0  0  0
 24 25  1  0  0  0  0
 24 26  1  0  0  0  0
 26 27  1  0  0  0  0
 26 28  1  0  0  0  0
 26 29  1  0  0  0  0
M  END
$$$$

  -OEChem-04042215583D

 29 28  0     1  0  0  0  0  0999 V2000
   -3.4270   -3.7206    1.6275 H   0  0  0  0  0  0  0  0  0  0  0  0
   -3.4282   -2.7443    1.1355 C   0  0  0  0  0  0  0  0  0  0  0  0
   -4.0594   -2.0612    1.7090 H   0  0  0  0  0  0  0  0  0  0  0  0
   -3.8439   -2.8542    0.1313 H   0  0  0  0  0  0  0  0  0  0  0  0
   -2.0161   -2.1962    1.0543 C   0  0  0  0  0  0  0  0  0  0  0  0
   -1.0763   -2.8604    1.4648 O   0  0  0  0  0  0  0  0  0  0  0  0
   -1.7966   -0.9571    0.4926 N   0  0  0  0  0  0  0  0  0  0  0  0
   -2.6011   -0.4684    0.0918 H   0  0  0  0  0  0  0  0  0  0  0  0
   -0.4954   -0.2950    0.3572 C   0  0  1  0  0  0  0  0  0  0  0  0
    0.1810   -0.7594    1.0820 H   0  0  0  0  0  0  0  0  0  0  0  0
    0.1871   -0.4468   -1.0372 C   0  0  0  0  0  0  0  0  0  0  0  0
    0.3297    0.5664   -1.4300 H   0  0  0  0  0  0  0  0  0  0  0  0
    1.1887   -0.8583   -0.8755 H   0  0  0  0  0  0  0  0  0  0  0  0
   -0.4695   -1.2471   -2.2001 C   0  0  0  0  0  0  0  0  0  0  0  0
   -0.0870   -0.8612   -3.1489 H   0  0  0  0  0  0  0  0  0  0  0  0
   -0.1170   -2.2780   -2.1071 H   0  0  0  0  0  0  0  0  0  0  0  0
   -1.9916   -1.3206   -2.3079 C   0  0  0  0  0  0  0  0  0  0  0  0
   -2.7126   -0.3453   -2.2220 O   0  0  0  0  0  0  0  0  0  0  0  0
   -2.6395   -2.5034   -2.5275 N   0  0  0  0  0  0  0  0  0  0  0  0
   -3.6140   -2.4250   -2.8041 H   0  0  0  0  0  0  0  0  0  0  0  0
   -2.0940   -3.3105   -2.8111 H   0  0  0  0  0  0  0  0  0  0  0  0
   -0.5839    1.1895    0.7745 C   0  0  0  0  0  0  0  0  0  0  0  0
   -1.5244    1.8867    0.4187 O   0  0  0  0  0  0  0  0  0  0  0  0
    0.3915    1.7405    1.5864 N   0  0  0  0  0  0  0  0  0  0  0  0
    1.1099    1.1183    1.9446 H   0  0  0  0  0  0  0  0  0  0  0  0
    0.3383    3.1117    2.0795 C   0  0  0  0  0  0  0  0  0  0  0  0
   -0.5394    3.2551    2.7183 H   0  0  0  0  0  0  0  0  0  0  0  0
    1.2344    3.3385    2.6651 H   0  0  0  0  0  0  0  0  0  0  0  0
    0.2851    3.8182    1.2445 H   0  0  0  0  0  0  0  0  0  0  0  0
  1  2  1  0  0  0  0
  2  3  1  0  0  0  0
  2  4  1  0  0  0  0
  2  5  1  0  0  0  0
  5  6  2  0  0  0  0
  5  7  1  0  0  0  0
  7  8  1  0  0  0  0
  7  9  1  0  0  0  0
  9 10  1  0  0  0  0
  9 11  1  0  0  0  0
  9 22  1  0  0  0  0
 11 12  1  0  0  0  0
 11 13  1  0  0  0  0
 11 14  1  0  0  0  0
 14 15  1  0  0  0  0
 14 16  1  0  0  0  0
 14 17  1  0  0  0  0
 17 18  2  0  0  0  0
 17 19  1  0  0  0  0
 19 20  1  0  0  0  0
 19 21  1  0  0  0  0
 22 23  2  0  0  0  0
 22 24  1  0  0  0  0
 24 25  1  0  0  0  0
 24 26  1  0  0  0  0
 26 27  1  0  0  0  0
 26 28  1  0  0  0  0
 26 29  1  0  0  0  0
M  END
$$$$

  -OEChem-04042215583D

 29 28  0     1  0  0  0  0  0999 V2000
   -3.4064   -3.7709    1.4311 H   0  0  0  0  0  0  0  0  0  0  0  0
   -3.4088   -2.7635    1.0061 C   0  0  0  0  0  0  0  0  0  0  0  0
   -4.0276   -2.1173    1.6333 H   0  0  0  0  0  0  0  0  0  0  0  0
   -3.8395   -2.8037    0.0028 H   0  0  0  0  0  0  0  0  0  0  0  0
   -1.9951   -2.2182    0.9400 C   0  0  0  0  0  0  0  0  0  0  0  0
   -1.0564   -2.8957    1.3297 O   0  0  0  0  0  0  0  0  0  0  0  0
   -1.7721   -0.9716    0.3978 N   0  0  0  0  0  0  0  0  0  0  0  0
   -2.5834   -0.4445    0.0689 H   0  0  0  0  0  0  0  0  0  0  0  0
   -0.4773   -0.2841    0.3251 C   0  0  1  0  0  0  0  0  0  0  0  0
    0.1673   -0.7398    1.0836 H   0  0  0  0  0  0  0  0  0  0  0  0
    0.2704   -0.4496   -1.0296 C   0  0  0  0  0  0  0  0  0  0  0  0
    0.4223    0.5531   -1.4455 H   0  0  0  0  0  0  0  0  0  0  0  0
    1.2643   -0.8591   -0.8224 H   0  0  0  0  0  0  0  0  0  0  0  0
   -0.3698   -1.2943   -2.1626 C   0  0  0  0  0  0  0  0  0  0  0  0
    0.1895   -1.1269   -3.0870 H   0  0  0  0  0  0  0  0  0  0  0  0
   -0.2461   -2.3466   -1.8915 H   0  0  0  0  0  0  0  0  0  0  0  0
   -1.8510   -1.0750   -2.4620 C   0  0  0  0  0  0  0  0  0  0  0  0
   -2.3700    0.0232   -2.4684 O   0  0  0  0  0  0  0  0  0  0  0  0
   -2.6863   -2.1179   -2.7478 N   0  0  0  0  0  0  0  0  0  0  0  0
   -3.5889   -1.8596   -3.1362 H   0  0  0  0  0  0  0  0  0  0  0  0
   -2.2763   -3.0187   -2.9710 H   0  0  0  0  0  0  0  0  0  0  0  0
   -0.6014    1.1968    0.7455 C   0  0  0  0  0  0  0  0  0  0  0  0
   -1.5765    1.8605    0.4202 O   0  0  0  0  0  0  0  0  0  0  0  0
    0.3325    1.7543    1.6007 N   0  0  0  0  0  0  0  0  0  0  0  0
    1.0778    1.1533    1.9395 H   0  0  0  0  0  0  0  0  0  0  0  0
    0.2142    3.1028    2.1424 C   0  0  0  0  0  0  0  0  0  0  0  0
   -0.6710    3.1816    2.7820 H   0  0  0  0  0  0  0  0  0  0  0  0
    1.0971    3.3496    2.7395 H   0  0  0  0  0  0  0  0  0  0  0  0
    0.1303    3.8359    1.3333 H   0  0  0  0  0  0  0  0  0  0  0  0
  1  2  1  0  0  0  0
  2  3  1  0  0  0  0
  2  4  1  0  0  0  0
  2  5  1  0  0  0  0
  5  6  2  0  0  0  0
  5  7  1  0  0  0  0
  7  8  1  0  0  0  0
  7  9  1  0  0  0  0
  9 10  1  0  0  0  0
  9 11  1  0  0  0  0
  9 22  1  0  0  0  0
 11 12  1  0  0  0  0
 11 13  1  0  0  0  0
 11 14  1  0  0  0  0
 14 15  1  0  0  0  0
 14 16  1  0  0  0  0
 14 17  1  0  0  0  0
 17 18  2  0  0  0  0
 17 19  1  0  0  0  0
 19 20  1  0  0  0  0
 19 21  1  0  0  0  0
 22 23  2  0  0  0  0
 22 24  1  0  0  0  0
 24 25  1  0  0  0  0
 24 26  1  0  0  0  0
 26 27  1  0  0  0  0
 26 28  1  0  0  0  0
 26 29  1  0  0  0  0
M  END
$$$$

  -OEChem-04042215583D

 29 28  0     1  0  0  0  0  0999 V2000
   -3.3953   -3.8074    1.3284 H   0  0  0  0  0  0  0  0  0  0  0  0
   -3.3924   -2.7817    0.9489 C   0  0  0  0  0  0  0  0  0  0  0  0
   -3.9688   -2.1516    1.6308 H   0  0  0  0  0  0  0  0  0  0  0  0
   -3.8660   -2.7675   -0.0356 H   0  0  0  0  0  0  0  0  0  0  0  0
   -1.9700   -2.2649    0.8469 C   0  0  0  0  0  0  0  0  0  0  0  0
   -1.0376   -2.9572    1.2240 O   0  0  0  0  0  0  0  0  0  0  0  0
   -1.7323   -1.0260    0.2923 N   0  0  0  0  0  0  0  0  0  0  0  0
   -2.5453   -0.4601    0.0451 H   0  0  0  0  0  0  0  0  0  0  0  0
   -0.4341   -0.3354    0.2853 C   0  0  1  0  0  0  0  0  0  0  0  0
    0.1767   -0.7745    1.0811 H   0  0  0  0  0  0  0  0  0  0  0  0
    0.3736   -0.4979   -1.0320 C   0  0  0  0  0  0  0  0  0  0  0  0
    0.5767    0.4970   -1.4460 H   0  0  0  0  0  0  0  0  0  0  0  0
    1.3423   -0.9422   -0.7821 H   0  0  0  0  0  0  0  0  0  0  0  0
   -0.2616   -1.3458   -2.1566 C   0  0  0  0  0  0  0  0  0  0  0  0
    0.4269   -1.3863   -3.0046 H   0  0  0  0  0  0  0  0  0  0  0  0
   -0.3941   -2.3691   -1.7944 H   0  0  0  0  0  0  0  0  0  0  0  0
   -1.6014   -0.8212   -2.6629 C   0  0  0  0  0  0  0  0  0  0  0  0
   -1.7361    0.3153   -3.0701 O   0  0  0  0  0  0  0  0  0  0  0  0
   -2.7082   -1.6185   -2.7456 N   0  0  0  0  0  0  0  0  0  0  0  0
   -3.4699   -1.2399   -3.3015 H   0  0  0  0  0  0  0  0  0  0  0  0
   -2.5785   -2.6222   -2.6814 H   0  0  0  0  0  0  0  0  0  0  0  0
   -0.6115    1.1477    0.6739 C   0  0  0  0  0  0  0  0  0  0  0  0
   -1.6047    1.7634    0.3087 O   0  0  0  0  0  0  0  0  0  0  0  0
    0.2522    1.7403    1.5773 N   0  0  0  0  0  0  0  0  0  0  0  0
    1.0184    1.1788    1.9369 H   0  0  0  0  0  0  0  0  0  0  0  0
    0.0732    3.0966    2.0819 C   0  0  0  0  0  0  0  0  0  0  0  0
   -0.8643    3.1766    2.6421 H   0  0  0  0  0  0  0  0  0  0  0  0
    0.8987    3.3647    2.7482 H   0  0  0  0  0  0  0  0  0  0  0  0
    0.0511    3.8135    1.2542 H   0  0  0  0  0  0  0  0  0  0  0  0
  1  2  1  0  0  0  0
  2  3  1  0  0  0  0
  2  4  1  0  0  0  0
  2  5  1  0  0  0  0
  5  6  2  0  0  0  0
  5  7  1  0  0  0  0
  7  8  1  0  0  0  0
  7  9  1  0  0  0  0
  9 10  1  0  0  0  0
  9 11  1  0  0  0  0
  9 22  1  0  0  0  0
 11 12  1  0  0  0  0
 11 13  1  0  0  0  0
 11 14  1  0  0  0  0
 14 15  1  0  0  0  0
 14 16  1  0  0  0  0
 14 17  1  0  0  0  0
 17 18  2  0  0  0  0
 17 19  1  0  0  0  0
 19 20  1  0  0  0  0
 19 21  1  0  0  0  0
 22 23  2  0  0  0  0
 22 24  1  0  0  0  0
 24 25  1  0  0  0  0
 24 26  1  0  0  0  0
 26 27  1  0  0  0  0
 26 28  1  0  0  0  0
 26 29  1  0  0  0  0
M  END
$$$$

  -OEChem-04042215583D

 29 28  0     1  0  0  0  0  0999 V2000
   -3.3929   -3.8309    1.3297 H   0  0  0  0  0  0  0  0  0  0  0  0
   -3.3778   -2.8190    0.9152 C   0  0  0  0  0  0  0  0  0  0  0  0
   -3.9773   -2.1667    1.5549 H   0  0  0  0  0  0  0  0  0  0  0  0
   -3.8183   -2.8408   -0.0842 H   0  0  0  0  0  0  0  0  0  0  0  0
   -1.9531   -2.3032    0.8440 C   0  0  0  0  0  0  0  0  0  0  0  0
   -1.0339   -2.9788    1.2779 O   0  0  0  0  0  0  0  0  0  0  0  0
   -1.6992   -1.0811    0.2593 N   0  0  0  0  0  0  0  0  0  0  0  0
   -2.5051   -0.5195   -0.0180 H   0  0  0  0  0  0  0  0  0  0  0  0
   -0.4026   -0.3846    0.2867 C   0  0  1  0  0  0  0  0  0  0  0  0
    0.1900   -0.7979    1.1098 H   0  0  0  0  0  0  0  0  0  0  0  0
    0.4347   -0.5512   -1.0100 C   0  0  0  0  0  0  0  0  0  0  0  0
    0.6775    0.4346   -1.4249 H   0  0  0  0  0  0  0  0  0  0  0  0
    1.3845   -1.0180   -0.7305 H   0  0  0  0  0  0  0  0  0  0  0  0
   -0.1980   -1.4096   -2.1254 C   0  0  0  0  0  0  0  0  0  0  0  0
    0.5728   -1.6505   -2.8625 H   0  0  0  0  0  0  0  0  0  0  0  0
   -0.5595   -2.3585   -1.7210 H   0  0  0  0  0  0  0  0  0  0  0  0
   -1.3184   -0.6808   -2.8583 C   0  0  0  0  0  0  0  0  0  0  0  0
   -1.1221    0.3522   -3.4684 O   0  0  0  0  0  0  0  0  0  0  0  0
   -2.5916   -1.1744   -2.9069 N   0  0  0  0  0  0  0  0  0  0  0  0
   -3.2066   -0.7197   -3.5759 H   0  0  0  0  0  0  0  0  0  0  0  0
   -2.7389   -2.1465   -2.6608 H   0  0  0  0  0  0  0  0  0  0  0  0
   -0.6183    1.1063    0.6211 C   0  0  0  0  0  0  0  0  0  0  0  0
   -1.5971    1.6947    0.1782 O   0  0  0  0  0  0  0  0  0  0  0  0
    0.1923    1.7422    1.5435 N   0  0  0  0  0  0  0  0  0  0  0  0
    0.9526    1.2078    1.9537 H   0  0  0  0  0  0  0  0  0  0  0  0
   -0.0203    3.1167    1.9805 C   0  0  0  0  0  0  0  0  0  0  0  0
   -0.9813    3.2097    2.4969 H   0  0  0  0  0  0  0  0  0  0  0  0
    0.7740    3.4223    2.6684 H   0  0  0  0  0  0  0  0  0  0  0  0
   -0.0135    3.7970    1.1222 H   0  0  0  0  0  0  0  0  0  0  0  0
  1  2  1  0  0  0  0
  2  3  1  0  0  0  0
  2  4  1  0  0  0  0
  2  5  1  0  0  0  0
  5  6  2  0  0  0  0
  5  7  1  0  0  0  0
  7  8  1  0  0  0  0
  7  9  1  0  0  0  0
  9 10  1  0  0  0  0
  9 11  1  0  0  0  0
  9 22  1  0  0  0  0
 11 12  1  0  0  0  0
 11 13  1  0  0  0  0
 11 14  1  0  0  0  0
 14 15  1  0  0  0  0
 14 16  1  0  0  0  0
 14 17  1  0  0  0  0
 17 18  2  0  0  0  0
 17 19  1  0  0  0  0
 19 20  1  0  0  0  0
 19 21  1  0  0  0  0
 22 23  2  0  0  0  0
 22 24  1  0  0  0  0
 24 25  1  0  0  0  0
 24 26  1  0  0  0  0
 26 27  1  0  0  0  0
 26 28  1  0  0  0  0
 26 29  1  0  0  0  0
M  END
$$$$

  -OEChem-04042215583D

 29 28  0     1  0  0  0  0  0999 V2000
   -3.3827   -3.8343    1.4530 H   0  0  0  0  0  0  0  0  0  0  0  0
   -3.3687   -2.8512    0.9740 C   0  0  0  0  0  0  0  0  0  0  0  0
   -3.9732   -2.1616    1.5682 H   0  0  0  0  0  0  0  0  0  0  0  0
   -3.8040   -2.9394   -0.0241 H   0  0  0  0  0  0  0  0  0  0  0  0
   -1.9449   -2.3373    0.8762 C   0  0  0  0  0  0  0  0  0  0  0  0
   -1.0240   -2.9953    1.3328 O   0  0  0  0  0  0  0  0  0  0  0  0
   -1.6945   -1.1308    0.2562 N   0  0  0  0  0  0  0  0  0  0  0  0
   -2.5025   -0.5664   -0.0071 H   0  0  0  0  0  0  0  0  0  0  0  0
   -0.4002   -0.4296    0.2857 C   0  0  1  0  0  0  0  0  0  0  0  0
    0.1846   -0.8154    1.1276 H   0  0  0  0  0  0  0  0  0  0  0  0
    0.4580   -0.6066   -0.9962 C   0  0  0  0  0  0  0  0  0  0  0  0
    0.7279    0.3728   -1.4098 H   0  0  0  0  0  0  0  0  0  0  0  0
    1.3955   -1.0799   -0.6871 H   0  0  0  0  0  0  0  0  0  0  0  0
   -0.1432   -1.4806   -2.1191 C   0  0  0  0  0  0  0  0  0  0  0  0
    0.6793   -1.9141   -2.6950 H   0  0  0  0  0  0  0  0  0  0  0  0
   -0.7184   -2.3206   -1.7247 H   0  0  0  0  0  0  0  0  0  0  0  0
   -0.9752   -0.6541   -3.0911 C   0  0  0  0  0  0  0  0  0  0  0  0
   -0.4662    0.1608   -3.8370 O   0  0  0  0  0  0  0  0  0  0  0  0
   -2.3308   -0.7932   -3.1822 N   0  0  0  0  0  0  0  0  0  0  0  0
   -2.7789   -0.3077   -3.9539 H   0  0  0  0  0  0  0  0  0  0  0  0
   -2.7744   -1.5945   -2.7494 H   0  0  0  0  0  0  0  0  0  0  0  0
   -0.6402    1.0670    0.5733 C   0  0  0  0  0  0  0  0  0  0  0  0
   -1.6118    1.6300    0.0825 O   0  0  0  0  0  0  0  0  0  0  0  0
    0.1426    1.7415    1.4919 N   0  0  0  0  0  0  0  0  0  0  0  0
    0.9037    1.2312    1.9308 H   0  0  0  0  0  0  0  0  0  0  0  0
   -0.0956    3.1265    1.8806 C   0  0  0  0  0  0  0  0  0  0  0  0
   -1.0801    3.2293    2.3492 H   0  0  0  0  0  0  0  0  0  0  0  0
    0.6641    3.4547    2.5965 H   0  0  0  0  0  0  0  0  0  0  0  0
   -0.0515    3.7833    1.0052 H   0  0  0  0  0  0  0  0  0  0  0  0
  1  2  1  0  0  0  0
  2  3  1  0  0  0  0
  2  4  1  0  0  0  0
  2  5  1  0  0  0  0
  5  6  2  0  0  0  0
  5  7  1  0  0  0  0
  7  8  1  0  0  0  0
  7  9  1  0  0  0  0
  9 10  1  0  0  0  0
  9 11  1  0  0  0  0
  9 22  1  0  0  0  0
 11 12  1  0  0  0  0
 11 13  1  0  0  0  0
 11 14  1  0  0  0  0
 14 15  1  0  0  0  0
 14 16  1  0  0  0  0
 14 17  1  0  0  0  0
 17 18  2  0  0  0  0
 17 19  1  0  0  0  0
 19 20  1  0  0  0  0
 19 21  1  0  0  0  0
 22 23  2  0  0  0  0
 22 24  1  0  0  0  0
 24 25  1  0  0  0  0
 24 26  1  0  0  0  0
 26 27  1  0  0  0  0
 26 28  1  0  0  0  0
 26 29  1  0  0  0  0
M  END
$$$$

  -OEChem-04042215583D

 29 28  0     1  0  0  0  0  0999 V2000
   -3.2856   -4.0234    1.6270 H   0  0  0  0  0  0  0  0  0  0  0  0
   -3.2996   -3.0892    1.0584 C   0  0  0  0  0  0  0  0  0  0  0  0
   -4.0086   -2.4022    1.5268 H   0  0  0  0  0  0  0  0  0  0  0  0
   -3.6290   -3.3028    0.0386 H   0  0  0  0  0  0  0  0  0  0  0  0
   -1.9153   -2.4695    1.0369 C   0  0  0  0  0  0  0  0  0  0  0  0
   -1.0012   -2.9896    1.6562 O   0  0  0  0  0  0  0  0  0  0  0  0
   -1.6947   -1.3106    0.3209 N   0  0  0  0  0  0  0  0  0  0  0  0
   -2.5041   -0.8667   -0.1102 H   0  0  0  0  0  0  0  0  0  0  0  0
   -0.4232   -0.5684    0.3058 C   0  0  1  0  0  0  0  0  0  0  0  0
    0.1969   -0.8709    1.1564 H   0  0  0  0  0  0  0  0  0  0  0  0
    0.4018   -0.7464   -1.0010 C   0  0  0  0  0  0  0  0  0  0  0  0
    0.6668    0.2272   -1.4310 H   0  0  0  0  0  0  0  0  0  0  0  0
    1.3495   -1.2059   -0.7007 H   0  0  0  0  0  0  0  0  0  0  0  0
   -0.1980   -1.6561   -2.1012 C   0  0  0  0  0  0  0  0  0  0  0  0
    0.6091   -2.2721   -2.5093 H   0  0  0  0  0  0  0  0  0  0  0  0
   -0.9548   -2.3499   -1.7353 H   0  0  0  0  0  0  0  0  0  0  0  0
   -0.7613   -0.8279   -3.2511 C   0  0  0  0  0  0  0  0  0  0  0  0
   -0.5028   -1.0848   -4.4111 O   0  0  0  0  0  0  0  0  0  0  0  0
   -1.6235    0.2127   -3.0410 N   0  0  0  0  0  0  0  0  0  0  0  0
   -1.8173    0.7934   -3.8507 H   0  0  0  0  0  0  0  0  0  0  0  0
   -1.6886    0.6174   -2.1053 H   0  0  0  0  0  0  0  0  0  0  0  0
   -0.7414    0.9302    0.4668 C   0  0  0  0  0  0  0  0  0  0  0  0
   -1.6032    1.4297   -0.2509 O   0  0  0  0  0  0  0  0  0  0  0  0
   -0.0186    1.7260    1.3342 N   0  0  0  0  0  0  0  0  0  0  0  0
    0.6641    1.2715    1.9351 H   0  0  0  0  0  0  0  0  0  0  0  0
   -0.2684    3.1521    1.5048 C   0  0  0  0  0  0  0  0  0  0  0  0
   -1.2931    3.3233    1.8510 H   0  0  0  0  0  0  0  0  0  0  0  0
    0.4207    3.5712    2.2443 H   0  0  0  0  0  0  0  0  0  0  0  0
   -0.1226    3.6829    0.5580 H   0  0  0  0  0  0  0  0  0  0  0  0
  1  2  1  0  0  0  0
  2  3  1  0  0  0  0
  2  4  1  0  0  0  0
  2  5  1  0  0  0  0
  5  6  2  0  0  0  0
  5  7  1  0  0  0  0
  7  8  1  0  0  0  0
  7  9  1  0  0  0  0
  9 10  1  0  0  0  0
  9 11  1  0  0  0  0
  9 22  1  0  0  0  0
 11 12  1  0  0  0  0
 11 13  1  0  0  0  0
 11 14  1  0  0  0  0
 14 15  1  0  0  0  0
 14 16  1  0  0  0  0
 14 17  1  0  0  0  0
 17 18  2  0  0  0  0
 17 19  1  0  0  0  0
 19 20  1  0  0  0  0
 19 21  1  0  0  0  0
 22 23  2  0  0  0  0
 22 24  1  0  0  0  0
 24 25  1  0  0  0  0
 24 26  1  0  0  0  0
 26 27  1  0  0  0  0
 26 28  1  0  0  0  0
 26 29  1  0  0  0  0
M  END
$$$$

  -OEChem-04042215583D

 29 28  0     1  0  0  0  0  0999 V2000
   -3.3031   -3.9639    1.7942 H   0  0  0  0  0  0  0  0  0  0  0  0
   -3.3166   -3.0501    1.1935 C   0  0  0  0  0  0  0  0  0  0  0  0
   -4.0082   -2.3383    1.6505 H   0  0  0  0  0  0  0  0  0  0  0  0
   -3.6683   -3.2957    0.1885 H   0  0  0  0  0  0  0  0  0  0  0  0
   -1.9251   -2.4497    1.1243 C   0  0  0  0  0  0  0  0  0  0  0  0
   -1.0057   -2.9650    1.7395 O   0  0  0  0  0  0  0  0  0  0  0  0
   -1.7040   -1.3146    0.3712 N   0  0  0  0  0  0  0  0  0  0  0  0
   -2.5173   -0.8639   -0.0455 H   0  0  0  0  0  0  0  0  0  0  0  0
   -0.4266   -0.5855    0.3178 C   0  0  1  0  0  0  0  0  0  0  0  0
    0.2034   -0.8689    1.1677 H   0  0  0  0  0  0  0  0  0  0  0  0
    0.3814   -0.7940   -0.9953 C   0  0  0  0  0  0  0  0  0  0  0  0
    0.6388    0.1761   -1.4376 H   0  0  0  0  0  0  0  0  0  0  0  0
    1.3370   -1.2425   -0.7033 H   0  0  0  0  0  0  0  0  0  0  0  0
   -0.2279   -1.7187   -2.0815 C   0  0  0  0  0  0  0  0  0  0  0  0
    0.4708   -2.5364   -2.2827 H   0  0  0  0  0  0  0  0  0  0  0  0
   -1.1731   -2.1793   -1.7970 H   0  0  0  0  0  0  0  0  0  0  0  0
   -0.4434   -0.9395   -3.3719 C   0  0  0  0  0  0  0  0  0  0  0  0
    0.1176   -1.2353   -4.4091 O   0  0  0  0  0  0  0  0  0  0  0  0
   -1.2824    0.1397   -3.4108 N   0  0  0  0  0  0  0  0  0  0  0  0
   -1.2335    0.7089   -4.2502 H   0  0  0  0  0  0  0  0  0  0  0  0
   -1.5737    0.5612   -2.5292 H   0  0  0  0  0  0  0  0  0  0  0  0
   -0.7363    0.9196    0.4385 C   0  0  0  0  0  0  0  0  0  0  0  0
   -1.5958    1.4059   -0.2915 O   0  0  0  0  0  0  0  0  0  0  0  0
    0.0022    1.7355    1.2740 N   0  0  0  0  0  0  0  0  0  0  0  0
    0.6932    1.2947    1.8755 H   0  0  0  0  0  0  0  0  0  0  0  0
   -0.2268    3.1698    1.3974 C   0  0  0  0  0  0  0  0  0  0  0  0
   -1.2525    3.3682    1.7259 H   0  0  0  0  0  0  0  0  0  0  0  0
    0.4602    3.6001    2.1324 H   0  0  0  0  0  0  0  0  0  0  0  0
   -0.0608    3.6682    0.4366 H   0  0  0  0  0  0  0  0  0  0  0  0
  1  2  1  0  0  0  0
  2  3  1  0  0  0  0
  2  4  1  0  0  0  0
  2  5  1  0  0  0  0
  5  6  2  0  0  0  0
  5  7  1  0  0  0  0
  7  8  1  0  0  0  0
  7  9  1  0  0  0  0
  9 10  1  0  0  0  0
  9 11  1  0  0  0  0
  9 22  1  0  0  0  0
 11 12  1  0  0  0  0
 11 13  1  0  0  0  0
 11 14  1  0  0  0  0
 14 15  1  0  0  0  0
 14 16  1  0  0  0  0
 14 17  1  0  0  0  0
 17 18  2  0  0  0  0
 17 19  1  0  0  0  0
 19 20  1  0  0  0  0
 19 21  1  0  0  0  0
 22 23  2  0  0  0  0
 22 24  1  0  0  0  0
 24 25  1  0  0  0  0
 24 26  1  0  0  0  0
 26 27  1  0  0  0  0
 26 28  1  0  0  0  0
 26 29  1  0  0  0  0
M  END
$$$$

  -OEChem-04042215583D

 29 28  0     1  0  0  0  0  0999 V2000
   -3.3133   -3.8929    1.8846 H   0  0  0  0  0  0  0  0  0  0  0  0
   -3.3285   -2.9932    1.2627 C   0  0  0  0  0  0  0  0  0  0  0  0
   -4.0032   -2.2628    1.7160 H   0  0  0  0  0  0  0  0  0  0  0  0
   -3.7017   -3.2579    0.2704 H   0  0  0  0  0  0  0  0  0  0  0  0
   -1.9321   -2.4107    1.1528 C   0  0  0  0  0  0  0  0  0  0  0  0
   -1.0006   -2.9429    1.7347 O   0  0  0  0  0  0  0  0  0  0  0  0
   -1.7211   -1.2740    0.3994 N   0  0  0  0  0  0  0  0  0  0  0  0
   -2.5427   -0.8050    0.0208 H   0  0  0  0  0  0  0  0  0  0  0  0
   -0.4400   -0.5548    0.3160 C   0  0  1  0  0  0  0  0  0  0  0  0
    0.1947   -0.8439    1.1605 H   0  0  0  0  0  0  0  0  0  0  0  0
    0.3564   -0.8124   -0.9959 C   0  0  0  0  0  0  0  0  0  0  0  0
    0.5642    0.1518   -1.4750 H   0  0  0  0  0  0  0  0  0  0  0  0
    1.3329   -1.2249   -0.7205 H   0  0  0  0  0  0  0  0  0  0  0  0
   -0.2697   -1.7691   -2.0443 C   0  0  0  0  0  0  0  0  0  0  0  0
    0.2354   -2.7389   -2.0050 H   0  0  0  0  0  0  0  0  0  0  0  0
   -1.3307   -1.9507   -1.8743 H   0  0  0  0  0  0  0  0  0  0  0  0
   -0.1542   -1.1843   -3.4453 C   0  0  0  0  0  0  0  0  0  0  0  0
    0.6431   -1.6098   -4.2581 O   0  0  0  0  0  0  0  0  0  0  0  0
   -0.9213   -0.1243   -3.8393 N   0  0  0  0  0  0  0  0  0  0  0  0
   -0.6515    0.3195   -4.7121 H   0  0  0  0  0  0  0  0  0  0  0  0
   -1.4199    0.4066   -3.1299 H   0  0  0  0  0  0  0  0  0  0  0  0
   -0.7156    0.9562    0.4496 C   0  0  0  0  0  0  0  0  0  0  0  0
   -1.6156    1.4607   -0.2141 O   0  0  0  0  0  0  0  0  0  0  0  0
    0.0639    1.7514    1.2682 N   0  0  0  0  0  0  0  0  0  0  0  0
    0.7752    1.2937    1.8321 H   0  0  0  0  0  0  0  0  0  0  0  0
   -0.1612    3.1812    1.4428 C   0  0  0  0  0  0  0  0  0  0  0  0
   -1.1699    3.3668    1.8266 H   0  0  0  0  0  0  0  0  0  0  0  0
    0.5602    3.5935    2.1548 H   0  0  0  0  0  0  0  0  0  0  0  0
   -0.0442    3.7070    0.4894 H   0  0  0  0  0  0  0  0  0  0  0  0
  1  2  1  0  0  0  0
  2  3  1  0  0  0  0
  2  4  1  0  0  0  0
  2  5  1  0  0  0  0
  5  6  2  0  0  0  0
  5  7  1  0  0  0  0
  7  8  1  0  0  0  0
  7  9  1  0  0  0  0
  9 10  1  0  0  0  0
  9 11  1  0  0  0  0
  9 22  1  0  0  0  0
 11 12  1  0  0  0  0
 11 13  1  0  0  0  0
 11 14  1  0  0  0  0
 14 15  1  0  0  0  0
 14 16  1  0  0  0  0
 14 17  1  0  0  0  0
 17 18  2  0  0  0  0
 17 19  1  0  0  0  0
 19 20  1  0  0  0  0
 19 21  1  0  0  0  0
 22 23  2  0  0  0  0
 22 24  1  0  0  0  0
 24 25  1  0  0  0  0
 24 26  1  0  0  0  0
 26 27  1  0  0  0  0
 26 28  1  0  0  0  0
 26 29  1  0  0  0  0
M  END
$$$$

  -OEChem-04042215583D

 29 28  0     1  0  0  0  0  0999 V2000
   -3.4040   -3.7685    1.6977 H   0  0  0  0  0  0  0  0  0  0  0  0
   -3.4006   -2.8031    1.1839 C   0  0  0  0  0  0  0  0  0  0  0  0
   -3.9869   -2.0911    1.7698 H   0  0  0  0  0  0  0  0  0  0  0  0
   -3.8633   -2.9248    0.2016 H   0  0  0  0  0  0  0  0  0  0  0  0
   -1.9782   -2.2986    1.0285 C   0  0  0  0  0  0  0  0  0  0  0  0
   -1.0461   -2.9565    1.4625 O   0  0  0  0  0  0  0  0  0  0  0  0
   -1.7445   -1.0998    0.3877 N   0  0  0  0  0  0  0  0  0  0  0  0
   -2.5587   -0.5368    0.1438 H   0  0  0  0  0  0  0  0  0  0  0  0
   -0.4407   -0.4181    0.3385 C   0  0  1  0  0  0  0  0  0  0  0  0
    0.1824   -0.8079    1.1503 H   0  0  0  0  0  0  0  0  0  0  0  0
    0.3472   -0.6334   -0.9833 C   0  0  0  0  0  0  0  0  0  0  0  0
    0.5337    0.3542   -1.4221 H   0  0  0  0  0  0  0  0  0  0  0  0
    1.3282   -1.0604   -0.7495 H   0  0  0  0  0  0  0  0  0  0  0  0
   -0.3252   -1.5199   -2.0622 C   0  0  0  0  0  0  0  0  0  0  0  0
   -0.0862   -2.5711   -1.8799 H   0  0  0  0  0  0  0  0  0  0  0  0
   -1.4101   -1.4088   -2.0217 H   0  0  0  0  0  0  0  0  0  0  0  0
    0.0752   -1.1312   -3.4841 C   0  0  0  0  0  0  0  0  0  0  0  0
    1.1228   -0.5704   -3.7479 O   0  0  0  0  0  0  0  0  0  0  0  0
   -0.7118   -1.4411   -4.5563 N   0  0  0  0  0  0  0  0  0  0  0  0
   -0.2914   -1.3076   -5.4714 H   0  0  0  0  0  0  0  0  0  0  0  0
   -1.4821   -2.0892   -4.4339 H   0  0  0  0  0  0  0  0  0  0  0  0
   -0.6347    1.0848    0.6280 C   0  0  0  0  0  0  0  0  0  0  0  0
   -1.6046    1.6710    0.1605 O   0  0  0  0  0  0  0  0  0  0  0  0
    0.2117    1.7509    1.4947 N   0  0  0  0  0  0  0  0  0  0  0  0
    0.9832    1.2269    1.8979 H   0  0  0  0  0  0  0  0  0  0  0  0
    0.0381    3.1498    1.8667 C   0  0  0  0  0  0  0  0  0  0  0  0
   -0.9210    3.2948    2.3747 H   0  0  0  0  0  0  0  0  0  0  0  0
    0.8386    3.4634    2.5438 H   0  0  0  0  0  0  0  0  0  0  0  0
    0.0669    3.7894    0.9782 H   0  0  0  0  0  0  0  0  0  0  0  0
  1  2  1  0  0  0  0
  2  3  1  0  0  0  0
  2  4  1  0  0  0  0
  2  5  1  0  0  0  0
  5  6  2  0  0  0  0
  5  7  1  0  0  0  0
  7  8  1  0  0  0  0
  7  9  1  0  0  0  0
  9 10  1  0  0  0  0
  9 11  1  0  0  0  0
  9 22  1  0  0  0  0
 11 12  1  0  0  0  0
 11 13  1  0  0  0  0
 11 14  1  0  0  0  0
 14 15  1  0  0  0  0
 14 16  1  0  0  0  0
 14 17  1  0  0  0  0
 17 18  2  0  0  0  0
 17 19  1  0  0  0  0
 19 20  1  0  0  0  0
 19 21  1  0  0  0  0
 22 23  2  0  0  0  0
 22 24  1  0  0  0  0
 24 25  1  0  0  0  0
 24 26  1  0  0  0  0
 26 27  1  0  0  0  0
 26 28  1  0  0  0  0
 26 29  1  0  0  0  0
M  END
$$$$

  -OEChem-04042215583D

 29 28  0     1  0  0  0  0  0999 V2000
   -3.4227   -3.7378    1.6869 H   0  0  0  0  0  0  0  0  0  0  0  0
   -3.4108   -2.7859    1.1487 C   0  0  0  0  0  0  0  0  0  0  0  0
   -4.0053   -2.0586    1.7071 H   0  0  0  0  0  0  0  0  0  0  0  0
   -3.8583   -2.9321    0.1628 H   0  0  0  0  0  0  0  0  0  0  0  0
   -1.9862   -2.2864    1.0018 C   0  0  0  0  0  0  0  0  0  0  0  0
   -1.0575   -2.9563    1.4245 O   0  0  0  0  0  0  0  0  0  0  0  0
   -1.7461   -1.0804    0.3775 N   0  0  0  0  0  0  0  0  0  0  0  0
   -2.5572   -0.5121    0.1357 H   0  0  0  0  0  0  0  0  0  0  0  0
   -0.4382   -0.4048    0.3384 C   0  0  1  0  0  0  0  0  0  0  0  0
    0.1876   -0.8116    1.1398 H   0  0  0  0  0  0  0  0  0  0  0  0
    0.3304   -0.6070   -0.9938 C   0  0  0  0  0  0  0  0  0  0  0  0
    0.5260    0.3785   -1.4336 H   0  0  0  0  0  0  0  0  0  0  0  0
    1.3055   -1.0567   -0.7778 H   0  0  0  0  0  0  0  0  0  0  0  0
   -0.3859   -1.4720   -2.0550 C   0  0  0  0  0  0  0  0  0  0  0  0
   -0.3726   -2.5209   -1.7461 H   0  0  0  0  0  0  0  0  0  0  0  0
   -1.4274   -1.1530   -2.1458 H   0  0  0  0  0  0  0  0  0  0  0  0
    0.2344   -1.3399   -3.4440 C   0  0  0  0  0  0  0  0  0  0  0  0
    1.2959   -0.7814   -3.6523 O   0  0  0  0  0  0  0  0  0  0  0  0
   -0.3635   -1.8931   -4.5398 N   0  0  0  0  0  0  0  0  0  0  0  0
    0.1995   -1.9243   -5.3849 H   0  0  0  0  0  0  0  0  0  0  0  0
   -1.1254   -2.5490   -4.4063 H   0  0  0  0  0  0  0  0  0  0  0  0
   -0.6188    1.0953    0.6475 C   0  0  0  0  0  0  0  0  0  0  0  0
   -1.5783    1.6986    0.1801 O   0  0  0  0  0  0  0  0  0  0  0  0
    0.2333    1.7422    1.5228 N   0  0  0  0  0  0  0  0  0  0  0  0
    0.9971    1.2045    1.9232 H   0  0  0  0  0  0  0  0  0  0  0  0
    0.0805    3.1418    1.9006 C   0  0  0  0  0  0  0  0  0  0  0  0
   -0.8881    3.3047    2.3847 H   0  0  0  0  0  0  0  0  0  0  0  0
    0.8697    3.4327    2.6004 H   0  0  0  0  0  0  0  0  0  0  0  0
    0.1464    3.7866    1.0179 H   0  0  0  0  0  0  0  0  0  0  0  0
  1  2  1  0  0  0  0
  2  3  1  0  0  0  0
  2  4  1  0  0  0  0
  2  5  1  0  0  0  0
  5  6  2  0  0  0  0
  5  7  1  0  0  0  0
  7  8  1  0  0  0  0
  7  9  1  0  0  0  0
  9 10  1  0  0  0  0
  9 11  1  0  0  0  0
  9 22  1  0  0  0  0
 11 12  1  0  0  0  0
 11 13  1  0  0  0  0
 11 14  1  0  0  0  0
 14 15  1  0  0  0  0
 14 16  1  0  0  0  0
 14 17  1  0  0  0  0
 17 18  2  0  0  0  0
 17 19  1  0  0  0  0
 19 20  1  0  0  0  0
 19 21  1  0  0  0  0
 22 23  2  0  0  0  0
 22 24  1  0  0  0  0
 24 25  1  0  0  0  0
 24 26  1  0  0  0  0
 26 27  1  0  0  0  0
 26 28  1  0  0  0  0
 26 29  1  0  0  0  0
M  END
$$$$

  -OEChem-04042215583D

 29 28  0     1  0  0  0  0  0999 V2000
   -3.4327   -3.7263    1.6904 H   0  0  0  0  0  0  0  0  0  0  0  0
   -3.4095   -2.7916    1.1228 C   0  0  0  0  0  0  0  0  0  0  0  0
   -4.0210   -2.0499    1.6424 H   0  0  0  0  0  0  0  0  0  0  0  0
   -3.8304   -2.9709    0.1306 H   0  0  0  0  0  0  0  0  0  0  0  0
   -1.9826   -2.2918    0.9974 C   0  0  0  0  0  0  0  0  0  0  0  0
   -1.0616   -2.9575    1.4425 O   0  0  0  0  0  0  0  0  0  0  0  0
   -1.7314   -1.0868    0.3750 N   0  0  0  0  0  0  0  0  0  0  0  0
   -2.5366   -0.5174    0.1174 H   0  0  0  0  0  0  0  0  0  0  0  0
   -0.4185   -0.4204    0.3470 C   0  0  1  0  0  0  0  0  0  0  0  0
    0.2175   -0.8295    1.1392 H   0  0  0  0  0  0  0  0  0  0  0  0
    0.3262   -0.5905   -1.0004 C   0  0  0  0  0  0  0  0  0  0  0  0
    0.8052    0.3546   -1.2825 H   0  0  0  0  0  0  0  0  0  0  0  0
    1.1288   -1.3208   -0.8484 H   0  0  0  0  0  0  0  0  0  0  0  0
   -0.5453   -1.0865   -2.1736 C   0  0  0  0  0  0  0  0  0  0  0  0
   -0.9741   -2.0618   -1.9284 H   0  0  0  0  0  0  0  0  0  0  0  0
   -1.3637   -0.3806   -2.3406 H   0  0  0  0  0  0  0  0  0  0  0  0
    0.2434   -1.2335   -3.4727 C   0  0  0  0  0  0  0  0  0  0  0  0
    1.4249   -0.9576   -3.5731 O   0  0  0  0  0  0  0  0  0  0  0  0
   -0.3486   -1.7048   -4.6092 N   0  0  0  0  0  0  0  0  0  0  0  0
    0.2752   -1.9280   -5.3791 H   0  0  0  0  0  0  0  0  0  0  0  0
   -1.2659   -2.1325   -4.5490 H   0  0  0  0  0  0  0  0  0  0  0  0
   -0.6065    1.0788    0.6572 C   0  0  0  0  0  0  0  0  0  0  0  0
   -1.5518    1.6861    0.1660 O   0  0  0  0  0  0  0  0  0  0  0  0
    0.2352    1.7263    1.5424 N   0  0  0  0  0  0  0  0  0  0  0  0
    0.9954    1.1892    1.9505 H   0  0  0  0  0  0  0  0  0  0  0  0
    0.0922    3.1319    1.9011 C   0  0  0  0  0  0  0  0  0  0  0  0
   -0.8877    3.3145    2.3549 H   0  0  0  0  0  0  0  0  0  0  0  0
    0.8647    3.4188    2.6211 H   0  0  0  0  0  0  0  0  0  0  0  0
    0.1939    3.7657    1.0137 H   0  0  0  0  0  0  0  0  0  0  0  0
  1  2  1  0  0  0  0
  2  3  1  0  0  0  0
  2  4  1  0  0  0  0
  2  5  1  0  0  0  0
  5  6  2  0  0  0  0
  5  7  1  0  0  0  0
  7  8  1  0  0  0  0
  7  9  1  0  0  0  0
  9 10  1  0  0  0  0
  9 11  1  0  0  0  0
  9 22  1  0  0  0  0
 11 12  1  0  0  0  0
 11 13  1  0  0  0  0
 11 14  1  0  0  0  0
 14 15  1  0  0  0  0
 14 16  1  0  0  0  0
 14 17  1  0  0  0  0
 17 18  2  0  0  0  0
 17 19  1  0  0  0  0
 19 20  1  0  0  0  0
 19 21  1  0  0  0  0
 22 23  2  0  0  0  0
 22 24  1  0  0  0  0
 24 25  1  0  0  0  0
 24 26  1  0  0  0  0
 26 27  1  0  0  0  0
 26 28  1  0  0  0  0
 26 29  1  0  0  0  0
M  END
$$$$

  -OEChem-04042215583D

 29 28  0     1  0  0  0  0  0999 V2000
   -3.4571   -3.7195    1.6470 H   0  0  0  0  0  0  0  0  0  0  0  0
   -3.4343   -2.7587    1.1252 C   0  0  0  0  0  0  0  0  0  0  0  0
   -4.0177   -2.0338    1.6980 H   0  0  0  0  0  0  0  0  0  0  0  0
   -3.8869   -2.8825    0.1385 H   0  0  0  0  0  0  0  0  0  0  0  0
   -2.0032   -2.2753    0.9830 C   0  0  0  0  0  0  0  0  0  0  0  0
   -1.0840   -2.9566    1.4077 O   0  0  0  0  0  0  0  0  0  0  0  0
   -1.7466   -1.0666    0.3702 N   0  0  0  0  0  0  0  0  0  0  0  0
   -2.5491   -0.4855    0.1300 H   0  0  0  0  0  0  0  0  0  0  0  0
   -0.4284   -0.4123    0.3339 C   0  0  1  0  0  0  0  0  0  0  0  0
    0.2096   -0.8328    1.1185 H   0  0  0  0  0  0  0  0  0  0  0  0
    0.3118   -0.5703   -1.0192 C   0  0  0  0  0  0  0  0  0  0  0  0
    0.8153    0.3648   -1.2913 H   0  0  0  0  0  0  0  0  0  0  0  0
    1.0977   -1.3169   -0.8590 H   0  0  0  0  0  0  0  0  0  0  0  0
   -0.5480   -1.0466   -2.2126 C   0  0  0  0  0  0  0  0  0  0  0  0
   -1.1662   -1.8962   -1.9147 H   0  0  0  0  0  0  0  0  0  0  0  0
   -1.2089   -0.2376   -2.5359 H   0  0  0  0  0  0  0  0  0  0  0  0
    0.2965   -1.5194   -3.3938 C   0  0  0  0  0  0  0  0  0  0  0  0
    1.4921   -1.3092   -3.4857 O   0  0  0  0  0  0  0  0  0  0  0  0
   -0.2607   -2.2145   -4.4288 N   0  0  0  0  0  0  0  0  0  0  0  0
    0.3890   -2.6308   -5.0895 H   0  0  0  0  0  0  0  0  0  0  0  0
   -1.2002   -2.5827   -4.3288 H   0  0  0  0  0  0  0  0  0  0  0  0
   -0.6031    1.0842    0.6617 C   0  0  0  0  0  0  0  0  0  0  0  0
   -1.5510    1.7026    0.1900 O   0  0  0  0  0  0  0  0  0  0  0  0
    0.2523    1.7162    1.5447 N   0  0  0  0  0  0  0  0  0  0  0  0
    1.0040    1.1656    1.9506 H   0  0  0  0  0  0  0  0  0  0  0  0
    0.1066    3.1121    1.9387 C   0  0  0  0  0  0  0  0  0  0  0  0
   -0.8602    3.2740    2.4269 H   0  0  0  0  0  0  0  0  0  0  0  0
    0.8988    3.3921    2.6397 H   0  0  0  0  0  0  0  0  0  0  0  0
    0.1733    3.7661    1.0629 H   0  0  0  0  0  0  0  0  0  0  0  0
  1  2  1  0  0  0  0
  2  3  1  0  0  0  0
  2  4  1  0  0  0  0
  2  5  1  0  0  0  0
  5  6  2  0  0  0  0
  5  7  1  0  0  0  0
  7  8  1  0  0  0  0
  7  9  1  0  0  0  0
  9 10  1  0  0  0  0
  9 11  1  0  0  0  0
  9 22  1  0  0  0  0
 11 12  1  0  0  0  0
 11 13  1  0  0  0  0
 11 14  1  0  0  0  0
 14 15  1  0  0  0  0
 14 16  1  0  0  0  0
 14 17  1  0  0  0  0
 17 18  2  0  0  0  0
 17 19  1  0  0  0  0
 19 20  1  0  0  0  0
 19 21  1  0  0  0  0
 22 23  2  0  0  0  0
 22 24  1  0  0  0  0
 24 25  1  0  0  0  0
 24 26  1  0  0  0  0
 26 27  1  0  0  0  0
 26 28  1  0  0  0  0
 26 29  1  0  0  0  0
M  END
$$$$

  -OEChem-04042215583D

 29 28  0     1  0  0  0  0  0999 V2000
   -3.5682   -3.6904    1.4592 H   0  0  0  0  0  0  0  0  0  0  0  0
   -3.5439   -2.6879    1.0227 C   0  0  0  0  0  0  0  0  0  0  0  0
   -4.0406   -1.9949    1.7062 H   0  0  0  0  0  0  0  0  0  0  0  0
   -4.0852   -2.7031    0.0735 H   0  0  0  0  0  0  0  0  0  0  0  0
   -2.1090   -2.2517    0.7939 C   0  0  0  0  0  0  0  0  0  0  0  0
   -1.1885   -3.0157    1.0391 O   0  0  0  0  0  0  0  0  0  0  0  0
   -1.8459   -1.0043    0.2684 N   0  0  0  0  0  0  0  0  0  0  0  0
   -2.6373   -0.3716    0.1518 H   0  0  0  0  0  0  0  0  0  0  0  0
   -0.5083   -0.3952    0.2053 C   0  0  1  0  0  0  0  0  0  0  0  0
    0.1456   -0.8983    0.9254 H   0  0  0  0  0  0  0  0  0  0  0  0
    0.1666   -0.4920   -1.1877 C   0  0  0  0  0  0  0  0  0  0  0  0
    0.6933    0.4403   -1.4219 H   0  0  0  0  0  0  0  0  0  0  0  0
    0.9339   -1.2691   -1.0979 H   0  0  0  0  0  0  0  0  0  0  0  0
   -0.7396   -0.8627   -2.3856 C   0  0  0  0  0  0  0  0  0  0  0  0
   -1.5615   -1.5175   -2.0936 H   0  0  0  0  0  0  0  0  0  0  0  0
   -1.1763    0.0435   -2.8155 H   0  0  0  0  0  0  0  0  0  0  0  0
    0.0550   -1.6131   -3.4446 C   0  0  0  0  0  0  0  0  0  0  0  0
    0.7253   -1.0317   -4.2756 O   0  0  0  0  0  0  0  0  0  0  0  0
    0.1368   -2.9766   -3.4437 N   0  0  0  0  0  0  0  0  0  0  0  0
    0.8552   -3.3784   -4.0388 H   0  0  0  0  0  0  0  0  0  0  0  0
   -0.1900   -3.4818   -2.6256 H   0  0  0  0  0  0  0  0  0  0  0  0
   -0.5967    1.0746    0.6642 C   0  0  0  0  0  0  0  0  0  0  0  0
   -1.5473    1.7636    0.3128 O   0  0  0  0  0  0  0  0  0  0  0  0
    0.3367    1.5973    1.5401 N   0  0  0  0  0  0  0  0  0  0  0  0
    1.0857    0.9869    1.8543 H   0  0  0  0  0  0  0  0  0  0  0  0
    0.2716    2.9584    2.0586 C   0  0  0  0  0  0  0  0  0  0  0  0
   -0.6671    3.1183    2.5993 H   0  0  0  0  0  0  0  0  0  0  0  0
    1.1021    3.1412    2.7473 H   0  0  0  0  0  0  0  0  0  0  0  0
    0.3350    3.6833    1.2402 H   0  0  0  0  0  0  0  0  0  0  0  0
  1  2  1  0  0  0  0
  2  3  1  0  0  0  0
  2  4  1  0  0  0  0
  2  5  1  0  0  0  0
  5  6  2  0  0  0  0
  5  7  1  0  0  0  0
  7  8  1  0  0  0  0
  7  9  1  0  0  0  0
  9 10  1  0  0  0  0
  9 11  1  0  0  0  0
  9 22  1  0  0  0  0
 11 12  1  0  0  0  0
 11 13  1  0  0  0  0
 11 14  1  0  0  0  0
 14 15  1  0  0  0  0
 14 16  1  0  0  0  0
 14 17  1  0  0  0  0
 17 18  2  0  0  0  0
 17 19  1  0  0  0  0
 19 20  1  0  0  0  0
 19 21  1  0  0  0  0
 22 23  2  0  0  0  0
 22 24  1  0  0  0  0
 24 25  1  0  0  0  0
 24 26  1  0  0  0  0
 26 27  1  0  0  0  0
 26 28  1  0  0  0  0
 26 29  1  0  0  0  0
M  END
$$$$

  -OEChem-04042215583D

 29 28  0     1  0  0  0  0  0999 V2000
   -3.6255   -3.6968    1.2725 H   0  0  0  0  0  0  0  0  0  0  0  0
   -3.5869   -2.6544    0.9441 C   0  0  0  0  0  0  0  0  0  0  0  0
   -4.0301   -2.0238    1.7188 H   0  0  0  0  0  0  0  0  0  0  0  0
   -4.1687   -2.5531    0.0248 H   0  0  0  0  0  0  0  0  0  0  0  0
   -2.1501   -2.2360    0.6971 C   0  0  0  0  0  0  0  0  0  0  0  0
   -1.2369   -3.0262    0.8815 O   0  0  0  0  0  0  0  0  0  0  0  0
   -1.8751   -0.9810    0.1976 N   0  0  0  0  0  0  0  0  0  0  0  0
   -2.6597   -0.3347    0.1111 H   0  0  0  0  0  0  0  0  0  0  0  0
   -0.5330   -0.3798    0.1700 C   0  0  1  0  0  0  0  0  0  0  0  0
    0.0912   -0.8967    0.9067 H   0  0  0  0  0  0  0  0  0  0  0  0
    0.1902   -0.4942   -1.1969 C   0  0  0  0  0  0  0  0  0  0  0  0
    0.7179    0.4404   -1.4183 H   0  0  0  0  0  0  0  0  0  0  0  0
    0.9650   -1.2582   -1.0680 H   0  0  0  0  0  0  0  0  0  0  0  0
   -0.6659   -0.8741   -2.4329 C   0  0  0  0  0  0  0  0  0  0  0  0
   -1.6468   -1.2720   -2.1738 H   0  0  0  0  0  0  0  0  0  0  0  0
   -0.8356    0.0173   -3.0440 H   0  0  0  0  0  0  0  0  0  0  0  0
    0.0386   -1.9353   -3.2651 C   0  0  0  0  0  0  0  0  0  0  0  0
    0.7094   -1.6528   -4.2389 O   0  0  0  0  0  0  0  0  0  0  0  0
    0.0082   -3.2513   -2.8994 N   0  0  0  0  0  0  0  0  0  0  0  0
    0.6686   -3.8599   -3.3734 H   0  0  0  0  0  0  0  0  0  0  0  0
   -0.3222   -3.4859   -1.9666 H   0  0  0  0  0  0  0  0  0  0  0  0
   -0.6090    1.0838    0.6499 C   0  0  0  0  0  0  0  0  0  0  0  0
   -1.5503    1.7871    0.3028 O   0  0  0  0  0  0  0  0  0  0  0  0
    0.3169    1.5799    1.5490 N   0  0  0  0  0  0  0  0  0  0  0  0
    1.0515    0.9537    1.8661 H   0  0  0  0  0  0  0  0  0  0  0  0
    0.2540    2.9278    2.1015 C   0  0  0  0  0  0  0  0  0  0  0  0
   -0.6473    3.0500    2.7112 H   0  0  0  0  0  0  0  0  0  0  0  0
    1.1278    3.1190    2.7321 H   0  0  0  0  0  0  0  0  0  0  0  0
    0.2400    3.6722    1.2983 H   0  0  0  0  0  0  0  0  0  0  0  0
  1  2  1  0  0  0  0
  2  3  1  0  0  0  0
  2  4  1  0  0  0  0
  2  5  1  0  0  0  0
  5  6  2  0  0  0  0
  5  7  1  0  0  0  0
  7  8  1  0  0  0  0
  7  9  1  0  0  0  0
  9 10  1  0  0  0  0
  9 11  1  0  0  0  0
  9 22  1  0  0  0  0
 11 12  1  0  0  0  0
 11 13  1  0  0  0  0
 11 14  1  0  0  0  0
 14 15  1  0  0  0  0
 14 16  1  0  0  0  0
 14 17  1  0  0  0  0
 17 18  2  0  0  0  0
 17 19  1  0  0  0  0
 19 20  1  0  0  0  0
 19 21  1  0  0  0  0
 22 23  2  0  0  0  0
 22 24  1  0  0  0  0
 24 25  1  0  0  0  0
 24 26  1  0  0  0  0
 26 27  1  0  0  0  0
 26 28  1  0  0  0  0
 26 29  1  0  0  0  0
M  END
$$$$

  -OEChem-04042215583D

 29 28  0     1  0  0  0  0  0999 V2000
   -3.6398   -3.6778    1.1908 H   0  0  0  0  0  0  0  0  0  0  0  0
   -3.6061   -2.6426    0.8399 C   0  0  0  0  0  0  0  0  0  0  0  0
   -4.0511   -1.9982    1.6020 H   0  0  0  0  0  0  0  0  0  0  0  0
   -4.1902   -2.5634   -0.0803 H   0  0  0  0  0  0  0  0  0  0  0  0
   -2.1712   -2.2247    0.5809 C   0  0  0  0  0  0  0  0  0  0  0  0
   -1.2613   -3.0344    0.6859 O   0  0  0  0  0  0  0  0  0  0  0  0
   -1.8897   -0.9602    0.1111 N   0  0  0  0  0  0  0  0  0  0  0  0
   -2.6710   -0.3066    0.0549 H   0  0  0  0  0  0  0  0  0  0  0  0
   -0.5470   -0.3585    0.1387 C   0  0  1  0  0  0  0  0  0  0  0  0
    0.0388   -0.8852    0.8995 H   0  0  0  0  0  0  0  0  0  0  0  0
    0.2351   -0.5026   -1.1910 C   0  0  0  0  0  0  0  0  0  0  0  0
    0.7390    0.4454   -1.4100 H   0  0  0  0  0  0  0  0  0  0  0  0
    1.0318   -1.2370   -1.0265 H   0  0  0  0  0  0  0  0  0  0  0  0
   -0.5794   -0.9083   -2.4469 C   0  0  0  0  0  0  0  0  0  0  0  0
   -1.6517   -0.9967   -2.2731 H   0  0  0  0  0  0  0  0  0  0  0  0
   -0.4559   -0.1332   -3.2092 H   0  0  0  0  0  0  0  0  0  0  0  0
   -0.0594   -2.2214   -3.0134 C   0  0  0  0  0  0  0  0  0  0  0  0
    0.5726   -2.2757   -4.0510 O   0  0  0  0  0  0  0  0  0  0  0  0
   -0.2523   -3.3960   -2.3414 N   0  0  0  0  0  0  0  0  0  0  0  0
    0.2862   -4.1910   -2.6702 H   0  0  0  0  0  0  0  0  0  0  0  0
   -0.5537   -3.3546   -1.3667 H   0  0  0  0  0  0  0  0  0  0  0  0
   -0.6205    1.0985    0.6376 C   0  0  0  0  0  0  0  0  0  0  0  0
   -1.5480    1.8135    0.2789 O   0  0  0  0  0  0  0  0  0  0  0  0
    0.2832    1.5718    1.5709 N   0  0  0  0  0  0  0  0  0  0  0  0
    1.0114    0.9388    1.8897 H   0  0  0  0  0  0  0  0  0  0  0  0
    0.2182    2.9135    2.1379 C   0  0  0  0  0  0  0  0  0  0  0  0
   -0.7057    3.0426    2.7115 H   0  0  0  0  0  0  0  0  0  0  0  0
    1.0678    3.0833    2.8064 H   0  0  0  0  0  0  0  0  0  0  0  0
    0.2488    3.6674    1.3440 H   0  0  0  0  0  0  0  0  0  0  0  0
  1  2  1  0  0  0  0
  2  3  1  0  0  0  0
  2  4  1  0  0  0  0
  2  5  1  0  0  0  0
  5  6  2  0  0  0  0
  5  7  1  0  0  0  0
  7  8  1  0  0  0  0
  7  9  1  0  0  0  0
  9 10  1  0  0  0  0
  9 11  1  0  0  0  0
  9 22  1  0  0  0  0
 11 12  1  0  0  0  0
 11 13  1  0  0  0  0
 11 14  1  0  0  0  0
 14 15  1  0  0  0  0
 14 16  1  0  0  0  0
 14 17  1  0  0  0  0
 17 18  2  0  0  0  0
 17 19  1  0  0  0  0
 19 20  1  0  0  0  0
 19 21  1  0  0  0  0
 22 23  2  0  0  0  0
 22 24  1  0  0  0  0
 24 25  1  0  0  0  0
 24 26  1  0  0  0  0
 26 27  1  0  0  0  0
 26 28  1  0  0  0  0
 26 29  1  0  0  0  0
M  END
$$$$

  -OEChem-04042215583D

 29 28  0     1  0  0  0  0  0999 V2000
   -3.7309   -3.6517    1.1376 H   0  0  0  0  0  0  0  0  0  0  0  0
   -3.6504   -2.6328    0.7488 C   0  0  0  0  0  0  0  0  0  0  0  0
   -4.1721   -1.9544    1.4281 H   0  0  0  0  0  0  0  0  0  0  0  0
   -4.1282   -2.5922   -0.2332 H   0  0  0  0  0  0  0  0  0  0  0  0
   -2.1931   -2.2303    0.6331 C   0  0  0  0  0  0  0  0  0  0  0  0
   -1.3064   -3.0195    0.9216 O   0  0  0  0  0  0  0  0  0  0  0  0
   -1.8528   -0.9969    0.1232 N   0  0  0  0  0  0  0  0  0  0  0  0
   -2.6178   -0.3470   -0.0599 H   0  0  0  0  0  0  0  0  0  0  0  0
   -0.5045   -0.4088    0.1920 C   0  0  1  0  0  0  0  0  0  0  0  0
    0.0596   -0.9114    0.9851 H   0  0  0  0  0  0  0  0  0  0  0  0
    0.3141   -0.5487   -1.1192 C   0  0  0  0  0  0  0  0  0  0  0  0
    0.8225    0.4017   -1.3170 H   0  0  0  0  0  0  0  0  0  0  0  0
    1.1059   -1.2880   -0.9542 H   0  0  0  0  0  0  0  0  0  0  0  0
   -0.4749   -0.9343   -2.3937 C   0  0  0  0  0  0  0  0  0  0  0  0
   -1.5436   -0.7313   -2.3045 H   0  0  0  0  0  0  0  0  0  0  0  0
   -0.1133   -0.3135   -3.2192 H   0  0  0  0  0  0  0  0  0  0  0  0
   -0.2518   -2.3917   -2.7874 C   0  0  0  0  0  0  0  0  0  0  0  0
    0.1826   -2.6936   -3.8825 O   0  0  0  0  0  0  0  0  0  0  0  0
   -0.5283   -3.4336   -1.9485 N   0  0  0  0  0  0  0  0  0  0  0  0
   -0.1845   -4.3427   -2.2410 H   0  0  0  0  0  0  0  0  0  0  0  0
   -0.6756   -3.2440   -0.9560 H   0  0  0  0  0  0  0  0  0  0  0  0
   -0.6151    1.0693    0.6197 C   0  0  0  0  0  0  0  0  0  0  0  0
   -1.5117    1.7662    0.1599 O   0  0  0  0  0  0  0  0  0  0  0  0
    0.2294    1.5933    1.5808 N   0  0  0  0  0  0  0  0  0  0  0  0
    0.9301    0.9777    1.9839 H   0  0  0  0  0  0  0  0  0  0  0  0
    0.1285    2.9628    2.0710 C   0  0  0  0  0  0  0  0  0  0  0  0
   -0.8423    3.1278    2.5501 H   0  0  0  0  0  0  0  0  0  0  0  0
    0.9149    3.1614    2.8054 H   0  0  0  0  0  0  0  0  0  0  0  0
    0.2398    3.6745    1.2462 H   0  0  0  0  0  0  0  0  0  0  0  0
  1  2  1  0  0  0  0
  2  3  1  0  0  0  0
  2  4  1  0  0  0  0
  2  5  1  0  0  0  0
  5  6  2  0  0  0  0
  5  7  1  0  0  0  0
  7  8  1  0  0  0  0
  7  9  1  0  0  0  0
  9 10  1  0  0  0  0
  9 11  1  0  0  0  0
  9 22  1  0  0  0  0
 11 12  1  0  0  0  0
 11 13  1  0  0  0  0
 11 14  1  0  0  0  0
 14 15  1  0  0  0  0
 14 16  1  0  0  0  0
 14 17  1  0  0  0  0
 17 18  2  0  0  0  0
 17 19  1  0  0  0  0
 19 20  1  0  0  0  0
 19 21  1  0  0  0  0
 22 23  2  0  0  0  0
 22 24  1  0  0  0  0
 24 25  1  0  0  0  0
 24 26  1  0  0  0  0
 26 27  1  0  0  0  0
 26 28  1  0  0  0  0
 26 29  1  0  0  0  0
M  END
$$$$

  -OEChem-04042215583D

 29 28  0     1  0  0  0  0  0999 V2000
   -3.4979   -3.7067    1.4641 H   0  0  0  0  0  0  0  0  0  0  0  0
   -3.4249   -2.7824    0.8841 C   0  0  0  0  0  0  0  0  0  0  0  0
   -4.1001   -2.0408    1.3176 H   0  0  0  0  0  0  0  0  0  0  0  0
   -3.7298   -2.9873   -0.1446 H   0  0  0  0  0  0  0  0  0  0  0  0
   -1.9998   -2.2633    0.9074 C   0  0  0  0  0  0  0  0  0  0  0  0
   -1.1314   -2.8951    1.4859 O   0  0  0  0  0  0  0  0  0  0  0  0
   -1.6986   -1.0632    0.2961 N   0  0  0  0  0  0  0  0  0  0  0  0
   -2.4776   -0.4990   -0.0395 H   0  0  0  0  0  0  0  0  0  0  0  0
   -0.3786   -0.4127    0.3431 C   0  0  1  0  0  0  0  0  0  0  0  0
    0.2106   -0.8271    1.1679 H   0  0  0  0  0  0  0  0  0  0  0  0
    0.4369   -0.5824   -0.9665 C   0  0  0  0  0  0  0  0  0  0  0  0
    0.9115    0.3728   -1.2167 H   0  0  0  0  0  0  0  0  0  0  0  0
    1.2518   -1.2899   -0.7762 H   0  0  0  0  0  0  0  0  0  0  0  0
   -0.3605   -1.0580   -2.2027 C   0  0  0  0  0  0  0  0  0  0  0  0
   -1.3710   -0.6420   -2.2024 H   0  0  0  0  0  0  0  0  0  0  0  0
    0.1353   -0.6771   -3.0998 H   0  0  0  0  0  0  0  0  0  0  0  0
   -0.3998   -2.5771   -2.3328 C   0  0  0  0  0  0  0  0  0  0  0  0
    0.6132   -3.2470   -2.3980 O   0  0  0  0  0  0  0  0  0  0  0  0
   -1.5769   -3.2609   -2.4483 N   0  0  0  0  0  0  0  0  0  0  0  0
   -1.4898   -4.2369   -2.7167 H   0  0  0  0  0  0  0  0  0  0  0  0
   -2.4191   -2.7434   -2.6713 H   0  0  0  0  0  0  0  0  0  0  0  0
   -0.5760    1.0878    0.6382 C   0  0  0  0  0  0  0  0  0  0  0  0
   -1.4690    1.7061    0.0686 O   0  0  0  0  0  0  0  0  0  0  0  0
    0.2149    1.7318    1.5710 N   0  0  0  0  0  0  0  0  0  0  0  0
    0.9022    1.1741    2.0710 H   0  0  0  0  0  0  0  0  0  0  0  0
    0.0341    3.1292    1.9440 C   0  0  0  0  0  0  0  0  0  0  0  0
   -0.9578    3.2830    2.3819 H   0  0  0  0  0  0  0  0  0  0  0  0
    0.7875    3.4245    2.6806 H   0  0  0  0  0  0  0  0  0  0  0  0
    0.1368    3.7768    1.0669 H   0  0  0  0  0  0  0  0  0  0  0  0
  1  2  1  0  0  0  0
  2  3  1  0  0  0  0
  2  4  1  0  0  0  0
  2  5  1  0  0  0  0
  5  6  2  0  0  0  0
  5  7  1  0  0  0  0
  7  8  1  0  0  0  0
  7  9  1  0  0  0  0
  9 10  1  0  0  0  0
  9 11  1  0  0  0  0
  9 22  1  0  0  0  0
 11 12  1  0  0  0  0
 11 13  1  0  0  0  0
 11 14  1  0  0  0  0
 14 15  1  0  0  0  0
 14 16  1  0  0  0  0
 14 17  1  0  0  0  0
 17 18  2  0  0  0  0
 17 19  1  0  0  0  0
 19 20  1  0  0  0  0
 19 21  1  0  0  0  0
 22 23  2  0  0  0  0
 22 24  1  0  0  0  0
 24 25  1  0  0  0  0
 24 26  1  0  0  0  0
 26 27  1  0  0  0  0
 26 28  1  0  0  0  0
 26 29  1  0  0  0  0
M  END
$$$$

  -OEChem-04042215583D

 29 28  0     1  0  0  0  0  0999 V2000
   -3.4739   -3.7312    1.5588 H   0  0  0  0  0  0  0  0  0  0  0  0
   -3.4018   -2.8205    0.9578 C   0  0  0  0  0  0  0  0  0  0  0  0
   -4.1083   -2.0838    1.3475 H   0  0  0  0  0  0  0  0  0  0  0  0
   -3.6657   -3.0590   -0.0749 H   0  0  0  0  0  0  0  0  0  0  0  0
   -1.9903   -2.2678    1.0165 C   0  0  0  0  0  0  0  0  0  0  0  0
   -1.1406   -2.8388    1.6804 O   0  0  0  0  0  0  0  0  0  0  0  0
   -1.6912   -1.0854    0.3690 N   0  0  0  0  0  0  0  0  0  0  0  0
   -2.4635   -0.5644   -0.0418 H   0  0  0  0  0  0  0  0  0  0  0  0
   -0.3735   -0.4305    0.3940 C   0  0  1  0  0  0  0  0  0  0  0  0
    0.2262   -0.8212    1.2228 H   0  0  0  0  0  0  0  0  0  0  0  0
    0.4347   -0.6062   -0.9218 C   0  0  0  0  0  0  0  0  0  0  0  0
    0.9178    0.3427   -1.1797 H   0  0  0  0  0  0  0  0  0  0  0  0
    1.2414   -1.3225   -0.7290 H   0  0  0  0  0  0  0  0  0  0  0  0
   -0.3557   -1.0953   -2.1562 C   0  0  0  0  0  0  0  0  0  0  0  0
   -1.2669   -0.5004   -2.2626 H   0  0  0  0  0  0  0  0  0  0  0  0
    0.2495   -0.9251   -3.0505 H   0  0  0  0  0  0  0  0  0  0  0  0
   -0.7084   -2.5794   -2.1240 C   0  0  0  0  0  0  0  0  0  0  0  0
    0.1180   -3.4394   -1.8903 O   0  0  0  0  0  0  0  0  0  0  0  0
   -1.9568   -3.0302   -2.4490 N   0  0  0  0  0  0  0  0  0  0  0  0
   -2.0192   -4.0299   -2.6215 H   0  0  0  0  0  0  0  0  0  0  0  0
   -2.5857   -2.3950   -2.9276 H   0  0  0  0  0  0  0  0  0  0  0  0
   -0.5823    1.0767    0.6456 C   0  0  0  0  0  0  0  0  0  0  0  0
   -1.4583    1.6805    0.0351 O   0  0  0  0  0  0  0  0  0  0  0  0
    0.2055    1.7519    1.5589 N   0  0  0  0  0  0  0  0  0  0  0  0
    0.8737    1.2060    2.0963 H   0  0  0  0  0  0  0  0  0  0  0  0
    0.0302    3.1634    1.8777 C   0  0  0  0  0  0  0  0  0  0  0  0
   -0.9633    3.3399    2.3031 H   0  0  0  0  0  0  0  0  0  0  0  0
    0.7809    3.4822    2.6072 H   0  0  0  0  0  0  0  0  0  0  0  0
    0.1427    3.7765    0.9773 H   0  0  0  0  0  0  0  0  0  0  0  0
  1  2  1  0  0  0  0
  2  3  1  0  0  0  0
  2  4  1  0  0  0  0
  2  5  1  0  0  0  0
  5  6  2  0  0  0  0
  5  7  1  0  0  0  0
  7  8  1  0  0  0  0
  7  9  1  0  0  0  0
  9 10  1  0  0  0  0
  9 11  1  0  0  0  0
  9 22  1  0  0  0  0
 11 12  1  0  0  0  0
 11 13  1  0  0  0  0
 11 14  1  0  0  0  0
 14 15  1  0  0  0  0
 14 16  1  0  0  0  0
 14 17  1  0  0  0  0
 17 18  2  0  0  0  0
 17 19  1  0  0  0  0
 19 20  1  0  0  0  0
 19 21  1  0  0  0  0
 22 23  2  0  0  0  0
 22 24  1  0  0  0  0
 24 25  1  0  0  0  0
 24 26  1  0  0  0  0
 26 27  1  0  0  0  0
 26 28  1  0  0  0  0
 26 29  1  0  0  0  0
M  END
$$$$

  -OEChem-04042215583D

 29 28  0     1  0  0  0  0  0999 V2000
   -3.4369   -3.7705    1.6695 H   0  0  0  0  0  0  0  0  0  0  0  0
   -3.3858   -2.8600    1.0659 C   0  0  0  0  0  0  0  0  0  0  0  0
   -4.1198   -2.1439    1.4428 H   0  0  0  0  0  0  0  0  0  0  0  0
   -3.6283   -3.1123    0.0314 H   0  0  0  0  0  0  0  0  0  0  0  0
   -1.9929   -2.2638    1.1402 C   0  0  0  0  0  0  0  0  0  0  0  0
   -1.1547   -2.7700    1.8693 O   0  0  0  0  0  0  0  0  0  0  0  0
   -1.7054   -1.1003    0.4525 N   0  0  0  0  0  0  0  0  0  0  0  0
   -2.4690   -0.6338   -0.0323 H   0  0  0  0  0  0  0  0  0  0  0  0
   -0.3866   -0.4504    0.4401 C   0  0  1  0  0  0  0  0  0  0  0  0
    0.2265   -0.8186    1.2695 H   0  0  0  0  0  0  0  0  0  0  0  0
    0.4143   -0.6299   -0.8832 C   0  0  0  0  0  0  0  0  0  0  0  0
    0.9243    0.3067   -1.1346 H   0  0  0  0  0  0  0  0  0  0  0  0
    1.1992   -1.3663   -0.6776 H   0  0  0  0  0  0  0  0  0  0  0  0
   -0.3363   -1.1242   -2.1424 C   0  0  0  0  0  0  0  0  0  0  0  0
   -1.1010   -0.3843   -2.3951 H   0  0  0  0  0  0  0  0  0  0  0  0
    0.3683   -1.1638   -2.9774 H   0  0  0  0  0  0  0  0  0  0  0  0
   -1.0013   -2.4923   -2.0379 C   0  0  0  0  0  0  0  0  0  0  0  0
   -0.4075   -3.4767   -1.6455 O   0  0  0  0  0  0  0  0  0  0  0  0
   -2.2841   -2.7019   -2.4598 N   0  0  0  0  0  0  0  0  0  0  0  0
   -2.5405   -3.6778   -2.5804 H   0  0  0  0  0  0  0  0  0  0  0  0
   -2.7175   -1.9919   -3.0406 H   0  0  0  0  0  0  0  0  0  0  0  0
   -0.6000    1.0624    0.6534 C   0  0  0  0  0  0  0  0  0  0  0  0
   -1.4654    1.6537    0.0158 O   0  0  0  0  0  0  0  0  0  0  0  0
    0.1971    1.7643    1.5380 N   0  0  0  0  0  0  0  0  0  0  0  0
    0.8534    1.2304    2.1013 H   0  0  0  0  0  0  0  0  0  0  0  0
    0.0316    3.1869    1.8081 C   0  0  0  0  0  0  0  0  0  0  0  0
   -0.9590    3.3843    2.2312 H   0  0  0  0  0  0  0  0  0  0  0  0
    0.7878    3.5262    2.5225 H   0  0  0  0  0  0  0  0  0  0  0  0
    0.1436    3.7676    0.8865 H   0  0  0  0  0  0  0  0  0  0  0  0
  1  2  1  0  0  0  0
  2  3  1  0  0  0  0
  2  4  1  0  0  0  0
  2  5  1  0  0  0  0
  5  6  2  0  0  0  0
  5  7  1  0  0  0  0
  7  8  1  0  0  0  0
  7  9  1  0  0  0  0
  9 10  1  0  0  0  0
  9 11  1  0  0  0  0
  9 22  1  0  0  0  0
 11 12  1  0  0  0  0
 11 13  1  0  0  0  0
 11 14  1  0  0  0  0
 14 15  1  0  0  0  0
 14 16  1  0  0  0  0
 14 17  1  0  0  0  0
 17 18  2  0  0  0  0
 17 19  1  0  0  0  0
 19 20  1  0  0  0  0
 19 21  1  0  0  0  0
 22 23  2  0  0  0  0
 22 24  1  0  0  0  0
 24 25  1  0  0  0  0
 24 26  1  0  0  0  0
 26 27  1  0  0  0  0
 26 28  1  0  0  0  0
 26 29  1  0  0  0  0
M  END
$$$$

  -OEChem-04042215583D

 29 28  0     1  0  0  0  0  0999 V2000
   -3.3989   -3.7925    1.7913 H   0  0  0  0  0  0  0  0  0  0  0  0
   -3.3632   -2.8983    1.1630 C   0  0  0  0  0  0  0  0  0  0  0  0
   -4.1138   -2.1874    1.5155 H   0  0  0  0  0  0  0  0  0  0  0  0
   -3.5941   -3.1845    0.1347 H   0  0  0  0  0  0  0  0  0  0  0  0
   -1.9837   -2.2708    1.2279 C   0  0  0  0  0  0  0  0  0  0  0  0
   -1.1344   -2.7463    1.9657 O   0  0  0  0  0  0  0  0  0  0  0  0
   -1.7168   -1.1179    0.5139 N   0  0  0  0  0  0  0  0  0  0  0  0
   -2.4813   -0.6947   -0.0077 H   0  0  0  0  0  0  0  0  0  0  0  0
   -0.4015   -0.4664    0.4625 C   0  0  1  0  0  0  0  0  0  0  0  0
    0.2255   -0.8153    1.2895 H   0  0  0  0  0  0  0  0  0  0  0  0
    0.3910   -0.6518   -0.8672 C   0  0  0  0  0  0  0  0  0  0  0  0
    0.9205    0.2752   -1.1138 H   0  0  0  0  0  0  0  0  0  0  0  0
    1.1621   -1.3973   -0.6436 H   0  0  0  0  0  0  0  0  0  0  0  0
   -0.3139   -1.1602   -2.1514 C   0  0  0  0  0  0  0  0  0  0  0  0
   -0.8891   -0.3238   -2.5581 H   0  0  0  0  0  0  0  0  0  0  0  0
    0.4511   -1.4149   -2.8904 H   0  0  0  0  0  0  0  0  0  0  0  0
   -1.2591   -2.3505   -2.0368 C   0  0  0  0  0  0  0  0  0  0  0  0
   -0.8835   -3.4493   -1.6798 O   0  0  0  0  0  0  0  0  0  0  0  0
   -2.5765   -2.2589   -2.3904 N   0  0  0  0  0  0  0  0  0  0  0  0
   -3.0492   -3.1489   -2.5204 H   0  0  0  0  0  0  0  0  0  0  0  0
   -2.8707   -1.4497   -2.9277 H   0  0  0  0  0  0  0  0  0  0  0  0
   -0.6215    1.0483    0.6552 C   0  0  0  0  0  0  0  0  0  0  0  0
   -1.4891    1.6267    0.0086 O   0  0  0  0  0  0  0  0  0  0  0  0
    0.1878    1.7714    1.5115 N   0  0  0  0  0  0  0  0  0  0  0  0
    0.8473    1.2502    2.0830 H   0  0  0  0  0  0  0  0  0  0  0  0
    0.0196    3.1989    1.7545 C   0  0  0  0  0  0  0  0  0  0  0  0
   -0.9672    3.4010    2.1840 H   0  0  0  0  0  0  0  0  0  0  0  0
    0.7819    3.5554    2.4541 H   0  0  0  0  0  0  0  0  0  0  0  0
    0.1194    3.7611    0.8200 H   0  0  0  0  0  0  0  0  0  0  0  0
  1  2  1  0  0  0  0
  2  3  1  0  0  0  0
  2  4  1  0  0  0  0
  2  5  1  0  0  0  0
  5  6  2  0  0  0  0
  5  7  1  0  0  0  0
  7  8  1  0  0  0  0
  7  9  1  0  0  0  0
  9 10  1  0  0  0  0
  9 11  1  0  0  0  0
  9 22  1  0  0  0  0
 11 12  1  0  0  0  0
 11 13  1  0  0  0  0
 11 14  1  0  0  0  0
 14 15  1  0  0  0  0
 14 16  1  0  0  0  0
 14 17  1  0  0  0  0
 17 18  2  0  0  0  0
 17 19  1  0  0  0  0
 19 20  1  0  0  0  0
 19 21  1  0  0  0  0
 22 23  2  0  0  0  0
 22 24  1  0  0  0  0
 24 25  1  0  0  0  0
 24 26  1  0  0  0  0
 26 27  1  0  0  0  0
 26 28  1  0  0  0  0
 26 29  1  0  0  0  0
M  END
$$$$

  -OEChem-04042215583D

 29 28  0     1  0  0  0  0  0999 V2000
   -3.2941   -3.8565    1.8925 H   0  0  0  0  0  0  0  0  0  0  0  0
   -3.2762   -2.9958    1.2183 C   0  0  0  0  0  0  0  0  0  0  0  0
   -4.0589   -2.2953    1.5184 H   0  0  0  0  0  0  0  0  0  0  0  0
   -3.4747   -3.3431    0.2016 H   0  0  0  0  0  0  0  0  0  0  0  0
   -1.9207   -2.3173    1.2745 C   0  0  0  0  0  0  0  0  0  0  0  0
   -1.0387   -2.7749    1.9855 O   0  0  0  0  0  0  0  0  0  0  0  0
   -1.7032   -1.1538    0.5618 N   0  0  0  0  0  0  0  0  0  0  0  0
   -2.4786   -0.7843    0.0153 H   0  0  0  0  0  0  0  0  0  0  0  0
   -0.4011   -0.4852    0.4546 C   0  0  1  0  0  0  0  0  0  0  0  0
    0.2684   -0.8317    1.2489 H   0  0  0  0  0  0  0  0  0  0  0  0
    0.3367   -0.6403   -0.9117 C   0  0  0  0  0  0  0  0  0  0  0  0
    0.8637    0.2895   -1.1533 H   0  0  0  0  0  0  0  0  0  0  0  0
    1.1133   -1.3882   -0.7183 H   0  0  0  0  0  0  0  0  0  0  0  0
   -0.3781   -1.1374   -2.2003 C   0  0  0  0  0  0  0  0  0  0  0  0
   -0.7526   -0.2504   -2.7187 H   0  0  0  0  0  0  0  0  0  0  0  0
    0.3698   -1.5942   -2.8549 H   0  0  0  0  0  0  0  0  0  0  0  0
   -1.5497   -2.1057   -2.0936 C   0  0  0  0  0  0  0  0  0  0  0  0
   -1.3988   -3.2958   -1.8998 O   0  0  0  0  0  0  0  0  0  0  0  0
   -2.8421   -1.6862   -2.2522 N   0  0  0  0  0  0  0  0  0  0  0  0
   -3.5191   -2.4246   -2.4224 H   0  0  0  0  0  0  0  0  0  0  0  0
   -2.9978   -0.7607   -2.6405 H   0  0  0  0  0  0  0  0  0  0  0  0
   -0.6365    1.0233    0.6747 C   0  0  0  0  0  0  0  0  0  0  0  0
   -1.5250    1.5984    0.0534 O   0  0  0  0  0  0  0  0  0  0  0  0
    0.1999    1.7513    1.5001 N   0  0  0  0  0  0  0  0  0  0  0  0
    0.8799    1.2334    2.0500 H   0  0  0  0  0  0  0  0  0  0  0  0
    0.0236    3.1750    1.7587 C   0  0  0  0  0  0  0  0  0  0  0  0
   -0.9542    3.3635    2.2142 H   0  0  0  0  0  0  0  0  0  0  0  0
    0.7991    3.5339    2.4422 H   0  0  0  0  0  0  0  0  0  0  0  0
    0.0945    3.7455    0.8267 H   0  0  0  0  0  0  0  0  0  0  0  0
  1  2  1  0  0  0  0
  2  3  1  0  0  0  0
  2  4  1  0  0  0  0
  2  5  1  0  0  0  0
  5  6  2  0  0  0  0
  5  7  1  0  0  0  0
  7  8  1  0  0  0  0
  7  9  1  0  0  0  0
  9 10  1  0  0  0  0
  9 11  1  0  0  0  0
  9 22  1  0  0  0  0
 11 12  1  0  0  0  0
 11 13  1  0  0  0  0
 11 14  1  0  0  0  0
 14 15  1  0  0  0  0
 14 16  1  0  0  0  0
 14 17  1  0  0  0  0
 17 18  2  0  0  0  0
 17 19  1  0  0  0  0
 19 20  1  0  0  0  0
 19 21  1  0  0  0  0
 22 23  2  0  0  0  0
 22 24  1  0  0  0  0
 24 25  1  0  0  0  0
 24 26  1  0  0  0  0
 26 27  1  0  0  0  0
 26 28  1  0  0  0  0
 26 29  1  0  0  0  0
M  END
$$$$

  -OEChem-04042215583D

 29 28  0     1  0  0  0  0  0999 V2000
   -3.2691   -3.7130    2.1954 H   0  0  0  0  0  0  0  0  0  0  0  0
   -3.2763   -2.8674    1.5022 C   0  0  0  0  0  0  0  0  0  0  0  0
   -3.9911   -2.1227    1.8598 H   0  0  0  0  0  0  0  0  0  0  0  0
   -3.5910   -3.2230    0.5178 H   0  0  0  0  0  0  0  0  0  0  0  0
   -1.8913   -2.2558    1.4097 C   0  0  0  0  0  0  0  0  0  0  0  0
   -0.9643   -2.7395    2.0418 O   0  0  0  0  0  0  0  0  0  0  0  0
   -1.6889   -1.1302    0.6365 N   0  0  0  0  0  0  0  0  0  0  0  0
   -2.4929   -0.7597    0.1318 H   0  0  0  0  0  0  0  0  0  0  0  0
   -0.3766   -0.5282    0.3773 C   0  0  1  0  0  0  0  0  0  0  0  0
    0.3513   -0.8775    1.1173 H   0  0  0  0  0  0  0  0  0  0  0  0
    0.2185   -0.7660   -1.0467 C   0  0  0  0  0  0  0  0  0  0  0  0
    0.7615    0.1303   -1.3676 H   0  0  0  0  0  0  0  0  0  0  0  0
    0.9797   -1.5389   -0.8941 H   0  0  0  0  0  0  0  0  0  0  0  0
   -0.6207   -1.2737   -2.2584 C   0  0  0  0  0  0  0  0  0  0  0  0
   -0.7693   -0.4211   -2.9268 H   0  0  0  0  0  0  0  0  0  0  0  0
   -0.0183   -2.0018   -2.8100 H   0  0  0  0  0  0  0  0  0  0  0  0
   -1.9974   -1.8895   -2.0422 C   0  0  0  0  0  0  0  0  0  0  0  0
   -2.1733   -3.0892   -1.9560 O   0  0  0  0  0  0  0  0  0  0  0  0
   -3.1235   -1.1145   -1.9822 N   0  0  0  0  0  0  0  0  0  0  0  0
   -4.0044   -1.6047   -2.1089 H   0  0  0  0  0  0  0  0  0  0  0  0
   -3.0469   -0.1324   -2.2344 H   0  0  0  0  0  0  0  0  0  0  0  0
   -0.5266    0.9961    0.5608 C   0  0  0  0  0  0  0  0  0  0  0  0
   -1.4390    1.5891   -0.0074 O   0  0  0  0  0  0  0  0  0  0  0  0
    0.4160    1.7142    1.2726 N   0  0  0  0  0  0  0  0  0  0  0  0
    1.1136    1.1841    1.7879 H   0  0  0  0  0  0  0  0  0  0  0  0
    0.3194    3.1514    1.4977 C   0  0  0  0  0  0  0  0  0  0  0  0
   -0.5826    3.3897    2.0711 H   0  0  0  0  0  0  0  0  0  0  0  0
    1.1900    3.5051    2.0581 H   0  0  0  0  0  0  0  0  0  0  0  0
    0.2829    3.6883    0.5438 H   0  0  0  0  0  0  0  0  0  0  0  0
  1  2  1  0  0  0  0
  2  3  1  0  0  0  0
  2  4  1  0  0  0  0
  2  5  1  0  0  0  0
  5  6  2  0  0  0  0
  5  7  1  0  0  0  0
  7  8  1  0  0  0  0
  7  9  1  0  0  0  0
  9 10  1  0  0  0  0
  9 11  1  0  0  0  0
  9 22  1  0  0  0  0
 11 12  1  0  0  0  0
 11 13  1  0  0  0  0
 11 14  1  0  0  0  0
 14 15  1  0  0  0  0
 14 16  1  0  0  0  0
 14 17  1  0  0  0  0
 17 18  2  0  0  0  0
 17 19  1  0  0  0  0
 19 20  1  0  0  0  0
 19 21  1  0  0  0  0
 22 23  2  0  0  0  0
 22 24  1  0  0  0  0
 24 25  1  0  0  0  0
 24 26  1  0  0  0  0
 26 27  1  0  0  0  0
 26 28  1  0  0  0  0
 26 29  1  0  0  0  0
M  END
$$$$

  -OEChem-04042215583D

 29 28  0     1  0  0  0  0  0999 V2000
   -3.2215   -3.8081    2.1188 H   0  0  0  0  0  0  0  0  0  0  0  0
   -3.2573   -2.9217    1.4796 C   0  0  0  0  0  0  0  0  0  0  0  0
   -3.9990   -2.2263    1.8790 H   0  0  0  0  0  0  0  0  0  0  0  0
   -3.5576   -3.2267    0.4737 H   0  0  0  0  0  0  0  0  0  0  0  0
   -1.8954   -2.2560    1.4308 C   0  0  0  0  0  0  0  0  0  0  0  0
   -0.9752   -2.6870    2.1090 O   0  0  0  0  0  0  0  0  0  0  0  0
   -1.7011   -1.1542    0.6234 N   0  0  0  0  0  0  0  0  0  0  0  0
   -2.4997   -0.8291    0.0789 H   0  0  0  0  0  0  0  0  0  0  0  0
   -0.4079   -0.4973    0.4033 C   0  0  1  0  0  0  0  0  0  0  0  0
    0.2985   -0.7804    1.1909 H   0  0  0  0  0  0  0  0  0  0  0  0
    0.2632   -0.7627   -0.9818 C   0  0  0  0  0  0  0  0  0  0  0  0
    0.7556    0.1572   -1.3176 H   0  0  0  0  0  0  0  0  0  0  0  0
    1.0717   -1.4716   -0.7727 H   0  0  0  0  0  0  0  0  0  0  0  0
   -0.4980   -1.3577   -2.2073 C   0  0  0  0  0  0  0  0  0  0  0  0
   -0.4058   -0.6473   -3.0332 H   0  0  0  0  0  0  0  0  0  0  0  0
    0.0250   -2.2680   -2.5165 H   0  0  0  0  0  0  0  0  0  0  0  0
   -1.9773   -1.7101   -2.0978 C   0  0  0  0  0  0  0  0  0  0  0  0
   -2.3852   -2.8549   -2.1364 O   0  0  0  0  0  0  0  0  0  0  0  0
   -2.9353   -0.7370   -2.0077 N   0  0  0  0  0  0  0  0  0  0  0  0
   -3.8966   -1.0146   -2.1824 H   0  0  0  0  0  0  0  0  0  0  0  0
   -2.6585    0.2430   -2.0481 H   0  0  0  0  0  0  0  0  0  0  0  0
   -0.6434    1.0235    0.5137 C   0  0  0  0  0  0  0  0  0  0  0  0
   -1.5416    1.5435   -0.1434 O   0  0  0  0  0  0  0  0  0  0  0  0
    0.2220    1.8208    1.2389 N   0  0  0  0  0  0  0  0  0  0  0  0
    0.9151    1.3523    1.8164 H   0  0  0  0  0  0  0  0  0  0  0  0
    0.0537    3.2628    1.3738 C   0  0  0  0  0  0  0  0  0  0  0  0
   -0.8869    3.4920    1.8856 H   0  0  0  0  0  0  0  0  0  0  0  0
    0.8780    3.6866    1.9555 H   0  0  0  0  0  0  0  0  0  0  0  0
    0.0457    3.7428    0.3895 H   0  0  0  0  0  0  0  0  0  0  0  0
  1  2  1  0  0  0  0
  2  3  1  0  0  0  0
  2  4  1  0  0  0  0
  2  5  1  0  0  0  0
  5  6  2  0  0  0  0
  5  7  1  0  0  0  0
  7  8  1  0  0  0  0
  7  9  1  0  0  0  0
  9 10  1  0  0  0  0
  9 11  1  0  0  0  0
  9 22  1  0  0  0  0
 11 12  1  0  0  0  0
 11 13  1  0  0  0  0
 11 14  1  0  0  0  0
 14 15  1  0  0  0  0
 14 16  1  0  0  0  0
 14 17  1  0  0  0  0
 17 18  2  0  0  0  0
 17 19  1  0  0  0  0
 19 20  1  0  0  0  0
 19 21  1  0  0  0  0
 22 23  2  0  0  0  0
 22 24  1  0  0  0  0
 24 25  1  0  0  0  0
 24 26  1  0  0  0  0
 26 27  1  0  0  0  0
 26 28  1  0  0  0  0
 26 29  1  0  0  0  0
M  END
$$$$

  -OEChem-04042215583D

 29 28  0     1  0  0  0  0  0999 V2000
   -3.4374   -3.7013    1.5964 H   0  0  0  0  0  0  0  0  0  0  0  0
   -3.4347   -2.7185    1.1173 C   0  0  0  0  0  0  0  0  0  0  0  0
   -4.0451   -2.0342    1.7118 H   0  0  0  0  0  0  0  0  0  0  0  0
   -3.8708   -2.8098    0.1197 H   0  0  0  0  0  0  0  0  0  0  0  0
   -2.0171   -2.1894    1.0153 C   0  0  0  0  0  0  0  0  0  0  0  0
   -1.0773   -2.8758    1.3872 O   0  0  0  0  0  0  0  0  0  0  0  0
   -1.7920   -0.9429    0.4740 N   0  0  0  0  0  0  0  0  0  0  0  0
   -2.6024   -0.4138    0.1414 H   0  0  0  0  0  0  0  0  0  0  0  0
   -0.4873   -0.2870    0.3464 C   0  0  1  0  0  0  0  0  0  0  0  0
    0.1928   -0.7599    1.0625 H   0  0  0  0  0  0  0  0  0  0  0  0
    0.1830   -0.4204   -1.0540 C   0  0  0  0  0  0  0  0  0  0  0  0
    0.6206    0.5538   -1.2989 H   0  0  0  0  0  0  0  0  0  0  0  0
    1.0250   -1.1108   -0.9366 H   0  0  0  0  0  0  0  0  0  0  0  0
   -0.5986   -0.8827   -2.3221 C   0  0  0  0  0  0  0  0  0  0  0  0
   -0.2791   -0.2647   -3.1659 H   0  0  0  0  0  0  0  0  0  0  0  0
   -0.2772   -1.9050   -2.5393 H   0  0  0  0  0  0  0  0  0  0  0  0
   -2.1260   -0.8969   -2.3255 C   0  0  0  0  0  0  0  0  0  0  0  0
   -2.8024    0.0915   -2.1225 O   0  0  0  0  0  0  0  0  0  0  0  0
   -2.8345   -2.0413   -2.5620 N   0  0  0  0  0  0  0  0  0  0  0  0
   -3.8226   -1.9092   -2.7579 H   0  0  0  0  0  0  0  0  0  0  0  0
   -2.3448   -2.8448   -2.9413 H   0  0  0  0  0  0  0  0  0  0  0  0
   -0.5704    1.1907    0.7893 C   0  0  0  0  0  0  0  0  0  0  0  0
   -1.5209    1.8918    0.4712 O   0  0  0  0  0  0  0  0  0  0  0  0
    0.4092    1.7229    1.6089 N   0  0  0  0  0  0  0  0  0  0  0  0
    1.1352    1.0953    1.9416 H   0  0  0  0  0  0  0  0  0  0  0  0
    0.3486    3.0774    2.1456 C   0  0  0  0  0  0  0  0  0  0  0  0
   -0.5204    3.1904    2.8024 H   0  0  0  0  0  0  0  0  0  0  0  0
    1.2514    3.2968    2.7235 H   0  0  0  0  0  0  0  0  0  0  0  0
    0.2735    3.8091    1.3341 H   0  0  0  0  0  0  0  0  0  0  0  0
  1  2  1  0  0  0  0
  2  3  1  0  0  0  0
  2  4  1  0  0  0  0
  2  5  1  0  0  0  0
  5  6  2  0  0  0  0
  5  7  1  0  0  0  0
  7  8  1  0  0  0  0
  7  9  1  0  0  0  0
  9 10  1  0  0  0  0
  9 11  1  0  0  0  0
  9 22  1  0  0  0  0
 11 12  1  0  0  0  0
 11 13  1  0  0  0  0
 11 14  1  0  0  0  0
 14 15  1  0  0  0  0
 14 16  1  0  0  0  0
 14 17  1  0  0  0  0
 17 18  2  0  0  0  0
 17 19  1  0  0  0  0
 19 20  1  0  0  0  0
 19 21  1  0  0  0  0
 22 23  2  0  0  0  0
 22 24  1  0  0  0  0
 24 25  1  0  0  0  0
 24 26  1  0  0  0  0
 26 27  1  0  0  0  0
 26 28  1  0  0  0  0
 26 29  1  0  0  0  0
M  END
$$$$

  -OEChem-04042215583D

 29 28  0     1  0  0  0  0  0999 V2000
   -3.3938   -3.7704    1.3817 H   0  0  0  0  0  0  0  0  0  0  0  0
   -3.4026   -2.7421    1.0101 C   0  0  0  0  0  0  0  0  0  0  0  0
   -3.9488   -2.1150    1.7191 H   0  0  0  0  0  0  0  0  0  0  0  0
   -3.9155   -2.7191    0.0457 H   0  0  0  0  0  0  0  0  0  0  0  0
   -1.9838   -2.2286    0.8552 C   0  0  0  0  0  0  0  0  0  0  0  0
   -1.0372   -2.9401    1.1545 O   0  0  0  0  0  0  0  0  0  0  0  0
   -1.7668   -0.9659    0.3488 N   0  0  0  0  0  0  0  0  0  0  0  0
   -2.5870   -0.3881    0.1566 H   0  0  0  0  0  0  0  0  0  0  0  0
   -0.4664   -0.2879    0.2897 C   0  0  1  0  0  0  0  0  0  0  0  0
    0.1848   -0.7627    1.0310 H   0  0  0  0  0  0  0  0  0  0  0  0
    0.2713   -0.4051   -1.0745 C   0  0  0  0  0  0  0  0  0  0  0  0
    0.6902    0.5810   -1.3041 H   0  0  0  0  0  0  0  0  0  0  0  0
    1.1228   -1.0790   -0.9330 H   0  0  0  0  0  0  0  0  0  0  0  0
   -0.4777   -0.8758   -2.3510 C   0  0  0  0  0  0  0  0  0  0  0  0
    0.0288   -0.4659   -3.2291 H   0  0  0  0  0  0  0  0  0  0  0  0
   -0.3777   -1.9634   -2.4015 H   0  0  0  0  0  0  0  0  0  0  0  0
   -1.9656   -0.5619   -2.4751 C   0  0  0  0  0  0  0  0  0  0  0  0
   -2.3804    0.5737   -2.5827 O   0  0  0  0  0  0  0  0  0  0  0  0
   -2.9125   -1.5446   -2.5594 N   0  0  0  0  0  0  0  0  0  0  0  0
   -3.8227   -1.2392   -2.8918 H   0  0  0  0  0  0  0  0  0  0  0  0
   -2.6031   -2.4952   -2.7314 H   0  0  0  0  0  0  0  0  0  0  0  0
   -0.5978    1.1768    0.7620 C   0  0  0  0  0  0  0  0  0  0  0  0
   -1.6026    1.8253    0.5035 O   0  0  0  0  0  0  0  0  0  0  0  0
    0.3353    1.7097    1.6337 N   0  0  0  0  0  0  0  0  0  0  0  0
    1.1050    1.1134    1.9225 H   0  0  0  0  0  0  0  0  0  0  0  0
    0.1971    3.0266    2.2442 C   0  0  0  0  0  0  0  0  0  0  0  0
   -0.6820    3.0554    2.8963 H   0  0  0  0  0  0  0  0  0  0  0  0
    1.0821    3.2608    2.8435 H   0  0  0  0  0  0  0  0  0  0  0  0
    0.0893    3.7972    1.4736 H   0  0  0  0  0  0  0  0  0  0  0  0
  1  2  1  0  0  0  0
  2  3  1  0  0  0  0
  2  4  1  0  0  0  0
  2  5  1  0  0  0  0
  5  6  2  0  0  0  0
  5  7  1  0  0  0  0
  7  8  1  0  0  0  0
  7  9  1  0  0  0  0
  9 10  1  0  0  0  0
  9 11  1  0  0  0  0
  9 22  1  0  0  0  0
 11 12  1  0  0  0  0
 11 13  1  0  0  0  0
 11 14  1  0  0  0  0
 14 15  1  0  0  0  0
 14 16  1  0  0  0  0
 14 17  1  0  0  0  0
 17 18  2  0  0  0  0
 17 19  1  0  0  0  0
 19 20  1  0  0  0  0
 19 21  1  0  0  0  0
 22 23  2  0  0  0  0
 22 24  1  0  0  0  0
 24 25  1  0  0  0  0
 24 26  1  0  0  0  0
 26 27  1  0  0  0  0
 26 28  1  0  0  0  0
 26 29  1  0  0  0  0
M  END
$$$$

  -OEChem-04042215583D

 29 28  0     1  0  0  0  0  0999 V2000
   -3.3763   -3.7968    1.2975 H   0  0  0  0  0  0  0  0  0  0  0  0
   -3.3798   -2.7576    0.9568 C   0  0  0  0  0  0  0  0  0  0  0  0
   -3.9201   -2.1483    1.6855 H   0  0  0  0  0  0  0  0  0  0  0  0
   -3.8946   -2.7031   -0.0054 H   0  0  0  0  0  0  0  0  0  0  0  0
   -1.9580   -2.2497    0.8152 C   0  0  0  0  0  0  0  0  0  0  0  0
   -1.0192   -2.9546    1.1502 O   0  0  0  0  0  0  0  0  0  0  0  0
   -1.7292   -1.0004    0.2818 N   0  0  0  0  0  0  0  0  0  0  0  0
   -2.5453   -0.4184    0.0864 H   0  0  0  0  0  0  0  0  0  0  0  0
   -0.4286   -0.3176    0.2703 C   0  0  1  0  0  0  0  0  0  0  0  0
    0.1962   -0.7678    1.0488 H   0  0  0  0  0  0  0  0  0  0  0  0
    0.3524   -0.4621   -1.0643 C   0  0  0  0  0  0  0  0  0  0  0  0
    0.7902    0.5122   -1.3098 H   0  0  0  0  0  0  0  0  0  0  0  0
    1.1873   -1.1492   -0.8908 H   0  0  0  0  0  0  0  0  0  0  0  0
   -0.3999   -0.9591   -2.3222 C   0  0  0  0  0  0  0  0  0  0  0  0
    0.2286   -0.7973   -3.2024 H   0  0  0  0  0  0  0  0  0  0  0  0
   -0.5489   -2.0378   -2.2232 H   0  0  0  0  0  0  0  0  0  0  0  0
   -1.7610   -0.3204   -2.5810 C   0  0  0  0  0  0  0  0  0  0  0  0
   -1.8625    0.8434   -2.9122 O   0  0  0  0  0  0  0  0  0  0  0  0
   -2.9222   -1.0422   -2.5853 N   0  0  0  0  0  0  0  0  0  0  0  0
   -3.7147   -0.5737   -3.0156 H   0  0  0  0  0  0  0  0  0  0  0  0
   -2.8541   -2.0534   -2.6175 H   0  0  0  0  0  0  0  0  0  0  0  0
   -0.6021    1.1572    0.6943 C   0  0  0  0  0  0  0  0  0  0  0  0
   -1.6154    1.7700    0.3841 O   0  0  0  0  0  0  0  0  0  0  0  0
    0.2744    1.7287    1.5992 N   0  0  0  0  0  0  0  0  0  0  0  0
    1.0528    1.1634    1.9247 H   0  0  0  0  0  0  0  0  0  0  0  0
    0.0925    3.0654    2.1527 C   0  0  0  0  0  0  0  0  0  0  0  0
   -0.8427    3.1212    2.7195 H   0  0  0  0  0  0  0  0  0  0  0  0
    0.9198    3.3131    2.8246 H   0  0  0  0  0  0  0  0  0  0  0  0
    0.0640    3.8111    1.3511 H   0  0  0  0  0  0  0  0  0  0  0  0
  1  2  1  0  0  0  0
  2  3  1  0  0  0  0
  2  4  1  0  0  0  0
  2  5  1  0  0  0  0
  5  6  2  0  0  0  0
  5  7  1  0  0  0  0
  7  8  1  0  0  0  0
  7  9  1  0  0  0  0
  9 10  1  0  0  0  0
  9 11  1  0  0  0  0
  9 22  1  0  0  0  0
 11 12  1  0  0  0  0
 11 13  1  0  0  0  0
 11 14  1  0  0  0  0
 14 15  1  0  0  0  0
 14 16  1  0  0  0  0
 14 17  1  0  0  0  0
 17 18  2  0  0  0  0
 17 19  1  0  0  0  0
 19 20  1  0  0  0  0
 19 21  1  0  0  0  0
 22 23  2  0  0  0  0
 22 24  1  0  0  0  0
 24 25  1  0  0  0  0
 24 26  1  0  0  0  0
 26 27  1  0  0  0  0
 26 28  1  0  0  0  0
 26 29  1  0  0  0  0
M  END
$$$$

  -OEChem-04042215583D

 29 28  0     1  0  0  0  0  0999 V2000
   -3.3994   -3.7930    1.3174 H   0  0  0  0  0  0  0  0  0  0  0  0
   -3.3834   -2.7897    0.8823 C   0  0  0  0  0  0  0  0  0  0  0  0
   -3.9826   -2.1242    1.5088 H   0  0  0  0  0  0  0  0  0  0  0  0
   -3.8232   -2.8320   -0.1168 H   0  0  0  0  0  0  0  0  0  0  0  0
   -1.9577   -2.2780    0.8012 C   0  0  0  0  0  0  0  0  0  0  0  0
   -1.0362   -2.9641    1.2136 O   0  0  0  0  0  0  0  0  0  0  0  0
   -1.7044   -1.0473    0.2346 N   0  0  0  0  0  0  0  0  0  0  0  0
   -2.5101   -0.4686   -0.0074 H   0  0  0  0  0  0  0  0  0  0  0  0
   -0.4037   -0.3613    0.2707 C   0  0  1  0  0  0  0  0  0  0  0  0
    0.1909   -0.7832    1.0880 H   0  0  0  0  0  0  0  0  0  0  0  0
    0.4245   -0.5282   -1.0304 C   0  0  0  0  0  0  0  0  0  0  0  0
    0.8950    0.4288   -1.2842 H   0  0  0  0  0  0  0  0  0  0  0  0
    1.2338   -1.2350   -0.8198 H   0  0  0  0  0  0  0  0  0  0  0  0
   -0.3245   -1.0463   -2.2763 C   0  0  0  0  0  0  0  0  0  0  0  0
    0.3791   -1.1257   -3.1097 H   0  0  0  0  0  0  0  0  0  0  0  0
   -0.7090   -2.0506   -2.0791 H   0  0  0  0  0  0  0  0  0  0  0  0
   -1.4725   -0.1413   -2.7096 C   0  0  0  0  0  0  0  0  0  0  0  0
   -1.2638    0.9587   -3.1823 O   0  0  0  0  0  0  0  0  0  0  0  0
   -2.7775   -0.5470   -2.6805 N   0  0  0  0  0  0  0  0  0  0  0  0
   -3.4269    0.0523   -3.1826 H   0  0  0  0  0  0  0  0  0  0  0  0
   -2.9714   -1.5366   -2.5806 H   0  0  0  0  0  0  0  0  0  0  0  0
   -0.6127    1.1252    0.6315 C   0  0  0  0  0  0  0  0  0  0  0  0
   -1.6118    1.7137    0.2372 O   0  0  0  0  0  0  0  0  0  0  0  0
    0.2044    1.7387    1.5635 N   0  0  0  0  0  0  0  0  0  0  0  0
    0.9793    1.2009    1.9402 H   0  0  0  0  0  0  0  0  0  0  0  0
   -0.0088    3.0999    2.0407 C   0  0  0  0  0  0  0  0  0  0  0  0
   -0.9540    3.1698    2.5892 H   0  0  0  0  0  0  0  0  0  0  0  0
    0.8038    3.3974    2.7103 H   0  0  0  0  0  0  0  0  0  0  0  0
   -0.0361    3.8012    1.1998 H   0  0  0  0  0  0  0  0  0  0  0  0
  1  2  1  0  0  0  0
  2  3  1  0  0  0  0
  2  4  1  0  0  0  0
  2  5  1  0  0  0  0
  5  6  2  0  0  0  0
  5  7  1  0  0  0  0
  7  8  1  0  0  0  0
  7  9  1  0  0  0  0
  9 10  1  0  0  0  0
  9 11  1  0  0  0  0
  9 22  1  0  0  0  0
 11 12  1  0  0  0  0
 11 13  1  0  0  0  0
 11 14  1  0  0  0  0
 14 15  1  0  0  0  0
 14 16  1  0  0  0  0
 14 17  1  0  0  0  0
 17 18  2  0  0  0  0
 17 19  1  0  0  0  0
 19 20  1  0  0  0  0
 19 21  1  0  0  0  0
 22 23  2  0  0  0  0
 22 24  1  0  0  0  0
 24 25  1  0  0  0  0
 24 26  1  0  0  0  0
 26 27  1  0  0  0  0
 26 28  1  0  0  0  0
 26 29  1  0  0  0  0
M  END
$$$$

  -OEChem-04042215583D

 29 28  0     1  0  0  0  0  0999 V2000
   -3.4077   -3.7956    1.4015 H   0  0  0  0  0  0  0  0  0  0  0  0
   -3.3831   -2.8192    0.9093 C   0  0  0  0  0  0  0  0  0  0  0  0
   -3.9957   -2.1201    1.4839 H   0  0  0  0  0  0  0  0  0  0  0  0
   -3.8020   -2.9201   -0.0946 H   0  0  0  0  0  0  0  0  0  0  0  0
   -1.9561   -2.3108    0.8272 C   0  0  0  0  0  0  0  0  0  0  0  0
   -1.0408   -2.9811    1.2776 O   0  0  0  0  0  0  0  0  0  0  0  0
   -1.6958   -1.0978    0.2256 N   0  0  0  0  0  0  0  0  0  0  0  0
   -2.4989   -0.5186   -0.0213 H   0  0  0  0  0  0  0  0  0  0  0  0
   -0.3973   -0.4072    0.2754 C   0  0  1  0  0  0  0  0  0  0  0  0
    0.1838   -0.8012    1.1159 H   0  0  0  0  0  0  0  0  0  0  0  0
    0.4573   -0.5843   -1.0062 C   0  0  0  0  0  0  0  0  0  0  0  0
    0.9562    0.3588   -1.2587 H   0  0  0  0  0  0  0  0  0  0  0  0
    1.2466   -1.3047   -0.7677 H   0  0  0  0  0  0  0  0  0  0  0  0
   -0.2788   -1.1202   -2.2514 C   0  0  0  0  0  0  0  0  0  0  0  0
    0.4634   -1.4223   -2.9954 H   0  0  0  0  0  0  0  0  0  0  0  0
   -0.8663   -2.0094   -2.0111 H   0  0  0  0  0  0  0  0  0  0  0  0
   -1.1583   -0.0519   -2.8888 C   0  0  0  0  0  0  0  0  0  0  0  0
   -0.6777    0.9324   -3.4175 O   0  0  0  0  0  0  0  0  0  0  0  0
   -2.5196   -0.1599   -2.9288 N   0  0  0  0  0  0  0  0  0  0  0  0
   -3.0079    0.5360   -3.4852 H   0  0  0  0  0  0  0  0  0  0  0  0
   -2.9546   -1.0484   -2.7115 H   0  0  0  0  0  0  0  0  0  0  0  0
   -0.6332    1.0871    0.5824 C   0  0  0  0  0  0  0  0  0  0  0  0
   -1.6190    1.6519    0.1229 O   0  0  0  0  0  0  0  0  0  0  0  0
    0.1458    1.7438    1.5172 N   0  0  0  0  0  0  0  0  0  0  0  0
    0.9236    1.2352    1.9273 H   0  0  0  0  0  0  0  0  0  0  0  0
   -0.0807    3.1282    1.9143 C   0  0  0  0  0  0  0  0  0  0  0  0
   -1.0605    3.2348    2.3915 H   0  0  0  0  0  0  0  0  0  0  0  0
    0.6870    3.4489    2.6249 H   0  0  0  0  0  0  0  0  0  0  0  0
   -0.0402    3.7883    1.0413 H   0  0  0  0  0  0  0  0  0  0  0  0
  1  2  1  0  0  0  0
  2  3  1  0  0  0  0
  2  4  1  0  0  0  0
  2  5  1  0  0  0  0
  5  6  2  0  0  0  0
  5  7  1  0  0  0  0
  7  8  1  0  0  0  0
  7  9  1  0  0  0  0
  9 10  1  0  0  0  0
  9 11  1  0  0  0  0
  9 22  1  0  0  0  0
 11 12  1  0  0  0  0
 11 13  1  0  0  0  0
 11 14  1  0  0  0  0
 14 15  1  0  0  0  0
 14 16  1  0  0  0  0
 14 17  1  0  0  0  0
 17 18  2  0  0  0  0
 17 19  1  0  0  0  0
 19 20  1  0  0  0  0
 19 21  1  0  0  0  0
 22 23  2  0  0  0  0
 22 24  1  0  0  0  0
 24 25  1  0  0  0  0
 24 26  1  0  0  0  0
 26 27  1  0  0  0  0
 26 28  1  0  0  0  0
 26 29  1  0  0  0  0
M  END
$$$$

  -OEChem-04042215583D

 29 28  0     1  0  0  0  0  0999 V2000
   -3.3022   -3.9908    1.3950 H   0  0  0  0  0  0  0  0  0  0  0  0
   -3.3306   -3.0092    0.9136 C   0  0  0  0  0  0  0  0  0  0  0  0
   -4.0193   -2.3650    1.4657 H   0  0  0  0  0  0  0  0  0  0  0  0
   -3.6962   -3.1302   -0.1090 H   0  0  0  0  0  0  0  0  0  0  0  0
   -1.9444   -2.3932    0.8998 C   0  0  0  0  0  0  0  0  0  0  0  0
   -1.0200   -2.9514    1.4688 O   0  0  0  0  0  0  0  0  0  0  0  0
   -1.7319   -1.1987    0.2422 N   0  0  0  0  0  0  0  0  0  0  0  0
   -2.5507   -0.7264   -0.1378 H   0  0  0  0  0  0  0  0  0  0  0  0
   -0.4631   -0.4519    0.2593 C   0  0  1  0  0  0  0  0  0  0  0  0
    0.1335   -0.7846    1.1157 H   0  0  0  0  0  0  0  0  0  0  0  0
    0.3974   -0.6663   -1.0168 C   0  0  0  0  0  0  0  0  0  0  0  0
    0.8798    0.2724   -1.3123 H   0  0  0  0  0  0  0  0  0  0  0  0
    1.2021   -1.3515   -0.7290 H   0  0  0  0  0  0  0  0  0  0  0  0
   -0.2916   -1.2991   -2.2505 C   0  0  0  0  0  0  0  0  0  0  0  0
    0.4765   -1.8292   -2.8221 H   0  0  0  0  0  0  0  0  0  0  0  0
   -1.0338   -2.0482   -1.9695 H   0  0  0  0  0  0  0  0  0  0  0  0
   -0.9242   -0.2807   -3.1959 C   0  0  0  0  0  0  0  0  0  0  0  0
   -0.6629   -0.2834   -4.3835 O   0  0  0  0  0  0  0  0  0  0  0  0
   -1.8634    0.6308   -2.8089 N   0  0  0  0  0  0  0  0  0  0  0  0
   -2.0876    1.3327   -3.5072 H   0  0  0  0  0  0  0  0  0  0  0  0
   -1.9037    0.8924   -1.8231 H   0  0  0  0  0  0  0  0  0  0  0  0
   -0.7371    1.0463    0.4949 C   0  0  0  0  0  0  0  0  0  0  0  0
   -1.6647    1.5881   -0.0954 O   0  0  0  0  0  0  0  0  0  0  0  0
    0.0190    1.7740    1.3938 N   0  0  0  0  0  0  0  0  0  0  0  0
    0.7317    1.2775    1.9221 H   0  0  0  0  0  0  0  0  0  0  0  0
   -0.2426    3.1733    1.7091 C   0  0  0  0  0  0  0  0  0  0  0  0
   -1.2379    3.2870    2.1517 H   0  0  0  0  0  0  0  0  0  0  0  0
    0.4984    3.5451    2.4234 H   0  0  0  0  0  0  0  0  0  0  0  0
   -0.1870    3.7878    0.8042 H   0  0  0  0  0  0  0  0  0  0  0  0
  1  2  1  0  0  0  0
  2  3  1  0  0  0  0
  2  4  1  0  0  0  0
  2  5  1  0  0  0  0
  5  6  2  0  0  0  0
  5  7  1  0  0  0  0
  7  8  1  0  0  0  0
  7  9  1  0  0  0  0
  9 10  1  0  0  0  0
  9 11  1  0  0  0  0
  9 22  1  0  0  0  0
 11 12  1  0  0  0  0
 11 13  1  0  0  0  0
 11 14  1  0  0  0  0
 14 15  1  0  0  0  0
 14 16  1  0  0  0  0
 14 17  1  0  0  0  0
 17 18  2  0  0  0  0
 17 19  1  0  0  0  0
 19 20  1  0  0  0  0
 19 21  1  0  0  0  0
 22 23  2  0  0  0  0
 22 24  1  0  0  0  0
 24 25  1  0  0  0  0
 24 26  1  0  0  0  0
 26 27  1  0  0  0  0
 26 28  1  0  0  0  0
 26 29  1  0  0  0  0
M  END
$$$$

  -OEChem-04042215583D

 29 28  0     1  0  0  0  0  0999 V2000
   -3.3014   -3.9862    1.5768 H   0  0  0  0  0  0  0  0  0  0  0  0
   -3.3244   -3.0355    1.0369 C   0  0  0  0  0  0  0  0  0  0  0  0
   -4.0263   -2.3634    1.5363 H   0  0  0  0  0  0  0  0  0  0  0  0
   -3.6693   -3.2192    0.0165 H   0  0  0  0  0  0  0  0  0  0  0  0
   -1.9404   -2.4151    1.0120 C   0  0  0  0  0  0  0  0  0  0  0  0
   -1.0216   -2.9424    1.6182 O   0  0  0  0  0  0  0  0  0  0  0  0
   -1.7234   -1.2534    0.2998 N   0  0  0  0  0  0  0  0  0  0  0  0
   -2.5378   -0.7987   -0.1099 H   0  0  0  0  0  0  0  0  0  0  0  0
   -0.4517   -0.5129    0.2801 C   0  0  1  0  0  0  0  0  0  0  0  0
    0.1652   -0.8128    1.1342 H   0  0  0  0  0  0  0  0  0  0  0  0
    0.3797   -0.7181   -1.0164 C   0  0  0  0  0  0  0  0  0  0  0  0
    0.8743    0.2164   -1.3072 H   0  0  0  0  0  0  0  0  0  0  0  0
    1.1825   -1.4139   -0.7493 H   0  0  0  0  0  0  0  0  0  0  0  0
   -0.3378   -1.3395   -2.2415 C   0  0  0  0  0  0  0  0  0  0  0  0
    0.3347   -2.0747   -2.6938 H   0  0  0  0  0  0  0  0  0  0  0  0
   -1.2524   -1.8758   -1.9887 H   0  0  0  0  0  0  0  0  0  0  0  0
   -0.6455   -0.2877   -3.3019 C   0  0  0  0  0  0  0  0  0  0  0  0
   -0.1633   -0.3462   -4.4168 O   0  0  0  0  0  0  0  0  0  0  0  0
   -1.4910    0.7587   -3.0666 N   0  0  0  0  0  0  0  0  0  0  0  0
   -1.4937    1.4865   -3.7742 H   0  0  0  0  0  0  0  0  0  0  0  0
   -1.7031    1.0039   -2.0973 H   0  0  0  0  0  0  0  0  0  0  0  0
   -0.7497    0.9898    0.4482 C   0  0  0  0  0  0  0  0  0  0  0  0
   -1.6401    1.5016   -0.2235 O   0  0  0  0  0  0  0  0  0  0  0  0
   -0.0077    1.7706    1.3136 N   0  0  0  0  0  0  0  0  0  0  0  0
    0.6978    1.3081    1.8811 H   0  0  0  0  0  0  0  0  0  0  0  0
   -0.2428    3.1965    1.5069 C   0  0  0  0  0  0  0  0  0  0  0  0
   -1.2514    3.3693    1.8970 H   0  0  0  0  0  0  0  0  0  0  0  0
    0.4788    3.6052    2.2208 H   0  0  0  0  0  0  0  0  0  0  0  0
   -0.1333    3.7358    0.5601 H   0  0  0  0  0  0  0  0  0  0  0  0
  1  2  1  0  0  0  0
  2  3  1  0  0  0  0
  2  4  1  0  0  0  0
  2  5  1  0  0  0  0
  5  6  2  0  0  0  0
  5  7  1  0  0  0  0
  7  8  1  0  0  0  0
  7  9  1  0  0  0  0
  9 10  1  0  0  0  0
  9 11  1  0  0  0  0
  9 22  1  0  0  0  0
 11 12  1  0  0  0  0
 11 13  1  0  0  0  0
 11 14  1  0  0  0  0
 14 15  1  0  0  0  0
 14 16  1  0  0  0  0
 14 17  1  0  0  0  0
 17 18  2  0  0  0  0
 17 19  1  0  0  0  0
 19 20  1  0  0  0  0
 19 21  1  0  0  0  0
 22 23  2  0  0  0  0
 22 24  1  0  0  0  0
 24 25  1  0  0  0  0
 24 26  1  0  0  0  0
 26 27  1  0  0  0  0
 26 28  1  0  0  0  0
 26 29  1  0  0  0  0
M  END
$$$$

  -OEChem-04042215583D

 29 28  0     1  0  0  0  0  0999 V2000
   -3.3030   -3.9470    1.7722 H   0  0  0  0  0  0  0  0  0  0  0  0
   -3.3188   -3.0355    1.1683 C   0  0  0  0  0  0  0  0  0  0  0  0
   -4.0204   -2.3280    1.6165 H   0  0  0  0  0  0  0  0  0  0  0  0
   -3.6584   -3.2874    0.1609 H   0  0  0  0  0  0  0  0  0  0  0  0
   -1.9322   -2.4233    1.1099 C   0  0  0  0  0  0  0  0  0  0  0  0
   -1.0152   -2.9238    1.7409 O   0  0  0  0  0  0  0  0  0  0  0  0
   -1.7132   -1.2926    0.3505 N   0  0  0  0  0  0  0  0  0  0  0  0
   -2.5236   -0.8550   -0.0848 H   0  0  0  0  0  0  0  0  0  0  0  0
   -0.4362   -0.5640    0.2929 C   0  0  1  0  0  0  0  0  0  0  0  0
    0.2036   -0.8406    1.1377 H   0  0  0  0  0  0  0  0  0  0  0  0
    0.3533   -0.7697   -1.0280 C   0  0  0  0  0  0  0  0  0  0  0  0
    0.8473    0.1642   -1.3232 H   0  0  0  0  0  0  0  0  0  0  0  0
    1.1624   -1.4706   -0.7965 H   0  0  0  0  0  0  0  0  0  0  0  0
   -0.4157   -1.3778   -2.2299 C   0  0  0  0  0  0  0  0  0  0  0  0
    0.0747   -2.3054   -2.5404 H   0  0  0  0  0  0  0  0  0  0  0  0
   -1.4543   -1.6243   -2.0115 H   0  0  0  0  0  0  0  0  0  0  0  0
   -0.4047   -0.4017   -3.3977 C   0  0  0  0  0  0  0  0  0  0  0  0
    0.2239   -0.6157   -4.4163 O   0  0  0  0  0  0  0  0  0  0  0  0
   -1.0838    0.7819   -3.3239 N   0  0  0  0  0  0  0  0  0  0  0  0
   -0.8746    1.4628   -4.0468 H   0  0  0  0  0  0  0  0  0  0  0  0
   -1.4159    1.0956   -2.4098 H   0  0  0  0  0  0  0  0  0  0  0  0
   -0.7435    0.9423    0.4056 C   0  0  0  0  0  0  0  0  0  0  0  0
   -1.5879    1.4357   -0.3378 O   0  0  0  0  0  0  0  0  0  0  0  0
   -0.0011    1.7579    1.2377 N   0  0  0  0  0  0  0  0  0  0  0  0
    0.6781    1.3135    1.8501 H   0  0  0  0  0  0  0  0  0  0  0  0
   -0.2262    3.1929    1.3602 C   0  0  0  0  0  0  0  0  0  0  0  0
   -1.2456    3.3931    1.7067 H   0  0  0  0  0  0  0  0  0  0  0  0
    0.4749    3.6252    2.0805 H   0  0  0  0  0  0  0  0  0  0  0  0
   -0.0780    3.6887    0.3952 H   0  0  0  0  0  0  0  0  0  0  0  0
  1  2  1  0  0  0  0
  2  3  1  0  0  0  0
  2  4  1  0  0  0  0
  2  5  1  0  0  0  0
  5  6  2  0  0  0  0
  5  7  1  0  0  0  0
  7  8  1  0  0  0  0
  7  9  1  0  0  0  0
  9 10  1  0  0  0  0
  9 11  1  0  0  0  0
  9 22  1  0  0  0  0
 11 12  1  0  0  0  0
 11 13  1  0  0  0  0
 11 14  1  0  0  0  0
 14 15  1  0  0  0  0
 14 16  1  0  0  0  0
 14 17  1  0  0  0  0
 17 18  2  0  0  0  0
 17 19  1  0  0  0  0
 19 20  1  0  0  0  0
 19 21  1  0  0  0  0
 22 23  2  0  0  0  0
 22 24  1  0  0  0  0
 24 25  1  0  0  0  0
 24 26  1  0  0  0  0
 26 27  1  0  0  0  0
 26 28  1  0  0  0  0
 26 29  1  0  0  0  0
M  END
$$$$

  -OEChem-04042215583D

 29 28  0     1  0  0  0  0  0999 V2000
   -3.2941   -3.9083    1.8722 H   0  0  0  0  0  0  0  0  0  0  0  0
   -3.3152   -3.0080    1.2516 C   0  0  0  0  0  0  0  0  0  0  0  0
   -4.0000   -2.2856    1.7024 H   0  0  0  0  0  0  0  0  0  0  0  0
   -3.6806   -3.2753    0.2572 H   0  0  0  0  0  0  0  0  0  0  0  0
   -1.9241   -2.4112    1.1499 C   0  0  0  0  0  0  0  0  0  0  0  0
   -0.9925   -2.9270    1.7464 O   0  0  0  0  0  0  0  0  0  0  0  0
   -1.7167   -1.2797    0.3881 N   0  0  0  0  0  0  0  0  0  0  0  0
   -2.5373   -0.8267   -0.0107 H   0  0  0  0  0  0  0  0  0  0  0  0
   -0.4377   -0.5558    0.3034 C   0  0  1  0  0  0  0  0  0  0  0  0
    0.2146   -0.8370    1.1369 H   0  0  0  0  0  0  0  0  0  0  0  0
    0.3248   -0.7897   -1.0278 C   0  0  0  0  0  0  0  0  0  0  0  0
    0.7809    0.1528   -1.3534 H   0  0  0  0  0  0  0  0  0  0  0  0
    1.1577   -1.4692   -0.8176 H   0  0  0  0  0  0  0  0  0  0  0  0
   -0.4844   -1.4141   -2.1915 C   0  0  0  0  0  0  0  0  0  0  0  0
   -0.2256   -2.4713   -2.3029 H   0  0  0  0  0  0  0  0  0  0  0  0
   -1.5617   -1.3524   -2.0315 H   0  0  0  0  0  0  0  0  0  0  0  0
   -0.2011   -0.6694   -3.4871 C   0  0  0  0  0  0  0  0  0  0  0  0
    0.5825   -1.0884   -4.3167 O   0  0  0  0  0  0  0  0  0  0  0  0
   -0.7749    0.5457   -3.7344 N   0  0  0  0  0  0  0  0  0  0  0  0
   -0.3900    1.0733   -4.5118 H   0  0  0  0  0  0  0  0  0  0  0  0
   -1.2399    1.0282   -2.9679 H   0  0  0  0  0  0  0  0  0  0  0  0
   -0.7231    0.9546    0.4244 C   0  0  0  0  0  0  0  0  0  0  0  0
   -1.5907    1.4588   -0.2826 O   0  0  0  0  0  0  0  0  0  0  0  0
    0.0495    1.7590    1.2403 N   0  0  0  0  0  0  0  0  0  0  0  0
    0.7498    1.3072    1.8225 H   0  0  0  0  0  0  0  0  0  0  0  0
   -0.1498    3.1977    1.3651 C   0  0  0  0  0  0  0  0  0  0  0  0
   -1.1585    3.4144    1.7327 H   0  0  0  0  0  0  0  0  0  0  0  0
    0.5730    3.6201    2.0700 H   0  0  0  0  0  0  0  0  0  0  0  0
   -0.0141    3.6891    0.3958 H   0  0  0  0  0  0  0  0  0  0  0  0
  1  2  1  0  0  0  0
  2  3  1  0  0  0  0
  2  4  1  0  0  0  0
  2  5  1  0  0  0  0
  5  6  2  0  0  0  0
  5  7  1  0  0  0  0
  7  8  1  0  0  0  0
  7  9  1  0  0  0  0
  9 10  1  0  0  0  0
  9 11  1  0  0  0  0
  9 22  1  0  0  0  0
 11 12  1  0  0  0  0
 11 13  1  0  0  0  0
 11 14  1  0  0  0  0
 14 15  1  0  0  0  0
 14 16  1  0  0  0  0
 14 17  1  0  0  0  0
 17 18  2  0  0  0  0
 17 19  1  0  0  0  0
 19 20  1  0  0  0  0
 19 21  1  0  0  0  0
 22 23  2  0  0  0  0
 22 24  1  0  0  0  0
 24 25  1  0  0  0  0
 24 26  1  0  0  0  0
 26 27  1  0  0  0  0
 26 28  1  0  0  0  0
 26 29  1  0  0  0  0
M  END
$$$$

  -OEChem-04042215583D

 29 28  0     1  0  0  0  0  0999 V2000
   -3.3837   -3.7908    1.6705 H   0  0  0  0  0  0  0  0  0  0  0  0
   -3.3751   -2.8272    1.1532 C   0  0  0  0  0  0  0  0  0  0  0  0
   -3.9822   -2.1174    1.7205 H   0  0  0  0  0  0  0  0  0  0  0  0
   -3.8112   -2.9570    0.1598 H   0  0  0  0  0  0  0  0  0  0  0  0
   -1.9536   -2.3112    1.0320 C   0  0  0  0  0  0  0  0  0  0  0  0
   -1.0289   -2.9506    1.5070 O   0  0  0  0  0  0  0  0  0  0  0  0
   -1.7125   -1.1205    0.3795 N   0  0  0  0  0  0  0  0  0  0  0  0
   -2.5233   -0.5661    0.1071 H   0  0  0  0  0  0  0  0  0  0  0  0
   -0.4084   -0.4380    0.3456 C   0  0  1  0  0  0  0  0  0  0  0  0
    0.2213   -0.8138    1.1588 H   0  0  0  0  0  0  0  0  0  0  0  0
    0.3612   -0.6461   -0.9844 C   0  0  0  0  0  0  0  0  0  0  0  0
    0.8113    0.3111   -1.2738 H   0  0  0  0  0  0  0  0  0  0  0  0
    1.1899   -1.3396   -0.8067 H   0  0  0  0  0  0  0  0  0  0  0  0
   -0.4712   -1.1959   -2.1682 C   0  0  0  0  0  0  0  0  0  0  0  0
   -0.4943   -2.2885   -2.1339 H   0  0  0  0  0  0  0  0  0  0  0  0
   -1.4986   -0.8310   -2.0964 H   0  0  0  0  0  0  0  0  0  0  0  0
    0.0468   -0.7256   -3.5257 C   0  0  0  0  0  0  0  0  0  0  0  0
    1.2081   -0.4165   -3.7197 O   0  0  0  0  0  0  0  0  0  0  0  0
   -0.7697   -0.6643   -4.6188 N   0  0  0  0  0  0  0  0  0  0  0  0
   -0.3161   -0.4992   -5.5126 H   0  0  0  0  0  0  0  0  0  0  0  0
   -1.6941   -1.0787   -4.5761 H   0  0  0  0  0  0  0  0  0  0  0  0
   -0.6235    1.0657    0.6135 C   0  0  0  0  0  0  0  0  0  0  0  0
   -1.5800    1.6407    0.1053 O   0  0  0  0  0  0  0  0  0  0  0  0
    0.1984    1.7504    1.4891 N   0  0  0  0  0  0  0  0  0  0  0  0
    0.9586    1.2353    1.9245 H   0  0  0  0  0  0  0  0  0  0  0  0
    0.0107    3.1551    1.8305 C   0  0  0  0  0  0  0  0  0  0  0  0
   -0.9592    3.3049    2.3163 H   0  0  0  0  0  0  0  0  0  0  0  0
    0.7962    3.4856    2.5170 H   0  0  0  0  0  0  0  0  0  0  0  0
    0.0546    3.7775    0.9306 H   0  0  0  0  0  0  0  0  0  0  0  0
  1  2  1  0  0  0  0
  2  3  1  0  0  0  0
  2  4  1  0  0  0  0
  2  5  1  0  0  0  0
  5  6  2  0  0  0  0
  5  7  1  0  0  0  0
  7  8  1  0  0  0  0
  7  9  1  0  0  0  0
  9 10  1  0  0  0  0
  9 11  1  0  0  0  0
  9 22  1  0  0  0  0
 11 12  1  0  0  0  0
 11 13  1  0  0  0  0
 11 14  1  0  0  0  0
 14 15  1  0  0  0  0
 14 16  1  0  0  0  0
 14 17  1  0  0  0  0
 17 18  2  0  0  0  0
 17 19  1  0  0  0  0
 19 20  1  0  0  0  0
 19 21  1  0  0  0  0
 22 23  2  0  0  0  0
 22 24  1  0  0  0  0
 24 25  1  0  0  0  0
 24 26  1  0  0  0  0
 26 27  1  0  0  0  0
 26 28  1  0  0  0  0
 26 29  1  0  0  0  0
M  END
$$$$

  -OEChem-04042215583D

 29 28  0     1  0  0  0  0  0999 V2000
   -3.4030   -3.7517    1.6763 H   0  0  0  0  0  0  0  0  0  0  0  0
   -3.3880   -2.7971    1.1430 C   0  0  0  0  0  0  0  0  0  0  0  0
   -3.9838   -2.0720    1.7028 H   0  0  0  0  0  0  0  0  0  0  0  0
   -3.8323   -2.9382    0.1549 H   0  0  0  0  0  0  0  0  0  0  0  0
   -1.9622   -2.2983    1.0041 C   0  0  0  0  0  0  0  0  0  0  0  0
   -1.0383   -2.9562    1.4550 O   0  0  0  0  0  0  0  0  0  0  0  0
   -1.7162   -1.0994    0.3687 N   0  0  0  0  0  0  0  0  0  0  0  0
   -2.5242   -0.5341    0.1107 H   0  0  0  0  0  0  0  0  0  0  0  0
   -0.4073   -0.4250    0.3427 C   0  0  1  0  0  0  0  0  0  0  0  0
    0.2242   -0.8183    1.1465 H   0  0  0  0  0  0  0  0  0  0  0  0
    0.3482   -0.6179   -0.9958 C   0  0  0  0  0  0  0  0  0  0  0  0
    0.8077    0.3345   -1.2858 H   0  0  0  0  0  0  0  0  0  0  0  0
    1.1659   -1.3291   -0.8359 H   0  0  0  0  0  0  0  0  0  0  0  0
   -0.5151   -1.1410   -2.1645 C   0  0  0  0  0  0  0  0  0  0  0  0
   -0.7529   -2.1965   -2.0064 H   0  0  0  0  0  0  0  0  0  0  0  0
   -1.4523   -0.5784   -2.2002 H   0  0  0  0  0  0  0  0  0  0  0  0
    0.1628   -0.9740   -3.5226 C   0  0  0  0  0  0  0  0  0  0  0  0
    1.3368   -0.6782   -3.6512 O   0  0  0  0  0  0  0  0  0  0  0  0
   -0.5201   -1.1883   -4.6853 N   0  0  0  0  0  0  0  0  0  0  0  0
    0.0395   -1.2301   -5.5321 H   0  0  0  0  0  0  0  0  0  0  0  0
   -1.4344   -1.6254   -4.6495 H   0  0  0  0  0  0  0  0  0  0  0  0
   -0.6092    1.0760    0.6336 C   0  0  0  0  0  0  0  0  0  0  0  0
   -1.5603    1.6678    0.1346 O   0  0  0  0  0  0  0  0  0  0  0  0
    0.2204    1.7399    1.5177 N   0  0  0  0  0  0  0  0  0  0  0  0
    0.9751    1.2105    1.9455 H   0  0  0  0  0  0  0  0  0  0  0  0
    0.0452    3.1405    1.8817 C   0  0  0  0  0  0  0  0  0  0  0  0
   -0.9293    3.2943    2.3570 H   0  0  0  0  0  0  0  0  0  0  0  0
    0.8250    3.4489    2.5846 H   0  0  0  0  0  0  0  0  0  0  0  0
    0.1090    3.7780    0.9936 H   0  0  0  0  0  0  0  0  0  0  0  0
  1  2  1  0  0  0  0
  2  3  1  0  0  0  0
  2  4  1  0  0  0  0
  2  5  1  0  0  0  0
  5  6  2  0  0  0  0
  5  7  1  0  0  0  0
  7  8  1  0  0  0  0
  7  9  1  0  0  0  0
  9 10  1  0  0  0  0
  9 11  1  0  0  0  0
  9 22  1  0  0  0  0
 11 12  1  0  0  0  0
 11 13  1  0  0  0  0
 11 14  1  0  0  0  0
 14 15  1  0  0  0  0
 14 16  1  0  0  0  0
 14 17  1  0  0  0  0
 17 18  2  0  0  0  0
 17 19  1  0  0  0  0
 19 20  1  0  0  0  0
 19 21  1  0  0  0  0
 22 23  2  0  0  0  0
 22 24  1  0  0  0  0
 24 25  1  0  0  0  0
 24 26  1  0  0  0  0
 26 27  1  0  0  0  0
 26 28  1  0  0  0  0
 26 29  1  0  0  0  0
M  END
$$$$

  -OEChem-04042215583D

 29 28  0     1  0  0  0  0  0999 V2000
   -3.4054   -3.7458    1.6513 H   0  0  0  0  0  0  0  0  0  0  0  0
   -3.3845   -2.8058    1.0927 C   0  0  0  0  0  0  0  0  0  0  0  0
   -4.0052   -2.0731    1.6142 H   0  0  0  0  0  0  0  0  0  0  0  0
   -3.7961   -2.9788    0.0956 H   0  0  0  0  0  0  0  0  0  0  0  0
   -1.9604   -2.2948    0.9837 C   0  0  0  0  0  0  0  0  0  0  0  0
   -1.0403   -2.9485    1.4479 O   0  0  0  0  0  0  0  0  0  0  0  0
   -1.7117   -1.0896    0.3608 N   0  0  0  0  0  0  0  0  0  0  0  0
   -2.5182   -0.5273    0.0929 H   0  0  0  0  0  0  0  0  0  0  0  0
   -0.4029   -0.4165    0.3433 C   0  0  1  0  0  0  0  0  0  0  0  0
    0.2354   -0.8209    1.1359 H   0  0  0  0  0  0  0  0  0  0  0  0
    0.3349   -0.5874   -1.0039 C   0  0  0  0  0  0  0  0  0  0  0  0
    1.0252    0.2506   -1.1560 H   0  0  0  0  0  0  0  0  0  0  0  0
    0.9428   -1.4965   -0.9371 H   0  0  0  0  0  0  0  0  0  0  0  0
   -0.5881   -0.7277   -2.2337 C   0  0  0  0  0  0  0  0  0  0  0  0
   -1.2329   -1.6021   -2.1177 H   0  0  0  0  0  0  0  0  0  0  0  0
   -1.2228    0.1593   -2.3141 H   0  0  0  0  0  0  0  0  0  0  0  0
    0.1888   -0.8926   -3.5378 C   0  0  0  0  0  0  0  0  0  0  0  0
    1.4048   -0.9014   -3.5953 O   0  0  0  0  0  0  0  0  0  0  0  0
   -0.4582   -1.0528   -4.7298 N   0  0  0  0  0  0  0  0  0  0  0  0
    0.1182   -1.3122   -5.5252 H   0  0  0  0  0  0  0  0  0  0  0  0
   -1.4568   -1.2291   -4.7353 H   0  0  0  0  0  0  0  0  0  0  0  0
   -0.5979    1.0825    0.6487 C   0  0  0  0  0  0  0  0  0  0  0  0
   -1.5395    1.6879    0.1477 O   0  0  0  0  0  0  0  0  0  0  0  0
    0.2348    1.7332    1.5400 N   0  0  0  0  0  0  0  0  0  0  0  0
    0.9834    1.1939    1.9663 H   0  0  0  0  0  0  0  0  0  0  0  0
    0.0749    3.1345    1.9091 C   0  0  0  0  0  0  0  0  0  0  0  0
   -0.9084    3.3022    2.3611 H   0  0  0  0  0  0  0  0  0  0  0  0
    0.8419    3.4251    2.6337 H   0  0  0  0  0  0  0  0  0  0  0  0
    0.1717    3.7759    1.0268 H   0  0  0  0  0  0  0  0  0  0  0  0
  1  2  1  0  0  0  0
  2  3  1  0  0  0  0
  2  4  1  0  0  0  0
  2  5  1  0  0  0  0
  5  6  2  0  0  0  0
  5  7  1  0  0  0  0
  7  8  1  0  0  0  0
  7  9  1  0  0  0  0
  9 10  1  0  0  0  0
  9 11  1  0  0  0  0
  9 22  1  0  0  0  0
 11 12  1  0  0  0  0
 11 13  1  0  0  0  0
 11 14  1  0  0  0  0
 14 15  1  0  0  0  0
 14 16  1  0  0  0  0
 14 17  1  0  0  0  0
 17 18  2  0  0  0  0
 17 19  1  0  0  0  0
 19 20  1  0  0  0  0
 19 21  1  0  0  0  0
 22 23  2  0  0  0  0
 22 24  1  0  0  0  0
 24 25  1  0  0  0  0
 24 26  1  0  0  0  0
 26 27  1  0  0  0  0
 26 28  1  0  0  0  0
 26 29  1  0  0  0  0
M  END
$$$$

  -OEChem-04042215583D

 29 28  0     1  0  0  0  0  0999 V2000
   -3.4304   -3.7317    1.6468 H   0  0  0  0  0  0  0  0  0  0  0  0
   -3.4059   -2.7871    1.0962 C   0  0  0  0  0  0  0  0  0  0  0  0
   -4.0166   -2.0538    1.6284 H   0  0  0  0  0  0  0  0  0  0  0  0
   -3.8265   -2.9480    0.1007 H   0  0  0  0  0  0  0  0  0  0  0  0
   -1.9786   -2.2866    0.9807 C   0  0  0  0  0  0  0  0  0  0  0  0
   -1.0602   -2.9507    1.4333 O   0  0  0  0  0  0  0  0  0  0  0  0
   -1.7255   -1.0785    0.3656 N   0  0  0  0  0  0  0  0  0  0  0  0
   -2.5299   -0.5062    0.1123 H   0  0  0  0  0  0  0  0  0  0  0  0
   -0.4121   -0.4159    0.3409 C   0  0  1  0  0  0  0  0  0  0  0  0
    0.2292   -0.8317    1.1254 H   0  0  0  0  0  0  0  0  0  0  0  0
    0.3226   -0.5671   -1.0117 C   0  0  0  0  0  0  0  0  0  0  0  0
    1.0339    0.2545   -1.1530 H   0  0  0  0  0  0  0  0  0  0  0  0
    0.9112   -1.4891   -0.9427 H   0  0  0  0  0  0  0  0  0  0  0  0
   -0.5840   -0.6845   -2.2595 C   0  0  0  0  0  0  0  0  0  0  0  0
   -1.3912   -1.3969   -2.0779 H   0  0  0  0  0  0  0  0  0  0  0  0
   -1.0330    0.2884   -2.4783 H   0  0  0  0  0  0  0  0  0  0  0  0
    0.1702   -1.1854   -3.4893 C   0  0  0  0  0  0  0  0  0  0  0  0
    1.3834   -1.2729   -3.5389 O   0  0  0  0  0  0  0  0  0  0  0  0
   -0.4929   -1.5552   -4.6242 N   0  0  0  0  0  0  0  0  0  0  0  0
    0.0616   -2.0138   -5.3410 H   0  0  0  0  0  0  0  0  0  0  0  0
   -1.5002   -1.6680   -4.5985 H   0  0  0  0  0  0  0  0  0  0  0  0
   -0.5974    1.0810    0.6608 C   0  0  0  0  0  0  0  0  0  0  0  0
   -1.5381    1.6957    0.1694 O   0  0  0  0  0  0  0  0  0  0  0  0
    0.2455    1.7213    1.5498 N   0  0  0  0  0  0  0  0  0  0  0  0
    0.9917    1.1743    1.9704 H   0  0  0  0  0  0  0  0  0  0  0  0
    0.0933    3.1200    1.9315 C   0  0  0  0  0  0  0  0  0  0  0  0
   -0.8843    3.2867    2.3960 H   0  0  0  0  0  0  0  0  0  0  0  0
    0.8695    3.4030    2.6491 H   0  0  0  0  0  0  0  0  0  0  0  0
    0.1814    3.7685    1.0534 H   0  0  0  0  0  0  0  0  0  0  0  0
  1  2  1  0  0  0  0
  2  3  1  0  0  0  0
  2  4  1  0  0  0  0
  2  5  1  0  0  0  0
  5  6  2  0  0  0  0
  5  7  1  0  0  0  0
  7  8  1  0  0  0  0
  7  9  1  0  0  0  0
  9 10  1  0  0  0  0
  9 11  1  0  0  0  0
  9 22  1  0  0  0  0
 11 12  1  0  0  0  0
 11 13  1  0  0  0  0
 11 14  1  0  0  0  0
 14 15  1  0  0  0  0
 14 16  1  0  0  0  0
 14 17  1  0  0  0  0
 17 18  2  0  0  0  0
 17 19  1  0  0  0  0
 19 20  1  0  0  0  0
 19 21  1  0  0  0  0
 22 23  2  0  0  0  0
 22 24  1  0  0  0  0
 24 25  1  0  0  0  0
 24 26  1  0  0  0  0
 26 27  1  0  0  0  0
 26 28  1  0  0  0  0
 26 29  1  0  0  0  0
M  END
$$$$

  -OEChem-04042215583D

 29 28  0     1  0  0  0  0  0999 V2000
   -3.4646   -3.7485    1.4740 H   0  0  0  0  0  0  0  0  0  0  0  0
   -3.4416   -2.7448    1.0400 C   0  0  0  0  0  0  0  0  0  0  0  0
   -4.0036   -2.0677    1.6880 H   0  0  0  0  0  0  0  0  0  0  0  0
   -3.9169   -2.7758    0.0567 H   0  0  0  0  0  0  0  0  0  0  0  0
   -2.0085   -2.2643    0.9086 C   0  0  0  0  0  0  0  0  0  0  0  0
   -1.0920   -2.9584    1.3178 O   0  0  0  0  0  0  0  0  0  0  0  0
   -1.7474   -1.0426    0.3248 N   0  0  0  0  0  0  0  0  0  0  0  0
   -2.5476   -0.4497    0.1074 H   0  0  0  0  0  0  0  0  0  0  0  0
   -0.4268   -0.3943    0.3061 C   0  0  1  0  0  0  0  0  0  0  0  0
    0.2120   -0.8375    1.0777 H   0  0  0  0  0  0  0  0  0  0  0  0
    0.3085   -0.5150   -1.0503 C   0  0  0  0  0  0  0  0  0  0  0  0
    1.0377    0.2946   -1.1656 H   0  0  0  0  0  0  0  0  0  0  0  0
    0.8820   -1.4473   -0.9917 H   0  0  0  0  0  0  0  0  0  0  0  0
   -0.5758   -0.5924   -2.3201 C   0  0  0  0  0  0  0  0  0  0  0  0
   -1.5295   -1.0772   -2.1089 H   0  0  0  0  0  0  0  0  0  0  0  0
   -0.7934    0.4176   -2.6779 H   0  0  0  0  0  0  0  0  0  0  0  0
    0.0889   -1.3975   -3.4336 C   0  0  0  0  0  0  0  0  0  0  0  0
    1.2920   -1.3910   -3.6171 O   0  0  0  0  0  0  0  0  0  0  0  0
   -0.6344   -2.1862   -4.2820 N   0  0  0  0  0  0  0  0  0  0  0  0
   -0.0966   -2.8152   -4.8711 H   0  0  0  0  0  0  0  0  0  0  0  0
   -1.6008   -2.3949   -4.0574 H   0  0  0  0  0  0  0  0  0  0  0  0
   -0.5936    1.0949    0.6691 C   0  0  0  0  0  0  0  0  0  0  0  0
   -1.5385    1.7294    0.2124 O   0  0  0  0  0  0  0  0  0  0  0  0
    0.2643    1.7008    1.5679 N   0  0  0  0  0  0  0  0  0  0  0  0
    1.0070    1.1334    1.9671 H   0  0  0  0  0  0  0  0  0  0  0  0
    0.1216    3.0847    2.0033 C   0  0  0  0  0  0  0  0  0  0  0  0
   -0.8184    3.2197    2.5485 H   0  0  0  0  0  0  0  0  0  0  0  0
    0.9486    3.3598    2.6648 H   0  0  0  0  0  0  0  0  0  0  0  0
    0.1301    3.7611    1.1420 H   0  0  0  0  0  0  0  0  0  0  0  0
  1  2  1  0  0  0  0
  2  3  1  0  0  0  0
  2  4  1  0  0  0  0
  2  5  1  0  0  0  0
  5  6  2  0  0  0  0
  5  7  1  0  0  0  0
  7  8  1  0  0  0  0
  7  9  1  0  0  0  0
  9 10  1  0  0  0  0
  9 11  1  0  0  0  0
  9 22  1  0  0  0  0
 11 12  1  0  0  0  0
 11 13  1  0  0  0  0
 11 14  1  0  0  0  0
 14 15  1  0  0  0  0
 14 16  1  0  0  0  0
 14 17  1  0  0  0  0
 17 18  2  0  0  0  0
 17 19  1  0  0  0  0
 19 20  1  0  0  0  0
 19 21  1  0  0  0  0
 22 23  2  0  0  0  0
 22 24  1  0  0  0  0
 24 25  1  0  0  0  0
 24 26  1  0  0  0  0
 26 27  1  0  0  0  0
 26 28  1  0  0  0  0
 26 29  1  0  0  0  0
M  END
$$$$

  -OEChem-04042215583D

 29 28  0     1  0  0  0  0  0999 V2000
   -3.4848   -3.7316    1.4739 H   0  0  0  0  0  0  0  0  0  0  0  0
   -3.4513   -2.7456    1.0020 C   0  0  0  0  0  0  0  0  0  0  0  0
   -4.0474   -2.0497    1.5970 H   0  0  0  0  0  0  0  0  0  0  0  0
   -3.8817   -2.8203    0.0006 H   0  0  0  0  0  0  0  0  0  0  0  0
   -2.0179   -2.2564    0.9154 C   0  0  0  0  0  0  0  0  0  0  0  0
   -1.1128   -2.9369    1.3705 O   0  0  0  0  0  0  0  0  0  0  0  0
   -1.7437   -1.0412    0.3232 N   0  0  0  0  0  0  0  0  0  0  0  0
   -2.5384   -0.4521    0.0776 H   0  0  0  0  0  0  0  0  0  0  0  0
   -0.4203   -0.3977    0.3209 C   0  0  1  0  0  0  0  0  0  0  0  0
    0.2047   -0.8350    1.1067 H   0  0  0  0  0  0  0  0  0  0  0  0
    0.3350   -0.5332   -1.0237 C   0  0  0  0  0  0  0  0  0  0  0  0
    1.0666    0.2749   -1.1321 H   0  0  0  0  0  0  0  0  0  0  0  0
    0.9114   -1.4622   -0.9434 H   0  0  0  0  0  0  0  0  0  0  0  0
   -0.5247   -0.6177   -2.3131 C   0  0  0  0  0  0  0  0  0  0  0  0
   -1.5740   -0.8127   -2.0910 H   0  0  0  0  0  0  0  0  0  0  0  0
   -0.4863    0.3438   -2.8327 H   0  0  0  0  0  0  0  0  0  0  0  0
   -0.0405   -1.7119   -3.2596 C   0  0  0  0  0  0  0  0  0  0  0  0
    1.1351   -1.8504   -3.5414 O   0  0  0  0  0  0  0  0  0  0  0  0
   -0.9028   -2.5908   -3.8509 N   0  0  0  0  0  0  0  0  0  0  0  0
   -0.5116   -3.1817   -4.5787 H   0  0  0  0  0  0  0  0  0  0  0  0
   -1.8993   -2.4085   -3.8149 H   0  0  0  0  0  0  0  0  0  0  0  0
   -0.5870    1.0958    0.6656 C   0  0  0  0  0  0  0  0  0  0  0  0
   -1.5157    1.7317    0.1788 O   0  0  0  0  0  0  0  0  0  0  0  0
    0.2578    1.7077    1.5729 N   0  0  0  0  0  0  0  0  0  0  0  0
    0.9852    1.1392    1.9979 H   0  0  0  0  0  0  0  0  0  0  0  0
    0.1123    3.0962    1.9928 C   0  0  0  0  0  0  0  0  0  0  0  0
   -0.8436    3.2433    2.5065 H   0  0  0  0  0  0  0  0  0  0  0  0
    0.9196    3.3702    2.6790 H   0  0  0  0  0  0  0  0  0  0  0  0
    0.1542    3.7655    1.1270 H   0  0  0  0  0  0  0  0  0  0  0  0
  1  2  1  0  0  0  0
  2  3  1  0  0  0  0
  2  4  1  0  0  0  0
  2  5  1  0  0  0  0
  5  6  2  0  0  0  0
  5  7  1  0  0  0  0
  7  8  1  0  0  0  0
  7  9  1  0  0  0  0
  9 10  1  0  0  0  0
  9 11  1  0  0  0  0
  9 22  1  0  0  0  0
 11 12  1  0  0  0  0
 11 13  1  0  0  0  0
 11 14  1  0  0  0  0
 14 15  1  0  0  0  0
 14 16  1  0  0  0  0
 14 17  1  0  0  0  0
 17 18  2  0  0  0  0
 17 19  1  0  0  0  0
 19 20  1  0  0  0  0
 19 21  1  0  0  0  0
 22 23  2  0  0  0  0
 22 24  1  0  0  0  0
 24 25  1  0  0  0  0
 24 26  1  0  0  0  0
 26 27  1  0  0  0  0
 26 28  1  0  0  0  0
 26 29  1  0  0  0  0
M  END
$$$$

  -OEChem-04042215583D

 29 28  0     1  0  0  0  0  0999 V2000
   -3.5261   -3.7092    1.3563 H   0  0  0  0  0  0  0  0  0  0  0  0
   -3.4727   -2.7295    0.8728 C   0  0  0  0  0  0  0  0  0  0  0  0
   -4.0804   -2.0226    1.4427 H   0  0  0  0  0  0  0  0  0  0  0  0
   -3.8761   -2.8137   -0.1389 H   0  0  0  0  0  0  0  0  0  0  0  0
   -2.0341   -2.2510    0.8194 C   0  0  0  0  0  0  0  0  0  0  0  0
   -1.1430   -2.9458    1.2795 O   0  0  0  0  0  0  0  0  0  0  0  0
   -1.7397   -1.0294    0.2503 N   0  0  0  0  0  0  0  0  0  0  0  0
   -2.5258   -0.4272    0.0091 H   0  0  0  0  0  0  0  0  0  0  0  0
   -0.4136   -0.3921    0.2945 C   0  0  1  0  0  0  0  0  0  0  0  0
    0.1884   -0.8432    1.0906 H   0  0  0  0  0  0  0  0  0  0  0  0
    0.3713   -0.5230   -1.0325 C   0  0  0  0  0  0  0  0  0  0  0  0
    1.0868    0.3020   -1.1187 H   0  0  0  0  0  0  0  0  0  0  0  0
    0.9684   -1.4398   -0.9588 H   0  0  0  0  0  0  0  0  0  0  0  0
   -0.4733   -0.5898   -2.3301 C   0  0  0  0  0  0  0  0  0  0  0  0
   -1.5403   -0.4663   -2.1380 H   0  0  0  0  0  0  0  0  0  0  0  0
   -0.1814    0.2395   -2.9806 H   0  0  0  0  0  0  0  0  0  0  0  0
   -0.2380   -1.8865   -3.0949 C   0  0  0  0  0  0  0  0  0  0  0  0
    0.8406   -2.1491   -3.5921 O   0  0  0  0  0  0  0  0  0  0  0  0
   -1.2139   -2.8309   -3.2403 N   0  0  0  0  0  0  0  0  0  0  0  0
   -1.0075   -3.6013   -3.8696 H   0  0  0  0  0  0  0  0  0  0  0  0
   -2.1705   -2.6014   -2.9973 H   0  0  0  0  0  0  0  0  0  0  0  0
   -0.5818    1.0981    0.6534 C   0  0  0  0  0  0  0  0  0  0  0  0
   -1.4928    1.7448    0.1478 O   0  0  0  0  0  0  0  0  0  0  0  0
    0.2399    1.6938    1.5920 N   0  0  0  0  0  0  0  0  0  0  0  0
    0.9518    1.1162    2.0307 H   0  0  0  0  0  0  0  0  0  0  0  0
    0.1052    3.0848    2.0069 C   0  0  0  0  0  0  0  0  0  0  0  0
   -0.8604    3.2471    2.4974 H   0  0  0  0  0  0  0  0  0  0  0  0
    0.9006    3.3476    2.7111 H   0  0  0  0  0  0  0  0  0  0  0  0
    0.1775    3.7520    1.1414 H   0  0  0  0  0  0  0  0  0  0  0  0
  1  2  1  0  0  0  0
  2  3  1  0  0  0  0
  2  4  1  0  0  0  0
  2  5  1  0  0  0  0
  5  6  2  0  0  0  0
  5  7  1  0  0  0  0
  7  8  1  0  0  0  0
  7  9  1  0  0  0  0
  9 10  1  0  0  0  0
  9 11  1  0  0  0  0
  9 22  1  0  0  0  0
 11 12  1  0  0  0  0
 11 13  1  0  0  0  0
 11 14  1  0  0  0  0
 14 15  1  0  0  0  0
 14 16  1  0  0  0  0
 14 17  1  0  0  0  0
 17 18  2  0  0  0  0
 17 19  1  0  0  0  0
 19 20  1  0  0  0  0
 19 21  1  0  0  0  0
 22 23  2  0  0  0  0
 22 24  1  0  0  0  0
 24 25  1  0  0  0  0
 24 26  1  0  0  0  0
 26 27  1  0  0  0  0
 26 28  1  0  0  0  0
 26 29  1  0  0  0  0
M  END
$$$$

  -OEChem-04042215583D

 29 28  0     1  0  0  0  0  0999 V2000
   -3.5075   -3.7002    1.3672 H   0  0  0  0  0  0  0  0  0  0  0  0
   -3.4371   -2.7549    0.8217 C   0  0  0  0  0  0  0  0  0  0  0  0
   -4.0969   -2.0249    1.2968 H   0  0  0  0  0  0  0  0  0  0  0  0
   -3.7644   -2.9178   -0.2078 H   0  0  0  0  0  0  0  0  0  0  0  0
   -2.0070   -2.2488    0.8359 C   0  0  0  0  0  0  0  0  0  0  0  0
   -1.1333   -2.9053    1.3783 O   0  0  0  0  0  0  0  0  0  0  0  0
   -1.7032   -1.0388    0.2467 N   0  0  0  0  0  0  0  0  0  0  0  0
   -2.4833   -0.4586   -0.0573 H   0  0  0  0  0  0  0  0  0  0  0  0
   -0.3824   -0.3917    0.3126 C   0  0  1  0  0  0  0  0  0  0  0  0
    0.2055   -0.8210    1.1308 H   0  0  0  0  0  0  0  0  0  0  0  0
    0.4210   -0.5598   -0.9987 C   0  0  0  0  0  0  0  0  0  0  0  0
    1.1144    0.2820   -1.1018 H   0  0  0  0  0  0  0  0  0  0  0  0
    1.0397   -1.4596   -0.9045 H   0  0  0  0  0  0  0  0  0  0  0  0
   -0.4274   -0.6630   -2.2891 C   0  0  0  0  0  0  0  0  0  0  0  0
   -1.4316   -0.2575   -2.1459 H   0  0  0  0  0  0  0  0  0  0  0  0
    0.0450   -0.0521   -3.0635 H   0  0  0  0  0  0  0  0  0  0  0  0
   -0.4951   -2.0882   -2.8257 C   0  0  0  0  0  0  0  0  0  0  0  0
    0.4972   -2.6840   -3.1996 O   0  0  0  0  0  0  0  0  0  0  0  0
   -1.6764   -2.7664   -2.9282 N   0  0  0  0  0  0  0  0  0  0  0  0
   -1.6388   -3.6373   -3.4500 H   0  0  0  0  0  0  0  0  0  0  0  0
   -2.5435   -2.2459   -2.8644 H   0  0  0  0  0  0  0  0  0  0  0  0
   -0.5651    1.1056    0.6317 C   0  0  0  0  0  0  0  0  0  0  0  0
   -1.4587    1.7394    0.0806 O   0  0  0  0  0  0  0  0  0  0  0  0
    0.2295    1.7248    1.5784 N   0  0  0  0  0  0  0  0  0  0  0  0
    0.9146    1.1527    2.0648 H   0  0  0  0  0  0  0  0  0  0  0  0
    0.0599    3.1159    1.9807 C   0  0  0  0  0  0  0  0  0  0  0  0
   -0.9210    3.2639    2.4444 H   0  0  0  0  0  0  0  0  0  0  0  0
    0.8312    3.3969    2.7045 H   0  0  0  0  0  0  0  0  0  0  0  0
    0.1439    3.7792    1.1133 H   0  0  0  0  0  0  0  0  0  0  0  0
  1  2  1  0  0  0  0
  2  3  1  0  0  0  0
  2  4  1  0  0  0  0
  2  5  1  0  0  0  0
  5  6  2  0  0  0  0
  5  7  1  0  0  0  0
  7  8  1  0  0  0  0
  7  9  1  0  0  0  0
  9 10  1  0  0  0  0
  9 11  1  0  0  0  0
  9 22  1  0  0  0  0
 11 12  1  0  0  0  0
 11 13  1  0  0  0  0
 11 14  1  0  0  0  0
 14 15  1  0  0  0  0
 14 16  1  0  0  0  0
 14 17  1  0  0  0  0
 17 18  2  0  0  0  0
 17 19  1  0  0  0  0
 19 20  1  0  0  0  0
 19 21  1  0  0  0  0
 22 23  2  0  0  0  0
 22 24  1  0  0  0  0
 24 25  1  0  0  0  0
 24 26  1  0  0  0  0
 26 27  1  0  0  0  0
 26 28  1  0  0  0  0
 26 29  1  0  0  0  0
M  END
$$$$

  -OEChem-04042215583D

 29 28  0     1  0  0  0  0  0999 V2000
   -3.4822   -3.7262    1.4165 H   0  0  0  0  0  0  0  0  0  0  0  0
   -3.3984   -2.8108    0.8241 C   0  0  0  0  0  0  0  0  0  0  0  0
   -4.1145   -2.0783    1.2042 H   0  0  0  0  0  0  0  0  0  0  0  0
   -3.6395   -3.0422   -0.2160 H   0  0  0  0  0  0  0  0  0  0  0  0
   -1.9891   -2.2572    0.9149 C   0  0  0  0  0  0  0  0  0  0  0  0
   -1.1375   -2.8577    1.5501 O   0  0  0  0  0  0  0  0  0  0  0  0
   -1.6832   -1.0622    0.2965 N   0  0  0  0  0  0  0  0  0  0  0  0
   -2.4539   -0.5271   -0.0983 H   0  0  0  0  0  0  0  0  0  0  0  0
   -0.3682   -0.4049    0.3562 C   0  0  1  0  0  0  0  0  0  0  0  0
    0.2211   -0.8108    1.1853 H   0  0  0  0  0  0  0  0  0  0  0  0
    0.4373   -0.5933   -0.9522 C   0  0  0  0  0  0  0  0  0  0  0  0
    1.1205    0.2546   -1.0728 H   0  0  0  0  0  0  0  0  0  0  0  0
    1.0641   -1.4864   -0.8489 H   0  0  0  0  0  0  0  0  0  0  0  0
   -0.4189   -0.7248   -2.2328 C   0  0  0  0  0  0  0  0  0  0  0  0
   -1.3137   -0.1008   -2.1606 H   0  0  0  0  0  0  0  0  0  0  0  0
    0.1627   -0.3509   -3.0798 H   0  0  0  0  0  0  0  0  0  0  0  0
   -0.7994   -2.1662   -2.5561 C   0  0  0  0  0  0  0  0  0  0  0  0
    0.0291   -3.0477   -2.6776 O   0  0  0  0  0  0  0  0  0  0  0  0
   -2.0967   -2.5361   -2.7732 N   0  0  0  0  0  0  0  0  0  0  0  0
   -2.2177   -3.4585   -3.1820 H   0  0  0  0  0  0  0  0  0  0  0  0
   -2.7775   -1.8079   -2.9587 H   0  0  0  0  0  0  0  0  0  0  0  0
   -0.5644    1.0994    0.6319 C   0  0  0  0  0  0  0  0  0  0  0  0
   -1.4372    1.7189    0.0329 O   0  0  0  0  0  0  0  0  0  0  0  0
    0.2164    1.7506    1.5683 N   0  0  0  0  0  0  0  0  0  0  0  0
    0.8841    1.1928    2.0940 H   0  0  0  0  0  0  0  0  0  0  0  0
    0.0472    3.1571    1.9115 C   0  0  0  0  0  0  0  0  0  0  0  0
   -0.9528    3.3336    2.3212 H   0  0  0  0  0  0  0  0  0  0  0  0
    0.7865    3.4549    2.6612 H   0  0  0  0  0  0  0  0  0  0  0  0
    0.1820    3.7867    1.0257 H   0  0  0  0  0  0  0  0  0  0  0  0
  1  2  1  0  0  0  0
  2  3  1  0  0  0  0
  2  4  1  0  0  0  0
  2  5  1  0  0  0  0
  5  6  2  0  0  0  0
  5  7  1  0  0  0  0
  7  8  1  0  0  0  0
  7  9  1  0  0  0  0
  9 10  1  0  0  0  0
  9 11  1  0  0  0  0
  9 22  1  0  0  0  0
 11 12  1  0  0  0  0
 11 13  1  0  0  0  0
 11 14  1  0  0  0  0
 14 15  1  0  0  0  0
 14 16  1  0  0  0  0
 14 17  1  0  0  0  0
 17 18  2  0  0  0  0
 17 19  1  0  0  0  0
 19 20  1  0  0  0  0
 19 21  1  0  0  0  0
 22 23  2  0  0  0  0
 22 24  1  0  0  0  0
 24 25  1  0  0  0  0
 24 26  1  0  0  0  0
 26 27  1  0  0  0  0
 26 28  1  0  0  0  0
 26 29  1  0  0  0  0
M  END
$$$$

  -OEChem-04042215583D

 29 28  0     1  0  0  0  0  0999 V2000
   -3.4300   -3.7692    1.5245 H   0  0  0  0  0  0  0  0  0  0  0  0
   -3.3523   -2.8774    0.8963 C   0  0  0  0  0  0  0  0  0  0  0  0
   -4.1218   -2.1637    1.1995 H   0  0  0  0  0  0  0  0  0  0  0  0
   -3.5195   -3.1652   -0.1443 H   0  0  0  0  0  0  0  0  0  0  0  0
   -1.9772   -2.2541    1.0427 C   0  0  0  0  0  0  0  0  0  0  0  0
   -1.1445   -2.7765    1.7671 O   0  0  0  0  0  0  0  0  0  0  0  0
   -1.6874   -1.0745    0.3862 N   0  0  0  0  0  0  0  0  0  0  0  0
   -2.4433   -0.6140   -0.1154 H   0  0  0  0  0  0  0  0  0  0  0  0
   -0.3730   -0.4157    0.4032 C   0  0  1  0  0  0  0  0  0  0  0  0
    0.2363   -0.8007    1.2274 H   0  0  0  0  0  0  0  0  0  0  0  0
    0.4111   -0.6156   -0.9195 C   0  0  0  0  0  0  0  0  0  0  0  0
    1.1010    0.2240   -1.0558 H   0  0  0  0  0  0  0  0  0  0  0  0
    1.0275   -1.5156   -0.8145 H   0  0  0  0  0  0  0  0  0  0  0  0
   -0.4444   -0.7667   -2.1993 C   0  0  0  0  0  0  0  0  0  0  0  0
   -1.1935    0.0294   -2.2258 H   0  0  0  0  0  0  0  0  0  0  0  0
    0.2044   -0.6318   -3.0688 H   0  0  0  0  0  0  0  0  0  0  0  0
   -1.1344   -2.1185   -2.3593 C   0  0  0  0  0  0  0  0  0  0  0  0
   -0.5815   -3.1755   -2.1269 O   0  0  0  0  0  0  0  0  0  0  0  0
   -2.4262   -2.2113   -2.7944 N   0  0  0  0  0  0  0  0  0  0  0  0
   -2.7196   -3.1430   -3.0744 H   0  0  0  0  0  0  0  0  0  0  0  0
   -2.8416   -1.3979   -3.2365 H   0  0  0  0  0  0  0  0  0  0  0  0
   -0.5704    1.0947    0.6448 C   0  0  0  0  0  0  0  0  0  0  0  0
   -1.4310    1.7059    0.0197 O   0  0  0  0  0  0  0  0  0  0  0  0
    0.2258    1.7715    1.5499 N   0  0  0  0  0  0  0  0  0  0  0  0
    0.8766    1.2212    2.1038 H   0  0  0  0  0  0  0  0  0  0  0  0
    0.0572    3.1858    1.8607 C   0  0  0  0  0  0  0  0  0  0  0  0
   -0.9303    3.3666    2.2980 H   0  0  0  0  0  0  0  0  0  0  0  0
    0.8181    3.5092    2.5775 H   0  0  0  0  0  0  0  0  0  0  0  0
    0.1580    3.7926    0.9546 H   0  0  0  0  0  0  0  0  0  0  0  0
  1  2  1  0  0  0  0
  2  3  1  0  0  0  0
  2  4  1  0  0  0  0
  2  5  1  0  0  0  0
  5  6  2  0  0  0  0
  5  7  1  0  0  0  0
  7  8  1  0  0  0  0
  7  9  1  0  0  0  0
  9 10  1  0  0  0  0
  9 11  1  0  0  0  0
  9 22  1  0  0  0  0
 11 12  1  0  0  0  0
 11 13  1  0  0  0  0
 11 14  1  0  0  0  0
 14 15  1  0  0  0  0
 14 16  1  0  0  0  0
 14 17  1  0  0  0  0
 17 18  2  0  0  0  0
 17 19  1  0  0  0  0
 19 20  1  0  0  0  0
 19 21  1  0  0  0  0
 22 23  2  0  0  0  0
 22 24  1  0  0  0  0
 24 25  1  0  0  0  0
 24 26  1  0  0  0  0
 26 27  1  0  0  0  0
 26 28  1  0  0  0  0
 26 29  1  0  0  0  0
M  END
$$$$

  -OEChem-04042215583D

 29 28  0     1  0  0  0  0  0999 V2000
   -3.4123   -3.7974    1.6090 H   0  0  0  0  0  0  0  0  0  0  0  0
   -3.3483   -2.9100    0.9732 C   0  0  0  0  0  0  0  0  0  0  0  0
   -4.1336   -2.2089    1.2651 H   0  0  0  0  0  0  0  0  0  0  0  0
   -3.5026   -3.2109   -0.0657 H   0  0  0  0  0  0  0  0  0  0  0  0
   -1.9864   -2.2589    1.1215 C   0  0  0  0  0  0  0  0  0  0  0  0
   -1.1558   -2.7459    1.8732 O   0  0  0  0  0  0  0  0  0  0  0  0
   -1.7050   -1.0932    0.4366 N   0  0  0  0  0  0  0  0  0  0  0  0
   -2.4497   -0.6823   -0.1219 H   0  0  0  0  0  0  0  0  0  0  0  0
   -0.3903   -0.4381    0.4229 C   0  0  1  0  0  0  0  0  0  0  0  0
    0.2264   -0.8054    1.2496 H   0  0  0  0  0  0  0  0  0  0  0  0
    0.3985   -0.6375   -0.9006 C   0  0  0  0  0  0  0  0  0  0  0  0
    1.1079    0.1878   -1.0250 H   0  0  0  0  0  0  0  0  0  0  0  0
    0.9934   -1.5497   -0.7792 H   0  0  0  0  0  0  0  0  0  0  0  0
   -0.4036   -0.8019   -2.2154 C   0  0  0  0  0  0  0  0  0  0  0  0
   -0.9729    0.1166   -2.3847 H   0  0  0  0  0  0  0  0  0  0  0  0
    0.3028   -0.9030   -3.0438 H   0  0  0  0  0  0  0  0  0  0  0  0
   -1.3631   -1.9850   -2.2880 C   0  0  0  0  0  0  0  0  0  0  0  0
   -1.0099   -3.1292   -2.0810 O   0  0  0  0  0  0  0  0  0  0  0  0
   -2.6863   -1.8145   -2.5854 N   0  0  0  0  0  0  0  0  0  0  0  0
   -3.1863   -2.6652   -2.8283 H   0  0  0  0  0  0  0  0  0  0  0  0
   -2.9726   -0.9294   -2.9918 H   0  0  0  0  0  0  0  0  0  0  0  0
   -0.5949    1.0753    0.6371 C   0  0  0  0  0  0  0  0  0  0  0  0
   -1.4485    1.6737   -0.0101 O   0  0  0  0  0  0  0  0  0  0  0  0
    0.2073    1.7743    1.5196 N   0  0  0  0  0  0  0  0  0  0  0  0
    0.8512    1.2360    2.0930 H   0  0  0  0  0  0  0  0  0  0  0  0
    0.0391    3.1957    1.7952 C   0  0  0  0  0  0  0  0  0  0  0  0
   -0.9493    3.3878    2.2260 H   0  0  0  0  0  0  0  0  0  0  0  0
    0.7988    3.5360    2.5054 H   0  0  0  0  0  0  0  0  0  0  0  0
    0.1422    3.7797    0.8745 H   0  0  0  0  0  0  0  0  0  0  0  0
  1  2  1  0  0  0  0
  2  3  1  0  0  0  0
  2  4  1  0  0  0  0
  2  5  1  0  0  0  0
  5  6  2  0  0  0  0
  5  7  1  0  0  0  0
  7  8  1  0  0  0  0
  7  9  1  0  0  0  0
  9 10  1  0  0  0  0
  9 11  1  0  0  0  0
  9 22  1  0  0  0  0
 11 12  1  0  0  0  0
 11 13  1  0  0  0  0
 11 14  1  0  0  0  0
 14 15  1  0  0  0  0
 14 16  1  0  0  0  0
 14 17  1  0  0  0  0
 17 18  2  0  0  0  0
 17 19  1  0  0  0  0
 19 20  1  0  0  0  0
 19 21  1  0  0  0  0
 22 23  2  0  0  0  0
 22 24  1  0  0  0  0
 24 25  1  0  0  0  0
 24 26  1  0  0  0  0
 26 27  1  0  0  0  0
 26 28  1  0  0  0  0
 26 29  1  0  0  0  0
M  END
$$$$

  -OEChem-04042215583D

 29 28  0     1  0  0  0  0  0999 V2000
   -3.3742   -3.8342    1.6984 H   0  0  0  0  0  0  0  0  0  0  0  0
   -3.3272   -2.9523    1.0538 C   0  0  0  0  0  0  0  0  0  0  0  0
   -4.1284   -2.2653    1.3354 H   0  0  0  0  0  0  0  0  0  0  0  0
   -3.4709   -3.2673    0.0172 H   0  0  0  0  0  0  0  0  0  0  0  0
   -1.9809   -2.2690    1.1998 C   0  0  0  0  0  0  0  0  0  0  0  0
   -1.1422   -2.7267    1.9614 O   0  0  0  0  0  0  0  0  0  0  0  0
   -1.7168   -1.1159    0.4881 N   0  0  0  0  0  0  0  0  0  0  0  0
   -2.4537   -0.7631   -0.1195 H   0  0  0  0  0  0  0  0  0  0  0  0
   -0.4048   -0.4596    0.4345 C   0  0  1  0  0  0  0  0  0  0  0  0
    0.2292   -0.8086    1.2561 H   0  0  0  0  0  0  0  0  0  0  0  0
    0.3688   -0.6598   -0.9002 C   0  0  0  0  0  0  0  0  0  0  0  0
    1.0946    0.1513   -1.0240 H   0  0  0  0  0  0  0  0  0  0  0  0
    0.9474   -1.5808   -0.7678 H   0  0  0  0  0  0  0  0  0  0  0  0
   -0.4014   -0.8387   -2.2358 C   0  0  0  0  0  0  0  0  0  0  0  0
   -0.7605    0.1479   -2.5418 H   0  0  0  0  0  0  0  0  0  0  0  0
    0.3049   -1.1742   -3.0002 H   0  0  0  0  0  0  0  0  0  0  0  0
   -1.5947   -1.7860   -2.2643 C   0  0  0  0  0  0  0  0  0  0  0  0
   -1.4754   -2.9915   -2.1662 O   0  0  0  0  0  0  0  0  0  0  0  0
   -2.8755   -1.3187   -2.3732 N   0  0  0  0  0  0  0  0  0  0  0  0
   -3.5737   -2.0167   -2.6139 H   0  0  0  0  0  0  0  0  0  0  0  0
   -3.0071   -0.3537   -2.6629 H   0  0  0  0  0  0  0  0  0  0  0  0
   -0.6167    1.0559    0.6257 C   0  0  0  0  0  0  0  0  0  0  0  0
   -1.4679    1.6405   -0.0377 O   0  0  0  0  0  0  0  0  0  0  0  0
    0.1976    1.7769    1.4791 N   0  0  0  0  0  0  0  0  0  0  0  0
    0.8404    1.2513    2.0656 H   0  0  0  0  0  0  0  0  0  0  0  0
    0.0302    3.2041    1.7239 C   0  0  0  0  0  0  0  0  0  0  0  0
   -0.9532    3.4045    2.1620 H   0  0  0  0  0  0  0  0  0  0  0  0
    0.7978    3.5616    2.4169 H   0  0  0  0  0  0  0  0  0  0  0  0
    0.1214    3.7670    0.7890 H   0  0  0  0  0  0  0  0  0  0  0  0
  1  2  1  0  0  0  0
  2  3  1  0  0  0  0
  2  4  1  0  0  0  0
  2  5  1  0  0  0  0
  5  6  2  0  0  0  0
  5  7  1  0  0  0  0
  7  8  1  0  0  0  0
  7  9  1  0  0  0  0
  9 10  1  0  0  0  0
  9 11  1  0  0  0  0
  9 22  1  0  0  0  0
 11 12  1  0  0  0  0
 11 13  1  0  0  0  0
 11 14  1  0  0  0  0
 14 15  1  0  0  0  0
 14 16  1  0  0  0  0
 14 17  1  0  0  0  0
 17 18  2  0  0  0  0
 17 19  1  0  0  0  0
 19 20  1  0  0  0  0
 19 21  1  0  0  0  0
 22 23  2  0  0  0  0
 22 24  1  0  0  0  0
 24 25  1  0  0  0  0
 24 26  1  0  0  0  0
 26 27  1  0  0  0  0
 26 28  1  0  0  0  0
 26 29  1  0  0  0  0
M  END
$$$$

  -OEChem-04042215583D

 29 28  0     1  0  0  0  0  0999 V2000
   -3.3657   -3.8450    1.7824 H   0  0  0  0  0  0  0  0  0  0  0  0
   -3.3314   -2.9618    1.1388 C   0  0  0  0  0  0  0  0  0  0  0  0
   -4.1242   -2.2733    1.4400 H   0  0  0  0  0  0  0  0  0  0  0  0
   -3.5012   -3.2737    0.1049 H   0  0  0  0  0  0  0  0  0  0  0  0
   -1.9804   -2.2823    1.2542 C   0  0  0  0  0  0  0  0  0  0  0  0
   -1.1247   -2.7385    1.9973 O   0  0  0  0  0  0  0  0  0  0  0  0
   -1.7249   -1.1422    0.5205 N   0  0  0  0  0  0  0  0  0  0  0  0
   -2.4715   -0.8021   -0.0846 H   0  0  0  0  0  0  0  0  0  0  0  0
   -0.4170   -0.4827    0.4360 C   0  0  1  0  0  0  0  0  0  0  0  0
    0.2305   -0.8152    1.2540 H   0  0  0  0  0  0  0  0  0  0  0  0
    0.3402   -0.6894   -0.9081 C   0  0  0  0  0  0  0  0  0  0  0  0
    1.0748    0.1130   -1.0374 H   0  0  0  0  0  0  0  0  0  0  0  0
    0.9129   -1.6124   -0.7656 H   0  0  0  0  0  0  0  0  0  0  0  0
   -0.4148   -0.8845   -2.2546 C   0  0  0  0  0  0  0  0  0  0  0  0
   -0.5459    0.1066   -2.6977 H   0  0  0  0  0  0  0  0  0  0  0  0
    0.2303   -1.4511   -2.9323 H   0  0  0  0  0  0  0  0  0  0  0  0
   -1.7873   -1.5450   -2.2615 C   0  0  0  0  0  0  0  0  0  0  0  0
   -1.9345   -2.7494   -2.3341 O   0  0  0  0  0  0  0  0  0  0  0  0
   -2.9338   -0.8029   -2.1788 N   0  0  0  0  0  0  0  0  0  0  0  0
   -3.7926   -1.2786   -2.4403 H   0  0  0  0  0  0  0  0  0  0  0  0
   -2.8615    0.2084   -2.2684 H   0  0  0  0  0  0  0  0  0  0  0  0
   -0.6407    1.0340    0.6032 C   0  0  0  0  0  0  0  0  0  0  0  0
   -1.4924    1.6001   -0.0768 O   0  0  0  0  0  0  0  0  0  0  0  0
    0.1774    1.7787    1.4322 N   0  0  0  0  0  0  0  0  0  0  0  0
    0.8277    1.2709    2.0259 H   0  0  0  0  0  0  0  0  0  0  0  0
    0.0189    3.2143    1.6298 C   0  0  0  0  0  0  0  0  0  0  0  0
   -0.9586    3.4348    2.0716 H   0  0  0  0  0  0  0  0  0  0  0  0
    0.7958    3.5915    2.3017 H   0  0  0  0  0  0  0  0  0  0  0  0
    0.1025    3.7446    0.6753 H   0  0  0  0  0  0  0  0  0  0  0  0
  1  2  1  0  0  0  0
  2  3  1  0  0  0  0
  2  4  1  0  0  0  0
  2  5  1  0  0  0  0
  5  6  2  0  0  0  0
  5  7  1  0  0  0  0
  7  8  1  0  0  0  0
  7  9  1  0  0  0  0
  9 10  1  0  0  0  0
  9 11  1  0  0  0  0
  9 22  1  0  0  0  0
 11 12  1  0  0  0  0
 11 13  1  0  0  0  0
 11 14  1  0  0  0  0
 14 15  1  0  0  0  0
 14 16  1  0  0  0  0
 14 17  1  0  0  0  0
 17 18  2  0  0  0  0
 17 19  1  0  0  0  0
 19 20  1  0  0  0  0
 19 21  1  0  0  0  0
 22 23  2  0  0  0  0
 22 24  1  0  0  0  0
 24 25  1  0  0  0  0
 24 26  1  0  0  0  0
 26 27  1  0  0  0  0
 26 28  1  0  0  0  0
 26 29  1  0  0  0  0
M  END
$$$$

  -OEChem-04042215583D

 29 28  0     1  0  0  0  0  0999 V2000
   -3.1834   -3.8326    2.0247 H   0  0  0  0  0  0  0  0  0  0  0  0
   -3.2172   -2.9570    1.3709 C   0  0  0  0  0  0  0  0  0  0  0  0
   -3.9692   -2.2614    1.7503 H   0  0  0  0  0  0  0  0  0  0  0  0
   -3.5018   -3.2792    0.3658 H   0  0  0  0  0  0  0  0  0  0  0  0
   -1.8594   -2.2826    1.3287 C   0  0  0  0  0  0  0  0  0  0  0  0
   -0.9301   -2.7289    1.9839 O   0  0  0  0  0  0  0  0  0  0  0  0
   -1.6802   -1.1567    0.5521 N   0  0  0  0  0  0  0  0  0  0  0  0
   -2.4885   -0.8171    0.0347 H   0  0  0  0  0  0  0  0  0  0  0  0
   -0.3915   -0.4855    0.3416 C   0  0  1  0  0  0  0  0  0  0  0  0
    0.3290   -0.7923    1.1069 H   0  0  0  0  0  0  0  0  0  0  0  0
    0.2474   -0.7092   -1.0602 C   0  0  0  0  0  0  0  0  0  0  0  0
    0.9606    0.0977   -1.2623 H   0  0  0  0  0  0  0  0  0  0  0  0
    0.8430   -1.6221   -0.9496 H   0  0  0  0  0  0  0  0  0  0  0  0
   -0.6094   -0.9356   -2.3423 C   0  0  0  0  0  0  0  0  0  0  0  0
   -0.5603   -0.0167   -2.9332 H   0  0  0  0  0  0  0  0  0  0  0  0
   -0.1346   -1.7193   -2.9404 H   0  0  0  0  0  0  0  0  0  0  0  0
   -2.0878   -1.2815   -2.2180 C   0  0  0  0  0  0  0  0  0  0  0  0
   -2.5049   -2.4233   -2.2610 O   0  0  0  0  0  0  0  0  0  0  0  0
   -3.0220   -0.3032   -2.0166 N   0  0  0  0  0  0  0  0  0  0  0  0
   -3.9802   -0.5997   -1.8605 H   0  0  0  0  0  0  0  0  0  0  0  0
   -2.7059    0.6206   -1.7137 H   0  0  0  0  0  0  0  0  0  0  0  0
   -0.6245    1.0313    0.4961 C   0  0  0  0  0  0  0  0  0  0  0  0
   -1.5434    1.5664   -0.1204 O   0  0  0  0  0  0  0  0  0  0  0  0
    0.2472    1.8078    1.2358 N   0  0  0  0  0  0  0  0  0  0  0  0
    0.9578    1.3250    1.7795 H   0  0  0  0  0  0  0  0  0  0  0  0
    0.0743    3.2431    1.4235 C   0  0  0  0  0  0  0  0  0  0  0  0
   -0.8638    3.4506    1.9490 H   0  0  0  0  0  0  0  0  0  0  0  0
    0.9006    3.6493    2.0150 H   0  0  0  0  0  0  0  0  0  0  0  0
    0.0587    3.7574    0.4568 H   0  0  0  0  0  0  0  0  0  0  0  0
  1  2  1  0  0  0  0
  2  3  1  0  0  0  0
  2  4  1  0  0  0  0
  2  5  1  0  0  0  0
  5  6  2  0  0  0  0
  5  7  1  0  0  0  0
  7  8  1  0  0  0  0
  7  9  1  0  0  0  0
  9 10  1  0  0  0  0
  9 11  1  0  0  0  0
  9 22  1  0  0  0  0
 11 12  1  0  0  0  0
 11 13  1  0  0  0  0
 11 14  1  0  0  0  0
 14 15  1  0  0  0  0
 14 16  1  0  0  0  0
 14 17  1  0  0  0  0
 17 18  2  0  0  0  0
 17 19  1  0  0  0  0
 19 20  1  0  0  0  0
 19 21  1  0  0  0  0
 22 23  2  0  0  0  0
 22 24  1  0  0  0  0
 24 25  1  0  0  0  0
 24 26  1  0  0  0  0
 26 27  1  0  0  0  0
 26 28  1  0  0  0  0
 26 29  1  0  0  0  0
M  END
$$$$

  -OEChem-04042215583D

 29 28  0     1  0  0  0  0  0999 V2000
   -3.4648   -3.6451    1.5919 H   0  0  0  0  0  0  0  0  0  0  0  0
   -3.4593   -2.6614    1.1146 C   0  0  0  0  0  0  0  0  0  0  0  0
   -4.0337   -1.9665    1.7321 H   0  0  0  0  0  0  0  0  0  0  0  0
   -3.9328   -2.7412    0.1334 H   0  0  0  0  0  0  0  0  0  0  0  0
   -2.0357   -2.1607    0.9627 C   0  0  0  0  0  0  0  0  0  0  0  0
   -1.0972   -2.8677    1.2971 O   0  0  0  0  0  0  0  0  0  0  0  0
   -1.8035   -0.9149    0.4221 N   0  0  0  0  0  0  0  0  0  0  0  0
   -2.6161   -0.3470    0.1721 H   0  0  0  0  0  0  0  0  0  0  0  0
   -0.4935   -0.2635    0.3189 C   0  0  1  0  0  0  0  0  0  0  0  0
    0.1713   -0.7351    1.0501 H   0  0  0  0  0  0  0  0  0  0  0  0
    0.2003   -0.4097   -1.0637 C   0  0  0  0  0  0  0  0  0  0  0  0
    0.9027    0.4226   -1.1813 H   0  0  0  0  0  0  0  0  0  0  0  0
    0.8101   -1.3169   -0.9925 H   0  0  0  0  0  0  0  0  0  0  0  0
   -0.6031   -0.5408   -2.3930 C   0  0  0  0  0  0  0  0  0  0  0  0
   -0.3018    0.2836   -3.0460 H   0  0  0  0  0  0  0  0  0  0  0  0
   -0.2889   -1.4633   -2.8884 H   0  0  0  0  0  0  0  0  0  0  0  0
   -2.1289   -0.5303   -2.3646 C   0  0  0  0  0  0  0  0  0  0  0  0
   -2.7842    0.4866   -2.2658 O   0  0  0  0  0  0  0  0  0  0  0  0
   -2.8570   -1.6786   -2.5052 N   0  0  0  0  0  0  0  0  0  0  0  0
   -3.8418   -1.5473   -2.7169 H   0  0  0  0  0  0  0  0  0  0  0  0
   -2.3792   -2.5205   -2.8083 H   0  0  0  0  0  0  0  0  0  0  0  0
   -0.5746    1.2156    0.7562 C   0  0  0  0  0  0  0  0  0  0  0  0
   -1.5418    1.9043    0.4643 O   0  0  0  0  0  0  0  0  0  0  0  0
    0.3936    1.7439    1.5921 N   0  0  0  0  0  0  0  0  0  0  0  0
    1.1319    1.1222    1.9086 H   0  0  0  0  0  0  0  0  0  0  0  0
    0.3201    3.0904    2.1476 C   0  0  0  0  0  0  0  0  0  0  0  0
   -0.5584    3.1906    2.7938 H   0  0  0  0  0  0  0  0  0  0  0  0
    1.2137    3.3041    2.7419 H   0  0  0  0  0  0  0  0  0  0  0  0
    0.2540    3.8334    1.3457 H   0  0  0  0  0  0  0  0  0  0  0  0
  1  2  1  0  0  0  0
  2  3  1  0  0  0  0
  2  4  1  0  0  0  0
  2  5  1  0  0  0  0
  5  6  2  0  0  0  0
  5  7  1  0  0  0  0
  7  8  1  0  0  0  0
  7  9  1  0  0  0  0
  9 10  1  0  0  0  0
  9 11  1  0  0  0  0
  9 22  1  0  0  0  0
 11 12  1  0  0  0  0
 11 13  1  0  0  0  0
 11 14  1  0  0  0  0
 14 15  1  0  0  0  0
 14 16  1  0  0  0  0
 14 17  1  0  0  0  0
 17 18  2  0  0  0  0
 17 19  1  0  0  0  0
 19 20  1  0  0  0  0
 19 21  1  0  0  0  0
 22 23  2  0  0  0  0
 22 24  1  0  0  0  0
 24 25  1  0  0  0  0
 24 26  1  0  0  0  0
 26 27  1  0  0  0  0
 26 28  1  0  0  0  0
 26 29  1  0  0  0  0
M  END
$$$$

  -OEChem-04042215583D

 29 28  0     1  0  0  0  0  0999 V2000
   -3.3686   -3.7890    1.3154 H   0  0  0  0  0  0  0  0  0  0  0  0
   -3.3822   -2.7621    0.9397 C   0  0  0  0  0  0  0  0  0  0  0  0
   -3.9243   -2.1336    1.6507 H   0  0  0  0  0  0  0  0  0  0  0  0
   -3.9020   -2.7438   -0.0211 H   0  0  0  0  0  0  0  0  0  0  0  0
   -1.9655   -2.2470    0.7724 C   0  0  0  0  0  0  0  0  0  0  0  0
   -1.0149   -2.9719    1.0217 O   0  0  0  0  0  0  0  0  0  0  0  0
   -1.7553   -0.9647    0.3146 N   0  0  0  0  0  0  0  0  0  0  0  0
   -2.5782   -0.3748    0.1802 H   0  0  0  0  0  0  0  0  0  0  0  0
   -0.4544   -0.2869    0.2766 C   0  0  1  0  0  0  0  0  0  0  0  0
    0.2096   -0.7899    0.9875 H   0  0  0  0  0  0  0  0  0  0  0  0
    0.2555   -0.3406   -1.1023 C   0  0  0  0  0  0  0  0  0  0  0  0
    0.9183    0.5296   -1.1630 H   0  0  0  0  0  0  0  0  0  0  0  0
    0.9046   -1.2227   -1.0889 H   0  0  0  0  0  0  0  0  0  0  0  0
   -0.5471   -0.4009   -2.4330 C   0  0  0  0  0  0  0  0  0  0  0  0
   -0.0614    0.2587   -3.1582 H   0  0  0  0  0  0  0  0  0  0  0  0
   -0.4590   -1.4176   -2.8251 H   0  0  0  0  0  0  0  0  0  0  0  0
   -2.0346   -0.0595   -2.4238 C   0  0  0  0  0  0  0  0  0  0  0  0
   -2.4332    1.0769   -2.5761 O   0  0  0  0  0  0  0  0  0  0  0  0
   -3.0039   -1.0238   -2.4522 N   0  0  0  0  0  0  0  0  0  0  0  0
   -3.9192   -0.7016   -2.7536 H   0  0  0  0  0  0  0  0  0  0  0  0
   -2.7187   -1.9801   -2.6335 H   0  0  0  0  0  0  0  0  0  0  0  0
   -0.5846    1.1568    0.8083 C   0  0  0  0  0  0  0  0  0  0  0  0
   -1.5973    1.8067    0.5882 O   0  0  0  0  0  0  0  0  0  0  0  0
    0.3508    1.6561    1.6969 N   0  0  0  0  0  0  0  0  0  0  0  0
    1.1280    1.0544    1.9525 H   0  0  0  0  0  0  0  0  0  0  0  0
    0.2190    2.9529    2.3503 C   0  0  0  0  0  0  0  0  0  0  0  0
   -0.6686    2.9705    2.9915 H   0  0  0  0  0  0  0  0  0  0  0  0
    1.0982    3.1558    2.9693 H   0  0  0  0  0  0  0  0  0  0  0  0
    0.1312    3.7503    1.6048 H   0  0  0  0  0  0  0  0  0  0  0  0
  1  2  1  0  0  0  0
  2  3  1  0  0  0  0
  2  4  1  0  0  0  0
  2  5  1  0  0  0  0
  5  6  2  0  0  0  0
  5  7  1  0  0  0  0
  7  8  1  0  0  0  0
  7  9  1  0  0  0  0
  9 10  1  0  0  0  0
  9 11  1  0  0  0  0
  9 22  1  0  0  0  0
 11 12  1  0  0  0  0
 11 13  1  0  0  0  0
 11 14  1  0  0  0  0
 14 15  1  0  0  0  0
 14 16  1  0  0  0  0
 14 17  1  0  0  0  0
 17 18  2  0  0  0  0
 17 19  1  0  0  0  0
 19 20  1  0  0  0  0
 19 21  1  0  0  0  0
 22 23  2  0  0  0  0
 22 24  1  0  0  0  0
 24 25  1  0  0  0  0
 24 26  1  0  0  0  0
 26 27  1  0  0  0  0
 26 28  1  0  0  0  0
 26 29  1  0  0  0  0
M  END
$$$$

  -OEChem-04042215583D

 29 28  0     1  0  0  0  0  0999 V2000
   -3.1965   -3.9682    1.6754 H   0  0  0  0  0  0  0  0  0  0  0  0
   -3.2771   -2.9996    1.1744 C   0  0  0  0  0  0  0  0  0  0  0  0
   -4.0468   -2.4052    1.6724 H   0  0  0  0  0  0  0  0  0  0  0  0
   -3.5722   -3.1635    0.1345 H   0  0  0  0  0  0  0  0  0  0  0  0
   -1.9479   -2.2706    1.2249 C   0  0  0  0  0  0  0  0  0  0  0  0
   -1.0225   -2.7249    1.8811 O   0  0  0  0  0  0  0  0  0  0  0  0
   -1.7850   -1.1031    0.5103 N   0  0  0  0  0  0  0  0  0  0  0  0
   -2.5653   -0.8337   -0.0943 H   0  0  0  0  0  0  0  0  0  0  0  0
   -0.5116   -0.3833    0.3578 C   0  0  1  0  0  0  0  0  0  0  0  0
    0.1804   -0.7143    1.1391 H   0  0  0  0  0  0  0  0  0  0  0  0
    0.1563   -0.6938   -1.0092 C   0  0  0  0  0  0  0  0  0  0  0  0
    0.7890    0.1599   -1.2760 H   0  0  0  0  0  0  0  0  0  0  0  0
    0.8287   -1.5452   -0.8590 H   0  0  0  0  0  0  0  0  0  0  0  0
   -0.7311   -1.0303   -2.2410 C   0  0  0  0  0  0  0  0  0  0  0  0
   -0.1858   -0.7719   -3.1527 H   0  0  0  0  0  0  0  0  0  0  0  0
   -0.8793   -2.1145   -2.2556 H   0  0  0  0  0  0  0  0  0  0  0  0
   -2.1216   -0.4003   -2.3151 C   0  0  0  0  0  0  0  0  0  0  0  0
   -3.1257   -1.0269   -2.0218 O   0  0  0  0  0  0  0  0  0  0  0  0
   -2.3184    0.8830   -2.7311 N   0  0  0  0  0  0  0  0  0  0  0  0
   -3.2512    1.2325   -2.5335 H   0  0  0  0  0  0  0  0  0  0  0  0
   -1.5417    1.5192   -2.5781 H   0  0  0  0  0  0  0  0  0  0  0  0
   -0.6656    1.1395    0.5623 C   0  0  0  0  0  0  0  0  0  0  0  0
   -1.5101    1.7749   -0.0558 O   0  0  0  0  0  0  0  0  0  0  0  0
    0.2478    1.8263    1.3409 N   0  0  0  0  0  0  0  0  0  0  0  0
    0.8922    1.2719    1.8981 H   0  0  0  0  0  0  0  0  0  0  0  0
    0.1700    3.2619    1.5853 C   0  0  0  0  0  0  0  0  0  0  0  0
   -0.7460    3.5079    2.1327 H   0  0  0  0  0  0  0  0  0  0  0  0
    1.0282    3.5911    2.1790 H   0  0  0  0  0  0  0  0  0  0  0  0
    0.1749    3.8144    0.6398 H   0  0  0  0  0  0  0  0  0  0  0  0
  1  2  1  0  0  0  0
  2  3  1  0  0  0  0
  2  4  1  0  0  0  0
  2  5  1  0  0  0  0
  5  6  2  0  0  0  0
  5  7  1  0  0  0  0
  7  8  1  0  0  0  0
  7  9  1  0  0  0  0
  9 10  1  0  0  0  0
  9 11  1  0  0  0  0
  9 22  1  0  0  0  0
 11 12  1  0  0  0  0
 11 13  1  0  0  0  0
 11 14  1  0  0  0  0
 14 15  1  0  0  0  0
 14 16  1  0  0  0  0
 14 17  1  0  0  0  0
 17 18  2  0  0  0  0
 17 19  1  0  0  0  0
 19 20  1  0  0  0  0
 19 21  1  0  0  0  0
 22 23  2  0  0  0  0
 22 24  1  0  0  0  0
 24 25  1  0  0  0  0
 24 26  1  0  0  0  0
 26 27  1  0  0  0  0
 26 28  1  0  0  0  0
 26 29  1  0  0  0  0
M  END
$$$$

  -OEChem-04042215583D

 29 28  0     1  0  0  0  0  0999 V2000
   -3.2059   -3.9431    1.6853 H   0  0  0  0  0  0  0  0  0  0  0  0
   -3.2779   -2.9804    1.1721 C   0  0  0  0  0  0  0  0  0  0  0  0
   -4.0248   -2.3637    1.6778 H   0  0  0  0  0  0  0  0  0  0  0  0
   -3.5976   -3.1522    0.1410 H   0  0  0  0  0  0  0  0  0  0  0  0
   -1.9347   -2.2769    1.1848 C   0  0  0  0  0  0  0  0  0  0  0  0
   -0.9909   -2.7613    1.7912 O   0  0  0  0  0  0  0  0  0  0  0  0
   -1.7795   -1.0996    0.4861 N   0  0  0  0  0  0  0  0  0  0  0  0
   -2.5816   -0.7839   -0.0682 H   0  0  0  0  0  0  0  0  0  0  0  0
   -0.5141   -0.3690    0.3229 C   0  0  1  0  0  0  0  0  0  0  0  0
    0.1868   -0.7061    1.0934 H   0  0  0  0  0  0  0  0  0  0  0  0
    0.1299   -0.6909   -1.0508 C   0  0  0  0  0  0  0  0  0  0  0  0
    0.7538    0.1576   -1.3515 H   0  0  0  0  0  0  0  0  0  0  0  0
    0.8003   -1.5461   -0.9134 H   0  0  0  0  0  0  0  0  0  0  0  0
   -0.8277   -1.0397   -2.2193 C   0  0  0  0  0  0  0  0  0  0  0  0
   -0.2652   -1.0267   -3.1566 H   0  0  0  0  0  0  0  0  0  0  0  0
   -1.1883   -2.0631   -2.0768 H   0  0  0  0  0  0  0  0  0  0  0  0
   -2.0491   -0.1381   -2.3769 C   0  0  0  0  0  0  0  0  0  0  0  0
   -3.1511   -0.5108   -2.0105 O   0  0  0  0  0  0  0  0  0  0  0  0
   -1.9792    1.0985   -2.9488 N   0  0  0  0  0  0  0  0  0  0  0  0
   -2.7875    1.6813   -2.7487 H   0  0  0  0  0  0  0  0  0  0  0  0
   -1.0676    1.5409   -2.9633 H   0  0  0  0  0  0  0  0  0  0  0  0
   -0.6570    1.1528    0.5462 C   0  0  0  0  0  0  0  0  0  0  0  0
   -1.5260    1.7995   -0.0228 O   0  0  0  0  0  0  0  0  0  0  0  0
    0.2756    1.8237    1.3166 N   0  0  0  0  0  0  0  0  0  0  0  0
    0.9392    1.2591    1.8398 H   0  0  0  0  0  0  0  0  0  0  0  0
    0.2006    3.2530    1.5962 C   0  0  0  0  0  0  0  0  0  0  0  0
   -0.7356    3.4945    2.1105 H   0  0  0  0  0  0  0  0  0  0  0  0
    1.0351    3.5571    2.2353 H   0  0  0  0  0  0  0  0  0  0  0  0
    0.2506    3.8296    0.6667 H   0  0  0  0  0  0  0  0  0  0  0  0
  1  2  1  0  0  0  0
  2  3  1  0  0  0  0
  2  4  1  0  0  0  0
  2  5  1  0  0  0  0
  5  6  2  0  0  0  0
  5  7  1  0  0  0  0
  7  8  1  0  0  0  0
  7  9  1  0  0  0  0
  9 10  1  0  0  0  0
  9 11  1  0  0  0  0
  9 22  1  0  0  0  0
 11 12  1  0  0  0  0
 11 13  1  0  0  0  0
 11 14  1  0  0  0  0
 14 15  1  0  0  0  0
 14 16  1  0  0  0  0
 14 17  1  0  0  0  0
 17 18  2  0  0  0  0
 17 19  1  0  0  0  0
 19 20  1  0  0  0  0
 19 21  1  0  0  0  0
 22 23  2  0  0  0  0
 22 24  1  0  0  0  0
 24 25  1  0  0  0  0
 24 26  1  0  0  0  0
 26 27  1  0  0  0  0
 26 28  1  0  0  0  0
 26 29  1  0  0  0  0
M  END
$$$$

  -OEChem-04042215583D

 29 28  0     1  0  0  0  0  0999 V2000
   -3.4194   -3.7168    1.3673 H   0  0  0  0  0  0  0  0  0  0  0  0
   -3.3930   -2.7427    0.8709 C   0  0  0  0  0  0  0  0  0  0  0  0
   -3.9852   -2.0340    1.4551 H   0  0  0  0  0  0  0  0  0  0  0  0
   -3.8331   -2.8421   -0.1240 H   0  0  0  0  0  0  0  0  0  0  0  0
   -1.9622   -2.2519    0.7586 C   0  0  0  0  0  0  0  0  0  0  0  0
   -1.0434   -2.9452    1.1652 O   0  0  0  0  0  0  0  0  0  0  0  0
   -1.7034   -1.0246    0.1859 N   0  0  0  0  0  0  0  0  0  0  0  0
   -2.5072   -0.4264   -0.0081 H   0  0  0  0  0  0  0  0  0  0  0  0
   -0.4021   -0.3418    0.2504 C   0  0  1  0  0  0  0  0  0  0  0  0
    0.1696   -0.7543    1.0886 H   0  0  0  0  0  0  0  0  0  0  0  0
    0.4513   -0.5538   -1.0231 C   0  0  0  0  0  0  0  0  0  0  0  0
    1.1412    0.2900   -1.1380 H   0  0  0  0  0  0  0  0  0  0  0  0
    1.0617   -1.4491   -0.8656 H   0  0  0  0  0  0  0  0  0  0  0  0
   -0.3181   -0.7528   -2.3453 C   0  0  0  0  0  0  0  0  0  0  0  0
    0.3983   -0.9001   -3.1583 H   0  0  0  0  0  0  0  0  0  0  0  0
   -0.9291   -1.6570   -2.2847 H   0  0  0  0  0  0  0  0  0  0  0  0
   -1.2040    0.4335   -2.7015 C   0  0  0  0  0  0  0  0  0  0  0  0
   -0.7183    1.5009   -3.0241 O   0  0  0  0  0  0  0  0  0  0  0  0
   -2.5670    0.3444   -2.7335 N   0  0  0  0  0  0  0  0  0  0  0  0
   -3.0656    1.1564   -3.0859 H   0  0  0  0  0  0  0  0  0  0  0  0
   -3.0142   -0.5629   -2.6820 H   0  0  0  0  0  0  0  0  0  0  0  0
   -0.6134    1.1489    0.5960 C   0  0  0  0  0  0  0  0  0  0  0  0
   -1.6368    1.7166    0.2318 O   0  0  0  0  0  0  0  0  0  0  0  0
    0.1850    1.7627    1.5438 N   0  0  0  0  0  0  0  0  0  0  0  0
    0.9798    1.2417    1.9024 H   0  0  0  0  0  0  0  0  0  0  0  0
   -0.0549    3.1136    2.0372 C   0  0  0  0  0  0  0  0  0  0  0  0
   -1.0145    3.1645    2.5622 H   0  0  0  0  0  0  0  0  0  0  0  0
    0.7364    3.4088    2.7328 H   0  0  0  0  0  0  0  0  0  0  0  0
   -0.0687    3.8280    1.2071 H   0  0  0  0  0  0  0  0  0  0  0  0
  1  2  1  0  0  0  0
  2  3  1  0  0  0  0
  2  4  1  0  0  0  0
  2  5  1  0  0  0  0
  5  6  2  0  0  0  0
  5  7  1  0  0  0  0
  7  8  1  0  0  0  0
  7  9  1  0  0  0  0
  9 10  1  0  0  0  0
  9 11  1  0  0  0  0
  9 22  1  0  0  0  0
 11 12  1  0  0  0  0
 11 13  1  0  0  0  0
 11 14  1  0  0  0  0
 14 15  1  0  0  0  0
 14 16  1  0  0  0  0
 14 17  1  0  0  0  0
 17 18  2  0  0  0  0
 17 19  1  0  0  0  0
 19 20  1  0  0  0  0
 19 21  1  0  0  0  0
 22 23  2  0  0  0  0
 22 24  1  0  0  0  0
 24 25  1  0  0  0  0
 24 26  1  0  0  0  0
 26 27  1  0  0  0  0
 26 28  1  0  0  0  0
 26 29  1  0  0  0  0
M  END
$$$$

  -OEChem-04042215583D

 29 28  0     1  0  0  0  0  0999 V2000
   -3.3441   -3.8759    1.3056 H   0  0  0  0  0  0  0  0  0  0  0  0
   -3.3565   -2.9027    0.8068 C   0  0  0  0  0  0  0  0  0  0  0  0
   -4.0385   -2.2400    1.3450 H   0  0  0  0  0  0  0  0  0  0  0  0
   -3.7193   -3.0358   -0.2153 H   0  0  0  0  0  0  0  0  0  0  0  0
   -1.9618   -2.3065    0.7879 C   0  0  0  0  0  0  0  0  0  0  0  0
   -1.0318   -2.9072    1.3020 O   0  0  0  0  0  0  0  0  0  0  0  0
   -1.7476   -1.0840    0.1842 N   0  0  0  0  0  0  0  0  0  0  0  0
   -2.5736   -0.5755   -0.1256 H   0  0  0  0  0  0  0  0  0  0  0  0
   -0.4755   -0.3443    0.2387 C   0  0  1  0  0  0  0  0  0  0  0  0
    0.0959   -0.7107    1.0985 H   0  0  0  0  0  0  0  0  0  0  0  0
    0.4064   -0.5975   -1.0098 C   0  0  0  0  0  0  0  0  0  0  0  0
    1.0871    0.2490   -1.1538 H   0  0  0  0  0  0  0  0  0  0  0  0
    1.0287   -1.4690   -0.7789 H   0  0  0  0  0  0  0  0  0  0  0  0
   -0.2999   -0.9072   -2.3514 C   0  0  0  0  0  0  0  0  0  0  0  0
    0.4505   -1.3192   -3.0333 H   0  0  0  0  0  0  0  0  0  0  0  0
   -1.0536   -1.6855   -2.2119 H   0  0  0  0  0  0  0  0  0  0  0  0
   -0.9495    0.2802   -3.0599 C   0  0  0  0  0  0  0  0  0  0  0  0
   -0.5679    0.6243   -4.1620 O   0  0  0  0  0  0  0  0  0  0  0  0
   -2.0578    0.9352   -2.6120 N   0  0  0  0  0  0  0  0  0  0  0  0
   -2.2952    1.7493   -3.1704 H   0  0  0  0  0  0  0  0  0  0  0  0
   -2.1584    1.0172   -1.6008 H   0  0  0  0  0  0  0  0  0  0  0  0
   -0.7040    1.1505    0.5398 C   0  0  0  0  0  0  0  0  0  0  0  0
   -1.6843    1.7192    0.0746 O   0  0  0  0  0  0  0  0  0  0  0  0
    0.0803    1.8082    1.4687 N   0  0  0  0  0  0  0  0  0  0  0  0
    0.8288    1.2826    1.9125 H   0  0  0  0  0  0  0  0  0  0  0  0
   -0.1678    3.1784    1.9021 C   0  0  0  0  0  0  0  0  0  0  0  0
   -1.1605    3.2637    2.3564 H   0  0  0  0  0  0  0  0  0  0  0  0
    0.5780    3.4811    2.6435 H   0  0  0  0  0  0  0  0  0  0  0  0
   -0.1083    3.8662    1.0522 H   0  0  0  0  0  0  0  0  0  0  0  0
  1  2  1  0  0  0  0
  2  3  1  0  0  0  0
  2  4  1  0  0  0  0
  2  5  1  0  0  0  0
  5  6  2  0  0  0  0
  5  7  1  0  0  0  0
  7  8  1  0  0  0  0
  7  9  1  0  0  0  0
  9 10  1  0  0  0  0
  9 11  1  0  0  0  0
  9 22  1  0  0  0  0
 11 12  1  0  0  0  0
 11 13  1  0  0  0  0
 11 14  1  0  0  0  0
 14 15  1  0  0  0  0
 14 16  1  0  0  0  0
 14 17  1  0  0  0  0
 17 18  2  0  0  0  0
 17 19  1  0  0  0  0
 19 20  1  0  0  0  0
 19 21  1  0  0  0  0
 22 23  2  0  0  0  0
 22 24  1  0  0  0  0
 24 25  1  0  0  0  0
 24 26  1  0  0  0  0
 26 27  1  0  0  0  0
 26 28  1  0  0  0  0
 26 29  1  0  0  0  0
M  END
$$$$

  -OEChem-04042215583D

 29 28  0     1  0  0  0  0  0999 V2000
   -3.3379   -3.8912    1.4244 H   0  0  0  0  0  0  0  0  0  0  0  0
   -3.3510   -2.9264    0.9096 C   0  0  0  0  0  0  0  0  0  0  0  0
   -4.0304   -2.2539    1.4390 H   0  0  0  0  0  0  0  0  0  0  0  0
   -3.7176   -3.0768   -0.1087 H   0  0  0  0  0  0  0  0  0  0  0  0
   -1.9554   -2.3328    0.8760 C   0  0  0  0  0  0  0  0  0  0  0  0
   -1.0311   -2.9106    1.4250 O   0  0  0  0  0  0  0  0  0  0  0  0
   -1.7337   -1.1387    0.2207 N   0  0  0  0  0  0  0  0  0  0  0  0
   -2.5539   -0.6389   -0.1184 H   0  0  0  0  0  0  0  0  0  0  0  0
   -0.4592   -0.4024    0.2460 C   0  0  1  0  0  0  0  0  0  0  0  0
    0.1276   -0.7371    1.1082 H   0  0  0  0  0  0  0  0  0  0  0  0
    0.4047   -0.6503   -1.0173 C   0  0  0  0  0  0  0  0  0  0  0  0
    1.1001    0.1838   -1.1664 H   0  0  0  0  0  0  0  0  0  0  0  0
    1.0161   -1.5321   -0.7974 H   0  0  0  0  0  0  0  0  0  0  0  0
   -0.3322   -0.9541   -2.3440 C   0  0  0  0  0  0  0  0  0  0  0  0
    0.3248   -1.5776   -2.9581 H   0  0  0  0  0  0  0  0  0  0  0  0
   -1.2436   -1.5326   -2.1837 H   0  0  0  0  0  0  0  0  0  0  0  0
   -0.6591    0.2928   -3.1611 C   0  0  0  0  0  0  0  0  0  0  0  0
   -0.0366    0.5592   -4.1713 O   0  0  0  0  0  0  0  0  0  0  0  0
   -1.6807    1.1449   -2.8618 N   0  0  0  0  0  0  0  0  0  0  0  0
   -1.6826    1.9991   -3.4101 H   0  0  0  0  0  0  0  0  0  0  0  0
   -1.9652    1.2026   -1.8831 H   0  0  0  0  0  0  0  0  0  0  0  0
   -0.7192    1.0982    0.4827 C   0  0  0  0  0  0  0  0  0  0  0  0
   -1.6805    1.6371   -0.0552 O   0  0  0  0  0  0  0  0  0  0  0  0
    0.0434    1.8125    1.3871 N   0  0  0  0  0  0  0  0  0  0  0  0
    0.7867    1.3180    1.8731 H   0  0  0  0  0  0  0  0  0  0  0  0
   -0.2058    3.2100    1.7195 C   0  0  0  0  0  0  0  0  0  0  0  0
   -1.2113    3.3328    2.1356 H   0  0  0  0  0  0  0  0  0  0  0  0
    0.5197    3.5565    2.4619 H   0  0  0  0  0  0  0  0  0  0  0  0
   -0.1137    3.8387    0.8276 H   0  0  0  0  0  0  0  0  0  0  0  0
  1  2  1  0  0  0  0
  2  3  1  0  0  0  0
  2  4  1  0  0  0  0
  2  5  1  0  0  0  0
  5  6  2  0  0  0  0
  5  7  1  0  0  0  0
  7  8  1  0  0  0  0
  7  9  1  0  0  0  0
  9 10  1  0  0  0  0
  9 11  1  0  0  0  0
  9 22  1  0  0  0  0
 11 12  1  0  0  0  0
 11 13  1  0  0  0  0
 11 14  1  0  0  0  0
 14 15  1  0  0  0  0
 14 16  1  0  0  0  0
 14 17  1  0  0  0  0
 17 18  2  0  0  0  0
 17 19  1  0  0  0  0
 19 20  1  0  0  0  0
 19 21  1  0  0  0  0
 22 23  2  0  0  0  0
 22 24  1  0  0  0  0
 24 25  1  0  0  0  0
 24 26  1  0  0  0  0
 26 27  1  0  0  0  0
 26 28  1  0  0  0  0
 26 29  1  0  0  0  0
M  END
$$$$

  -OEChem-04042215583D

 29 28  0     1  0  0  0  0  0999 V2000
   -3.3189   -3.9017    1.5919 H   0  0  0  0  0  0  0  0  0  0  0  0
   -3.3317   -2.9691    1.0207 C   0  0  0  0  0  0  0  0  0  0  0  0
   -4.0272   -2.2738    1.4968 H   0  0  0  0  0  0  0  0  0  0  0  0
   -3.6770   -3.1826    0.0063 H   0  0  0  0  0  0  0  0  0  0  0  0
   -1.9414   -2.3640    0.9778 C   0  0  0  0  0  0  0  0  0  0  0  0
   -1.0197   -2.9050    1.5674 O   0  0  0  0  0  0  0  0  0  0  0  0
   -1.7222   -1.1993    0.2716 N   0  0  0  0  0  0  0  0  0  0  0  0
   -2.5386   -0.7278   -0.1143 H   0  0  0  0  0  0  0  0  0  0  0  0
   -0.4492   -0.4615    0.2584 C   0  0  1  0  0  0  0  0  0  0  0  0
    0.1639   -0.7664    1.1133 H   0  0  0  0  0  0  0  0  0  0  0  0
    0.3774   -0.6965   -1.0314 C   0  0  0  0  0  0  0  0  0  0  0  0
    1.0724    0.1365   -1.1909 H   0  0  0  0  0  0  0  0  0  0  0  0
    0.9952   -1.5804   -0.8384 H   0  0  0  0  0  0  0  0  0  0  0  0
   -0.4092   -0.9905   -2.3336 C   0  0  0  0  0  0  0  0  0  0  0  0
    0.0884   -1.8090   -2.8625 H   0  0  0  0  0  0  0  0  0  0  0  0
   -1.4346   -1.3139   -2.1517 H   0  0  0  0  0  0  0  0  0  0  0  0
   -0.4269    0.2171   -3.2638 C   0  0  0  0  0  0  0  0  0  0  0  0
    0.3078    0.2849   -4.2305 O   0  0  0  0  0  0  0  0  0  0  0  0
   -1.2429    1.2901   -3.0530 N   0  0  0  0  0  0  0  0  0  0  0  0
   -1.0351    2.1092   -3.6149 H   0  0  0  0  0  0  0  0  0  0  0  0
   -1.6300    1.4160   -2.1154 H   0  0  0  0  0  0  0  0  0  0  0  0
   -0.7326    1.0431    0.4330 C   0  0  0  0  0  0  0  0  0  0  0  0
   -1.6487    1.5620   -0.1974 O   0  0  0  0  0  0  0  0  0  0  0  0
    0.0180    1.8100    1.3033 N   0  0  0  0  0  0  0  0  0  0  0  0
    0.7370    1.3406    1.8478 H   0  0  0  0  0  0  0  0  0  0  0  0
   -0.2160    3.2321    1.5239 C   0  0  0  0  0  0  0  0  0  0  0  0
   -1.2206    3.3983    1.9271 H   0  0  0  0  0  0  0  0  0  0  0  0
    0.5128    3.6288    2.2374 H   0  0  0  0  0  0  0  0  0  0  0  0
   -0.1163    3.7873    0.5852 H   0  0  0  0  0  0  0  0  0  0  0  0
  1  2  1  0  0  0  0
  2  3  1  0  0  0  0
  2  4  1  0  0  0  0
  2  5  1  0  0  0  0
  5  6  2  0  0  0  0
  5  7  1  0  0  0  0
  7  8  1  0  0  0  0
  7  9  1  0  0  0  0
  9 10  1  0  0  0  0
  9 11  1  0  0  0  0
  9 22  1  0  0  0  0
 11 12  1  0  0  0  0
 11 13  1  0  0  0  0
 11 14  1  0  0  0  0
 14 15  1  0  0  0  0
 14 16  1  0  0  0  0
 14 17  1  0  0  0  0
 17 18  2  0  0  0  0
 17 19  1  0  0  0  0
 19 20  1  0  0  0  0
 19 21  1  0  0  0  0
 22 23  2  0  0  0  0
 22 24  1  0  0  0  0
 24 25  1  0  0  0  0
 24 26  1  0  0  0  0
 26 27  1  0  0  0  0
 26 28  1  0  0  0  0
 26 29  1  0  0  0  0
M  END
$$$$

  -OEChem-04042215583D

 29 28  0     1  0  0  0  0  0999 V2000
   -3.2863   -3.9334    1.6957 H   0  0  0  0  0  0  0  0  0  0  0  0
   -3.3099   -3.0062    1.1161 C   0  0  0  0  0  0  0  0  0  0  0  0
   -4.0134   -2.3145    1.5859 H   0  0  0  0  0  0  0  0  0  0  0  0
   -3.6534   -3.2339    0.1040 H   0  0  0  0  0  0  0  0  0  0  0  0
   -1.9267   -2.3850    1.0674 C   0  0  0  0  0  0  0  0  0  0  0  0
   -1.0074   -2.8896    1.6917 O   0  0  0  0  0  0  0  0  0  0  0  0
   -1.7128   -1.2450    0.3207 N   0  0  0  0  0  0  0  0  0  0  0  0
   -2.5260   -0.8064   -0.1080 H   0  0  0  0  0  0  0  0  0  0  0  0
   -0.4405   -0.5069    0.2728 C   0  0  1  0  0  0  0  0  0  0  0  0
    0.2000   -0.7929    1.1138 H   0  0  0  0  0  0  0  0  0  0  0  0
    0.3388   -0.7324   -1.0454 C   0  0  0  0  0  0  0  0  0  0  0  0
    1.0227    0.1067   -1.2217 H   0  0  0  0  0  0  0  0  0  0  0  0
    0.9712   -1.6136   -0.8927 H   0  0  0  0  0  0  0  0  0  0  0  0
   -0.5184   -1.0115   -2.3062 C   0  0  0  0  0  0  0  0  0  0  0  0
   -0.2508   -1.9886   -2.7193 H   0  0  0  0  0  0  0  0  0  0  0  0
   -1.5896   -1.0285   -2.1018 H   0  0  0  0  0  0  0  0  0  0  0  0
   -0.2663    0.0551   -3.3614 C   0  0  0  0  0  0  0  0  0  0  0  0
    0.4959   -0.1221   -4.2921 O   0  0  0  0  0  0  0  0  0  0  0  0
   -0.8409    1.2893   -3.2549 N   0  0  0  0  0  0  0  0  0  0  0  0
   -0.4684    2.0111   -3.8632 H   0  0  0  0  0  0  0  0  0  0  0  0
   -1.2703    1.5441   -2.3629 H   0  0  0  0  0  0  0  0  0  0  0  0
   -0.7264    1.0031    0.3984 C   0  0  0  0  0  0  0  0  0  0  0  0
   -1.5763    1.5176   -0.3235 O   0  0  0  0  0  0  0  0  0  0  0  0
    0.0287    1.7994    1.2382 N   0  0  0  0  0  0  0  0  0  0  0  0
    0.7111    1.3408    1.8362 H   0  0  0  0  0  0  0  0  0  0  0  0
   -0.1747    3.2365    1.3759 C   0  0  0  0  0  0  0  0  0  0  0  0
   -1.1857    3.4472    1.7403 H   0  0  0  0  0  0  0  0  0  0  0  0
    0.5434    3.6540    2.0884 H   0  0  0  0  0  0  0  0  0  0  0  0
   -0.0348    3.7377    0.4123 H   0  0  0  0  0  0  0  0  0  0  0  0
  1  2  1  0  0  0  0
  2  3  1  0  0  0  0
  2  4  1  0  0  0  0
  2  5  1  0  0  0  0
  5  6  2  0  0  0  0
  5  7  1  0  0  0  0
  7  8  1  0  0  0  0
  7  9  1  0  0  0  0
  9 10  1  0  0  0  0
  9 11  1  0  0  0  0
  9 22  1  0  0  0  0
 11 12  1  0  0  0  0
 11 13  1  0  0  0  0
 11 14  1  0  0  0  0
 14 15  1  0  0  0  0
 14 16  1  0  0  0  0
 14 17  1  0  0  0  0
 17 18  2  0  0  0  0
 17 19  1  0  0  0  0
 19 20  1  0  0  0  0
 19 21  1  0  0  0  0
 22 23  2  0  0  0  0
 22 24  1  0  0  0  0
 24 25  1  0  0  0  0
 24 26  1  0  0  0  0
 26 27  1  0  0  0  0
 26 28  1  0  0  0  0
 26 29  1  0  0  0  0
M  END
$$$$

  -OEChem-04042215583D

 29 28  0     1  0  0  0  0  0999 V2000
   -3.2618   -3.9314    1.7719 H   0  0  0  0  0  0  0  0  0  0  0  0
   -3.2892   -3.0161    1.1741 C   0  0  0  0  0  0  0  0  0  0  0  0
   -3.9988   -2.3198    1.6274 H   0  0  0  0  0  0  0  0  0  0  0  0
   -3.6267   -3.2653    0.1652 H   0  0  0  0  0  0  0  0  0  0  0  0
   -1.9100   -2.3871    1.1178 C   0  0  0  0  0  0  0  0  0  0  0  0
   -0.9848   -2.8827    1.7409 O   0  0  0  0  0  0  0  0  0  0  0  0
   -1.7069   -1.2509    0.3627 N   0  0  0  0  0  0  0  0  0  0  0  0
   -2.5233   -0.8239   -0.0709 H   0  0  0  0  0  0  0  0  0  0  0  0
   -0.4360   -0.5119    0.2916 C   0  0  1  0  0  0  0  0  0  0  0  0
    0.2224   -0.7968    1.1191 H   0  0  0  0  0  0  0  0  0  0  0  0
    0.3062   -0.7492   -1.0438 C   0  0  0  0  0  0  0  0  0  0  0  0
    0.9623    0.1055   -1.2480 H   0  0  0  0  0  0  0  0  0  0  0  0
    0.9617   -1.6178   -0.9185 H   0  0  0  0  0  0  0  0  0  0  0  0
   -0.6086   -1.0308   -2.2600 C   0  0  0  0  0  0  0  0  0  0  0  0
   -0.5979   -2.0979   -2.5000 H   0  0  0  0  0  0  0  0  0  0  0  0
   -1.6443   -0.7441   -2.0657 H   0  0  0  0  0  0  0  0  0  0  0  0
   -0.1489   -0.2240   -3.4629 C   0  0  0  0  0  0  0  0  0  0  0  0
    0.6474   -0.6596   -4.2717 O   0  0  0  0  0  0  0  0  0  0  0  0
   -0.5459    1.0739   -3.6141 N   0  0  0  0  0  0  0  0  0  0  0  0
   -0.0368    1.6242   -4.2983 H   0  0  0  0  0  0  0  0  0  0  0  0
   -1.0127    1.5296   -2.8316 H   0  0  0  0  0  0  0  0  0  0  0  0
   -0.7119    1.0004    0.4130 C   0  0  0  0  0  0  0  0  0  0  0  0
   -1.5562    1.5208   -0.3106 O   0  0  0  0  0  0  0  0  0  0  0  0
    0.0625    1.7942    1.2375 N   0  0  0  0  0  0  0  0  0  0  0  0
    0.7420    1.3307    1.8352 H   0  0  0  0  0  0  0  0  0  0  0  0
   -0.1129    3.2366    1.3568 C   0  0  0  0  0  0  0  0  0  0  0  0
   -1.1162    3.4715    1.7273 H   0  0  0  0  0  0  0  0  0  0  0  0
    0.6199    3.6498    2.0567 H   0  0  0  0  0  0  0  0  0  0  0  0
    0.0274    3.7219    0.3851 H   0  0  0  0  0  0  0  0  0  0  0  0
  1  2  1  0  0  0  0
  2  3  1  0  0  0  0
  2  4  1  0  0  0  0
  2  5  1  0  0  0  0
  5  6  2  0  0  0  0
  5  7  1  0  0  0  0
  7  8  1  0  0  0  0
  7  9  1  0  0  0  0
  9 10  1  0  0  0  0
  9 11  1  0  0  0  0
  9 22  1  0  0  0  0
 11 12  1  0  0  0  0
 11 13  1  0  0  0  0
 11 14  1  0  0  0  0
 14 15  1  0  0  0  0
 14 16  1  0  0  0  0
 14 17  1  0  0  0  0
 17 18  2  0  0  0  0
 17 19  1  0  0  0  0
 19 20  1  0  0  0  0
 19 21  1  0  0  0  0
 22 23  2  0  0  0  0
 22 24  1  0  0  0  0
 24 25  1  0  0  0  0
 24 26  1  0  0  0  0
 26 27  1  0  0  0  0
 26 28  1  0  0  0  0
 26 29  1  0  0  0  0
M  END
$$$$

  -OEChem-04042215583D

 29 28  0     1  0  0  0  0  0999 V2000
   -3.2684   -3.8997    1.7945 H   0  0  0  0  0  0  0  0  0  0  0  0
   -3.2977   -2.9739    1.2129 C   0  0  0  0  0  0  0  0  0  0  0  0
   -3.9780   -2.2721    1.7013 H   0  0  0  0  0  0  0  0  0  0  0  0
   -3.6741   -3.1997    0.2121 H   0  0  0  0  0  0  0  0  0  0  0  0
   -1.9088   -2.3707    1.1210 C   0  0  0  0  0  0  0  0  0  0  0  0
   -0.9742   -2.8965    1.7040 O   0  0  0  0  0  0  0  0  0  0  0  0
   -1.7082   -1.2226    0.3831 N   0  0  0  0  0  0  0  0  0  0  0  0
   -2.5311   -0.7649   -0.0048 H   0  0  0  0  0  0  0  0  0  0  0  0
   -0.4300   -0.4972    0.2993 C   0  0  1  0  0  0  0  0  0  0  0  0
    0.2351   -0.8016    1.1142 H   0  0  0  0  0  0  0  0  0  0  0  0
    0.2884   -0.7556   -1.0445 C   0  0  0  0  0  0  0  0  0  0  0  0
    0.9344    0.1002   -1.2725 H   0  0  0  0  0  0  0  0  0  0  0  0
    0.9452   -1.6251   -0.9307 H   0  0  0  0  0  0  0  0  0  0  0  0
   -0.6587   -1.0327   -2.2316 C   0  0  0  0  0  0  0  0  0  0  0  0
   -0.8871   -2.1009   -2.2923 H   0  0  0  0  0  0  0  0  0  0  0  0
   -1.6019   -0.4944   -2.1058 H   0  0  0  0  0  0  0  0  0  0  0  0
   -0.0377   -0.5614   -3.5373 C   0  0  0  0  0  0  0  0  0  0  0  0
    0.8257   -1.2009   -4.1061 O   0  0  0  0  0  0  0  0  0  0  0  0
   -0.3385    0.6623   -4.0635 N   0  0  0  0  0  0  0  0  0  0  0  0
    0.2764    0.9961   -4.7995 H   0  0  0  0  0  0  0  0  0  0  0  0
   -0.8616    1.3210   -3.4935 H   0  0  0  0  0  0  0  0  0  0  0  0
   -0.6815    1.0163    0.4547 C   0  0  0  0  0  0  0  0  0  0  0  0
   -1.5789    1.5516   -0.1880 O   0  0  0  0  0  0  0  0  0  0  0  0
    0.1213    1.7847    1.2765 N   0  0  0  0  0  0  0  0  0  0  0  0
    0.8297    1.3051    1.8257 H   0  0  0  0  0  0  0  0  0  0  0  0
   -0.0692    3.2172    1.4685 C   0  0  0  0  0  0  0  0  0  0  0  0
   -1.0507    3.4175    1.9110 H   0  0  0  0  0  0  0  0  0  0  0  0
    0.6999    3.6150    2.1376 H   0  0  0  0  0  0  0  0  0  0  0  0
    0.0008    3.7450    0.5114 H   0  0  0  0  0  0  0  0  0  0  0  0
  1  2  1  0  0  0  0
  2  3  1  0  0  0  0
  2  4  1  0  0  0  0
  2  5  1  0  0  0  0
  5  6  2  0  0  0  0
  5  7  1  0  0  0  0
  7  8  1  0  0  0  0
  7  9  1  0  0  0  0
  9 10  1  0  0  0  0
  9 11  1  0  0  0  0
  9 22  1  0  0  0  0
 11 12  1  0  0  0  0
 11 13  1  0  0  0  0
 11 14  1  0  0  0  0
 14 15  1  0  0  0  0
 14 16  1  0  0  0  0
 14 17  1  0  0  0  0
 17 18  2  0  0  0  0
 17 19  1  0  0  0  0
 19 20  1  0  0  0  0
 19 21  1  0  0  0  0
 22 23  2  0  0  0  0
 22 24  1  0  0  0  0
 24 25  1  0  0  0  0
 24 26  1  0  0  0  0
 26 27  1  0  0  0  0
 26 28  1  0  0  0  0
 26 29  1  0  0  0  0
M  END
$$$$

  -OEChem-04042215583D

 29 28  0     1  0  0  0  0  0999 V2000
   -3.3813   -3.7876    1.6536 H   0  0  0  0  0  0  0  0  0  0  0  0
   -3.3672   -2.8316    1.1227 C   0  0  0  0  0  0  0  0  0  0  0  0
   -3.9911   -2.1176    1.6657 H   0  0  0  0  0  0  0  0  0  0  0  0
   -3.7800   -2.9789    0.1219 H   0  0  0  0  0  0  0  0  0  0  0  0
   -1.9465   -2.3086    1.0261 C   0  0  0  0  0  0  0  0  0  0  0  0
   -1.0299   -2.9325    1.5363 O   0  0  0  0  0  0  0  0  0  0  0  0
   -1.6977   -1.1236    0.3656 N   0  0  0  0  0  0  0  0  0  0  0  0
   -2.5044   -0.5802    0.0625 H   0  0  0  0  0  0  0  0  0  0  0  0
   -0.3936   -0.4411    0.3448 C   0  0  1  0  0  0  0  0  0  0  0  0
    0.2377   -0.8147    1.1578 H   0  0  0  0  0  0  0  0  0  0  0  0
    0.3559   -0.6597   -0.9883 C   0  0  0  0  0  0  0  0  0  0  0  0
    1.0301    0.1875   -1.1608 H   0  0  0  0  0  0  0  0  0  0  0  0
    0.9824   -1.5535   -0.8949 H   0  0  0  0  0  0  0  0  0  0  0  0
   -0.5663   -0.8493   -2.2120 C   0  0  0  0  0  0  0  0  0  0  0  0
   -1.0349   -1.8365   -2.1764 H   0  0  0  0  0  0  0  0  0  0  0  0
   -1.3569   -0.0942   -2.1859 H   0  0  0  0  0  0  0  0  0  0  0  0
    0.1743   -0.7004   -3.5387 C   0  0  0  0  0  0  0  0  0  0  0  0
    1.3881   -0.7127   -3.6296 O   0  0  0  0  0  0  0  0  0  0  0  0
   -0.5021   -0.5371   -4.7135 N   0  0  0  0  0  0  0  0  0  0  0  0
    0.0623   -0.2715   -5.5153 H   0  0  0  0  0  0  0  0  0  0  0  0
   -1.4878   -0.3001   -4.6816 H   0  0  0  0  0  0  0  0  0  0  0  0
   -0.6021    1.0661    0.5951 C   0  0  0  0  0  0  0  0  0  0  0  0
   -1.5381    1.6483    0.0571 O   0  0  0  0  0  0  0  0  0  0  0  0
    0.2132    1.7520    1.4757 N   0  0  0  0  0  0  0  0  0  0  0  0
    0.9477    1.2282    1.9438 H   0  0  0  0  0  0  0  0  0  0  0  0
    0.0246    3.1575    1.8121 C   0  0  0  0  0  0  0  0  0  0  0  0
   -0.9514    3.3100    2.2845 H   0  0  0  0  0  0  0  0  0  0  0  0
    0.8016    3.4871    2.5085 H   0  0  0  0  0  0  0  0  0  0  0  0
    0.0818    3.7784    0.9118 H   0  0  0  0  0  0  0  0  0  0  0  0
  1  2  1  0  0  0  0
  2  3  1  0  0  0  0
  2  4  1  0  0  0  0
  2  5  1  0  0  0  0
  5  6  2  0  0  0  0
  5  7  1  0  0  0  0
  7  8  1  0  0  0  0
  7  9  1  0  0  0  0
  9 10  1  0  0  0  0
  9 11  1  0  0  0  0
  9 22  1  0  0  0  0
 11 12  1  0  0  0  0
 11 13  1  0  0  0  0
 11 14  1  0  0  0  0
 14 15  1  0  0  0  0
 14 16  1  0  0  0  0
 14 17  1  0  0  0  0
 17 18  2  0  0  0  0
 17 19  1  0  0  0  0
 19 20  1  0  0  0  0
 19 21  1  0  0  0  0
 22 23  2  0  0  0  0
 22 24  1  0  0  0  0
 24 25  1  0  0  0  0
 24 26  1  0  0  0  0
 26 27  1  0  0  0  0
 26 28  1  0  0  0  0
 26 29  1  0  0  0  0
M  END
$$$$

  -OEChem-04042215583D

 29 28  0     1  0  0  0  0  0999 V2000
   -3.3811   -3.7655    1.6036 H   0  0  0  0  0  0  0  0  0  0  0  0
   -3.3656   -2.8173    1.0592 C   0  0  0  0  0  0  0  0  0  0  0  0
   -3.9994   -2.0992    1.5852 H   0  0  0  0  0  0  0  0  0  0  0  0
   -3.7655   -2.9808    0.0557 H   0  0  0  0  0  0  0  0  0  0  0  0
   -1.9462   -2.2895    0.9716 C   0  0  0  0  0  0  0  0  0  0  0  0
   -1.0268   -2.9267    1.4598 O   0  0  0  0  0  0  0  0  0  0  0  0
   -1.7029   -1.0839    0.3474 N   0  0  0  0  0  0  0  0  0  0  0  0
   -2.5123   -0.5346    0.0628 H   0  0  0  0  0  0  0  0  0  0  0  0
   -0.4014   -0.3986    0.3355 C   0  0  1  0  0  0  0  0  0  0  0  0
    0.2334   -0.8002    1.1322 H   0  0  0  0  0  0  0  0  0  0  0  0
    0.3341   -0.6024   -1.0045 C   0  0  0  0  0  0  0  0  0  0  0  0
    1.1871    0.0838   -1.0573 H   0  0  0  0  0  0  0  0  0  0  0  0
    0.7367   -1.6215   -1.0196 H   0  0  0  0  0  0  0  0  0  0  0  0
   -0.5572   -0.4152   -2.2518 C   0  0  0  0  0  0  0  0  0  0  0  0
   -1.3833   -1.1299   -2.2293 H   0  0  0  0  0  0  0  0  0  0  0  0
   -0.9796    0.5931   -2.2544 H   0  0  0  0  0  0  0  0  0  0  0  0
    0.2039   -0.6234   -3.5582 C   0  0  0  0  0  0  0  0  0  0  0  0
    1.4013   -0.8364   -3.6091 O   0  0  0  0  0  0  0  0  0  0  0  0
   -0.4339   -0.5525   -4.7632 N   0  0  0  0  0  0  0  0  0  0  0  0
    0.1668   -0.5203   -5.5816 H   0  0  0  0  0  0  0  0  0  0  0  0
   -1.3704   -0.1647   -4.7997 H   0  0  0  0  0  0  0  0  0  0  0  0
   -0.5899    1.1026    0.6336 C   0  0  0  0  0  0  0  0  0  0  0  0
   -1.5367    1.7088    0.1429 O   0  0  0  0  0  0  0  0  0  0  0  0
    0.2444    1.7512    1.5246 N   0  0  0  0  0  0  0  0  0  0  0  0
    0.9838    1.2068    1.9603 H   0  0  0  0  0  0  0  0  0  0  0  0
    0.0701    3.1445    1.9156 C   0  0  0  0  0  0  0  0  0  0  0  0
   -0.9058    3.2898    2.3907 H   0  0  0  0  0  0  0  0  0  0  0  0
    0.8481    3.4373    2.6273 H   0  0  0  0  0  0  0  0  0  0  0  0
    0.1378    3.7995    1.0406 H   0  0  0  0  0  0  0  0  0  0  0  0
  1  2  1  0  0  0  0
  2  3  1  0  0  0  0
  2  4  1  0  0  0  0
  2  5  1  0  0  0  0
  5  6  2  0  0  0  0
  5  7  1  0  0  0  0
  7  8  1  0  0  0  0
  7  9  1  0  0  0  0
  9 10  1  0  0  0  0
  9 11  1  0  0  0  0
  9 22  1  0  0  0  0
 11 12  1  0  0  0  0
 11 13  1  0  0  0  0
 11 14  1  0  0  0  0
 14 15  1  0  0  0  0
 14 16  1  0  0  0  0
 14 17  1  0  0  0  0
 17 18  2  0  0  0  0
 17 19  1  0  0  0  0
 19 20  1  0  0  0  0
 19 21  1  0  0  0  0
 22 23  2  0  0  0  0
 22 24  1  0  0  0  0
 24 25  1  0  0  0  0
 24 26  1  0  0  0  0
 26 27  1  0  0  0  0
 26 28  1  0  0  0  0
 26 29  1  0  0  0  0
M  END
$$$$

  -OEChem-04042215583D

 29 28  0     1  0  0  0  0  0999 V2000
   -3.4060   -3.7558    1.6116 H   0  0  0  0  0  0  0  0  0  0  0  0
   -3.3816   -2.8214    1.0439 C   0  0  0  0  0  0  0  0  0  0  0  0
   -4.0292   -2.0930    1.5378 H   0  0  0  0  0  0  0  0  0  0  0  0
   -3.7590   -3.0108    0.0363 H   0  0  0  0  0  0  0  0  0  0  0  0
   -1.9624   -2.2904    0.9729 C   0  0  0  0  0  0  0  0  0  0  0  0
   -1.0465   -2.9302    1.4642 O   0  0  0  0  0  0  0  0  0  0  0  0
   -1.7146   -1.0808    0.3578 N   0  0  0  0  0  0  0  0  0  0  0  0
   -2.5209   -0.5306    0.0665 H   0  0  0  0  0  0  0  0  0  0  0  0
   -0.4097   -0.4018    0.3479 C   0  0  1  0  0  0  0  0  0  0  0  0
    0.2265   -0.8143    1.1379 H   0  0  0  0  0  0  0  0  0  0  0  0
    0.3256   -0.5771   -0.9971 C   0  0  0  0  0  0  0  0  0  0  0  0
    1.1933    0.0902   -1.0401 H   0  0  0  0  0  0  0  0  0  0  0  0
    0.7078   -1.6042   -1.0192 H   0  0  0  0  0  0  0  0  0  0  0  0
   -0.5525   -0.3629   -2.2520 C   0  0  0  0  0  0  0  0  0  0  0  0
   -1.5042   -0.8870   -2.1431 H   0  0  0  0  0  0  0  0  0  0  0  0
   -0.7676    0.7024   -2.3722 H   0  0  0  0  0  0  0  0  0  0  0  0
    0.1028   -0.8900   -3.5259 C   0  0  0  0  0  0  0  0  0  0  0  0
    1.2838   -1.1759   -3.5982 O   0  0  0  0  0  0  0  0  0  0  0  0
   -0.6088   -1.0273   -4.6832 N   0  0  0  0  0  0  0  0  0  0  0  0
   -0.0617   -1.1978   -5.5220 H   0  0  0  0  0  0  0  0  0  0  0  0
   -1.5256   -0.5986   -4.7486 H   0  0  0  0  0  0  0  0  0  0  0  0
   -0.5929    1.0971    0.6588 C   0  0  0  0  0  0  0  0  0  0  0  0
   -1.5264    1.7148    0.1569 O   0  0  0  0  0  0  0  0  0  0  0  0
    0.2450    1.7366    1.5532 N   0  0  0  0  0  0  0  0  0  0  0  0
    0.9833    1.1868    1.9842 H   0  0  0  0  0  0  0  0  0  0  0  0
    0.1034    3.1400    1.9212 C   0  0  0  0  0  0  0  0  0  0  0  0
   -0.8767    3.3208    2.3749 H   0  0  0  0  0  0  0  0  0  0  0  0
    0.8756    3.4210    2.6438 H   0  0  0  0  0  0  0  0  0  0  0  0
    0.2075    3.7798    1.0386 H   0  0  0  0  0  0  0  0  0  0  0  0
  1  2  1  0  0  0  0
  2  3  1  0  0  0  0
  2  4  1  0  0  0  0
  2  5  1  0  0  0  0
  5  6  2  0  0  0  0
  5  7  1  0  0  0  0
  7  8  1  0  0  0  0
  7  9  1  0  0  0  0
  9 10  1  0  0  0  0
  9 11  1  0  0  0  0
  9 22  1  0  0  0  0
 11 12  1  0  0  0  0
 11 13  1  0  0  0  0
 11 14  1  0  0  0  0
 14 15  1  0  0  0  0
 14 16  1  0  0  0  0
 14 17  1  0  0  0  0
 17 18  2  0  0  0  0
 17 19  1  0  0  0  0
 19 20  1  0  0  0  0
 19 21  1  0  0  0  0
 22 23  2  0  0  0  0
 22 24  1  0  0  0  0
 24 25  1  0  0  0  0
 24 26  1  0  0  0  0
 26 27  1  0  0  0  0
 26 28  1  0  0  0  0
 26 29  1  0  0  0  0
M  END
$$$$

  -OEChem-04042215583D

 29 28  0     1  0  0  0  0  0999 V2000
   -3.4256   -3.7413    1.5848 H   0  0  0  0  0  0  0  0  0  0  0  0
   -3.3948   -2.7975    1.0333 C   0  0  0  0  0  0  0  0  0  0  0  0
   -4.0350   -2.0722    1.5413 H   0  0  0  0  0  0  0  0  0  0  0  0
   -3.7763   -2.9667    0.0236 H   0  0  0  0  0  0  0  0  0  0  0  0
   -1.9714   -2.2770    0.9675 C   0  0  0  0  0  0  0  0  0  0  0  0
   -1.0631   -2.9198    1.4689 O   0  0  0  0  0  0  0  0  0  0  0  0
   -1.7128   -1.0694    0.3528 N   0  0  0  0  0  0  0  0  0  0  0  0
   -2.5148   -0.5127    0.0615 H   0  0  0  0  0  0  0  0  0  0  0  0
   -0.4028   -0.3997    0.3469 C   0  0  1  0  0  0  0  0  0  0  0  0
    0.2291   -0.8171    1.1380 H   0  0  0  0  0  0  0  0  0  0  0  0
    0.3386   -0.5680   -0.9967 C   0  0  0  0  0  0  0  0  0  0  0  0
    1.2177    0.0841   -1.0314 H   0  0  0  0  0  0  0  0  0  0  0  0
    0.7070   -1.6003   -1.0109 H   0  0  0  0  0  0  0  0  0  0  0  0
   -0.5216   -0.3406   -2.2655 C   0  0  0  0  0  0  0  0  0  0  0  0
   -1.5606   -0.6191   -2.0828 H   0  0  0  0  0  0  0  0  0  0  0  0
   -0.5105    0.7209   -2.5270 H   0  0  0  0  0  0  0  0  0  0  0  0
   -0.0501   -1.1630   -3.4623 C   0  0  0  0  0  0  0  0  0  0  0  0
    1.0863   -1.5841   -3.5729 O   0  0  0  0  0  0  0  0  0  0  0  0
   -0.8788   -1.4241   -4.5156 N   0  0  0  0  0  0  0  0  0  0  0  0
   -0.4326   -1.8032   -5.3459 H   0  0  0  0  0  0  0  0  0  0  0  0
   -1.7510   -0.9125   -4.5919 H   0  0  0  0  0  0  0  0  0  0  0  0
   -0.5820    1.0997    0.6574 C   0  0  0  0  0  0  0  0  0  0  0  0
   -1.5108    1.7203    0.1507 O   0  0  0  0  0  0  0  0  0  0  0  0
    0.2545    1.7361    1.5553 N   0  0  0  0  0  0  0  0  0  0  0  0
    0.9802    1.1797    1.9988 H   0  0  0  0  0  0  0  0  0  0  0  0
    0.0959    3.1310    1.9478 C   0  0  0  0  0  0  0  0  0  0  0  0
   -0.8850    3.2904    2.4080 H   0  0  0  0  0  0  0  0  0  0  0  0
    0.8669    3.4097    2.6726 H   0  0  0  0  0  0  0  0  0  0  0  0
    0.1877    3.7874    1.0761 H   0  0  0  0  0  0  0  0  0  0  0  0
  1  2  1  0  0  0  0
  2  3  1  0  0  0  0
  2  4  1  0  0  0  0
  2  5  1  0  0  0  0
  5  6  2  0  0  0  0
  5  7  1  0  0  0  0
  7  8  1  0  0  0  0
  7  9  1  0  0  0  0
  9 10  1  0  0  0  0
  9 11  1  0  0  0  0
  9 22  1  0  0  0  0
 11 12  1  0  0  0  0
 11 13  1  0  0  0  0
 11 14  1  0  0  0  0
 14 15  1  0  0  0  0
 14 16  1  0  0  0  0
 14 17  1  0  0  0  0
 17 18  2  0  0  0  0
 17 19  1  0  0  0  0
 19 20  1  0  0  0  0
 19 21  1  0  0  0  0
 22 23  2  0  0  0  0
 22 24  1  0  0  0  0
 24 25  1  0  0  0  0
 24 26  1  0  0  0  0
 26 27  1  0  0  0  0
 26 28  1  0  0  0  0
 26 29  1  0  0  0  0
M  END
$$$$

  -OEChem-04042215583D

 29 28  0     1  0  0  0  0  0999 V2000
   -3.4494   -3.7385    1.4521 H   0  0  0  0  0  0  0  0  0  0  0  0
   -3.4083   -2.7729    0.9402 C   0  0  0  0  0  0  0  0  0  0  0  0
   -4.0484   -2.0647    1.4719 H   0  0  0  0  0  0  0  0  0  0  0  0
   -3.7822   -2.8985   -0.0788 H   0  0  0  0  0  0  0  0  0  0  0  0
   -1.9813   -2.2596    0.9086 C   0  0  0  0  0  0  0  0  0  0  0  0
   -1.0865   -2.9125    1.4207 O   0  0  0  0  0  0  0  0  0  0  0  0
   -1.7041   -1.0478    0.3108 N   0  0  0  0  0  0  0  0  0  0  0  0
   -2.4977   -0.4812    0.0164 H   0  0  0  0  0  0  0  0  0  0  0  0
   -0.3900   -0.3864    0.3402 C   0  0  1  0  0  0  0  0  0  0  0  0
    0.2242   -0.8147    1.1393 H   0  0  0  0  0  0  0  0  0  0  0  0
    0.3708   -0.5519   -0.9925 C   0  0  0  0  0  0  0  0  0  0  0  0
    1.2515    0.0989   -1.0070 H   0  0  0  0  0  0  0  0  0  0  0  0
    0.7415   -1.5835   -1.0064 H   0  0  0  0  0  0  0  0  0  0  0  0
   -0.4689   -0.3066   -2.2731 C   0  0  0  0  0  0  0  0  0  0  0  0
   -1.5361   -0.2851   -2.0468 H   0  0  0  0  0  0  0  0  0  0  0  0
   -0.2150    0.6743   -2.6844 H   0  0  0  0  0  0  0  0  0  0  0  0
   -0.2404   -1.3647   -3.3483 C   0  0  0  0  0  0  0  0  0  0  0  0
    0.8568   -1.8352   -3.5831 O   0  0  0  0  0  0  0  0  0  0  0  0
   -1.2603   -1.8158   -4.1367 N   0  0  0  0  0  0  0  0  0  0  0  0
   -0.9841   -2.3739   -4.9393 H   0  0  0  0  0  0  0  0  0  0  0  0
   -2.1336   -1.3006   -4.1487 H   0  0  0  0  0  0  0  0  0  0  0  0
   -0.5666    1.1112    0.6609 C   0  0  0  0  0  0  0  0  0  0  0  0
   -1.4801    1.7416    0.1388 O   0  0  0  0  0  0  0  0  0  0  0  0
    0.2526    1.7361    1.5826 N   0  0  0  0  0  0  0  0  0  0  0  0
    0.9588    1.1706    2.0457 H   0  0  0  0  0  0  0  0  0  0  0  0
    0.0950    3.1305    1.9777 C   0  0  0  0  0  0  0  0  0  0  0  0
   -0.8766    3.2854    2.4584 H   0  0  0  0  0  0  0  0  0  0  0  0
    0.8805    3.4146    2.6846 H   0  0  0  0  0  0  0  0  0  0  0  0
    0.1644    3.7865    1.1035 H   0  0  0  0  0  0  0  0  0  0  0  0
  1  2  1  0  0  0  0
  2  3  1  0  0  0  0
  2  4  1  0  0  0  0
  2  5  1  0  0  0  0
  5  6  2  0  0  0  0
  5  7  1  0  0  0  0
  7  8  1  0  0  0  0
  7  9  1  0  0  0  0
  9 10  1  0  0  0  0
  9 11  1  0  0  0  0
  9 22  1  0  0  0  0
 11 12  1  0  0  0  0
 11 13  1  0  0  0  0
 11 14  1  0  0  0  0
 14 15  1  0  0  0  0
 14 16  1  0  0  0  0
 14 17  1  0  0  0  0
 17 18  2  0  0  0  0
 17 19  1  0  0  0  0
 19 20  1  0  0  0  0
 19 21  1  0  0  0  0
 22 23  2  0  0  0  0
 22 24  1  0  0  0  0
 24 25  1  0  0  0  0
 24 26  1  0  0  0  0
 26 27  1  0  0  0  0
 26 28  1  0  0  0  0
 26 29  1  0  0  0  0
M  END
$$$$

  -OEChem-04042215583D

 29 28  0     1  0  0  0  0  0999 V2000
   -3.4776   -3.7157    1.3174 H   0  0  0  0  0  0  0  0  0  0  0  0
   -3.4200   -2.7485    0.8101 C   0  0  0  0  0  0  0  0  0  0  0  0
   -4.0806   -2.0432    1.3201 H   0  0  0  0  0  0  0  0  0  0  0  0
   -3.7557   -2.8724   -0.2222 H   0  0  0  0  0  0  0  0  0  0  0  0
   -1.9938   -2.2325    0.8316 C   0  0  0  0  0  0  0  0  0  0  0  0
   -1.1158   -2.8884    1.3684 O   0  0  0  0  0  0  0  0  0  0  0  0
   -1.6970   -1.0176    0.2491 N   0  0  0  0  0  0  0  0  0  0  0  0
   -2.4804   -0.4457   -0.0615 H   0  0  0  0  0  0  0  0  0  0  0  0
   -0.3810   -0.3627    0.3174 C   0  0  1  0  0  0  0  0  0  0  0  0
    0.2098   -0.7990    1.1296 H   0  0  0  0  0  0  0  0  0  0  0  0
    0.4043   -0.5460   -0.9974 C   0  0  0  0  0  0  0  0  0  0  0  0
    1.2740    0.1196   -0.9967 H   0  0  0  0  0  0  0  0  0  0  0  0
    0.7944   -1.5706   -1.0059 H   0  0  0  0  0  0  0  0  0  0  0  0
   -0.4185   -0.3007   -2.2871 C   0  0  0  0  0  0  0  0  0  0  0  0
   -1.4347    0.0263   -2.0563 H   0  0  0  0  0  0  0  0  0  0  0  0
    0.0480    0.5091   -2.8550 H   0  0  0  0  0  0  0  0  0  0  0  0
   -0.4758   -1.5302   -3.1864 C   0  0  0  0  0  0  0  0  0  0  0  0
    0.5289   -2.0912   -3.5803 O   0  0  0  0  0  0  0  0  0  0  0  0
   -1.6619   -2.0646   -3.6026 N   0  0  0  0  0  0  0  0  0  0  0  0
   -1.5951   -2.7688   -4.3318 H   0  0  0  0  0  0  0  0  0  0  0  0
   -2.5069   -1.5136   -3.5012 H   0  0  0  0  0  0  0  0  0  0  0  0
   -0.5496    1.1348    0.6437 C   0  0  0  0  0  0  0  0  0  0  0  0
   -1.4503    1.7762    0.1130 O   0  0  0  0  0  0  0  0  0  0  0  0
    0.2541    1.7432    1.5898 N   0  0  0  0  0  0  0  0  0  0  0  0
    0.9420    1.1656    2.0654 H   0  0  0  0  0  0  0  0  0  0  0  0
    0.0909    3.1309    2.0057 C   0  0  0  0  0  0  0  0  0  0  0  0
   -0.8846    3.2756    2.4817 H   0  0  0  0  0  0  0  0  0  0  0  0
    0.8706    3.4050    2.7229 H   0  0  0  0  0  0  0  0  0  0  0  0
    0.1657    3.8018    1.1433 H   0  0  0  0  0  0  0  0  0  0  0  0
  1  2  1  0  0  0  0
  2  3  1  0  0  0  0
  2  4  1  0  0  0  0
  2  5  1  0  0  0  0
  5  6  2  0  0  0  0
  5  7  1  0  0  0  0
  7  8  1  0  0  0  0
  7  9  1  0  0  0  0
  9 10  1  0  0  0  0
  9 11  1  0  0  0  0
  9 22  1  0  0  0  0
 11 12  1  0  0  0  0
 11 13  1  0  0  0  0
 11 14  1  0  0  0  0
 14 15  1  0  0  0  0
 14 16  1  0  0  0  0
 14 17  1  0  0  0  0
 17 18  2  0  0  0  0
 17 19  1  0  0  0  0
 19 20  1  0  0  0  0
 19 21  1  0  0  0  0
 22 23  2  0  0  0  0
 22 24  1  0  0  0  0
 24 25  1  0  0  0  0
 24 26  1  0  0  0  0
 26 27  1  0  0  0  0
 26 28  1  0  0  0  0
 26 29  1  0  0  0  0
M  END
$$$$

  -OEChem-04042215583D

 29 28  0     1  0  0  0  0  0999 V2000
   -3.1375   -3.9386    1.5196 H   0  0  0  0  0  0  0  0  0  0  0  0
   -3.2016   -2.9812    0.9957 C   0  0  0  0  0  0  0  0  0  0  0  0
   -3.9555   -2.3598    1.4847 H   0  0  0  0  0  0  0  0  0  0  0  0
   -3.5059   -3.1645   -0.0380 H   0  0  0  0  0  0  0  0  0  0  0  0
   -1.8568   -2.2801    1.0182 C   0  0  0  0  0  0  0  0  0  0  0  0
   -0.8891   -2.8239    1.5302 O   0  0  0  0  0  0  0  0  0  0  0  0
   -1.7297   -1.0263    0.4580 N   0  0  0  0  0  0  0  0  0  0  0  0
   -2.5534   -0.6424   -0.0018 H   0  0  0  0  0  0  0  0  0  0  0  0
   -0.4587   -0.3016    0.3087 C   0  0  1  0  0  0  0  0  0  0  0  0
    0.3021   -0.7449    0.9591 H   0  0  0  0  0  0  0  0  0  0  0  0
    0.0286   -0.4254   -1.1503 C   0  0  0  0  0  0  0  0  0  0  0  0
    0.8348    0.2982   -1.3107 H   0  0  0  0  0  0  0  0  0  0  0  0
    0.4621   -1.4223   -1.2890 H   0  0  0  0  0  0  0  0  0  0  0  0
   -1.0759   -0.1905   -2.2093 C   0  0  0  0  0  0  0  0  0  0  0  0
   -1.9360    0.3363   -1.7871 H   0  0  0  0  0  0  0  0  0  0  0  0
   -0.6759    0.4488   -3.0005 H   0  0  0  0  0  0  0  0  0  0  0  0
   -1.5385   -1.4938   -2.8475 C   0  0  0  0  0  0  0  0  0  0  0  0
   -2.5238   -2.0829   -2.4430 O   0  0  0  0  0  0  0  0  0  0  0  0
   -0.8728   -2.0683   -3.8931 N   0  0  0  0  0  0  0  0  0  0  0  0
   -1.3375   -2.8499   -4.3466 H   0  0  0  0  0  0  0  0  0  0  0  0
   -0.1679   -1.5321   -4.3874 H   0  0  0  0  0  0  0  0  0  0  0  0
   -0.5911    1.1762    0.7337 C   0  0  0  0  0  0  0  0  0  0  0  0
   -1.5359    1.8538    0.3468 O   0  0  0  0  0  0  0  0  0  0  0  0
    0.3767    1.7591    1.5313 N   0  0  0  0  0  0  0  0  0  0  0  0
    1.0951    1.1501    1.9131 H   0  0  0  0  0  0  0  0  0  0  0  0
    0.2861    3.1294    2.0210 C   0  0  0  0  0  0  0  0  0  0  0  0
   -0.6048    3.2550    2.6454 H   0  0  0  0  0  0  0  0  0  0  0  0
    1.1673    3.3754    2.6212 H   0  0  0  0  0  0  0  0  0  0  0  0
    0.2321    3.8334    1.1837 H   0  0  0  0  0  0  0  0  0  0  0  0
  1  2  1  0  0  0  0
  2  3  1  0  0  0  0
  2  4  1  0  0  0  0
  2  5  1  0  0  0  0
  5  6  2  0  0  0  0
  5  7  1  0  0  0  0
  7  8  1  0  0  0  0
  7  9  1  0  0  0  0
  9 10  1  0  0  0  0
  9 11  1  0  0  0  0
  9 22  1  0  0  0  0
 11 12  1  0  0  0  0
 11 13  1  0  0  0  0
 11 14  1  0  0  0  0
 14 15  1  0  0  0  0
 14 16  1  0  0  0  0
 14 17  1  0  0  0  0
 17 18  2  0  0  0  0
 17 19  1  0  0  0  0
 19 20  1  0  0  0  0
 19 21  1  0  0  0  0
 22 23  2  0  0  0  0
 22 24  1  0  0  0  0
 24 25  1  0  0  0  0
 24 26  1  0  0  0  0
 26 27  1  0  0  0  0
 26 28  1  0  0  0  0
 26 29  1  0  0  0  0
M  END
$$$$

  -OEChem-04042215583D

 29 28  0     1  0  0  0  0  0999 V2000
   -3.3255   -3.8330    1.4617 H   0  0  0  0  0  0  0  0  0  0  0  0
   -3.2805   -2.9223    0.8582 C   0  0  0  0  0  0  0  0  0  0  0  0
   -4.0962   -2.2597    1.1561 H   0  0  0  0  0  0  0  0  0  0  0  0
   -3.4014   -3.1917   -0.1943 H   0  0  0  0  0  0  0  0  0  0  0  0
   -1.9472   -2.2278    1.0575 C   0  0  0  0  0  0  0  0  0  0  0  0
   -1.1031   -2.7215    1.7905 O   0  0  0  0  0  0  0  0  0  0  0  0
   -1.7040   -1.0254    0.4247 N   0  0  0  0  0  0  0  0  0  0  0  0
   -2.4566   -0.6286   -0.1316 H   0  0  0  0  0  0  0  0  0  0  0  0
   -0.4025   -0.3436    0.4100 C   0  0  1  0  0  0  0  0  0  0  0  0
    0.2372   -0.7463    1.2019 H   0  0  0  0  0  0  0  0  0  0  0  0
    0.3097   -0.5810   -0.9409 C   0  0  0  0  0  0  0  0  0  0  0  0
    1.1457    0.1226   -1.0151 H   0  0  0  0  0  0  0  0  0  0  0  0
    0.7451   -1.5865   -0.9399 H   0  0  0  0  0  0  0  0  0  0  0  0
   -0.5927   -0.4087   -2.1895 C   0  0  0  0  0  0  0  0  0  0  0  0
   -1.3314    0.3779   -2.0175 H   0  0  0  0  0  0  0  0  0  0  0  0
    0.0407   -0.0805   -3.0176 H   0  0  0  0  0  0  0  0  0  0  0  0
   -1.3141   -1.6725   -2.6595 C   0  0  0  0  0  0  0  0  0  0  0  0
   -1.1439   -2.7775   -2.1804 O   0  0  0  0  0  0  0  0  0  0  0  0
   -2.2433   -1.6138   -3.6579 N   0  0  0  0  0  0  0  0  0  0  0  0
   -2.5558   -2.5065   -4.0288 H   0  0  0  0  0  0  0  0  0  0  0  0
   -2.3068   -0.7733   -4.2226 H   0  0  0  0  0  0  0  0  0  0  0  0
   -0.5601    1.1642    0.6968 C   0  0  0  0  0  0  0  0  0  0  0  0
   -1.4366    1.8149    0.1385 O   0  0  0  0  0  0  0  0  0  0  0  0
    0.2923    1.7967    1.5829 N   0  0  0  0  0  0  0  0  0  0  0  0
    0.9459    1.2136    2.0985 H   0  0  0  0  0  0  0  0  0  0  0  0
    0.1672    3.2032    1.9459 C   0  0  0  0  0  0  0  0  0  0  0  0
   -0.7837    3.3828    2.4584 H   0  0  0  0  0  0  0  0  0  0  0  0
    0.9828    3.4951    2.6145 H   0  0  0  0  0  0  0  0  0  0  0  0
    0.2118    3.8358    1.0530 H   0  0  0  0  0  0  0  0  0  0  0  0
  1  2  1  0  0  0  0
  2  3  1  0  0  0  0
  2  4  1  0  0  0  0
  2  5  1  0  0  0  0
  5  6  2  0  0  0  0
  5  7  1  0  0  0  0
  7  8  1  0  0  0  0
  7  9  1  0  0  0  0
  9 10  1  0  0  0  0
  9 11  1  0  0  0  0
  9 22  1  0  0  0  0
 11 12  1  0  0  0  0
 11 13  1  0  0  0  0
 11 14  1  0  0  0  0
 14 15  1  0  0  0  0
 14 16  1  0  0  0  0
 14 17  1  0  0  0  0
 17 18  2  0  0  0  0
 17 19  1  0  0  0  0
 19 20  1  0  0  0  0
 19 21  1  0  0  0  0
 22 23  2  0  0  0  0
 22 24  1  0  0  0  0
 24 25  1  0  0  0  0
 24 26  1  0  0  0  0
 26 27  1  0  0  0  0
 26 28  1  0  0  0  0
 26 29  1  0  0  0  0
M  END
$$$$

  -OEChem-04042215583D

 29 28  0     1  0  0  0  0  0999 V2000
   -3.4445   -3.7629    1.3920 H   0  0  0  0  0  0  0  0  0  0  0  0
   -3.3513   -2.8705    0.7670 C   0  0  0  0  0  0  0  0  0  0  0  0
   -4.1488   -2.1713    1.0285 H   0  0  0  0  0  0  0  0  0  0  0  0
   -3.4579   -3.1619   -0.2811 H   0  0  0  0  0  0  0  0  0  0  0  0
   -1.9980   -2.2206    0.9820 C   0  0  0  0  0  0  0  0  0  0  0  0
   -1.1809   -2.7397    1.7267 O   0  0  0  0  0  0  0  0  0  0  0  0
   -1.7005   -1.0367    0.3384 N   0  0  0  0  0  0  0  0  0  0  0  0
   -2.4330   -0.6137   -0.2271 H   0  0  0  0  0  0  0  0  0  0  0  0
   -0.3901   -0.3728    0.3752 C   0  0  1  0  0  0  0  0  0  0  0  0
    0.2012   -0.7624    1.2103 H   0  0  0  0  0  0  0  0  0  0  0  0
    0.4045   -0.6238   -0.9290 C   0  0  0  0  0  0  0  0  0  0  0  0
    1.2604    0.0588   -0.9508 H   0  0  0  0  0  0  0  0  0  0  0  0
    0.8086   -1.6420   -0.8943 H   0  0  0  0  0  0  0  0  0  0  0  0
   -0.3922   -0.4597   -2.2455 C   0  0  0  0  0  0  0  0  0  0  0  0
   -0.9444    0.4831   -2.2286 H   0  0  0  0  0  0  0  0  0  0  0  0
    0.3170   -0.4022   -3.0758 H   0  0  0  0  0  0  0  0  0  0  0  0
   -1.3522   -1.6050   -2.5523 C   0  0  0  0  0  0  0  0  0  0  0  0
   -1.0064   -2.7703   -2.5573 O   0  0  0  0  0  0  0  0  0  0  0  0
   -2.6783   -1.3784   -2.7928 N   0  0  0  0  0  0  0  0  0  0  0  0
   -3.1874   -2.1678   -3.1804 H   0  0  0  0  0  0  0  0  0  0  0  0
   -2.9654   -0.4323   -3.0238 H   0  0  0  0  0  0  0  0  0  0  0  0
   -0.5631    1.1404    0.6213 C   0  0  0  0  0  0  0  0  0  0  0  0
   -1.4217    1.7684    0.0104 O   0  0  0  0  0  0  0  0  0  0  0  0
    0.2383    1.7972    1.5371 N   0  0  0  0  0  0  0  0  0  0  0  0
    0.8715    1.2302    2.0945 H   0  0  0  0  0  0  0  0  0  0  0  0
    0.0776    3.2069    1.8734 C   0  0  0  0  0  0  0  0  0  0  0  0
   -0.8843    3.3747    2.3690 H   0  0  0  0  0  0  0  0  0  0  0  0
    0.8769    3.5285    2.5479 H   0  0  0  0  0  0  0  0  0  0  0  0
    0.1217    3.8255    0.9707 H   0  0  0  0  0  0  0  0  0  0  0  0
  1  2  1  0  0  0  0
  2  3  1  0  0  0  0
  2  4  1  0  0  0  0
  2  5  1  0  0  0  0
  5  6  2  0  0  0  0
  5  7  1  0  0  0  0
  7  8  1  0  0  0  0
  7  9  1  0  0  0  0
  9 10  1  0  0  0  0
  9 11  1  0  0  0  0
  9 22  1  0  0  0  0
 11 12  1  0  0  0  0
 11 13  1  0  0  0  0
 11 14  1  0  0  0  0
 14 15  1  0  0  0  0
 14 16  1  0  0  0  0
 14 17  1  0  0  0  0
 17 18  2  0  0  0  0
 17 19  1  0  0  0  0
 19 20  1  0  0  0  0
 19 21  1  0  0  0  0
 22 23  2  0  0  0  0
 22 24  1  0  0  0  0
 24 25  1  0  0  0  0
 24 26  1  0  0  0  0
 26 27  1  0  0  0  0
 26 28  1  0  0  0  0
 26 29  1  0  0  0  0
M  END
$$$$

  -OEChem-04042215583D

 29 28  0     1  0  0  0  0  0999 V2000
   -3.4147   -3.8142    1.4609 H   0  0  0  0  0  0  0  0  0  0  0  0
   -3.3535   -2.9009    0.8627 C   0  0  0  0  0  0  0  0  0  0  0  0
   -4.1535   -2.2228    1.1687 H   0  0  0  0  0  0  0  0  0  0  0  0
   -3.4859   -3.1612   -0.1906 H   0  0  0  0  0  0  0  0  0  0  0  0
   -2.0048   -2.2360    1.0610 C   0  0  0  0  0  0  0  0  0  0  0  0
   -1.1866   -2.7258    1.8245 O   0  0  0  0  0  0  0  0  0  0  0  0
   -1.7119   -1.0708    0.3828 N   0  0  0  0  0  0  0  0  0  0  0  0
   -2.4327   -0.6952   -0.2308 H   0  0  0  0  0  0  0  0  0  0  0  0
   -0.4004   -0.4102    0.3891 C   0  0  1  0  0  0  0  0  0  0  0  0
    0.2008   -0.7786    1.2268 H   0  0  0  0  0  0  0  0  0  0  0  0
    0.3958   -0.6529   -0.9190 C   0  0  0  0  0  0  0  0  0  0  0  0
    1.2642    0.0142   -0.9307 H   0  0  0  0  0  0  0  0  0  0  0  0
    0.7806   -1.6783   -0.8785 H   0  0  0  0  0  0  0  0  0  0  0  0
   -0.3617   -0.4991   -2.2619 C   0  0  0  0  0  0  0  0  0  0  0  0
   -0.6999    0.5358   -2.3600 H   0  0  0  0  0  0  0  0  0  0  0  0
    0.3418   -0.6849   -3.0782 H   0  0  0  0  0  0  0  0  0  0  0  0
   -1.5556   -1.4221   -2.4728 C   0  0  0  0  0  0  0  0  0  0  0  0
   -1.4431   -2.6292   -2.5596 O   0  0  0  0  0  0  0  0  0  0  0  0
   -2.8330   -0.9349   -2.5005 N   0  0  0  0  0  0  0  0  0  0  0  0
   -3.5372   -1.5774   -2.8520 H   0  0  0  0  0  0  0  0  0  0  0  0
   -2.9579    0.0668   -2.6206 H   0  0  0  0  0  0  0  0  0  0  0  0
   -0.5925    1.1058    0.5970 C   0  0  0  0  0  0  0  0  0  0  0  0
   -1.4411    1.7104   -0.0518 O   0  0  0  0  0  0  0  0  0  0  0  0
    0.2050    1.7980    1.4892 N   0  0  0  0  0  0  0  0  0  0  0  0
    0.8367    1.2534    2.0703 H   0  0  0  0  0  0  0  0  0  0  0  0
    0.0378    3.2182    1.7729 C   0  0  0  0  0  0  0  0  0  0  0  0
   -0.9415    3.4056    2.2255 H   0  0  0  0  0  0  0  0  0  0  0  0
    0.8119    3.5582    2.4675 H   0  0  0  0  0  0  0  0  0  0  0  0
    0.1191    3.8064    0.8527 H   0  0  0  0  0  0  0  0  0  0  0  0
  1  2  1  0  0  0  0
  2  3  1  0  0  0  0
  2  4  1  0  0  0  0
  2  5  1  0  0  0  0
  5  6  2  0  0  0  0
  5  7  1  0  0  0  0
  7  8  1  0  0  0  0
  7  9  1  0  0  0  0
  9 10  1  0  0  0  0
  9 11  1  0  0  0  0
  9 22  1  0  0  0  0
 11 12  1  0  0  0  0
 11 13  1  0  0  0  0
 11 14  1  0  0  0  0
 14 15  1  0  0  0  0
 14 16  1  0  0  0  0
 14 17  1  0  0  0  0
 17 18  2  0  0  0  0
 17 19  1  0  0  0  0
 19 20  1  0  0  0  0
 19 21  1  0  0  0  0
 22 23  2  0  0  0  0
 22 24  1  0  0  0  0
 24 25  1  0  0  0  0
 24 26  1  0  0  0  0
 26 27  1  0  0  0  0
 26 28  1  0  0  0  0
 26 29  1  0  0  0  0
M  END
$$$$

  -OEChem-04042215583D

 29 28  0     1  0  0  0  0  0999 V2000
   -3.3938   -3.8314    1.5841 H   0  0  0  0  0  0  0  0  0  0  0  0
   -3.3483   -2.9233    0.9766 C   0  0  0  0  0  0  0  0  0  0  0  0
   -4.1420   -2.2439    1.2960 H   0  0  0  0  0  0  0  0  0  0  0  0
   -3.5061   -3.1924   -0.0712 H   0  0  0  0  0  0  0  0  0  0  0  0
   -1.9970   -2.2538    1.1363 C   0  0  0  0  0  0  0  0  0  0  0  0
   -1.1625   -2.7268    1.8928 O   0  0  0  0  0  0  0  0  0  0  0  0
   -1.7168   -1.1064    0.4242 N   0  0  0  0  0  0  0  0  0  0  0  0
   -2.4468   -0.7528   -0.1933 H   0  0  0  0  0  0  0  0  0  0  0  0
   -0.4093   -0.4400    0.3953 C   0  0  1  0  0  0  0  0  0  0  0  0
    0.2090   -0.7843    1.2306 H   0  0  0  0  0  0  0  0  0  0  0  0
    0.3739   -0.6769   -0.9231 C   0  0  0  0  0  0  0  0  0  0  0  0
    1.2521   -0.0226   -0.9377 H   0  0  0  0  0  0  0  0  0  0  0  0
    0.7449   -1.7066   -0.8747 H   0  0  0  0  0  0  0  0  0  0  0  0
   -0.3639   -0.5400   -2.2822 C   0  0  0  0  0  0  0  0  0  0  0  0
   -0.4820    0.5261   -2.4950 H   0  0  0  0  0  0  0  0  0  0  0  0
    0.2786   -0.9514   -3.0660 H   0  0  0  0  0  0  0  0  0  0  0  0
   -1.7362   -1.1857   -2.4234 C   0  0  0  0  0  0  0  0  0  0  0  0
   -1.8817   -2.3671   -2.6698 O   0  0  0  0  0  0  0  0  0  0  0  0
   -2.8817   -0.4609   -2.2390 N   0  0  0  0  0  0  0  0  0  0  0  0
   -3.7391   -0.8808   -2.5862 H   0  0  0  0  0  0  0  0  0  0  0  0
   -2.8023    0.5513   -2.1543 H   0  0  0  0  0  0  0  0  0  0  0  0
   -0.6223    1.0780    0.5660 C   0  0  0  0  0  0  0  0  0  0  0  0
   -1.4664    1.6567   -0.1135 O   0  0  0  0  0  0  0  0  0  0  0  0
    0.1746    1.8051    1.4302 N   0  0  0  0  0  0  0  0  0  0  0  0
    0.8048    1.2832    2.0332 H   0  0  0  0  0  0  0  0  0  0  0  0
   -0.0021    3.2324    1.6680 C   0  0  0  0  0  0  0  0  0  0  0  0
   -0.9814    3.4272    2.1175 H   0  0  0  0  0  0  0  0  0  0  0  0
    0.7717    3.6002    2.3488 H   0  0  0  0  0  0  0  0  0  0  0  0
    0.0725    3.7908    0.7290 H   0  0  0  0  0  0  0  0  0  0  0  0
  1  2  1  0  0  0  0
  2  3  1  0  0  0  0
  2  4  1  0  0  0  0
  2  5  1  0  0  0  0
  5  6  2  0  0  0  0
  5  7  1  0  0  0  0
  7  8  1  0  0  0  0
  7  9  1  0  0  0  0
  9 10  1  0  0  0  0
  9 11  1  0  0  0  0
  9 22  1  0  0  0  0
 11 12  1  0  0  0  0
 11 13  1  0  0  0  0
 11 14  1  0  0  0  0
 14 15  1  0  0  0  0
 14 16  1  0  0  0  0
 14 17  1  0  0  0  0
 17 18  2  0  0  0  0
 17 19  1  0  0  0  0
 19 20  1  0  0  0  0
 19 21  1  0  0  0  0
 22 23  2  0  0  0  0
 22 24  1  0  0  0  0
 24 25  1  0  0  0  0
 24 26  1  0  0  0  0
 26 27  1  0  0  0  0
 26 28  1  0  0  0  0
 26 29  1  0  0  0  0
M  END
$$$$

  -OEChem-04042215583D

 29 28  0     1  0  0  0  0  0999 V2000
   -3.3445   -3.8698    1.6097 H   0  0  0  0  0  0  0  0  0  0  0  0
   -3.3277   -2.9536    1.0134 C   0  0  0  0  0  0  0  0  0  0  0  0
   -4.1251   -2.2917    1.3587 H   0  0  0  0  0  0  0  0  0  0  0  0
   -3.5051   -3.2121   -0.0340 H   0  0  0  0  0  0  0  0  0  0  0  0
   -1.9845   -2.2634    1.1507 C   0  0  0  0  0  0  0  0  0  0  0  0
   -1.1272   -2.7254    1.8880 O   0  0  0  0  0  0  0  0  0  0  0  0
   -1.7357   -1.1114    0.4343 N   0  0  0  0  0  0  0  0  0  0  0  0
   -2.4807   -0.7799   -0.1750 H   0  0  0  0  0  0  0  0  0  0  0  0
   -0.4347   -0.4319    0.3707 C   0  0  1  0  0  0  0  0  0  0  0  0
    0.2058   -0.7735    1.1907 H   0  0  0  0  0  0  0  0  0  0  0  0
    0.3196   -0.6714   -0.9644 C   0  0  0  0  0  0  0  0  0  0  0  0
    1.2007   -0.0218   -0.9979 H   0  0  0  0  0  0  0  0  0  0  0  0
    0.6903   -1.7009   -0.9080 H   0  0  0  0  0  0  0  0  0  0  0  0
   -0.4259   -0.5586   -2.3252 C   0  0  0  0  0  0  0  0  0  0  0  0
   -0.3294    0.4757   -2.6673 H   0  0  0  0  0  0  0  0  0  0  0  0
    0.0917   -1.1845   -3.0578 H   0  0  0  0  0  0  0  0  0  0  0  0
   -1.9103   -0.8975   -2.3867 C   0  0  0  0  0  0  0  0  0  0  0  0
   -2.3189   -2.0335   -2.5343 O   0  0  0  0  0  0  0  0  0  0  0  0
   -2.8629    0.0601   -2.1811 N   0  0  0  0  0  0  0  0  0  0  0  0
   -3.8246   -0.2558   -2.1069 H   0  0  0  0  0  0  0  0  0  0  0  0
   -2.5729    0.9392   -1.7454 H   0  0  0  0  0  0  0  0  0  0  0  0
   -0.6396    1.0866    0.5500 C   0  0  0  0  0  0  0  0  0  0  0  0
   -1.4964    1.6695   -0.1101 O   0  0  0  0  0  0  0  0  0  0  0  0
    0.1831    1.8115    1.3915 N   0  0  0  0  0  0  0  0  0  0  0  0
    0.8329    1.2893    1.9733 H   0  0  0  0  0  0  0  0  0  0  0  0
    0.0290    3.2429    1.6222 C   0  0  0  0  0  0  0  0  0  0  0  0
   -0.9328    3.4522    2.1019 H   0  0  0  0  0  0  0  0  0  0  0  0
    0.8286    3.6088    2.2735 H   0  0  0  0  0  0  0  0  0  0  0  0
    0.0782    3.7929    0.6764 H   0  0  0  0  0  0  0  0  0  0  0  0
  1  2  1  0  0  0  0
  2  3  1  0  0  0  0
  2  4  1  0  0  0  0
  2  5  1  0  0  0  0
  5  6  2  0  0  0  0
  5  7  1  0  0  0  0
  7  8  1  0  0  0  0
  7  9  1  0  0  0  0
  9 10  1  0  0  0  0
  9 11  1  0  0  0  0
  9 22  1  0  0  0  0
 11 12  1  0  0  0  0
 11 13  1  0  0  0  0
 11 14  1  0  0  0  0
 14 15  1  0  0  0  0
 14 16  1  0  0  0  0
 14 17  1  0  0  0  0
 17 18  2  0  0  0  0
 17 19  1  0  0  0  0
 19 20  1  0  0  0  0
 19 21  1  0  0  0  0
 22 23  2  0  0  0  0
 22 24  1  0  0  0  0
 24 25  1  0  0  0  0
 24 26  1  0  0  0  0
 26 27  1  0  0  0  0
 26 28  1  0  0  0  0
 26 29  1  0  0  0  0
M  END
$$$$

  -OEChem-04042215583D

 29 28  0     1  0  0  0  0  0999 V2000
   -3.1859   -4.0151    1.4878 H   0  0  0  0  0  0  0  0  0  0  0  0
   -3.2370   -3.0623    0.9542 C   0  0  0  0  0  0  0  0  0  0  0  0
   -4.0539   -2.4675    1.3692 H   0  0  0  0  0  0  0  0  0  0  0  0
   -3.4401   -3.2604   -0.1017 H   0  0  0  0  0  0  0  0  0  0  0  0
   -1.9264   -2.3122    1.0948 C   0  0  0  0  0  0  0  0  0  0  0  0
   -1.0283   -2.7691    1.7859 O   0  0  0  0  0  0  0  0  0  0  0  0
   -1.7531   -1.1145    0.4326 N   0  0  0  0  0  0  0  0  0  0  0  0
   -2.5137   -0.8274   -0.1812 H   0  0  0  0  0  0  0  0  0  0  0  0
   -0.4798   -0.3833    0.3539 C   0  0  1  0  0  0  0  0  0  0  0  0
    0.1917   -0.7467    1.1387 H   0  0  0  0  0  0  0  0  0  0  0  0
    0.2413   -0.5904   -1.0037 C   0  0  0  0  0  0  0  0  0  0  0  0
    1.0970    0.0914   -1.0544 H   0  0  0  0  0  0  0  0  0  0  0  0
    0.6544   -1.6042   -0.9592 H   0  0  0  0  0  0  0  0  0  0  0  0
   -0.5327   -0.5040   -2.3538 C   0  0  0  0  0  0  0  0  0  0  0  0
   -0.2592    0.4421   -2.8291 H   0  0  0  0  0  0  0  0  0  0  0  0
   -0.1734   -1.3020   -3.0102 H   0  0  0  0  0  0  0  0  0  0  0  0
   -2.0580   -0.5576   -2.3515 C   0  0  0  0  0  0  0  0  0  0  0  0
   -2.6691   -1.6094   -2.3914 O   0  0  0  0  0  0  0  0  0  0  0  0
   -2.8284    0.5591   -2.2141 N   0  0  0  0  0  0  0  0  0  0  0  0
   -3.8159    0.3866   -2.0565 H   0  0  0  0  0  0  0  0  0  0  0  0
   -2.3913    1.3562   -1.7454 H   0  0  0  0  0  0  0  0  0  0  0  0
   -0.6660    1.1262    0.6176 C   0  0  0  0  0  0  0  0  0  0  0  0
   -1.5204    1.7647    0.0121 O   0  0  0  0  0  0  0  0  0  0  0  0
    0.2046    1.7975    1.4560 N   0  0  0  0  0  0  0  0  0  0  0  0
    0.8624    1.2369    1.9914 H   0  0  0  0  0  0  0  0  0  0  0  0
    0.0831    3.2178    1.7628 C   0  0  0  0  0  0  0  0  0  0  0  0
   -0.8721    3.4221    2.2579 H   0  0  0  0  0  0  0  0  0  0  0  0
    0.8926    3.5315    2.4289 H   0  0  0  0  0  0  0  0  0  0  0  0
    0.1406    3.8149    0.8467 H   0  0  0  0  0  0  0  0  0  0  0  0
  1  2  1  0  0  0  0
  2  3  1  0  0  0  0
  2  4  1  0  0  0  0
  2  5  1  0  0  0  0
  5  6  2  0  0  0  0
  5  7  1  0  0  0  0
  7  8  1  0  0  0  0
  7  9  1  0  0  0  0
  9 10  1  0  0  0  0
  9 11  1  0  0  0  0
  9 22  1  0  0  0  0
 11 12  1  0  0  0  0
 11 13  1  0  0  0  0
 11 14  1  0  0  0  0
 14 15  1  0  0  0  0
 14 16  1  0  0  0  0
 14 17  1  0  0  0  0
 17 18  2  0  0  0  0
 17 19  1  0  0  0  0
 19 20  1  0  0  0  0
 19 21  1  0  0  0  0
 22 23  2  0  0  0  0
 22 24  1  0  0  0  0
 24 25  1  0  0  0  0
 24 26  1  0  0  0  0
 26 27  1  0  0  0  0
 26 28  1  0  0  0  0
 26 29  1  0  0  0  0
M  END
$$$$

  -OEChem-04042215583D

 29 28  0     1  0  0  0  0  0999 V2000
   -3.3798   -3.7771    1.2231 H   0  0  0  0  0  0  0  0  0  0  0  0
   -3.3883   -2.7413    0.8723 C   0  0  0  0  0  0  0  0  0  0  0  0
   -3.9319   -2.1288    1.5957 H   0  0  0  0  0  0  0  0  0  0  0  0
   -3.9036   -2.6982   -0.0900 H   0  0  0  0  0  0  0  0  0  0  0  0
   -1.9691   -2.2270    0.7238 C   0  0  0  0  0  0  0  0  0  0  0  0
   -1.0222   -2.9588    0.9658 O   0  0  0  0  0  0  0  0  0  0  0  0
   -1.7517   -0.9384    0.2868 N   0  0  0  0  0  0  0  0  0  0  0  0
   -2.5724   -0.3437    0.1608 H   0  0  0  0  0  0  0  0  0  0  0  0
   -0.4479   -0.2652    0.2689 C   0  0  1  0  0  0  0  0  0  0  0  0
    0.2116   -0.7858    0.9713 H   0  0  0  0  0  0  0  0  0  0  0  0
    0.2547   -0.3111   -1.1090 C   0  0  0  0  0  0  0  0  0  0  0  0
    1.1188    0.3607   -1.0669 H   0  0  0  0  0  0  0  0  0  0  0  0
    0.6556   -1.3254   -1.2103 H   0  0  0  0  0  0  0  0  0  0  0  0
   -0.5171   -0.0097   -2.4258 C   0  0  0  0  0  0  0  0  0  0  0  0
   -0.0138    0.8270   -2.9202 H   0  0  0  0  0  0  0  0  0  0  0  0
   -0.4110   -0.8733   -3.0876 H   0  0  0  0  0  0  0  0  0  0  0  0
   -2.0024    0.3408   -2.3705 C   0  0  0  0  0  0  0  0  0  0  0  0
   -2.4014    1.4691   -2.5769 O   0  0  0  0  0  0  0  0  0  0  0  0
   -2.9745   -0.6205   -2.3951 N   0  0  0  0  0  0  0  0  0  0  0  0
   -3.8840   -0.2971   -2.7126 H   0  0  0  0  0  0  0  0  0  0  0  0
   -2.6887   -1.5778   -2.5690 H   0  0  0  0  0  0  0  0  0  0  0  0
   -0.5630    1.1718    0.8190 C   0  0  0  0  0  0  0  0  0  0  0  0
   -1.5723    1.8296    0.6086 O   0  0  0  0  0  0  0  0  0  0  0  0
    0.3729    1.6498    1.7183 N   0  0  0  0  0  0  0  0  0  0  0  0
    1.1465    1.0394    1.9647 H   0  0  0  0  0  0  0  0  0  0  0  0
    0.2457    2.9352    2.3952 C   0  0  0  0  0  0  0  0  0  0  0  0
   -0.6369    2.9408    3.0435 H   0  0  0  0  0  0  0  0  0  0  0  0
    1.1295    3.1279    3.0108 H   0  0  0  0  0  0  0  0  0  0  0  0
    0.1513    3.7461    1.6649 H   0  0  0  0  0  0  0  0  0  0  0  0
  1  2  1  0  0  0  0
  2  3  1  0  0  0  0
  2  4  1  0  0  0  0
  2  5  1  0  0  0  0
  5  6  2  0  0  0  0
  5  7  1  0  0  0  0
  7  8  1  0  0  0  0
  7  9  1  0  0  0  0
  9 10  1  0  0  0  0
  9 11  1  0  0  0  0
  9 22  1  0  0  0  0
 11 12  1  0  0  0  0
 11 13  1  0  0  0  0
 11 14  1  0  0  0  0
 14 15  1  0  0  0  0
 14 16  1  0  0  0  0
 14 17  1  0  0  0  0
 17 18  2  0  0  0  0
 17 19  1  0  0  0  0
 19 20  1  0  0  0  0
 19 21  1  0  0  0  0
 22 23  2  0  0  0  0
 22 24  1  0  0  0  0
 24 25  1  0  0  0  0
 24 26  1  0  0  0  0
 26 27  1  0  0  0  0
 26 28  1  0  0  0  0
 26 29  1  0  0  0  0
M  END
$$$$

  -OEChem-04042215583D

 29 28  0     1  0  0  0  0  0999 V2000
   -3.1457   -3.9820    1.5821 H   0  0  0  0  0  0  0  0  0  0  0  0
   -3.2308   -3.0145    1.0801 C   0  0  0  0  0  0  0  0  0  0  0  0
   -4.0205   -2.4332    1.5621 H   0  0  0  0  0  0  0  0  0  0  0  0
   -3.5004   -3.1817    0.0341 H   0  0  0  0  0  0  0  0  0  0  0  0
   -1.9154   -2.2640    1.1599 C   0  0  0  0  0  0  0  0  0  0  0  0
   -0.9801   -2.7282    1.7948 O   0  0  0  0  0  0  0  0  0  0  0  0
   -1.7766   -1.0661    0.4925 N   0  0  0  0  0  0  0  0  0  0  0  0
   -2.5600   -0.7915   -0.1070 H   0  0  0  0  0  0  0  0  0  0  0  0
   -0.5209   -0.3138    0.3615 C   0  0  1  0  0  0  0  0  0  0  0  0
    0.1691   -0.6629    1.1364 H   0  0  0  0  0  0  0  0  0  0  0  0
    0.1526   -0.6197   -0.9986 C   0  0  0  0  0  0  0  0  0  0  0  0
    0.9594    0.1081   -1.1370 H   0  0  0  0  0  0  0  0  0  0  0  0
    0.6301   -1.6016   -0.9098 H   0  0  0  0  0  0  0  0  0  0  0  0
   -0.6978   -0.6411   -2.3035 C   0  0  0  0  0  0  0  0  0  0  0  0
   -0.1254   -0.1579   -3.1001 H   0  0  0  0  0  0  0  0  0  0  0  0
   -0.8234   -1.6874   -2.5984 H   0  0  0  0  0  0  0  0  0  0  0  0
   -2.0981   -0.0284   -2.2888 C   0  0  0  0  0  0  0  0  0  0  0  0
   -3.0818   -0.6940   -2.0111 O   0  0  0  0  0  0  0  0  0  0  0  0
   -2.3351    1.2633   -2.6555 N   0  0  0  0  0  0  0  0  0  0  0  0
   -3.2668    1.5846   -2.4100 H   0  0  0  0  0  0  0  0  0  0  0  0
   -1.5666    1.9092   -2.5049 H   0  0  0  0  0  0  0  0  0  0  0  0
   -0.6609    1.2032    0.6191 C   0  0  0  0  0  0  0  0  0  0  0  0
   -1.5354    1.8666    0.0786 O   0  0  0  0  0  0  0  0  0  0  0  0
    0.2689    1.8518    1.4117 N   0  0  0  0  0  0  0  0  0  0  0  0
    0.9288    1.2706    1.9217 H   0  0  0  0  0  0  0  0  0  0  0  0
    0.1821    3.2681    1.7485 C   0  0  0  0  0  0  0  0  0  0  0  0
   -0.7374    3.4727    2.3071 H   0  0  0  0  0  0  0  0  0  0  0  0
    1.0362    3.5627    2.3660 H   0  0  0  0  0  0  0  0  0  0  0  0
    0.1870    3.8808    0.8409 H   0  0  0  0  0  0  0  0  0  0  0  0
  1  2  1  0  0  0  0
  2  3  1  0  0  0  0
  2  4  1  0  0  0  0
  2  5  1  0  0  0  0
  5  6  2  0  0  0  0
  5  7  1  0  0  0  0
  7  8  1  0  0  0  0
  7  9  1  0  0  0  0
  9 10  1  0  0  0  0
  9 11  1  0  0  0  0
  9 22  1  0  0  0  0
 11 12  1  0  0  0  0
 11 13  1  0  0  0  0
 11 14  1  0  0  0  0
 14 15  1  0  0  0  0
 14 16  1  0  0  0  0
 14 17  1  0  0  0  0
 17 18  2  0  0  0  0
 17 19  1  0  0  0  0
 19 20  1  0  0  0  0
 19 21  1  0  0  0  0
 22 23  2  0  0  0  0
 22 24  1  0  0  0  0
 24 25  1  0  0  0  0
 24 26  1  0  0  0  0
 26 27  1  0  0  0  0
 26 28  1  0  0  0  0
 26 29  1  0  0  0  0
M  END
$$$$

  -OEChem-04042215583D

 29 28  0     1  0  0  0  0  0999 V2000
   -3.1513   -3.9482    1.6022 H   0  0  0  0  0  0  0  0  0  0  0  0
   -3.2348   -2.9857    1.0904 C   0  0  0  0  0  0  0  0  0  0  0  0
   -3.9887   -2.3791    1.5980 H   0  0  0  0  0  0  0  0  0  0  0  0
   -3.5532   -3.1597    0.0594 H   0  0  0  0  0  0  0  0  0  0  0  0
   -1.8999   -2.2663    1.1038 C   0  0  0  0  0  0  0  0  0  0  0  0
   -0.9367   -2.7669    1.6650 O   0  0  0  0  0  0  0  0  0  0  0  0
   -1.7759   -1.0538    0.4609 N   0  0  0  0  0  0  0  0  0  0  0  0
   -2.5900   -0.7241   -0.0672 H   0  0  0  0  0  0  0  0  0  0  0  0
   -0.5308   -0.2874    0.3185 C   0  0  1  0  0  0  0  0  0  0  0  0
    0.1653   -0.6413    1.0856 H   0  0  0  0  0  0  0  0  0  0  0  0
    0.1317   -0.6102   -1.0415 C   0  0  0  0  0  0  0  0  0  0  0  0
    0.9199    0.1308   -1.2114 H   0  0  0  0  0  0  0  0  0  0  0  0
    0.6249   -1.5843   -0.9537 H   0  0  0  0  0  0  0  0  0  0  0  0
   -0.7703   -0.6548   -2.3047 C   0  0  0  0  0  0  0  0  0  0  0  0
   -0.1609   -0.4297   -3.1841 H   0  0  0  0  0  0  0  0  0  0  0  0
   -1.1278   -1.6826   -2.4214 H   0  0  0  0  0  0  0  0  0  0  0  0
   -2.0043    0.2422   -2.3276 C   0  0  0  0  0  0  0  0  0  0  0  0
   -3.0931   -0.1868   -1.9834 O   0  0  0  0  0  0  0  0  0  0  0  0
   -1.9674    1.5263   -2.7873 N   0  0  0  0  0  0  0  0  0  0  0  0
   -2.7757    2.0750   -2.5064 H   0  0  0  0  0  0  0  0  0  0  0  0
   -1.0622    1.9818   -2.7862 H   0  0  0  0  0  0  0  0  0  0  0  0
   -0.6623    1.2258    0.6071 C   0  0  0  0  0  0  0  0  0  0  0  0
   -1.5820    1.8937    0.1561 O   0  0  0  0  0  0  0  0  0  0  0  0
    0.2899    1.8547    1.3893 N   0  0  0  0  0  0  0  0  0  0  0  0
    0.9819    1.2640    1.8422 H   0  0  0  0  0  0  0  0  0  0  0  0
    0.1951    3.2528    1.7931 C   0  0  0  0  0  0  0  0  0  0  0  0
   -0.7079    3.4190    2.3902 H   0  0  0  0  0  0  0  0  0  0  0  0
    1.0648    3.5320    2.3958 H   0  0  0  0  0  0  0  0  0  0  0  0
    0.1616    3.9054    0.9144 H   0  0  0  0  0  0  0  0  0  0  0  0
  1  2  1  0  0  0  0
  2  3  1  0  0  0  0
  2  4  1  0  0  0  0
  2  5  1  0  0  0  0
  5  6  2  0  0  0  0
  5  7  1  0  0  0  0
  7  8  1  0  0  0  0
  7  9  1  0  0  0  0
  9 10  1  0  0  0  0
  9 11  1  0  0  0  0
  9 22  1  0  0  0  0
 11 12  1  0  0  0  0
 11 13  1  0  0  0  0
 11 14  1  0  0  0  0
 14 15  1  0  0  0  0
 14 16  1  0  0  0  0
 14 17  1  0  0  0  0
 17 18  2  0  0  0  0
 17 19  1  0  0  0  0
 19 20  1  0  0  0  0
 19 21  1  0  0  0  0
 22 23  2  0  0  0  0
 22 24  1  0  0  0  0
 24 25  1  0  0  0  0
 24 26  1  0  0  0  0
 26 27  1  0  0  0  0
 26 28  1  0  0  0  0
 26 29  1  0  0  0  0
M  END
$$$$

  -OEChem-04042215583D

 29 28  0     1  0  0  0  0  0999 V2000
   -3.4205   -3.6009    1.4643 H   0  0  0  0  0  0  0  0  0  0  0  0
   -3.4089   -2.6396    0.9428 C   0  0  0  0  0  0  0  0  0  0  0  0
   -3.9537   -1.9081    1.5444 H   0  0  0  0  0  0  0  0  0  0  0  0
   -3.9103   -2.7554   -0.0209 H   0  0  0  0  0  0  0  0  0  0  0  0
   -1.9797   -2.1770    0.7314 C   0  0  0  0  0  0  0  0  0  0  0  0
   -1.0497   -2.8946    1.0632 O   0  0  0  0  0  0  0  0  0  0  0  0
   -1.7355   -0.9452    0.1595 N   0  0  0  0  0  0  0  0  0  0  0  0
   -2.5383   -0.3206    0.0846 H   0  0  0  0  0  0  0  0  0  0  0  0
   -0.4264   -0.2753    0.2114 C   0  0  1  0  0  0  0  0  0  0  0  0
    0.1375   -0.6928    1.0527 H   0  0  0  0  0  0  0  0  0  0  0  0
    0.4227   -0.5552   -1.0505 C   0  0  0  0  0  0  0  0  0  0  0  0
    1.2697    0.1393   -1.0450 H   0  0  0  0  0  0  0  0  0  0  0  0
    0.8349   -1.5660   -0.9609 H   0  0  0  0  0  0  0  0  0  0  0  0
   -0.2646   -0.4537   -2.4295 C   0  0  0  0  0  0  0  0  0  0  0  0
    0.4977   -0.4571   -3.2138 H   0  0  0  0  0  0  0  0  0  0  0  0
   -0.8851   -1.3417   -2.5771 H   0  0  0  0  0  0  0  0  0  0  0  0
   -1.1453    0.7734   -2.6153 C   0  0  0  0  0  0  0  0  0  0  0  0
   -0.6469    1.8619   -2.8295 O   0  0  0  0  0  0  0  0  0  0  0  0
   -2.5086    0.7163   -2.5729 N   0  0  0  0  0  0  0  0  0  0  0  0
   -2.9557    1.6171   -2.4229 H   0  0  0  0  0  0  0  0  0  0  0  0
   -2.9280   -0.1173   -2.1809 H   0  0  0  0  0  0  0  0  0  0  0  0
   -0.6058    1.2172    0.5722 C   0  0  0  0  0  0  0  0  0  0  0  0
   -1.6589    1.7788    0.2871 O   0  0  0  0  0  0  0  0  0  0  0  0
    0.2201    1.8071    1.5114 N   0  0  0  0  0  0  0  0  0  0  0  0
    1.0454    1.2930    1.8052 H   0  0  0  0  0  0  0  0  0  0  0  0
    0.0037    3.1502    2.0363 C   0  0  0  0  0  0  0  0  0  0  0  0
   -0.9513    3.2041    2.5696 H   0  0  0  0  0  0  0  0  0  0  0  0
    0.8041    3.4176    2.7330 H   0  0  0  0  0  0  0  0  0  0  0  0
   -0.0052    3.8826    1.2220 H   0  0  0  0  0  0  0  0  0  0  0  0
  1  2  1  0  0  0  0
  2  3  1  0  0  0  0
  2  4  1  0  0  0  0
  2  5  1  0  0  0  0
  5  6  2  0  0  0  0
  5  7  1  0  0  0  0
  7  8  1  0  0  0  0
  7  9  1  0  0  0  0
  9 10  1  0  0  0  0
  9 11  1  0  0  0  0
  9 22  1  0  0  0  0
 11 12  1  0  0  0  0
 11 13  1  0  0  0  0
 11 14  1  0  0  0  0
 14 15  1  0  0  0  0
 14 16  1  0  0  0  0
 14 17  1  0  0  0  0
 17 18  2  0  0  0  0
 17 19  1  0  0  0  0
 19 20  1  0  0  0  0
 19 21  1  0  0  0  0
 22 23  2  0  0  0  0
 22 24  1  0  0  0  0
 24 25  1  0  0  0  0
 24 26  1  0  0  0  0
 26 27  1  0  0  0  0
 26 28  1  0  0  0  0
 26 29  1  0  0  0  0
M  END
$$$$

  -OEChem-04042215583D

 29 28  0     1  0  0  0  0  0999 V2000
   -3.4233   -3.6827    1.3557 H   0  0  0  0  0  0  0  0  0  0  0  0
   -3.4002   -2.7099    0.8564 C   0  0  0  0  0  0  0  0  0  0  0  0
   -3.9769   -1.9965    1.4502 H   0  0  0  0  0  0  0  0  0  0  0  0
   -3.8602   -2.8089   -0.1296 H   0  0  0  0  0  0  0  0  0  0  0  0
   -1.9684   -2.2286    0.7150 C   0  0  0  0  0  0  0  0  0  0  0  0
   -1.0465   -2.9266    1.1060 O   0  0  0  0  0  0  0  0  0  0  0  0
   -1.7140   -0.9996    0.1421 N   0  0  0  0  0  0  0  0  0  0  0  0
   -2.5218   -0.3940    0.0015 H   0  0  0  0  0  0  0  0  0  0  0  0
   -0.4147   -0.3143    0.2285 C   0  0  1  0  0  0  0  0  0  0  0  0
    0.1380   -0.7220    1.0817 H   0  0  0  0  0  0  0  0  0  0  0  0
    0.4575   -0.5759   -1.0208 C   0  0  0  0  0  0  0  0  0  0  0  0
    1.3118    0.1097   -1.0015 H   0  0  0  0  0  0  0  0  0  0  0  0
    0.8576   -1.5921   -0.9370 H   0  0  0  0  0  0  0  0  0  0  0  0
   -0.2337   -0.4633   -2.3958 C   0  0  0  0  0  0  0  0  0  0  0  0
    0.4938   -0.6851   -3.1817 H   0  0  0  0  0  0  0  0  0  0  0  0
   -1.0281   -1.2104   -2.4696 H   0  0  0  0  0  0  0  0  0  0  0  0
   -0.8169    0.9168   -2.6671 C   0  0  0  0  0  0  0  0  0  0  0  0
   -0.0908    1.8881   -2.7664 O   0  0  0  0  0  0  0  0  0  0  0  0
   -2.1580    1.1392   -2.7883 N   0  0  0  0  0  0  0  0  0  0  0  0
   -2.4218    2.1132   -2.6656 H   0  0  0  0  0  0  0  0  0  0  0  0
   -2.7782    0.4203   -2.4372 H   0  0  0  0  0  0  0  0  0  0  0  0
   -0.6281    1.1780    0.5701 C   0  0  0  0  0  0  0  0  0  0  0  0
   -1.6657    1.7307    0.2166 O   0  0  0  0  0  0  0  0  0  0  0  0
    0.1554    1.7924    1.5293 N   0  0  0  0  0  0  0  0  0  0  0  0
    0.9757    1.2929    1.8600 H   0  0  0  0  0  0  0  0  0  0  0  0
   -0.0810    3.1499    2.0058 C   0  0  0  0  0  0  0  0  0  0  0  0
   -1.0518    3.2169    2.5077 H   0  0  0  0  0  0  0  0  0  0  0  0
    0.6968    3.4409    2.7182 H   0  0  0  0  0  0  0  0  0  0  0  0
   -0.0663    3.8579    1.1702 H   0  0  0  0  0  0  0  0  0  0  0  0
  1  2  1  0  0  0  0
  2  3  1  0  0  0  0
  2  4  1  0  0  0  0
  2  5  1  0  0  0  0
  5  6  2  0  0  0  0
  5  7  1  0  0  0  0
  7  8  1  0  0  0  0
  7  9  1  0  0  0  0
  9 10  1  0  0  0  0
  9 11  1  0  0  0  0
  9 22  1  0  0  0  0
 11 12  1  0  0  0  0
 11 13  1  0  0  0  0
 11 14  1  0  0  0  0
 14 15  1  0  0  0  0
 14 16  1  0  0  0  0
 14 17  1  0  0  0  0
 17 18  2  0  0  0  0
 17 19  1  0  0  0  0
 19 20  1  0  0  0  0
 19 21  1  0  0  0  0
 22 23  2  0  0  0  0
 22 24  1  0  0  0  0
 24 25  1  0  0  0  0
 24 26  1  0  0  0  0
 26 27  1  0  0  0  0
 26 28  1  0  0  0  0
 26 29  1  0  0  0  0
M  END
$$$$

  -OEChem-04042215583D

 29 28  0     1  0  0  0  0  0999 V2000
   -3.4057   -3.7529    1.3751 H   0  0  0  0  0  0  0  0  0  0  0  0
   -3.3851   -2.7826    0.8711 C   0  0  0  0  0  0  0  0  0  0  0  0
   -4.0046   -2.0804    1.4342 H   0  0  0  0  0  0  0  0  0  0  0  0
   -3.7989   -2.8991   -0.1334 H   0  0  0  0  0  0  0  0  0  0  0  0
   -1.9609   -2.2671    0.7878 C   0  0  0  0  0  0  0  0  0  0  0  0
   -1.0450   -2.9235    1.2571 O   0  0  0  0  0  0  0  0  0  0  0  0
   -1.7054   -1.0581    0.1742 N   0  0  0  0  0  0  0  0  0  0  0  0
   -2.5157   -0.4813   -0.0466 H   0  0  0  0  0  0  0  0  0  0  0  0
   -0.4122   -0.3596    0.2479 C   0  0  1  0  0  0  0  0  0  0  0  0
    0.1493   -0.7381    1.1089 H   0  0  0  0  0  0  0  0  0  0  0  0
    0.4547   -0.6164   -1.0053 C   0  0  0  0  0  0  0  0  0  0  0  0
    1.3198    0.0564   -0.9945 H   0  0  0  0  0  0  0  0  0  0  0  0
    0.8432   -1.6371   -0.9203 H   0  0  0  0  0  0  0  0  0  0  0  0
   -0.2563   -0.5122   -2.3721 C   0  0  0  0  0  0  0  0  0  0  0  0
    0.3859   -0.9559   -3.1380 H   0  0  0  0  0  0  0  0  0  0  0  0
   -1.1895   -1.0801   -2.3684 H   0  0  0  0  0  0  0  0  0  0  0  0
   -0.5295    0.9305   -2.7828 C   0  0  0  0  0  0  0  0  0  0  0  0
    0.3855    1.7025   -3.0010 O   0  0  0  0  0  0  0  0  0  0  0  0
   -1.7891    1.4392   -2.9062 N   0  0  0  0  0  0  0  0  0  0  0  0
   -1.8099    2.4542   -2.9402 H   0  0  0  0  0  0  0  0  0  0  0  0
   -2.5143    0.9697   -2.3761 H   0  0  0  0  0  0  0  0  0  0  0  0
   -0.6477    1.1391    0.5319 C   0  0  0  0  0  0  0  0  0  0  0  0
   -1.6531    1.6834    0.0848 O   0  0  0  0  0  0  0  0  0  0  0  0
    0.1126    1.8046    1.4749 N   0  0  0  0  0  0  0  0  0  0  0  0
    0.9140    1.3171    1.8657 H   0  0  0  0  0  0  0  0  0  0  0  0
   -0.1157    3.1956    1.8471 C   0  0  0  0  0  0  0  0  0  0  0  0
   -1.1127    3.3174    2.2833 H   0  0  0  0  0  0  0  0  0  0  0  0
    0.6257    3.5162    2.5852 H   0  0  0  0  0  0  0  0  0  0  0  0
   -0.0328    3.8450    0.9691 H   0  0  0  0  0  0  0  0  0  0  0  0
  1  2  1  0  0  0  0
  2  3  1  0  0  0  0
  2  4  1  0  0  0  0
  2  5  1  0  0  0  0
  5  6  2  0  0  0  0
  5  7  1  0  0  0  0
  7  8  1  0  0  0  0
  7  9  1  0  0  0  0
  9 10  1  0  0  0  0
  9 11  1  0  0  0  0
  9 22  1  0  0  0  0
 11 12  1  0  0  0  0
 11 13  1  0  0  0  0
 11 14  1  0  0  0  0
 14 15  1  0  0  0  0
 14 16  1  0  0  0  0
 14 17  1  0  0  0  0
 17 18  2  0  0  0  0
 17 19  1  0  0  0  0
 19 20  1  0  0  0  0
 19 21  1  0  0  0  0
 22 23  2  0  0  0  0
 22 24  1  0  0  0  0
 24 25  1  0  0  0  0
 24 26  1  0  0  0  0
 26 27  1  0  0  0  0
 26 28  1  0  0  0  0
 26 29  1  0  0  0  0
M  END
$$$$

  -OEChem-04042215583D

 29 28  0     1  0  0  0  0  0999 V2000
   -3.3577   -3.8132    1.4294 H   0  0  0  0  0  0  0  0  0  0  0  0
   -3.3562   -2.8521    0.9074 C   0  0  0  0  0  0  0  0  0  0  0  0
   -4.0181   -2.1627    1.4371 H   0  0  0  0  0  0  0  0  0  0  0  0
   -3.7335   -3.0024   -0.1070 H   0  0  0  0  0  0  0  0  0  0  0  0
   -1.9497   -2.2857    0.8590 C   0  0  0  0  0  0  0  0  0  0  0  0
   -1.0317   -2.8810    1.4001 O   0  0  0  0  0  0  0  0  0  0  0  0
   -1.7128   -1.0945    0.2043 N   0  0  0  0  0  0  0  0  0  0  0  0
   -2.5280   -0.5761   -0.1192 H   0  0  0  0  0  0  0  0  0  0  0  0
   -0.4327   -0.3695    0.2408 C   0  0  1  0  0  0  0  0  0  0  0  0
    0.1480   -0.7112    1.1044 H   0  0  0  0  0  0  0  0  0  0  0  0
    0.4174   -0.6520   -1.0197 C   0  0  0  0  0  0  0  0  0  0  0  0
    1.2805    0.0231   -1.0433 H   0  0  0  0  0  0  0  0  0  0  0  0
    0.8140   -1.6670   -0.9057 H   0  0  0  0  0  0  0  0  0  0  0  0
   -0.3130   -0.6051   -2.3821 C   0  0  0  0  0  0  0  0  0  0  0  0
    0.1997   -1.2824   -3.0716 H   0  0  0  0  0  0  0  0  0  0  0  0
   -1.3425   -0.9593   -2.3002 H   0  0  0  0  0  0  0  0  0  0  0  0
   -0.3013    0.7813   -3.0193 C   0  0  0  0  0  0  0  0  0  0  0  0
    0.6237    1.1371   -3.7242 O   0  0  0  0  0  0  0  0  0  0  0  0
   -1.2999    1.6937   -2.8506 N   0  0  0  0  0  0  0  0  0  0  0  0
   -1.0725    2.6207   -3.1953 H   0  0  0  0  0  0  0  0  0  0  0  0
   -1.8318    1.6244   -1.9819 H   0  0  0  0  0  0  0  0  0  0  0  0
   -0.6838    1.1335    0.4738 C   0  0  0  0  0  0  0  0  0  0  0  0
   -1.6622    1.6685   -0.0388 O   0  0  0  0  0  0  0  0  0  0  0  0
    0.0755    1.8435    1.3843 N   0  0  0  0  0  0  0  0  0  0  0  0
    0.8346    1.3543    1.8508 H   0  0  0  0  0  0  0  0  0  0  0  0
   -0.1804    3.2368    1.7293 C   0  0  0  0  0  0  0  0  0  0  0  0
   -1.1880    3.3513    2.1429 H   0  0  0  0  0  0  0  0  0  0  0  0
    0.5407    3.5796    2.4778 H   0  0  0  0  0  0  0  0  0  0  0  0
   -0.0876    3.8738    0.8433 H   0  0  0  0  0  0  0  0  0  0  0  0
  1  2  1  0  0  0  0
  2  3  1  0  0  0  0
  2  4  1  0  0  0  0
  2  5  1  0  0  0  0
  5  6  2  0  0  0  0
  5  7  1  0  0  0  0
  7  8  1  0  0  0  0
  7  9  1  0  0  0  0
  9 10  1  0  0  0  0
  9 11  1  0  0  0  0
  9 22  1  0  0  0  0
 11 12  1  0  0  0  0
 11 13  1  0  0  0  0
 11 14  1  0  0  0  0
 14 15  1  0  0  0  0
 14 16  1  0  0  0  0
 14 17  1  0  0  0  0
 17 18  2  0  0  0  0
 17 19  1  0  0  0  0
 19 20  1  0  0  0  0
 19 21  1  0  0  0  0
 22 23  2  0  0  0  0
 22 24  1  0  0  0  0
 24 25  1  0  0  0  0
 24 26  1  0  0  0  0
 26 27  1  0  0  0  0
 26 28  1  0  0  0  0
 26 29  1  0  0  0  0
M  END
$$$$

  -OEChem-04042215583D

 29 28  0     1  0  0  0  0  0999 V2000
   -3.3268   -3.8619    1.5233 H   0  0  0  0  0  0  0  0  0  0  0  0
   -3.3368   -2.9103    0.9841 C   0  0  0  0  0  0  0  0  0  0  0  0
   -4.0148   -2.2229    1.4957 H   0  0  0  0  0  0  0  0  0  0  0  0
   -3.7027   -3.0853   -0.0305 H   0  0  0  0  0  0  0  0  0  0  0  0
   -1.9397   -2.3207    0.9374 C   0  0  0  0  0  0  0  0  0  0  0  0
   -1.0221   -2.8761    1.5199 O   0  0  0  0  0  0  0  0  0  0  0  0
   -1.7116   -1.1518    0.2408 N   0  0  0  0  0  0  0  0  0  0  0  0
   -2.5257   -0.6692   -0.1360 H   0  0  0  0  0  0  0  0  0  0  0  0
   -0.4370   -0.4159    0.2455 C   0  0  1  0  0  0  0  0  0  0  0  0
    0.1671   -0.7332    1.1021 H   0  0  0  0  0  0  0  0  0  0  0  0
    0.3827   -0.6823   -1.0368 C   0  0  0  0  0  0  0  0  0  0  0  0
    1.2412   -0.0019   -1.0787 H   0  0  0  0  0  0  0  0  0  0  0  0
    0.7910   -1.6946   -0.9450 H   0  0  0  0  0  0  0  0  0  0  0  0
   -0.4066   -0.6281   -2.3671 C   0  0  0  0  0  0  0  0  0  0  0  0
   -0.1016   -1.4712   -2.9941 H   0  0  0  0  0  0  0  0  0  0  0  0
   -1.4837   -0.7172   -2.2147 H   0  0  0  0  0  0  0  0  0  0  0  0
   -0.1166    0.6535   -3.1396 C   0  0  0  0  0  0  0  0  0  0  0  0
    0.8308    0.7371   -3.8978 O   0  0  0  0  0  0  0  0  0  0  0  0
   -0.8534    1.7885   -2.9680 N   0  0  0  0  0  0  0  0  0  0  0  0
   -0.4439    2.6315   -3.3568 H   0  0  0  0  0  0  0  0  0  0  0  0
   -1.4145    1.8552   -2.1161 H   0  0  0  0  0  0  0  0  0  0  0  0
   -0.6975    1.0925    0.4259 C   0  0  0  0  0  0  0  0  0  0  0  0
   -1.6180    1.6276   -0.1852 O   0  0  0  0  0  0  0  0  0  0  0  0
    0.0595    1.8403    1.3074 N   0  0  0  0  0  0  0  0  0  0  0  0
    0.7803    1.3580    1.8379 H   0  0  0  0  0  0  0  0  0  0  0  0
   -0.1659    3.2594    1.5551 C   0  0  0  0  0  0  0  0  0  0  0  0
   -1.1713    3.4237    1.9566 H   0  0  0  0  0  0  0  0  0  0  0  0
    0.5618    3.6364    2.2802 H   0  0  0  0  0  0  0  0  0  0  0  0
   -0.0579    3.8329    0.6285 H   0  0  0  0  0  0  0  0  0  0  0  0
  1  2  1  0  0  0  0
  2  3  1  0  0  0  0
  2  4  1  0  0  0  0
  2  5  1  0  0  0  0
  5  6  2  0  0  0  0
  5  7  1  0  0  0  0
  7  8  1  0  0  0  0
  7  9  1  0  0  0  0
  9 10  1  0  0  0  0
  9 11  1  0  0  0  0
  9 22  1  0  0  0  0
 11 12  1  0  0  0  0
 11 13  1  0  0  0  0
 11 14  1  0  0  0  0
 14 15  1  0  0  0  0
 14 16  1  0  0  0  0
 14 17  1  0  0  0  0
 17 18  2  0  0  0  0
 17 19  1  0  0  0  0
 19 20  1  0  0  0  0
 19 21  1  0  0  0  0
 22 23  2  0  0  0  0
 22 24  1  0  0  0  0
 24 25  1  0  0  0  0
 24 26  1  0  0  0  0
 26 27  1  0  0  0  0
 26 28  1  0  0  0  0
 26 29  1  0  0  0  0
M  END
$$$$

  -OEChem-04042215583D

 29 28  0     1  0  0  0  0  0999 V2000
   -3.2669   -3.9141    1.6072 H   0  0  0  0  0  0  0  0  0  0  0  0
   -3.2932   -2.9822    1.0354 C   0  0  0  0  0  0  0  0  0  0  0  0
   -4.0144   -2.3044    1.4984 H   0  0  0  0  0  0  0  0  0  0  0  0
   -3.6152   -3.2052    0.0152 H   0  0  0  0  0  0  0  0  0  0  0  0
   -1.9180   -2.3419    1.0175 C   0  0  0  0  0  0  0  0  0  0  0  0
   -1.0012   -2.8453    1.6466 O   0  0  0  0  0  0  0  0  0  0  0  0
   -1.7084   -1.1884    0.2903 N   0  0  0  0  0  0  0  0  0  0  0  0
   -2.5199   -0.7593   -0.1499 H   0  0  0  0  0  0  0  0  0  0  0  0
   -0.4441   -0.4357    0.2628 C   0  0  1  0  0  0  0  0  0  0  0  0
    0.1885   -0.7366    1.1047 H   0  0  0  0  0  0  0  0  0  0  0  0
    0.3322   -0.6967   -1.0447 C   0  0  0  0  0  0  0  0  0  0  0  0
    1.1706    0.0059   -1.1188 H   0  0  0  0  0  0  0  0  0  0  0  0
    0.7701   -1.6987   -0.9778 H   0  0  0  0  0  0  0  0  0  0  0  0
   -0.5348   -0.6459   -2.3267 C   0  0  0  0  0  0  0  0  0  0  0  0
   -0.4817   -1.6103   -2.8401 H   0  0  0  0  0  0  0  0  0  0  0  0
   -1.5874   -0.4525   -2.1101 H   0  0  0  0  0  0  0  0  0  0  0  0
   -0.0378    0.4373   -3.2712 C   0  0  0  0  0  0  0  0  0  0  0  0
    0.8405    0.2334   -4.0873 O   0  0  0  0  0  0  0  0  0  0  0  0
   -0.4908    1.7192   -3.1503 N   0  0  0  0  0  0  0  0  0  0  0  0
    0.0434    2.4311   -3.6377 H   0  0  0  0  0  0  0  0  0  0  0  0
   -1.0153    1.9594   -2.3069 H   0  0  0  0  0  0  0  0  0  0  0  0
   -0.6986    1.0794    0.4057 C   0  0  0  0  0  0  0  0  0  0  0  0
   -1.5402    1.6289   -0.2993 O   0  0  0  0  0  0  0  0  0  0  0  0
    0.0727    1.8438    1.2605 N   0  0  0  0  0  0  0  0  0  0  0  0
    0.7454    1.3589    1.8488 H   0  0  0  0  0  0  0  0  0  0  0  0
   -0.1019    3.2814    1.4307 C   0  0  0  0  0  0  0  0  0  0  0  0
   -1.1115    3.5051    1.7915 H   0  0  0  0  0  0  0  0  0  0  0  0
    0.6184    3.6657    2.1595 H   0  0  0  0  0  0  0  0  0  0  0  0
    0.0574    3.8030    0.4811 H   0  0  0  0  0  0  0  0  0  0  0  0
  1  2  1  0  0  0  0
  2  3  1  0  0  0  0
  2  4  1  0  0  0  0
  2  5  1  0  0  0  0
  5  6  2  0  0  0  0
  5  7  1  0  0  0  0
  7  8  1  0  0  0  0
  7  9  1  0  0  0  0
  9 10  1  0  0  0  0
  9 11  1  0  0  0  0
  9 22  1  0  0  0  0
 11 12  1  0  0  0  0
 11 13  1  0  0  0  0
 11 14  1  0  0  0  0
 14 15  1  0  0  0  0
 14 16  1  0  0  0  0
 14 17  1  0  0  0  0
 17 18  2  0  0  0  0
 17 19  1  0  0  0  0
 19 20  1  0  0  0  0
 19 21  1  0  0  0  0
 22 23  2  0  0  0  0
 22 24  1  0  0  0  0
 24 25  1  0  0  0  0
 24 26  1  0  0  0  0
 26 27  1  0  0  0  0
 26 28  1  0  0  0  0
 26 29  1  0  0  0  0
M  END
$$$$

  -OEChem-04042215583D

 29 28  0     1  0  0  0  0  0999 V2000
   -3.2441   -3.9111    1.6917 H   0  0  0  0  0  0  0  0  0  0  0  0
   -3.2731   -3.0032    1.0828 C   0  0  0  0  0  0  0  0  0  0  0  0
   -4.0040   -2.3141    1.5124 H   0  0  0  0  0  0  0  0  0  0  0  0
   -3.5836   -3.2693    0.0695 H   0  0  0  0  0  0  0  0  0  0  0  0
   -1.9032   -2.3524    1.0498 C   0  0  0  0  0  0  0  0  0  0  0  0
   -0.9734   -2.8547    1.6604 O   0  0  0  0  0  0  0  0  0  0  0  0
   -1.7137   -1.1915    0.3288 N   0  0  0  0  0  0  0  0  0  0  0  0
   -2.5343   -0.7671   -0.0990 H   0  0  0  0  0  0  0  0  0  0  0  0
   -0.4527   -0.4349    0.2773 C   0  0  1  0  0  0  0  0  0  0  0  0
    0.1992   -0.7429    1.1014 H   0  0  0  0  0  0  0  0  0  0  0  0
    0.2878   -0.7010   -1.0484 C   0  0  0  0  0  0  0  0  0  0  0  0
    1.1049    0.0231   -1.1466 H   0  0  0  0  0  0  0  0  0  0  0  0
    0.7500   -1.6931   -1.0007 H   0  0  0  0  0  0  0  0  0  0  0  0
   -0.6241   -0.6525   -2.2968 C   0  0  0  0  0  0  0  0  0  0  0  0
   -0.8254   -1.6690   -2.6468 H   0  0  0  0  0  0  0  0  0  0  0  0
   -1.5879   -0.1894   -2.0745 H   0  0  0  0  0  0  0  0  0  0  0  0
    0.0285    0.1450   -3.4140 C   0  0  0  0  0  0  0  0  0  0  0  0
    0.8902   -0.3277   -4.1301 O   0  0  0  0  0  0  0  0  0  0  0  0
   -0.2411    1.4751   -3.5640 N   0  0  0  0  0  0  0  0  0  0  0  0
    0.3907    1.9977   -4.1626 H   0  0  0  0  0  0  0  0  0  0  0  0
   -0.7613    1.9471   -2.8270 H   0  0  0  0  0  0  0  0  0  0  0  0
   -0.6917    1.0812    0.4397 C   0  0  0  0  0  0  0  0  0  0  0  0
   -1.5514    1.6452   -0.2295 O   0  0  0  0  0  0  0  0  0  0  0  0
    0.1094    1.8292    1.2819 N   0  0  0  0  0  0  0  0  0  0  0  0
    0.7976    1.3326    1.8418 H   0  0  0  0  0  0  0  0  0  0  0  0
   -0.0358    3.2690    1.4596 C   0  0  0  0  0  0  0  0  0  0  0  0
   -1.0360    3.5108    1.8347 H   0  0  0  0  0  0  0  0  0  0  0  0
    0.7015    3.6374    2.1795 H   0  0  0  0  0  0  0  0  0  0  0  0
    0.1204    3.7901    0.5091 H   0  0  0  0  0  0  0  0  0  0  0  0
  1  2  1  0  0  0  0
  2  3  1  0  0  0  0
  2  4  1  0  0  0  0
  2  5  1  0  0  0  0
  5  6  2  0  0  0  0
  5  7  1  0  0  0  0
  7  8  1  0  0  0  0
  7  9  1  0  0  0  0
  9 10  1  0  0  0  0
  9 11  1  0  0  0  0
  9 22  1  0  0  0  0
 11 12  1  0  0  0  0
 11 13  1  0  0  0  0
 11 14  1  0  0  0  0
 14 15  1  0  0  0  0
 14 16  1  0  0  0  0
 14 17  1  0  0  0  0
 17 18  2  0  0  0  0
 17 19  1  0  0  0  0
 19 20  1  0  0  0  0
 19 21  1  0  0  0  0
 22 23  2  0  0  0  0
 22 24  1  0  0  0  0
 24 25  1  0  0  0  0
 24 26  1  0  0  0  0
 26 27  1  0  0  0  0
 26 28  1  0  0  0  0
 26 29  1  0  0  0  0
M  END
$$$$

  -OEChem-04042215583D

 29 28  0     1  0  0  0  0  0999 V2000
   -3.3112   -3.8585    1.5900 H   0  0  0  0  0  0  0  0  0  0  0  0
   -3.3234   -2.8941    1.0746 C   0  0  0  0  0  0  0  0  0  0  0  0
   -3.9873   -2.2144    1.6141 H   0  0  0  0  0  0  0  0  0  0  0  0
   -3.7073   -3.0415    0.0623 H   0  0  0  0  0  0  0  0  0  0  0  0
   -1.9226   -2.3146    1.0176 C   0  0  0  0  0  0  0  0  0  0  0  0
   -0.9996   -2.8932    1.5681 O   0  0  0  0  0  0  0  0  0  0  0  0
   -1.6994   -1.1313    0.3448 N   0  0  0  0  0  0  0  0  0  0  0  0
   -2.5150   -0.6319   -0.0053 H   0  0  0  0  0  0  0  0  0  0  0  0
   -0.4145   -0.4152    0.3176 C   0  0  1  0  0  0  0  0  0  0  0  0
    0.2215   -0.7690    1.1360 H   0  0  0  0  0  0  0  0  0  0  0  0
    0.3291   -0.6801   -1.0064 C   0  0  0  0  0  0  0  0  0  0  0  0
    1.1564    0.0350   -1.0824 H   0  0  0  0  0  0  0  0  0  0  0  0
    0.7727   -1.6813   -0.9767 H   0  0  0  0  0  0  0  0  0  0  0  0
   -0.5665   -0.5794   -2.2621 C   0  0  0  0  0  0  0  0  0  0  0  0
   -1.0308   -1.5480   -2.4661 H   0  0  0  0  0  0  0  0  0  0  0  0
   -1.3684    0.1426   -2.0928 H   0  0  0  0  0  0  0  0  0  0  0  0
    0.2107   -0.1229   -3.4923 C   0  0  0  0  0  0  0  0  0  0  0  0
    1.3601   -0.4622   -3.7035 O   0  0  0  0  0  0  0  0  0  0  0  0
   -0.3330    0.7400   -4.4001 N   0  0  0  0  0  0  0  0  0  0  0  0
    0.3162    1.1418   -5.0699 H   0  0  0  0  0  0  0  0  0  0  0  0
   -1.1763    1.2432   -4.1445 H   0  0  0  0  0  0  0  0  0  0  0  0
   -0.6234    1.0962    0.5466 C   0  0  0  0  0  0  0  0  0  0  0  0
   -1.5569    1.6762    0.0019 O   0  0  0  0  0  0  0  0  0  0  0  0
    0.1951    1.7924    1.4159 N   0  0  0  0  0  0  0  0  0  0  0  0
    0.9233    1.2710    1.8965 H   0  0  0  0  0  0  0  0  0  0  0  0
    0.0123    3.2033    1.7330 C   0  0  0  0  0  0  0  0  0  0  0  0
   -0.9481    3.3619    2.2342 H   0  0  0  0  0  0  0  0  0  0  0  0
    0.8109    3.5478    2.3970 H   0  0  0  0  0  0  0  0  0  0  0  0
    0.0383    3.8081    0.8205 H   0  0  0  0  0  0  0  0  0  0  0  0
  1  2  1  0  0  0  0
  2  3  1  0  0  0  0
  2  4  1  0  0  0  0
  2  5  1  0  0  0  0
  5  6  2  0  0  0  0
  5  7  1  0  0  0  0
  7  8  1  0  0  0  0
  7  9  1  0  0  0  0
  9 10  1  0  0  0  0
  9 11  1  0  0  0  0
  9 22  1  0  0  0  0
 11 12  1  0  0  0  0
 11 13  1  0  0  0  0
 11 14  1  0  0  0  0
 14 15  1  0  0  0  0
 14 16  1  0  0  0  0
 14 17  1  0  0  0  0
 17 18  2  0  0  0  0
 17 19  1  0  0  0  0
 19 20  1  0  0  0  0
 19 21  1  0  0  0  0
 22 23  2  0  0  0  0
 22 24  1  0  0  0  0
 24 25  1  0  0  0  0
 24 26  1  0  0  0  0
 26 27  1  0  0  0  0
 26 28  1  0  0  0  0
 26 29  1  0  0  0  0
M  END
$$$$

  -OEChem-04042215583D

 29 28  0     1  0  0  0  0  0999 V2000
   -3.3497   -3.8011    1.5817 H   0  0  0  0  0  0  0  0  0  0  0  0
   -3.3455   -2.8393    1.0614 C   0  0  0  0  0  0  0  0  0  0  0  0
   -3.9836   -2.1405    1.6077 H   0  0  0  0  0  0  0  0  0  0  0  0
   -3.7486   -2.9813    0.0560 H   0  0  0  0  0  0  0  0  0  0  0  0
   -1.9319   -2.2949    0.9807 C   0  0  0  0  0  0  0  0  0  0  0  0
   -1.0094   -2.9143    1.4857 O   0  0  0  0  0  0  0  0  0  0  0  0
   -1.6976   -1.0943    0.3432 N   0  0  0  0  0  0  0  0  0  0  0  0
   -2.5107   -0.5612    0.0391 H   0  0  0  0  0  0  0  0  0  0  0  0
   -0.4031   -0.3955    0.3298 C   0  0  1  0  0  0  0  0  0  0  0  0
    0.2308   -0.7800    1.1357 H   0  0  0  0  0  0  0  0  0  0  0  0
    0.3356   -0.6310   -1.0026 C   0  0  0  0  0  0  0  0  0  0  0  0
    1.1739    0.0723   -1.0644 H   0  0  0  0  0  0  0  0  0  0  0  0
    0.7603   -1.6408   -0.9987 H   0  0  0  0  0  0  0  0  0  0  0  0
   -0.5591   -0.4829   -2.2533 C   0  0  0  0  0  0  0  0  0  0  0  0
   -1.2258   -1.3455   -2.3342 H   0  0  0  0  0  0  0  0  0  0  0  0
   -1.1771    0.4134   -2.1594 H   0  0  0  0  0  0  0  0  0  0  0  0
    0.2441   -0.3593   -3.5459 C   0  0  0  0  0  0  0  0  0  0  0  0
    1.4407   -0.5728   -3.6117 O   0  0  0  0  0  0  0  0  0  0  0  0
   -0.3526    0.0143   -4.7157 N   0  0  0  0  0  0  0  0  0  0  0  0
    0.2757    0.2389   -5.4818 H   0  0  0  0  0  0  0  0  0  0  0  0
   -1.2843    0.4142   -4.6841 H   0  0  0  0  0  0  0  0  0  0  0  0
   -0.5981    1.1095    0.6079 C   0  0  0  0  0  0  0  0  0  0  0  0
   -1.5463    1.7068    0.1093 O   0  0  0  0  0  0  0  0  0  0  0  0
    0.2313    1.7710    1.4943 N   0  0  0  0  0  0  0  0  0  0  0  0
    0.9648    1.2309    1.9453 H   0  0  0  0  0  0  0  0  0  0  0  0
    0.0463    3.1654    1.8774 C   0  0  0  0  0  0  0  0  0  0  0  0
   -0.9197    3.3011    2.3751 H   0  0  0  0  0  0  0  0  0  0  0  0
    0.8372    3.4760    2.5669 H   0  0  0  0  0  0  0  0  0  0  0  0
    0.0836    3.8138    0.9957 H   0  0  0  0  0  0  0  0  0  0  0  0
  1  2  1  0  0  0  0
  2  3  1  0  0  0  0
  2  4  1  0  0  0  0
  2  5  1  0  0  0  0
  5  6  2  0  0  0  0
  5  7  1  0  0  0  0
  7  8  1  0  0  0  0
  7  9  1  0  0  0  0
  9 10  1  0  0  0  0
  9 11  1  0  0  0  0
  9 22  1  0  0  0  0
 11 12  1  0  0  0  0
 11 13  1  0  0  0  0
 11 14  1  0  0  0  0
 14 15  1  0  0  0  0
 14 16  1  0  0  0  0
 14 17  1  0  0  0  0
 17 18  2  0  0  0  0
 17 19  1  0  0  0  0
 19 20  1  0  0  0  0
 19 21  1  0  0  0  0
 22 23  2  0  0  0  0
 22 24  1  0  0  0  0
 24 25  1  0  0  0  0
 24 26  1  0  0  0  0
 26 27  1  0  0  0  0
 26 28  1  0  0  0  0
 26 29  1  0  0  0  0
M  END
$$$$

  -OEChem-04042215583D

 29 28  0     1  0  0  0  0  0999 V2000
   -3.3521   -3.7815    1.5173 H   0  0  0  0  0  0  0  0  0  0  0  0
   -3.3422   -2.8292    0.9795 C   0  0  0  0  0  0  0  0  0  0  0  0
   -4.0025   -2.1274    1.4944 H   0  0  0  0  0  0  0  0  0  0  0  0
   -3.7150   -2.9931   -0.0343 H   0  0  0  0  0  0  0  0  0  0  0  0
   -1.9321   -2.2722    0.9279 C   0  0  0  0  0  0  0  0  0  0  0  0
   -1.0088   -2.9024    1.4181 O   0  0  0  0  0  0  0  0  0  0  0  0
   -1.7016   -1.0505    0.3298 N   0  0  0  0  0  0  0  0  0  0  0  0
   -2.5168   -0.5113    0.0428 H   0  0  0  0  0  0  0  0  0  0  0  0
   -0.4092   -0.3493    0.3292 C   0  0  1  0  0  0  0  0  0  0  0  0
    0.2224   -0.7636    1.1220 H   0  0  0  0  0  0  0  0  0  0  0  0
    0.3230   -0.5739   -1.0075 C   0  0  0  0  0  0  0  0  0  0  0  0
    1.2959   -0.0717   -0.9665 H   0  0  0  0  0  0  0  0  0  0  0  0
    0.5163   -1.6466   -1.1229 H   0  0  0  0  0  0  0  0  0  0  0  0
   -0.4549   -0.0690   -2.2424 C   0  0  0  0  0  0  0  0  0  0  0  0
   -1.4191   -0.5797   -2.3028 H   0  0  0  0  0  0  0  0  0  0  0  0
   -0.6456    1.0032   -2.1521 H   0  0  0  0  0  0  0  0  0  0  0  0
    0.2958   -0.3054   -3.5501 C   0  0  0  0  0  0  0  0  0  0  0  0
    1.4371   -0.7256   -3.5990 O   0  0  0  0  0  0  0  0  0  0  0  0
   -0.2813   -0.0246   -4.7551 N   0  0  0  0  0  0  0  0  0  0  0  0
    0.3387   -0.0380   -5.5596 H   0  0  0  0  0  0  0  0  0  0  0  0
   -1.1377    0.5186   -4.7760 H   0  0  0  0  0  0  0  0  0  0  0  0
   -0.5875    1.1473    0.6574 C   0  0  0  0  0  0  0  0  0  0  0  0
   -1.5448    1.7650    0.2029 O   0  0  0  0  0  0  0  0  0  0  0  0
    0.2578    1.7713    1.5557 N   0  0  0  0  0  0  0  0  0  0  0  0
    1.0020    1.2143    1.9669 H   0  0  0  0  0  0  0  0  0  0  0  0
    0.0949    3.1554    1.9828 C   0  0  0  0  0  0  0  0  0  0  0  0
   -0.8781    3.2959    2.4652 H   0  0  0  0  0  0  0  0  0  0  0  0
    0.8775    3.4244    2.6989 H   0  0  0  0  0  0  0  0  0  0  0  0
    0.1644    3.8321    1.1247 H   0  0  0  0  0  0  0  0  0  0  0  0
  1  2  1  0  0  0  0
  2  3  1  0  0  0  0
  2  4  1  0  0  0  0
  2  5  1  0  0  0  0
  5  6  2  0  0  0  0
  5  7  1  0  0  0  0
  7  8  1  0  0  0  0
  7  9  1  0  0  0  0
  9 10  1  0  0  0  0
  9 11  1  0  0  0  0
  9 22  1  0  0  0  0
 11 12  1  0  0  0  0
 11 13  1  0  0  0  0
 11 14  1  0  0  0  0
 14 15  1  0  0  0  0
 14 16  1  0  0  0  0
 14 17  1  0  0  0  0
 17 18  2  0  0  0  0
 17 19  1  0  0  0  0
 19 20  1  0  0  0  0
 19 21  1  0  0  0  0
 22 23  2  0  0  0  0
 22 24  1  0  0  0  0
 24 25  1  0  0  0  0
 24 26  1  0  0  0  0
 26 27  1  0  0  0  0
 26 28  1  0  0  0  0
 26 29  1  0  0  0  0
M  END
$$$$

  -OEChem-04042215583D

 29 28  0     1  0  0  0  0  0999 V2000
   -3.3767   -3.7689    1.5186 H   0  0  0  0  0  0  0  0  0  0  0  0
   -3.3555   -2.8256    0.9656 C   0  0  0  0  0  0  0  0  0  0  0  0
   -4.0209   -2.1132    1.4594 H   0  0  0  0  0  0  0  0  0  0  0  0
   -3.7137   -3.0047   -0.0511 H   0  0  0  0  0  0  0  0  0  0  0  0
   -1.9426   -2.2745    0.9267 C   0  0  0  0  0  0  0  0  0  0  0  0
   -1.0280   -2.9056    1.4318 O   0  0  0  0  0  0  0  0  0  0  0  0
   -1.7006   -1.0547    0.3292 N   0  0  0  0  0  0  0  0  0  0  0  0
   -2.5092   -0.5162    0.0235 H   0  0  0  0  0  0  0  0  0  0  0  0
   -0.4039   -0.3606    0.3401 C   0  0  1  0  0  0  0  0  0  0  0  0
    0.2225   -0.7807    1.1339 H   0  0  0  0  0  0  0  0  0  0  0  0
    0.3339   -0.5673   -0.9965 C   0  0  0  0  0  0  0  0  0  0  0  0
    1.3178   -0.0879   -0.9546 H   0  0  0  0  0  0  0  0  0  0  0  0
    0.5034   -1.6435   -1.1173 H   0  0  0  0  0  0  0  0  0  0  0  0
   -0.4369   -0.0383   -2.2270 C   0  0  0  0  0  0  0  0  0  0  0  0
   -1.4845   -0.3428   -2.1682 H   0  0  0  0  0  0  0  0  0  0  0  0
   -0.4061    1.0546   -2.2410 H   0  0  0  0  0  0  0  0  0  0  0  0
    0.1206   -0.5628   -3.5468 C   0  0  0  0  0  0  0  0  0  0  0  0
    1.2073   -1.1019   -3.6442 O   0  0  0  0  0  0  0  0  0  0  0  0
   -0.5688   -0.4073   -4.7149 N   0  0  0  0  0  0  0  0  0  0  0  0
   -0.0512   -0.6072   -5.5659 H   0  0  0  0  0  0  0  0  0  0  0  0
   -1.3634    0.2229   -4.7344 H   0  0  0  0  0  0  0  0  0  0  0  0
   -0.5806    1.1363    0.6652 C   0  0  0  0  0  0  0  0  0  0  0  0
   -1.5172    1.7619    0.1793 O   0  0  0  0  0  0  0  0  0  0  0  0
    0.2564    1.7601    1.5712 N   0  0  0  0  0  0  0  0  0  0  0  0
    0.9903    1.2009    1.9974 H   0  0  0  0  0  0  0  0  0  0  0  0
    0.1075    3.1535    1.9725 C   0  0  0  0  0  0  0  0  0  0  0  0
   -0.8721    3.3176    2.4334 H   0  0  0  0  0  0  0  0  0  0  0  0
    0.8802    3.4221    2.6991 H   0  0  0  0  0  0  0  0  0  0  0  0
    0.2045    3.8144    1.1049 H   0  0  0  0  0  0  0  0  0  0  0  0
  1  2  1  0  0  0  0
  2  3  1  0  0  0  0
  2  4  1  0  0  0  0
  2  5  1  0  0  0  0
  5  6  2  0  0  0  0
  5  7  1  0  0  0  0
  7  8  1  0  0  0  0
  7  9  1  0  0  0  0
  9 10  1  0  0  0  0
  9 11  1  0  0  0  0
  9 22  1  0  0  0  0
 11 12  1  0  0  0  0
 11 13  1  0  0  0  0
 11 14  1  0  0  0  0
 14 15  1  0  0  0  0
 14 16  1  0  0  0  0
 14 17  1  0  0  0  0
 17 18  2  0  0  0  0
 17 19  1  0  0  0  0
 19 20  1  0  0  0  0
 19 21  1  0  0  0  0
 22 23  2  0  0  0  0
 22 24  1  0  0  0  0
 24 25  1  0  0  0  0
 24 26  1  0  0  0  0
 26 27  1  0  0  0  0
 26 28  1  0  0  0  0
 26 29  1  0  0  0  0
M  END
$$$$

  -OEChem-04042215583D

 29 28  0     1  0  0  0  0  0999 V2000
   -3.3985   -3.7533    1.4917 H   0  0  0  0  0  0  0  0  0  0  0  0
   -3.3698   -2.8040    0.9494 C   0  0  0  0  0  0  0  0  0  0  0  0
   -4.0296   -2.0922    1.4511 H   0  0  0  0  0  0  0  0  0  0  0  0
   -3.7290   -2.9692   -0.0692 H   0  0  0  0  0  0  0  0  0  0  0  0
   -1.9523   -2.2641    0.9166 C   0  0  0  0  0  0  0  0  0  0  0  0
   -1.0467   -2.8984    1.4336 O   0  0  0  0  0  0  0  0  0  0  0  0
   -1.6963   -1.0476    0.3178 N   0  0  0  0  0  0  0  0  0  0  0  0
   -2.4988   -0.5014    0.0099 H   0  0  0  0  0  0  0  0  0  0  0  0
   -0.3938   -0.3635    0.3407 C   0  0  1  0  0  0  0  0  0  0  0  0
    0.2245   -0.7877    1.1385 H   0  0  0  0  0  0  0  0  0  0  0  0
    0.3552   -0.5651   -0.9909 C   0  0  0  0  0  0  0  0  0  0  0  0
    1.3464   -0.1023   -0.9400 H   0  0  0  0  0  0  0  0  0  0  0  0
    0.5104   -1.6439   -1.1079 H   0  0  0  0  0  0  0  0  0  0  0  0
   -0.3983   -0.0216   -2.2285 C   0  0  0  0  0  0  0  0  0  0  0  0
   -1.4768   -0.0840   -2.0667 H   0  0  0  0  0  0  0  0  0  0  0  0
   -0.1500    1.0335   -2.3739 H   0  0  0  0  0  0  0  0  0  0  0  0
   -0.0916   -0.7928   -3.5093 C   0  0  0  0  0  0  0  0  0  0  0  0
    0.9214   -1.4488   -3.6649 O   0  0  0  0  0  0  0  0  0  0  0  0
   -0.9314   -0.7411   -4.5845 N   0  0  0  0  0  0  0  0  0  0  0  0
   -0.5615   -1.1168   -5.4529 H   0  0  0  0  0  0  0  0  0  0  0  0
   -1.6613   -0.0370   -4.6013 H   0  0  0  0  0  0  0  0  0  0  0  0
   -0.5675    1.1352    0.6606 C   0  0  0  0  0  0  0  0  0  0  0  0
   -1.4937    1.7645    0.1597 O   0  0  0  0  0  0  0  0  0  0  0  0
    0.2613    1.7582    1.5747 N   0  0  0  0  0  0  0  0  0  0  0  0
    0.9759    1.1924    2.0244 H   0  0  0  0  0  0  0  0  0  0  0  0
    0.1011    3.1481    1.9840 C   0  0  0  0  0  0  0  0  0  0  0  0
   -0.8760    3.2988    2.4549 H   0  0  0  0  0  0  0  0  0  0  0  0
    0.8780    3.4219    2.7042 H   0  0  0  0  0  0  0  0  0  0  0  0
    0.1825    3.8144    1.1187 H   0  0  0  0  0  0  0  0  0  0  0  0
  1  2  1  0  0  0  0
  2  3  1  0  0  0  0
  2  4  1  0  0  0  0
  2  5  1  0  0  0  0
  5  6  2  0  0  0  0
  5  7  1  0  0  0  0
  7  8  1  0  0  0  0
  7  9  1  0  0  0  0
  9 10  1  0  0  0  0
  9 11  1  0  0  0  0
  9 22  1  0  0  0  0
 11 12  1  0  0  0  0
 11 13  1  0  0  0  0
 11 14  1  0  0  0  0
 14 15  1  0  0  0  0
 14 16  1  0  0  0  0
 14 17  1  0  0  0  0
 17 18  2  0  0  0  0
 17 19  1  0  0  0  0
 19 20  1  0  0  0  0
 19 21  1  0  0  0  0
 22 23  2  0  0  0  0
 22 24  1  0  0  0  0
 24 25  1  0  0  0  0
 24 26  1  0  0  0  0
 26 27  1  0  0  0  0
 26 28  1  0  0  0  0
 26 29  1  0  0  0  0
M  END
$$$$

  -OEChem-04042215583D

 29 28  0     1  0  0  0  0  0999 V2000
   -3.4214   -3.7432    1.3276 H   0  0  0  0  0  0  0  0  0  0  0  0
   -3.3836   -2.7663    0.8371 C   0  0  0  0  0  0  0  0  0  0  0  0
   -4.0511   -2.0810    1.3649 H   0  0  0  0  0  0  0  0  0  0  0  0
   -3.7272   -2.8775   -0.1942 H   0  0  0  0  0  0  0  0  0  0  0  0
   -1.9658   -2.2266    0.8550 C   0  0  0  0  0  0  0  0  0  0  0  0
   -1.0753   -2.8686    1.3884 O   0  0  0  0  0  0  0  0  0  0  0  0
   -1.6916   -1.0051    0.2750 N   0  0  0  0  0  0  0  0  0  0  0  0
   -2.4854   -0.4527   -0.0438 H   0  0  0  0  0  0  0  0  0  0  0  0
   -0.3862   -0.3284    0.3282 C   0  0  1  0  0  0  0  0  0  0  0  0
    0.2126   -0.7640    1.1349 H   0  0  0  0  0  0  0  0  0  0  0  0
    0.3814   -0.5425   -0.9902 C   0  0  0  0  0  0  0  0  0  0  0  0
    1.3714   -0.0793   -0.9239 H   0  0  0  0  0  0  0  0  0  0  0  0
    0.5425   -1.6219   -1.0957 H   0  0  0  0  0  0  0  0  0  0  0  0
   -0.3461    0.0009   -2.2449 C   0  0  0  0  0  0  0  0  0  0  0  0
   -1.3930    0.2126   -2.0153 H   0  0  0  0  0  0  0  0  0  0  0  0
    0.1130    0.9437   -2.5545 H   0  0  0  0  0  0  0  0  0  0  0  0
   -0.3195   -0.9755   -3.4170 C   0  0  0  0  0  0  0  0  0  0  0  0
    0.6582   -1.6458   -3.6908 O   0  0  0  0  0  0  0  0  0  0  0  0
   -1.3943   -1.1298   -4.2453 N   0  0  0  0  0  0  0  0  0  0  0  0
   -1.2228   -1.6574   -5.0963 H   0  0  0  0  0  0  0  0  0  0  0  0
   -2.1394   -0.4424   -4.2118 H   0  0  0  0  0  0  0  0  0  0  0  0
   -0.5442    1.1693    0.6609 C   0  0  0  0  0  0  0  0  0  0  0  0
   -1.4596    1.8146    0.1612 O   0  0  0  0  0  0  0  0  0  0  0  0
    0.2799    1.7694    1.5946 N   0  0  0  0  0  0  0  0  0  0  0  0
    0.9742    1.1855    2.0530 H   0  0  0  0  0  0  0  0  0  0  0  0
    0.1132    3.1473    2.0408 C   0  0  0  0  0  0  0  0  0  0  0  0
   -0.8522    3.2731    2.5420 H   0  0  0  0  0  0  0  0  0  0  0  0
    0.9066    3.4153    2.7451 H   0  0  0  0  0  0  0  0  0  0  0  0
    0.1615    3.8354    1.1901 H   0  0  0  0  0  0  0  0  0  0  0  0
  1  2  1  0  0  0  0
  2  3  1  0  0  0  0
  2  4  1  0  0  0  0
  2  5  1  0  0  0  0
  5  6  2  0  0  0  0
  5  7  1  0  0  0  0
  7  8  1  0  0  0  0
  7  9  1  0  0  0  0
  9 10  1  0  0  0  0
  9 11  1  0  0  0  0
  9 22  1  0  0  0  0
 11 12  1  0  0  0  0
 11 13  1  0  0  0  0
 11 14  1  0  0  0  0
 14 15  1  0  0  0  0
 14 16  1  0  0  0  0
 14 17  1  0  0  0  0
 17 18  2  0  0  0  0
 17 19  1  0  0  0  0
 19 20  1  0  0  0  0
 19 21  1  0  0  0  0
 22 23  2  0  0  0  0
 22 24  1  0  0  0  0
 24 25  1  0  0  0  0
 24 26  1  0  0  0  0
 26 27  1  0  0  0  0
 26 28  1  0  0  0  0
 26 29  1  0  0  0  0
M  END
$$$$

  -OEChem-04042215583D

 29 28  0     1  0  0  0  0  0999 V2000
   -3.4685   -3.7025    1.2011 H   0  0  0  0  0  0  0  0  0  0  0  0
   -3.4142   -2.7207    0.7224 C   0  0  0  0  0  0  0  0  0  0  0  0
   -4.0853   -2.0359    1.2464 H   0  0  0  0  0  0  0  0  0  0  0  0
   -3.7395   -2.8173   -0.3163 H   0  0  0  0  0  0  0  0  0  0  0  0
   -1.9927   -2.1933    0.7721 C   0  0  0  0  0  0  0  0  0  0  0  0
   -1.1166   -2.8502    1.3112 O   0  0  0  0  0  0  0  0  0  0  0  0
   -1.6987   -0.9669    0.2120 N   0  0  0  0  0  0  0  0  0  0  0  0
   -2.4835   -0.4019   -0.1064 H   0  0  0  0  0  0  0  0  0  0  0  0
   -0.3903   -0.3012    0.2997 C   0  0  1  0  0  0  0  0  0  0  0  0
    0.1830   -0.7483    1.1184 H   0  0  0  0  0  0  0  0  0  0  0  0
    0.4060   -0.5333   -0.9981 C   0  0  0  0  0  0  0  0  0  0  0  0
    1.3873   -0.0570   -0.9021 H   0  0  0  0  0  0  0  0  0  0  0  0
    0.5873   -1.6101   -1.0975 H   0  0  0  0  0  0  0  0  0  0  0  0
   -0.2827    0.0060   -2.2747 C   0  0  0  0  0  0  0  0  0  0  0  0
   -1.2266    0.4995   -2.0338 H   0  0  0  0  0  0  0  0  0  0  0  0
    0.3608    0.7548   -2.7450 H   0  0  0  0  0  0  0  0  0  0  0  0
   -0.5567   -1.0969   -3.2901 C   0  0  0  0  0  0  0  0  0  0  0  0
    0.3338   -1.7827   -3.7545 O   0  0  0  0  0  0  0  0  0  0  0  0
   -1.8203   -1.3789   -3.7255 N   0  0  0  0  0  0  0  0  0  0  0  0
   -1.8796   -2.0024   -4.5254 H   0  0  0  0  0  0  0  0  0  0  0  0
   -2.5542   -0.7007   -3.5535 H   0  0  0  0  0  0  0  0  0  0  0  0
   -0.5353    1.1954    0.6469 C   0  0  0  0  0  0  0  0  0  0  0  0
   -1.4450    1.8547    0.1554 O   0  0  0  0  0  0  0  0  0  0  0  0
    0.2793    1.7731    1.6030 N   0  0  0  0  0  0  0  0  0  0  0  0
    0.9640    1.1770    2.0601 H   0  0  0  0  0  0  0  0  0  0  0  0
    0.1222    3.1472    2.0646 C   0  0  0  0  0  0  0  0  0  0  0  0
   -0.8399    3.2727    2.5724 H   0  0  0  0  0  0  0  0  0  0  0  0
    0.9212    3.4038    2.7668 H   0  0  0  0  0  0  0  0  0  0  0  0
    0.1693    3.8439    1.2209 H   0  0  0  0  0  0  0  0  0  0  0  0
  1  2  1  0  0  0  0
  2  3  1  0  0  0  0
  2  4  1  0  0  0  0
  2  5  1  0  0  0  0
  5  6  2  0  0  0  0
  5  7  1  0  0  0  0
  7  8  1  0  0  0  0
  7  9  1  0  0  0  0
  9 10  1  0  0  0  0
  9 11  1  0  0  0  0
  9 22  1  0  0  0  0
 11 12  1  0  0  0  0
 11 13  1  0  0  0  0
 11 14  1  0  0  0  0
 14 15  1  0  0  0  0
 14 16  1  0  0  0  0
 14 17  1  0  0  0  0
 17 18  2  0  0  0  0
 17 19  1  0  0  0  0
 19 20  1  0  0  0  0
 19 21  1  0  0  0  0
 22 23  2  0  0  0  0
 22 24  1  0  0  0  0
 24 25  1  0  0  0  0
 24 26  1  0  0  0  0
 26 27  1  0  0  0  0
 26 28  1  0  0  0  0
 26 29  1  0  0  0  0
M  END
$$$$

  -OEChem-04042215583D

 29 28  0     1  0  0  0  0  0999 V2000
   -3.1218   -3.9321    1.3186 H   0  0  0  0  0  0  0  0  0  0  0  0
   -3.1739   -2.9666    0.8086 C   0  0  0  0  0  0  0  0  0  0  0  0
   -3.9812   -2.3769    1.2489 H   0  0  0  0  0  0  0  0  0  0  0  0
   -3.3931   -3.1363   -0.2488 H   0  0  0  0  0  0  0  0  0  0  0  0
   -1.8568   -2.2275    0.9477 C   0  0  0  0  0  0  0  0  0  0  0  0
   -0.9091   -2.7626    1.5046 O   0  0  0  0  0  0  0  0  0  0  0  0
   -1.7309   -0.9573    0.4257 N   0  0  0  0  0  0  0  0  0  0  0  0
   -2.5170   -0.6218   -0.1304 H   0  0  0  0  0  0  0  0  0  0  0  0
   -0.4653   -0.2170    0.3236 C   0  0  1  0  0  0  0  0  0  0  0  0
    0.2720   -0.6758    0.9899 H   0  0  0  0  0  0  0  0  0  0  0  0
    0.0565   -0.3794   -1.1179 C   0  0  0  0  0  0  0  0  0  0  0  0
    1.0053    0.1610   -1.1955 H   0  0  0  0  0  0  0  0  0  0  0  0
    0.2765   -1.4376   -1.3014 H   0  0  0  0  0  0  0  0  0  0  0  0
   -0.9049    0.1587   -2.2049 C   0  0  0  0  0  0  0  0  0  0  0  0
   -1.6563    0.8339   -1.7906 H   0  0  0  0  0  0  0  0  0  0  0  0
   -0.3305    0.7324   -2.9368 H   0  0  0  0  0  0  0  0  0  0  0  0
   -1.6148   -0.9763   -2.9317 C   0  0  0  0  0  0  0  0  0  0  0  0
   -2.5957   -1.5185   -2.4555 O   0  0  0  0  0  0  0  0  0  0  0  0
   -1.1681   -1.4693   -4.1243 N   0  0  0  0  0  0  0  0  0  0  0  0
   -1.7874   -2.1201   -4.5990 H   0  0  0  0  0  0  0  0  0  0  0  0
   -0.4800   -0.9413   -4.6499 H   0  0  0  0  0  0  0  0  0  0  0  0
   -0.5752    1.2560    0.7785 C   0  0  0  0  0  0  0  0  0  0  0  0
   -1.5226    1.9562    0.4428 O   0  0  0  0  0  0  0  0  0  0  0  0
    0.3977    1.7968    1.6000 N   0  0  0  0  0  0  0  0  0  0  0  0
    1.1080    1.1648    1.9586 H   0  0  0  0  0  0  0  0  0  0  0  0
    0.3152    3.1436    2.1526 C   0  0  0  0  0  0  0  0  0  0  0  0
   -0.5723    3.2438    2.7863 H   0  0  0  0  0  0  0  0  0  0  0  0
    1.2004    3.3581    2.7590 H   0  0  0  0  0  0  0  0  0  0  0  0
    0.2601    3.8856    1.3491 H   0  0  0  0  0  0  0  0  0  0  0  0
  1  2  1  0  0  0  0
  2  3  1  0  0  0  0
  2  4  1  0  0  0  0
  2  5  1  0  0  0  0
  5  6  2  0  0  0  0
  5  7  1  0  0  0  0
  7  8  1  0  0  0  0
  7  9  1  0  0  0  0
  9 10  1  0  0  0  0
  9 11  1  0  0  0  0
  9 22  1  0  0  0  0
 11 12  1  0  0  0  0
 11 13  1  0  0  0  0
 11 14  1  0  0  0  0
 14 15  1  0  0  0  0
 14 16  1  0  0  0  0
 14 17  1  0  0  0  0
 17 18  2  0  0  0  0
 17 19  1  0  0  0  0
 19 20  1  0  0  0  0
 19 21  1  0  0  0  0
 22 23  2  0  0  0  0
 22 24  1  0  0  0  0
 24 25  1  0  0  0  0
 24 26  1  0  0  0  0
 26 27  1  0  0  0  0
 26 28  1  0  0  0  0
 26 29  1  0  0  0  0
M  END
$$$$

  -OEChem-04042215583D

 29 28  0     1  0  0  0  0  0999 V2000
   -3.2764   -3.8568    1.4046 H   0  0  0  0  0  0  0  0  0  0  0  0
   -3.2550   -2.9296    0.8258 C   0  0  0  0  0  0  0  0  0  0  0  0
   -4.0864   -2.2956    1.1420 H   0  0  0  0  0  0  0  0  0  0  0  0
   -3.3728   -3.1732   -0.2332 H   0  0  0  0  0  0  0  0  0  0  0  0
   -1.9394   -2.2062    1.0425 C   0  0  0  0  0  0  0  0  0  0  0  0
   -1.0854   -2.6951    1.7679 O   0  0  0  0  0  0  0  0  0  0  0  0
   -1.7230   -0.9877    0.4318 N   0  0  0  0  0  0  0  0  0  0  0  0
   -2.4455   -0.6673   -0.2076 H   0  0  0  0  0  0  0  0  0  0  0  0
   -0.4290   -0.2944    0.4014 C   0  0  1  0  0  0  0  0  0  0  0  0
    0.2189   -0.7097    1.1799 H   0  0  0  0  0  0  0  0  0  0  0  0
    0.2649   -0.5553   -0.9553 C   0  0  0  0  0  0  0  0  0  0  0  0
    1.2293   -0.0376   -0.9365 H   0  0  0  0  0  0  0  0  0  0  0  0
    0.4824   -1.6259   -1.0443 H   0  0  0  0  0  0  0  0  0  0  0  0
   -0.5097   -0.0791   -2.2116 C   0  0  0  0  0  0  0  0  0  0  0  0
   -1.0651    0.8370   -2.0049 H   0  0  0  0  0  0  0  0  0  0  0  0
    0.2282    0.1634   -2.9809 H   0  0  0  0  0  0  0  0  0  0  0  0
   -1.4640   -1.1024   -2.8277 C   0  0  0  0  0  0  0  0  0  0  0  0
   -1.7585   -2.1637   -2.3104 O   0  0  0  0  0  0  0  0  0  0  0  0
   -2.0929   -0.8441   -4.0114 N   0  0  0  0  0  0  0  0  0  0  0  0
   -2.8391   -1.4823   -4.2714 H   0  0  0  0  0  0  0  0  0  0  0  0
   -2.0693    0.0981   -4.3872 H   0  0  0  0  0  0  0  0  0  0  0  0
   -0.5644    1.2100    0.7241 C   0  0  0  0  0  0  0  0  0  0  0  0
   -1.4633    1.8821    0.2304 O   0  0  0  0  0  0  0  0  0  0  0  0
    0.3211    1.8115    1.5997 N   0  0  0  0  0  0  0  0  0  0  0  0
    0.9778    1.2066    2.0852 H   0  0  0  0  0  0  0  0  0  0  0  0
    0.2049    3.2021    2.0218 C   0  0  0  0  0  0  0  0  0  0  0  0
   -0.7286    3.3584    2.5722 H   0  0  0  0  0  0  0  0  0  0  0  0
    1.0417    3.4705    2.6736 H   0  0  0  0  0  0  0  0  0  0  0  0
    0.2182    3.8691    1.1534 H   0  0  0  0  0  0  0  0  0  0  0  0
  1  2  1  0  0  0  0
  2  3  1  0  0  0  0
  2  4  1  0  0  0  0
  2  5  1  0  0  0  0
  5  6  2  0  0  0  0
  5  7  1  0  0  0  0
  7  8  1  0  0  0  0
  7  9  1  0  0  0  0
  9 10  1  0  0  0  0
  9 11  1  0  0  0  0
  9 22  1  0  0  0  0
 11 12  1  0  0  0  0
 11 13  1  0  0  0  0
 11 14  1  0  0  0  0
 14 15  1  0  0  0  0
 14 16  1  0  0  0  0
 14 17  1  0  0  0  0
 17 18  2  0  0  0  0
 17 19  1  0  0  0  0
 19 20  1  0  0  0  0
 19 21  1  0  0  0  0
 22 23  2  0  0  0  0
 22 24  1  0  0  0  0
 24 25  1  0  0  0  0
 24 26  1  0  0  0  0
 26 27  1  0  0  0  0
 26 28  1  0  0  0  0
 26 29  1  0  0  0  0
M  END
$$$$

  -OEChem-04042215583D

 29 28  0     1  0  0  0  0  0999 V2000
   -3.4849   -3.7110    1.3042 H   0  0  0  0  0  0  0  0  0  0  0  0
   -3.3770   -2.8154    0.6863 C   0  0  0  0  0  0  0  0  0  0  0  0
   -4.1700   -2.1102    0.9459 H   0  0  0  0  0  0  0  0  0  0  0  0
   -3.4779   -3.0977   -0.3648 H   0  0  0  0  0  0  0  0  0  0  0  0
   -2.0198   -2.1797    0.9187 C   0  0  0  0  0  0  0  0  0  0  0  0
   -1.2112   -2.7143    1.6618 O   0  0  0  0  0  0  0  0  0  0  0  0
   -1.7046   -0.9963    0.2836 N   0  0  0  0  0  0  0  0  0  0  0  0
   -2.4161   -0.5877   -0.3195 H   0  0  0  0  0  0  0  0  0  0  0  0
   -0.3934   -0.3355    0.3437 C   0  0  1  0  0  0  0  0  0  0  0  0
    0.1756   -0.7308    1.1915 H   0  0  0  0  0  0  0  0  0  0  0  0
    0.4083   -0.6424   -0.9420 C   0  0  0  0  0  0  0  0  0  0  0  0
    1.3873   -0.1608   -0.8540 H   0  0  0  0  0  0  0  0  0  0  0  0
    0.5850   -1.7229   -0.9968 H   0  0  0  0  0  0  0  0  0  0  0  0
   -0.2435   -0.1747   -2.2636 C   0  0  0  0  0  0  0  0  0  0  0  0
   -0.5597    0.8680   -2.1950 H   0  0  0  0  0  0  0  0  0  0  0  0
    0.5104   -0.2230   -3.0544 H   0  0  0  0  0  0  0  0  0  0  0  0
   -1.4141   -1.0414   -2.7080 C   0  0  0  0  0  0  0  0  0  0  0  0
   -1.2807   -2.2025   -3.0421 O   0  0  0  0  0  0  0  0  0  0  0  0
   -2.6951   -0.5655   -2.6733 N   0  0  0  0  0  0  0  0  0  0  0  0
   -3.3797   -1.1229   -3.1761 H   0  0  0  0  0  0  0  0  0  0  0  0
   -2.8245    0.4397   -2.5908 H   0  0  0  0  0  0  0  0  0  0  0  0
   -0.5529    1.1802    0.5883 C   0  0  0  0  0  0  0  0  0  0  0  0
   -1.4210    1.8130   -0.0055 O   0  0  0  0  0  0  0  0  0  0  0  0
    0.2417    1.8271    1.5165 N   0  0  0  0  0  0  0  0  0  0  0  0
    0.8780    1.2565    2.0666 H   0  0  0  0  0  0  0  0  0  0  0  0
    0.0759    3.2325    1.8674 C   0  0  0  0  0  0  0  0  0  0  0  0
   -0.9078    3.4007    2.3181 H   0  0  0  0  0  0  0  0  0  0  0  0
    0.8434    3.5361    2.5858 H   0  0  0  0  0  0  0  0  0  0  0  0
    0.1690    3.8642    0.9776 H   0  0  0  0  0  0  0  0  0  0  0  0
  1  2  1  0  0  0  0
  2  3  1  0  0  0  0
  2  4  1  0  0  0  0
  2  5  1  0  0  0  0
  5  6  2  0  0  0  0
  5  7  1  0  0  0  0
  7  8  1  0  0  0  0
  7  9  1  0  0  0  0
  9 10  1  0  0  0  0
  9 11  1  0  0  0  0
  9 22  1  0  0  0  0
 11 12  1  0  0  0  0
 11 13  1  0  0  0  0
 11 14  1  0  0  0  0
 14 15  1  0  0  0  0
 14 16  1  0  0  0  0
 14 17  1  0  0  0  0
 17 18  2  0  0  0  0
 17 19  1  0  0  0  0
 19 20  1  0  0  0  0
 19 21  1  0  0  0  0
 22 23  2  0  0  0  0
 22 24  1  0  0  0  0
 24 25  1  0  0  0  0
 24 26  1  0  0  0  0
 26 27  1  0  0  0  0
 26 28  1  0  0  0  0
 26 29  1  0  0  0  0
M  END
$$$$

  -OEChem-04042215583D

 29 28  0     1  0  0  0  0  0999 V2000
   -3.4569   -3.7588    1.3860 H   0  0  0  0  0  0  0  0  0  0  0  0
   -3.3734   -2.8528    0.7797 C   0  0  0  0  0  0  0  0  0  0  0  0
   -4.1753   -2.1653    1.0587 H   0  0  0  0  0  0  0  0  0  0  0  0
   -3.4832   -3.1218   -0.2742 H   0  0  0  0  0  0  0  0  0  0  0  0
   -2.0252   -2.1959    1.0035 C   0  0  0  0  0  0  0  0  0  0  0  0
   -1.2146   -2.6985    1.7666 O   0  0  0  0  0  0  0  0  0  0  0  0
   -1.7162   -1.0338    0.3288 N   0  0  0  0  0  0  0  0  0  0  0  0
   -2.4244   -0.6634   -0.3043 H   0  0  0  0  0  0  0  0  0  0  0  0
   -0.4068   -0.3686    0.3573 C   0  0  1  0  0  0  0  0  0  0  0  0
    0.1752   -0.7370    1.2083 H   0  0  0  0  0  0  0  0  0  0  0  0
    0.3921   -0.6690   -0.9347 C   0  0  0  0  0  0  0  0  0  0  0  0
    1.3770   -0.1987   -0.8488 H   0  0  0  0  0  0  0  0  0  0  0  0
    0.5547   -1.7517   -0.9837 H   0  0  0  0  0  0  0  0  0  0  0  0
   -0.2441   -0.2194   -2.2728 C   0  0  0  0  0  0  0  0  0  0  0  0
   -0.3341    0.8695   -2.2902 H   0  0  0  0  0  0  0  0  0  0  0  0
    0.4358   -0.4925   -3.0848 H   0  0  0  0  0  0  0  0  0  0  0  0
   -1.6026   -0.8293   -2.5905 C   0  0  0  0  0  0  0  0  0  0  0  0
   -1.7281   -1.9566   -3.0274 O   0  0  0  0  0  0  0  0  0  0  0  0
   -2.7576   -0.1440   -2.3327 N   0  0  0  0  0  0  0  0  0  0  0  0
   -3.5985   -0.4967   -2.7801 H   0  0  0  0  0  0  0  0  0  0  0  0
   -2.6831    0.8411   -2.0800 H   0  0  0  0  0  0  0  0  0  0  0  0
   -0.5866    1.1514    0.5541 C   0  0  0  0  0  0  0  0  0  0  0  0
   -1.4370    1.7593   -0.0916 O   0  0  0  0  0  0  0  0  0  0  0  0
    0.2034    1.8387    1.4564 N   0  0  0  0  0  0  0  0  0  0  0  0
    0.8337    1.2923    2.0373 H   0  0  0  0  0  0  0  0  0  0  0  0
    0.0448    3.2603    1.7372 C   0  0  0  0  0  0  0  0  0  0  0  0
   -0.9401    3.4566    2.1737 H   0  0  0  0  0  0  0  0  0  0  0  0
    0.8105    3.5938    2.4443 H   0  0  0  0  0  0  0  0  0  0  0  0
    0.1469    3.8472    0.8183 H   0  0  0  0  0  0  0  0  0  0  0  0
  1  2  1  0  0  0  0
  2  3  1  0  0  0  0
  2  4  1  0  0  0  0
  2  5  1  0  0  0  0
  5  6  2  0  0  0  0
  5  7  1  0  0  0  0
  7  8  1  0  0  0  0
  7  9  1  0  0  0  0
  9 10  1  0  0  0  0
  9 11  1  0  0  0  0
  9 22  1  0  0  0  0
 11 12  1  0  0  0  0
 11 13  1  0  0  0  0
 11 14  1  0  0  0  0
 14 15  1  0  0  0  0
 14 16  1  0  0  0  0
 14 17  1  0  0  0  0
 17 18  2  0  0  0  0
 17 19  1  0  0  0  0
 19 20  1  0  0  0  0
 19 21  1  0  0  0  0
 22 23  2  0  0  0  0
 22 24  1  0  0  0  0
 24 25  1  0  0  0  0
 24 26  1  0  0  0  0
 26 27  1  0  0  0  0
 26 28  1  0  0  0  0
 26 29  1  0  0  0  0
M  END
$$$$

  -OEChem-04042215583D

 29 28  0     1  0  0  0  0  0999 V2000
   -3.3916   -3.8168    1.4398 H   0  0  0  0  0  0  0  0  0  0  0  0
   -3.3456   -2.9058    0.8366 C   0  0  0  0  0  0  0  0  0  0  0  0
   -4.1708   -2.2500    1.1237 H   0  0  0  0  0  0  0  0  0  0  0  0
   -3.4524   -3.1753   -0.2176 H   0  0  0  0  0  0  0  0  0  0  0  0
   -2.0209   -2.1998    1.0534 C   0  0  0  0  0  0  0  0  0  0  0  0
   -1.1984   -2.6620    1.8292 O   0  0  0  0  0  0  0  0  0  0  0  0
   -1.7478   -1.0389    0.3602 N   0  0  0  0  0  0  0  0  0  0  0  0
   -2.4507   -0.7340   -0.3099 H   0  0  0  0  0  0  0  0  0  0  0  0
   -0.4462   -0.3548    0.3556 C   0  0  1  0  0  0  0  0  0  0  0  0
    0.1534   -0.7105    1.1996 H   0  0  0  0  0  0  0  0  0  0  0  0
    0.3429   -0.6592   -0.9419 C   0  0  0  0  0  0  0  0  0  0  0  0
    1.3301   -0.1910   -0.8701 H   0  0  0  0  0  0  0  0  0  0  0  0
    0.5034   -1.7427   -0.9698 H   0  0  0  0  0  0  0  0  0  0  0  0
   -0.2911   -0.2505   -2.2976 C   0  0  0  0  0  0  0  0  0  0  0  0
   -0.1732    0.8296   -2.4223 H   0  0  0  0  0  0  0  0  0  0  0  0
    0.2708   -0.7282   -3.1051 H   0  0  0  0  0  0  0  0  0  0  0  0
   -1.7663   -0.5789   -2.4965 C   0  0  0  0  0  0  0  0  0  0  0  0
   -2.1641   -1.7139   -2.6791 O   0  0  0  0  0  0  0  0  0  0  0  0
   -2.7336    0.3684   -2.3208 N   0  0  0  0  0  0  0  0  0  0  0  0
   -3.6926    0.0373   -2.2944 H   0  0  0  0  0  0  0  0  0  0  0  0
   -2.4722    1.2146   -1.8087 H   0  0  0  0  0  0  0  0  0  0  0  0
   -0.6142    1.1684    0.5417 C   0  0  0  0  0  0  0  0  0  0  0  0
   -1.4488    1.7846   -0.1154 O   0  0  0  0  0  0  0  0  0  0  0  0
    0.2002    1.8588    1.4195 N   0  0  0  0  0  0  0  0  0  0  0  0
    0.8251    1.3120    2.0059 H   0  0  0  0  0  0  0  0  0  0  0  0
    0.0679    3.2878    1.6766 C   0  0  0  0  0  0  0  0  0  0  0  0
   -0.9164    3.5111    2.1014 H   0  0  0  0  0  0  0  0  0  0  0  0
    0.8339    3.6168    2.3854 H   0  0  0  0  0  0  0  0  0  0  0  0
    0.1897    3.8580    0.7496 H   0  0  0  0  0  0  0  0  0  0  0  0
  1  2  1  0  0  0  0
  2  3  1  0  0  0  0
  2  4  1  0  0  0  0
  2  5  1  0  0  0  0
  5  6  2  0  0  0  0
  5  7  1  0  0  0  0
  7  8  1  0  0  0  0
  7  9  1  0  0  0  0
  9 10  1  0  0  0  0
  9 11  1  0  0  0  0
  9 22  1  0  0  0  0
 11 12  1  0  0  0  0
 11 13  1  0  0  0  0
 11 14  1  0  0  0  0
 14 15  1  0  0  0  0
 14 16  1  0  0  0  0
 14 17  1  0  0  0  0
 17 18  2  0  0  0  0
 17 19  1  0  0  0  0
 19 20  1  0  0  0  0
 19 21  1  0  0  0  0
 22 23  2  0  0  0  0
 22 24  1  0  0  0  0
 24 25  1  0  0  0  0
 24 26  1  0  0  0  0
 26 27  1  0  0  0  0
 26 28  1  0  0  0  0
 26 29  1  0  0  0  0
M  END
$$$$

  -OEChem-04042215583D

 29 28  0     1  0  0  0  0  0999 V2000
   -3.2206   -3.9711    1.3650 H   0  0  0  0  0  0  0  0  0  0  0  0
   -3.2598   -3.0130    0.8396 C   0  0  0  0  0  0  0  0  0  0  0  0
   -4.1136   -2.4402    1.2092 H   0  0  0  0  0  0  0  0  0  0  0  0
   -3.3929   -3.2019   -0.2290 H   0  0  0  0  0  0  0  0  0  0  0  0
   -1.9776   -2.2364    1.0696 C   0  0  0  0  0  0  0  0  0  0  0  0
   -1.1250   -2.6713    1.8290 O   0  0  0  0  0  0  0  0  0  0  0  0
   -1.7787   -1.0444    0.4048 N   0  0  0  0  0  0  0  0  0  0  0  0
   -2.4740   -0.8209   -0.3069 H   0  0  0  0  0  0  0  0  0  0  0  0
   -0.4985   -0.3200    0.3653 C   0  0  1  0  0  0  0  0  0  0  0  0
    0.1371   -0.6904    1.1759 H   0  0  0  0  0  0  0  0  0  0  0  0
    0.2542   -0.5987   -0.9584 C   0  0  0  0  0  0  0  0  0  0  0  0
    1.2352   -0.1144   -0.9129 H   0  0  0  0  0  0  0  0  0  0  0  0
    0.4356   -1.6790   -0.9849 H   0  0  0  0  0  0  0  0  0  0  0  0
   -0.4119   -0.2204   -2.3118 C   0  0  0  0  0  0  0  0  0  0  0  0
   -0.1077    0.8011   -2.5569 H   0  0  0  0  0  0  0  0  0  0  0  0
   -0.0098   -0.8690   -3.0951 H   0  0  0  0  0  0  0  0  0  0  0  0
   -1.9361   -0.2587   -2.4021 C   0  0  0  0  0  0  0  0  0  0  0  0
   -2.5542   -1.3079   -2.4142 O   0  0  0  0  0  0  0  0  0  0  0  0
   -2.7033    0.8669   -2.3579 N   0  0  0  0  0  0  0  0  0  0  0  0
   -3.6956    0.6968   -2.2319 H   0  0  0  0  0  0  0  0  0  0  0  0
   -2.2870    1.6604   -1.8663 H   0  0  0  0  0  0  0  0  0  0  0  0
   -0.6392    1.1992    0.6087 C   0  0  0  0  0  0  0  0  0  0  0  0
   -1.4576    1.8688   -0.0121 O   0  0  0  0  0  0  0  0  0  0  0  0
    0.2337    1.8410    1.4678 N   0  0  0  0  0  0  0  0  0  0  0  0
    0.8539    1.2570    2.0225 H   0  0  0  0  0  0  0  0  0  0  0  0
    0.1572    3.2652    1.7711 C   0  0  0  0  0  0  0  0  0  0  0  0
   -0.8001    3.5050    2.2457 H   0  0  0  0  0  0  0  0  0  0  0  0
    0.9634    3.5495    2.4544 H   0  0  0  0  0  0  0  0  0  0  0  0
    0.2562    3.8592    0.8564 H   0  0  0  0  0  0  0  0  0  0  0  0
  1  2  1  0  0  0  0
  2  3  1  0  0  0  0
  2  4  1  0  0  0  0
  2  5  1  0  0  0  0
  5  6  2  0  0  0  0
  5  7  1  0  0  0  0
  7  8  1  0  0  0  0
  7  9  1  0  0  0  0
  9 10  1  0  0  0  0
  9 11  1  0  0  0  0
  9 22  1  0  0  0  0
 11 12  1  0  0  0  0
 11 13  1  0  0  0  0
 11 14  1  0  0  0  0
 14 15  1  0  0  0  0
 14 16  1  0  0  0  0
 14 17  1  0  0  0  0
 17 18  2  0  0  0  0
 17 19  1  0  0  0  0
 19 20  1  0  0  0  0
 19 21  1  0  0  0  0
 22 23  2  0  0  0  0
 22 24  1  0  0  0  0
 24 25  1  0  0  0  0
 24 26  1  0  0  0  0
 26 27  1  0  0  0  0
 26 28  1  0  0  0  0
 26 29  1  0  0  0  0
M  END
$$$$

  -OEChem-04042215583D

 29 28  0     1  0  0  0  0  0999 V2000
   -3.3507   -3.7658    1.1746 H   0  0  0  0  0  0  0  0  0  0  0  0
   -3.3659   -2.7379    0.8013 C   0  0  0  0  0  0  0  0  0  0  0  0
   -3.9383   -2.1193    1.4971 H   0  0  0  0  0  0  0  0  0  0  0  0
   -3.8560   -2.7232   -0.1750 H   0  0  0  0  0  0  0  0  0  0  0  0
   -1.9513   -2.2045    0.6784 C   0  0  0  0  0  0  0  0  0  0  0  0
   -0.9992   -2.9297    0.9202 O   0  0  0  0  0  0  0  0  0  0  0  0
   -1.7430   -0.9075    0.2606 N   0  0  0  0  0  0  0  0  0  0  0  0
   -2.5684   -0.3206    0.1301 H   0  0  0  0  0  0  0  0  0  0  0  0
   -0.4449   -0.2220    0.2602 C   0  0  1  0  0  0  0  0  0  0  0  0
    0.2092   -0.7527    0.9599 H   0  0  0  0  0  0  0  0  0  0  0  0
    0.2594   -0.2754   -1.1137 C   0  0  0  0  0  0  0  0  0  0  0  0
    1.2494    0.1808   -1.0080 H   0  0  0  0  0  0  0  0  0  0  0  0
    0.4261   -1.3370   -1.3269 H   0  0  0  0  0  0  0  0  0  0  0  0
   -0.4143    0.3371   -2.3727 C   0  0  0  0  0  0  0  0  0  0  0  0
    0.1088    1.2722   -2.5960 H   0  0  0  0  0  0  0  0  0  0  0  0
   -0.2422   -0.3321   -3.2197 H   0  0  0  0  0  0  0  0  0  0  0  0
   -1.9030    0.6784   -2.3372 C   0  0  0  0  0  0  0  0  0  0  0  0
   -2.3052    1.7986   -2.5808 O   0  0  0  0  0  0  0  0  0  0  0  0
   -2.8655   -0.2904   -2.3955 N   0  0  0  0  0  0  0  0  0  0  0  0
   -3.7646    0.0274   -2.7464 H   0  0  0  0  0  0  0  0  0  0  0  0
   -2.5651   -1.2442   -2.5643 H   0  0  0  0  0  0  0  0  0  0  0  0
   -0.5526    1.2089    0.8261 C   0  0  0  0  0  0  0  0  0  0  0  0
   -1.5611    1.8708    0.6264 O   0  0  0  0  0  0  0  0  0  0  0  0
    0.3847    1.6728    1.7312 N   0  0  0  0  0  0  0  0  0  0  0  0
    1.1582    1.0587    1.9684 H   0  0  0  0  0  0  0  0  0  0  0  0
    0.2662    2.9542    2.4169 C   0  0  0  0  0  0  0  0  0  0  0  0
   -0.6234    2.9658    3.0554 H   0  0  0  0  0  0  0  0  0  0  0  0
    1.1454    3.1311    3.0437 H   0  0  0  0  0  0  0  0  0  0  0  0
    0.1902    3.7713    1.6916 H   0  0  0  0  0  0  0  0  0  0  0  0
  1  2  1  0  0  0  0
  2  3  1  0  0  0  0
  2  4  1  0  0  0  0
  2  5  1  0  0  0  0
  5  6  2  0  0  0  0
  5  7  1  0  0  0  0
  7  8  1  0  0  0  0
  7  9  1  0  0  0  0
  9 10  1  0  0  0  0
  9 11  1  0  0  0  0
  9 22  1  0  0  0  0
 11 12  1  0  0  0  0
 11 13  1  0  0  0  0
 11 14  1  0  0  0  0
 14 15  1  0  0  0  0
 14 16  1  0  0  0  0
 14 17  1  0  0  0  0
 17 18  2  0  0  0  0
 17 19  1  0  0  0  0
 19 20  1  0  0  0  0
 19 21  1  0  0  0  0
 22 23  2  0  0  0  0
 22 24  1  0  0  0  0
 24 25  1  0  0  0  0
 24 26  1  0  0  0  0
 26 27  1  0  0  0  0
 26 28  1  0  0  0  0
 26 29  1  0  0  0  0
M  END
$$$$

  -OEChem-04042215583D

 29 28  0     1  0  0  0  0  0999 V2000
   -3.1411   -3.9645    1.5049 H   0  0  0  0  0  0  0  0  0  0  0  0
   -3.2205   -2.9966    1.0026 C   0  0  0  0  0  0  0  0  0  0  0  0
   -4.0174   -2.4170    1.4744 H   0  0  0  0  0  0  0  0  0  0  0  0
   -3.4755   -3.1621   -0.0473 H   0  0  0  0  0  0  0  0  0  0  0  0
   -1.9076   -2.2440    1.1020 C   0  0  0  0  0  0  0  0  0  0  0  0
   -0.9687   -2.7250    1.7191 O   0  0  0  0  0  0  0  0  0  0  0  0
   -1.7770   -1.0245    0.4732 N   0  0  0  0  0  0  0  0  0  0  0  0
   -2.5550   -0.7414   -0.1300 H   0  0  0  0  0  0  0  0  0  0  0  0
   -0.5301   -0.2556    0.3642 C   0  0  1  0  0  0  0  0  0  0  0  0
    0.1460   -0.6225    1.1432 H   0  0  0  0  0  0  0  0  0  0  0  0
    0.1645   -0.5758   -0.9791 C   0  0  0  0  0  0  0  0  0  0  0  0
    1.1160   -0.0344   -0.9988 H   0  0  0  0  0  0  0  0  0  0  0  0
    0.4133   -1.6427   -0.9628 H   0  0  0  0  0  0  0  0  0  0  0  0
   -0.5715   -0.2934   -2.3222 C   0  0  0  0  0  0  0  0  0  0  0  0
    0.0515    0.3808   -2.9163 H   0  0  0  0  0  0  0  0  0  0  0  0
   -0.6349   -1.2333   -2.8785 H   0  0  0  0  0  0  0  0  0  0  0  0
   -1.9814    0.2967   -2.2865 C   0  0  0  0  0  0  0  0  0  0  0  0
   -2.9536   -0.3996   -2.0450 O   0  0  0  0  0  0  0  0  0  0  0  0
   -2.2418    1.5942   -2.6180 N   0  0  0  0  0  0  0  0  0  0  0  0
   -3.1776    1.8926   -2.3592 H   0  0  0  0  0  0  0  0  0  0  0  0
   -1.4832    2.2494   -2.4609 H   0  0  0  0  0  0  0  0  0  0  0  0
   -0.6505    1.2563    0.6629 C   0  0  0  0  0  0  0  0  0  0  0  0
   -1.5517    1.9402    0.1979 O   0  0  0  0  0  0  0  0  0  0  0  0
    0.2939    1.8684    1.4674 N   0  0  0  0  0  0  0  0  0  0  0  0
    0.9686    1.2658    1.9306 H   0  0  0  0  0  0  0  0  0  0  0  0
    0.2106    3.2655    1.8775 C   0  0  0  0  0  0  0  0  0  0  0  0
   -0.7069    3.4433    2.4484 H   0  0  0  0  0  0  0  0  0  0  0  0
    1.0665    3.5257    2.5079 H   0  0  0  0  0  0  0  0  0  0  0  0
    0.2147    3.9240    1.0025 H   0  0  0  0  0  0  0  0  0  0  0  0
  1  2  1  0  0  0  0
  2  3  1  0  0  0  0
  2  4  1  0  0  0  0
  2  5  1  0  0  0  0
  5  6  2  0  0  0  0
  5  7  1  0  0  0  0
  7  8  1  0  0  0  0
  7  9  1  0  0  0  0
  9 10  1  0  0  0  0
  9 11  1  0  0  0  0
  9 22  1  0  0  0  0
 11 12  1  0  0  0  0
 11 13  1  0  0  0  0
 11 14  1  0  0  0  0
 14 15  1  0  0  0  0
 14 16  1  0  0  0  0
 14 17  1  0  0  0  0
 17 18  2  0  0  0  0
 17 19  1  0  0  0  0
 19 20  1  0  0  0  0
 19 21  1  0  0  0  0
 22 23  2  0  0  0  0
 22 24  1  0  0  0  0
 24 25  1  0  0  0  0
 24 26  1  0  0  0  0
 26 27  1  0  0  0  0
 26 28  1  0  0  0  0
 26 29  1  0  0  0  0
M  END
$$$$

  -OEChem-04042215583D

 29 28  0     1  0  0  0  0  0999 V2000
   -2.9424   -3.8912    1.8417 H   0  0  0  0  0  0  0  0  0  0  0  0
   -3.0844   -2.9469    1.3090 C   0  0  0  0  0  0  0  0  0  0  0  0
   -3.8272   -2.3481    1.8418 H   0  0  0  0  0  0  0  0  0  0  0  0
   -3.4551   -3.1602    0.3032 H   0  0  0  0  0  0  0  0  0  0  0  0
   -1.7733   -2.1889    1.2259 C   0  0  0  0  0  0  0  0  0  0  0  0
   -0.7621   -2.6525    1.7320 O   0  0  0  0  0  0  0  0  0  0  0  0
   -1.7255   -0.9860    0.5549 N   0  0  0  0  0  0  0  0  0  0  0  0
   -2.5775   -0.6919    0.0676 H   0  0  0  0  0  0  0  0  0  0  0  0
   -0.5179   -0.1875    0.3113 C   0  0  1  0  0  0  0  0  0  0  0  0
    0.2171   -0.5024    1.0590 H   0  0  0  0  0  0  0  0  0  0  0  0
    0.0972   -0.5885   -1.0489 C   0  0  0  0  0  0  0  0  0  0  0  0
    1.0094    0.0032   -1.1783 H   0  0  0  0  0  0  0  0  0  0  0  0
    0.4095   -1.6365   -0.9821 H   0  0  0  0  0  0  0  0  0  0  0  0
   -0.7560   -0.4270   -2.3376 C   0  0  0  0  0  0  0  0  0  0  0  0
   -0.1191   -0.0351   -3.1352 H   0  0  0  0  0  0  0  0  0  0  0  0
   -1.0765   -1.4249   -2.6525 H   0  0  0  0  0  0  0  0  0  0  0  0
   -2.0165    0.4280   -2.2646 C   0  0  0  0  0  0  0  0  0  0  0  0
   -3.0694   -0.0525   -1.8791 O   0  0  0  0  0  0  0  0  0  0  0  0
   -2.0482    1.7263   -2.6838 N   0  0  0  0  0  0  0  0  0  0  0  0
   -2.8532    2.2379   -2.3320 H   0  0  0  0  0  0  0  0  0  0  0  0
   -1.1598    2.2116   -2.7247 H   0  0  0  0  0  0  0  0  0  0  0  0
   -0.6404    1.3328    0.5720 C   0  0  0  0  0  0  0  0  0  0  0  0
   -1.6280    1.9749    0.2446 O   0  0  0  0  0  0  0  0  0  0  0  0
    0.3637    1.9853    1.2655 N   0  0  0  0  0  0  0  0  0  0  0  0
    1.1080    1.4116    1.6523 H   0  0  0  0  0  0  0  0  0  0  0  0
    0.2694    3.3792    1.6846 C   0  0  0  0  0  0  0  0  0  0  0  0
   -0.5889    3.5225    2.3495 H   0  0  0  0  0  0  0  0  0  0  0  0
    1.1760    3.6751    2.2211 H   0  0  0  0  0  0  0  0  0  0  0  0
    0.1547    4.0341    0.8146 H   0  0  0  0  0  0  0  0  0  0  0  0
  1  2  1  0  0  0  0
  2  3  1  0  0  0  0
  2  4  1  0  0  0  0
  2  5  1  0  0  0  0
  5  6  2  0  0  0  0
  5  7  1  0  0  0  0
  7  8  1  0  0  0  0
  7  9  1  0  0  0  0
  9 10  1  0  0  0  0
  9 11  1  0  0  0  0
  9 22  1  0  0  0  0
 11 12  1  0  0  0  0
 11 13  1  0  0  0  0
 11 14  1  0  0  0  0
 14 15  1  0  0  0  0
 14 16  1  0  0  0  0
 14 17  1  0  0  0  0
 17 18  2  0  0  0  0
 17 19  1  0  0  0  0
 19 20  1  0  0  0  0
 19 21  1  0  0  0  0
 22 23  2  0  0  0  0
 22 24  1  0  0  0  0
 24 25  1  0  0  0  0
 24 26  1  0  0  0  0
 26 27  1  0  0  0  0
 26 28  1  0  0  0  0
 26 29  1  0  0  0  0
M  END
$$$$

  -OEChem-04042215583D

 29 28  0     1  0  0  0  0  0999 V2000
   -3.3989   -3.5537    1.5124 H   0  0  0  0  0  0  0  0  0  0  0  0
   -3.3986   -2.5570    1.0620 C   0  0  0  0  0  0  0  0  0  0  0  0
   -3.9205   -1.8683    1.7307 H   0  0  0  0  0  0  0  0  0  0  0  0
   -3.9302   -2.6021    0.1085 H   0  0  0  0  0  0  0  0  0  0  0  0
   -1.9744   -2.0841    0.8406 C   0  0  0  0  0  0  0  0  0  0  0  0
   -1.0368   -2.7869    1.1828 O   0  0  0  0  0  0  0  0  0  0  0  0
   -1.7438   -0.8634    0.2396 N   0  0  0  0  0  0  0  0  0  0  0  0
   -2.5534   -0.2487    0.1573 H   0  0  0  0  0  0  0  0  0  0  0  0
   -0.4405   -0.1813    0.2584 C   0  0  1  0  0  0  0  0  0  0  0  0
    0.1183   -0.5730    1.1154 H   0  0  0  0  0  0  0  0  0  0  0  0
    0.4099   -0.5492   -0.9797 C   0  0  0  0  0  0  0  0  0  0  0  0
    1.3642   -0.0228   -0.8718 H   0  0  0  0  0  0  0  0  0  0  0  0
    0.6318   -1.6210   -0.9343 H   0  0  0  0  0  0  0  0  0  0  0  0
   -0.1218   -0.2340   -2.3979 C   0  0  0  0  0  0  0  0  0  0  0  0
    0.7259   -0.1127   -3.0788 H   0  0  0  0  0  0  0  0  0  0  0  0
   -0.6899   -1.1010   -2.7461 H   0  0  0  0  0  0  0  0  0  0  0  0
   -1.0291    0.9790   -2.5349 C   0  0  0  0  0  0  0  0  0  0  0  0
   -0.5558    2.0850   -2.7123 O   0  0  0  0  0  0  0  0  0  0  0  0
   -2.3905    0.8840   -2.5092 N   0  0  0  0  0  0  0  0  0  0  0  0
   -2.7869    0.0284   -2.1411 H   0  0  0  0  0  0  0  0  0  0  0  0
   -2.8592    1.7670   -2.3233 H   0  0  0  0  0  0  0  0  0  0  0  0
   -0.6008    1.3214    0.5863 C   0  0  0  0  0  0  0  0  0  0  0  0
   -1.6669    1.8737    0.3329 O   0  0  0  0  0  0  0  0  0  0  0  0
    0.2467    1.9272    1.4959 N   0  0  0  0  0  0  0  0  0  0  0  0
    1.0865    1.4241    1.7665 H   0  0  0  0  0  0  0  0  0  0  0  0
    0.0549    3.2879    1.9838 C   0  0  0  0  0  0  0  0  0  0  0  0
   -0.8648    3.3576    2.5740 H   0  0  0  0  0  0  0  0  0  0  0  0
    0.8959    3.5845    2.6178 H   0  0  0  0  0  0  0  0  0  0  0  0
   -0.0095    3.9903    1.1457 H   0  0  0  0  0  0  0  0  0  0  0  0
  1  2  1  0  0  0  0
  2  3  1  0  0  0  0
  2  4  1  0  0  0  0
  2  5  1  0  0  0  0
  5  6  2  0  0  0  0
  5  7  1  0  0  0  0
  7  8  1  0  0  0  0
  7  9  1  0  0  0  0
  9 10  1  0  0  0  0
  9 11  1  0  0  0  0
  9 22  1  0  0  0  0
 11 12  1  0  0  0  0
 11 13  1  0  0  0  0
 11 14  1  0  0  0  0
 14 15  1  0  0  0  0
 14 16  1  0  0  0  0
 14 17  1  0  0  0  0
 17 18  2  0  0  0  0
 17 19  1  0  0  0  0
 19 20  1  0  0  0  0
 19 21  1  0  0  0  0
 22 23  2  0  0  0  0
 22 24  1  0  0  0  0
 24 25  1  0  0  0  0
 24 26  1  0  0  0  0
 26 27  1  0  0  0  0
 26 28  1  0  0  0  0
 26 29  1  0  0  0  0
M  END
$$$$

  -OEChem-04042215583D

 29 28  0     1  0  0  0  0  0999 V2000
   -3.5177   -3.6367    1.1478 H   0  0  0  0  0  0  0  0  0  0  0  0
   -3.4714   -2.6439    0.6915 C   0  0  0  0  0  0  0  0  0  0  0  0
   -4.0701   -1.9535    1.2907 H   0  0  0  0  0  0  0  0  0  0  0  0
   -3.8903   -2.6993   -0.3161 H   0  0  0  0  0  0  0  0  0  0  0  0
   -2.0334   -2.1647    0.6293 C   0  0  0  0  0  0  0  0  0  0  0  0
   -1.1310   -2.8887    1.0190 O   0  0  0  0  0  0  0  0  0  0  0  0
   -1.7498   -0.9128    0.1228 N   0  0  0  0  0  0  0  0  0  0  0  0
   -2.5476   -0.2938   -0.0165 H   0  0  0  0  0  0  0  0  0  0  0  0
   -0.4482   -0.2453    0.2771 C   0  0  1  0  0  0  0  0  0  0  0  0
    0.0548   -0.6940    1.1403 H   0  0  0  0  0  0  0  0  0  0  0  0
    0.4665   -0.5428   -0.9343 C   0  0  0  0  0  0  0  0  0  0  0  0
    1.4249   -0.0471   -0.7457 H   0  0  0  0  0  0  0  0  0  0  0  0
    0.6628   -1.6203   -0.9556 H   0  0  0  0  0  0  0  0  0  0  0  0
   -0.0027   -0.1165   -2.3436 C   0  0  0  0  0  0  0  0  0  0  0  0
    0.8358   -0.1972   -3.0410 H   0  0  0  0  0  0  0  0  0  0  0  0
   -0.7705   -0.8194   -2.6778 H   0  0  0  0  0  0  0  0  0  0  0  0
   -0.5772    1.2883   -2.4456 C   0  0  0  0  0  0  0  0  0  0  0  0
    0.1461    2.2583   -2.3171 O   0  0  0  0  0  0  0  0  0  0  0  0
   -1.9001    1.5300   -2.6783 N   0  0  0  0  0  0  0  0  0  0  0  0
   -2.1913    2.4720   -2.4305 H   0  0  0  0  0  0  0  0  0  0  0  0
   -2.5438    0.7653   -2.5172 H   0  0  0  0  0  0  0  0  0  0  0  0
   -0.6343    1.2353    0.6828 C   0  0  0  0  0  0  0  0  0  0  0  0
   -1.6718    1.8117    0.3674 O   0  0  0  0  0  0  0  0  0  0  0  0
    0.1412    1.7842    1.6874 N   0  0  0  0  0  0  0  0  0  0  0  0
    0.9717    1.2733    1.9722 H   0  0  0  0  0  0  0  0  0  0  0  0
   -0.0644    3.1312    2.2064 C   0  0  0  0  0  0  0  0  0  0  0  0
   -1.0548    3.2194    2.6654 H   0  0  0  0  0  0  0  0  0  0  0  0
    0.6889    3.3627    2.9654 H   0  0  0  0  0  0  0  0  0  0  0  0
    0.0183    3.8681    1.4003 H   0  0  0  0  0  0  0  0  0  0  0  0
  1  2  1  0  0  0  0
  2  3  1  0  0  0  0
  2  4  1  0  0  0  0
  2  5  1  0  0  0  0
  5  6  2  0  0  0  0
  5  7  1  0  0  0  0
  7  8  1  0  0  0  0
  7  9  1  0  0  0  0
  9 10  1  0  0  0  0
  9 11  1  0  0  0  0
  9 22  1  0  0  0  0
 11 12  1  0  0  0  0
 11 13  1  0  0  0  0
 11 14  1  0  0  0  0
 14 15  1  0  0  0  0
 14 16  1  0  0  0  0
 14 17  1  0  0  0  0
 17 18  2  0  0  0  0
 17 19  1  0  0  0  0
 19 20  1  0  0  0  0
 19 21  1  0  0  0  0
 22 23  2  0  0  0  0
 22 24  1  0  0  0  0
 24 25  1  0  0  0  0
 24 26  1  0  0  0  0
 26 27  1  0  0  0  0
 26 28  1  0  0  0  0
 26 29  1  0  0  0  0
M  END
$$$$

  -OEChem-04042215583D

 29 28  0     1  0  0  0  0  0999 V2000
   -3.4179   -3.6899    1.3086 H   0  0  0  0  0  0  0  0  0  0  0  0
   -3.3920   -2.7152    0.8133 C   0  0  0  0  0  0  0  0  0  0  0  0
   -3.9985   -2.0119    1.3890 H   0  0  0  0  0  0  0  0  0  0  0  0
   -3.8164   -2.8176   -0.1882 H   0  0  0  0  0  0  0  0  0  0  0  0
   -1.9633   -2.2132    0.7224 C   0  0  0  0  0  0  0  0  0  0  0  0
   -1.0458   -2.9044    1.1357 O   0  0  0  0  0  0  0  0  0  0  0  0
   -1.7064   -0.9757    0.1689 N   0  0  0  0  0  0  0  0  0  0  0  0
   -2.5155   -0.3818   -0.0086 H   0  0  0  0  0  0  0  0  0  0  0  0
   -0.4113   -0.2852    0.2687 C   0  0  1  0  0  0  0  0  0  0  0  0
    0.1351   -0.7037    1.1207 H   0  0  0  0  0  0  0  0  0  0  0  0
    0.4529   -0.5729   -0.9802 C   0  0  0  0  0  0  0  0  0  0  0  0
    1.4220   -0.0808   -0.8434 H   0  0  0  0  0  0  0  0  0  0  0  0
    0.6430   -1.6510   -1.0142 H   0  0  0  0  0  0  0  0  0  0  0  0
   -0.1124   -0.1461   -2.3529 C   0  0  0  0  0  0  0  0  0  0  0  0
    0.5953   -0.4325   -3.1358 H   0  0  0  0  0  0  0  0  0  0  0  0
   -1.0430   -0.6880   -2.5404 H   0  0  0  0  0  0  0  0  0  0  0  0
   -0.3780    1.3486   -2.4831 C   0  0  0  0  0  0  0  0  0  0  0  0
    0.5109    2.1573   -2.2888 O   0  0  0  0  0  0  0  0  0  0  0  0
   -1.6054    1.8547   -2.7984 N   0  0  0  0  0  0  0  0  0  0  0  0
   -1.7057    2.8413   -2.5770 H   0  0  0  0  0  0  0  0  0  0  0  0
   -2.4016    1.2462   -2.6498 H   0  0  0  0  0  0  0  0  0  0  0  0
   -0.6221    1.2026    0.6289 C   0  0  0  0  0  0  0  0  0  0  0  0
   -1.6558    1.7617    0.2714 O   0  0  0  0  0  0  0  0  0  0  0  0
    0.1600    1.8048    1.5966 N   0  0  0  0  0  0  0  0  0  0  0  0
    1.0030    1.3176    1.8864 H   0  0  0  0  0  0  0  0  0  0  0  0
   -0.0421    3.1782    2.0415 C   0  0  0  0  0  0  0  0  0  0  0  0
   -1.0350    3.2956    2.4880 H   0  0  0  0  0  0  0  0  0  0  0  0
    0.7069    3.4455    2.7930 H   0  0  0  0  0  0  0  0  0  0  0  0
    0.0505    3.8708    1.1982 H   0  0  0  0  0  0  0  0  0  0  0  0
  1  2  1  0  0  0  0
  2  3  1  0  0  0  0
  2  4  1  0  0  0  0
  2  5  1  0  0  0  0
  5  6  2  0  0  0  0
  5  7  1  0  0  0  0
  7  8  1  0  0  0  0
  7  9  1  0  0  0  0
  9 10  1  0  0  0  0
  9 11  1  0  0  0  0
  9 22  1  0  0  0  0
 11 12  1  0  0  0  0
 11 13  1  0  0  0  0
 11 14  1  0  0  0  0
 14 15  1  0  0  0  0
 14 16  1  0  0  0  0
 14 17  1  0  0  0  0
 17 18  2  0  0  0  0
 17 19  1  0  0  0  0
 19 20  1  0  0  0  0
 19 21  1  0  0  0  0
 22 23  2  0  0  0  0
 22 24  1  0  0  0  0
 24 25  1  0  0  0  0
 24 26  1  0  0  0  0
 26 27  1  0  0  0  0
 26 28  1  0  0  0  0
 26 29  1  0  0  0  0
M  END
$$$$

  -OEChem-04042215583D

 29 28  0     1  0  0  0  0  0999 V2000
   -3.4025   -3.7354    1.3448 H   0  0  0  0  0  0  0  0  0  0  0  0
   -3.3764   -2.7614    0.8478 C   0  0  0  0  0  0  0  0  0  0  0  0
   -4.0094   -2.0655    1.4036 H   0  0  0  0  0  0  0  0  0  0  0  0
   -3.7705   -2.8728   -0.1652 H   0  0  0  0  0  0  0  0  0  0  0  0
   -1.9531   -2.2386    0.7957 C   0  0  0  0  0  0  0  0  0  0  0  0
   -1.0447   -2.8899    1.2861 O   0  0  0  0  0  0  0  0  0  0  0  0
   -1.6905   -1.0273    0.1896 N   0  0  0  0  0  0  0  0  0  0  0  0
   -2.4973   -0.4622   -0.0703 H   0  0  0  0  0  0  0  0  0  0  0  0
   -0.3990   -0.3264    0.2677 C   0  0  1  0  0  0  0  0  0  0  0  0
    0.1595   -0.7111    1.1277 H   0  0  0  0  0  0  0  0  0  0  0  0
    0.4506   -0.6214   -0.9876 C   0  0  0  0  0  0  0  0  0  0  0  0
    1.4311   -0.1450   -0.8755 H   0  0  0  0  0  0  0  0  0  0  0  0
    0.6239   -1.7025   -1.0189 H   0  0  0  0  0  0  0  0  0  0  0  0
   -0.1598   -0.2011   -2.3429 C   0  0  0  0  0  0  0  0  0  0  0  0
    0.3960   -0.6892   -3.1482 H   0  0  0  0  0  0  0  0  0  0  0  0
   -1.1956   -0.5431   -2.4099 H   0  0  0  0  0  0  0  0  0  0  0  0
   -0.1021    1.3033   -2.5929 C   0  0  0  0  0  0  0  0  0  0  0  0
    0.9568    1.9031   -2.5808 O   0  0  0  0  0  0  0  0  0  0  0  0
   -1.2160    2.0597   -2.8103 N   0  0  0  0  0  0  0  0  0  0  0  0
   -1.0434    3.0576   -2.7382 H   0  0  0  0  0  0  0  0  0  0  0  0
   -2.0767    1.7012   -2.4088 H   0  0  0  0  0  0  0  0  0  0  0  0
   -0.6259    1.1728    0.5561 C   0  0  0  0  0  0  0  0  0  0  0  0
   -1.6268    1.7239    0.1051 O   0  0  0  0  0  0  0  0  0  0  0  0
    0.1373    1.8320    1.5008 N   0  0  0  0  0  0  0  0  0  0  0  0
    0.9477    1.3452    1.8736 H   0  0  0  0  0  0  0  0  0  0  0  0
   -0.0734    3.2270    1.8677 C   0  0  0  0  0  0  0  0  0  0  0  0
   -1.0833    3.3710    2.2657 H   0  0  0  0  0  0  0  0  0  0  0  0
    0.6456    3.5285    2.6354 H   0  0  0  0  0  0  0  0  0  0  0  0
    0.0586    3.8762    0.9957 H   0  0  0  0  0  0  0  0  0  0  0  0
  1  2  1  0  0  0  0
  2  3  1  0  0  0  0
  2  4  1  0  0  0  0
  2  5  1  0  0  0  0
  5  6  2  0  0  0  0
  5  7  1  0  0  0  0
  7  8  1  0  0  0  0
  7  9  1  0  0  0  0
  9 10  1  0  0  0  0
  9 11  1  0  0  0  0
  9 22  1  0  0  0  0
 11 12  1  0  0  0  0
 11 13  1  0  0  0  0
 11 14  1  0  0  0  0
 14 15  1  0  0  0  0
 14 16  1  0  0  0  0
 14 17  1  0  0  0  0
 17 18  2  0  0  0  0
 17 19  1  0  0  0  0
 19 20  1  0  0  0  0
 19 21  1  0  0  0  0
 22 23  2  0  0  0  0
 22 24  1  0  0  0  0
 24 25  1  0  0  0  0
 24 26  1  0  0  0  0
 26 27  1  0  0  0  0
 26 28  1  0  0  0  0
 26 29  1  0  0  0  0
M  END
$$$$

  -OEChem-04042215583D

 29 28  0     1  0  0  0  0  0999 V2000
   -3.3566   -3.7837    1.3991 H   0  0  0  0  0  0  0  0  0  0  0  0
   -3.3503   -2.8148    0.8917 C   0  0  0  0  0  0  0  0  0  0  0  0
   -4.0142   -2.1320    1.4273 H   0  0  0  0  0  0  0  0  0  0  0  0
   -3.7215   -2.9492   -0.1271 H   0  0  0  0  0  0  0  0  0  0  0  0
   -1.9424   -2.2503    0.8606 C   0  0  0  0  0  0  0  0  0  0  0  0
   -1.0319   -2.8479    1.4120 O   0  0  0  0  0  0  0  0  0  0  0  0
   -1.6951   -1.0605    0.2069 N   0  0  0  0  0  0  0  0  0  0  0  0
   -2.5042   -0.5437   -0.1341 H   0  0  0  0  0  0  0  0  0  0  0  0
   -0.4138   -0.3384    0.2508 C   0  0  1  0  0  0  0  0  0  0  0  0
    0.1609   -0.6876    1.1154 H   0  0  0  0  0  0  0  0  0  0  0  0
    0.4209   -0.6533   -1.0089 C   0  0  0  0  0  0  0  0  0  0  0  0
    1.4018   -0.1714   -0.9277 H   0  0  0  0  0  0  0  0  0  0  0  0
    0.5995   -1.7340   -1.0157 H   0  0  0  0  0  0  0  0  0  0  0  0
   -0.2272   -0.2718   -2.3587 C   0  0  0  0  0  0  0  0  0  0  0  0
    0.1421   -0.9534   -3.1304 H   0  0  0  0  0  0  0  0  0  0  0  0
   -1.3126   -0.3899   -2.3179 H   0  0  0  0  0  0  0  0  0  0  0  0
    0.1180    1.1466   -2.8045 C   0  0  0  0  0  0  0  0  0  0  0  0
    1.2255    1.4205   -3.2265 O   0  0  0  0  0  0  0  0  0  0  0  0
   -0.7614    2.1853   -2.7229 N   0  0  0  0  0  0  0  0  0  0  0  0
   -0.3418    3.0973   -2.8716 H   0  0  0  0  0  0  0  0  0  0  0  0
   -1.4877    2.0994   -2.0102 H   0  0  0  0  0  0  0  0  0  0  0  0
   -0.6500    1.1676    0.4795 C   0  0  0  0  0  0  0  0  0  0  0  0
   -1.6145    1.7156   -0.0475 O   0  0  0  0  0  0  0  0  0  0  0  0
    0.1123    1.8701    1.3928 N   0  0  0  0  0  0  0  0  0  0  0  0
    0.8685    1.3743    1.8576 H   0  0  0  0  0  0  0  0  0  0  0  0
   -0.1182    3.2713    1.7230 C   0  0  0  0  0  0  0  0  0  0  0  0
   -1.1283    3.4102    2.1227 H   0  0  0  0  0  0  0  0  0  0  0  0
    0.6002    3.6048    2.4782 H   0  0  0  0  0  0  0  0  0  0  0  0
   -0.0007    3.8989    0.8334 H   0  0  0  0  0  0  0  0  0  0  0  0
  1  2  1  0  0  0  0
  2  3  1  0  0  0  0
  2  4  1  0  0  0  0
  2  5  1  0  0  0  0
  5  6  2  0  0  0  0
  5  7  1  0  0  0  0
  7  8  1  0  0  0  0
  7  9  1  0  0  0  0
  9 10  1  0  0  0  0
  9 11  1  0  0  0  0
  9 22  1  0  0  0  0
 11 12  1  0  0  0  0
 11 13  1  0  0  0  0
 11 14  1  0  0  0  0
 14 15  1  0  0  0  0
 14 16  1  0  0  0  0
 14 17  1  0  0  0  0
 17 18  2  0  0  0  0
 17 19  1  0  0  0  0
 19 20  1  0  0  0  0
 19 21  1  0  0  0  0
 22 23  2  0  0  0  0
 22 24  1  0  0  0  0
 24 25  1  0  0  0  0
 24 26  1  0  0  0  0
 26 27  1  0  0  0  0
 26 28  1  0  0  0  0
 26 29  1  0  0  0  0
M  END
$$$$

  -OEChem-04042215583D

 29 28  0     1  0  0  0  0  0999 V2000
   -3.3209   -3.8161    1.5089 H   0  0  0  0  0  0  0  0  0  0  0  0
   -3.3209   -2.8895    0.9280 C   0  0  0  0  0  0  0  0  0  0  0  0
   -4.0301   -2.1912    1.3789 H   0  0  0  0  0  0  0  0  0  0  0  0
   -3.6395   -3.1139   -0.0929 H   0  0  0  0  0  0  0  0  0  0  0  0
   -1.9314   -2.2810    0.9155 C   0  0  0  0  0  0  0  0  0  0  0  0
   -1.0192   -2.8291    1.5133 O   0  0  0  0  0  0  0  0  0  0  0  0
   -1.7045   -1.1044    0.2312 N   0  0  0  0  0  0  0  0  0  0  0  0
   -2.5140   -0.6371   -0.1730 H   0  0  0  0  0  0  0  0  0  0  0  0
   -0.4354   -0.3608    0.2475 C   0  0  1  0  0  0  0  0  0  0  0  0
    0.1613   -0.6901    1.1045 H   0  0  0  0  0  0  0  0  0  0  0  0
    0.3774   -0.6655   -1.0272 C   0  0  0  0  0  0  0  0  0  0  0  0
    1.3512   -0.1658   -0.9706 H   0  0  0  0  0  0  0  0  0  0  0  0
    0.5770   -1.7425   -1.0426 H   0  0  0  0  0  0  0  0  0  0  0  0
   -0.3351   -0.2885   -2.3468 C   0  0  0  0  0  0  0  0  0  0  0  0
   -0.1982   -1.0995   -3.0681 H   0  0  0  0  0  0  0  0  0  0  0  0
   -1.4115   -0.1655   -2.2040 H   0  0  0  0  0  0  0  0  0  0  0  0
    0.2468    0.9783   -2.9624 C   0  0  0  0  0  0  0  0  0  0  0  0
    1.3082    0.9712   -3.5566 O   0  0  0  0  0  0  0  0  0  0  0  0
   -0.3389    2.1964   -2.7786 N   0  0  0  0  0  0  0  0  0  0  0  0
    0.2385    2.9976   -3.0115 H   0  0  0  0  0  0  0  0  0  0  0  0
   -1.0238    2.2723   -2.0237 H   0  0  0  0  0  0  0  0  0  0  0  0
   -0.6681    1.1518    0.4389 C   0  0  0  0  0  0  0  0  0  0  0  0
   -1.5666    1.7189   -0.1762 O   0  0  0  0  0  0  0  0  0  0  0  0
    0.1043    1.8743    1.3279 N   0  0  0  0  0  0  0  0  0  0  0  0
    0.8085    1.3690    1.8594 H   0  0  0  0  0  0  0  0  0  0  0  0
   -0.0805    3.2980    1.5817 C   0  0  0  0  0  0  0  0  0  0  0  0
   -1.0816    3.4893    1.9821 H   0  0  0  0  0  0  0  0  0  0  0  0
    0.6566    3.6507    2.3099 H   0  0  0  0  0  0  0  0  0  0  0  0
    0.0459    3.8722    0.6578 H   0  0  0  0  0  0  0  0  0  0  0  0
  1  2  1  0  0  0  0
  2  3  1  0  0  0  0
  2  4  1  0  0  0  0
  2  5  1  0  0  0  0
  5  6  2  0  0  0  0
  5  7  1  0  0  0  0
  7  8  1  0  0  0  0
  7  9  1  0  0  0  0
  9 10  1  0  0  0  0
  9 11  1  0  0  0  0
  9 22  1  0  0  0  0
 11 12  1  0  0  0  0
 11 13  1  0  0  0  0
 11 14  1  0  0  0  0
 14 15  1  0  0  0  0
 14 16  1  0  0  0  0
 14 17  1  0  0  0  0
 17 18  2  0  0  0  0
 17 19  1  0  0  0  0
 19 20  1  0  0  0  0
 19 21  1  0  0  0  0
 22 23  2  0  0  0  0
 22 24  1  0  0  0  0
 24 25  1  0  0  0  0
 24 26  1  0  0  0  0
 26 27  1  0  0  0  0
 26 28  1  0  0  0  0
 26 29  1  0  0  0  0
M  END
$$$$

  -OEChem-04042215583D

 29 28  0     1  0  0  0  0  0999 V2000
   -3.2512   -3.8999    1.5258 H   0  0  0  0  0  0  0  0  0  0  0  0
   -3.2843   -2.9588    0.9696 C   0  0  0  0  0  0  0  0  0  0  0  0
   -4.0131   -2.2958    1.4421 H   0  0  0  0  0  0  0  0  0  0  0  0
   -3.6018   -3.1675   -0.0549 H   0  0  0  0  0  0  0  0  0  0  0  0
   -1.9152   -2.3054    0.9647 C   0  0  0  0  0  0  0  0  0  0  0  0
   -0.9910   -2.8197    1.5739 O   0  0  0  0  0  0  0  0  0  0  0  0
   -1.7203   -1.1296    0.2692 N   0  0  0  0  0  0  0  0  0  0  0  0
   -2.5375   -0.7021   -0.1617 H   0  0  0  0  0  0  0  0  0  0  0  0
   -0.4659   -0.3619    0.2533 C   0  0  1  0  0  0  0  0  0  0  0  0
    0.1554   -0.6836    1.0956 H   0  0  0  0  0  0  0  0  0  0  0  0
    0.3185   -0.6610   -1.0373 C   0  0  0  0  0  0  0  0  0  0  0  0
    1.2754   -0.1271   -1.0073 H   0  0  0  0  0  0  0  0  0  0  0  0
    0.5550   -1.7305   -1.0586 H   0  0  0  0  0  0  0  0  0  0  0  0
   -0.4556   -0.3007   -2.3268 C   0  0  0  0  0  0  0  0  0  0  0  0
   -0.5638   -1.2002   -2.9395 H   0  0  0  0  0  0  0  0  0  0  0  0
   -1.4651    0.0587   -2.1165 H   0  0  0  0  0  0  0  0  0  0  0  0
    0.2896    0.7402   -3.1459 C   0  0  0  0  0  0  0  0  0  0  0  0
    1.2566    0.4610   -3.8285 O   0  0  0  0  0  0  0  0  0  0  0  0
   -0.0217    2.0630   -3.0161 N   0  0  0  0  0  0  0  0  0  0  0  0
    0.6543    2.7239   -3.3852 H   0  0  0  0  0  0  0  0  0  0  0  0
   -0.6446    2.3338   -2.2548 H   0  0  0  0  0  0  0  0  0  0  0  0
   -0.6767    1.1574    0.4361 C   0  0  0  0  0  0  0  0  0  0  0  0
   -1.5234    1.7562   -0.2195 O   0  0  0  0  0  0  0  0  0  0  0  0
    0.1296    1.8716    1.3022 N   0  0  0  0  0  0  0  0  0  0  0  0
    0.8060    1.3501    1.8537 H   0  0  0  0  0  0  0  0  0  0  0  0
   -0.0009    3.3068    1.5234 C   0  0  0  0  0  0  0  0  0  0  0  0
   -0.9979    3.5469    1.9076 H   0  0  0  0  0  0  0  0  0  0  0  0
    0.7411    3.6456    2.2530 H   0  0  0  0  0  0  0  0  0  0  0  0
    0.1589    3.8549    0.5890 H   0  0  0  0  0  0  0  0  0  0  0  0
  1  2  1  0  0  0  0
  2  3  1  0  0  0  0
  2  4  1  0  0  0  0
  2  5  1  0  0  0  0
  5  6  2  0  0  0  0
  5  7  1  0  0  0  0
  7  8  1  0  0  0  0
  7  9  1  0  0  0  0
  9 10  1  0  0  0  0
  9 11  1  0  0  0  0
  9 22  1  0  0  0  0
 11 12  1  0  0  0  0
 11 13  1  0  0  0  0
 11 14  1  0  0  0  0
 14 15  1  0  0  0  0
 14 16  1  0  0  0  0
 14 17  1  0  0  0  0
 17 18  2  0  0  0  0
 17 19  1  0  0  0  0
 19 20  1  0  0  0  0
 19 21  1  0  0  0  0
 22 23  2  0  0  0  0
 22 24  1  0  0  0  0
 24 25  1  0  0  0  0
 24 26  1  0  0  0  0
 26 27  1  0  0  0  0
 26 28  1  0  0  0  0
 26 29  1  0  0  0  0
M  END
$$$$

  -OEChem-04042215583D

 29 28  0     1  0  0  0  0  0999 V2000
   -3.2237   -3.8912    1.5881 H   0  0  0  0  0  0  0  0  0  0  0  0
   -3.2738   -2.9366    1.0568 C   0  0  0  0  0  0  0  0  0  0  0  0
   -3.9574   -2.2717    1.5901 H   0  0  0  0  0  0  0  0  0  0  0  0
   -3.6597   -3.1144    0.0501 H   0  0  0  0  0  0  0  0  0  0  0  0
   -1.8952   -2.3080    0.9805 C   0  0  0  0  0  0  0  0  0  0  0  0
   -0.9470   -2.8492    1.5263 O   0  0  0  0  0  0  0  0  0  0  0  0
   -1.7210   -1.1194    0.3014 N   0  0  0  0  0  0  0  0  0  0  0  0
   -2.5558   -0.6628   -0.0610 H   0  0  0  0  0  0  0  0  0  0  0  0
   -0.4629   -0.3599    0.2506 C   0  0  1  0  0  0  0  0  0  0  0  0
    0.1811   -0.6955    1.0702 H   0  0  0  0  0  0  0  0  0  0  0  0
    0.2817   -0.6627   -1.0629 C   0  0  0  0  0  0  0  0  0  0  0  0
    1.2293   -0.1120   -1.0506 H   0  0  0  0  0  0  0  0  0  0  0  0
    0.5356   -1.7280   -1.0964 H   0  0  0  0  0  0  0  0  0  0  0  0
   -0.5153   -0.3005   -2.3374 C   0  0  0  0  0  0  0  0  0  0  0  0
   -0.8974   -1.2165   -2.7967 H   0  0  0  0  0  0  0  0  0  0  0  0
   -1.3816    0.3225   -2.1095 H   0  0  0  0  0  0  0  0  0  0  0  0
    0.3529    0.4301   -3.3510 C   0  0  0  0  0  0  0  0  0  0  0  0
    1.2953   -0.1077   -3.9003 O   0  0  0  0  0  0  0  0  0  0  0  0
    0.1951    1.7669   -3.5800 N   0  0  0  0  0  0  0  0  0  0  0  0
    0.9472    2.2284   -4.0824 H   0  0  0  0  0  0  0  0  0  0  0  0
   -0.4130    2.2979   -2.9624 H   0  0  0  0  0  0  0  0  0  0  0  0
   -0.6667    1.1545    0.4738 C   0  0  0  0  0  0  0  0  0  0  0  0
   -1.5972    1.7447   -0.0636 O   0  0  0  0  0  0  0  0  0  0  0  0
    0.1732    1.8521    1.3217 N   0  0  0  0  0  0  0  0  0  0  0  0
    0.8925    1.3244    1.8092 H   0  0  0  0  0  0  0  0  0  0  0  0
   -0.0026    3.2634    1.6429 C   0  0  0  0  0  0  0  0  0  0  0  0
   -0.9611    3.4250    2.1471 H   0  0  0  0  0  0  0  0  0  0  0  0
    0.7990    3.6026    2.3061 H   0  0  0  0  0  0  0  0  0  0  0  0
    0.0240    3.8711    0.7322 H   0  0  0  0  0  0  0  0  0  0  0  0
  1  2  1  0  0  0  0
  2  3  1  0  0  0  0
  2  4  1  0  0  0  0
  2  5  1  0  0  0  0
  5  6  2  0  0  0  0
  5  7  1  0  0  0  0
  7  8  1  0  0  0  0
  7  9  1  0  0  0  0
  9 10  1  0  0  0  0
  9 11  1  0  0  0  0
  9 22  1  0  0  0  0
 11 12  1  0  0  0  0
 11 13  1  0  0  0  0
 11 14  1  0  0  0  0
 14 15  1  0  0  0  0
 14 16  1  0  0  0  0
 14 17  1  0  0  0  0
 17 18  2  0  0  0  0
 17 19  1  0  0  0  0
 19 20  1  0  0  0  0
 19 21  1  0  0  0  0
 22 23  2  0  0  0  0
 22 24  1  0  0  0  0
 24 25  1  0  0  0  0
 24 26  1  0  0  0  0
 26 27  1  0  0  0  0
 26 28  1  0  0  0  0
 26 29  1  0  0  0  0
M  END
$$$$

  -OEChem-04042215583D

 29 28  0     1  0  0  0  0  0999 V2000
   -3.2976   -3.8388    1.5120 H   0  0  0  0  0  0  0  0  0  0  0  0
   -3.3180   -2.8649    1.0148 C   0  0  0  0  0  0  0  0  0  0  0  0
   -3.9709   -2.1945    1.5790 H   0  0  0  0  0  0  0  0  0  0  0  0
   -3.7207   -2.9929    0.0072 H   0  0  0  0  0  0  0  0  0  0  0  0
   -1.9182   -2.2848    0.9436 C   0  0  0  0  0  0  0  0  0  0  0  0
   -0.9812   -2.8909    1.4384 O   0  0  0  0  0  0  0  0  0  0  0  0
   -1.7118   -1.0707    0.3215 N   0  0  0  0  0  0  0  0  0  0  0  0
   -2.5376   -0.5540    0.0243 H   0  0  0  0  0  0  0  0  0  0  0  0
   -0.4331   -0.3453    0.3088 C   0  0  1  0  0  0  0  0  0  0  0  0
    0.1953   -0.7305    1.1188 H   0  0  0  0  0  0  0  0  0  0  0  0
    0.3147   -0.6198   -1.0093 C   0  0  0  0  0  0  0  0  0  0  0  0
    1.2675   -0.0808   -0.9596 H   0  0  0  0  0  0  0  0  0  0  0  0
    0.5531   -1.6868   -1.0800 H   0  0  0  0  0  0  0  0  0  0  0  0
   -0.4527   -0.1902   -2.2825 C   0  0  0  0  0  0  0  0  0  0  0  0
   -1.0956   -1.0101   -2.6130 H   0  0  0  0  0  0  0  0  0  0  0  0
   -1.0968    0.6641   -2.0683 H   0  0  0  0  0  0  0  0  0  0  0  0
    0.4680    0.2174   -3.4304 C   0  0  0  0  0  0  0  0  0  0  0  0
    1.6307   -0.1343   -3.5078 O   0  0  0  0  0  0  0  0  0  0  0  0
    0.0275    1.0255   -4.4390 N   0  0  0  0  0  0  0  0  0  0  0  0
    0.7436    1.3904   -5.0602 H   0  0  0  0  0  0  0  0  0  0  0  0
   -0.8474    1.5251   -4.3183 H   0  0  0  0  0  0  0  0  0  0  0  0
   -0.6173    1.1583    0.6055 C   0  0  0  0  0  0  0  0  0  0  0  0
   -1.5847    1.7622    0.1541 O   0  0  0  0  0  0  0  0  0  0  0  0
    0.2281    1.8030    1.4893 N   0  0  0  0  0  0  0  0  0  0  0  0
    0.9794    1.2587    1.9048 H   0  0  0  0  0  0  0  0  0  0  0  0
    0.0542    3.1912    1.8993 C   0  0  0  0  0  0  0  0  0  0  0  0
   -0.8893    3.3157    2.4411 H   0  0  0  0  0  0  0  0  0  0  0  0
    0.8738    3.4964    2.5568 H   0  0  0  0  0  0  0  0  0  0  0  0
    0.0497    3.8520    1.0261 H   0  0  0  0  0  0  0  0  0  0  0  0
  1  2  1  0  0  0  0
  2  3  1  0  0  0  0
  2  4  1  0  0  0  0
  2  5  1  0  0  0  0
  5  6  2  0  0  0  0
  5  7  1  0  0  0  0
  7  8  1  0  0  0  0
  7  9  1  0  0  0  0
  9 10  1  0  0  0  0
  9 11  1  0  0  0  0
  9 22  1  0  0  0  0
 11 12  1  0  0  0  0
 11 13  1  0  0  0  0
 11 14  1  0  0  0  0
 14 15  1  0  0  0  0
 14 16  1  0  0  0  0
 14 17  1  0  0  0  0
 17 18  2  0  0  0  0
 17 19  1  0  0  0  0
 19 20  1  0  0  0  0
 19 21  1  0  0  0  0
 22 23  2  0  0  0  0
 22 24  1  0  0  0  0
 24 25  1  0  0  0  0
 24 26  1  0  0  0  0
 26 27  1  0  0  0  0
 26 28  1  0  0  0  0
 26 29  1  0  0  0  0
M  END
$$$$

  -OEChem-04042215583D

 29 28  0     1  0  0  0  0  0999 V2000
   -3.3247   -3.8027    1.5016 H   0  0  0  0  0  0  0  0  0  0  0  0
   -3.3288   -2.8329    0.9962 C   0  0  0  0  0  0  0  0  0  0  0  0
   -3.9783   -2.1502    1.5494 H   0  0  0  0  0  0  0  0  0  0  0  0
   -3.7242   -2.9640   -0.0139 H   0  0  0  0  0  0  0  0  0  0  0  0
   -1.9214   -2.2707    0.9319 C   0  0  0  0  0  0  0  0  0  0  0  0
   -0.9921   -2.8949    1.4184 O   0  0  0  0  0  0  0  0  0  0  0  0
   -1.7003   -1.0512    0.3261 N   0  0  0  0  0  0  0  0  0  0  0  0
   -2.5197   -0.5193    0.0376 H   0  0  0  0  0  0  0  0  0  0  0  0
   -0.4131   -0.3408    0.3186 C   0  0  1  0  0  0  0  0  0  0  0  0
    0.2180   -0.7440    1.1176 H   0  0  0  0  0  0  0  0  0  0  0  0
    0.3201   -0.5945   -1.0120 C   0  0  0  0  0  0  0  0  0  0  0  0
    1.2820   -0.0713   -0.9696 H   0  0  0  0  0  0  0  0  0  0  0  0
    0.5376   -1.6641   -1.1076 H   0  0  0  0  0  0  0  0  0  0  0  0
   -0.4579   -0.1249   -2.2621 C   0  0  0  0  0  0  0  0  0  0  0  0
   -1.2923   -0.8056   -2.4493 H   0  0  0  0  0  0  0  0  0  0  0  0
   -0.8703    0.8723   -2.0964 H   0  0  0  0  0  0  0  0  0  0  0  0
    0.4119   -0.0489   -3.5145 C   0  0  0  0  0  0  0  0  0  0  0  0
    1.5748   -0.4071   -3.5456 O   0  0  0  0  0  0  0  0  0  0  0  0
   -0.0817    0.4516   -4.6849 N   0  0  0  0  0  0  0  0  0  0  0  0
    0.6014    0.6315   -5.4149 H   0  0  0  0  0  0  0  0  0  0  0  0
   -0.9610    0.9574   -4.6698 H   0  0  0  0  0  0  0  0  0  0  0  0
   -0.5930    1.1585    0.6372 C   0  0  0  0  0  0  0  0  0  0  0  0
   -1.5633    1.7677    0.1990 O   0  0  0  0  0  0  0  0  0  0  0  0
    0.2544    1.7896    1.5286 N   0  0  0  0  0  0  0  0  0  0  0  0
    1.0014    1.2365    1.9400 H   0  0  0  0  0  0  0  0  0  0  0  0
    0.0682    3.1649    1.9749 C   0  0  0  0  0  0  0  0  0  0  0  0
   -0.8871    3.2708    2.4998 H   0  0  0  0  0  0  0  0  0  0  0  0
    0.8726    3.4528    2.6586 H   0  0  0  0  0  0  0  0  0  0  0  0
    0.0796    3.8506    1.1211 H   0  0  0  0  0  0  0  0  0  0  0  0
  1  2  1  0  0  0  0
  2  3  1  0  0  0  0
  2  4  1  0  0  0  0
  2  5  1  0  0  0  0
  5  6  2  0  0  0  0
  5  7  1  0  0  0  0
  7  8  1  0  0  0  0
  7  9  1  0  0  0  0
  9 10  1  0  0  0  0
  9 11  1  0  0  0  0
  9 22  1  0  0  0  0
 11 12  1  0  0  0  0
 11 13  1  0  0  0  0
 11 14  1  0  0  0  0
 14 15  1  0  0  0  0
 14 16  1  0  0  0  0
 14 17  1  0  0  0  0
 17 18  2  0  0  0  0
 17 19  1  0  0  0  0
 19 20  1  0  0  0  0
 19 21  1  0  0  0  0
 22 23  2  0  0  0  0
 22 24  1  0  0  0  0
 24 25  1  0  0  0  0
 24 26  1  0  0  0  0
 26 27  1  0  0  0  0
 26 28  1  0  0  0  0
 26 29  1  0  0  0  0
M  END
$$$$

  -OEChem-04042215583D

 29 28  0     1  0  0  0  0  0999 V2000
   -3.3319   -3.7879    1.4508 H   0  0  0  0  0  0  0  0  0  0  0  0
   -3.3276   -2.8251    0.9322 C   0  0  0  0  0  0  0  0  0  0  0  0
   -3.9940   -2.1381    1.4594 H   0  0  0  0  0  0  0  0  0  0  0  0
   -3.6969   -2.9717   -0.0856 H   0  0  0  0  0  0  0  0  0  0  0  0
   -1.9211   -2.2576    0.8957 C   0  0  0  0  0  0  0  0  0  0  0  0
   -0.9962   -2.8882    1.3824 O   0  0  0  0  0  0  0  0  0  0  0  0
   -1.6970   -1.0244    0.3187 N   0  0  0  0  0  0  0  0  0  0  0  0
   -2.5145   -0.4915    0.0270 H   0  0  0  0  0  0  0  0  0  0  0  0
   -0.4094   -0.3150    0.3262 C   0  0  1  0  0  0  0  0  0  0  0  0
    0.2170   -0.7414    1.1165 H   0  0  0  0  0  0  0  0  0  0  0  0
    0.3206   -0.5577   -1.0102 C   0  0  0  0  0  0  0  0  0  0  0  0
    1.3716   -0.2742   -0.8867 H   0  0  0  0  0  0  0  0  0  0  0  0
    0.3013   -1.6295   -1.2385 H   0  0  0  0  0  0  0  0  0  0  0  0
   -0.2641    0.2337   -2.2003 C   0  0  0  0  0  0  0  0  0  0  0  0
   -1.3147   -0.0377   -2.3336 H   0  0  0  0  0  0  0  0  0  0  0  0
   -0.2147    1.3070   -2.0011 H   0  0  0  0  0  0  0  0  0  0  0  0
    0.4772   -0.0264   -3.5088 C   0  0  0  0  0  0  0  0  0  0  0  0
    1.5182   -0.6537   -3.5733 O   0  0  0  0  0  0  0  0  0  0  0  0
    0.0131    0.4720   -4.6921 N   0  0  0  0  0  0  0  0  0  0  0  0
    0.6488    0.4124   -5.4821 H   0  0  0  0  0  0  0  0  0  0  0  0
   -0.7236    1.1691   -4.6769 H   0  0  0  0  0  0  0  0  0  0  0  0
   -0.5833    1.1768    0.6792 C   0  0  0  0  0  0  0  0  0  0  0  0
   -1.5425    1.8031    0.2404 O   0  0  0  0  0  0  0  0  0  0  0  0
    0.2668    1.7860    1.5832 N   0  0  0  0  0  0  0  0  0  0  0  0
    1.0050    1.2188    1.9913 H   0  0  0  0  0  0  0  0  0  0  0  0
    0.0964    3.1591    2.0419 C   0  0  0  0  0  0  0  0  0  0  0  0
   -0.8704    3.2782    2.5421 H   0  0  0  0  0  0  0  0  0  0  0  0
    0.8873    3.4225    2.7508 H   0  0  0  0  0  0  0  0  0  0  0  0
    0.1448    3.8542    1.1970 H   0  0  0  0  0  0  0  0  0  0  0  0
  1  2  1  0  0  0  0
  2  3  1  0  0  0  0
  2  4  1  0  0  0  0
  2  5  1  0  0  0  0
  5  6  2  0  0  0  0
  5  7  1  0  0  0  0
  7  8  1  0  0  0  0
  7  9  1  0  0  0  0
  9 10  1  0  0  0  0
  9 11  1  0  0  0  0
  9 22  1  0  0  0  0
 11 12  1  0  0  0  0
 11 13  1  0  0  0  0
 11 14  1  0  0  0  0
 14 15  1  0  0  0  0
 14 16  1  0  0  0  0
 14 17  1  0  0  0  0
 17 18  2  0  0  0  0
 17 19  1  0  0  0  0
 19 20  1  0  0  0  0
 19 21  1  0  0  0  0
 22 23  2  0  0  0  0
 22 24  1  0  0  0  0
 24 25  1  0  0  0  0
 24 26  1  0  0  0  0
 26 27  1  0  0  0  0
 26 28  1  0  0  0  0
 26 29  1  0  0  0  0
M  END
$$$$

  -OEChem-04042215583D

 29 28  0     1  0  0  0  0  0999 V2000
   -3.3572   -3.7746    1.4406 H   0  0  0  0  0  0  0  0  0  0  0  0
   -3.3408   -2.8178    0.9111 C   0  0  0  0  0  0  0  0  0  0  0  0
   -4.0137   -2.1229    1.4192 H   0  0  0  0  0  0  0  0  0  0  0  0
   -3.6936   -2.9750   -0.1110 H   0  0  0  0  0  0  0  0  0  0  0  0
   -1.9318   -2.2553    0.8918 C   0  0  0  0  0  0  0  0  0  0  0  0
   -1.0173   -2.8850    1.3989 O   0  0  0  0  0  0  0  0  0  0  0  0
   -1.6937   -1.0257    0.3122 N   0  0  0  0  0  0  0  0  0  0  0  0
   -2.5036   -0.4934   -0.0006 H   0  0  0  0  0  0  0  0  0  0  0  0
   -0.4016   -0.3235    0.3334 C   0  0  1  0  0  0  0  0  0  0  0  0
    0.2170   -0.7527    1.1282 H   0  0  0  0  0  0  0  0  0  0  0  0
    0.3392   -0.5582   -0.9984 C   0  0  0  0  0  0  0  0  0  0  0  0
    1.3958   -0.2962   -0.8782 H   0  0  0  0  0  0  0  0  0  0  0  0
    0.2978   -1.6287   -1.2308 H   0  0  0  0  0  0  0  0  0  0  0  0
   -0.2398    0.2516   -2.1783 C   0  0  0  0  0  0  0  0  0  0  0  0
   -1.3306    0.1773   -2.1655 H   0  0  0  0  0  0  0  0  0  0  0  0
    0.0270    1.3067   -2.0735 H   0  0  0  0  0  0  0  0  0  0  0  0
    0.2442   -0.2419   -3.5384 C   0  0  0  0  0  0  0  0  0  0  0  0
    1.2020   -0.9797   -3.6774 O   0  0  0  0  0  0  0  0  0  0  0  0
   -0.3625    0.1640   -4.6922 N   0  0  0  0  0  0  0  0  0  0  0  0
    0.1278   -0.0547   -5.5546 H   0  0  0  0  0  0  0  0  0  0  0  0
   -1.0192    0.9365   -4.6564 H   0  0  0  0  0  0  0  0  0  0  0  0
   -0.5718    1.1710    0.6782 C   0  0  0  0  0  0  0  0  0  0  0  0
   -1.5126    1.8053    0.2119 O   0  0  0  0  0  0  0  0  0  0  0  0
    0.2696    1.7797    1.5908 N   0  0  0  0  0  0  0  0  0  0  0  0
    0.9933    1.2081    2.0180 H   0  0  0  0  0  0  0  0  0  0  0  0
    0.1095    3.1599    2.0321 C   0  0  0  0  0  0  0  0  0  0  0  0
   -0.8625    3.2974    2.5174 H   0  0  0  0  0  0  0  0  0  0  0  0
    0.8936    3.4209    2.7493 H   0  0  0  0  0  0  0  0  0  0  0  0
    0.1789    3.8447    1.1803 H   0  0  0  0  0  0  0  0  0  0  0  0
  1  2  1  0  0  0  0
  2  3  1  0  0  0  0
  2  4  1  0  0  0  0
  2  5  1  0  0  0  0
  5  6  2  0  0  0  0
  5  7  1  0  0  0  0
  7  8  1  0  0  0  0
  7  9  1  0  0  0  0
  9 10  1  0  0  0  0
  9 11  1  0  0  0  0
  9 22  1  0  0  0  0
 11 12  1  0  0  0  0
 11 13  1  0  0  0  0
 11 14  1  0  0  0  0
 14 15  1  0  0  0  0
 14 16  1  0  0  0  0
 14 17  1  0  0  0  0
 17 18  2  0  0  0  0
 17 19  1  0  0  0  0
 19 20  1  0  0  0  0
 19 21  1  0  0  0  0
 22 23  2  0  0  0  0
 22 24  1  0  0  0  0
 24 25  1  0  0  0  0
 24 26  1  0  0  0  0
 26 27  1  0  0  0  0
 26 28  1  0  0  0  0
 26 29  1  0  0  0  0
M  END
$$$$

  -OEChem-04042215583D

 29 28  0     1  0  0  0  0  0999 V2000
   -3.3771   -3.7588    1.3717 H   0  0  0  0  0  0  0  0  0  0  0  0
   -3.3543   -2.7871    0.8705 C   0  0  0  0  0  0  0  0  0  0  0  0
   -4.0229   -2.1030    1.3985 H   0  0  0  0  0  0  0  0  0  0  0  0
   -3.7074   -2.9121   -0.1558 H   0  0  0  0  0  0  0  0  0  0  0  0
   -1.9422   -2.2328    0.8674 C   0  0  0  0  0  0  0  0  0  0  0  0
   -1.0364   -2.8688    1.3821 O   0  0  0  0  0  0  0  0  0  0  0  0
   -1.6920   -1.0031    0.2934 N   0  0  0  0  0  0  0  0  0  0  0  0
   -2.4968   -0.4646   -0.0222 H   0  0  0  0  0  0  0  0  0  0  0  0
   -0.3960   -0.3090    0.3288 C   0  0  1  0  0  0  0  0  0  0  0  0
    0.2101   -0.7444    1.1301 H   0  0  0  0  0  0  0  0  0  0  0  0
    0.3605   -0.5473   -0.9929 C   0  0  0  0  0  0  0  0  0  0  0  0
    1.4191   -0.2996   -0.8632 H   0  0  0  0  0  0  0  0  0  0  0  0
    0.3086   -1.6192   -1.2169 H   0  0  0  0  0  0  0  0  0  0  0  0
   -0.1974    0.2653   -2.1831 C   0  0  0  0  0  0  0  0  0  0  0  0
   -1.2734    0.4086   -2.0520 H   0  0  0  0  0  0  0  0  0  0  0  0
    0.2693    1.2539   -2.2122 H   0  0  0  0  0  0  0  0  0  0  0  0
   -0.0035   -0.4284   -3.5283 C   0  0  0  0  0  0  0  0  0  0  0  0
    0.8898   -1.2273   -3.7396 O   0  0  0  0  0  0  0  0  0  0  0  0
   -0.8134   -0.1504   -4.5918 N   0  0  0  0  0  0  0  0  0  0  0  0
   -0.5023   -0.5053   -5.4914 H   0  0  0  0  0  0  0  0  0  0  0  0
   -1.4256    0.6571   -4.5432 H   0  0  0  0  0  0  0  0  0  0  0  0
   -0.5546    1.1863    0.6759 C   0  0  0  0  0  0  0  0  0  0  0  0
   -1.4902    1.8295    0.2116 O   0  0  0  0  0  0  0  0  0  0  0  0
    0.2855    1.7830    1.5974 N   0  0  0  0  0  0  0  0  0  0  0  0
    0.9948    1.1999    2.0331 H   0  0  0  0  0  0  0  0  0  0  0  0
    0.1144    3.1528    2.0661 C   0  0  0  0  0  0  0  0  0  0  0  0
   -0.8439    3.2628    2.5844 H   0  0  0  0  0  0  0  0  0  0  0  0
    0.9166    3.4178    2.7613 H   0  0  0  0  0  0  0  0  0  0  0  0
    0.1426    3.8531    1.2247 H   0  0  0  0  0  0  0  0  0  0  0  0
  1  2  1  0  0  0  0
  2  3  1  0  0  0  0
  2  4  1  0  0  0  0
  2  5  1  0  0  0  0
  5  6  2  0  0  0  0
  5  7  1  0  0  0  0
  7  8  1  0  0  0  0
  7  9  1  0  0  0  0
  9 10  1  0  0  0  0
  9 11  1  0  0  0  0
  9 22  1  0  0  0  0
 11 12  1  0  0  0  0
 11 13  1  0  0  0  0
 11 14  1  0  0  0  0
 14 15  1  0  0  0  0
 14 16  1  0  0  0  0
 14 17  1  0  0  0  0
 17 18  2  0  0  0  0
 17 19  1  0  0  0  0
 19 20  1  0  0  0  0
 19 21  1  0  0  0  0
 22 23  2  0  0  0  0
 22 24  1  0  0  0  0
 24 25  1  0  0  0  0
 24 26  1  0  0  0  0
 26 27  1  0  0  0  0
 26 28  1  0  0  0  0
 26 29  1  0  0  0  0
M  END
$$$$

  -OEChem-04042215583D

 29 28  0     1  0  0  0  0  0999 V2000
   -3.4118   -3.7358    1.1887 H   0  0  0  0  0  0  0  0  0  0  0  0
   -3.3812   -2.7359    0.7467 C   0  0  0  0  0  0  0  0  0  0  0  0
   -4.0460   -2.0794    1.3132 H   0  0  0  0  0  0  0  0  0  0  0  0
   -3.7324   -2.7970   -0.2861 H   0  0  0  0  0  0  0  0  0  0  0  0
   -1.9652   -2.1931    0.7794 C   0  0  0  0  0  0  0  0  0  0  0  0
   -1.0718   -2.8503    1.2889 O   0  0  0  0  0  0  0  0  0  0  0  0
   -1.6960   -0.9537    0.2353 N   0  0  0  0  0  0  0  0  0  0  0  0
   -2.4933   -0.3955   -0.0640 H   0  0  0  0  0  0  0  0  0  0  0  0
   -0.3956   -0.2712    0.3088 C   0  0  1  0  0  0  0  0  0  0  0  0
    0.1838   -0.7255    1.1194 H   0  0  0  0  0  0  0  0  0  0  0  0
    0.3949   -0.5112   -0.9929 C   0  0  0  0  0  0  0  0  0  0  0  0
    1.4492   -0.2664   -0.8274 H   0  0  0  0  0  0  0  0  0  0  0  0
    0.3528   -1.5841   -1.2147 H   0  0  0  0  0  0  0  0  0  0  0  0
   -0.1120    0.3043   -2.2065 C   0  0  0  0  0  0  0  0  0  0  0  0
   -1.1104    0.6971   -2.0028 H   0  0  0  0  0  0  0  0  0  0  0  0
    0.5483    1.1578   -2.3836 H   0  0  0  0  0  0  0  0  0  0  0  0
   -0.2147   -0.5281   -3.4809 C   0  0  0  0  0  0  0  0  0  0  0  0
    0.6188   -1.3586   -3.7901 O   0  0  0  0  0  0  0  0  0  0  0  0
   -1.2605   -0.3848   -4.3477 N   0  0  0  0  0  0  0  0  0  0  0  0
   -1.3280   -1.0655   -5.0986 H   0  0  0  0  0  0  0  0  0  0  0  0
   -2.0595    0.1811   -4.0829 H   0  0  0  0  0  0  0  0  0  0  0  0
   -0.5382    1.2198    0.6832 C   0  0  0  0  0  0  0  0  0  0  0  0
   -1.4715    1.8784    0.2368 O   0  0  0  0  0  0  0  0  0  0  0  0
    0.2946    1.7866    1.6301 N   0  0  0  0  0  0  0  0  0  0  0  0
    1.0016    1.1909    2.0526 H   0  0  0  0  0  0  0  0  0  0  0  0
    0.1384    3.1511    2.1202 C   0  0  0  0  0  0  0  0  0  0  0  0
   -0.8107    3.2593    2.6558 H   0  0  0  0  0  0  0  0  0  0  0  0
    0.9540    3.4028    2.8049 H   0  0  0  0  0  0  0  0  0  0  0  0
    0.1567    3.8629    1.2880 H   0  0  0  0  0  0  0  0  0  0  0  0
  1  2  1  0  0  0  0
  2  3  1  0  0  0  0
  2  4  1  0  0  0  0
  2  5  1  0  0  0  0
  5  6  2  0  0  0  0
  5  7  1  0  0  0  0
  7  8  1  0  0  0  0
  7  9  1  0  0  0  0
  9 10  1  0  0  0  0
  9 11  1  0  0  0  0
  9 22  1  0  0  0  0
 11 12  1  0  0  0  0
 11 13  1  0  0  0  0
 11 14  1  0  0  0  0
 14 15  1  0  0  0  0
 14 16  1  0  0  0  0
 14 17  1  0  0  0  0
 17 18  2  0  0  0  0
 17 19  1  0  0  0  0
 19 20  1  0  0  0  0
 19 21  1  0  0  0  0
 22 23  2  0  0  0  0
 22 24  1  0  0  0  0
 24 25  1  0  0  0  0
 24 26  1  0  0  0  0
 26 27  1  0  0  0  0
 26 28  1  0  0  0  0
 26 29  1  0  0  0  0
M  END
$$$$

  -OEChem-04042215583D

 29 28  0     1  0  0  0  0  0999 V2000
   -3.0879   -3.9506    1.2168 H   0  0  0  0  0  0  0  0  0  0  0  0
   -3.1695   -2.9441    0.7971 C   0  0  0  0  0  0  0  0  0  0  0  0
   -3.9475   -2.3976    1.3356 H   0  0  0  0  0  0  0  0  0  0  0  0
   -3.4517   -3.0226   -0.2563 H   0  0  0  0  0  0  0  0  0  0  0  0
   -1.8450   -2.2157    0.9208 C   0  0  0  0  0  0  0  0  0  0  0  0
   -0.8902   -2.7647    1.4503 O   0  0  0  0  0  0  0  0  0  0  0  0
   -1.7208   -0.9410    0.4094 N   0  0  0  0  0  0  0  0  0  0  0  0
   -2.5315   -0.5589   -0.0747 H   0  0  0  0  0  0  0  0  0  0  0  0
   -0.4663   -0.1811    0.3292 C   0  0  1  0  0  0  0  0  0  0  0  0
    0.2509   -0.6334    1.0217 H   0  0  0  0  0  0  0  0  0  0  0  0
    0.0997   -0.3866   -1.0892 C   0  0  0  0  0  0  0  0  0  0  0  0
    1.1464   -0.0663   -1.0869 H   0  0  0  0  0  0  0  0  0  0  0  0
    0.1014   -1.4594   -1.3168 H   0  0  0  0  0  0  0  0  0  0  0  0
   -0.6402    0.4007   -2.1964 C   0  0  0  0  0  0  0  0  0  0  0  0
   -1.4662    0.9906   -1.7957 H   0  0  0  0  0  0  0  0  0  0  0  0
    0.0532    1.0951   -2.6779 H   0  0  0  0  0  0  0  0  0  0  0  0
   -1.2237   -0.5435   -3.2399 C   0  0  0  0  0  0  0  0  0  0  0  0
   -2.1287   -1.3107   -2.9661 O   0  0  0  0  0  0  0  0  0  0  0  0
   -0.7319   -0.6168   -4.5118 N   0  0  0  0  0  0  0  0  0  0  0  0
   -1.2755   -1.1688   -5.1691 H   0  0  0  0  0  0  0  0  0  0  0  0
   -0.1140    0.1151   -4.8452 H   0  0  0  0  0  0  0  0  0  0  0  0
   -0.5897    1.2900    0.7866 C   0  0  0  0  0  0  0  0  0  0  0  0
   -1.5657    1.9676    0.4873 O   0  0  0  0  0  0  0  0  0  0  0  0
    0.3713    1.8339    1.6200 N   0  0  0  0  0  0  0  0  0  0  0  0
    1.0999    1.2115    1.9580 H   0  0  0  0  0  0  0  0  0  0  0  0
    0.2530    3.1601    2.2146 C   0  0  0  0  0  0  0  0  0  0  0  0
   -0.6394    3.2183    2.8469 H   0  0  0  0  0  0  0  0  0  0  0  0
    1.1300    3.3771    2.8321 H   0  0  0  0  0  0  0  0  0  0  0  0
    0.1829    3.9253    1.4344 H   0  0  0  0  0  0  0  0  0  0  0  0
  1  2  1  0  0  0  0
  2  3  1  0  0  0  0
  2  4  1  0  0  0  0
  2  5  1  0  0  0  0
  5  6  2  0  0  0  0
  5  7  1  0  0  0  0
  7  8  1  0  0  0  0
  7  9  1  0  0  0  0
  9 10  1  0  0  0  0
  9 11  1  0  0  0  0
  9 22  1  0  0  0  0
 11 12  1  0  0  0  0
 11 13  1  0  0  0  0
 11 14  1  0  0  0  0
 14 15  1  0  0  0  0
 14 16  1  0  0  0  0
 14 17  1  0  0  0  0
 17 18  2  0  0  0  0
 17 19  1  0  0  0  0
 19 20  1  0  0  0  0
 19 21  1  0  0  0  0
 22 23  2  0  0  0  0
 22 24  1  0  0  0  0
 24 25  1  0  0  0  0
 24 26  1  0  0  0  0
 26 27  1  0  0  0  0
 26 28  1  0  0  0  0
 26 29  1  0  0  0  0
M  END
$$$$

  -OEChem-04042215583D

 29 28  0     1  0  0  0  0  0999 V2000
   -3.1473   -3.9044    1.1783 H   0  0  0  0  0  0  0  0  0  0  0  0
   -3.1897   -2.9145    0.7161 C   0  0  0  0  0  0  0  0  0  0  0  0
   -4.0179   -2.3535    1.1555 H   0  0  0  0  0  0  0  0  0  0  0  0
   -3.3678   -3.0316   -0.3562 H   0  0  0  0  0  0  0  0  0  0  0  0
   -1.8855   -2.1738    0.9404 C   0  0  0  0  0  0  0  0  0  0  0  0
   -0.9731   -2.7099    1.5525 O   0  0  0  0  0  0  0  0  0  0  0  0
   -1.7308   -0.9055    0.4225 N   0  0  0  0  0  0  0  0  0  0  0  0
   -2.4760   -0.5847   -0.1958 H   0  0  0  0  0  0  0  0  0  0  0  0
   -0.4587   -0.1742    0.3632 C   0  0  1  0  0  0  0  0  0  0  0  0
    0.2363   -0.6369    1.0711 H   0  0  0  0  0  0  0  0  0  0  0  0
    0.1271   -0.4059   -1.0458 C   0  0  0  0  0  0  0  0  0  0  0  0
    1.1754   -0.0916   -1.0146 H   0  0  0  0  0  0  0  0  0  0  0  0
    0.1297   -1.4789   -1.2707 H   0  0  0  0  0  0  0  0  0  0  0  0
   -0.5644    0.3826   -2.1847 C   0  0  0  0  0  0  0  0  0  0  0  0
   -1.1624    1.2164   -1.8172 H   0  0  0  0  0  0  0  0  0  0  0  0
    0.2076    0.8051   -2.8333 H   0  0  0  0  0  0  0  0  0  0  0  0
   -1.4591   -0.5197   -3.0289 C   0  0  0  0  0  0  0  0  0  0  0  0
   -2.3460   -1.1917   -2.5323 O   0  0  0  0  0  0  0  0  0  0  0  0
   -1.3074   -0.6330   -4.3813 N   0  0  0  0  0  0  0  0  0  0  0  0
   -2.0517   -1.1206   -4.8717 H   0  0  0  0  0  0  0  0  0  0  0  0
   -0.7366    0.0486   -4.8696 H   0  0  0  0  0  0  0  0  0  0  0  0
   -0.5600    1.3025    0.8103 C   0  0  0  0  0  0  0  0  0  0  0  0
   -1.5125    2.0030    0.4886 O   0  0  0  0  0  0  0  0  0  0  0  0
    0.3965    1.8288    1.6602 N   0  0  0  0  0  0  0  0  0  0  0  0
    1.0963    1.1881    2.0237 H   0  0  0  0  0  0  0  0  0  0  0  0
    0.2952    3.1597    2.2477 C   0  0  0  0  0  0  0  0  0  0  0  0
   -0.5960    3.2323    2.8801 H   0  0  0  0  0  0  0  0  0  0  0  0
    1.1753    3.3694    2.8634 H   0  0  0  0  0  0  0  0  0  0  0  0
    0.2342    3.9218    1.4637 H   0  0  0  0  0  0  0  0  0  0  0  0
  1  2  1  0  0  0  0
  2  3  1  0  0  0  0
  2  4  1  0  0  0  0
  2  5  1  0  0  0  0
  5  6  2  0  0  0  0
  5  7  1  0  0  0  0
  7  8  1  0  0  0  0
  7  9  1  0  0  0  0
  9 10  1  0  0  0  0
  9 11  1  0  0  0  0
  9 22  1  0  0  0  0
 11 12  1  0  0  0  0
 11 13  1  0  0  0  0
 11 14  1  0  0  0  0
 14 15  1  0  0  0  0
 14 16  1  0  0  0  0
 14 17  1  0  0  0  0
 17 18  2  0  0  0  0
 17 19  1  0  0  0  0
 19 20  1  0  0  0  0
 19 21  1  0  0  0  0
 22 23  2  0  0  0  0
 22 24  1  0  0  0  0
 24 25  1  0  0  0  0
 24 26  1  0  0  0  0
 26 27  1  0  0  0  0
 26 28  1  0  0  0  0
 26 29  1  0  0  0  0
M  END
$$$$

  -OEChem-04042215583D

 29 28  0     1  0  0  0  0  0999 V2000
   -3.2222   -3.8775    1.2859 H   0  0  0  0  0  0  0  0  0  0  0  0
   -3.2185   -2.9257    0.7481 C   0  0  0  0  0  0  0  0  0  0  0  0
   -4.0758   -2.3318    1.0734 H   0  0  0  0  0  0  0  0  0  0  0  0
   -3.3081   -3.1241   -0.3231 H   0  0  0  0  0  0  0  0  0  0  0  0
   -1.9325   -2.1705    1.0240 C   0  0  0  0  0  0  0  0  0  0  0  0
   -1.0749   -2.6647    1.7418 O   0  0  0  0  0  0  0  0  0  0  0  0
   -1.7367   -0.9342    0.4452 N   0  0  0  0  0  0  0  0  0  0  0  0
   -2.4151   -0.6811   -0.2740 H   0  0  0  0  0  0  0  0  0  0  0  0
   -0.4465   -0.2341    0.4083 C   0  0  1  0  0  0  0  0  0  0  0  0
    0.2105   -0.6729    1.1656 H   0  0  0  0  0  0  0  0  0  0  0  0
    0.2063   -0.5114   -0.9670 C   0  0  0  0  0  0  0  0  0  0  0  0
    1.2570   -0.2153   -0.8841 H   0  0  0  0  0  0  0  0  0  0  0  0
    0.1981   -1.5895   -1.1654 H   0  0  0  0  0  0  0  0  0  0  0  0
   -0.3927    0.2505   -2.1774 C   0  0  0  0  0  0  0  0  0  0  0  0
   -0.7213    1.2543   -1.9070 H   0  0  0  0  0  0  0  0  0  0  0  0
    0.4068    0.3711   -2.9132 H   0  0  0  0  0  0  0  0  0  0  0  0
   -1.5358   -0.4763   -2.8865 C   0  0  0  0  0  0  0  0  0  0  0  0
   -2.2218   -1.3353   -2.3610 O   0  0  0  0  0  0  0  0  0  0  0  0
   -1.8876   -0.1546   -4.1656 N   0  0  0  0  0  0  0  0  0  0  0  0
   -2.7733   -0.5341   -4.4879 H   0  0  0  0  0  0  0  0  0  0  0  0
   -1.5270    0.7046   -4.5672 H   0  0  0  0  0  0  0  0  0  0  0  0
   -0.5572    1.2631    0.7763 C   0  0  0  0  0  0  0  0  0  0  0  0
   -1.4700    1.9589    0.3455 O   0  0  0  0  0  0  0  0  0  0  0  0
    0.3587    1.8267    1.6466 N   0  0  0  0  0  0  0  0  0  0  0  0
    1.0235    1.1992    2.0903 H   0  0  0  0  0  0  0  0  0  0  0  0
    0.2550    3.1961    2.1369 C   0  0  0  0  0  0  0  0  0  0  0  0
   -0.6650    3.3265    2.7164 H   0  0  0  0  0  0  0  0  0  0  0  0
    1.1074    3.4327    2.7809 H   0  0  0  0  0  0  0  0  0  0  0  0
    0.2486    3.9039    1.3013 H   0  0  0  0  0  0  0  0  0  0  0  0
  1  2  1  0  0  0  0
  2  3  1  0  0  0  0
  2  4  1  0  0  0  0
  2  5  1  0  0  0  0
  5  6  2  0  0  0  0
  5  7  1  0  0  0  0
  7  8  1  0  0  0  0
  7  9  1  0  0  0  0
  9 10  1  0  0  0  0
  9 11  1  0  0  0  0
  9 22  1  0  0  0  0
 11 12  1  0  0  0  0
 11 13  1  0  0  0  0
 11 14  1  0  0  0  0
 14 15  1  0  0  0  0
 14 16  1  0  0  0  0
 14 17  1  0  0  0  0
 17 18  2  0  0  0  0
 17 19  1  0  0  0  0
 19 20  1  0  0  0  0
 19 21  1  0  0  0  0
 22 23  2  0  0  0  0
 22 24  1  0  0  0  0
 24 25  1  0  0  0  0
 24 26  1  0  0  0  0
 26 27  1  0  0  0  0
 26 28  1  0  0  0  0
 26 29  1  0  0  0  0
M  END
$$$$

  -OEChem-04042215583D

 29 28  0     1  0  0  0  0  0999 V2000
   -3.2752   -3.8653    1.2953 H   0  0  0  0  0  0  0  0  0  0  0  0
   -3.2533   -2.9238    0.7398 C   0  0  0  0  0  0  0  0  0  0  0  0
   -4.1206   -2.3241    1.0252 H   0  0  0  0  0  0  0  0  0  0  0  0
   -3.3078   -3.1437   -0.3297 H   0  0  0  0  0  0  0  0  0  0  0  0
   -1.9764   -2.1645    1.0444 C   0  0  0  0  0  0  0  0  0  0  0  0
   -1.1696   -2.6219    1.8407 O   0  0  0  0  0  0  0  0  0  0  0  0
   -1.7322   -0.9640    0.4105 N   0  0  0  0  0  0  0  0  0  0  0  0
   -2.3696   -0.7399   -0.3534 H   0  0  0  0  0  0  0  0  0  0  0  0
   -0.4276   -0.2880    0.4074 C   0  0  1  0  0  0  0  0  0  0  0  0
    0.1909   -0.6978    1.2122 H   0  0  0  0  0  0  0  0  0  0  0  0
    0.2844   -0.6108   -0.9296 C   0  0  0  0  0  0  0  0  0  0  0  0
    1.3392   -0.3435   -0.8102 H   0  0  0  0  0  0  0  0  0  0  0  0
    0.2495   -1.6922   -1.1043 H   0  0  0  0  0  0  0  0  0  0  0  0
   -0.2445    0.1320   -2.1830 C   0  0  0  0  0  0  0  0  0  0  0  0
   -0.3115    1.2053   -1.9966 H   0  0  0  0  0  0  0  0  0  0  0  0
    0.4907   -0.0002   -2.9812 H   0  0  0  0  0  0  0  0  0  0  0  0
   -1.5785   -0.3694   -2.7351 C   0  0  0  0  0  0  0  0  0  0  0  0
   -2.0951   -1.4244   -2.4119 O   0  0  0  0  0  0  0  0  0  0  0  0
   -2.3091    0.3960   -3.5969 N   0  0  0  0  0  0  0  0  0  0  0  0
   -3.2677    0.0957   -3.7459 H   0  0  0  0  0  0  0  0  0  0  0  0
   -2.0719    1.3795   -3.6791 H   0  0  0  0  0  0  0  0  0  0  0  0
   -0.5558    1.2251    0.6916 C   0  0  0  0  0  0  0  0  0  0  0  0
   -1.4254    1.8978    0.1469 O   0  0  0  0  0  0  0  0  0  0  0  0
    0.3075    1.8356    1.5829 N   0  0  0  0  0  0  0  0  0  0  0  0
    0.9369    1.2325    2.1055 H   0  0  0  0  0  0  0  0  0  0  0  0
    0.1893    3.2341    1.9778 C   0  0  0  0  0  0  0  0  0  0  0  0
   -0.7634    3.4086    2.4890 H   0  0  0  0  0  0  0  0  0  0  0  0
    1.0027    3.5044    2.6578 H   0  0  0  0  0  0  0  0  0  0  0  0
    0.2437    3.8874    1.1006 H   0  0  0  0  0  0  0  0  0  0  0  0
  1  2  1  0  0  0  0
  2  3  1  0  0  0  0
  2  4  1  0  0  0  0
  2  5  1  0  0  0  0
  5  6  2  0  0  0  0
  5  7  1  0  0  0  0
  7  8  1  0  0  0  0
  7  9  1  0  0  0  0
  9 10  1  0  0  0  0
  9 11  1  0  0  0  0
  9 22  1  0  0  0  0
 11 12  1  0  0  0  0
 11 13  1  0  0  0  0
 11 14  1  0  0  0  0
 14 15  1  0  0  0  0
 14 16  1  0  0  0  0
 14 17  1  0  0  0  0
 17 18  2  0  0  0  0
 17 19  1  0  0  0  0
 19 20  1  0  0  0  0
 19 21  1  0  0  0  0
 22 23  2  0  0  0  0
 22 24  1  0  0  0  0
 24 25  1  0  0  0  0
 24 26  1  0  0  0  0
 26 27  1  0  0  0  0
 26 28  1  0  0  0  0
 26 29  1  0  0  0  0
M  END
$$$$

  -OEChem-04042215583D

 29 28  0     1  0  0  0  0  0999 V2000
   -3.4351   -3.7476    1.2573 H   0  0  0  0  0  0  0  0  0  0  0  0
   -3.3656   -2.8240    0.6762 C   0  0  0  0  0  0  0  0  0  0  0  0
   -4.1902   -2.1655    0.9593 H   0  0  0  0  0  0  0  0  0  0  0  0
   -3.4510   -3.0683   -0.3859 H   0  0  0  0  0  0  0  0  0  0  0  0
   -2.0394   -2.1378    0.9408 C   0  0  0  0  0  0  0  0  0  0  0  0
   -1.2383   -2.6308    1.7199 O   0  0  0  0  0  0  0  0  0  0  0  0
   -1.7408   -0.9606    0.2863 N   0  0  0  0  0  0  0  0  0  0  0  0
   -2.4228   -0.6320   -0.3943 H   0  0  0  0  0  0  0  0  0  0  0  0
   -0.4356   -0.2839    0.3313 C   0  0  1  0  0  0  0  0  0  0  0  0
    0.1299   -0.6664    1.1872 H   0  0  0  0  0  0  0  0  0  0  0  0
    0.3630   -0.6473   -0.9431 C   0  0  0  0  0  0  0  0  0  0  0  0
    1.4136   -0.3915   -0.7717 H   0  0  0  0  0  0  0  0  0  0  0  0
    0.3168   -1.7328   -1.0875 H   0  0  0  0  0  0  0  0  0  0  0  0
   -0.0878    0.0494   -2.2475 C   0  0  0  0  0  0  0  0  0  0  0  0
    0.0494    1.1307   -2.1640 H   0  0  0  0  0  0  0  0  0  0  0  0
    0.5522   -0.2897   -3.0667 H   0  0  0  0  0  0  0  0  0  0  0  0
   -1.5332   -0.2452   -2.6345 C   0  0  0  0  0  0  0  0  0  0  0  0
   -1.9119   -1.3616   -2.9354 O   0  0  0  0  0  0  0  0  0  0  0  0
   -2.5137    0.6911   -2.4794 N   0  0  0  0  0  0  0  0  0  0  0  0
   -3.4682    0.3555   -2.5561 H   0  0  0  0  0  0  0  0  0  0  0  0
   -2.3038    1.4839   -1.8683 H   0  0  0  0  0  0  0  0  0  0  0  0
   -0.5694    1.2390    0.5532 C   0  0  0  0  0  0  0  0  0  0  0  0
   -1.4053    1.8896   -0.0683 O   0  0  0  0  0  0  0  0  0  0  0  0
    0.2445    1.8835    1.4658 N   0  0  0  0  0  0  0  0  0  0  0  0
    0.8623    1.3071    2.0313 H   0  0  0  0  0  0  0  0  0  0  0  0
    0.1340    3.3045    1.7724 C   0  0  0  0  0  0  0  0  0  0  0  0
   -0.8491    3.5289    2.1995 H   0  0  0  0  0  0  0  0  0  0  0  0
    0.9014    3.5959    2.4960 H   0  0  0  0  0  0  0  0  0  0  0  0
    0.2700    3.9036    0.8658 H   0  0  0  0  0  0  0  0  0  0  0  0
  1  2  1  0  0  0  0
  2  3  1  0  0  0  0
  2  4  1  0  0  0  0
  2  5  1  0  0  0  0
  5  6  2  0  0  0  0
  5  7  1  0  0  0  0
  7  8  1  0  0  0  0
  7  9  1  0  0  0  0
  9 10  1  0  0  0  0
  9 11  1  0  0  0  0
  9 22  1  0  0  0  0
 11 12  1  0  0  0  0
 11 13  1  0  0  0  0
 11 14  1  0  0  0  0
 14 15  1  0  0  0  0
 14 16  1  0  0  0  0
 14 17  1  0  0  0  0
 17 18  2  0  0  0  0
 17 19  1  0  0  0  0
 19 20  1  0  0  0  0
 19 21  1  0  0  0  0
 22 23  2  0  0  0  0
 22 24  1  0  0  0  0
 24 25  1  0  0  0  0
 24 26  1  0  0  0  0
 26 27  1  0  0  0  0
 26 28  1  0  0  0  0
 26 29  1  0  0  0  0
M  END
$$$$

  -OEChem-04042215583D

 29 28  0     1  0  0  0  0  0999 V2000
   -3.2852   -3.8880    1.2640 H   0  0  0  0  0  0  0  0  0  0  0  0
   -3.2944   -2.9286    0.7397 C   0  0  0  0  0  0  0  0  0  0  0  0
   -4.1603   -2.3512    1.0723 H   0  0  0  0  0  0  0  0  0  0  0  0
   -3.3809   -3.1139   -0.3343 H   0  0  0  0  0  0  0  0  0  0  0  0
   -2.0191   -2.1599    1.0279 C   0  0  0  0  0  0  0  0  0  0  0  0
   -1.2037   -2.6008    1.8240 O   0  0  0  0  0  0  0  0  0  0  0  0
   -1.7828   -0.9716    0.3684 N   0  0  0  0  0  0  0  0  0  0  0  0
   -2.4320   -0.7604   -0.3907 H   0  0  0  0  0  0  0  0  0  0  0  0
   -0.4941   -0.2612    0.3675 C   0  0  1  0  0  0  0  0  0  0  0  0
    0.1017   -0.6391    1.2043 H   0  0  0  0  0  0  0  0  0  0  0  0
    0.2821   -0.6178   -0.9225 C   0  0  0  0  0  0  0  0  0  0  0  0
    1.3337   -0.3492   -0.7789 H   0  0  0  0  0  0  0  0  0  0  0  0
    0.2454   -1.7063   -1.0455 H   0  0  0  0  0  0  0  0  0  0  0  0
   -0.1996    0.0334   -2.2440 C   0  0  0  0  0  0  0  0  0  0  0  0
    0.1316    1.0755   -2.2600 H   0  0  0  0  0  0  0  0  0  0  0  0
    0.2818   -0.4705   -3.0865 H   0  0  0  0  0  0  0  0  0  0  0  0
   -1.7104    0.0177   -2.4786 C   0  0  0  0  0  0  0  0  0  0  0  0
   -2.3476   -1.0206   -2.5083 O   0  0  0  0  0  0  0  0  0  0  0  0
   -2.4537    1.1583   -2.5408 N   0  0  0  0  0  0  0  0  0  0  0  0
   -3.4550    1.0033   -2.4884 H   0  0  0  0  0  0  0  0  0  0  0  0
   -2.0696    1.9475   -2.0196 H   0  0  0  0  0  0  0  0  0  0  0  0
   -0.5976    1.2634    0.6018 C   0  0  0  0  0  0  0  0  0  0  0  0
   -1.4015    1.9541   -0.0144 O   0  0  0  0  0  0  0  0  0  0  0  0
    0.2698    1.8824    1.4830 N   0  0  0  0  0  0  0  0  0  0  0  0
    0.8662    1.2829    2.0473 H   0  0  0  0  0  0  0  0  0  0  0  0
    0.2101    3.3050    1.7973 C   0  0  0  0  0  0  0  0  0  0  0  0
   -0.7476    3.5534    2.2668 H   0  0  0  0  0  0  0  0  0  0  0  0
    1.0155    3.5736    2.4877 H   0  0  0  0  0  0  0  0  0  0  0  0
    0.3230    3.9045    0.8878 H   0  0  0  0  0  0  0  0  0  0  0  0
  1  2  1  0  0  0  0
  2  3  1  0  0  0  0
  2  4  1  0  0  0  0
  2  5  1  0  0  0  0
  5  6  2  0  0  0  0
  5  7  1  0  0  0  0
  7  8  1  0  0  0  0
  7  9  1  0  0  0  0
  9 10  1  0  0  0  0
  9 11  1  0  0  0  0
  9 22  1  0  0  0  0
 11 12  1  0  0  0  0
 11 13  1  0  0  0  0
 11 14  1  0  0  0  0
 14 15  1  0  0  0  0
 14 16  1  0  0  0  0
 14 17  1  0  0  0  0
 17 18  2  0  0  0  0
 17 19  1  0  0  0  0
 19 20  1  0  0  0  0
 19 21  1  0  0  0  0
 22 23  2  0  0  0  0
 22 24  1  0  0  0  0
 24 25  1  0  0  0  0
 24 26  1  0  0  0  0
 26 27  1  0  0  0  0
 26 28  1  0  0  0  0
 26 29  1  0  0  0  0
M  END
$$$$

  -OEChem-04042215583D

 29 28  0     1  0  0  0  0  0999 V2000
   -3.2137   -3.9350    1.3336 H   0  0  0  0  0  0  0  0  0  0  0  0
   -3.2632   -2.9628    0.8357 C   0  0  0  0  0  0  0  0  0  0  0  0
   -4.1072   -2.3996    1.2411 H   0  0  0  0  0  0  0  0  0  0  0  0
   -3.4218   -3.1213   -0.2341 H   0  0  0  0  0  0  0  0  0  0  0  0
   -1.9750   -2.1936    1.0573 C   0  0  0  0  0  0  0  0  0  0  0  0
   -1.1006   -2.6564    1.7747 O   0  0  0  0  0  0  0  0  0  0  0  0
   -1.7929   -0.9817    0.4247 N   0  0  0  0  0  0  0  0  0  0  0  0
   -2.4951   -0.7424   -0.2800 H   0  0  0  0  0  0  0  0  0  0  0  0
   -0.5250   -0.2388    0.3782 C   0  0  1  0  0  0  0  0  0  0  0  0
    0.1010   -0.6217    1.1903 H   0  0  0  0  0  0  0  0  0  0  0  0
    0.2262   -0.5818   -0.9292 C   0  0  0  0  0  0  0  0  0  0  0  0
    1.2763   -0.2955   -0.8103 H   0  0  0  0  0  0  0  0  0  0  0  0
    0.2075   -1.6723   -1.0350 H   0  0  0  0  0  0  0  0  0  0  0  0
   -0.2860    0.0275   -2.2624 C   0  0  0  0  0  0  0  0  0  0  0  0
    0.2263    0.9818   -2.4121 H   0  0  0  0  0  0  0  0  0  0  0  0
    0.0042   -0.6264   -3.0895 H   0  0  0  0  0  0  0  0  0  0  0  0
   -1.7872    0.3029   -2.3732 C   0  0  0  0  0  0  0  0  0  0  0  0
   -2.6078   -0.5961   -2.2970 O   0  0  0  0  0  0  0  0  0  0  0  0
   -2.2956    1.5485   -2.5942 N   0  0  0  0  0  0  0  0  0  0  0  0
   -3.3019    1.5985   -2.4717 H   0  0  0  0  0  0  0  0  0  0  0  0
   -1.7429    2.3095   -2.2069 H   0  0  0  0  0  0  0  0  0  0  0  0
   -0.6172    1.2790    0.6576 C   0  0  0  0  0  0  0  0  0  0  0  0
   -1.4586    1.9879    0.1210 O   0  0  0  0  0  0  0  0  0  0  0  0
    0.3000    1.8726    1.5060 N   0  0  0  0  0  0  0  0  0  0  0  0
    0.9273    1.2562    2.0156 H   0  0  0  0  0  0  0  0  0  0  0  0
    0.2503    3.2816    1.8791 C   0  0  0  0  0  0  0  0  0  0  0  0
   -0.6821    3.5047    2.4083 H   0  0  0  0  0  0  0  0  0  0  0  0
    1.0895    3.5283    2.5364 H   0  0  0  0  0  0  0  0  0  0  0  0
    0.3121    3.9173    0.9896 H   0  0  0  0  0  0  0  0  0  0  0  0
  1  2  1  0  0  0  0
  2  3  1  0  0  0  0
  2  4  1  0  0  0  0
  2  5  1  0  0  0  0
  5  6  2  0  0  0  0
  5  7  1  0  0  0  0
  7  8  1  0  0  0  0
  7  9  1  0  0  0  0
  9 10  1  0  0  0  0
  9 11  1  0  0  0  0
  9 22  1  0  0  0  0
 11 12  1  0  0  0  0
 11 13  1  0  0  0  0
 11 14  1  0  0  0  0
 14 15  1  0  0  0  0
 14 16  1  0  0  0  0
 14 17  1  0  0  0  0
 17 18  2  0  0  0  0
 17 19  1  0  0  0  0
 19 20  1  0  0  0  0
 19 21  1  0  0  0  0
 22 23  2  0  0  0  0
 22 24  1  0  0  0  0
 24 25  1  0  0  0  0
 24 26  1  0  0  0  0
 26 27  1  0  0  0  0
 26 28  1  0  0  0  0
 26 29  1  0  0  0  0
M  END
$$$$

  -OEChem-04042215583D

 29 28  0     1  0  0  0  0  0999 V2000
   -3.1663   -3.9341    1.4224 H   0  0  0  0  0  0  0  0  0  0  0  0
   -3.2338   -2.9642    0.9222 C   0  0  0  0  0  0  0  0  0  0  0  0
   -4.0401   -2.3856    1.3793 H   0  0  0  0  0  0  0  0  0  0  0  0
   -3.4665   -3.1259   -0.1333 H   0  0  0  0  0  0  0  0  0  0  0  0
   -1.9222   -2.2136    1.0524 C   0  0  0  0  0  0  0  0  0  0  0  0
   -0.9893   -2.7109    1.6657 O   0  0  0  0  0  0  0  0  0  0  0  0
   -1.7849   -0.9795    0.4532 N   0  0  0  0  0  0  0  0  0  0  0  0
   -2.5506   -0.6833   -0.1592 H   0  0  0  0  0  0  0  0  0  0  0  0
   -0.5382   -0.2083    0.3646 C   0  0  1  0  0  0  0  0  0  0  0  0
    0.1138   -0.5924    1.1553 H   0  0  0  0  0  0  0  0  0  0  0  0
    0.1897   -0.5512   -0.9555 C   0  0  0  0  0  0  0  0  0  0  0  0
    1.2332   -0.2340   -0.8594 H   0  0  0  0  0  0  0  0  0  0  0  0
    0.2034   -1.6436   -1.0399 H   0  0  0  0  0  0  0  0  0  0  0  0
   -0.3552    0.0139   -2.2964 C   0  0  0  0  0  0  0  0  0  0  0  0
    0.3141    0.8165   -2.6178 H   0  0  0  0  0  0  0  0  0  0  0  0
   -0.3010   -0.7695   -3.0577 H   0  0  0  0  0  0  0  0  0  0  0  0
   -1.7750    0.5812   -2.3072 C   0  0  0  0  0  0  0  0  0  0  0  0
   -2.7428   -0.1382   -2.1223 O   0  0  0  0  0  0  0  0  0  0  0  0
   -2.0437    1.8836   -2.6137 N   0  0  0  0  0  0  0  0  0  0  0  0
   -2.9902    2.1634   -2.3737 H   0  0  0  0  0  0  0  0  0  0  0  0
   -1.2978    2.5459   -2.4306 H   0  0  0  0  0  0  0  0  0  0  0  0
   -0.6343    1.2999    0.6935 C   0  0  0  0  0  0  0  0  0  0  0  0
   -1.5536    1.9987    0.2900 O   0  0  0  0  0  0  0  0  0  0  0  0
    0.3218    1.8800    1.5085 N   0  0  0  0  0  0  0  0  0  0  0  0
    1.0052    1.2604    1.9352 H   0  0  0  0  0  0  0  0  0  0  0  0
    0.2451    3.2597    1.9752 C   0  0  0  0  0  0  0  0  0  0  0  0
   -0.6683    3.4168    2.5586 H   0  0  0  0  0  0  0  0  0  0  0  0
    1.1052    3.4915    2.6106 H   0  0  0  0  0  0  0  0  0  0  0  0
    0.2465    3.9531    1.1277 H   0  0  0  0  0  0  0  0  0  0  0  0
  1  2  1  0  0  0  0
  2  3  1  0  0  0  0
  2  4  1  0  0  0  0
  2  5  1  0  0  0  0
  5  6  2  0  0  0  0
  5  7  1  0  0  0  0
  7  8  1  0  0  0  0
  7  9  1  0  0  0  0
  9 10  1  0  0  0  0
  9 11  1  0  0  0  0
  9 22  1  0  0  0  0
 11 12  1  0  0  0  0
 11 13  1  0  0  0  0
 11 14  1  0  0  0  0
 14 15  1  0  0  0  0
 14 16  1  0  0  0  0
 14 17  1  0  0  0  0
 17 18  2  0  0  0  0
 17 19  1  0  0  0  0
 19 20  1  0  0  0  0
 19 21  1  0  0  0  0
 22 23  2  0  0  0  0
 22 24  1  0  0  0  0
 24 25  1  0  0  0  0
 24 26  1  0  0  0  0
 26 27  1  0  0  0  0
 26 28  1  0  0  0  0
 26 29  1  0  0  0  0
M  END
$$$$

  -OEChem-04042215583D

 29 28  0     1  0  0  0  0  0999 V2000
   -2.9354   -3.7803    2.0054 H   0  0  0  0  0  0  0  0  0  0  0  0
   -3.0817   -2.8443    1.4597 C   0  0  0  0  0  0  0  0  0  0  0  0
   -3.7781   -2.2143    2.0184 H   0  0  0  0  0  0  0  0  0  0  0  0
   -3.5120   -3.0692    0.4806 H   0  0  0  0  0  0  0  0  0  0  0  0
   -1.7580   -2.1243    1.2883 C   0  0  0  0  0  0  0  0  0  0  0  0
   -0.7281   -2.6223    1.7185 O   0  0  0  0  0  0  0  0  0  0  0  0
   -1.7226   -0.9188    0.6207 N   0  0  0  0  0  0  0  0  0  0  0  0
   -2.5959   -0.5969    0.1951 H   0  0  0  0  0  0  0  0  0  0  0  0
   -0.5164   -0.1477    0.2981 C   0  0  1  0  0  0  0  0  0  0  0  0
    0.2370   -0.4787    1.0200 H   0  0  0  0  0  0  0  0  0  0  0  0
    0.0455   -0.6043   -1.0684 C   0  0  0  0  0  0  0  0  0  0  0  0
    1.0765   -0.2415   -1.1335 H   0  0  0  0  0  0  0  0  0  0  0  0
    0.1022   -1.6986   -1.0571 H   0  0  0  0  0  0  0  0  0  0  0  0
   -0.6800   -0.1773   -2.3734 C   0  0  0  0  0  0  0  0  0  0  0  0
    0.0297    0.3636   -3.0053 H   0  0  0  0  0  0  0  0  0  0  0  0
   -0.9637   -1.0812   -2.9204 H   0  0  0  0  0  0  0  0  0  0  0  0
   -1.9351    0.6780   -2.2388 C   0  0  0  0  0  0  0  0  0  0  0  0
   -2.9845    0.1796   -1.8679 O   0  0  0  0  0  0  0  0  0  0  0  0
   -1.9668    1.9999   -2.5780 N   0  0  0  0  0  0  0  0  0  0  0  0
   -2.7638    2.4930   -2.1837 H   0  0  0  0  0  0  0  0  0  0  0  0
   -1.0776    2.4842   -2.6109 H   0  0  0  0  0  0  0  0  0  0  0  0
   -0.5683    1.3758    0.5667 C   0  0  0  0  0  0  0  0  0  0  0  0
   -1.5753    2.0408    0.3687 O   0  0  0  0  0  0  0  0  0  0  0  0
    0.5052    1.9910    1.1873 N   0  0  0  0  0  0  0  0  0  0  0  0
    1.2693    1.3939    1.4912 H   0  0  0  0  0  0  0  0  0  0  0  0
    0.4759    3.3735    1.6519 C   0  0  0  0  0  0  0  0  0  0  0  0
    0.2928    4.0561    0.8155 H   0  0  0  0  0  0  0  0  0  0  0  0
    1.4341    3.6391    2.1089 H   0  0  0  0  0  0  0  0  0  0  0  0
   -0.3137    3.5110    2.3983 H   0  0  0  0  0  0  0  0  0  0  0  0
  1  2  1  0  0  0  0
  2  3  1  0  0  0  0
  2  4  1  0  0  0  0
  2  5  1  0  0  0  0
  5  6  2  0  0  0  0
  5  7  1  0  0  0  0
  7  8  1  0  0  0  0
  7  9  1  0  0  0  0
  9 10  1  0  0  0  0
  9 11  1  0  0  0  0
  9 22  1  0  0  0  0
 11 12  1  0  0  0  0
 11 13  1  0  0  0  0
 11 14  1  0  0  0  0
 14 15  1  0  0  0  0
 14 16  1  0  0  0  0
 14 17  1  0  0  0  0
 17 18  2  0  0  0  0
 17 19  1  0  0  0  0
 19 20  1  0  0  0  0
 19 21  1  0  0  0  0
 22 23  2  0  0  0  0
 22 24  1  0  0  0  0
 24 25  1  0  0  0  0
 24 26  1  0  0  0  0
 26 27  1  0  0  0  0
 26 28  1  0  0  0  0
 26 29  1  0  0  0  0
M  END
$$$$

  -OEChem-04042215583D

 29 28  0     1  0  0  0  0  0999 V2000
   -3.1663   -3.8675    1.5246 H   0  0  0  0  0  0  0  0  0  0  0  0
   -3.2540   -2.9072    1.0088 C   0  0  0  0  0  0  0  0  0  0  0  0
   -4.0162   -2.3056    1.5100 H   0  0  0  0  0  0  0  0  0  0  0  0
   -3.5639   -3.0875   -0.0236 H   0  0  0  0  0  0  0  0  0  0  0  0
   -1.9242   -2.1781    1.0291 C   0  0  0  0  0  0  0  0  0  0  0  0
   -0.9544   -2.6862    1.5717 O   0  0  0  0  0  0  0  0  0  0  0  0
   -1.8104   -0.9492    0.4137 N   0  0  0  0  0  0  0  0  0  0  0  0
   -2.6411   -0.5764   -0.0489 H   0  0  0  0  0  0  0  0  0  0  0  0
   -0.5948   -0.1299    0.3499 C   0  0  1  0  0  0  0  0  0  0  0  0
    0.0075   -0.4526    1.2054 H   0  0  0  0  0  0  0  0  0  0  0  0
    0.2590   -0.5395   -0.8738 C   0  0  0  0  0  0  0  0  0  0  0  0
    1.2547   -0.1131   -0.7148 H   0  0  0  0  0  0  0  0  0  0  0  0
    0.3815   -1.6282   -0.8595 H   0  0  0  0  0  0  0  0  0  0  0  0
   -0.1880   -0.1220   -2.2989 C   0  0  0  0  0  0  0  0  0  0  0  0
    0.6910    0.1889   -2.8700 H   0  0  0  0  0  0  0  0  0  0  0  0
   -0.5861   -1.0128   -2.7946 H   0  0  0  0  0  0  0  0  0  0  0  0
   -1.2524    0.9573   -2.4318 C   0  0  0  0  0  0  0  0  0  0  0  0
   -2.4299    0.6544   -2.4976 O   0  0  0  0  0  0  0  0  0  0  0  0
   -0.9440    2.2820   -2.5521 N   0  0  0  0  0  0  0  0  0  0  0  0
   -0.0188    2.5736   -2.2609 H   0  0  0  0  0  0  0  0  0  0  0  0
   -1.7305    2.8972   -2.3582 H   0  0  0  0  0  0  0  0  0  0  0  0
   -0.7737    1.3773    0.6488 C   0  0  0  0  0  0  0  0  0  0  0  0
   -1.7892    1.9795    0.3305 O   0  0  0  0  0  0  0  0  0  0  0  0
    0.1270    2.0169    1.4828 N   0  0  0  0  0  0  0  0  0  0  0  0
    0.8631    1.4484    1.8922 H   0  0  0  0  0  0  0  0  0  0  0  0
   -0.0877    3.3600    2.0106 C   0  0  0  0  0  0  0  0  0  0  0  0
   -0.9798    3.3841    2.6455 H   0  0  0  0  0  0  0  0  0  0  0  0
    0.7730    3.6728    2.6098 H   0  0  0  0  0  0  0  0  0  0  0  0
   -0.2177    4.0784    1.1943 H   0  0  0  0  0  0  0  0  0  0  0  0
  1  2  1  0  0  0  0
  2  3  1  0  0  0  0
  2  4  1  0  0  0  0
  2  5  1  0  0  0  0
  5  6  2  0  0  0  0
  5  7  1  0  0  0  0
  7  8  1  0  0  0  0
  7  9  1  0  0  0  0
  9 10  1  0  0  0  0
  9 11  1  0  0  0  0
  9 22  1  0  0  0  0
 11 12  1  0  0  0  0
 11 13  1  0  0  0  0
 11 14  1  0  0  0  0
 14 15  1  0  0  0  0
 14 16  1  0  0  0  0
 14 17  1  0  0  0  0
 17 18  2  0  0  0  0
 17 19  1  0  0  0  0
 19 20  1  0  0  0  0
 19 21  1  0  0  0  0
 22 23  2  0  0  0  0
 22 24  1  0  0  0  0
 24 25  1  0  0  0  0
 24 26  1  0  0  0  0
 26 27  1  0  0  0  0
 26 28  1  0  0  0  0
 26 29  1  0  0  0  0
M  END
$$$$

  -OEChem-04042215583D

 29 28  0     1  0  0  0  0  0999 V2000
   -3.5831   -3.5776    1.0747 H   0  0  0  0  0  0  0  0  0  0  0  0
   -3.5198   -2.5793    0.6327 C   0  0  0  0  0  0  0  0  0  0  0  0
   -4.1234   -1.8917    1.2302 H   0  0  0  0  0  0  0  0  0  0  0  0
   -3.9204   -2.6171   -0.3830 H   0  0  0  0  0  0  0  0  0  0  0  0
   -2.0768   -2.1123    0.6027 C   0  0  0  0  0  0  0  0  0  0  0  0
   -1.1862   -2.8568    0.9811 O   0  0  0  0  0  0  0  0  0  0  0  0
   -1.7749   -0.8492    0.1353 N   0  0  0  0  0  0  0  0  0  0  0  0
   -2.5659   -0.2207   -0.0012 H   0  0  0  0  0  0  0  0  0  0  0  0
   -0.4691   -0.1972    0.3198 C   0  0  1  0  0  0  0  0  0  0  0  0
    0.0032   -0.6723    1.1867 H   0  0  0  0  0  0  0  0  0  0  0  0
    0.4687   -0.5206   -0.8708 C   0  0  0  0  0  0  0  0  0  0  0  0
    1.4761   -0.2471   -0.5394 H   0  0  0  0  0  0  0  0  0  0  0  0
    0.4735   -1.6056   -1.0221 H   0  0  0  0  0  0  0  0  0  0  0  0
    0.2728    0.1588   -2.2488 C   0  0  0  0  0  0  0  0  0  0  0  0
    1.2324    0.1808   -2.7737 H   0  0  0  0  0  0  0  0  0  0  0  0
   -0.3984   -0.4719   -2.8381 H   0  0  0  0  0  0  0  0  0  0  0  0
   -0.3109    1.5631   -2.2622 C   0  0  0  0  0  0  0  0  0  0  0  0
    0.3923    2.5222   -2.0057 O   0  0  0  0  0  0  0  0  0  0  0  0
   -1.6173    1.8158   -2.5655 N   0  0  0  0  0  0  0  0  0  0  0  0
   -1.9350    2.7301   -2.2538 H   0  0  0  0  0  0  0  0  0  0  0  0
   -2.2607    1.0358   -2.5073 H   0  0  0  0  0  0  0  0  0  0  0  0
   -0.6351    1.2741    0.7654 C   0  0  0  0  0  0  0  0  0  0  0  0
   -1.6644    1.8708    0.4603 O   0  0  0  0  0  0  0  0  0  0  0  0
    0.1406    1.7846    1.7897 N   0  0  0  0  0  0  0  0  0  0  0  0
    0.9705    1.2620    2.0533 H   0  0  0  0  0  0  0  0  0  0  0  0
   -0.0395    3.1278    2.3275 C   0  0  0  0  0  0  0  0  0  0  0  0
   -1.0354    3.2343    2.7702 H   0  0  0  0  0  0  0  0  0  0  0  0
    0.7053    3.3273    3.1038 H   0  0  0  0  0  0  0  0  0  0  0  0
    0.0765    3.8753    1.5354 H   0  0  0  0  0  0  0  0  0  0  0  0
  1  2  1  0  0  0  0
  2  3  1  0  0  0  0
  2  4  1  0  0  0  0
  2  5  1  0  0  0  0
  5  6  2  0  0  0  0
  5  7  1  0  0  0  0
  7  8  1  0  0  0  0
  7  9  1  0  0  0  0
  9 10  1  0  0  0  0
  9 11  1  0  0  0  0
  9 22  1  0  0  0  0
 11 12  1  0  0  0  0
 11 13  1  0  0  0  0
 11 14  1  0  0  0  0
 14 15  1  0  0  0  0
 14 16  1  0  0  0  0
 14 17  1  0  0  0  0
 17 18  2  0  0  0  0
 17 19  1  0  0  0  0
 19 20  1  0  0  0  0
 19 21  1  0  0  0  0
 22 23  2  0  0  0  0
 22 24  1  0  0  0  0
 24 25  1  0  0  0  0
 24 26  1  0  0  0  0
 26 27  1  0  0  0  0
 26 28  1  0  0  0  0
 26 29  1  0  0  0  0
M  END
$$$$

  -OEChem-04042215583D

 29 28  0     1  0  0  0  0  0999 V2000
   -3.4617   -3.6678    1.1671 H   0  0  0  0  0  0  0  0  0  0  0  0
   -3.4211   -2.6819    0.6954 C   0  0  0  0  0  0  0  0  0  0  0  0
   -4.0426   -1.9912    1.2706 H   0  0  0  0  0  0  0  0  0  0  0  0
   -3.8181   -2.7600   -0.3195 H   0  0  0  0  0  0  0  0  0  0  0  0
   -1.9899   -2.1806    0.6545 C   0  0  0  0  0  0  0  0  0  0  0  0
   -1.0811   -2.8952    1.0466 O   0  0  0  0  0  0  0  0  0  0  0  0
   -1.7203   -0.9186    0.1660 N   0  0  0  0  0  0  0  0  0  0  0  0
   -2.5251   -0.3150    0.0021 H   0  0  0  0  0  0  0  0  0  0  0  0
   -0.4256   -0.2361    0.3120 C   0  0  1  0  0  0  0  0  0  0  0  0
    0.0930   -0.6929    1.1618 H   0  0  0  0  0  0  0  0  0  0  0  0
    0.4634   -0.5309   -0.9229 C   0  0  0  0  0  0  0  0  0  0  0  0
    1.4839   -0.2489   -0.6429 H   0  0  0  0  0  0  0  0  0  0  0  0
    0.4704   -1.6133   -1.0917 H   0  0  0  0  0  0  0  0  0  0  0  0
    0.1723    0.1687   -2.2726 C   0  0  0  0  0  0  0  0  0  0  0  0
    1.0168    0.0046   -2.9478 H   0  0  0  0  0  0  0  0  0  0  0  0
   -0.6995   -0.3140   -2.7222 H   0  0  0  0  0  0  0  0  0  0  0  0
   -0.1041    1.6649   -2.2157 C   0  0  0  0  0  0  0  0  0  0  0  0
    0.7533    2.4367   -1.8272 O   0  0  0  0  0  0  0  0  0  0  0  0
   -1.3025    2.2083   -2.5773 N   0  0  0  0  0  0  0  0  0  0  0  0
   -1.4418    3.1514   -2.2251 H   0  0  0  0  0  0  0  0  0  0  0  0
   -2.0990    1.5822   -2.5949 H   0  0  0  0  0  0  0  0  0  0  0  0
   -0.6310    1.2338    0.7415 C   0  0  0  0  0  0  0  0  0  0  0  0
   -1.6640    1.8092    0.4070 O   0  0  0  0  0  0  0  0  0  0  0  0
    0.1438    1.7878    1.7432 N   0  0  0  0  0  0  0  0  0  0  0  0
    1.0001    1.3004    1.9903 H   0  0  0  0  0  0  0  0  0  0  0  0
   -0.0376    3.1554    2.2140 C   0  0  0  0  0  0  0  0  0  0  0  0
   -1.0428    3.2899    2.6273 H   0  0  0  0  0  0  0  0  0  0  0  0
    0.6901    3.3855    2.9981 H   0  0  0  0  0  0  0  0  0  0  0  0
    0.1036    3.8638    1.3906 H   0  0  0  0  0  0  0  0  0  0  0  0
  1  2  1  0  0  0  0
  2  3  1  0  0  0  0
  2  4  1  0  0  0  0
  2  5  1  0  0  0  0
  5  6  2  0  0  0  0
  5  7  1  0  0  0  0
  7  8  1  0  0  0  0
  7  9  1  0  0  0  0
  9 10  1  0  0  0  0
  9 11  1  0  0  0  0
  9 22  1  0  0  0  0
 11 12  1  0  0  0  0
 11 13  1  0  0  0  0
 11 14  1  0  0  0  0
 14 15  1  0  0  0  0
 14 16  1  0  0  0  0
 14 17  1  0  0  0  0
 17 18  2  0  0  0  0
 17 19  1  0  0  0  0
 19 20  1  0  0  0  0
 19 21  1  0  0  0  0
 22 23  2  0  0  0  0
 22 24  1  0  0  0  0
 24 25  1  0  0  0  0
 24 26  1  0  0  0  0
 26 27  1  0  0  0  0
 26 28  1  0  0  0  0
 26 29  1  0  0  0  0
M  END
$$$$

  -OEChem-04042215583D

 29 28  0     1  0  0  0  0  0999 V2000
   -3.4089   -3.6976    1.2995 H   0  0  0  0  0  0  0  0  0  0  0  0
   -3.3788   -2.7212    0.8078 C   0  0  0  0  0  0  0  0  0  0  0  0
   -3.9992   -2.0226    1.3743 H   0  0  0  0  0  0  0  0  0  0  0  0
   -3.7841   -2.8220   -0.2018 H   0  0  0  0  0  0  0  0  0  0  0  0
   -1.9512   -2.2119    0.7447 C   0  0  0  0  0  0  0  0  0  0  0  0
   -1.0374   -2.9019    1.1680 O   0  0  0  0  0  0  0  0  0  0  0  0
   -1.6914   -0.9701    0.2023 N   0  0  0  0  0  0  0  0  0  0  0  0
   -2.4995   -0.3836   -0.0019 H   0  0  0  0  0  0  0  0  0  0  0  0
   -0.3978   -0.2773    0.3027 C   0  0  1  0  0  0  0  0  0  0  0  0
    0.1514   -0.7041    1.1487 H   0  0  0  0  0  0  0  0  0  0  0  0
    0.4470   -0.5802   -0.9587 C   0  0  0  0  0  0  0  0  0  0  0  0
    1.4851   -0.3138   -0.7318 H   0  0  0  0  0  0  0  0  0  0  0  0
    0.4290   -1.6619   -1.1299 H   0  0  0  0  0  0  0  0  0  0  0  0
    0.0664    0.1285   -2.2789 C   0  0  0  0  0  0  0  0  0  0  0  0
    0.7383   -0.2122   -3.0713 H   0  0  0  0  0  0  0  0  0  0  0  0
   -0.9471   -0.1719   -2.5569 H   0  0  0  0  0  0  0  0  0  0  0  0
    0.1293    1.6519   -2.2371 C   0  0  0  0  0  0  0  0  0  0  0  0
    1.1176    2.2276   -1.8195 O   0  0  0  0  0  0  0  0  0  0  0  0
   -0.9107    2.4411   -2.6337 N   0  0  0  0  0  0  0  0  0  0  0  0
   -0.8356    3.4032   -2.3171 H   0  0  0  0  0  0  0  0  0  0  0  0
   -1.8287    2.0101   -2.6394 H   0  0  0  0  0  0  0  0  0  0  0  0
   -0.6140    1.2057    0.6745 C   0  0  0  0  0  0  0  0  0  0  0  0
   -1.6270    1.7772    0.2773 O   0  0  0  0  0  0  0  0  0  0  0  0
    0.1642    1.8098    1.6436 N   0  0  0  0  0  0  0  0  0  0  0  0
    1.0159    1.3290    1.9191 H   0  0  0  0  0  0  0  0  0  0  0  0
   -0.0076    3.2014    2.0411 C   0  0  0  0  0  0  0  0  0  0  0  0
   -1.0150    3.3665    2.4374 H   0  0  0  0  0  0  0  0  0  0  0  0
    0.7150    3.4636    2.8197 H   0  0  0  0  0  0  0  0  0  0  0  0
    0.1490    3.8653    1.1843 H   0  0  0  0  0  0  0  0  0  0  0  0
  1  2  1  0  0  0  0
  2  3  1  0  0  0  0
  2  4  1  0  0  0  0
  2  5  1  0  0  0  0
  5  6  2  0  0  0  0
  5  7  1  0  0  0  0
  7  8  1  0  0  0  0
  7  9  1  0  0  0  0
  9 10  1  0  0  0  0
  9 11  1  0  0  0  0
  9 22  1  0  0  0  0
 11 12  1  0  0  0  0
 11 13  1  0  0  0  0
 11 14  1  0  0  0  0
 14 15  1  0  0  0  0
 14 16  1  0  0  0  0
 14 17  1  0  0  0  0
 17 18  2  0  0  0  0
 17 19  1  0  0  0  0
 19 20  1  0  0  0  0
 19 21  1  0  0  0  0
 22 23  2  0  0  0  0
 22 24  1  0  0  0  0
 24 25  1  0  0  0  0
 24 26  1  0  0  0  0
 26 27  1  0  0  0  0
 26 28  1  0  0  0  0
 26 29  1  0  0  0  0
M  END
$$$$

  -OEChem-04042215583D

 29 28  0     1  0  0  0  0  0999 V2000
   -3.3909   -3.7369    1.3136 H   0  0  0  0  0  0  0  0  0  0  0  0
   -3.3666   -2.7547    0.8334 C   0  0  0  0  0  0  0  0  0  0  0  0
   -4.0128   -2.0735    1.3921 H   0  0  0  0  0  0  0  0  0  0  0  0
   -3.7461   -2.8520   -0.1866 H   0  0  0  0  0  0  0  0  0  0  0  0
   -1.9473   -2.2197    0.8094 C   0  0  0  0  0  0  0  0  0  0  0  0
   -1.0437   -2.8628    1.3193 O   0  0  0  0  0  0  0  0  0  0  0  0
   -1.6822   -1.0081    0.2047 N   0  0  0  0  0  0  0  0  0  0  0  0
   -2.4855   -0.4571   -0.0944 H   0  0  0  0  0  0  0  0  0  0  0  0
   -0.3924   -0.3048    0.2811 C   0  0  1  0  0  0  0  0  0  0  0  0
    0.1650   -0.6917    1.1409 H   0  0  0  0  0  0  0  0  0  0  0  0
    0.4429   -0.6304   -0.9777 C   0  0  0  0  0  0  0  0  0  0  0  0
    1.4894   -0.3756   -0.7766 H   0  0  0  0  0  0  0  0  0  0  0  0
    0.4075   -1.7140   -1.1353 H   0  0  0  0  0  0  0  0  0  0  0  0
    0.0159    0.0667   -2.2882 C   0  0  0  0  0  0  0  0  0  0  0  0
    0.4944   -0.4397   -3.1310 H   0  0  0  0  0  0  0  0  0  0  0  0
   -1.0651   -0.0310   -2.4190 H   0  0  0  0  0  0  0  0  0  0  0  0
    0.4038    1.5423   -2.3608 C   0  0  0  0  0  0  0  0  0  0  0  0
    1.5633    1.8964   -2.2563 O   0  0  0  0  0  0  0  0  0  0  0  0
   -0.5143    2.5424   -2.4876 N   0  0  0  0  0  0  0  0  0  0  0  0
   -0.1307    3.4673   -2.3217 H   0  0  0  0  0  0  0  0  0  0  0  0
   -1.4351    2.3378   -2.1040 H   0  0  0  0  0  0  0  0  0  0  0  0
   -0.6181    1.1935    0.5692 C   0  0  0  0  0  0  0  0  0  0  0  0
   -1.5962    1.7568    0.0827 O   0  0  0  0  0  0  0  0  0  0  0  0
    0.1448    1.8557    1.5116 N   0  0  0  0  0  0  0  0  0  0  0  0
    0.9506    1.3656    1.8908 H   0  0  0  0  0  0  0  0  0  0  0  0
   -0.0412    3.2621    1.8467 C   0  0  0  0  0  0  0  0  0  0  0  0
   -1.0591    3.4400    2.2092 H   0  0  0  0  0  0  0  0  0  0  0  0
    0.6602    3.5586    2.6325 H   0  0  0  0  0  0  0  0  0  0  0  0
    0.1364    3.8914    0.9683 H   0  0  0  0  0  0  0  0  0  0  0  0
  1  2  1  0  0  0  0
  2  3  1  0  0  0  0
  2  4  1  0  0  0  0
  2  5  1  0  0  0  0
  5  6  2  0  0  0  0
  5  7  1  0  0  0  0
  7  8  1  0  0  0  0
  7  9  1  0  0  0  0
  9 10  1  0  0  0  0
  9 11  1  0  0  0  0
  9 22  1  0  0  0  0
 11 12  1  0  0  0  0
 11 13  1  0  0  0  0
 11 14  1  0  0  0  0
 14 15  1  0  0  0  0
 14 16  1  0  0  0  0
 14 17  1  0  0  0  0
 17 18  2  0  0  0  0
 17 19  1  0  0  0  0
 19 20  1  0  0  0  0
 19 21  1  0  0  0  0
 22 23  2  0  0  0  0
 22 24  1  0  0  0  0
 24 25  1  0  0  0  0
 24 26  1  0  0  0  0
 26 27  1  0  0  0  0
 26 28  1  0  0  0  0
 26 29  1  0  0  0  0
M  END
$$$$

  -OEChem-04042215583D

 29 28  0     1  0  0  0  0  0999 V2000
   -3.3555   -3.7752    1.3628 H   0  0  0  0  0  0  0  0  0  0  0  0
   -3.3476   -2.7986    0.8709 C   0  0  0  0  0  0  0  0  0  0  0  0
   -4.0151   -2.1248    1.4134 H   0  0  0  0  0  0  0  0  0  0  0  0
   -3.7133   -2.9175   -0.1518 H   0  0  0  0  0  0  0  0  0  0  0  0
   -1.9405   -2.2319    0.8568 C   0  0  0  0  0  0  0  0  0  0  0  0
   -1.0352   -2.8295    1.4164 O   0  0  0  0  0  0  0  0  0  0  0  0
   -1.6906   -1.0382    0.2113 N   0  0  0  0  0  0  0  0  0  0  0  0
   -2.4958   -0.5317   -0.1528 H   0  0  0  0  0  0  0  0  0  0  0  0
   -0.4121   -0.3129    0.2596 C   0  0  1  0  0  0  0  0  0  0  0  0
    0.1564   -0.6704    1.1246 H   0  0  0  0  0  0  0  0  0  0  0  0
    0.4190   -0.6512   -0.9967 C   0  0  0  0  0  0  0  0  0  0  0  0
    1.4667   -0.3844   -0.8176 H   0  0  0  0  0  0  0  0  0  0  0  0
    0.3914   -1.7374   -1.1367 H   0  0  0  0  0  0  0  0  0  0  0  0
   -0.0595    0.0251   -2.3001 C   0  0  0  0  0  0  0  0  0  0  0  0
    0.2045   -0.6166   -3.1454 H   0  0  0  0  0  0  0  0  0  0  0  0
   -1.1480    0.1288   -2.3018 H   0  0  0  0  0  0  0  0  0  0  0  0
    0.5942    1.3827   -2.5443 C   0  0  0  0  0  0  0  0  0  0  0  0
    1.7841    1.4833   -2.7762 O   0  0  0  0  0  0  0  0  0  0  0  0
   -0.0953    2.5541   -2.4348 N   0  0  0  0  0  0  0  0  0  0  0  0
    0.4846    3.3862   -2.4008 H   0  0  0  0  0  0  0  0  0  0  0  0
   -0.9477    2.5249   -1.8731 H   0  0  0  0  0  0  0  0  0  0  0  0
   -0.6311    1.1952    0.4952 C   0  0  0  0  0  0  0  0  0  0  0  0
   -1.5582    1.7732   -0.0662 O   0  0  0  0  0  0  0  0  0  0  0  0
    0.1404    1.8843    1.4108 N   0  0  0  0  0  0  0  0  0  0  0  0
    0.8860    1.3744    1.8777 H   0  0  0  0  0  0  0  0  0  0  0  0
   -0.0400    3.2989    1.7124 C   0  0  0  0  0  0  0  0  0  0  0  0
   -1.0603    3.4910    2.0608 H   0  0  0  0  0  0  0  0  0  0  0  0
    0.6556    3.6091    2.4981 H   0  0  0  0  0  0  0  0  0  0  0  0
    0.1504    3.9071    0.8221 H   0  0  0  0  0  0  0  0  0  0  0  0
  1  2  1  0  0  0  0
  2  3  1  0  0  0  0
  2  4  1  0  0  0  0
  2  5  1  0  0  0  0
  5  6  2  0  0  0  0
  5  7  1  0  0  0  0
  7  8  1  0  0  0  0
  7  9  1  0  0  0  0
  9 10  1  0  0  0  0
  9 11  1  0  0  0  0
  9 22  1  0  0  0  0
 11 12  1  0  0  0  0
 11 13  1  0  0  0  0
 11 14  1  0  0  0  0
 14 15  1  0  0  0  0
 14 16  1  0  0  0  0
 14 17  1  0  0  0  0
 17 18  2  0  0  0  0
 17 19  1  0  0  0  0
 19 20  1  0  0  0  0
 19 21  1  0  0  0  0
 22 23  2  0  0  0  0
 22 24  1  0  0  0  0
 24 25  1  0  0  0  0
 24 26  1  0  0  0  0
 26 27  1  0  0  0  0
 26 28  1  0  0  0  0
 26 29  1  0  0  0  0
M  END
$$$$

  -OEChem-04042215583D

 29 28  0     1  0  0  0  0  0999 V2000
   -3.3537   -3.8120    1.4240 H   0  0  0  0  0  0  0  0  0  0  0  0
   -3.3503   -2.8326    0.9373 C   0  0  0  0  0  0  0  0  0  0  0  0
   -3.9794   -2.1507    1.5145 H   0  0  0  0  0  0  0  0  0  0  0  0
   -3.7648   -2.9374   -0.0682 H   0  0  0  0  0  0  0  0  0  0  0  0
   -1.9350   -2.2917    0.8606 C   0  0  0  0  0  0  0  0  0  0  0  0
   -1.0076   -2.9448    1.3117 O   0  0  0  0  0  0  0  0  0  0  0  0
   -1.7029   -1.0633    0.2770 N   0  0  0  0  0  0  0  0  0  0  0  0
   -2.5210   -0.5127    0.0210 H   0  0  0  0  0  0  0  0  0  0  0  0
   -0.4196   -0.3463    0.3258 C   0  0  1  0  0  0  0  0  0  0  0  0
    0.1717   -0.7597    1.1498 H   0  0  0  0  0  0  0  0  0  0  0  0
    0.3819   -0.5882   -0.9665 C   0  0  0  0  0  0  0  0  0  0  0  0
    1.4366   -0.3569   -0.7865 H   0  0  0  0  0  0  0  0  0  0  0  0
    0.3400   -1.6592   -1.1920 H   0  0  0  0  0  0  0  0  0  0  0  0
   -0.1566    0.1950   -2.1900 C   0  0  0  0  0  0  0  0  0  0  0  0
   -0.1571   -0.4820   -3.0485 H   0  0  0  0  0  0  0  0  0  0  0  0
   -1.1925    0.5043   -2.0314 H   0  0  0  0  0  0  0  0  0  0  0  0
    0.6844    1.4096   -2.5870 C   0  0  0  0  0  0  0  0  0  0  0  0
    1.7009    1.7488   -2.0079 O   0  0  0  0  0  0  0  0  0  0  0  0
    0.3014    2.2212   -3.6152 N   0  0  0  0  0  0  0  0  0  0  0  0
    0.7857    3.1126   -3.6658 H   0  0  0  0  0  0  0  0  0  0  0  0
   -0.6522    2.1470   -3.9531 H   0  0  0  0  0  0  0  0  0  0  0  0
   -0.6084    1.1509    0.6556 C   0  0  0  0  0  0  0  0  0  0  0  0
   -1.5795    1.7538    0.2077 O   0  0  0  0  0  0  0  0  0  0  0  0
    0.2059    1.7739    1.5823 N   0  0  0  0  0  0  0  0  0  0  0  0
    1.0315    1.2678    1.8904 H   0  0  0  0  0  0  0  0  0  0  0  0
    0.0824    3.1846    1.9272 C   0  0  0  0  0  0  0  0  0  0  0  0
   -0.9178    3.3982    2.3189 H   0  0  0  0  0  0  0  0  0  0  0  0
    0.8159    3.4520    2.6940 H   0  0  0  0  0  0  0  0  0  0  0  0
    0.2578    3.8100    1.0454 H   0  0  0  0  0  0  0  0  0  0  0  0
  1  2  1  0  0  0  0
  2  3  1  0  0  0  0
  2  4  1  0  0  0  0
  2  5  1  0  0  0  0
  5  6  2  0  0  0  0
  5  7  1  0  0  0  0
  7  8  1  0  0  0  0
  7  9  1  0  0  0  0
  9 10  1  0  0  0  0
  9 11  1  0  0  0  0
  9 22  1  0  0  0  0
 11 12  1  0  0  0  0
 11 13  1  0  0  0  0
 11 14  1  0  0  0  0
 14 15  1  0  0  0  0
 14 16  1  0  0  0  0
 14 17  1  0  0  0  0
 17 18  2  0  0  0  0
 17 19  1  0  0  0  0
 19 20  1  0  0  0  0
 19 21  1  0  0  0  0
 22 23  2  0  0  0  0
 22 24  1  0  0  0  0
 24 25  1  0  0  0  0
 24 26  1  0  0  0  0
 26 27  1  0  0  0  0
 26 28  1  0  0  0  0
 26 29  1  0  0  0  0
M  END
$$$$

  -OEChem-04042215583D

 29 28  0     1  0  0  0  0  0999 V2000
   -3.3426   -3.7906    1.4805 H   0  0  0  0  0  0  0  0  0  0  0  0
   -3.3402   -2.8451    0.9309 C   0  0  0  0  0  0  0  0  0  0  0  0
   -3.9990   -2.1397    1.4429 H   0  0  0  0  0  0  0  0  0  0  0  0
   -3.7204   -3.0222   -0.0778 H   0  0  0  0  0  0  0  0  0  0  0  0
   -1.9325   -2.2839    0.8620 C   0  0  0  0  0  0  0  0  0  0  0  0
   -0.9964   -2.9302    1.3050 O   0  0  0  0  0  0  0  0  0  0  0  0
   -1.7170   -1.0458    0.2921 N   0  0  0  0  0  0  0  0  0  0  0  0
   -2.5417   -0.5048    0.0373 H   0  0  0  0  0  0  0  0  0  0  0  0
   -0.4386   -0.3202    0.3273 C   0  0  1  0  0  0  0  0  0  0  0  0
    0.1603   -0.7390    1.1430 H   0  0  0  0  0  0  0  0  0  0  0  0
    0.3556   -0.5666   -0.9688 C   0  0  0  0  0  0  0  0  0  0  0  0
    1.4003   -0.3043   -0.7762 H   0  0  0  0  0  0  0  0  0  0  0  0
    0.3459   -1.6404   -1.1845 H   0  0  0  0  0  0  0  0  0  0  0  0
   -0.1847    0.1970   -2.2075 C   0  0  0  0  0  0  0  0  0  0  0  0
   -0.4535   -0.5432   -2.9661 H   0  0  0  0  0  0  0  0  0  0  0  0
   -1.1003    0.7403   -1.9679 H   0  0  0  0  0  0  0  0  0  0  0  0
    0.8030    1.1710   -2.8529 C   0  0  0  0  0  0  0  0  0  0  0  0
    1.9167    1.4024   -2.4189 O   0  0  0  0  0  0  0  0  0  0  0  0
    0.4563    1.8826   -3.9649 N   0  0  0  0  0  0  0  0  0  0  0  0
    1.0796    2.6477   -4.2057 H   0  0  0  0  0  0  0  0  0  0  0  0
   -0.5231    1.9258   -4.2253 H   0  0  0  0  0  0  0  0  0  0  0  0
   -0.6139    1.1734    0.6799 C   0  0  0  0  0  0  0  0  0  0  0  0
   -1.5928    1.7886    0.2693 O   0  0  0  0  0  0  0  0  0  0  0  0
    0.2246    1.7776    1.5979 N   0  0  0  0  0  0  0  0  0  0  0  0
    1.0320    1.2477    1.9145 H   0  0  0  0  0  0  0  0  0  0  0  0
    0.1032    3.1750    1.9946 C   0  0  0  0  0  0  0  0  0  0  0  0
   -0.8853    3.3683    2.4242 H   0  0  0  0  0  0  0  0  0  0  0  0
    0.8592    3.4210    2.7466 H   0  0  0  0  0  0  0  0  0  0  0  0
    0.2473    3.8322    1.1305 H   0  0  0  0  0  0  0  0  0  0  0  0
  1  2  1  0  0  0  0
  2  3  1  0  0  0  0
  2  4  1  0  0  0  0
  2  5  1  0  0  0  0
  5  6  2  0  0  0  0
  5  7  1  0  0  0  0
  7  8  1  0  0  0  0
  7  9  1  0  0  0  0
  9 10  1  0  0  0  0
  9 11  1  0  0  0  0
  9 22  1  0  0  0  0
 11 12  1  0  0  0  0
 11 13  1  0  0  0  0
 11 14  1  0  0  0  0
 14 15  1  0  0  0  0
 14 16  1  0  0  0  0
 14 17  1  0  0  0  0
 17 18  2  0  0  0  0
 17 19  1  0  0  0  0
 19 20  1  0  0  0  0
 19 21  1  0  0  0  0
 22 23  2  0  0  0  0
 22 24  1  0  0  0  0
 24 25  1  0  0  0  0
 24 26  1  0  0  0  0
 26 27  1  0  0  0  0
 26 28  1  0  0  0  0
 26 29  1  0  0  0  0
M  END
$$$$

  -OEChem-04042215583D

 29 28  0     1  0  0  0  0  0999 V2000
   -3.2519   -3.8471    1.5160 H   0  0  0  0  0  0  0  0  0  0  0  0
   -3.2898   -2.8815    1.0039 C   0  0  0  0  0  0  0  0  0  0  0  0
   -3.9608   -2.2172    1.5538 H   0  0  0  0  0  0  0  0  0  0  0  0
   -3.6835   -3.0336   -0.0040 H   0  0  0  0  0  0  0  0  0  0  0  0
   -1.9021   -2.2722    0.9320 C   0  0  0  0  0  0  0  0  0  0  0  0
   -0.9515   -2.8591    1.4240 O   0  0  0  0  0  0  0  0  0  0  0  0
   -1.7221   -1.0541    0.3090 N   0  0  0  0  0  0  0  0  0  0  0  0
   -2.5585   -0.5625   -0.0006 H   0  0  0  0  0  0  0  0  0  0  0  0
   -0.4577   -0.3049    0.2739 C   0  0  1  0  0  0  0  0  0  0  0  0
    0.1722   -0.6794    1.0875 H   0  0  0  0  0  0  0  0  0  0  0  0
    0.2962   -0.6187   -1.0346 C   0  0  0  0  0  0  0  0  0  0  0  0
    1.3301   -0.2843   -0.8937 H   0  0  0  0  0  0  0  0  0  0  0  0
    0.3367   -1.7033   -1.1847 H   0  0  0  0  0  0  0  0  0  0  0  0
   -0.2814    0.0518   -2.3060 C   0  0  0  0  0  0  0  0  0  0  0  0
   -0.8238   -0.6978   -2.8883 H   0  0  0  0  0  0  0  0  0  0  0  0
   -1.0000    0.8311   -2.0532 H   0  0  0  0  0  0  0  0  0  0  0  0
    0.7924    0.6712   -3.1947 C   0  0  0  0  0  0  0  0  0  0  0  0
    1.8611    0.1294   -3.4059 O   0  0  0  0  0  0  0  0  0  0  0  0
    0.6273    1.9052   -3.7552 N   0  0  0  0  0  0  0  0  0  0  0  0
    1.4545    2.3224   -4.1712 H   0  0  0  0  0  0  0  0  0  0  0  0
   -0.1371    2.4910   -3.4344 H   0  0  0  0  0  0  0  0  0  0  0  0
   -0.6385    1.1997    0.5719 C   0  0  0  0  0  0  0  0  0  0  0  0
   -1.6183    1.8023    0.1471 O   0  0  0  0  0  0  0  0  0  0  0  0
    0.2246    1.8466    1.4369 N   0  0  0  0  0  0  0  0  0  0  0  0
    0.9816    1.3017    1.8410 H   0  0  0  0  0  0  0  0  0  0  0  0
    0.0462    3.2287    1.8656 C   0  0  0  0  0  0  0  0  0  0  0  0
   -0.9090    3.3482    2.3877 H   0  0  0  0  0  0  0  0  0  0  0  0
    0.8509    3.5201    2.5475 H   0  0  0  0  0  0  0  0  0  0  0  0
    0.0637    3.9029    1.0028 H   0  0  0  0  0  0  0  0  0  0  0  0
  1  2  1  0  0  0  0
  2  3  1  0  0  0  0
  2  4  1  0  0  0  0
  2  5  1  0  0  0  0
  5  6  2  0  0  0  0
  5  7  1  0  0  0  0
  7  8  1  0  0  0  0
  7  9  1  0  0  0  0
  9 10  1  0  0  0  0
  9 11  1  0  0  0  0
  9 22  1  0  0  0  0
 11 12  1  0  0  0  0
 11 13  1  0  0  0  0
 11 14  1  0  0  0  0
 14 15  1  0  0  0  0
 14 16  1  0  0  0  0
 14 17  1  0  0  0  0
 17 18  2  0  0  0  0
 17 19  1  0  0  0  0
 19 20  1  0  0  0  0
 19 21  1  0  0  0  0
 22 23  2  0  0  0  0
 22 24  1  0  0  0  0
 24 25  1  0  0  0  0
 24 26  1  0  0  0  0
 26 27  1  0  0  0  0
 26 28  1  0  0  0  0
 26 29  1  0  0  0  0
M  END
$$$$

  -OEChem-04042215583D

 29 28  0     1  0  0  0  0  0999 V2000
   -3.2838   -3.8254    1.4481 H   0  0  0  0  0  0  0  0  0  0  0  0
   -3.3098   -2.8379    0.9788 C   0  0  0  0  0  0  0  0  0  0  0  0
   -3.9501   -2.1819    1.5734 H   0  0  0  0  0  0  0  0  0  0  0  0
   -3.7302   -2.9356   -0.0249 H   0  0  0  0  0  0  0  0  0  0  0  0
   -1.9096   -2.2601    0.8989 C   0  0  0  0  0  0  0  0  0  0  0  0
   -0.9649   -2.8850    1.3538 O   0  0  0  0  0  0  0  0  0  0  0  0
   -1.7121   -1.0260    0.3143 N   0  0  0  0  0  0  0  0  0  0  0  0
   -2.5428   -0.5014    0.0454 H   0  0  0  0  0  0  0  0  0  0  0  0
   -0.4361   -0.2965    0.3038 C   0  0  1  0  0  0  0  0  0  0  0  0
    0.1909   -0.7033    1.1042 H   0  0  0  0  0  0  0  0  0  0  0  0
    0.3074   -0.5784   -1.0180 C   0  0  0  0  0  0  0  0  0  0  0  0
    1.3422   -0.2536   -0.8640 H   0  0  0  0  0  0  0  0  0  0  0  0
    0.3389   -1.6573   -1.2058 H   0  0  0  0  0  0  0  0  0  0  0  0
   -0.2605    0.1452   -2.2643 C   0  0  0  0  0  0  0  0  0  0  0  0
   -1.0471   -0.4703   -2.7084 H   0  0  0  0  0  0  0  0  0  0  0  0
   -0.7108    1.0982   -1.9860 H   0  0  0  0  0  0  0  0  0  0  0  0
    0.7917    0.4596   -3.3263 C   0  0  0  0  0  0  0  0  0  0  0  0
    1.9182   -0.0009   -3.3139 O   0  0  0  0  0  0  0  0  0  0  0  0
    0.5117    1.2987   -4.3664 N   0  0  0  0  0  0  0  0  0  0  0  0
    1.3032    1.5866   -4.9343 H   0  0  0  0  0  0  0  0  0  0  0  0
   -0.3275    1.8676   -4.3283 H   0  0  0  0  0  0  0  0  0  0  0  0
   -0.6149    1.1966    0.6513 C   0  0  0  0  0  0  0  0  0  0  0  0
   -1.6056    1.8042    0.2588 O   0  0  0  0  0  0  0  0  0  0  0  0
    0.2454    1.8136    1.5403 N   0  0  0  0  0  0  0  0  0  0  0  0
    1.0094    1.2592    1.9176 H   0  0  0  0  0  0  0  0  0  0  0  0
    0.0549    3.1741    2.0282 C   0  0  0  0  0  0  0  0  0  0  0  0
   -0.8720    3.2473    2.6067 H   0  0  0  0  0  0  0  0  0  0  0  0
    0.8900    3.4647    2.6731 H   0  0  0  0  0  0  0  0  0  0  0  0
    0.0044    3.8790    1.1916 H   0  0  0  0  0  0  0  0  0  0  0  0
  1  2  1  0  0  0  0
  2  3  1  0  0  0  0
  2  4  1  0  0  0  0
  2  5  1  0  0  0  0
  5  6  2  0  0  0  0
  5  7  1  0  0  0  0
  7  8  1  0  0  0  0
  7  9  1  0  0  0  0
  9 10  1  0  0  0  0
  9 11  1  0  0  0  0
  9 22  1  0  0  0  0
 11 12  1  0  0  0  0
 11 13  1  0  0  0  0
 11 14  1  0  0  0  0
 14 15  1  0  0  0  0
 14 16  1  0  0  0  0
 14 17  1  0  0  0  0
 17 18  2  0  0  0  0
 17 19  1  0  0  0  0
 19 20  1  0  0  0  0
 19 21  1  0  0  0  0
 22 23  2  0  0  0  0
 22 24  1  0  0  0  0
 24 25  1  0  0  0  0
 24 26  1  0  0  0  0
 26 27  1  0  0  0  0
 26 28  1  0  0  0  0
 26 29  1  0  0  0  0
M  END
$$$$

  -OEChem-04042215583D

 29 28  0     1  0  0  0  0  0999 V2000
   -3.3096   -3.8026    1.4522 H   0  0  0  0  0  0  0  0  0  0  0  0
   -3.3171   -2.8311    0.9498 C   0  0  0  0  0  0  0  0  0  0  0  0
   -3.9756   -2.1549    1.5003 H   0  0  0  0  0  0  0  0  0  0  0  0
   -3.7039   -2.9614   -0.0637 H   0  0  0  0  0  0  0  0  0  0  0  0
   -1.9132   -2.2587    0.8970 C   0  0  0  0  0  0  0  0  0  0  0  0
   -0.9789   -2.8890    1.3656 O   0  0  0  0  0  0  0  0  0  0  0  0
   -1.7017   -1.0228    0.3212 N   0  0  0  0  0  0  0  0  0  0  0  0
   -2.5255   -0.4932    0.0411 H   0  0  0  0  0  0  0  0  0  0  0  0
   -0.4192   -0.3044    0.3185 C   0  0  1  0  0  0  0  0  0  0  0  0
    0.2106   -0.7248    1.1100 H   0  0  0  0  0  0  0  0  0  0  0  0
    0.3099   -0.5642   -1.0160 C   0  0  0  0  0  0  0  0  0  0  0  0
    1.3529   -0.2575   -0.8801 H   0  0  0  0  0  0  0  0  0  0  0  0
    0.3176   -1.6390   -1.2288 H   0  0  0  0  0  0  0  0  0  0  0  0
   -0.2710    0.1981   -2.2293 C   0  0  0  0  0  0  0  0  0  0  0  0
   -1.2241   -0.2533   -2.5169 H   0  0  0  0  0  0  0  0  0  0  0  0
   -0.4592    1.2414   -1.9707 H   0  0  0  0  0  0  0  0  0  0  0  0
    0.6629    0.2125   -3.4372 C   0  0  0  0  0  0  0  0  0  0  0  0
    1.7623   -0.3096   -3.4425 O   0  0  0  0  0  0  0  0  0  0  0  0
    0.3059    0.8466   -4.5925 N   0  0  0  0  0  0  0  0  0  0  0  0
    1.0415    0.9644   -5.2833 H   0  0  0  0  0  0  0  0  0  0  0  0
   -0.4969    1.4669   -4.5855 H   0  0  0  0  0  0  0  0  0  0  0  0
   -0.5963    1.1865    0.6762 C   0  0  0  0  0  0  0  0  0  0  0  0
   -1.5735    1.8037    0.2652 O   0  0  0  0  0  0  0  0  0  0  0  0
    0.2599    1.7984    1.5728 N   0  0  0  0  0  0  0  0  0  0  0  0
    1.0146    1.2386    1.9604 H   0  0  0  0  0  0  0  0  0  0  0  0
    0.0791    3.1647    2.0482 C   0  0  0  0  0  0  0  0  0  0  0  0
   -0.8753    3.2636    2.5760 H   0  0  0  0  0  0  0  0  0  0  0  0
    0.8849    3.4357    2.7372 H   0  0  0  0  0  0  0  0  0  0  0  0
    0.0923    3.8676    1.2086 H   0  0  0  0  0  0  0  0  0  0  0  0
  1  2  1  0  0  0  0
  2  3  1  0  0  0  0
  2  4  1  0  0  0  0
  2  5  1  0  0  0  0
  5  6  2  0  0  0  0
  5  7  1  0  0  0  0
  7  8  1  0  0  0  0
  7  9  1  0  0  0  0
  9 10  1  0  0  0  0
  9 11  1  0  0  0  0
  9 22  1  0  0  0  0
 11 12  1  0  0  0  0
 11 13  1  0  0  0  0
 11 14  1  0  0  0  0
 14 15  1  0  0  0  0
 14 16  1  0  0  0  0
 14 17  1  0  0  0  0
 17 18  2  0  0  0  0
 17 19  1  0  0  0  0
 19 20  1  0  0  0  0
 19 21  1  0  0  0  0
 22 23  2  0  0  0  0
 22 24  1  0  0  0  0
 24 25  1  0  0  0  0
 24 26  1  0  0  0  0
 26 27  1  0  0  0  0
 26 28  1  0  0  0  0
 26 29  1  0  0  0  0
M  END
$$$$

  -OEChem-04042215583D

 29 28  0     1  0  0  0  0  0999 V2000
   -3.3189   -3.7894    1.4254 H   0  0  0  0  0  0  0  0  0  0  0  0
   -3.3180   -2.8281    0.9037 C   0  0  0  0  0  0  0  0  0  0  0  0
   -3.9932   -2.1447    1.4244 H   0  0  0  0  0  0  0  0  0  0  0  0
   -3.6794   -2.9804   -0.1161 H   0  0  0  0  0  0  0  0  0  0  0  0
   -1.9154   -2.2503    0.8752 C   0  0  0  0  0  0  0  0  0  0  0  0
   -0.9873   -2.8804    1.3562 O   0  0  0  0  0  0  0  0  0  0  0  0
   -1.6974   -1.0076    0.3162 N   0  0  0  0  0  0  0  0  0  0  0  0
   -2.5159   -0.4815    0.0150 H   0  0  0  0  0  0  0  0  0  0  0  0
   -0.4124   -0.2929    0.3277 C   0  0  1  0  0  0  0  0  0  0  0  0
    0.2126   -0.7278    1.1148 H   0  0  0  0  0  0  0  0  0  0  0  0
    0.3183   -0.5398   -1.0116 C   0  0  0  0  0  0  0  0  0  0  0  0
    1.3965   -0.5021   -0.8212 H   0  0  0  0  0  0  0  0  0  0  0  0
    0.0952   -1.5516   -1.3686 H   0  0  0  0  0  0  0  0  0  0  0  0
   -0.0065    0.4867   -2.1182 C   0  0  0  0  0  0  0  0  0  0  0  0
   -1.0825    0.4750   -2.3141 H   0  0  0  0  0  0  0  0  0  0  0  0
    0.2688    1.4933   -1.7936 H   0  0  0  0  0  0  0  0  0  0  0  0
    0.7330    0.2083   -3.4241 C   0  0  0  0  0  0  0  0  0  0  0  0
    1.6369   -0.6009   -3.5198 O   0  0  0  0  0  0  0  0  0  0  0  0
    0.4305    0.8941   -4.5652 N   0  0  0  0  0  0  0  0  0  0  0  0
    1.0773    0.7820   -5.3404 H   0  0  0  0  0  0  0  0  0  0  0  0
   -0.1649    1.7133   -4.5054 H   0  0  0  0  0  0  0  0  0  0  0  0
   -0.5905    1.1931    0.7043 C   0  0  0  0  0  0  0  0  0  0  0  0
   -1.5418    1.8289    0.2621 O   0  0  0  0  0  0  0  0  0  0  0  0
    0.2619    1.7915    1.6132 N   0  0  0  0  0  0  0  0  0  0  0  0
    0.9948    1.2160    2.0192 H   0  0  0  0  0  0  0  0  0  0  0  0
    0.0966    3.1602    2.0865 C   0  0  0  0  0  0  0  0  0  0  0  0
   -0.8745    3.2811    2.5781 H   0  0  0  0  0  0  0  0  0  0  0  0
    0.8820    3.4087    2.8069 H   0  0  0  0  0  0  0  0  0  0  0  0
    0.1593    3.8649    1.2507 H   0  0  0  0  0  0  0  0  0  0  0  0
  1  2  1  0  0  0  0
  2  3  1  0  0  0  0
  2  4  1  0  0  0  0
  2  5  1  0  0  0  0
  5  6  2  0  0  0  0
  5  7  1  0  0  0  0
  7  8  1  0  0  0  0
  7  9  1  0  0  0  0
  9 10  1  0  0  0  0
  9 11  1  0  0  0  0
  9 22  1  0  0  0  0
 11 12  1  0  0  0  0
 11 13  1  0  0  0  0
 11 14  1  0  0  0  0
 14 15  1  0  0  0  0
 14 16  1  0  0  0  0
 14 17  1  0  0  0  0
 17 18  2  0  0  0  0
 17 19  1  0  0  0  0
 19 20  1  0  0  0  0
 19 21  1  0  0  0  0
 22 23  2  0  0  0  0
 22 24  1  0  0  0  0
 24 25  1  0  0  0  0
 24 26  1  0  0  0  0
 26 27  1  0  0  0  0
 26 28  1  0  0  0  0
 26 29  1  0  0  0  0
M  END
$$$$

  -OEChem-04042215583D

 29 28  0     1  0  0  0  0  0999 V2000
   -3.3360   -3.7842    1.3467 H   0  0  0  0  0  0  0  0  0  0  0  0
   -3.3297   -2.8078    0.8541 C   0  0  0  0  0  0  0  0  0  0  0  0
   -4.0061   -2.1383    1.3907 H   0  0  0  0  0  0  0  0  0  0  0  0
   -3.6851   -2.9294   -0.1720 H   0  0  0  0  0  0  0  0  0  0  0  0
   -1.9255   -2.2336    0.8515 C   0  0  0  0  0  0  0  0  0  0  0  0
   -1.0075   -2.8681    1.3463 O   0  0  0  0  0  0  0  0  0  0  0  0
   -1.6945   -0.9910    0.2966 N   0  0  0  0  0  0  0  0  0  0  0  0
   -2.5070   -0.4584   -0.0090 H   0  0  0  0  0  0  0  0  0  0  0  0
   -0.4058   -0.2832    0.3297 C   0  0  1  0  0  0  0  0  0  0  0  0
    0.2022   -0.7232    1.1269 H   0  0  0  0  0  0  0  0  0  0  0  0
    0.3521   -0.5264   -0.9939 C   0  0  0  0  0  0  0  0  0  0  0  0
    1.4290   -0.5076   -0.7968 H   0  0  0  0  0  0  0  0  0  0  0  0
    0.1130   -1.5338   -1.3542 H   0  0  0  0  0  0  0  0  0  0  0  0
    0.0465    0.5107   -2.0955 C   0  0  0  0  0  0  0  0  0  0  0  0
   -1.0338    0.6734   -2.1423 H   0  0  0  0  0  0  0  0  0  0  0  0
    0.5233    1.4654   -1.8557 H   0  0  0  0  0  0  0  0  0  0  0  0
    0.5052    0.0674   -3.4820 C   0  0  0  0  0  0  0  0  0  0  0  0
    1.2445   -0.8810   -3.6687 O   0  0  0  0  0  0  0  0  0  0  0  0
    0.1120    0.7404   -4.6030 N   0  0  0  0  0  0  0  0  0  0  0  0
    0.3346    0.3040   -5.4929 H   0  0  0  0  0  0  0  0  0  0  0  0
   -0.6327    1.4261   -4.5349 H   0  0  0  0  0  0  0  0  0  0  0  0
   -0.5733    1.2048    0.7044 C   0  0  0  0  0  0  0  0  0  0  0  0
   -1.5168    1.8489    0.2579 O   0  0  0  0  0  0  0  0  0  0  0  0
    0.2732    1.7921    1.6262 N   0  0  0  0  0  0  0  0  0  0  0  0
    0.9924    1.2068    2.0424 H   0  0  0  0  0  0  0  0  0  0  0  0
    0.1096    3.1576    2.1095 C   0  0  0  0  0  0  0  0  0  0  0  0
   -0.8468    3.2671    2.6314 H   0  0  0  0  0  0  0  0  0  0  0  0
    0.9150    3.4107    2.8058 H   0  0  0  0  0  0  0  0  0  0  0  0
    0.1394    3.8665    1.2752 H   0  0  0  0  0  0  0  0  0  0  0  0
  1  2  1  0  0  0  0
  2  3  1  0  0  0  0
  2  4  1  0  0  0  0
  2  5  1  0  0  0  0
  5  6  2  0  0  0  0
  5  7  1  0  0  0  0
  7  8  1  0  0  0  0
  7  9  1  0  0  0  0
  9 10  1  0  0  0  0
  9 11  1  0  0  0  0
  9 22  1  0  0  0  0
 11 12  1  0  0  0  0
 11 13  1  0  0  0  0
 11 14  1  0  0  0  0
 14 15  1  0  0  0  0
 14 16  1  0  0  0  0
 14 17  1  0  0  0  0
 17 18  2  0  0  0  0
 17 19  1  0  0  0  0
 19 20  1  0  0  0  0
 19 21  1  0  0  0  0
 22 23  2  0  0  0  0
 22 24  1  0  0  0  0
 24 25  1  0  0  0  0
 24 26  1  0  0  0  0
 26 27  1  0  0  0  0
 26 28  1  0  0  0  0
 26 29  1  0  0  0  0
M  END
$$$$

  -OEChem-04042215583D

 29 28  0     1  0  0  0  0  0999 V2000
   -3.3578   -3.7682    1.2726 H   0  0  0  0  0  0  0  0  0  0  0  0
   -3.3475   -2.7780    0.8086 C   0  0  0  0  0  0  0  0  0  0  0  0
   -4.0202   -2.1210    1.3652 H   0  0  0  0  0  0  0  0  0  0  0  0
   -3.7041   -2.8676   -0.2202 H   0  0  0  0  0  0  0  0  0  0  0  0
   -1.9407   -2.2107    0.8207 C   0  0  0  0  0  0  0  0  0  0  0  0
   -1.0293   -2.8527    1.3180 O   0  0  0  0  0  0  0  0  0  0  0  0
   -1.7003   -0.9649    0.2770 N   0  0  0  0  0  0  0  0  0  0  0  0
   -2.5081   -0.4272   -0.0319 H   0  0  0  0  0  0  0  0  0  0  0  0
   -0.4086   -0.2632    0.3229 C   0  0  1  0  0  0  0  0  0  0  0  0
    0.1846   -0.7107    1.1272 H   0  0  0  0  0  0  0  0  0  0  0  0
    0.3718   -0.5116   -0.9872 C   0  0  0  0  0  0  0  0  0  0  0  0
    1.4461   -0.5048   -0.7754 H   0  0  0  0  0  0  0  0  0  0  0  0
    0.1281   -1.5206   -1.3395 H   0  0  0  0  0  0  0  0  0  0  0  0
    0.0938    0.5200   -2.1044 C   0  0  0  0  0  0  0  0  0  0  0  0
   -0.9374    0.8720   -2.0221 H   0  0  0  0  0  0  0  0  0  0  0  0
    0.7549    1.3838   -1.9929 H   0  0  0  0  0  0  0  0  0  0  0  0
    0.2388   -0.0584   -3.5095 C   0  0  0  0  0  0  0  0  0  0  0  0
    0.9314   -1.0270   -3.7601 O   0  0  0  0  0  0  0  0  0  0  0  0
   -0.3988    0.5043   -4.5778 N   0  0  0  0  0  0  0  0  0  0  0  0
   -0.3692   -0.0183   -5.4483 H   0  0  0  0  0  0  0  0  0  0  0  0
   -1.1164    1.2033   -4.4176 H   0  0  0  0  0  0  0  0  0  0  0  0
   -0.5614    1.2242    0.7076 C   0  0  0  0  0  0  0  0  0  0  0  0
   -1.5091    1.8764    0.2824 O   0  0  0  0  0  0  0  0  0  0  0  0
    0.2887    1.7940    1.6369 N   0  0  0  0  0  0  0  0  0  0  0  0
    1.0067    1.1999    2.0428 H   0  0  0  0  0  0  0  0  0  0  0  0
    0.1293    3.1516    2.1435 C   0  0  0  0  0  0  0  0  0  0  0  0
   -0.8081    3.2441    2.7017 H   0  0  0  0  0  0  0  0  0  0  0  0
    0.9577    3.4045    2.8120 H   0  0  0  0  0  0  0  0  0  0  0  0
    0.1213    3.8715    1.3182 H   0  0  0  0  0  0  0  0  0  0  0  0
  1  2  1  0  0  0  0
  2  3  1  0  0  0  0
  2  4  1  0  0  0  0
  2  5  1  0  0  0  0
  5  6  2  0  0  0  0
  5  7  1  0  0  0  0
  7  8  1  0  0  0  0
  7  9  1  0  0  0  0
  9 10  1  0  0  0  0
  9 11  1  0  0  0  0
  9 22  1  0  0  0  0
 11 12  1  0  0  0  0
 11 13  1  0  0  0  0
 11 14  1  0  0  0  0
 14 15  1  0  0  0  0
 14 16  1  0  0  0  0
 14 17  1  0  0  0  0
 17 18  2  0  0  0  0
 17 19  1  0  0  0  0
 19 20  1  0  0  0  0
 19 21  1  0  0  0  0
 22 23  2  0  0  0  0
 22 24  1  0  0  0  0
 24 25  1  0  0  0  0
 24 26  1  0  0  0  0
 26 27  1  0  0  0  0
 26 28  1  0  0  0  0
 26 29  1  0  0  0  0
M  END
$$$$

  -OEChem-04042215583D

 29 28  0     1  0  0  0  0  0999 V2000
   -3.3984   -3.7226    1.1405 H   0  0  0  0  0  0  0  0  0  0  0  0
   -3.3734   -2.7179    0.7092 C   0  0  0  0  0  0  0  0  0  0  0  0
   -4.0429   -2.0718    1.2819 H   0  0  0  0  0  0  0  0  0  0  0  0
   -3.7235   -2.7703   -0.3245 H   0  0  0  0  0  0  0  0  0  0  0  0
   -1.9605   -2.1669    0.7495 C   0  0  0  0  0  0  0  0  0  0  0  0
   -1.0608   -2.8302    1.2401 O   0  0  0  0  0  0  0  0  0  0  0  0
   -1.7002   -0.9142    0.2318 N   0  0  0  0  0  0  0  0  0  0  0  0
   -2.5008   -0.3579   -0.0626 H   0  0  0  0  0  0  0  0  0  0  0  0
   -0.4021   -0.2274    0.3049 C   0  0  1  0  0  0  0  0  0  0  0  0
    0.1707   -0.6923    1.1142 H   0  0  0  0  0  0  0  0  0  0  0  0
    0.3981   -0.4847   -0.9926 C   0  0  0  0  0  0  0  0  0  0  0  0
    1.4664   -0.4830   -0.7529 H   0  0  0  0  0  0  0  0  0  0  0  0
    0.1629   -1.4972   -1.3413 H   0  0  0  0  0  0  0  0  0  0  0  0
    0.1694    0.5388   -2.1314 C   0  0  0  0  0  0  0  0  0  0  0  0
   -0.7337    1.1219   -1.9458 H   0  0  0  0  0  0  0  0  0  0  0  0
    1.0095    1.2367   -2.1830 H   0  0  0  0  0  0  0  0  0  0  0  0
   -0.0186   -0.1306   -3.4893 C   0  0  0  0  0  0  0  0  0  0  0  0
    0.6949   -1.0381   -3.8727 O   0  0  0  0  0  0  0  0  0  0  0  0
   -1.0188    0.2428   -4.3411 N   0  0  0  0  0  0  0  0  0  0  0  0
   -1.1740   -0.3551   -5.1475 H   0  0  0  0  0  0  0  0  0  0  0  0
   -1.7473    0.8665   -4.0103 H   0  0  0  0  0  0  0  0  0  0  0  0
   -0.5405    1.2549    0.7149 C   0  0  0  0  0  0  0  0  0  0  0  0
   -1.4901    1.9179    0.3110 O   0  0  0  0  0  0  0  0  0  0  0  0
    0.3059    1.7989    1.6631 N   0  0  0  0  0  0  0  0  0  0  0  0
    1.0258    1.1963    2.0526 H   0  0  0  0  0  0  0  0  0  0  0  0
    0.1548    3.1487    2.1928 C   0  0  0  0  0  0  0  0  0  0  0  0
   -0.8079    3.2544    2.7042 H   0  0  0  0  0  0  0  0  0  0  0  0
    0.9527    3.3650    2.9097 H   0  0  0  0  0  0  0  0  0  0  0  0
    0.2084    3.8858    1.3846 H   0  0  0  0  0  0  0  0  0  0  0  0
  1  2  1  0  0  0  0
  2  3  1  0  0  0  0
  2  4  1  0  0  0  0
  2  5  1  0  0  0  0
  5  6  2  0  0  0  0
  5  7  1  0  0  0  0
  7  8  1  0  0  0  0
  7  9  1  0  0  0  0
  9 10  1  0  0  0  0
  9 11  1  0  0  0  0
  9 22  1  0  0  0  0
 11 12  1  0  0  0  0
 11 13  1  0  0  0  0
 11 14  1  0  0  0  0
 14 15  1  0  0  0  0
 14 16  1  0  0  0  0
 14 17  1  0  0  0  0
 17 18  2  0  0  0  0
 17 19  1  0  0  0  0
 19 20  1  0  0  0  0
 19 21  1  0  0  0  0
 22 23  2  0  0  0  0
 22 24  1  0  0  0  0
 24 25  1  0  0  0  0
 24 26  1  0  0  0  0
 26 27  1  0  0  0  0
 26 28  1  0  0  0  0
 26 29  1  0  0  0  0
M  END
$$$$

  -OEChem-04042215583D

 29 28  0     1  0  0  0  0  0999 V2000
   -3.2943   -3.8076    1.3148 H   0  0  0  0  0  0  0  0  0  0  0  0
   -3.3017   -2.8274    0.8301 C   0  0  0  0  0  0  0  0  0  0  0  0
   -4.0296   -2.1889    1.3363 H   0  0  0  0  0  0  0  0  0  0  0  0
   -3.6003   -2.9529   -0.2135 H   0  0  0  0  0  0  0  0  0  0  0  0
   -1.9227   -2.1992    0.8993 C   0  0  0  0  0  0  0  0  0  0  0  0
   -1.0065   -2.7959    1.4436 O   0  0  0  0  0  0  0  0  0  0  0  0
   -1.7130   -0.9504    0.3505 N   0  0  0  0  0  0  0  0  0  0  0  0
   -2.5187   -0.4730   -0.0485 H   0  0  0  0  0  0  0  0  0  0  0  0
   -0.4313   -0.2316    0.3474 C   0  0  1  0  0  0  0  0  0  0  0  0
    0.1902   -0.6672    1.1364 H   0  0  0  0  0  0  0  0  0  0  0  0
    0.2991   -0.5236   -0.9849 C   0  0  0  0  0  0  0  0  0  0  0  0
    1.3736   -0.4599   -0.7857 H   0  0  0  0  0  0  0  0  0  0  0  0
    0.1114   -1.5650   -1.2674 H   0  0  0  0  0  0  0  0  0  0  0  0
   -0.0008    0.4468   -2.1617 C   0  0  0  0  0  0  0  0  0  0  0  0
   -0.6883    1.2369   -1.8625 H   0  0  0  0  0  0  0  0  0  0  0  0
    0.9340    0.9288   -2.4601 H   0  0  0  0  0  0  0  0  0  0  0  0
   -0.6063   -0.2105   -3.4034 C   0  0  0  0  0  0  0  0  0  0  0  0
   -0.8526   -1.3980   -3.5036 O   0  0  0  0  0  0  0  0  0  0  0  0
   -0.9466    0.5414   -4.4909 N   0  0  0  0  0  0  0  0  0  0  0  0
   -1.5117    0.0714   -5.1920 H   0  0  0  0  0  0  0  0  0  0  0  0
   -0.9917    1.5501   -4.3918 H   0  0  0  0  0  0  0  0  0  0  0  0
   -0.5745    1.2560    0.7382 C   0  0  0  0  0  0  0  0  0  0  0  0
   -1.5438    1.9072    0.3635 O   0  0  0  0  0  0  0  0  0  0  0  0
    0.3129    1.8261    1.6325 N   0  0  0  0  0  0  0  0  0  0  0  0
    1.0287    1.2228    2.0279 H   0  0  0  0  0  0  0  0  0  0  0  0
    0.1489    3.1688    2.1766 C   0  0  0  0  0  0  0  0  0  0  0  0
   -0.7622    3.2276    2.7811 H   0  0  0  0  0  0  0  0  0  0  0  0
    1.0034    3.4272    2.8096 H   0  0  0  0  0  0  0  0  0  0  0  0
    0.0847    3.9056    1.3690 H   0  0  0  0  0  0  0  0  0  0  0  0
  1  2  1  0  0  0  0
  2  3  1  0  0  0  0
  2  4  1  0  0  0  0
  2  5  1  0  0  0  0
  5  6  2  0  0  0  0
  5  7  1  0  0  0  0
  7  8  1  0  0  0  0
  7  9  1  0  0  0  0
  9 10  1  0  0  0  0
  9 11  1  0  0  0  0
  9 22  1  0  0  0  0
 11 12  1  0  0  0  0
 11 13  1  0  0  0  0
 11 14  1  0  0  0  0
 14 15  1  0  0  0  0
 14 16  1  0  0  0  0
 14 17  1  0  0  0  0
 17 18  2  0  0  0  0
 17 19  1  0  0  0  0
 19 20  1  0  0  0  0
 19 21  1  0  0  0  0
 22 23  2  0  0  0  0
 22 24  1  0  0  0  0
 24 25  1  0  0  0  0
 24 26  1  0  0  0  0
 26 27  1  0  0  0  0
 26 28  1  0  0  0  0
 26 29  1  0  0  0  0
M  END
$$$$

  -OEChem-04042215583D

 29 28  0     1  0  0  0  0  0999 V2000
   -3.1887   -3.8768    1.1452 H   0  0  0  0  0  0  0  0  0  0  0  0
   -3.2203   -2.8766    0.7048 C   0  0  0  0  0  0  0  0  0  0  0  0
   -4.0316   -2.3108    1.1687 H   0  0  0  0  0  0  0  0  0  0  0  0
   -3.4162   -2.9683   -0.3667 H   0  0  0  0  0  0  0  0  0  0  0  0
   -1.9000   -2.1642    0.9268 C   0  0  0  0  0  0  0  0  0  0  0  0
   -1.0004   -2.7184    1.5414 O   0  0  0  0  0  0  0  0  0  0  0  0
   -1.7172   -0.8988    0.4106 N   0  0  0  0  0  0  0  0  0  0  0  0
   -2.4623   -0.5398   -0.1861 H   0  0  0  0  0  0  0  0  0  0  0  0
   -0.4398   -0.1742    0.3848 C   0  0  1  0  0  0  0  0  0  0  0  0
    0.2233   -0.6350    1.1238 H   0  0  0  0  0  0  0  0  0  0  0  0
    0.1940   -0.4414   -1.0004 C   0  0  0  0  0  0  0  0  0  0  0  0
    1.2776   -0.3701   -0.8620 H   0  0  0  0  0  0  0  0  0  0  0  0
   -0.0023   -1.4739   -1.3127 H   0  0  0  0  0  0  0  0  0  0  0  0
   -0.1749    0.5548   -2.1281 C   0  0  0  0  0  0  0  0  0  0  0  0
   -0.5672    1.5012   -1.7578 H   0  0  0  0  0  0  0  0  0  0  0  0
    0.7368    0.7880   -2.6846 H   0  0  0  0  0  0  0  0  0  0  0  0
   -1.1762   -0.0445   -3.1133 C   0  0  0  0  0  0  0  0  0  0  0  0
   -2.0609   -0.8084   -2.7674 O   0  0  0  0  0  0  0  0  0  0  0  0
   -1.1523    0.2744   -4.4408 N   0  0  0  0  0  0  0  0  0  0  0  0
   -1.9668   -0.0121   -4.9761 H   0  0  0  0  0  0  0  0  0  0  0  0
   -0.6056    1.0753   -4.7384 H   0  0  0  0  0  0  0  0  0  0  0  0
   -0.5607    1.3022    0.8257 C   0  0  0  0  0  0  0  0  0  0  0  0
   -1.5142    1.9898    0.4785 O   0  0  0  0  0  0  0  0  0  0  0  0
    0.3654    1.8372    1.7034 N   0  0  0  0  0  0  0  0  0  0  0  0
    1.0608    1.2032    2.0867 H   0  0  0  0  0  0  0  0  0  0  0  0
    0.2369    3.1681    2.2853 C   0  0  0  0  0  0  0  0  0  0  0  0
   -0.6458    3.2194    2.9312 H   0  0  0  0  0  0  0  0  0  0  0  0
    1.1210    3.4048    2.8850 H   0  0  0  0  0  0  0  0  0  0  0  0
    0.1432    3.9249    1.4992 H   0  0  0  0  0  0  0  0  0  0  0  0
  1  2  1  0  0  0  0
  2  3  1  0  0  0  0
  2  4  1  0  0  0  0
  2  5  1  0  0  0  0
  5  6  2  0  0  0  0
  5  7  1  0  0  0  0
  7  8  1  0  0  0  0
  7  9  1  0  0  0  0
  9 10  1  0  0  0  0
  9 11  1  0  0  0  0
  9 22  1  0  0  0  0
 11 12  1  0  0  0  0
 11 13  1  0  0  0  0
 11 14  1  0  0  0  0
 14 15  1  0  0  0  0
 14 16  1  0  0  0  0
 14 17  1  0  0  0  0
 17 18  2  0  0  0  0
 17 19  1  0  0  0  0
 19 20  1  0  0  0  0
 19 21  1  0  0  0  0
 22 23  2  0  0  0  0
 22 24  1  0  0  0  0
 24 25  1  0  0  0  0
 24 26  1  0  0  0  0
 26 27  1  0  0  0  0
 26 28  1  0  0  0  0
 26 29  1  0  0  0  0
M  END
$$$$

  -OEChem-04042215583D

 29 28  0     1  0  0  0  0  0999 V2000
   -3.2298   -3.8710    1.1538 H   0  0  0  0  0  0  0  0  0  0  0  0
   -3.2327   -2.8876    0.6759 C   0  0  0  0  0  0  0  0  0  0  0  0
   -4.0836   -2.3140    1.0510 H   0  0  0  0  0  0  0  0  0  0  0  0
   -3.3398   -3.0194   -0.4040 H   0  0  0  0  0  0  0  0  0  0  0  0
   -1.9404   -2.1533    0.9782 C   0  0  0  0  0  0  0  0  0  0  0  0
   -1.0946   -2.6714    1.6927 O   0  0  0  0  0  0  0  0  0  0  0  0
   -1.7184   -0.9143    0.4156 N   0  0  0  0  0  0  0  0  0  0  0  0
   -2.3931   -0.6210   -0.2930 H   0  0  0  0  0  0  0  0  0  0  0  0
   -0.4265   -0.2153    0.4147 C   0  0  1  0  0  0  0  0  0  0  0  0
    0.2087   -0.6606    1.1871 H   0  0  0  0  0  0  0  0  0  0  0  0
    0.2351   -0.5269   -0.9500 C   0  0  0  0  0  0  0  0  0  0  0  0
    1.3161   -0.4759   -0.7862 H   0  0  0  0  0  0  0  0  0  0  0  0
    0.0201   -1.5584   -1.2528 H   0  0  0  0  0  0  0  0  0  0  0  0
   -0.0856    0.4558   -2.1030 C   0  0  0  0  0  0  0  0  0  0  0  0
   -0.1776    1.4883   -1.7655 H   0  0  0  0  0  0  0  0  0  0  0  0
    0.7573    0.4317   -2.7991 H   0  0  0  0  0  0  0  0  0  0  0  0
   -1.3255    0.0579   -2.9051 C   0  0  0  0  0  0  0  0  0  0  0  0
   -2.1288   -0.7807   -2.5319 O   0  0  0  0  0  0  0  0  0  0  0  0
   -1.6316    0.6783   -4.0820 N   0  0  0  0  0  0  0  0  0  0  0  0
   -2.5716    0.5122   -4.4298 H   0  0  0  0  0  0  0  0  0  0  0  0
   -1.1600    1.5492   -4.3021 H   0  0  0  0  0  0  0  0  0  0  0  0
   -0.5468    1.2794    0.7896 C   0  0  0  0  0  0  0  0  0  0  0  0
   -1.4462    1.9770    0.3333 O   0  0  0  0  0  0  0  0  0  0  0  0
    0.3460    1.8393    1.6855 N   0  0  0  0  0  0  0  0  0  0  0  0
    1.0034    1.2115    2.1396 H   0  0  0  0  0  0  0  0  0  0  0  0
    0.2387    3.2107    2.1689 C   0  0  0  0  0  0  0  0  0  0  0  0
   -0.6980    3.3507    2.7185 H   0  0  0  0  0  0  0  0  0  0  0  0
    1.0723    3.4412    2.8393 H   0  0  0  0  0  0  0  0  0  0  0  0
    0.2652    3.9163    1.3318 H   0  0  0  0  0  0  0  0  0  0  0  0
  1  2  1  0  0  0  0
  2  3  1  0  0  0  0
  2  4  1  0  0  0  0
  2  5  1  0  0  0  0
  5  6  2  0  0  0  0
  5  7  1  0  0  0  0
  7  8  1  0  0  0  0
  7  9  1  0  0  0  0
  9 10  1  0  0  0  0
  9 11  1  0  0  0  0
  9 22  1  0  0  0  0
 11 12  1  0  0  0  0
 11 13  1  0  0  0  0
 11 14  1  0  0  0  0
 14 15  1  0  0  0  0
 14 16  1  0  0  0  0
 14 17  1  0  0  0  0
 17 18  2  0  0  0  0
 17 19  1  0  0  0  0
 19 20  1  0  0  0  0
 19 21  1  0  0  0  0
 22 23  2  0  0  0  0
 22 24  1  0  0  0  0
 24 25  1  0  0  0  0
 24 26  1  0  0  0  0
 26 27  1  0  0  0  0
 26 28  1  0  0  0  0
 26 29  1  0  0  0  0
M  END
$$$$

  -OEChem-04042215583D

 29 28  0     1  0  0  0  0  0999 V2000
   -3.4981   -3.6257    1.2133 H   0  0  0  0  0  0  0  0  0  0  0  0
   -3.4096   -2.6916    0.6517 C   0  0  0  0  0  0  0  0  0  0  0  0
   -4.1636   -1.9892    1.0149 H   0  0  0  0  0  0  0  0  0  0  0  0
   -3.5920   -2.8978   -0.4060 H   0  0  0  0  0  0  0  0  0  0  0  0
   -2.0231   -2.1031    0.8309 C   0  0  0  0  0  0  0  0  0  0  0  0
   -1.1939   -2.6857    1.5121 O   0  0  0  0  0  0  0  0  0  0  0  0
   -1.7046   -0.9064    0.2221 N   0  0  0  0  0  0  0  0  0  0  0  0
   -2.4353   -0.4506   -0.3205 H   0  0  0  0  0  0  0  0  0  0  0  0
   -0.3941   -0.2435    0.2969 C   0  0  1  0  0  0  0  0  0  0  0  0
    0.1520   -0.6541    1.1526 H   0  0  0  0  0  0  0  0  0  0  0  0
    0.4058   -0.6216   -0.9735 C   0  0  0  0  0  0  0  0  0  0  0  0
    1.4673   -0.6044   -0.7064 H   0  0  0  0  0  0  0  0  0  0  0  0
    0.1733   -1.6518   -1.2686 H   0  0  0  0  0  0  0  0  0  0  0  0
    0.2266    0.3200   -2.1817 C   0  0  0  0  0  0  0  0  0  0  0  0
    0.3573    1.3687   -1.9057 H   0  0  0  0  0  0  0  0  0  0  0  0
    1.0002    0.0918   -2.9204 H   0  0  0  0  0  0  0  0  0  0  0  0
   -1.1232    0.1124   -2.8573 C   0  0  0  0  0  0  0  0  0  0  0  0
   -1.3752   -0.8825   -3.5103 O   0  0  0  0  0  0  0  0  0  0  0  0
   -2.1554    0.9820   -2.6555 N   0  0  0  0  0  0  0  0  0  0  0  0
   -3.0706    0.6762   -2.9690 H   0  0  0  0  0  0  0  0  0  0  0  0
   -2.0717    1.6431   -1.8798 H   0  0  0  0  0  0  0  0  0  0  0  0
   -0.5283    1.2704    0.5719 C   0  0  0  0  0  0  0  0  0  0  0  0
   -1.3923    1.9282   -0.0019 O   0  0  0  0  0  0  0  0  0  0  0  0
    0.2787    1.8853    1.5103 N   0  0  0  0  0  0  0  0  0  0  0  0
    0.9184    1.2964    2.0368 H   0  0  0  0  0  0  0  0  0  0  0  0
    0.1407    3.2862    1.8903 C   0  0  0  0  0  0  0  0  0  0  0  0
   -0.8461    3.4691    2.3286 H   0  0  0  0  0  0  0  0  0  0  0  0
    0.9026    3.5544    2.6286 H   0  0  0  0  0  0  0  0  0  0  0  0
    0.2646    3.9348    1.0167 H   0  0  0  0  0  0  0  0  0  0  0  0
  1  2  1  0  0  0  0
  2  3  1  0  0  0  0
  2  4  1  0  0  0  0
  2  5  1  0  0  0  0
  5  6  2  0  0  0  0
  5  7  1  0  0  0  0
  7  8  1  0  0  0  0
  7  9  1  0  0  0  0
  9 10  1  0  0  0  0
  9 11  1  0  0  0  0
  9 22  1  0  0  0  0
 11 12  1  0  0  0  0
 11 13  1  0  0  0  0
 11 14  1  0  0  0  0
 14 15  1  0  0  0  0
 14 16  1  0  0  0  0
 14 17  1  0  0  0  0
 17 18  2  0  0  0  0
 17 19  1  0  0  0  0
 19 20  1  0  0  0  0
 19 21  1  0  0  0  0
 22 23  2  0  0  0  0
 22 24  1  0  0  0  0
 24 25  1  0  0  0  0
 24 26  1  0  0  0  0
 26 27  1  0  0  0  0
 26 28  1  0  0  0  0
 26 29  1  0  0  0  0
M  END
$$$$

  -OEChem-04042215583D

 29 28  0     1  0  0  0  0  0999 V2000
   -3.3325   -3.8099    1.1612 H   0  0  0  0  0  0  0  0  0  0  0  0
   -3.3110   -2.8498    0.6384 C   0  0  0  0  0  0  0  0  0  0  0  0
   -4.1664   -2.2519    0.9616 H   0  0  0  0  0  0  0  0  0  0  0  0
   -3.3876   -3.0313   -0.4368 H   0  0  0  0  0  0  0  0  0  0  0  0
   -2.0209   -2.1145    0.9461 C   0  0  0  0  0  0  0  0  0  0  0  0
   -1.2156   -2.5929    1.7306 O   0  0  0  0  0  0  0  0  0  0  0  0
   -1.7594   -0.9138    0.3193 N   0  0  0  0  0  0  0  0  0  0  0  0
   -2.4036   -0.6551   -0.4289 H   0  0  0  0  0  0  0  0  0  0  0  0
   -0.4657   -0.2149    0.3541 C   0  0  1  0  0  0  0  0  0  0  0  0
    0.1045   -0.6130    1.1996 H   0  0  0  0  0  0  0  0  0  0  0  0
    0.3133   -0.6131   -0.9229 C   0  0  0  0  0  0  0  0  0  0  0  0
    1.3819   -0.5775   -0.6884 H   0  0  0  0  0  0  0  0  0  0  0  0
    0.0824   -1.6525   -1.1837 H   0  0  0  0  0  0  0  0  0  0  0  0
    0.0789    0.2875   -2.1551 C   0  0  0  0  0  0  0  0  0  0  0  0
    0.4141    1.3071   -1.9473 H   0  0  0  0  0  0  0  0  0  0  0  0
    0.6770   -0.0848   -2.9913 H   0  0  0  0  0  0  0  0  0  0  0  0
   -1.3866    0.3121   -2.5936 C   0  0  0  0  0  0  0  0  0  0  0  0
   -2.0420   -0.7077   -2.7210 O   0  0  0  0  0  0  0  0  0  0  0  0
   -2.0876    1.4743   -2.7177 N   0  0  0  0  0  0  0  0  0  0  0  0
   -3.0913    1.3411   -2.7827 H   0  0  0  0  0  0  0  0  0  0  0  0
   -1.7507    2.2402   -2.1352 H   0  0  0  0  0  0  0  0  0  0  0  0
   -0.5554    1.3061    0.6210 C   0  0  0  0  0  0  0  0  0  0  0  0
   -1.3642    2.0150    0.0318 O   0  0  0  0  0  0  0  0  0  0  0  0
    0.3062    1.8947    1.5284 N   0  0  0  0  0  0  0  0  0  0  0  0
    0.8980    1.2755    2.0760 H   0  0  0  0  0  0  0  0  0  0  0  0
    0.2446    3.3053    1.8929 C   0  0  0  0  0  0  0  0  0  0  0  0
   -0.7175    3.5382    2.3611 H   0  0  0  0  0  0  0  0  0  0  0  0
    1.0429    3.5474    2.6011 H   0  0  0  0  0  0  0  0  0  0  0  0
    0.3677    3.9374    1.0072 H   0  0  0  0  0  0  0  0  0  0  0  0
  1  2  1  0  0  0  0
  2  3  1  0  0  0  0
  2  4  1  0  0  0  0
  2  5  1  0  0  0  0
  5  6  2  0  0  0  0
  5  7  1  0  0  0  0
  7  8  1  0  0  0  0
  7  9  1  0  0  0  0
  9 10  1  0  0  0  0
  9 11  1  0  0  0  0
  9 22  1  0  0  0  0
 11 12  1  0  0  0  0
 11 13  1  0  0  0  0
 11 14  1  0  0  0  0
 14 15  1  0  0  0  0
 14 16  1  0  0  0  0
 14 17  1  0  0  0  0
 17 18  2  0  0  0  0
 17 19  1  0  0  0  0
 19 20  1  0  0  0  0
 19 21  1  0  0  0  0
 22 23  2  0  0  0  0
 22 24  1  0  0  0  0
 24 25  1  0  0  0  0
 24 26  1  0  0  0  0
 26 27  1  0  0  0  0
 26 28  1  0  0  0  0
 26 29  1  0  0  0  0
M  END
$$$$

  -OEChem-04042215583D

 29 28  0     1  0  0  0  0  0999 V2000
   -3.2603   -3.8752    1.2466 H   0  0  0  0  0  0  0  0  0  0  0  0
   -3.2819   -2.8993    0.7540 C   0  0  0  0  0  0  0  0  0  0  0  0
   -4.1178   -2.3196    1.1528 H   0  0  0  0  0  0  0  0  0  0  0  0
   -3.4308   -3.0481   -0.3186 H   0  0  0  0  0  0  0  0  0  0  0  0
   -1.9801   -2.1597    0.9965 C   0  0  0  0  0  0  0  0  0  0  0  0
   -1.1189   -2.6521    1.7100 O   0  0  0  0  0  0  0  0  0  0  0  0
   -1.7733   -0.9389    0.3897 N   0  0  0  0  0  0  0  0  0  0  0  0
   -2.4638   -0.6674   -0.3147 H   0  0  0  0  0  0  0  0  0  0  0  0
   -0.5000   -0.2056    0.3698 C   0  0  1  0  0  0  0  0  0  0  0  0
    0.1027   -0.6042    1.1920 H   0  0  0  0  0  0  0  0  0  0  0  0
    0.2656   -0.5778   -0.9235 C   0  0  0  0  0  0  0  0  0  0  0  0
    1.3386   -0.5255   -0.7124 H   0  0  0  0  0  0  0  0  0  0  0  0
    0.0443   -1.6226   -1.1698 H   0  0  0  0  0  0  0  0  0  0  0  0
   -0.0073    0.2894   -2.1753 C   0  0  0  0  0  0  0  0  0  0  0  0
    0.5094    1.2459   -2.0581 H   0  0  0  0  0  0  0  0  0  0  0  0
    0.4112   -0.2032   -3.0569 H   0  0  0  0  0  0  0  0  0  0  0  0
   -1.4881    0.5791   -2.4370 C   0  0  0  0  0  0  0  0  0  0  0  0
   -2.3311   -0.3022   -2.3999 O   0  0  0  0  0  0  0  0  0  0  0  0
   -1.9474    1.8271   -2.7404 N   0  0  0  0  0  0  0  0  0  0  0  0
   -2.9572    1.9105   -2.6763 H   0  0  0  0  0  0  0  0  0  0  0  0
   -1.3899    2.5959   -2.3810 H   0  0  0  0  0  0  0  0  0  0  0  0
   -0.5833    1.3088    0.6745 C   0  0  0  0  0  0  0  0  0  0  0  0
   -1.4406    2.0255    0.1741 O   0  0  0  0  0  0  0  0  0  0  0  0
    0.3292    1.8817    1.5424 N   0  0  0  0  0  0  0  0  0  0  0  0
    0.9605    1.2533    2.0319 H   0  0  0  0  0  0  0  0  0  0  0  0
    0.2620    3.2746    1.9695 C   0  0  0  0  0  0  0  0  0  0  0  0
   -0.6753    3.4667    2.5023 H   0  0  0  0  0  0  0  0  0  0  0  0
    1.0954    3.5048    2.6402 H   0  0  0  0  0  0  0  0  0  0  0  0
    0.3203    3.9452    1.1059 H   0  0  0  0  0  0  0  0  0  0  0  0
  1  2  1  0  0  0  0
  2  3  1  0  0  0  0
  2  4  1  0  0  0  0
  2  5  1  0  0  0  0
  5  6  2  0  0  0  0
  5  7  1  0  0  0  0
  7  8  1  0  0  0  0
  7  9  1  0  0  0  0
  9 10  1  0  0  0  0
  9 11  1  0  0  0  0
  9 22  1  0  0  0  0
 11 12  1  0  0  0  0
 11 13  1  0  0  0  0
 11 14  1  0  0  0  0
 14 15  1  0  0  0  0
 14 16  1  0  0  0  0
 14 17  1  0  0  0  0
 17 18  2  0  0  0  0
 17 19  1  0  0  0  0
 19 20  1  0  0  0  0
 19 21  1  0  0  0  0
 22 23  2  0  0  0  0
 22 24  1  0  0  0  0
 24 25  1  0  0  0  0
 24 26  1  0  0  0  0
 26 27  1  0  0  0  0
 26 28  1  0  0  0  0
 26 29  1  0  0  0  0
M  END
$$$$

  -OEChem-04042215583D

 29 28  0     1  0  0  0  0  0999 V2000
   -3.2122   -3.8893    1.3451 H   0  0  0  0  0  0  0  0  0  0  0  0
   -3.2589   -2.9170    0.8471 C   0  0  0  0  0  0  0  0  0  0  0  0
   -4.0639   -2.3288    1.2944 H   0  0  0  0  0  0  0  0  0  0  0  0
   -3.4777   -3.0725   -0.2124 H   0  0  0  0  0  0  0  0  0  0  0  0
   -1.9395   -2.1846    0.9995 C   0  0  0  0  0  0  0  0  0  0  0  0
   -1.0172   -2.7041    1.6104 O   0  0  0  0  0  0  0  0  0  0  0  0
   -1.7842   -0.9411    0.4241 N   0  0  0  0  0  0  0  0  0  0  0  0
   -2.5407   -0.6209   -0.1858 H   0  0  0  0  0  0  0  0  0  0  0  0
   -0.5321   -0.1764    0.3602 C   0  0  1  0  0  0  0  0  0  0  0  0
    0.0920   -0.5747    1.1664 H   0  0  0  0  0  0  0  0  0  0  0  0
    0.2320   -0.5403   -0.9365 C   0  0  0  0  0  0  0  0  0  0  0  0
    1.3049   -0.4644   -0.7335 H   0  0  0  0  0  0  0  0  0  0  0  0
    0.0313   -1.5947   -1.1572 H   0  0  0  0  0  0  0  0  0  0  0  0
   -0.0594    0.2776   -2.2195 C   0  0  0  0  0  0  0  0  0  0  0  0
    0.6283    1.1271   -2.2440 H   0  0  0  0  0  0  0  0  0  0  0  0
    0.1528   -0.3375   -3.0983 H   0  0  0  0  0  0  0  0  0  0  0  0
   -1.4783    0.8344   -2.3459 C   0  0  0  0  0  0  0  0  0  0  0  0
   -2.4523    0.1057   -2.2522 O   0  0  0  0  0  0  0  0  0  0  0  0
   -1.7300    2.1439   -2.6371 N   0  0  0  0  0  0  0  0  0  0  0  0
   -2.6922    2.4162   -2.4576 H   0  0  0  0  0  0  0  0  0  0  0  0
   -0.9992    2.8054   -2.4003 H   0  0  0  0  0  0  0  0  0  0  0  0
   -0.6153    1.3276    0.7132 C   0  0  0  0  0  0  0  0  0  0  0  0
   -1.5446    2.0338    0.3464 O   0  0  0  0  0  0  0  0  0  0  0  0
    0.3403    1.8842    1.5449 N   0  0  0  0  0  0  0  0  0  0  0  0
    1.0253    1.2531    1.9515 H   0  0  0  0  0  0  0  0  0  0  0  0
    0.2662    3.2509    2.0488 C   0  0  0  0  0  0  0  0  0  0  0  0
   -0.6426    3.3920    2.6435 H   0  0  0  0  0  0  0  0  0  0  0  0
    1.1317    3.4671    2.6824 H   0  0  0  0  0  0  0  0  0  0  0  0
    0.2595    3.9658    1.2194 H   0  0  0  0  0  0  0  0  0  0  0  0
  1  2  1  0  0  0  0
  2  3  1  0  0  0  0
  2  4  1  0  0  0  0
  2  5  1  0  0  0  0
  5  6  2  0  0  0  0
  5  7  1  0  0  0  0
  7  8  1  0  0  0  0
  7  9  1  0  0  0  0
  9 10  1  0  0  0  0
  9 11  1  0  0  0  0
  9 22  1  0  0  0  0
 11 12  1  0  0  0  0
 11 13  1  0  0  0  0
 11 14  1  0  0  0  0
 14 15  1  0  0  0  0
 14 16  1  0  0  0  0
 14 17  1  0  0  0  0
 17 18  2  0  0  0  0
 17 19  1  0  0  0  0
 19 20  1  0  0  0  0
 19 21  1  0  0  0  0
 22 23  2  0  0  0  0
 22 24  1  0  0  0  0
 24 25  1  0  0  0  0
 24 26  1  0  0  0  0
 26 27  1  0  0  0  0
 26 28  1  0  0  0  0
 26 29  1  0  0  0  0
M  END
$$$$

  -OEChem-04042215583D

 29 28  0     1  0  0  0  0  0999 V2000
   -2.9677   -3.8145    1.8468 H   0  0  0  0  0  0  0  0  0  0  0  0
   -3.1032   -2.8653    1.3212 C   0  0  0  0  0  0  0  0  0  0  0  0
   -3.8235   -2.2562    1.8725 H   0  0  0  0  0  0  0  0  0  0  0  0
   -3.4977   -3.0676    0.3224 H   0  0  0  0  0  0  0  0  0  0  0  0
   -1.7802   -2.1310    1.2150 C   0  0  0  0  0  0  0  0  0  0  0  0
   -0.7641   -2.6301    1.6754 O   0  0  0  0  0  0  0  0  0  0  0  0
   -1.7290   -0.9101    0.5757 N   0  0  0  0  0  0  0  0  0  0  0  0
   -2.5888   -0.5776    0.1345 H   0  0  0  0  0  0  0  0  0  0  0  0
   -0.5191   -0.1173    0.3259 C   0  0  1  0  0  0  0  0  0  0  0  0
    0.1875   -0.4500    1.0930 H   0  0  0  0  0  0  0  0  0  0  0  0
    0.1496   -0.5610   -0.9999 C   0  0  0  0  0  0  0  0  0  0  0  0
    1.2305   -0.4270   -0.8888 H   0  0  0  0  0  0  0  0  0  0  0  0
   -0.0159   -1.6388   -1.1083 H   0  0  0  0  0  0  0  0  0  0  0  0
   -0.2634    0.1148   -2.3330 C   0  0  0  0  0  0  0  0  0  0  0  0
    0.5409    0.7898   -2.6376 H   0  0  0  0  0  0  0  0  0  0  0  0
   -0.3491   -0.6510   -3.1092 H   0  0  0  0  0  0  0  0  0  0  0  0
   -1.5577    0.9214   -2.3198 C   0  0  0  0  0  0  0  0  0  0  0  0
   -2.6276    0.3675   -2.1350 O   0  0  0  0  0  0  0  0  0  0  0  0
   -1.5926    2.2651   -2.5593 N   0  0  0  0  0  0  0  0  0  0  0  0
   -2.4556    2.7047   -2.2495 H   0  0  0  0  0  0  0  0  0  0  0  0
   -0.7263    2.7762   -2.4381 H   0  0  0  0  0  0  0  0  0  0  0  0
   -0.6073    1.3985    0.6259 C   0  0  0  0  0  0  0  0  0  0  0  0
   -1.6309    2.0395    0.4310 O   0  0  0  0  0  0  0  0  0  0  0  0
    0.4256    2.0169    1.3090 N   0  0  0  0  0  0  0  0  0  0  0  0
    1.1914    1.4267    1.6223 H   0  0  0  0  0  0  0  0  0  0  0  0
    0.3372    3.3762    1.8310 C   0  0  0  0  0  0  0  0  0  0  0  0
   -0.4556    3.4468    2.5832 H   0  0  0  0  0  0  0  0  0  0  0  0
    1.2844    3.6648    2.2968 H   0  0  0  0  0  0  0  0  0  0  0  0
    0.1210    4.0847    1.0244 H   0  0  0  0  0  0  0  0  0  0  0  0
  1  2  1  0  0  0  0
  2  3  1  0  0  0  0
  2  4  1  0  0  0  0
  2  5  1  0  0  0  0
  5  6  2  0  0  0  0
  5  7  1  0  0  0  0
  7  8  1  0  0  0  0
  7  9  1  0  0  0  0
  9 10  1  0  0  0  0
  9 11  1  0  0  0  0
  9 22  1  0  0  0  0
 11 12  1  0  0  0  0
 11 13  1  0  0  0  0
 11 14  1  0  0  0  0
 14 15  1  0  0  0  0
 14 16  1  0  0  0  0
 14 17  1  0  0  0  0
 17 18  2  0  0  0  0
 17 19  1  0  0  0  0
 19 20  1  0  0  0  0
 19 21  1  0  0  0  0
 22 23  2  0  0  0  0
 22 24  1  0  0  0  0
 24 25  1  0  0  0  0
 24 26  1  0  0  0  0
 26 27  1  0  0  0  0
 26 28  1  0  0  0  0
 26 29  1  0  0  0  0
M  END
$$$$

  -OEChem-04042215583D

 29 28  0     1  0  0  0  0  0999 V2000
   -3.1634   -3.8024    1.6335 H   0  0  0  0  0  0  0  0  0  0  0  0
   -3.2522   -2.8474    1.1084 C   0  0  0  0  0  0  0  0  0  0  0  0
   -3.9866   -2.2263    1.6271 H   0  0  0  0  0  0  0  0  0  0  0  0
   -3.5994   -3.0354    0.0895 H   0  0  0  0  0  0  0  0  0  0  0  0
   -1.9100   -2.1418    1.0744 C   0  0  0  0  0  0  0  0  0  0  0  0
   -0.9310   -2.6619    1.5882 O   0  0  0  0  0  0  0  0  0  0  0  0
   -1.7986   -0.9164    0.4507 N   0  0  0  0  0  0  0  0  0  0  0  0
   -2.6416   -0.5255    0.0289 H   0  0  0  0  0  0  0  0  0  0  0  0
   -0.5764   -0.1088    0.3530 C   0  0  1  0  0  0  0  0  0  0  0  0
    0.0271   -0.4295    1.2086 H   0  0  0  0  0  0  0  0  0  0  0  0
    0.2764   -0.5468   -0.8667 C   0  0  0  0  0  0  0  0  0  0  0  0
    1.3222   -0.3680   -0.5965 H   0  0  0  0  0  0  0  0  0  0  0  0
    0.1727   -1.6321   -0.9773 H   0  0  0  0  0  0  0  0  0  0  0  0
    0.0664    0.0951   -2.2644 C   0  0  0  0  0  0  0  0  0  0  0  0
    1.0150    0.5261   -2.5962 H   0  0  0  0  0  0  0  0  0  0  0  0
   -0.1791   -0.7032   -2.9712 H   0  0  0  0  0  0  0  0  0  0  0  0
   -1.0063    1.1651   -2.4120 C   0  0  0  0  0  0  0  0  0  0  0  0
   -2.1667    0.8502   -2.5993 O   0  0  0  0  0  0  0  0  0  0  0  0
   -0.7196    2.5004   -2.4160 N   0  0  0  0  0  0  0  0  0  0  0  0
    0.1698    2.7892   -2.0265 H   0  0  0  0  0  0  0  0  0  0  0  0
   -1.5343    3.0885   -2.2576 H   0  0  0  0  0  0  0  0  0  0  0  0
   -0.7461    1.3983    0.6514 C   0  0  0  0  0  0  0  0  0  0  0  0
   -1.7833    1.9872    0.3795 O   0  0  0  0  0  0  0  0  0  0  0  0
    0.1741    2.0405    1.4617 N   0  0  0  0  0  0  0  0  0  0  0  0
    0.9261    1.4746    1.8452 H   0  0  0  0  0  0  0  0  0  0  0  0
   -0.0492    3.3686    2.0228 C   0  0  0  0  0  0  0  0  0  0  0  0
   -0.9076    3.3573    2.7030 H   0  0  0  0  0  0  0  0  0  0  0  0
    0.8327    3.6954    2.5821 H   0  0  0  0  0  0  0  0  0  0  0  0
   -0.2403    4.0961    1.2268 H   0  0  0  0  0  0  0  0  0  0  0  0
  1  2  1  0  0  0  0
  2  3  1  0  0  0  0
  2  4  1  0  0  0  0
  2  5  1  0  0  0  0
  5  6  2  0  0  0  0
  5  7  1  0  0  0  0
  7  8  1  0  0  0  0
  7  9  1  0  0  0  0
  9 10  1  0  0  0  0
  9 11  1  0  0  0  0
  9 22  1  0  0  0  0
 11 12  1  0  0  0  0
 11 13  1  0  0  0  0
 11 14  1  0  0  0  0
 14 15  1  0  0  0  0
 14 16  1  0  0  0  0
 14 17  1  0  0  0  0
 17 18  2  0  0  0  0
 17 19  1  0  0  0  0
 19 20  1  0  0  0  0
 19 21  1  0  0  0  0
 22 23  2  0  0  0  0
 22 24  1  0  0  0  0
 24 25  1  0  0  0  0
 24 26  1  0  0  0  0
 26 27  1  0  0  0  0
 26 28  1  0  0  0  0
 26 29  1  0  0  0  0
M  END
$$$$

  -OEChem-04042215583D

 29 28  0     1  0  0  0  0  0999 V2000
   -3.6703   -3.4804    1.1334 H   0  0  0  0  0  0  0  0  0  0  0  0
   -3.5787   -2.5000    0.6575 C   0  0  0  0  0  0  0  0  0  0  0  0
   -4.1904   -1.7828    1.2102 H   0  0  0  0  0  0  0  0  0  0  0  0
   -3.9478   -2.5701   -0.3684 H   0  0  0  0  0  0  0  0  0  0  0  0
   -2.1288   -2.0537    0.6562 C   0  0  0  0  0  0  0  0  0  0  0  0
   -1.2579   -2.8088    1.0588 O   0  0  0  0  0  0  0  0  0  0  0  0
   -1.7969   -0.7993    0.1849 N   0  0  0  0  0  0  0  0  0  0  0  0
   -2.5740   -0.1609    0.0170 H   0  0  0  0  0  0  0  0  0  0  0  0
   -0.4822   -0.1679    0.3795 C   0  0  1  0  0  0  0  0  0  0  0  0
   -0.0392   -0.6432    1.2617 H   0  0  0  0  0  0  0  0  0  0  0  0
    0.4706   -0.5404   -0.7900 C   0  0  0  0  0  0  0  0  0  0  0  0
    1.4751   -0.5289   -0.3544 H   0  0  0  0  0  0  0  0  0  0  0  0
    0.2769   -1.5801   -1.0758 H   0  0  0  0  0  0  0  0  0  0  0  0
    0.5781    0.3052   -2.0876 C   0  0  0  0  0  0  0  0  0  0  0  0
    1.6313    0.3698   -2.3777 H   0  0  0  0  0  0  0  0  0  0  0  0
    0.0677   -0.2451   -2.8828 H   0  0  0  0  0  0  0  0  0  0  0  0
    0.0037    1.7135   -2.0967 C   0  0  0  0  0  0  0  0  0  0  0  0
    0.6843    2.6593   -1.7466 O   0  0  0  0  0  0  0  0  0  0  0  0
   -1.2662    1.9844   -2.5166 N   0  0  0  0  0  0  0  0  0  0  0  0
   -1.9152    1.2068   -2.5416 H   0  0  0  0  0  0  0  0  0  0  0  0
   -1.6098    2.8903   -2.2081 H   0  0  0  0  0  0  0  0  0  0  0  0
   -0.6300    1.3085    0.8128 C   0  0  0  0  0  0  0  0  0  0  0  0
   -1.6386    1.9224    0.4741 O   0  0  0  0  0  0  0  0  0  0  0  0
    0.1396    1.8186    1.8418 N   0  0  0  0  0  0  0  0  0  0  0  0
    0.9649    1.2916    2.1116 H   0  0  0  0  0  0  0  0  0  0  0  0
    0.0003    3.1871    2.3252 C   0  0  0  0  0  0  0  0  0  0  0  0
   -1.0047    3.3530    2.7272 H   0  0  0  0  0  0  0  0  0  0  0  0
    0.7256    3.3825    3.1207 H   0  0  0  0  0  0  0  0  0  0  0  0
    0.1772    3.8992    1.5119 H   0  0  0  0  0  0  0  0  0  0  0  0
  1  2  1  0  0  0  0
  2  3  1  0  0  0  0
  2  4  1  0  0  0  0
  2  5  1  0  0  0  0
  5  6  2  0  0  0  0
  5  7  1  0  0  0  0
  7  8  1  0  0  0  0
  7  9  1  0  0  0  0
  9 10  1  0  0  0  0
  9 11  1  0  0  0  0
  9 22  1  0  0  0  0
 11 12  1  0  0  0  0
 11 13  1  0  0  0  0
 11 14  1  0  0  0  0
 14 15  1  0  0  0  0
 14 16  1  0  0  0  0
 14 17  1  0  0  0  0
 17 18  2  0  0  0  0
 17 19  1  0  0  0  0
 19 20  1  0  0  0  0
 19 21  1  0  0  0  0
 22 23  2  0  0  0  0
 22 24  1  0  0  0  0
 24 25  1  0  0  0  0
 24 26  1  0  0  0  0
 26 27  1  0  0  0  0
 26 28  1  0  0  0  0
 26 29  1  0  0  0  0
M  END
$$$$

  -OEChem-04042215583D

 29 28  0     1  0  0  0  0  0999 V2000
   -3.5059   -3.6956    0.8492 H   0  0  0  0  0  0  0  0  0  0  0  0
   -3.4414   -2.6838    0.4392 C   0  0  0  0  0  0  0  0  0  0  0  0
   -4.1073   -2.0307    1.0084 H   0  0  0  0  0  0  0  0  0  0  0  0
   -3.7658   -2.7047   -0.6039 H   0  0  0  0  0  0  0  0  0  0  0  0
   -2.0157   -2.1733    0.5275 C   0  0  0  0  0  0  0  0  0  0  0  0
   -1.1326   -2.8990    0.9567 O   0  0  0  0  0  0  0  0  0  0  0  0
   -1.7209   -0.8909    0.1112 N   0  0  0  0  0  0  0  0  0  0  0  0
   -2.5148   -0.2869   -0.0992 H   0  0  0  0  0  0  0  0  0  0  0  0
   -0.4431   -0.2094    0.3689 C   0  0  1  0  0  0  0  0  0  0  0  0
    0.0108   -0.6968    1.2387 H   0  0  0  0  0  0  0  0  0  0  0  0
    0.5321   -0.4821   -0.8107 C   0  0  0  0  0  0  0  0  0  0  0  0
    1.5327   -0.4441   -0.3672 H   0  0  0  0  0  0  0  0  0  0  0  0
    0.3884   -1.5128   -1.1528 H   0  0  0  0  0  0  0  0  0  0  0  0
    0.6077    0.4378   -2.0581 C   0  0  0  0  0  0  0  0  0  0  0  0
    1.6049    0.3526   -2.4998 H   0  0  0  0  0  0  0  0  0  0  0  0
   -0.0996    0.0482   -2.7951 H   0  0  0  0  0  0  0  0  0  0  0  0
    0.2944    1.9172   -1.8864 C   0  0  0  0  0  0  0  0  0  0  0  0
    1.0734    2.6482   -1.3029 O   0  0  0  0  0  0  0  0  0  0  0  0
   -0.8467    2.4904   -2.3680 N   0  0  0  0  0  0  0  0  0  0  0  0
   -1.0547    3.3927   -1.9489 H   0  0  0  0  0  0  0  0  0  0  0  0
   -1.6208    1.8665   -2.5657 H   0  0  0  0  0  0  0  0  0  0  0  0
   -0.6906    1.2394    0.8439 C   0  0  0  0  0  0  0  0  0  0  0  0
   -1.6944    1.8279    0.4487 O   0  0  0  0  0  0  0  0  0  0  0  0
    0.0105    1.7579    1.9163 N   0  0  0  0  0  0  0  0  0  0  0  0
    0.8580    1.2702    2.1914 H   0  0  0  0  0  0  0  0  0  0  0  0
   -0.1958    3.1147    2.4075 C   0  0  0  0  0  0  0  0  0  0  0  0
   -1.2329    3.2541    2.7304 H   0  0  0  0  0  0  0  0  0  0  0  0
    0.4592    3.3108    3.2618 H   0  0  0  0  0  0  0  0  0  0  0  0
    0.0306    3.8433    1.6217 H   0  0  0  0  0  0  0  0  0  0  0  0
  1  2  1  0  0  0  0
  2  3  1  0  0  0  0
  2  4  1  0  0  0  0
  2  5  1  0  0  0  0
  5  6  2  0  0  0  0
  5  7  1  0  0  0  0
  7  8  1  0  0  0  0
  7  9  1  0  0  0  0
  9 10  1  0  0  0  0
  9 11  1  0  0  0  0
  9 22  1  0  0  0  0
 11 12  1  0  0  0  0
 11 13  1  0  0  0  0
 11 14  1  0  0  0  0
 14 15  1  0  0  0  0
 14 16  1  0  0  0  0
 14 17  1  0  0  0  0
 17 18  2  0  0  0  0
 17 19  1  0  0  0  0
 19 20  1  0  0  0  0
 19 21  1  0  0  0  0
 22 23  2  0  0  0  0
 22 24  1  0  0  0  0
 24 25  1  0  0  0  0
 24 26  1  0  0  0  0
 26 27  1  0  0  0  0
 26 28  1  0  0  0  0
 26 29  1  0  0  0  0
M  END
$$$$

  -OEChem-04042215583D

 29 28  0     1  0  0  0  0  0999 V2000
   -3.4152   -3.7003    1.2092 H   0  0  0  0  0  0  0  0  0  0  0  0
   -3.3804   -2.7054    0.7565 C   0  0  0  0  0  0  0  0  0  0  0  0
   -4.0026   -2.0286    1.3471 H   0  0  0  0  0  0  0  0  0  0  0  0
   -3.7805   -2.7654   -0.2584 H   0  0  0  0  0  0  0  0  0  0  0  0
   -1.9517   -2.1966    0.7201 C   0  0  0  0  0  0  0  0  0  0  0  0
   -1.0410   -2.9031    1.1222 O   0  0  0  0  0  0  0  0  0  0  0  0
   -1.6867   -0.9366    0.2237 N   0  0  0  0  0  0  0  0  0  0  0  0
   -2.4920   -0.3429    0.0284 H   0  0  0  0  0  0  0  0  0  0  0  0
   -0.3896   -0.2525    0.3418 C   0  0  1  0  0  0  0  0  0  0  0  0
    0.1554   -0.7081    1.1757 H   0  0  0  0  0  0  0  0  0  0  0  0
    0.4475   -0.5474   -0.9338 C   0  0  0  0  0  0  0  0  0  0  0  0
    1.4952   -0.5199   -0.6156 H   0  0  0  0  0  0  0  0  0  0  0  0
    0.2493   -1.5761   -1.2537 H   0  0  0  0  0  0  0  0  0  0  0  0
    0.3638    0.3755   -2.1760 C   0  0  0  0  0  0  0  0  0  0  0  0
    1.1717    0.1161   -2.8661 H   0  0  0  0  0  0  0  0  0  0  0  0
   -0.5786    0.1607   -2.6867 H   0  0  0  0  0  0  0  0  0  0  0  0
    0.4200    1.8789   -1.9294 C   0  0  0  0  0  0  0  0  0  0  0  0
    1.3719    2.3791   -1.3583 O   0  0  0  0  0  0  0  0  0  0  0  0
   -0.5769    2.7292   -2.3105 N   0  0  0  0  0  0  0  0  0  0  0  0
   -0.5253    3.6422   -1.8687 H   0  0  0  0  0  0  0  0  0  0  0  0
   -1.4939    2.3174   -2.4470 H   0  0  0  0  0  0  0  0  0  0  0  0
   -0.6136    1.2140    0.7700 C   0  0  0  0  0  0  0  0  0  0  0  0
   -1.6217    1.7996    0.3798 O   0  0  0  0  0  0  0  0  0  0  0  0
    0.1623    1.7890    1.7581 N   0  0  0  0  0  0  0  0  0  0  0  0
    1.0292    1.3137    1.9926 H   0  0  0  0  0  0  0  0  0  0  0  0
    0.0070    3.1790    2.1684 C   0  0  0  0  0  0  0  0  0  0  0  0
   -1.0036    3.3568    2.5507 H   0  0  0  0  0  0  0  0  0  0  0  0
    0.7216    3.4207    2.9610 H   0  0  0  0  0  0  0  0  0  0  0  0
    0.1883    3.8496    1.3216 H   0  0  0  0  0  0  0  0  0  0  0  0
  1  2  1  0  0  0  0
  2  3  1  0  0  0  0
  2  4  1  0  0  0  0
  2  5  1  0  0  0  0
  5  6  2  0  0  0  0
  5  7  1  0  0  0  0
  7  8  1  0  0  0  0
  7  9  1  0  0  0  0
  9 10  1  0  0  0  0
  9 11  1  0  0  0  0
  9 22  1  0  0  0  0
 11 12  1  0  0  0  0
 11 13  1  0  0  0  0
 11 14  1  0  0  0  0
 14 15  1  0  0  0  0
 14 16  1  0  0  0  0
 14 17  1  0  0  0  0
 17 18  2  0  0  0  0
 17 19  1  0  0  0  0
 19 20  1  0  0  0  0
 19 21  1  0  0  0  0
 22 23  2  0  0  0  0
 22 24  1  0  0  0  0
 24 25  1  0  0  0  0
 24 26  1  0  0  0  0
 26 27  1  0  0  0  0
 26 28  1  0  0  0  0
 26 29  1  0  0  0  0
M  END
$$$$

  -OEChem-04042215583D

 29 28  0     1  0  0  0  0  0999 V2000
   -3.4122   -3.7058    1.2916 H   0  0  0  0  0  0  0  0  0  0  0  0
   -3.3746   -2.7243    0.8107 C   0  0  0  0  0  0  0  0  0  0  0  0
   -4.0088   -2.0333    1.3714 H   0  0  0  0  0  0  0  0  0  0  0  0
   -3.7584   -2.8159   -0.2081 H   0  0  0  0  0  0  0  0  0  0  0  0
   -1.9476   -2.2105    0.7823 C   0  0  0  0  0  0  0  0  0  0  0  0
   -1.0450   -2.8888    1.2461 O   0  0  0  0  0  0  0  0  0  0  0  0
   -1.6760   -0.9756    0.2299 N   0  0  0  0  0  0  0  0  0  0  0  0
   -2.4764   -0.4021   -0.0327 H   0  0  0  0  0  0  0  0  0  0  0  0
   -0.3796   -0.2868    0.3253 C   0  0  1  0  0  0  0  0  0  0  0  0
    0.1742   -0.7107    1.1701 H   0  0  0  0  0  0  0  0  0  0  0  0
    0.4459   -0.5992   -0.9511 C   0  0  0  0  0  0  0  0  0  0  0  0
    1.5023   -0.5881   -0.6609 H   0  0  0  0  0  0  0  0  0  0  0  0
    0.2231   -1.6229   -1.2705 H   0  0  0  0  0  0  0  0  0  0  0  0
    0.3066    0.3393   -2.1733 C   0  0  0  0  0  0  0  0  0  0  0  0
    0.9297   -0.0423   -2.9866 H   0  0  0  0  0  0  0  0  0  0  0  0
   -0.7317    0.3112   -2.5146 H   0  0  0  0  0  0  0  0  0  0  0  0
    0.6985    1.7950   -1.9307 C   0  0  0  0  0  0  0  0  0  0  0  0
    1.7437    2.0841   -1.3769 O   0  0  0  0  0  0  0  0  0  0  0  0
   -0.1179    2.8379   -2.2578 N   0  0  0  0  0  0  0  0  0  0  0  0
    0.1528    3.7199   -1.8345 H   0  0  0  0  0  0  0  0  0  0  0  0
   -1.1086    2.6248   -2.3259 H   0  0  0  0  0  0  0  0  0  0  0  0
   -0.6069    1.1971    0.6821 C   0  0  0  0  0  0  0  0  0  0  0  0
   -1.5750    1.7865    0.2060 O   0  0  0  0  0  0  0  0  0  0  0  0
    0.1613    1.8169    1.6485 N   0  0  0  0  0  0  0  0  0  0  0  0
    1.0071    1.3351    1.9413 H   0  0  0  0  0  0  0  0  0  0  0  0
    0.0122    3.2242    1.9951 C   0  0  0  0  0  0  0  0  0  0  0  0
   -1.0080    3.4300    2.3357 H   0  0  0  0  0  0  0  0  0  0  0  0
    0.7032    3.4892    2.8012 H   0  0  0  0  0  0  0  0  0  0  0  0
    0.2310    3.8564    1.1282 H   0  0  0  0  0  0  0  0  0  0  0  0
  1  2  1  0  0  0  0
  2  3  1  0  0  0  0
  2  4  1  0  0  0  0
  2  5  1  0  0  0  0
  5  6  2  0  0  0  0
  5  7  1  0  0  0  0
  7  8  1  0  0  0  0
  7  9  1  0  0  0  0
  9 10  1  0  0  0  0
  9 11  1  0  0  0  0
  9 22  1  0  0  0  0
 11 12  1  0  0  0  0
 11 13  1  0  0  0  0
 11 14  1  0  0  0  0
 14 15  1  0  0  0  0
 14 16  1  0  0  0  0
 14 17  1  0  0  0  0
 17 18  2  0  0  0  0
 17 19  1  0  0  0  0
 19 20  1  0  0  0  0
 19 21  1  0  0  0  0
 22 23  2  0  0  0  0
 22 24  1  0  0  0  0
 24 25  1  0  0  0  0
 24 26  1  0  0  0  0
 26 27  1  0  0  0  0
 26 28  1  0  0  0  0
 26 29  1  0  0  0  0
M  END
$$$$

  -OEChem-04042215583D

 29 28  0     1  0  0  0  0  0999 V2000
   -3.3779   -3.7433    1.3069 H   0  0  0  0  0  0  0  0  0  0  0  0
   -3.3578   -2.7540    0.8411 C   0  0  0  0  0  0  0  0  0  0  0  0
   -4.0135   -2.0858    1.4048 H   0  0  0  0  0  0  0  0  0  0  0  0
   -3.7290   -2.8401   -0.1830 H   0  0  0  0  0  0  0  0  0  0  0  0
   -1.9427   -2.2072    0.8359 C   0  0  0  0  0  0  0  0  0  0  0  0
   -1.0433   -2.8371    1.3689 O   0  0  0  0  0  0  0  0  0  0  0  0
   -1.6777   -0.9975    0.2268 N   0  0  0  0  0  0  0  0  0  0  0  0
   -2.4767   -0.4662   -0.1155 H   0  0  0  0  0  0  0  0  0  0  0  0
   -0.3889   -0.2916    0.2922 C   0  0  1  0  0  0  0  0  0  0  0  0
    0.1707   -0.6782    1.1506 H   0  0  0  0  0  0  0  0  0  0  0  0
    0.4372   -0.6359   -0.9720 C   0  0  0  0  0  0  0  0  0  0  0  0
    1.4988   -0.6237   -0.7012 H   0  0  0  0  0  0  0  0  0  0  0  0
    0.2054   -1.6640   -1.2702 H   0  0  0  0  0  0  0  0  0  0  0  0
    0.2447    0.2888   -2.1946 C   0  0  0  0  0  0  0  0  0  0  0  0
    0.6620   -0.2033   -3.0774 H   0  0  0  0  0  0  0  0  0  0  0  0
   -0.8236    0.4343   -2.3779 H   0  0  0  0  0  0  0  0  0  0  0  0
    0.9313    1.6471   -2.0644 C   0  0  0  0  0  0  0  0  0  0  0  0
    2.1213    1.7418   -1.8297 O   0  0  0  0  0  0  0  0  0  0  0  0
    0.2365    2.8201   -2.1042 N   0  0  0  0  0  0  0  0  0  0  0  0
    0.7662    3.6267   -1.7904 H   0  0  0  0  0  0  0  0  0  0  0  0
   -0.7478    2.7589   -1.8463 H   0  0  0  0  0  0  0  0  0  0  0  0
   -0.6028    1.2093    0.5758 C   0  0  0  0  0  0  0  0  0  0  0  0
   -1.5247    1.8073    0.0257 O   0  0  0  0  0  0  0  0  0  0  0  0
    0.1726    1.8673    1.5109 N   0  0  0  0  0  0  0  0  0  0  0  0
    0.9482    1.3536    1.9214 H   0  0  0  0  0  0  0  0  0  0  0  0
    0.0294    3.2844    1.8202 C   0  0  0  0  0  0  0  0  0  0  0  0
   -0.9936    3.5069    2.1417 H   0  0  0  0  0  0  0  0  0  0  0  0
    0.7119    3.5647    2.6284 H   0  0  0  0  0  0  0  0  0  0  0  0
    0.2643    3.8935    0.9414 H   0  0  0  0  0  0  0  0  0  0  0  0
  1  2  1  0  0  0  0
  2  3  1  0  0  0  0
  2  4  1  0  0  0  0
  2  5  1  0  0  0  0
  5  6  2  0  0  0  0
  5  7  1  0  0  0  0
  7  8  1  0  0  0  0
  7  9  1  0  0  0  0
  9 10  1  0  0  0  0
  9 11  1  0  0  0  0
  9 22  1  0  0  0  0
 11 12  1  0  0  0  0
 11 13  1  0  0  0  0
 11 14  1  0  0  0  0
 14 15  1  0  0  0  0
 14 16  1  0  0  0  0
 14 17  1  0  0  0  0
 17 18  2  0  0  0  0
 17 19  1  0  0  0  0
 19 20  1  0  0  0  0
 19 21  1  0  0  0  0
 22 23  2  0  0  0  0
 22 24  1  0  0  0  0
 24 25  1  0  0  0  0
 24 26  1  0  0  0  0
 26 27  1  0  0  0  0
 26 28  1  0  0  0  0
 26 29  1  0  0  0  0
M  END
$$$$

  -OEChem-04042215583D

 29 28  0     1  0  0  0  0  0999 V2000
   -3.3592   -3.8032    1.3949 H   0  0  0  0  0  0  0  0  0  0  0  0
   -3.3512   -2.8261    0.9037 C   0  0  0  0  0  0  0  0  0  0  0  0
   -3.9907   -2.1429    1.4678 H   0  0  0  0  0  0  0  0  0  0  0  0
   -3.7497   -2.9367   -0.1076 H   0  0  0  0  0  0  0  0  0  0  0  0
   -1.9367   -2.2814    0.8458 C   0  0  0  0  0  0  0  0  0  0  0  0
   -1.0112   -2.9393    1.2939 O   0  0  0  0  0  0  0  0  0  0  0  0
   -1.7035   -1.0467    0.2761 N   0  0  0  0  0  0  0  0  0  0  0  0
   -2.5210   -0.4955    0.0195 H   0  0  0  0  0  0  0  0  0  0  0  0
   -0.4202   -0.3304    0.3279 C   0  0  1  0  0  0  0  0  0  0  0  0
    0.1633   -0.7481    1.1551 H   0  0  0  0  0  0  0  0  0  0  0  0
    0.3895   -0.5960   -0.9604 C   0  0  0  0  0  0  0  0  0  0  0  0
    1.4579   -0.6095   -0.7192 H   0  0  0  0  0  0  0  0  0  0  0  0
    0.1459   -1.6026   -1.3165 H   0  0  0  0  0  0  0  0  0  0  0  0
    0.1204    0.4114   -2.1023 C   0  0  0  0  0  0  0  0  0  0  0  0
    0.2962   -0.0983   -3.0534 H   0  0  0  0  0  0  0  0  0  0  0  0
   -0.9267    0.7251   -2.0967 H   0  0  0  0  0  0  0  0  0  0  0  0
    1.0349    1.6376   -2.0847 C   0  0  0  0  0  0  0  0  0  0  0  0
    1.9661    1.7693   -1.3099 O   0  0  0  0  0  0  0  0  0  0  0  0
    0.8152    2.6908   -2.9239 N   0  0  0  0  0  0  0  0  0  0  0  0
    1.3252    3.5393   -2.6972 H   0  0  0  0  0  0  0  0  0  0  0  0
   -0.0882    2.7545   -3.3812 H   0  0  0  0  0  0  0  0  0  0  0  0
   -0.6143    1.1625    0.6755 C   0  0  0  0  0  0  0  0  0  0  0  0
   -1.5800    1.7699    0.2210 O   0  0  0  0  0  0  0  0  0  0  0  0
    0.1991    1.7797    1.6064 N   0  0  0  0  0  0  0  0  0  0  0  0
    1.0548    1.2913    1.8570 H   0  0  0  0  0  0  0  0  0  0  0  0
    0.0958    3.1975    1.9277 C   0  0  0  0  0  0  0  0  0  0  0  0
   -0.9094    3.4379    2.2898 H   0  0  0  0  0  0  0  0  0  0  0  0
    0.8140    3.4605    2.7103 H   0  0  0  0  0  0  0  0  0  0  0  0
    0.3077    3.8062    1.0425 H   0  0  0  0  0  0  0  0  0  0  0  0
  1  2  1  0  0  0  0
  2  3  1  0  0  0  0
  2  4  1  0  0  0  0
  2  5  1  0  0  0  0
  5  6  2  0  0  0  0
  5  7  1  0  0  0  0
  7  8  1  0  0  0  0
  7  9  1  0  0  0  0
  9 10  1  0  0  0  0
  9 11  1  0  0  0  0
  9 22  1  0  0  0  0
 11 12  1  0  0  0  0
 11 13  1  0  0  0  0
 11 14  1  0  0  0  0
 14 15  1  0  0  0  0
 14 16  1  0  0  0  0
 14 17  1  0  0  0  0
 17 18  2  0  0  0  0
 17 19  1  0  0  0  0
 19 20  1  0  0  0  0
 19 21  1  0  0  0  0
 22 23  2  0  0  0  0
 22 24  1  0  0  0  0
 24 25  1  0  0  0  0
 24 26  1  0  0  0  0
 26 27  1  0  0  0  0
 26 28  1  0  0  0  0
 26 29  1  0  0  0  0
M  END
$$$$

  -OEChem-04042215583D

 29 28  0     1  0  0  0  0  0999 V2000
   -3.3063   -3.8479    1.3870 H   0  0  0  0  0  0  0  0  0  0  0  0
   -3.3291   -2.8548    0.9295 C   0  0  0  0  0  0  0  0  0  0  0  0
   -3.9500   -2.1984    1.5442 H   0  0  0  0  0  0  0  0  0  0  0  0
   -3.7706   -2.9359   -0.0666 H   0  0  0  0  0  0  0  0  0  0  0  0
   -1.9233   -2.2931    0.8282 C   0  0  0  0  0  0  0  0  0  0  0  0
   -0.9724   -2.9580    1.2077 O   0  0  0  0  0  0  0  0  0  0  0  0
   -1.7262   -1.0367    0.2931 N   0  0  0  0  0  0  0  0  0  0  0  0
   -2.5596   -0.4848    0.0951 H   0  0  0  0  0  0  0  0  0  0  0  0
   -0.4512   -0.3044    0.3238 C   0  0  1  0  0  0  0  0  0  0  0  0
    0.1552   -0.7406    1.1251 H   0  0  0  0  0  0  0  0  0  0  0  0
    0.3383   -0.5295   -0.9827 C   0  0  0  0  0  0  0  0  0  0  0  0
    1.4094   -0.5320   -0.7544 H   0  0  0  0  0  0  0  0  0  0  0  0
    0.1076   -1.5342   -1.3527 H   0  0  0  0  0  0  0  0  0  0  0  0
    0.0343    0.4942   -2.1036 C   0  0  0  0  0  0  0  0  0  0  0  0
   -0.0506   -0.0607   -3.0419 H   0  0  0  0  0  0  0  0  0  0  0  0
   -0.9257    0.9912   -1.9488 H   0  0  0  0  0  0  0  0  0  0  0  0
    1.1345    1.5360   -2.3030 C   0  0  0  0  0  0  0  0  0  0  0  0
    1.9703    1.7922   -1.4545 O   0  0  0  0  0  0  0  0  0  0  0  0
    1.2026    2.2845   -3.4424 N   0  0  0  0  0  0  0  0  0  0  0  0
    1.8219    3.0886   -3.4017 H   0  0  0  0  0  0  0  0  0  0  0  0
    0.4013    2.2930   -4.0643 H   0  0  0  0  0  0  0  0  0  0  0  0
   -0.6351    1.1761    0.7271 C   0  0  0  0  0  0  0  0  0  0  0  0
   -1.6437    1.7792    0.3718 O   0  0  0  0  0  0  0  0  0  0  0  0
    0.2142    1.7629    1.6459 N   0  0  0  0  0  0  0  0  0  0  0  0
    1.0887    1.2793    1.8316 H   0  0  0  0  0  0  0  0  0  0  0  0
    0.0987    3.1587    2.0488 C   0  0  0  0  0  0  0  0  0  0  0  0
   -0.8894    3.3549    2.4782 H   0  0  0  0  0  0  0  0  0  0  0  0
    0.8541    3.3974    2.8035 H   0  0  0  0  0  0  0  0  0  0  0  0
    0.2474    3.8184    1.1876 H   0  0  0  0  0  0  0  0  0  0  0  0
  1  2  1  0  0  0  0
  2  3  1  0  0  0  0
  2  4  1  0  0  0  0
  2  5  1  0  0  0  0
  5  6  2  0  0  0  0
  5  7  1  0  0  0  0
  7  8  1  0  0  0  0
  7  9  1  0  0  0  0
  9 10  1  0  0  0  0
  9 11  1  0  0  0  0
  9 22  1  0  0  0  0
 11 12  1  0  0  0  0
 11 13  1  0  0  0  0
 11 14  1  0  0  0  0
 14 15  1  0  0  0  0
 14 16  1  0  0  0  0
 14 17  1  0  0  0  0
 17 18  2  0  0  0  0
 17 19  1  0  0  0  0
 19 20  1  0  0  0  0
 19 21  1  0  0  0  0
 22 23  2  0  0  0  0
 22 24  1  0  0  0  0
 24 25  1  0  0  0  0
 24 26  1  0  0  0  0
 26 27  1  0  0  0  0
 26 28  1  0  0  0  0
 26 29  1  0  0  0  0
M  END
$$$$

  -OEChem-04042215583D

 29 28  0     1  0  0  0  0  0999 V2000
   -3.2543   -3.8897    1.2754 H   0  0  0  0  0  0  0  0  0  0  0  0
   -3.3030   -2.8590    0.9131 C   0  0  0  0  0  0  0  0  0  0  0  0
   -3.8923   -2.2656    1.6164 H   0  0  0  0  0  0  0  0  0  0  0  0
   -3.7961   -2.8512   -0.0619 H   0  0  0  0  0  0  0  0  0  0  0  0
   -1.9057   -2.2808    0.7915 C   0  0  0  0  0  0  0  0  0  0  0  0
   -0.9378   -2.9506    1.1156 O   0  0  0  0  0  0  0  0  0  0  0  0
   -1.7361   -1.0035    0.2986 N   0  0  0  0  0  0  0  0  0  0  0  0
   -2.5801   -0.4524    0.1488 H   0  0  0  0  0  0  0  0  0  0  0  0
   -0.4682   -0.2593    0.3179 C   0  0  1  0  0  0  0  0  0  0  0  0
    0.1593   -0.7164    1.0905 H   0  0  0  0  0  0  0  0  0  0  0  0
    0.2929   -0.4479   -1.0115 C   0  0  0  0  0  0  0  0  0  0  0  0
    1.3642   -0.4217   -0.7856 H   0  0  0  0  0  0  0  0  0  0  0  0
    0.0911   -1.4544   -1.3933 H   0  0  0  0  0  0  0  0  0  0  0  0
   -0.0297    0.5861   -2.1208 C   0  0  0  0  0  0  0  0  0  0  0  0
   -0.4133    0.0396   -2.9864 H   0  0  0  0  0  0  0  0  0  0  0  0
   -0.8146    1.2832   -1.8248 H   0  0  0  0  0  0  0  0  0  0  0  0
    1.1908    1.3866   -2.5683 C   0  0  0  0  0  0  0  0  0  0  0  0
    2.0375    1.7794   -1.7863 O   0  0  0  0  0  0  0  0  0  0  0  0
    1.3876    1.7239   -3.8767 N   0  0  0  0  0  0  0  0  0  0  0  0
    2.1181    2.4079   -4.0521 H   0  0  0  0  0  0  0  0  0  0  0  0
    0.6188    1.6199   -4.5302 H   0  0  0  0  0  0  0  0  0  0  0  0
   -0.6505    1.2031    0.7812 C   0  0  0  0  0  0  0  0  0  0  0  0
   -1.6824    1.8036    0.4967 O   0  0  0  0  0  0  0  0  0  0  0  0
    0.2234    1.7626    1.6942 N   0  0  0  0  0  0  0  0  0  0  0  0
    1.0958    1.2685    1.8608 H   0  0  0  0  0  0  0  0  0  0  0  0
    0.0951    3.1308    2.1796 C   0  0  0  0  0  0  0  0  0  0  0  0
   -0.8617    3.2675    2.6943 H   0  0  0  0  0  0  0  0  0  0  0  0
    0.9006    3.3582    2.8843 H   0  0  0  0  0  0  0  0  0  0  0  0
    0.1530    3.8391    1.3463 H   0  0  0  0  0  0  0  0  0  0  0  0
  1  2  1  0  0  0  0
  2  3  1  0  0  0  0
  2  4  1  0  0  0  0
  2  5  1  0  0  0  0
  5  6  2  0  0  0  0
  5  7  1  0  0  0  0
  7  8  1  0  0  0  0
  7  9  1  0  0  0  0
  9 10  1  0  0  0  0
  9 11  1  0  0  0  0
  9 22  1  0  0  0  0
 11 12  1  0  0  0  0
 11 13  1  0  0  0  0
 11 14  1  0  0  0  0
 14 15  1  0  0  0  0
 14 16  1  0  0  0  0
 14 17  1  0  0  0  0
 17 18  2  0  0  0  0
 17 19  1  0  0  0  0
 19 20  1  0  0  0  0
 19 21  1  0  0  0  0
 22 23  2  0  0  0  0
 22 24  1  0  0  0  0
 24 25  1  0  0  0  0
 24 26  1  0  0  0  0
 26 27  1  0  0  0  0
 26 28  1  0  0  0  0
 26 29  1  0  0  0  0
M  END
$$$$

  -OEChem-04042215583D

 29 28  0     1  0  0  0  0  0999 V2000
   -3.2911   -3.8201    1.3999 H   0  0  0  0  0  0  0  0  0  0  0  0
   -3.3143   -2.8329    0.9298 C   0  0  0  0  0  0  0  0  0  0  0  0
   -3.9616   -2.1777    1.5178 H   0  0  0  0  0  0  0  0  0  0  0  0
   -3.7255   -2.9317   -0.0777 H   0  0  0  0  0  0  0  0  0  0  0  0
   -1.9144   -2.2526    0.8619 C   0  0  0  0  0  0  0  0  0  0  0  0
   -0.9677   -2.8910    1.2935 O   0  0  0  0  0  0  0  0  0  0  0  0
   -1.7198   -1.0034    0.3089 N   0  0  0  0  0  0  0  0  0  0  0  0
   -2.5525   -0.4737    0.0564 H   0  0  0  0  0  0  0  0  0  0  0  0
   -0.4465   -0.2688    0.3150 C   0  0  1  0  0  0  0  0  0  0  0  0
    0.1646   -0.6909    1.1199 H   0  0  0  0  0  0  0  0  0  0  0  0
    0.3254   -0.5501   -0.9953 C   0  0  0  0  0  0  0  0  0  0  0  0
    1.3858   -0.4878   -0.7318 H   0  0  0  0  0  0  0  0  0  0  0  0
    0.1517   -1.5834   -1.3143 H   0  0  0  0  0  0  0  0  0  0  0  0
    0.0412    0.4081   -2.1861 C   0  0  0  0  0  0  0  0  0  0  0  0
   -0.6111   -0.1097   -2.8945 H   0  0  0  0  0  0  0  0  0  0  0  0
   -0.4948    1.2991   -1.8617 H   0  0  0  0  0  0  0  0  0  0  0  0
    1.2803    0.8955   -2.9389 C   0  0  0  0  0  0  0  0  0  0  0  0
    2.4183    0.5530   -2.6767 O   0  0  0  0  0  0  0  0  0  0  0  0
    1.1648    1.7880   -3.9658 N   0  0  0  0  0  0  0  0  0  0  0  0
    2.0319    2.1990   -4.2995 H   0  0  0  0  0  0  0  0  0  0  0  0
    0.2824    2.2699   -4.1021 H   0  0  0  0  0  0  0  0  0  0  0  0
   -0.6240    1.2157    0.6994 C   0  0  0  0  0  0  0  0  0  0  0  0
   -1.6188    1.8291    0.3268 O   0  0  0  0  0  0  0  0  0  0  0  0
    0.2373    1.8130    1.6007 N   0  0  0  0  0  0  0  0  0  0  0  0
    1.0201    1.2610    1.9414 H   0  0  0  0  0  0  0  0  0  0  0  0
    0.0588    3.1694    2.1043 C   0  0  0  0  0  0  0  0  0  0  0  0
   -0.8884    3.2550    2.6471 H   0  0  0  0  0  0  0  0  0  0  0  0
    0.8731    3.4294    2.7876 H   0  0  0  0  0  0  0  0  0  0  0  0
    0.0585    3.8881    1.2780 H   0  0  0  0  0  0  0  0  0  0  0  0
  1  2  1  0  0  0  0
  2  3  1  0  0  0  0
  2  4  1  0  0  0  0
  2  5  1  0  0  0  0
  5  6  2  0  0  0  0
  5  7  1  0  0  0  0
  7  8  1  0  0  0  0
  7  9  1  0  0  0  0
  9 10  1  0  0  0  0
  9 11  1  0  0  0  0
  9 22  1  0  0  0  0
 11 12  1  0  0  0  0
 11 13  1  0  0  0  0
 11 14  1  0  0  0  0
 14 15  1  0  0  0  0
 14 16  1  0  0  0  0
 14 17  1  0  0  0  0
 17 18  2  0  0  0  0
 17 19  1  0  0  0  0
 19 20  1  0  0  0  0
 19 21  1  0  0  0  0
 22 23  2  0  0  0  0
 22 24  1  0  0  0  0
 24 25  1  0  0  0  0
 24 26  1  0  0  0  0
 26 27  1  0  0  0  0
 26 28  1  0  0  0  0
 26 29  1  0  0  0  0
M  END
$$$$

  -OEChem-04042215583D

 29 28  0     1  0  0  0  0  0999 V2000
   -3.2738   -3.8241    1.4106 H   0  0  0  0  0  0  0  0  0  0  0  0
   -3.3015   -2.8356    0.9433 C   0  0  0  0  0  0  0  0  0  0  0  0
   -3.9491   -2.1843    1.5353 H   0  0  0  0  0  0  0  0  0  0  0  0
   -3.7157   -2.9335   -0.0630 H   0  0  0  0  0  0  0  0  0  0  0  0
   -1.9033   -2.2510    0.8739 C   0  0  0  0  0  0  0  0  0  0  0  0
   -0.9560   -2.8828    1.3137 O   0  0  0  0  0  0  0  0  0  0  0  0
   -1.7108   -1.0029    0.3176 N   0  0  0  0  0  0  0  0  0  0  0  0
   -2.5430   -0.4770    0.0555 H   0  0  0  0  0  0  0  0  0  0  0  0
   -0.4360   -0.2709    0.3126 C   0  0  1  0  0  0  0  0  0  0  0  0
    0.1916   -0.6943    1.1042 H   0  0  0  0  0  0  0  0  0  0  0  0
    0.3013   -0.5444   -1.0197 C   0  0  0  0  0  0  0  0  0  0  0  0
    1.3687   -0.4690   -0.7853 H   0  0  0  0  0  0  0  0  0  0  0  0
    0.1265   -1.5760   -1.3446 H   0  0  0  0  0  0  0  0  0  0  0  0
   -0.0052    0.4260   -2.1904 C   0  0  0  0  0  0  0  0  0  0  0  0
   -0.8811    0.0625   -2.7341 H   0  0  0  0  0  0  0  0  0  0  0  0
   -0.2416    1.4239   -1.8207 H   0  0  0  0  0  0  0  0  0  0  0  0
    1.1566    0.6092   -3.1666 C   0  0  0  0  0  0  0  0  0  0  0  0
    2.2054   -0.0038   -3.0929 O   0  0  0  0  0  0  0  0  0  0  0  0
    1.0722    1.5006   -4.1973 N   0  0  0  0  0  0  0  0  0  0  0  0
    1.9322    1.6823   -4.7066 H   0  0  0  0  0  0  0  0  0  0  0  0
    0.3122    2.1726   -4.2110 H   0  0  0  0  0  0  0  0  0  0  0  0
   -0.6208    1.2119    0.6980 C   0  0  0  0  0  0  0  0  0  0  0  0
   -1.6073    1.8276    0.3076 O   0  0  0  0  0  0  0  0  0  0  0  0
    0.2415    1.8149    1.5944 N   0  0  0  0  0  0  0  0  0  0  0  0
    1.0053    1.2541    1.9624 H   0  0  0  0  0  0  0  0  0  0  0  0
    0.0514    3.1676    2.1037 C   0  0  0  0  0  0  0  0  0  0  0  0
   -0.8806    3.2341    2.6749 H   0  0  0  0  0  0  0  0  0  0  0  0
    0.8812    3.4443    2.7614 H   0  0  0  0  0  0  0  0  0  0  0  0
    0.0113    3.8864    1.2786 H   0  0  0  0  0  0  0  0  0  0  0  0
  1  2  1  0  0  0  0
  2  3  1  0  0  0  0
  2  4  1  0  0  0  0
  2  5  1  0  0  0  0
  5  6  2  0  0  0  0
  5  7  1  0  0  0  0
  7  8  1  0  0  0  0
  7  9  1  0  0  0  0
  9 10  1  0  0  0  0
  9 11  1  0  0  0  0
  9 22  1  0  0  0  0
 11 12  1  0  0  0  0
 11 13  1  0  0  0  0
 11 14  1  0  0  0  0
 14 15  1  0  0  0  0
 14 16  1  0  0  0  0
 14 17  1  0  0  0  0
 17 18  2  0  0  0  0
 17 19  1  0  0  0  0
 19 20  1  0  0  0  0
 19 21  1  0  0  0  0
 22 23  2  0  0  0  0
 22 24  1  0  0  0  0
 24 25  1  0  0  0  0
 24 26  1  0  0  0  0
 26 27  1  0  0  0  0
 26 28  1  0  0  0  0
 26 29  1  0  0  0  0
M  END
$$$$

  -OEChem-04042215583D

 29 28  0     1  0  0  0  0  0999 V2000
   -3.2975   -3.7960    1.4397 H   0  0  0  0  0  0  0  0  0  0  0  0
   -3.3059   -2.8326    0.9222 C   0  0  0  0  0  0  0  0  0  0  0  0
   -3.9751   -2.1527    1.4551 H   0  0  0  0  0  0  0  0  0  0  0  0
   -3.6807   -2.9810   -0.0934 H   0  0  0  0  0  0  0  0  0  0  0  0
   -1.9052   -2.2520    0.8766 C   0  0  0  0  0  0  0  0  0  0  0  0
   -0.9683   -2.8836    1.3384 O   0  0  0  0  0  0  0  0  0  0  0  0
   -1.6995   -1.0060    0.3206 N   0  0  0  0  0  0  0  0  0  0  0  0
   -2.5243   -0.4802    0.0363 H   0  0  0  0  0  0  0  0  0  0  0  0
   -0.4190   -0.2842    0.3229 C   0  0  1  0  0  0  0  0  0  0  0  0
    0.2108   -0.7154    1.1080 H   0  0  0  0  0  0  0  0  0  0  0  0
    0.3056   -0.5402   -1.0191 C   0  0  0  0  0  0  0  0  0  0  0  0
    1.3799   -0.4816   -0.8117 H   0  0  0  0  0  0  0  0  0  0  0  0
    0.1069   -1.5607   -1.3651 H   0  0  0  0  0  0  0  0  0  0  0  0
   -0.0156    0.4648   -2.1509 C   0  0  0  0  0  0  0  0  0  0  0  0
   -1.0286    0.2811   -2.5189 H   0  0  0  0  0  0  0  0  0  0  0  0
    0.0251    1.4902   -1.7785 H   0  0  0  0  0  0  0  0  0  0  0  0
    0.9682    0.3980   -3.3170 C   0  0  0  0  0  0  0  0  0  0  0  0
    1.9541   -0.3154   -3.3243 O   0  0  0  0  0  0  0  0  0  0  0  0
    0.7920    1.1695   -4.4295 N   0  0  0  0  0  0  0  0  0  0  0  0
    1.5676    1.1956   -5.0850 H   0  0  0  0  0  0  0  0  0  0  0  0
    0.1105    1.9207   -4.4071 H   0  0  0  0  0  0  0  0  0  0  0  0
   -0.6050    1.1986    0.7074 C   0  0  0  0  0  0  0  0  0  0  0  0
   -1.5730    1.8243    0.2877 O   0  0  0  0  0  0  0  0  0  0  0  0
    0.2510    1.7998    1.6109 N   0  0  0  0  0  0  0  0  0  0  0  0
    1.0011    1.2327    1.9967 H   0  0  0  0  0  0  0  0  0  0  0  0
    0.0748    3.1622    2.0988 C   0  0  0  0  0  0  0  0  0  0  0  0
   -0.8959    3.2700    2.5943 H   0  0  0  0  0  0  0  0  0  0  0  0
    0.8597    3.4093    2.8199 H   0  0  0  0  0  0  0  0  0  0  0  0
    0.1293    3.8759    1.2702 H   0  0  0  0  0  0  0  0  0  0  0  0
  1  2  1  0  0  0  0
  2  3  1  0  0  0  0
  2  4  1  0  0  0  0
  2  5  1  0  0  0  0
  5  6  2  0  0  0  0
  5  7  1  0  0  0  0
  7  8  1  0  0  0  0
  7  9  1  0  0  0  0
  9 10  1  0  0  0  0
  9 11  1  0  0  0  0
  9 22  1  0  0  0  0
 11 12  1  0  0  0  0
 11 13  1  0  0  0  0
 11 14  1  0  0  0  0
 14 15  1  0  0  0  0
 14 16  1  0  0  0  0
 14 17  1  0  0  0  0
 17 18  2  0  0  0  0
 17 19  1  0  0  0  0
 19 20  1  0  0  0  0
 19 21  1  0  0  0  0
 22 23  2  0  0  0  0
 22 24  1  0  0  0  0
 24 25  1  0  0  0  0
 24 26  1  0  0  0  0
 26 27  1  0  0  0  0
 26 28  1  0  0  0  0
 26 29  1  0  0  0  0
M  END
$$$$

  -OEChem-04042215583D

 29 28  0     1  0  0  0  0  0999 V2000
   -3.3196   -3.7935    1.3469 H   0  0  0  0  0  0  0  0  0  0  0  0
   -3.3141   -2.8145    0.8594 C   0  0  0  0  0  0  0  0  0  0  0  0
   -3.9924   -2.1493    1.3991 H   0  0  0  0  0  0  0  0  0  0  0  0
   -3.6687   -2.9306   -0.1675 H   0  0  0  0  0  0  0  0  0  0  0  0
   -1.9107   -2.2376    0.8605 C   0  0  0  0  0  0  0  0  0  0  0  0
   -0.9921   -2.8700    1.3567 O   0  0  0  0  0  0  0  0  0  0  0  0
   -1.6825   -0.9921    0.3115 N   0  0  0  0  0  0  0  0  0  0  0  0
   -2.4946   -0.4637   -0.0030 H   0  0  0  0  0  0  0  0  0  0  0  0
   -0.3948   -0.2828    0.3384 C   0  0  1  0  0  0  0  0  0  0  0  0
    0.2222   -0.7207    1.1299 H   0  0  0  0  0  0  0  0  0  0  0  0
    0.3469   -0.5241   -1.0013 C   0  0  0  0  0  0  0  0  0  0  0  0
    1.3904   -0.7647   -0.7699 H   0  0  0  0  0  0  0  0  0  0  0  0
   -0.0730   -1.4038   -1.5022 H   0  0  0  0  0  0  0  0  0  0  0  0
    0.3406    0.6719   -1.9788 C   0  0  0  0  0  0  0  0  0  0  0  0
   -0.6935    0.9348   -2.2190 H   0  0  0  0  0  0  0  0  0  0  0  0
    0.8154    1.5402   -1.5140 H   0  0  0  0  0  0  0  0  0  0  0  0
    1.0822    0.3845   -3.2817 C   0  0  0  0  0  0  0  0  0  0  0  0
    1.7226   -0.6318   -3.4762 O   0  0  0  0  0  0  0  0  0  0  0  0
    1.0611    1.2764   -4.3151 N   0  0  0  0  0  0  0  0  0  0  0  0
    1.4329    0.9443   -5.2002 H   0  0  0  0  0  0  0  0  0  0  0  0
    0.3964    2.0425   -4.2914 H   0  0  0  0  0  0  0  0  0  0  0  0
   -0.5874    1.1993    0.7249 C   0  0  0  0  0  0  0  0  0  0  0  0
   -1.5303    1.8358    0.2663 O   0  0  0  0  0  0  0  0  0  0  0  0
    0.2505    1.7970    1.6478 N   0  0  0  0  0  0  0  0  0  0  0  0
    0.9719    1.2193    2.0709 H   0  0  0  0  0  0  0  0  0  0  0  0
    0.0680    3.1607    2.1291 C   0  0  0  0  0  0  0  0  0  0  0  0
   -0.8942    3.2600    2.6422 H   0  0  0  0  0  0  0  0  0  0  0  0
    0.8640    3.4232    2.8323 H   0  0  0  0  0  0  0  0  0  0  0  0
    0.0977    3.8696    1.2950 H   0  0  0  0  0  0  0  0  0  0  0  0
  1  2  1  0  0  0  0
  2  3  1  0  0  0  0
  2  4  1  0  0  0  0
  2  5  1  0  0  0  0
  5  6  2  0  0  0  0
  5  7  1  0  0  0  0
  7  8  1  0  0  0  0
  7  9  1  0  0  0  0
  9 10  1  0  0  0  0
  9 11  1  0  0  0  0
  9 22  1  0  0  0  0
 11 12  1  0  0  0  0
 11 13  1  0  0  0  0
 11 14  1  0  0  0  0
 14 15  1  0  0  0  0
 14 16  1  0  0  0  0
 14 17  1  0  0  0  0
 17 18  2  0  0  0  0
 17 19  1  0  0  0  0
 19 20  1  0  0  0  0
 19 21  1  0  0  0  0
 22 23  2  0  0  0  0
 22 24  1  0  0  0  0
 24 25  1  0  0  0  0
 24 26  1  0  0  0  0
 26 27  1  0  0  0  0
 26 28  1  0  0  0  0
 26 29  1  0  0  0  0
M  END
$$$$

  -OEChem-04042215583D

 29 28  0     1  0  0  0  0  0999 V2000
   -3.3396   -3.7738    1.2996 H   0  0  0  0  0  0  0  0  0  0  0  0
   -3.3302   -2.7856    0.8313 C   0  0  0  0  0  0  0  0  0  0  0  0
   -3.9975   -2.1248    1.3900 H   0  0  0  0  0  0  0  0  0  0  0  0
   -3.6944   -2.8792   -0.1947 H   0  0  0  0  0  0  0  0  0  0  0  0
   -1.9223   -2.2204    0.8319 C   0  0  0  0  0  0  0  0  0  0  0  0
   -1.0080   -2.8613    1.3253 O   0  0  0  0  0  0  0  0  0  0  0  0
   -1.6859   -0.9732    0.2907 N   0  0  0  0  0  0  0  0  0  0  0  0
   -2.4952   -0.4376   -0.0189 H   0  0  0  0  0  0  0  0  0  0  0  0
   -0.3954   -0.2694    0.3294 C   0  0  1  0  0  0  0  0  0  0  0  0
    0.2072   -0.7132    1.1287 H   0  0  0  0  0  0  0  0  0  0  0  0
    0.3718   -0.5154   -0.9941 C   0  0  0  0  0  0  0  0  0  0  0  0
    1.4102   -0.7717   -0.7571 H   0  0  0  0  0  0  0  0  0  0  0  0
   -0.0588   -1.3900   -1.4952 H   0  0  0  0  0  0  0  0  0  0  0  0
    0.3834    0.6794   -1.9726 C   0  0  0  0  0  0  0  0  0  0  0  0
   -0.6279    1.0868   -2.0538 H   0  0  0  0  0  0  0  0  0  0  0  0
    1.0413    1.4684   -1.5980 H   0  0  0  0  0  0  0  0  0  0  0  0
    0.8224    0.2920   -3.3821 C   0  0  0  0  0  0  0  0  0  0  0  0
    1.4172   -0.7393   -3.6338 O   0  0  0  0  0  0  0  0  0  0  0  0
    0.5702    1.1059   -4.4488 N   0  0  0  0  0  0  0  0  0  0  0  0
    0.7455    0.7078   -5.3668 H   0  0  0  0  0  0  0  0  0  0  0  0
   -0.0801    1.8768   -4.3376 H   0  0  0  0  0  0  0  0  0  0  0  0
   -0.5726    1.2137    0.7214 C   0  0  0  0  0  0  0  0  0  0  0  0
   -1.5229    1.8557    0.2861 O   0  0  0  0  0  0  0  0  0  0  0  0
    0.2691    1.7962    1.6506 N   0  0  0  0  0  0  0  0  0  0  0  0
    0.9882    1.2090    2.0647 H   0  0  0  0  0  0  0  0  0  0  0  0
    0.0842    3.1491    2.1616 C   0  0  0  0  0  0  0  0  0  0  0  0
   -0.8588    3.2244    2.7130 H   0  0  0  0  0  0  0  0  0  0  0  0
    0.9032    3.4131    2.8375 H   0  0  0  0  0  0  0  0  0  0  0  0
    0.0705    3.8720    1.3391 H   0  0  0  0  0  0  0  0  0  0  0  0
  1  2  1  0  0  0  0
  2  3  1  0  0  0  0
  2  4  1  0  0  0  0
  2  5  1  0  0  0  0
  5  6  2  0  0  0  0
  5  7  1  0  0  0  0
  7  8  1  0  0  0  0
  7  9  1  0  0  0  0
  9 10  1  0  0  0  0
  9 11  1  0  0  0  0
  9 22  1  0  0  0  0
 11 12  1  0  0  0  0
 11 13  1  0  0  0  0
 11 14  1  0  0  0  0
 14 15  1  0  0  0  0
 14 16  1  0  0  0  0
 14 17  1  0  0  0  0
 17 18  2  0  0  0  0
 17 19  1  0  0  0  0
 19 20  1  0  0  0  0
 19 21  1  0  0  0  0
 22 23  2  0  0  0  0
 22 24  1  0  0  0  0
 24 25  1  0  0  0  0
 24 26  1  0  0  0  0
 26 27  1  0  0  0  0
 26 28  1  0  0  0  0
 26 29  1  0  0  0  0
M  END
$$$$

  -OEChem-04042215583D

 29 28  0     1  0  0  0  0  0999 V2000
   -3.3591   -3.7511    1.2432 H   0  0  0  0  0  0  0  0  0  0  0  0
   -3.3450   -2.7557    0.7903 C   0  0  0  0  0  0  0  0  0  0  0  0
   -4.0111   -2.1009    1.3571 H   0  0  0  0  0  0  0  0  0  0  0  0
   -3.7078   -2.8320   -0.2376 H   0  0  0  0  0  0  0  0  0  0  0  0
   -1.9350   -2.1958    0.8025 C   0  0  0  0  0  0  0  0  0  0  0  0
   -1.0245   -2.8468    1.2896 O   0  0  0  0  0  0  0  0  0  0  0  0
   -1.6916   -0.9439    0.2749 N   0  0  0  0  0  0  0  0  0  0  0  0
   -2.4986   -0.3995   -0.0248 H   0  0  0  0  0  0  0  0  0  0  0  0
   -0.3979   -0.2463    0.3236 C   0  0  1  0  0  0  0  0  0  0  0  0
    0.1915   -0.6983    1.1285 H   0  0  0  0  0  0  0  0  0  0  0  0
    0.3891   -0.5013   -0.9879 C   0  0  0  0  0  0  0  0  0  0  0  0
    1.4214   -0.7684   -0.7381 H   0  0  0  0  0  0  0  0  0  0  0  0
   -0.0451   -1.3797   -1.4795 H   0  0  0  0  0  0  0  0  0  0  0  0
    0.4304    0.6796   -1.9871 C   0  0  0  0  0  0  0  0  0  0  0  0
   -0.4970    1.2516   -1.9201 H   0  0  0  0  0  0  0  0  0  0  0  0
    1.2599    1.3502   -1.7469 H   0  0  0  0  0  0  0  0  0  0  0  0
    0.5362    0.2272   -3.4413 C   0  0  0  0  0  0  0  0  0  0  0  0
    1.0798   -0.8098   -3.7720 O   0  0  0  0  0  0  0  0  0  0  0  0
    0.0306    0.9818   -4.4611 N   0  0  0  0  0  0  0  0  0  0  0  0
    0.0057    0.5418   -5.3763 H   0  0  0  0  0  0  0  0  0  0  0  0
   -0.5869    1.7573   -4.2448 H   0  0  0  0  0  0  0  0  0  0  0  0
   -0.5600    1.2347    0.7300 C   0  0  0  0  0  0  0  0  0  0  0  0
   -1.5163    1.8836    0.3188 O   0  0  0  0  0  0  0  0  0  0  0  0
    0.2873    1.7997    1.6651 N   0  0  0  0  0  0  0  0  0  0  0  0
    1.0056    1.2041    2.0681 H   0  0  0  0  0  0  0  0  0  0  0  0
    0.1058    3.1436    2.2003 C   0  0  0  0  0  0  0  0  0  0  0  0
   -0.8308    3.2076    2.7639 H   0  0  0  0  0  0  0  0  0  0  0  0
    0.9323    3.3988    2.8705 H   0  0  0  0  0  0  0  0  0  0  0  0
    0.0807    3.8797    1.3899 H   0  0  0  0  0  0  0  0  0  0  0  0
  1  2  1  0  0  0  0
  2  3  1  0  0  0  0
  2  4  1  0  0  0  0
  2  5  1  0  0  0  0
  5  6  2  0  0  0  0
  5  7  1  0  0  0  0
  7  8  1  0  0  0  0
  7  9  1  0  0  0  0
  9 10  1  0  0  0  0
  9 11  1  0  0  0  0
  9 22  1  0  0  0  0
 11 12  1  0  0  0  0
 11 13  1  0  0  0  0
 11 14  1  0  0  0  0
 14 15  1  0  0  0  0
 14 16  1  0  0  0  0
 14 17  1  0  0  0  0
 17 18  2  0  0  0  0
 17 19  1  0  0  0  0
 19 20  1  0  0  0  0
 19 21  1  0  0  0  0
 22 23  2  0  0  0  0
 22 24  1  0  0  0  0
 24 25  1  0  0  0  0
 24 26  1  0  0  0  0
 26 27  1  0  0  0  0
 26 28  1  0  0  0  0
 26 29  1  0  0  0  0
M  END
$$$$

  -OEChem-04042215583D

 29 28  0     1  0  0  0  0  0999 V2000
   -3.4288   -3.6606    1.0501 H   0  0  0  0  0  0  0  0  0  0  0  0
   -3.3878   -2.6435    0.6505 C   0  0  0  0  0  0  0  0  0  0  0  0
   -4.0334   -2.0013    1.2542 H   0  0  0  0  0  0  0  0  0  0  0  0
   -3.7558   -2.6550   -0.3783 H   0  0  0  0  0  0  0  0  0  0  0  0
   -1.9625   -2.1248    0.6861 C   0  0  0  0  0  0  0  0  0  0  0  0
   -1.0719   -2.8174    1.1520 O   0  0  0  0  0  0  0  0  0  0  0  0
   -1.6805   -0.8658    0.1958 N   0  0  0  0  0  0  0  0  0  0  0  0
   -2.4726   -0.2851   -0.0748 H   0  0  0  0  0  0  0  0  0  0  0  0
   -0.3725   -0.2004    0.2939 C   0  0  1  0  0  0  0  0  0  0  0  0
    0.1831   -0.6820    1.1056 H   0  0  0  0  0  0  0  0  0  0  0  0
    0.4417   -0.4579   -1.0011 C   0  0  0  0  0  0  0  0  0  0  0  0
    1.4587   -0.7464   -0.7154 H   0  0  0  0  0  0  0  0  0  0  0  0
    0.0143   -1.3312   -1.5080 H   0  0  0  0  0  0  0  0  0  0  0  0
    0.5581    0.7173   -2.0035 C   0  0  0  0  0  0  0  0  0  0  0  0
   -0.1784    1.4955   -1.8013 H   0  0  0  0  0  0  0  0  0  0  0  0
    1.5485    1.1749   -1.9291 H   0  0  0  0  0  0  0  0  0  0  0  0
    0.3223    0.2535   -3.4358 C   0  0  0  0  0  0  0  0  0  0  0  0
    1.0477   -0.5612   -3.9734 O   0  0  0  0  0  0  0  0  0  0  0  0
   -0.7567    0.6727   -4.1606 N   0  0  0  0  0  0  0  0  0  0  0  0
   -0.9398    0.1757   -5.0274 H   0  0  0  0  0  0  0  0  0  0  0  0
   -1.4945    1.1914   -3.6952 H   0  0  0  0  0  0  0  0  0  0  0  0
   -0.5190    1.2723    0.7341 C   0  0  0  0  0  0  0  0  0  0  0  0
   -1.4639    1.9390    0.3244 O   0  0  0  0  0  0  0  0  0  0  0  0
    0.3114    1.8013    1.7046 N   0  0  0  0  0  0  0  0  0  0  0  0
    1.0256    1.1930    2.0959 H   0  0  0  0  0  0  0  0  0  0  0  0
    0.1369    3.1354    2.2664 C   0  0  0  0  0  0  0  0  0  0  0  0
   -0.8218    3.2069    2.7907 H   0  0  0  0  0  0  0  0  0  0  0  0
    0.9387    3.3540    2.9783 H   0  0  0  0  0  0  0  0  0  0  0  0
    0.1635    3.8920    1.4749 H   0  0  0  0  0  0  0  0  0  0  0  0
  1  2  1  0  0  0  0
  2  3  1  0  0  0  0
  2  4  1  0  0  0  0
  2  5  1  0  0  0  0
  5  6  2  0  0  0  0
  5  7  1  0  0  0  0
  7  8  1  0  0  0  0
  7  9  1  0  0  0  0
  9 10  1  0  0  0  0
  9 11  1  0  0  0  0
  9 22  1  0  0  0  0
 11 12  1  0  0  0  0
 11 13  1  0  0  0  0
 11 14  1  0  0  0  0
 14 15  1  0  0  0  0
 14 16  1  0  0  0  0
 14 17  1  0  0  0  0
 17 18  2  0  0  0  0
 17 19  1  0  0  0  0
 19 20  1  0  0  0  0
 19 21  1  0  0  0  0
 22 23  2  0  0  0  0
 22 24  1  0  0  0  0
 24 25  1  0  0  0  0
 24 26  1  0  0  0  0
 26 27  1  0  0  0  0
 26 28  1  0  0  0  0
 26 29  1  0  0  0  0
M  END
$$$$

  -OEChem-04042215583D

 29 28  0     1  0  0  0  0  0999 V2000
   -3.4748   -3.6101    1.0730 H   0  0  0  0  0  0  0  0  0  0  0  0
   -3.4094   -2.6109    0.6331 C   0  0  0  0  0  0  0  0  0  0  0  0
   -4.0623   -1.9363    1.1921 H   0  0  0  0  0  0  0  0  0  0  0  0
   -3.7491   -2.6605   -0.4043 H   0  0  0  0  0  0  0  0  0  0  0  0
   -1.9790   -2.1086    0.6850 C   0  0  0  0  0  0  0  0  0  0  0  0
   -1.1034   -2.8053    1.1729 O   0  0  0  0  0  0  0  0  0  0  0  0
   -1.6746   -0.8596    0.1830 N   0  0  0  0  0  0  0  0  0  0  0  0
   -2.4554   -0.2734   -0.1072 H   0  0  0  0  0  0  0  0  0  0  0  0
   -0.3589   -0.2114    0.2910 C   0  0  1  0  0  0  0  0  0  0  0  0
    0.1882   -0.6910    1.1095 H   0  0  0  0  0  0  0  0  0  0  0  0
    0.4472   -0.4903   -1.0060 C   0  0  0  0  0  0  0  0  0  0  0  0
    1.4606   -0.7691   -0.6984 H   0  0  0  0  0  0  0  0  0  0  0  0
    0.0358   -1.3769   -1.5030 H   0  0  0  0  0  0  0  0  0  0  0  0
    0.5953    0.6666   -2.0280 C   0  0  0  0  0  0  0  0  0  0  0  0
    0.1365    1.5978   -1.6989 H   0  0  0  0  0  0  0  0  0  0  0  0
    1.6584    0.8765   -2.1775 H   0  0  0  0  0  0  0  0  0  0  0  0
   -0.0036    0.2912   -3.3761 C   0  0  0  0  0  0  0  0  0  0  0  0
    0.5320   -0.5091   -4.1186 O   0  0  0  0  0  0  0  0  0  0  0  0
   -1.2162    0.7772   -3.7736 N   0  0  0  0  0  0  0  0  0  0  0  0
   -1.6367    0.3413   -4.5887 H   0  0  0  0  0  0  0  0  0  0  0  0
   -1.7841    1.2933   -3.1081 H   0  0  0  0  0  0  0  0  0  0  0  0
   -0.5099    1.2657    0.7120 C   0  0  0  0  0  0  0  0  0  0  0  0
   -1.4304    1.9355    0.2531 O   0  0  0  0  0  0  0  0  0  0  0  0
    0.3027    1.8074    1.6902 N   0  0  0  0  0  0  0  0  0  0  0  0
    1.0067    1.2040    2.1064 H   0  0  0  0  0  0  0  0  0  0  0  0
    0.1517    3.1667    2.1952 C   0  0  0  0  0  0  0  0  0  0  0  0
   -0.8524    3.3145    2.6069 H   0  0  0  0  0  0  0  0  0  0  0  0
    0.8812    3.3587    2.9880 H   0  0  0  0  0  0  0  0  0  0  0  0
    0.3144    3.8935    1.3922 H   0  0  0  0  0  0  0  0  0  0  0  0
  1  2  1  0  0  0  0
  2  3  1  0  0  0  0
  2  4  1  0  0  0  0
  2  5  1  0  0  0  0
  5  6  2  0  0  0  0
  5  7  1  0  0  0  0
  7  8  1  0  0  0  0
  7  9  1  0  0  0  0
  9 10  1  0  0  0  0
  9 11  1  0  0  0  0
  9 22  1  0  0  0  0
 11 12  1  0  0  0  0
 11 13  1  0  0  0  0
 11 14  1  0  0  0  0
 14 15  1  0  0  0  0
 14 16  1  0  0  0  0
 14 17  1  0  0  0  0
 17 18  2  0  0  0  0
 17 19  1  0  0  0  0
 19 20  1  0  0  0  0
 19 21  1  0  0  0  0
 22 23  2  0  0  0  0
 22 24  1  0  0  0  0
 24 25  1  0  0  0  0
 24 26  1  0  0  0  0
 26 27  1  0  0  0  0
 26 28  1  0  0  0  0
 26 29  1  0  0  0  0
M  END
$$$$

  -OEChem-04042215583D

 29 28  0     1  0  0  0  0  0999 V2000
   -3.3016   -3.8071    1.2461 H   0  0  0  0  0  0  0  0  0  0  0  0
   -3.2912   -2.8223    0.7708 C   0  0  0  0  0  0  0  0  0  0  0  0
   -4.0501   -2.1941    1.2434 H   0  0  0  0  0  0  0  0  0  0  0  0
   -3.5332   -2.9396   -0.2885 H   0  0  0  0  0  0  0  0  0  0  0  0
   -1.9232   -2.1835    0.9186 C   0  0  0  0  0  0  0  0  0  0  0  0
   -1.0339   -2.7714    1.5152 O   0  0  0  0  0  0  0  0  0  0  0  0
   -1.6889   -0.9393    0.3717 N   0  0  0  0  0  0  0  0  0  0  0  0
   -2.4572   -0.4961   -0.1295 H   0  0  0  0  0  0  0  0  0  0  0  0
   -0.3983   -0.2376    0.3808 C   0  0  1  0  0  0  0  0  0  0  0  0
    0.2255   -0.6784    1.1652 H   0  0  0  0  0  0  0  0  0  0  0  0
    0.2984   -0.5390   -0.9729 C   0  0  0  0  0  0  0  0  0  0  0  0
    1.3470   -0.7389   -0.7296 H   0  0  0  0  0  0  0  0  0  0  0  0
   -0.0817   -1.4754   -1.3963 H   0  0  0  0  0  0  0  0  0  0  0  0
    0.3139    0.5938   -2.0360 C   0  0  0  0  0  0  0  0  0  0  0  0
    0.1567    1.5836   -1.6091 H   0  0  0  0  0  0  0  0  0  0  0  0
    1.3099    0.6100   -2.4870 H   0  0  0  0  0  0  0  0  0  0  0  0
   -0.6737    0.3790   -3.1842 C   0  0  0  0  0  0  0  0  0  0  0  0
   -1.3840   -0.6034   -3.3004 O   0  0  0  0  0  0  0  0  0  0  0  0
   -0.8503    1.3366   -4.1407 N   0  0  0  0  0  0  0  0  0  0  0  0
   -1.6688    1.2136   -4.7295 H   0  0  0  0  0  0  0  0  0  0  0  0
   -0.5027    2.2706   -3.9520 H   0  0  0  0  0  0  0  0  0  0  0  0
   -0.5628    1.2470    0.7718 C   0  0  0  0  0  0  0  0  0  0  0  0
   -1.4877    1.9107    0.3157 O   0  0  0  0  0  0  0  0  0  0  0  0
    0.3014    1.8284    1.6816 N   0  0  0  0  0  0  0  0  0  0  0  0
    0.9860    1.2232    2.1264 H   0  0  0  0  0  0  0  0  0  0  0  0
    0.1362    3.1875    2.1829 C   0  0  0  0  0  0  0  0  0  0  0  0
   -0.7948    3.2747    2.7528 H   0  0  0  0  0  0  0  0  0  0  0  0
    0.9712    3.4526    2.8386 H   0  0  0  0  0  0  0  0  0  0  0  0
    0.1101    3.9027    1.3540 H   0  0  0  0  0  0  0  0  0  0  0  0
  1  2  1  0  0  0  0
  2  3  1  0  0  0  0
  2  4  1  0  0  0  0
  2  5  1  0  0  0  0
  5  6  2  0  0  0  0
  5  7  1  0  0  0  0
  7  8  1  0  0  0  0
  7  9  1  0  0  0  0
  9 10  1  0  0  0  0
  9 11  1  0  0  0  0
  9 22  1  0  0  0  0
 11 12  1  0  0  0  0
 11 13  1  0  0  0  0
 11 14  1  0  0  0  0
 14 15  1  0  0  0  0
 14 16  1  0  0  0  0
 14 17  1  0  0  0  0
 17 18  2  0  0  0  0
 17 19  1  0  0  0  0
 19 20  1  0  0  0  0
 19 21  1  0  0  0  0
 22 23  2  0  0  0  0
 22 24  1  0  0  0  0
 24 25  1  0  0  0  0
 24 26  1  0  0  0  0
 26 27  1  0  0  0  0
 26 28  1  0  0  0  0
 26 29  1  0  0  0  0
M  END
$$$$

  -OEChem-04042215583D

 29 28  0     1  0  0  0  0  0999 V2000
   -3.3048   -3.8114    1.2083 H   0  0  0  0  0  0  0  0  0  0  0  0
   -3.2802   -2.8354    0.7160 C   0  0  0  0  0  0  0  0  0  0  0  0
   -4.0796   -2.2129    1.1250 H   0  0  0  0  0  0  0  0  0  0  0  0
   -3.4490   -2.9756   -0.3547 H   0  0  0  0  0  0  0  0  0  0  0  0
   -1.9372   -2.1677    0.9426 C   0  0  0  0  0  0  0  0  0  0  0  0
   -1.0819   -2.7235    1.6153 O   0  0  0  0  0  0  0  0  0  0  0  0
   -1.6856   -0.9366    0.3751 N   0  0  0  0  0  0  0  0  0  0  0  0
   -2.4007   -0.5584   -0.2462 H   0  0  0  0  0  0  0  0  0  0  0  0
   -0.3906   -0.2440    0.3966 C   0  0  1  0  0  0  0  0  0  0  0  0
    0.2262   -0.6788    1.1896 H   0  0  0  0  0  0  0  0  0  0  0  0
    0.2969   -0.5684   -0.9556 C   0  0  0  0  0  0  0  0  0  0  0  0
    1.3446   -0.7809   -0.7199 H   0  0  0  0  0  0  0  0  0  0  0  0
   -0.1021   -1.4945   -1.3858 H   0  0  0  0  0  0  0  0  0  0  0  0
    0.3093    0.5673   -2.0075 C   0  0  0  0  0  0  0  0  0  0  0  0
    0.4321    1.5556   -1.5618 H   0  0  0  0  0  0  0  0  0  0  0  0
    1.1761    0.4125   -2.6557 H   0  0  0  0  0  0  0  0  0  0  0  0
   -0.9213    0.5416   -2.9169 C   0  0  0  0  0  0  0  0  0  0  0  0
   -1.7597   -0.3435   -2.8961 O   0  0  0  0  0  0  0  0  0  0  0  0
   -1.1762    1.5652   -3.7829 N   0  0  0  0  0  0  0  0  0  0  0  0
   -2.1176    1.5761   -4.1644 H   0  0  0  0  0  0  0  0  0  0  0  0
   -0.6901    2.4426   -3.6320 H   0  0  0  0  0  0  0  0  0  0  0  0
   -0.5456    1.2508    0.7545 C   0  0  0  0  0  0  0  0  0  0  0  0
   -1.4196    1.9342    0.2318 O   0  0  0  0  0  0  0  0  0  0  0  0
    0.3094    1.8365    1.6701 N   0  0  0  0  0  0  0  0  0  0  0  0
    0.9558    1.2245    2.1605 H   0  0  0  0  0  0  0  0  0  0  0  0
    0.1730    3.2168    2.1193 C   0  0  0  0  0  0  0  0  0  0  0  0
   -0.8054    3.3733    2.5857 H   0  0  0  0  0  0  0  0  0  0  0  0
    0.9484    3.4535    2.8541 H   0  0  0  0  0  0  0  0  0  0  0  0
    0.2753    3.9065    1.2751 H   0  0  0  0  0  0  0  0  0  0  0  0
  1  2  1  0  0  0  0
  2  3  1  0  0  0  0
  2  4  1  0  0  0  0
  2  5  1  0  0  0  0
  5  6  2  0  0  0  0
  5  7  1  0  0  0  0
  7  8  1  0  0  0  0
  7  9  1  0  0  0  0
  9 10  1  0  0  0  0
  9 11  1  0  0  0  0
  9 22  1  0  0  0  0
 11 12  1  0  0  0  0
 11 13  1  0  0  0  0
 11 14  1  0  0  0  0
 14 15  1  0  0  0  0
 14 16  1  0  0  0  0
 14 17  1  0  0  0  0
 17 18  2  0  0  0  0
 17 19  1  0  0  0  0
 19 20  1  0  0  0  0
 19 21  1  0  0  0  0
 22 23  2  0  0  0  0
 22 24  1  0  0  0  0
 24 25  1  0  0  0  0
 24 26  1  0  0  0  0
 26 27  1  0  0  0  0
 26 28  1  0  0  0  0
 26 29  1  0  0  0  0
M  END
$$$$

  -OEChem-04042215583D

 29 28  0     1  0  0  0  0  0999 V2000
   -3.4475   -3.6394    1.2463 H   0  0  0  0  0  0  0  0  0  0  0  0
   -3.3846   -2.6983    0.6928 C   0  0  0  0  0  0  0  0  0  0  0  0
   -4.1330   -2.0068    1.0874 H   0  0  0  0  0  0  0  0  0  0  0  0
   -3.5988   -2.8944   -0.3609 H   0  0  0  0  0  0  0  0  0  0  0  0
   -1.9982   -2.0993    0.8355 C   0  0  0  0  0  0  0  0  0  0  0  0
   -1.1353   -2.6952    1.4609 O   0  0  0  0  0  0  0  0  0  0  0  0
   -1.7168   -0.8803    0.2526 N   0  0  0  0  0  0  0  0  0  0  0  0
   -2.4741   -0.4156   -0.2447 H   0  0  0  0  0  0  0  0  0  0  0  0
   -0.4156   -0.1977    0.3033 C   0  0  1  0  0  0  0  0  0  0  0  0
    0.1369   -0.6165    1.1510 H   0  0  0  0  0  0  0  0  0  0  0  0
    0.3929   -0.5780   -0.9639 C   0  0  0  0  0  0  0  0  0  0  0  0
    1.4146   -0.7978   -0.6381 H   0  0  0  0  0  0  0  0  0  0  0  0
    0.0007   -1.5066   -1.3953 H   0  0  0  0  0  0  0  0  0  0  0  0
    0.4968    0.4948   -2.0673 C   0  0  0  0  0  0  0  0  0  0  0  0
    0.7909    1.4646   -1.6582 H   0  0  0  0  0  0  0  0  0  0  0  0
    1.2755    0.1981   -2.7758 H   0  0  0  0  0  0  0  0  0  0  0  0
   -0.8092    0.6260   -2.8482 C   0  0  0  0  0  0  0  0  0  0  0  0
   -1.1869   -0.2501   -3.6033 O   0  0  0  0  0  0  0  0  0  0  0  0
   -1.6522    1.6879   -2.7053 N   0  0  0  0  0  0  0  0  0  0  0  0
   -2.5691    1.5600   -3.1203 H   0  0  0  0  0  0  0  0  0  0  0  0
   -1.5794    2.2067   -1.8277 H   0  0  0  0  0  0  0  0  0  0  0  0
   -0.5258    1.3091    0.6247 C   0  0  0  0  0  0  0  0  0  0  0  0
   -1.3953    1.9987    0.1033 O   0  0  0  0  0  0  0  0  0  0  0  0
    0.3242    1.8869    1.5491 N   0  0  0  0  0  0  0  0  0  0  0  0
    0.9718    1.2736    2.0371 H   0  0  0  0  0  0  0  0  0  0  0  0
    0.2171    3.2763    1.9784 C   0  0  0  0  0  0  0  0  0  0  0  0
   -0.7577    3.4596    2.4428 H   0  0  0  0  0  0  0  0  0  0  0  0
    0.9979    3.5070    2.7098 H   0  0  0  0  0  0  0  0  0  0  0  0
    0.3341    3.9523    1.1248 H   0  0  0  0  0  0  0  0  0  0  0  0
  1  2  1  0  0  0  0
  2  3  1  0  0  0  0
  2  4  1  0  0  0  0
  2  5  1  0  0  0  0
  5  6  2  0  0  0  0
  5  7  1  0  0  0  0
  7  8  1  0  0  0  0
  7  9  1  0  0  0  0
  9 10  1  0  0  0  0
  9 11  1  0  0  0  0
  9 22  1  0  0  0  0
 11 12  1  0  0  0  0
 11 13  1  0  0  0  0
 11 14  1  0  0  0  0
 14 15  1  0  0  0  0
 14 16  1  0  0  0  0
 14 17  1  0  0  0  0
 17 18  2  0  0  0  0
 17 19  1  0  0  0  0
 19 20  1  0  0  0  0
 19 21  1  0  0  0  0
 22 23  2  0  0  0  0
 22 24  1  0  0  0  0
 24 25  1  0  0  0  0
 24 26  1  0  0  0  0
 26 27  1  0  0  0  0
 26 28  1  0  0  0  0
 26 29  1  0  0  0  0
M  END
$$$$

  -OEChem-04042215583D

 29 28  0     1  0  0  0  0  0999 V2000
   -3.3048   -3.8146    1.2176 H   0  0  0  0  0  0  0  0  0  0  0  0
   -3.3005   -2.8425    0.7170 C   0  0  0  0  0  0  0  0  0  0  0  0
   -4.1149   -2.2343    1.1181 H   0  0  0  0  0  0  0  0  0  0  0  0
   -3.4630   -2.9958   -0.3529 H   0  0  0  0  0  0  0  0  0  0  0  0
   -1.9741   -2.1424    0.9428 C   0  0  0  0  0  0  0  0  0  0  0  0
   -1.1109   -2.6728    1.6259 O   0  0  0  0  0  0  0  0  0  0  0  0
   -1.7449   -0.9152    0.3566 N   0  0  0  0  0  0  0  0  0  0  0  0
   -2.4558   -0.5770   -0.2937 H   0  0  0  0  0  0  0  0  0  0  0  0
   -0.4632   -0.1978    0.3607 C   0  0  1  0  0  0  0  0  0  0  0  0
    0.1252   -0.6082    1.1876 H   0  0  0  0  0  0  0  0  0  0  0  0
    0.3069   -0.5785   -0.9303 C   0  0  0  0  0  0  0  0  0  0  0  0
    1.3452   -0.7833   -0.6504 H   0  0  0  0  0  0  0  0  0  0  0  0
   -0.0945   -1.5132   -1.3389 H   0  0  0  0  0  0  0  0  0  0  0  0
    0.3331    0.4884   -2.0441 C   0  0  0  0  0  0  0  0  0  0  0  0
    0.8325    1.3913   -1.6831 H   0  0  0  0  0  0  0  0  0  0  0  0
    0.9085    0.1122   -2.8943 H   0  0  0  0  0  0  0  0  0  0  0  0
   -1.0723    0.8479   -2.5353 C   0  0  0  0  0  0  0  0  0  0  0  0
   -1.9523    0.0104   -2.6463 O   0  0  0  0  0  0  0  0  0  0  0  0
   -1.4222    2.1264   -2.8589 N   0  0  0  0  0  0  0  0  0  0  0  0
   -2.4256    2.2648   -2.9313 H   0  0  0  0  0  0  0  0  0  0  0  0
   -0.8713    2.8612   -2.4274 H   0  0  0  0  0  0  0  0  0  0  0  0
   -0.5596    1.3103    0.6894 C   0  0  0  0  0  0  0  0  0  0  0  0
   -1.4276    2.0222    0.1999 O   0  0  0  0  0  0  0  0  0  0  0  0
    0.3362    1.8761    1.5787 N   0  0  0  0  0  0  0  0  0  0  0  0
    0.9717    1.2462    2.0610 H   0  0  0  0  0  0  0  0  0  0  0  0
    0.2506    3.2612    2.0271 C   0  0  0  0  0  0  0  0  0  0  0  0
   -0.6924    3.4344    2.5562 H   0  0  0  0  0  0  0  0  0  0  0  0
    1.0770    3.4908    2.7067 H   0  0  0  0  0  0  0  0  0  0  0  0
    0.3068    3.9455    1.1740 H   0  0  0  0  0  0  0  0  0  0  0  0
  1  2  1  0  0  0  0
  2  3  1  0  0  0  0
  2  4  1  0  0  0  0
  2  5  1  0  0  0  0
  5  6  2  0  0  0  0
  5  7  1  0  0  0  0
  7  8  1  0  0  0  0
  7  9  1  0  0  0  0
  9 10  1  0  0  0  0
  9 11  1  0  0  0  0
  9 22  1  0  0  0  0
 11 12  1  0  0  0  0
 11 13  1  0  0  0  0
 11 14  1  0  0  0  0
 14 15  1  0  0  0  0
 14 16  1  0  0  0  0
 14 17  1  0  0  0  0
 17 18  2  0  0  0  0
 17 19  1  0  0  0  0
 19 20  1  0  0  0  0
 19 21  1  0  0  0  0
 22 23  2  0  0  0  0
 22 24  1  0  0  0  0
 24 25  1  0  0  0  0
 24 26  1  0  0  0  0
 26 27  1  0  0  0  0
 26 28  1  0  0  0  0
 26 29  1  0  0  0  0
M  END
$$$$

  -OEChem-04042215583D

 29 28  0     1  0  0  0  0  0999 V2000
   -3.2606   -3.8331    1.3068 H   0  0  0  0  0  0  0  0  0  0  0  0
   -3.2863   -2.8606    0.8076 C   0  0  0  0  0  0  0  0  0  0  0  0
   -4.0735   -2.2526    1.2597 H   0  0  0  0  0  0  0  0  0  0  0  0
   -3.5159   -3.0124   -0.2501 H   0  0  0  0  0  0  0  0  0  0  0  0
   -1.9470   -2.1626    0.9500 C   0  0  0  0  0  0  0  0  0  0  0  0
   -1.0311   -2.7116    1.5441 O   0  0  0  0  0  0  0  0  0  0  0  0
   -1.7658   -0.9166    0.3867 N   0  0  0  0  0  0  0  0  0  0  0  0
   -2.5308   -0.5477   -0.1805 H   0  0  0  0  0  0  0  0  0  0  0  0
   -0.5021   -0.1696    0.3455 C   0  0  1  0  0  0  0  0  0  0  0  0
    0.1010   -0.5765    1.1633 H   0  0  0  0  0  0  0  0  0  0  0  0
    0.2837   -0.5453   -0.9389 C   0  0  0  0  0  0  0  0  0  0  0  0
    1.3244   -0.7350   -0.6577 H   0  0  0  0  0  0  0  0  0  0  0  0
   -0.1110   -1.4920   -1.3246 H   0  0  0  0  0  0  0  0  0  0  0  0
    0.2948    0.4758   -2.0981 C   0  0  0  0  0  0  0  0  0  0  0  0
    0.9705    1.2953   -1.8387 H   0  0  0  0  0  0  0  0  0  0  0  0
    0.6842    0.0005   -3.0027 H   0  0  0  0  0  0  0  0  0  0  0  0
   -1.0800    1.0694   -2.4090 C   0  0  0  0  0  0  0  0  0  0  0  0
   -2.0705    0.3626   -2.4877 O   0  0  0  0  0  0  0  0  0  0  0  0
   -1.2658    2.4002   -2.6475 N   0  0  0  0  0  0  0  0  0  0  0  0
   -2.2387    2.6872   -2.5891 H   0  0  0  0  0  0  0  0  0  0  0  0
   -0.5610    3.0288   -2.2793 H   0  0  0  0  0  0  0  0  0  0  0  0
   -0.5919    1.3305    0.7129 C   0  0  0  0  0  0  0  0  0  0  0  0
   -1.5324    2.0287    0.3581 O   0  0  0  0  0  0  0  0  0  0  0  0
    0.3484    1.8815    1.5657 N   0  0  0  0  0  0  0  0  0  0  0  0
    1.0379    1.2509    1.9655 H   0  0  0  0  0  0  0  0  0  0  0  0
    0.2530    3.2374    2.0947 C   0  0  0  0  0  0  0  0  0  0  0  0
   -0.6645    3.3568    2.6807 H   0  0  0  0  0  0  0  0  0  0  0  0
    1.1080    3.4513    2.7432 H   0  0  0  0  0  0  0  0  0  0  0  0
    0.2480    3.9680    1.2791 H   0  0  0  0  0  0  0  0  0  0  0  0
  1  2  1  0  0  0  0
  2  3  1  0  0  0  0
  2  4  1  0  0  0  0
  2  5  1  0  0  0  0
  5  6  2  0  0  0  0
  5  7  1  0  0  0  0
  7  8  1  0  0  0  0
  7  9  1  0  0  0  0
  9 10  1  0  0  0  0
  9 11  1  0  0  0  0
  9 22  1  0  0  0  0
 11 12  1  0  0  0  0
 11 13  1  0  0  0  0
 11 14  1  0  0  0  0
 14 15  1  0  0  0  0
 14 16  1  0  0  0  0
 14 17  1  0  0  0  0
 17 18  2  0  0  0  0
 17 19  1  0  0  0  0
 19 20  1  0  0  0  0
 19 21  1  0  0  0  0
 22 23  2  0  0  0  0
 22 24  1  0  0  0  0
 24 25  1  0  0  0  0
 24 26  1  0  0  0  0
 26 27  1  0  0  0  0
 26 28  1  0  0  0  0
 26 29  1  0  0  0  0
M  END
$$$$

  -OEChem-04042215583D

 29 28  0     1  0  0  0  0  0999 V2000
   -3.1995   -3.8434    1.4018 H   0  0  0  0  0  0  0  0  0  0  0  0
   -3.2632   -2.8640    0.9197 C   0  0  0  0  0  0  0  0  0  0  0  0
   -3.9956   -2.2548    1.4547 H   0  0  0  0  0  0  0  0  0  0  0  0
   -3.5970   -2.9991   -0.1120 H   0  0  0  0  0  0  0  0  0  0  0  0
   -1.9089   -2.1808    0.9384 C   0  0  0  0  0  0  0  0  0  0  0  0
   -0.9407   -2.7534    1.4158 O   0  0  0  0  0  0  0  0  0  0  0  0
   -1.7739   -0.9187    0.3983 N   0  0  0  0  0  0  0  0  0  0  0  0
   -2.6006   -0.5002   -0.0293 H   0  0  0  0  0  0  0  0  0  0  0  0
   -0.5275   -0.1469    0.3151 C   0  0  1  0  0  0  0  0  0  0  0  0
    0.0941   -0.5494    1.1215 H   0  0  0  0  0  0  0  0  0  0  0  0
    0.2635   -0.5155   -0.9699 C   0  0  0  0  0  0  0  0  0  0  0  0
    1.3068   -0.6895   -0.6868 H   0  0  0  0  0  0  0  0  0  0  0  0
   -0.1201   -1.4765   -1.3306 H   0  0  0  0  0  0  0  0  0  0  0  0
    0.2690    0.4580   -2.1735 C   0  0  0  0  0  0  0  0  0  0  0  0
    1.1125    1.1431   -2.0541 H   0  0  0  0  0  0  0  0  0  0  0  0
    0.4374   -0.1053   -3.0956 H   0  0  0  0  0  0  0  0  0  0  0  0
   -0.9886    1.3050   -2.3434 C   0  0  0  0  0  0  0  0  0  0  0  0
   -2.0757    0.7756   -2.4890 O   0  0  0  0  0  0  0  0  0  0  0  0
   -0.9613    2.6695   -2.3806 N   0  0  0  0  0  0  0  0  0  0  0  0
   -1.8724    3.0934   -2.2258 H   0  0  0  0  0  0  0  0  0  0  0  0
   -0.1470    3.1256   -1.9865 H   0  0  0  0  0  0  0  0  0  0  0  0
   -0.6300    1.3412    0.7227 C   0  0  0  0  0  0  0  0  0  0  0  0
   -1.6361    1.9999    0.4960 O   0  0  0  0  0  0  0  0  0  0  0  0
    0.3392    1.8921    1.5430 N   0  0  0  0  0  0  0  0  0  0  0  0
    1.0753    1.2723    1.8699 H   0  0  0  0  0  0  0  0  0  0  0  0
    0.2083    3.2052    2.1647 C   0  0  0  0  0  0  0  0  0  0  0  0
   -0.6511    3.2241    2.8433 H   0  0  0  0  0  0  0  0  0  0  0  0
    1.1090    3.4425    2.7391 H   0  0  0  0  0  0  0  0  0  0  0  0
    0.0725    3.9798    1.4027 H   0  0  0  0  0  0  0  0  0  0  0  0
  1  2  1  0  0  0  0
  2  3  1  0  0  0  0
  2  4  1  0  0  0  0
  2  5  1  0  0  0  0
  5  6  2  0  0  0  0
  5  7  1  0  0  0  0
  7  8  1  0  0  0  0
  7  9  1  0  0  0  0
  9 10  1  0  0  0  0
  9 11  1  0  0  0  0
  9 22  1  0  0  0  0
 11 12  1  0  0  0  0
 11 13  1  0  0  0  0
 11 14  1  0  0  0  0
 14 15  1  0  0  0  0
 14 16  1  0  0  0  0
 14 17  1  0  0  0  0
 17 18  2  0  0  0  0
 17 19  1  0  0  0  0
 19 20  1  0  0  0  0
 19 21  1  0  0  0  0
 22 23  2  0  0  0  0
 22 24  1  0  0  0  0
 24 25  1  0  0  0  0
 24 26  1  0  0  0  0
 26 27  1  0  0  0  0
 26 28  1  0  0  0  0
 26 29  1  0  0  0  0
M  END
$$$$

  -OEChem-04042215583D

 29 28  0     1  0  0  0  0  0999 V2000
   -3.1014   -3.8081    1.6682 H   0  0  0  0  0  0  0  0  0  0  0  0
   -3.2054   -2.8464    1.1581 C   0  0  0  0  0  0  0  0  0  0  0  0
   -3.8937   -2.2176    1.7280 H   0  0  0  0  0  0  0  0  0  0  0  0
   -3.6199   -3.0181    0.1617 H   0  0  0  0  0  0  0  0  0  0  0  0
   -1.8549   -2.1648    1.0456 C   0  0  0  0  0  0  0  0  0  0  0  0
   -0.8520   -2.7192    1.4695 O   0  0  0  0  0  0  0  0  0  0  0  0
   -1.7629   -0.9214    0.4547 N   0  0  0  0  0  0  0  0  0  0  0  0
   -2.6288   -0.4876    0.1342 H   0  0  0  0  0  0  0  0  0  0  0  0
   -0.5357   -0.1244    0.3252 C   0  0  1  0  0  0  0  0  0  0  0  0
    0.1007   -0.4737    1.1450 H   0  0  0  0  0  0  0  0  0  0  0  0
    0.2644   -0.5305   -0.9452 C   0  0  0  0  0  0  0  0  0  0  0  0
    1.3084   -0.6629   -0.6427 H   0  0  0  0  0  0  0  0  0  0  0  0
   -0.0878   -1.5233   -1.2467 H   0  0  0  0  0  0  0  0  0  0  0  0
    0.2786    0.3516   -2.2225 C   0  0  0  0  0  0  0  0  0  0  0  0
    1.2538    0.8419   -2.2835 H   0  0  0  0  0  0  0  0  0  0  0  0
    0.1986   -0.2998   -3.0978 H   0  0  0  0  0  0  0  0  0  0  0  0
   -0.7776    1.4413   -2.3567 C   0  0  0  0  0  0  0  0  0  0  0  0
   -1.9136    1.1596   -2.6870 O   0  0  0  0  0  0  0  0  0  0  0  0
   -0.4949    2.7687   -2.2009 N   0  0  0  0  0  0  0  0  0  0  0  0
   -1.3218    3.3476   -2.0762 H   0  0  0  0  0  0  0  0  0  0  0  0
    0.3496    3.0124   -1.6972 H   0  0  0  0  0  0  0  0  0  0  0  0
   -0.6958    1.3694    0.6828 C   0  0  0  0  0  0  0  0  0  0  0  0
   -1.7478    1.9581    0.4736 O   0  0  0  0  0  0  0  0  0  0  0  0
    0.2552    1.9902    1.4738 N   0  0  0  0  0  0  0  0  0  0  0  0
    1.0236    1.4154    1.8086 H   0  0  0  0  0  0  0  0  0  0  0  0
    0.0554    3.3026    2.0786 C   0  0  0  0  0  0  0  0  0  0  0  0
   -0.7820    3.2755    2.7838 H   0  0  0  0  0  0  0  0  0  0  0  0
    0.9554    3.6101    2.6199 H   0  0  0  0  0  0  0  0  0  0  0  0
   -0.1561    4.0530    1.3096 H   0  0  0  0  0  0  0  0  0  0  0  0
  1  2  1  0  0  0  0
  2  3  1  0  0  0  0
  2  4  1  0  0  0  0
  2  5  1  0  0  0  0
  5  6  2  0  0  0  0
  5  7  1  0  0  0  0
  7  8  1  0  0  0  0
  7  9  1  0  0  0  0
  9 10  1  0  0  0  0
  9 11  1  0  0  0  0
  9 22  1  0  0  0  0
 11 12  1  0  0  0  0
 11 13  1  0  0  0  0
 11 14  1  0  0  0  0
 14 15  1  0  0  0  0
 14 16  1  0  0  0  0
 14 17  1  0  0  0  0
 17 18  2  0  0  0  0
 17 19  1  0  0  0  0
 19 20  1  0  0  0  0
 19 21  1  0  0  0  0
 22 23  2  0  0  0  0
 22 24  1  0  0  0  0
 24 25  1  0  0  0  0
 24 26  1  0  0  0  0
 26 27  1  0  0  0  0
 26 28  1  0  0  0  0
 26 29  1  0  0  0  0
M  END
$$$$

  -OEChem-04042215583D

 29 28  0     1  0  0  0  0  0999 V2000
   -3.6416   -3.4802    1.1721 H   0  0  0  0  0  0  0  0  0  0  0  0
   -3.5482   -2.5024    0.6914 C   0  0  0  0  0  0  0  0  0  0  0  0
   -4.1719   -1.7851    1.2304 H   0  0  0  0  0  0  0  0  0  0  0  0
   -3.9022   -2.5805   -0.3392 H   0  0  0  0  0  0  0  0  0  0  0  0
   -2.1007   -2.0483    0.7089 C   0  0  0  0  0  0  0  0  0  0  0  0
   -1.2325   -2.7887    1.1434 O   0  0  0  0  0  0  0  0  0  0  0  0
   -1.7676   -0.8002    0.2230 N   0  0  0  0  0  0  0  0  0  0  0  0
   -2.5446   -0.1728    0.0169 H   0  0  0  0  0  0  0  0  0  0  0  0
   -0.4609   -0.1549    0.4283 C   0  0  1  0  0  0  0  0  0  0  0  0
   -0.0271   -0.6097    1.3258 H   0  0  0  0  0  0  0  0  0  0  0  0
    0.5126   -0.5362   -0.7272 C   0  0  0  0  0  0  0  0  0  0  0  0
    1.4553   -0.8057   -0.2389 H   0  0  0  0  0  0  0  0  0  0  0  0
    0.1446   -1.4610   -1.1847 H   0  0  0  0  0  0  0  0  0  0  0  0
    0.9035    0.4301   -1.8824 C   0  0  0  0  0  0  0  0  0  0  0  0
    1.9933    0.5310   -1.8859 H   0  0  0  0  0  0  0  0  0  0  0  0
    0.6340   -0.0496   -2.8274 H   0  0  0  0  0  0  0  0  0  0  0  0
    0.3246    1.8368   -1.9211 C   0  0  0  0  0  0  0  0  0  0  0  0
    0.9560    2.7806   -1.4838 O   0  0  0  0  0  0  0  0  0  0  0  0
   -0.8908    2.1088   -2.4787 N   0  0  0  0  0  0  0  0  0  0  0  0
   -1.5287    1.3289   -2.5865 H   0  0  0  0  0  0  0  0  0  0  0  0
   -1.2729    3.0087   -2.1997 H   0  0  0  0  0  0  0  0  0  0  0  0
   -0.6479    1.3243    0.8325 C   0  0  0  0  0  0  0  0  0  0  0  0
   -1.6454    1.9211    0.4347 O   0  0  0  0  0  0  0  0  0  0  0  0
    0.0879    1.8705    1.8671 N   0  0  0  0  0  0  0  0  0  0  0  0
    0.9189    1.3659    2.1609 H   0  0  0  0  0  0  0  0  0  0  0  0
   -0.0635    3.2582    2.2876 C   0  0  0  0  0  0  0  0  0  0  0  0
   -1.0791    3.4403    2.6544 H   0  0  0  0  0  0  0  0  0  0  0  0
    0.6399    3.4882    3.0935 H   0  0  0  0  0  0  0  0  0  0  0  0
    0.1364    3.9347    1.4494 H   0  0  0  0  0  0  0  0  0  0  0  0
  1  2  1  0  0  0  0
  2  3  1  0  0  0  0
  2  4  1  0  0  0  0
  2  5  1  0  0  0  0
  5  6  2  0  0  0  0
  5  7  1  0  0  0  0
  7  8  1  0  0  0  0
  7  9  1  0  0  0  0
  9 10  1  0  0  0  0
  9 11  1  0  0  0  0
  9 22  1  0  0  0  0
 11 12  1  0  0  0  0
 11 13  1  0  0  0  0
 11 14  1  0  0  0  0
 14 15  1  0  0  0  0
 14 16  1  0  0  0  0
 14 17  1  0  0  0  0
 17 18  2  0  0  0  0
 17 19  1  0  0  0  0
 19 20  1  0  0  0  0
 19 21  1  0  0  0  0
 22 23  2  0  0  0  0
 22 24  1  0  0  0  0
 24 25  1  0  0  0  0
 24 26  1  0  0  0  0
 26 27  1  0  0  0  0
 26 28  1  0  0  0  0
 26 29  1  0  0  0  0
M  END
$$$$

  -OEChem-04042215583D

 29 28  0     1  0  0  0  0  0999 V2000
   -3.4090   -3.7505    0.8272 H   0  0  0  0  0  0  0  0  0  0  0  0
   -3.3730   -2.7225    0.4557 C   0  0  0  0  0  0  0  0  0  0  0  0
   -4.0194   -2.1005    1.0796 H   0  0  0  0  0  0  0  0  0  0  0  0
   -3.7437   -2.7058   -0.5720 H   0  0  0  0  0  0  0  0  0  0  0  0
   -1.9495   -2.1999    0.5012 C   0  0  0  0  0  0  0  0  0  0  0  0
   -1.0396   -2.9348    0.8515 O   0  0  0  0  0  0  0  0  0  0  0  0
   -1.6855   -0.8958    0.1345 N   0  0  0  0  0  0  0  0  0  0  0  0
   -2.4928   -0.2912   -0.0155 H   0  0  0  0  0  0  0  0  0  0  0  0
   -0.4007   -0.2148    0.3614 C   0  0  1  0  0  0  0  0  0  0  0  0
    0.1017   -0.7363    1.1838 H   0  0  0  0  0  0  0  0  0  0  0  0
    0.5115   -0.4190   -0.8869 C   0  0  0  0  0  0  0  0  0  0  0  0
    1.4933   -0.6719   -0.4723 H   0  0  0  0  0  0  0  0  0  0  0  0
    0.1768   -1.3155   -1.4202 H   0  0  0  0  0  0  0  0  0  0  0  0
    0.8008    0.6833   -1.9465 C   0  0  0  0  0  0  0  0  0  0  0  0
    1.8585    0.6310   -2.2221 H   0  0  0  0  0  0  0  0  0  0  0  0
    0.2322    0.4274   -2.8448 H   0  0  0  0  0  0  0  0  0  0  0  0
    0.4782    2.1376   -1.6335 C   0  0  0  0  0  0  0  0  0  0  0  0
    1.2439    2.8122   -0.9704 O   0  0  0  0  0  0  0  0  0  0  0  0
   -0.6518    2.7541   -2.0862 N   0  0  0  0  0  0  0  0  0  0  0  0
   -0.8686    3.6169   -1.5950 H   0  0  0  0  0  0  0  0  0  0  0  0
   -1.4224    2.1508   -2.3509 H   0  0  0  0  0  0  0  0  0  0  0  0
   -0.6562    1.2026    0.9184 C   0  0  0  0  0  0  0  0  0  0  0  0
   -1.6718    1.8014    0.5711 O   0  0  0  0  0  0  0  0  0  0  0  0
    0.0807    1.6866    1.9826 N   0  0  0  0  0  0  0  0  0  0  0  0
    0.9496    1.2045    2.1937 H   0  0  0  0  0  0  0  0  0  0  0  0
   -0.1018    3.0329    2.5108 C   0  0  0  0  0  0  0  0  0  0  0  0
   -1.1256    3.1692    2.8746 H   0  0  0  0  0  0  0  0  0  0  0  0
    0.5851    3.2075    3.3445 H   0  0  0  0  0  0  0  0  0  0  0  0
    0.0997    3.7778    1.7334 H   0  0  0  0  0  0  0  0  0  0  0  0
  1  2  1  0  0  0  0
  2  3  1  0  0  0  0
  2  4  1  0  0  0  0
  2  5  1  0  0  0  0
  5  6  2  0  0  0  0
  5  7  1  0  0  0  0
  7  8  1  0  0  0  0
  7  9  1  0  0  0  0
  9 10  1  0  0  0  0
  9 11  1  0  0  0  0
  9 22  1  0  0  0  0
 11 12  1  0  0  0  0
 11 13  1  0  0  0  0
 11 14  1  0  0  0  0
 14 15  1  0  0  0  0
 14 16  1  0  0  0  0
 14 17  1  0  0  0  0
 17 18  2  0  0  0  0
 17 19  1  0  0  0  0
 19 20  1  0  0  0  0
 19 21  1  0  0  0  0
 22 23  2  0  0  0  0
 22 24  1  0  0  0  0
 24 25  1  0  0  0  0
 24 26  1  0  0  0  0
 26 27  1  0  0  0  0
 26 28  1  0  0  0  0
 26 29  1  0  0  0  0
M  END
$$$$

  -OEChem-04042215583D

 29 28  0     1  0  0  0  0  0999 V2000
   -3.3507   -3.7538    1.0981 H   0  0  0  0  0  0  0  0  0  0  0  0
   -3.3236   -2.7503    0.6641 C   0  0  0  0  0  0  0  0  0  0  0  0
   -3.9590   -2.0916    1.2612 H   0  0  0  0  0  0  0  0  0  0  0  0
   -3.7138   -2.7960   -0.3555 H   0  0  0  0  0  0  0  0  0  0  0  0
   -1.9005   -2.2251    0.6497 C   0  0  0  0  0  0  0  0  0  0  0  0
   -0.9802   -2.9412    1.0108 O   0  0  0  0  0  0  0  0  0  0  0  0
   -1.6502   -0.9399    0.2146 N   0  0  0  0  0  0  0  0  0  0  0  0
   -2.4615   -0.3454    0.0470 H   0  0  0  0  0  0  0  0  0  0  0  0
   -0.3572   -0.2515    0.3556 C   0  0  1  0  0  0  0  0  0  0  0  0
    0.2019   -0.7388    1.1619 H   0  0  0  0  0  0  0  0  0  0  0  0
    0.4612   -0.4795   -0.9517 C   0  0  0  0  0  0  0  0  0  0  0  0
    1.4723   -0.7209   -0.6067 H   0  0  0  0  0  0  0  0  0  0  0  0
    0.0917   -1.3828   -1.4496 H   0  0  0  0  0  0  0  0  0  0  0  0
    0.6631    0.6161   -2.0349 C   0  0  0  0  0  0  0  0  0  0  0  0
    1.5878    0.4050   -2.5798 H   0  0  0  0  0  0  0  0  0  0  0  0
   -0.1565    0.5168   -2.7517 H   0  0  0  0  0  0  0  0  0  0  0  0
    0.6957    2.0782   -1.6078 C   0  0  0  0  0  0  0  0  0  0  0  0
    1.6135    2.5054   -0.9321 O   0  0  0  0  0  0  0  0  0  0  0  0
   -0.2803    2.9701   -1.9453 N   0  0  0  0  0  0  0  0  0  0  0  0
   -0.2513    3.8311   -1.4075 H   0  0  0  0  0  0  0  0  0  0  0  0
   -1.1901    2.5784   -2.1660 H   0  0  0  0  0  0  0  0  0  0  0  0
   -0.6143    1.1849    0.8586 C   0  0  0  0  0  0  0  0  0  0  0  0
   -1.6192    1.7794    0.4738 O   0  0  0  0  0  0  0  0  0  0  0  0
    0.1508    1.7289    1.8725 N   0  0  0  0  0  0  0  0  0  0  0  0
    1.0320    1.2649    2.0753 H   0  0  0  0  0  0  0  0  0  0  0  0
   -0.0216    3.1007    2.3335 C   0  0  0  0  0  0  0  0  0  0  0  0
   -1.0415    3.2592    2.6989 H   0  0  0  0  0  0  0  0  0  0  0  0
    0.6725    3.3142    3.1520 H   0  0  0  0  0  0  0  0  0  0  0  0
    0.1757    3.8047    1.5181 H   0  0  0  0  0  0  0  0  0  0  0  0
  1  2  1  0  0  0  0
  2  3  1  0  0  0  0
  2  4  1  0  0  0  0
  2  5  1  0  0  0  0
  5  6  2  0  0  0  0
  5  7  1  0  0  0  0
  7  8  1  0  0  0  0
  7  9  1  0  0  0  0
  9 10  1  0  0  0  0
  9 11  1  0  0  0  0
  9 22  1  0  0  0  0
 11 12  1  0  0  0  0
 11 13  1  0  0  0  0
 11 14  1  0  0  0  0
 14 15  1  0  0  0  0
 14 16  1  0  0  0  0
 14 17  1  0  0  0  0
 17 18  2  0  0  0  0
 17 19  1  0  0  0  0
 19 20  1  0  0  0  0
 19 21  1  0  0  0  0
 22 23  2  0  0  0  0
 22 24  1  0  0  0  0
 24 25  1  0  0  0  0
 24 26  1  0  0  0  0
 26 27  1  0  0  0  0
 26 28  1  0  0  0  0
 26 29  1  0  0  0  0
M  END
$$$$

  -OEChem-04042215583D

 29 28  0     1  0  0  0  0  0999 V2000
   -3.4211   -3.6814    1.2683 H   0  0  0  0  0  0  0  0  0  0  0  0
   -3.3709   -2.7019    0.7844 C   0  0  0  0  0  0  0  0  0  0  0  0
   -4.0065   -2.0046    1.3356 H   0  0  0  0  0  0  0  0  0  0  0  0
   -3.7437   -2.7942   -0.2386 H   0  0  0  0  0  0  0  0  0  0  0  0
   -1.9398   -2.1984    0.7701 C   0  0  0  0  0  0  0  0  0  0  0  0
   -1.0418   -2.8974    1.2116 O   0  0  0  0  0  0  0  0  0  0  0  0
   -1.6579   -0.9512    0.2516 N   0  0  0  0  0  0  0  0  0  0  0  0
   -2.4528   -0.3636    0.0027 H   0  0  0  0  0  0  0  0  0  0  0  0
   -0.3532   -0.2790    0.3580 C   0  0  1  0  0  0  0  0  0  0  0  0
    0.2069   -0.7258    1.1867 H   0  0  0  0  0  0  0  0  0  0  0  0
    0.4451   -0.5753   -0.9467 C   0  0  0  0  0  0  0  0  0  0  0  0
    1.4580   -0.8348   -0.6197 H   0  0  0  0  0  0  0  0  0  0  0  0
    0.0382   -1.4760   -1.4190 H   0  0  0  0  0  0  0  0  0  0  0  0
    0.6264    0.5040   -2.0449 C   0  0  0  0  0  0  0  0  0  0  0  0
    1.3804    0.1603   -2.7585 H   0  0  0  0  0  0  0  0  0  0  0  0
   -0.3190    0.5874   -2.5880 H   0  0  0  0  0  0  0  0  0  0  0  0
    1.0174    1.9052   -1.5861 C   0  0  0  0  0  0  0  0  0  0  0  0
    2.0086    2.0868   -0.9028 O   0  0  0  0  0  0  0  0  0  0  0  0
    0.2633    3.0079   -1.8641 N   0  0  0  0  0  0  0  0  0  0  0  0
    0.5126    3.8269   -1.3186 H   0  0  0  0  0  0  0  0  0  0  0  0
   -0.7206    2.8409   -2.0548 H   0  0  0  0  0  0  0  0  0  0  0  0
   -0.5963    1.1913    0.7590 C   0  0  0  0  0  0  0  0  0  0  0  0
   -1.5483    1.7977    0.2718 O   0  0  0  0  0  0  0  0  0  0  0  0
    0.1649    1.7920    1.7431 N   0  0  0  0  0  0  0  0  0  0  0  0
    1.0241    1.3169    2.0081 H   0  0  0  0  0  0  0  0  0  0  0  0
    0.0073    3.1901    2.1217 C   0  0  0  0  0  0  0  0  0  0  0  0
   -1.0197    3.3872    2.4468 H   0  0  0  0  0  0  0  0  0  0  0  0
    0.6812    3.4353    2.9481 H   0  0  0  0  0  0  0  0  0  0  0  0
    0.2426    3.8442    1.2760 H   0  0  0  0  0  0  0  0  0  0  0  0
  1  2  1  0  0  0  0
  2  3  1  0  0  0  0
  2  4  1  0  0  0  0
  2  5  1  0  0  0  0
  5  6  2  0  0  0  0
  5  7  1  0  0  0  0
  7  8  1  0  0  0  0
  7  9  1  0  0  0  0
  9 10  1  0  0  0  0
  9 11  1  0  0  0  0
  9 22  1  0  0  0  0
 11 12  1  0  0  0  0
 11 13  1  0  0  0  0
 11 14  1  0  0  0  0
 14 15  1  0  0  0  0
 14 16  1  0  0  0  0
 14 17  1  0  0  0  0
 17 18  2  0  0  0  0
 17 19  1  0  0  0  0
 19 20  1  0  0  0  0
 19 21  1  0  0  0  0
 22 23  2  0  0  0  0
 22 24  1  0  0  0  0
 24 25  1  0  0  0  0
 24 26  1  0  0  0  0
 26 27  1  0  0  0  0
 26 28  1  0  0  0  0
 26 29  1  0  0  0  0
M  END
$$$$

  -OEChem-04042215583D

 29 28  0     1  0  0  0  0  0999 V2000
   -3.4091   -3.7117    1.3000 H   0  0  0  0  0  0  0  0  0  0  0  0
   -3.3688   -2.7277    0.8242 C   0  0  0  0  0  0  0  0  0  0  0  0
   -4.0160   -2.0423    1.3767 H   0  0  0  0  0  0  0  0  0  0  0  0
   -3.7348   -2.8175   -0.2014 H   0  0  0  0  0  0  0  0  0  0  0  0
   -1.9441   -2.2062    0.8227 C   0  0  0  0  0  0  0  0  0  0  0  0
   -1.0501   -2.8722    1.3195 O   0  0  0  0  0  0  0  0  0  0  0  0
   -1.6642   -0.9802    0.2543 N   0  0  0  0  0  0  0  0  0  0  0  0
   -2.4572   -0.4199   -0.0547 H   0  0  0  0  0  0  0  0  0  0  0  0
   -0.3644   -0.2963    0.3390 C   0  0  1  0  0  0  0  0  0  0  0  0
    0.1974   -0.7120    1.1826 H   0  0  0  0  0  0  0  0  0  0  0  0
    0.4410   -0.6198   -0.9513 C   0  0  0  0  0  0  0  0  0  0  0  0
    1.4570   -0.8842   -0.6381 H   0  0  0  0  0  0  0  0  0  0  0  0
    0.0221   -1.5167   -1.4200 H   0  0  0  0  0  0  0  0  0  0  0  0
    0.5725    0.4775   -2.0335 C   0  0  0  0  0  0  0  0  0  0  0  0
    1.1419    0.0781   -2.8772 H   0  0  0  0  0  0  0  0  0  0  0  0
   -0.4275    0.7246   -2.4007 H   0  0  0  0  0  0  0  0  0  0  0  0
    1.2575    1.7637   -1.5770 C   0  0  0  0  0  0  0  0  0  0  0  0
    2.2695    1.7441   -0.9001 O   0  0  0  0  0  0  0  0  0  0  0  0
    0.7159    2.9938   -1.8122 N   0  0  0  0  0  0  0  0  0  0  0  0
    1.1281    3.7450   -1.2682 H   0  0  0  0  0  0  0  0  0  0  0  0
   -0.2825    3.0204   -2.0010 H   0  0  0  0  0  0  0  0  0  0  0  0
   -0.5919    1.1926    0.6760 C   0  0  0  0  0  0  0  0  0  0  0  0
   -1.5001    1.8087    0.1234 O   0  0  0  0  0  0  0  0  0  0  0  0
    0.1767    1.8228    1.6356 N   0  0  0  0  0  0  0  0  0  0  0  0
    1.0059    1.3275    1.9547 H   0  0  0  0  0  0  0  0  0  0  0  0
    0.0507    3.2383    1.9564 C   0  0  0  0  0  0  0  0  0  0  0  0
   -0.9725    3.4723    2.2689 H   0  0  0  0  0  0  0  0  0  0  0  0
    0.7278    3.5002    2.7752 H   0  0  0  0  0  0  0  0  0  0  0  0
    0.3044    3.8525    1.0865 H   0  0  0  0  0  0  0  0  0  0  0  0
  1  2  1  0  0  0  0
  2  3  1  0  0  0  0
  2  4  1  0  0  0  0
  2  5  1  0  0  0  0
  5  6  2  0  0  0  0
  5  7  1  0  0  0  0
  7  8  1  0  0  0  0
  7  9  1  0  0  0  0
  9 10  1  0  0  0  0
  9 11  1  0  0  0  0
  9 22  1  0  0  0  0
 11 12  1  0  0  0  0
 11 13  1  0  0  0  0
 11 14  1  0  0  0  0
 14 15  1  0  0  0  0
 14 16  1  0  0  0  0
 14 17  1  0  0  0  0
 17 18  2  0  0  0  0
 17 19  1  0  0  0  0
 19 20  1  0  0  0  0
 19 21  1  0  0  0  0
 22 23  2  0  0  0  0
 22 24  1  0  0  0  0
 24 25  1  0  0  0  0
 24 26  1  0  0  0  0
 26 27  1  0  0  0  0
 26 28  1  0  0  0  0
 26 29  1  0  0  0  0
M  END
$$$$

  -OEChem-04042215583D

 29 28  0     1  0  0  0  0  0999 V2000
   -3.3797   -3.7664    1.3728 H   0  0  0  0  0  0  0  0  0  0  0  0
   -3.3591   -2.7865    0.8878 C   0  0  0  0  0  0  0  0  0  0  0  0
   -3.9947   -2.1006    1.4530 H   0  0  0  0  0  0  0  0  0  0  0  0
   -3.7533   -2.8862   -0.1263 H   0  0  0  0  0  0  0  0  0  0  0  0
   -1.9385   -2.2563    0.8412 C   0  0  0  0  0  0  0  0  0  0  0  0
   -1.0244   -2.9203    1.3029 O   0  0  0  0  0  0  0  0  0  0  0  0
   -1.6871   -1.0256    0.2706 N   0  0  0  0  0  0  0  0  0  0  0  0
   -2.4948   -0.4696   -0.0064 H   0  0  0  0  0  0  0  0  0  0  0  0
   -0.3950   -0.3253    0.3287 C   0  0  1  0  0  0  0  0  0  0  0  0
    0.1838   -0.7403    1.1609 H   0  0  0  0  0  0  0  0  0  0  0  0
    0.4089   -0.6172   -0.9654 C   0  0  0  0  0  0  0  0  0  0  0  0
    1.4311   -0.8925   -0.6834 H   0  0  0  0  0  0  0  0  0  0  0  0
   -0.0199   -1.4978   -1.4557 H   0  0  0  0  0  0  0  0  0  0  0  0
    0.4724    0.5316   -1.9974 C   0  0  0  0  0  0  0  0  0  0  0  0
    0.8295    0.1257   -2.9476 H   0  0  0  0  0  0  0  0  0  0  0  0
   -0.5327    0.9265   -2.1703 H   0  0  0  0  0  0  0  0  0  0  0  0
    1.4142    1.6724   -1.6097 C   0  0  0  0  0  0  0  0  0  0  0  0
    2.2978    1.5478   -0.7799 O   0  0  0  0  0  0  0  0  0  0  0  0
    1.2583    2.9257   -2.1259 N   0  0  0  0  0  0  0  0  0  0  0  0
    1.7756    3.6590   -1.6512 H   0  0  0  0  0  0  0  0  0  0  0  0
    0.3785    3.1459   -2.5816 H   0  0  0  0  0  0  0  0  0  0  0  0
   -0.6059    1.1654    0.6740 C   0  0  0  0  0  0  0  0  0  0  0  0
   -1.5437    1.7790    0.1722 O   0  0  0  0  0  0  0  0  0  0  0  0
    0.1913    1.7899    1.6136 N   0  0  0  0  0  0  0  0  0  0  0  0
    1.0508    1.3074    1.8667 H   0  0  0  0  0  0  0  0  0  0  0  0
    0.0846    3.2101    1.9208 C   0  0  0  0  0  0  0  0  0  0  0  0
   -0.9249    3.4532    2.2684 H   0  0  0  0  0  0  0  0  0  0  0  0
    0.7933    3.4792    2.7098 H   0  0  0  0  0  0  0  0  0  0  0  0
    0.3074    3.8111    1.0331 H   0  0  0  0  0  0  0  0  0  0  0  0
  1  2  1  0  0  0  0
  2  3  1  0  0  0  0
  2  4  1  0  0  0  0
  2  5  1  0  0  0  0
  5  6  2  0  0  0  0
  5  7  1  0  0  0  0
  7  8  1  0  0  0  0
  7  9  1  0  0  0  0
  9 10  1  0  0  0  0
  9 11  1  0  0  0  0
  9 22  1  0  0  0  0
 11 12  1  0  0  0  0
 11 13  1  0  0  0  0
 11 14  1  0  0  0  0
 14 15  1  0  0  0  0
 14 16  1  0  0  0  0
 14 17  1  0  0  0  0
 17 18  2  0  0  0  0
 17 19  1  0  0  0  0
 19 20  1  0  0  0  0
 19 21  1  0  0  0  0
 22 23  2  0  0  0  0
 22 24  1  0  0  0  0
 24 25  1  0  0  0  0
 24 26  1  0  0  0  0
 26 27  1  0  0  0  0
 26 28  1  0  0  0  0
 26 29  1  0  0  0  0
M  END
$$$$

  -OEChem-04042215583D

 29 28  0     1  0  0  0  0  0999 V2000
   -3.3251   -3.8200    1.4050 H   0  0  0  0  0  0  0  0  0  0  0  0
   -3.3356   -2.8367    0.9264 C   0  0  0  0  0  0  0  0  0  0  0  0
   -3.9580   -2.1634    1.5207 H   0  0  0  0  0  0  0  0  0  0  0  0
   -3.7673   -2.9351   -0.0725 H   0  0  0  0  0  0  0  0  0  0  0  0
   -1.9245   -2.2876    0.8291 C   0  0  0  0  0  0  0  0  0  0  0  0
   -0.9820   -2.9559    1.2231 O   0  0  0  0  0  0  0  0  0  0  0  0
   -1.7144   -1.0362    0.2876 N   0  0  0  0  0  0  0  0  0  0  0  0
   -2.5420   -0.4797    0.0779 H   0  0  0  0  0  0  0  0  0  0  0  0
   -0.4334   -0.3141    0.3212 C   0  0  1  0  0  0  0  0  0  0  0  0
    0.1677   -0.7428    1.1304 H   0  0  0  0  0  0  0  0  0  0  0  0
    0.3613   -0.5576   -0.9853 C   0  0  0  0  0  0  0  0  0  0  0  0
    1.3908   -0.8329   -0.7306 H   0  0  0  0  0  0  0  0  0  0  0  0
   -0.0672   -1.4292   -1.4913 H   0  0  0  0  0  0  0  0  0  0  0  0
    0.3731    0.6241   -1.9827 C   0  0  0  0  0  0  0  0  0  0  0  0
    0.4944    0.2099   -2.9872 H   0  0  0  0  0  0  0  0  0  0  0  0
   -0.5800    1.1588   -1.9749 H   0  0  0  0  0  0  0  0  0  0  0  0
    1.5303    1.6000   -1.7659 C   0  0  0  0  0  0  0  0  0  0  0  0
    2.2571    1.5645   -0.7881 O   0  0  0  0  0  0  0  0  0  0  0  0
    1.7766    2.6114   -2.6487 N   0  0  0  0  0  0  0  0  0  0  0  0
    2.4245    3.3266   -2.3317 H   0  0  0  0  0  0  0  0  0  0  0  0
    1.0672    2.8379   -3.3377 H   0  0  0  0  0  0  0  0  0  0  0  0
   -0.6369    1.1658    0.7171 C   0  0  0  0  0  0  0  0  0  0  0  0
   -1.6356    1.7644    0.3270 O   0  0  0  0  0  0  0  0  0  0  0  0
    0.1958    1.7656    1.6421 N   0  0  0  0  0  0  0  0  0  0  0  0
    1.0955    1.3130    1.7890 H   0  0  0  0  0  0  0  0  0  0  0  0
    0.0650    3.1650    2.0265 C   0  0  0  0  0  0  0  0  0  0  0  0
   -0.9336    3.3613    2.4306 H   0  0  0  0  0  0  0  0  0  0  0  0
    0.8015    3.4147    2.7961 H   0  0  0  0  0  0  0  0  0  0  0  0
    0.2305    3.8158    1.1619 H   0  0  0  0  0  0  0  0  0  0  0  0
  1  2  1  0  0  0  0
  2  3  1  0  0  0  0
  2  4  1  0  0  0  0
  2  5  1  0  0  0  0
  5  6  2  0  0  0  0
  5  7  1  0  0  0  0
  7  8  1  0  0  0  0
  7  9  1  0  0  0  0
  9 10  1  0  0  0  0
  9 11  1  0  0  0  0
  9 22  1  0  0  0  0
 11 12  1  0  0  0  0
 11 13  1  0  0  0  0
 11 14  1  0  0  0  0
 14 15  1  0  0  0  0
 14 16  1  0  0  0  0
 14 17  1  0  0  0  0
 17 18  2  0  0  0  0
 17 19  1  0  0  0  0
 19 20  1  0  0  0  0
 19 21  1  0  0  0  0
 22 23  2  0  0  0  0
 22 24  1  0  0  0  0
 24 25  1  0  0  0  0
 24 26  1  0  0  0  0
 26 27  1  0  0  0  0
 26 28  1  0  0  0  0
 26 29  1  0  0  0  0
M  END
$$$$

  -OEChem-04042215583D

 29 28  0     1  0  0  0  0  0999 V2000
   -3.2542   -3.8715    1.3592 H   0  0  0  0  0  0  0  0  0  0  0  0
   -3.2985   -2.8696    0.9234 C   0  0  0  0  0  0  0  0  0  0  0  0
   -3.9037   -2.2305    1.5711 H   0  0  0  0  0  0  0  0  0  0  0  0
   -3.7709   -2.9327   -0.0598 H   0  0  0  0  0  0  0  0  0  0  0  0
   -1.9010   -2.2950    0.7896 C   0  0  0  0  0  0  0  0  0  0  0  0
   -0.9323   -2.9645    1.1117 O   0  0  0  0  0  0  0  0  0  0  0  0
   -1.7331   -1.0194    0.2919 N   0  0  0  0  0  0  0  0  0  0  0  0
   -2.5777   -0.4689    0.1426 H   0  0  0  0  0  0  0  0  0  0  0  0
   -0.4662   -0.2730    0.3132 C   0  0  1  0  0  0  0  0  0  0  0  0
    0.1557   -0.7199    1.0962 H   0  0  0  0  0  0  0  0  0  0  0  0
    0.3159   -0.4667   -1.0076 C   0  0  0  0  0  0  0  0  0  0  0  0
    1.3525   -0.7259   -0.7649 H   0  0  0  0  0  0  0  0  0  0  0  0
   -0.0966   -1.3398   -1.5243 H   0  0  0  0  0  0  0  0  0  0  0  0
    0.2933    0.7328   -1.9870 C   0  0  0  0  0  0  0  0  0  0  0  0
    0.1470    0.3323   -2.9937 H   0  0  0  0  0  0  0  0  0  0  0  0
   -0.5412    1.4121   -1.8037 H   0  0  0  0  0  0  0  0  0  0  0  0
    1.6088    1.5072   -1.9979 C   0  0  0  0  0  0  0  0  0  0  0  0
    2.2849    1.6517   -0.9945 O   0  0  0  0  0  0  0  0  0  0  0  0
    2.0796    2.1104   -3.1287 N   0  0  0  0  0  0  0  0  0  0  0  0
    2.8530    2.7563   -2.9987 H   0  0  0  0  0  0  0  0  0  0  0  0
    1.4604    2.2095   -3.9262 H   0  0  0  0  0  0  0  0  0  0  0  0
   -0.6677    1.1885    0.7716 C   0  0  0  0  0  0  0  0  0  0  0  0
   -1.6994    1.7791    0.4650 O   0  0  0  0  0  0  0  0  0  0  0  0
    0.1932    1.7607    1.6885 N   0  0  0  0  0  0  0  0  0  0  0  0
    1.0986    1.3095    1.7965 H   0  0  0  0  0  0  0  0  0  0  0  0
    0.0557    3.1387    2.1421 C   0  0  0  0  0  0  0  0  0  0  0  0
   -0.9254    3.2963    2.6026 H   0  0  0  0  0  0  0  0  0  0  0  0
    0.8246    3.3695    2.8858 H   0  0  0  0  0  0  0  0  0  0  0  0
    0.1668    3.8307    1.3007 H   0  0  0  0  0  0  0  0  0  0  0  0
  1  2  1  0  0  0  0
  2  3  1  0  0  0  0
  2  4  1  0  0  0  0
  2  5  1  0  0  0  0
  5  6  2  0  0  0  0
  5  7  1  0  0  0  0
  7  8  1  0  0  0  0
  7  9  1  0  0  0  0
  9 10  1  0  0  0  0
  9 11  1  0  0  0  0
  9 22  1  0  0  0  0
 11 12  1  0  0  0  0
 11 13  1  0  0  0  0
 11 14  1  0  0  0  0
 14 15  1  0  0  0  0
 14 16  1  0  0  0  0
 14 17  1  0  0  0  0
 17 18  2  0  0  0  0
 17 19  1  0  0  0  0
 19 20  1  0  0  0  0
 19 21  1  0  0  0  0
 22 23  2  0  0  0  0
 22 24  1  0  0  0  0
 24 25  1  0  0  0  0
 24 26  1  0  0  0  0
 26 27  1  0  0  0  0
 26 28  1  0  0  0  0
 26 29  1  0  0  0  0
M  END
$$$$

  -OEChem-04042215583D

 29 28  0     1  0  0  0  0  0999 V2000
   -3.2080   -3.9011    1.2190 H   0  0  0  0  0  0  0  0  0  0  0  0
   -3.2692   -2.8686    0.8643 C   0  0  0  0  0  0  0  0  0  0  0  0
   -3.8690   -2.2884    1.5696 H   0  0  0  0  0  0  0  0  0  0  0  0
   -3.7582   -2.8600   -0.1127 H   0  0  0  0  0  0  0  0  0  0  0  0
   -1.8792   -2.2712    0.7534 C   0  0  0  0  0  0  0  0  0  0  0  0
   -0.9026   -2.9355    1.0622 O   0  0  0  0  0  0  0  0  0  0  0  0
   -1.7260   -0.9800    0.2921 N   0  0  0  0  0  0  0  0  0  0  0  0
   -2.5762   -0.4361    0.1509 H   0  0  0  0  0  0  0  0  0  0  0  0
   -0.4651   -0.2239    0.3197 C   0  0  1  0  0  0  0  0  0  0  0  0
    0.1700   -0.6876    1.0823 H   0  0  0  0  0  0  0  0  0  0  0  0
    0.2946   -0.3881   -1.0197 C   0  0  0  0  0  0  0  0  0  0  0  0
    1.3354   -0.6278   -0.7751 H   0  0  0  0  0  0  0  0  0  0  0  0
   -0.0966   -1.2676   -1.5422 H   0  0  0  0  0  0  0  0  0  0  0  0
    0.2660    0.8175   -1.9967 C   0  0  0  0  0  0  0  0  0  0  0  0
   -0.1827    0.4810   -2.9351 H   0  0  0  0  0  0  0  0  0  0  0  0
   -0.3507    1.6441   -1.6433 H   0  0  0  0  0  0  0  0  0  0  0  0
    1.6631    1.3508   -2.2958 C   0  0  0  0  0  0  0  0  0  0  0  0
    2.4547    1.6051   -1.4064 O   0  0  0  0  0  0  0  0  0  0  0  0
    2.1011    1.5642   -3.5716 N   0  0  0  0  0  0  0  0  0  0  0  0
    2.9771    2.0704   -3.6641 H   0  0  0  0  0  0  0  0  0  0  0  0
    1.4283    1.5627   -4.3308 H   0  0  0  0  0  0  0  0  0  0  0  0
   -0.6733    1.2206    0.8237 C   0  0  0  0  0  0  0  0  0  0  0  0
   -1.7068    1.8173    0.5371 O   0  0  0  0  0  0  0  0  0  0  0  0
    0.1939    1.7731    1.7470 N   0  0  0  0  0  0  0  0  0  0  0  0
    1.0760    1.2902    1.8977 H   0  0  0  0  0  0  0  0  0  0  0  0
    0.0419    3.1247    2.2703 C   0  0  0  0  0  0  0  0  0  0  0  0
   -0.9144    3.2283    2.7936 H   0  0  0  0  0  0  0  0  0  0  0  0
    0.8469    3.3483    2.9769 H   0  0  0  0  0  0  0  0  0  0  0  0
    0.0810    3.8569    1.4570 H   0  0  0  0  0  0  0  0  0  0  0  0
  1  2  1  0  0  0  0
  2  3  1  0  0  0  0
  2  4  1  0  0  0  0
  2  5  1  0  0  0  0
  5  6  2  0  0  0  0
  5  7  1  0  0  0  0
  7  8  1  0  0  0  0
  7  9  1  0  0  0  0
  9 10  1  0  0  0  0
  9 11  1  0  0  0  0
  9 22  1  0  0  0  0
 11 12  1  0  0  0  0
 11 13  1  0  0  0  0
 11 14  1  0  0  0  0
 14 15  1  0  0  0  0
 14 16  1  0  0  0  0
 14 17  1  0  0  0  0
 17 18  2  0  0  0  0
 17 19  1  0  0  0  0
 19 20  1  0  0  0  0
 19 21  1  0  0  0  0
 22 23  2  0  0  0  0
 22 24  1  0  0  0  0
 24 25  1  0  0  0  0
 24 26  1  0  0  0  0
 26 27  1  0  0  0  0
 26 28  1  0  0  0  0
 26 29  1  0  0  0  0
M  END
$$$$

  -OEChem-04042215583D

 29 28  0     1  0  0  0  0  0999 V2000
   -3.1850   -3.8809    1.1052 H   0  0  0  0  0  0  0  0  0  0  0  0
   -3.2460   -2.8370    0.7851 C   0  0  0  0  0  0  0  0  0  0  0  0
   -3.8502   -2.2819    1.5069 H   0  0  0  0  0  0  0  0  0  0  0  0
   -3.7303   -2.7966   -0.1935 H   0  0  0  0  0  0  0  0  0  0  0  0
   -1.8561   -2.2350    0.7008 C   0  0  0  0  0  0  0  0  0  0  0  0
   -0.8812   -2.9066    0.9991 O   0  0  0  0  0  0  0  0  0  0  0  0
   -1.6988   -0.9326    0.2733 N   0  0  0  0  0  0  0  0  0  0  0  0
   -2.5468   -0.3835    0.1377 H   0  0  0  0  0  0  0  0  0  0  0  0
   -0.4347   -0.1831    0.3187 C   0  0  1  0  0  0  0  0  0  0  0  0
    0.2107   -0.6690    1.0583 H   0  0  0  0  0  0  0  0  0  0  0  0
    0.2911   -0.3122   -1.0448 C   0  0  0  0  0  0  0  0  0  0  0  0
    1.3377   -0.5336   -0.8068 H   0  0  0  0  0  0  0  0  0  0  0  0
   -0.0860   -1.1876   -1.5844 H   0  0  0  0  0  0  0  0  0  0  0  0
    0.2621    0.9143   -1.9940 C   0  0  0  0  0  0  0  0  0  0  0  0
   -0.4644    0.7340   -2.7907 H   0  0  0  0  0  0  0  0  0  0  0  0
   -0.0438    1.8317   -1.4905 H   0  0  0  0  0  0  0  0  0  0  0  0
    1.6359    1.1871   -2.5941 C   0  0  0  0  0  0  0  0  0  0  0  0
    2.5735    1.5406   -1.9039 O   0  0  0  0  0  0  0  0  0  0  0  0
    1.9008    0.9901   -3.9194 N   0  0  0  0  0  0  0  0  0  0  0  0
    2.8016    1.3229   -4.2512 H   0  0  0  0  0  0  0  0  0  0  0  0
    1.1295    0.8636   -4.5660 H   0  0  0  0  0  0  0  0  0  0  0  0
   -0.6533    1.2443    0.8630 C   0  0  0  0  0  0  0  0  0  0  0  0
   -1.6759    1.8546    0.5672 O   0  0  0  0  0  0  0  0  0  0  0  0
    0.2073    1.7766    1.8043 N   0  0  0  0  0  0  0  0  0  0  0  0
    1.0608    1.2613    2.0029 H   0  0  0  0  0  0  0  0  0  0  0  0
    0.0353    3.1012    2.3871 C   0  0  0  0  0  0  0  0  0  0  0  0
   -0.9431    3.1833    2.8722 H   0  0  0  0  0  0  0  0  0  0  0  0
    0.8080    3.2854    3.1396 H   0  0  0  0  0  0  0  0  0  0  0  0
    0.1124    3.8724    1.6136 H   0  0  0  0  0  0  0  0  0  0  0  0
  1  2  1  0  0  0  0
  2  3  1  0  0  0  0
  2  4  1  0  0  0  0
  2  5  1  0  0  0  0
  5  6  2  0  0  0  0
  5  7  1  0  0  0  0
  7  8  1  0  0  0  0
  7  9  1  0  0  0  0
  9 10  1  0  0  0  0
  9 11  1  0  0  0  0
  9 22  1  0  0  0  0
 11 12  1  0  0  0  0
 11 13  1  0  0  0  0
 11 14  1  0  0  0  0
 14 15  1  0  0  0  0
 14 16  1  0  0  0  0
 14 17  1  0  0  0  0
 17 18  2  0  0  0  0
 17 19  1  0  0  0  0
 19 20  1  0  0  0  0
 19 21  1  0  0  0  0
 22 23  2  0  0  0  0
 22 24  1  0  0  0  0
 24 25  1  0  0  0  0
 24 26  1  0  0  0  0
 26 27  1  0  0  0  0
 26 28  1  0  0  0  0
 26 29  1  0  0  0  0
M  END
$$$$

  -OEChem-04042215583D

 29 28  0     1  0  0  0  0  0999 V2000
   -3.2852   -3.8000    1.4178 H   0  0  0  0  0  0  0  0  0  0  0  0
   -3.2948   -2.8322    0.9082 C   0  0  0  0  0  0  0  0  0  0  0  0
   -3.9679   -2.1591    1.4447 H   0  0  0  0  0  0  0  0  0  0  0  0
   -3.6663   -2.9735   -0.1096 H   0  0  0  0  0  0  0  0  0  0  0  0
   -1.8958   -2.2462    0.8714 C   0  0  0  0  0  0  0  0  0  0  0  0
   -0.9575   -2.8782    1.3295 O   0  0  0  0  0  0  0  0  0  0  0  0
   -1.6928   -0.9949    0.3261 N   0  0  0  0  0  0  0  0  0  0  0  0
   -2.5185   -0.4695    0.0429 H   0  0  0  0  0  0  0  0  0  0  0  0
   -0.4134   -0.2704    0.3317 C   0  0  1  0  0  0  0  0  0  0  0  0
    0.2172   -0.7003    1.1174 H   0  0  0  0  0  0  0  0  0  0  0  0
    0.3093   -0.5289   -1.0173 C   0  0  0  0  0  0  0  0  0  0  0  0
    1.3501   -0.7418   -0.7509 H   0  0  0  0  0  0  0  0  0  0  0  0
   -0.0768   -1.4386   -1.4897 H   0  0  0  0  0  0  0  0  0  0  0  0
    0.3057    0.6256   -2.0561 C   0  0  0  0  0  0  0  0  0  0  0  0
   -0.6032    0.5587   -2.6602 H   0  0  0  0  0  0  0  0  0  0  0  0
    0.3021    1.5983   -1.5635 H   0  0  0  0  0  0  0  0  0  0  0  0
    1.5277    0.6478   -2.9741 C   0  0  0  0  0  0  0  0  0  0  0  0
    2.4465   -0.1466   -2.9017 O   0  0  0  0  0  0  0  0  0  0  0  0
    1.6521    1.5950   -3.9495 N   0  0  0  0  0  0  0  0  0  0  0  0
    2.5505    1.6413   -4.4216 H   0  0  0  0  0  0  0  0  0  0  0  0
    1.0233    2.3913   -3.9538 H   0  0  0  0  0  0  0  0  0  0  0  0
   -0.6207    1.2053    0.7315 C   0  0  0  0  0  0  0  0  0  0  0  0
   -1.5848    1.8277    0.2983 O   0  0  0  0  0  0  0  0  0  0  0  0
    0.2255    1.8101    1.6420 N   0  0  0  0  0  0  0  0  0  0  0  0
    0.9766    1.2467    2.0317 H   0  0  0  0  0  0  0  0  0  0  0  0
    0.0331    3.1677    2.1368 C   0  0  0  0  0  0  0  0  0  0  0  0
   -0.9471    3.2667    2.6150 H   0  0  0  0  0  0  0  0  0  0  0  0
    0.8032    3.4134    2.8745 H   0  0  0  0  0  0  0  0  0  0  0  0
    0.0990    3.8880    1.3147 H   0  0  0  0  0  0  0  0  0  0  0  0
  1  2  1  0  0  0  0
  2  3  1  0  0  0  0
  2  4  1  0  0  0  0
  2  5  1  0  0  0  0
  5  6  2  0  0  0  0
  5  7  1  0  0  0  0
  7  8  1  0  0  0  0
  7  9  1  0  0  0  0
  9 10  1  0  0  0  0
  9 11  1  0  0  0  0
  9 22  1  0  0  0  0
 11 12  1  0  0  0  0
 11 13  1  0  0  0  0
 11 14  1  0  0  0  0
 14 15  1  0  0  0  0
 14 16  1  0  0  0  0
 14 17  1  0  0  0  0
 17 18  2  0  0  0  0
 17 19  1  0  0  0  0
 19 20  1  0  0  0  0
 19 21  1  0  0  0  0
 22 23  2  0  0  0  0
 22 24  1  0  0  0  0
 24 25  1  0  0  0  0
 24 26  1  0  0  0  0
 26 27  1  0  0  0  0
 26 28  1  0  0  0  0
 26 29  1  0  0  0  0
M  END
$$$$

  -OEChem-04042215583D

 29 28  0     1  0  0  0  0  0999 V2000
   -3.2935   -3.8044    1.3743 H   0  0  0  0  0  0  0  0  0  0  0  0
   -3.2970   -2.8289    0.8800 C   0  0  0  0  0  0  0  0  0  0  0  0
   -3.9778   -2.1647    1.4177 H   0  0  0  0  0  0  0  0  0  0  0  0
   -3.6545   -2.9541   -0.1447 H   0  0  0  0  0  0  0  0  0  0  0  0
   -1.8979   -2.2423    0.8710 C   0  0  0  0  0  0  0  0  0  0  0  0
   -0.9700   -2.8715    1.3537 O   0  0  0  0  0  0  0  0  0  0  0  0
   -1.6828   -0.9941    0.3232 N   0  0  0  0  0  0  0  0  0  0  0  0
   -2.5010   -0.4696    0.0181 H   0  0  0  0  0  0  0  0  0  0  0  0
   -0.3993   -0.2767    0.3394 C   0  0  1  0  0  0  0  0  0  0  0  0
    0.2283   -0.7106    1.1250 H   0  0  0  0  0  0  0  0  0  0  0  0
    0.3251   -0.5214   -1.0097 C   0  0  0  0  0  0  0  0  0  0  0  0
    1.3702   -0.7440   -0.7670 H   0  0  0  0  0  0  0  0  0  0  0  0
   -0.0771   -1.4152   -1.4998 H   0  0  0  0  0  0  0  0  0  0  0  0
    0.3147    0.6590   -2.0104 C   0  0  0  0  0  0  0  0  0  0  0  0
   -0.6892    0.7705   -2.4292 H   0  0  0  0  0  0  0  0  0  0  0  0
    0.5758    1.5912   -1.5040 H   0  0  0  0  0  0  0  0  0  0  0  0
    1.3256    0.4990   -3.1439 C   0  0  0  0  0  0  0  0  0  0  0  0
    2.0395   -0.4776   -3.2740 O   0  0  0  0  0  0  0  0  0  0  0  0
    1.4697    1.4644   -4.0982 N   0  0  0  0  0  0  0  0  0  0  0  0
    2.0271    1.2104   -4.9086 H   0  0  0  0  0  0  0  0  0  0  0  0
    0.7729    2.1988   -4.1640 H   0  0  0  0  0  0  0  0  0  0  0  0
   -0.6037    1.2017    0.7319 C   0  0  0  0  0  0  0  0  0  0  0  0
   -1.5540    1.8306    0.2779 O   0  0  0  0  0  0  0  0  0  0  0  0
    0.2353    1.8064    1.6492 N   0  0  0  0  0  0  0  0  0  0  0  0
    0.9716    1.2381    2.0592 H   0  0  0  0  0  0  0  0  0  0  0  0
    0.0429    3.1675    2.1344 C   0  0  0  0  0  0  0  0  0  0  0  0
   -0.9308    3.2651    2.6258 H   0  0  0  0  0  0  0  0  0  0  0  0
    0.8221    3.4249    2.8582 H   0  0  0  0  0  0  0  0  0  0  0  0
    0.0925    3.8809    1.3052 H   0  0  0  0  0  0  0  0  0  0  0  0
  1  2  1  0  0  0  0
  2  3  1  0  0  0  0
  2  4  1  0  0  0  0
  2  5  1  0  0  0  0
  5  6  2  0  0  0  0
  5  7  1  0  0  0  0
  7  8  1  0  0  0  0
  7  9  1  0  0  0  0
  9 10  1  0  0  0  0
  9 11  1  0  0  0  0
  9 22  1  0  0  0  0
 11 12  1  0  0  0  0
 11 13  1  0  0  0  0
 11 14  1  0  0  0  0
 14 15  1  0  0  0  0
 14 16  1  0  0  0  0
 14 17  1  0  0  0  0
 17 18  2  0  0  0  0
 17 19  1  0  0  0  0
 19 20  1  0  0  0  0
 19 21  1  0  0  0  0
 22 23  2  0  0  0  0
 22 24  1  0  0  0  0
 24 25  1  0  0  0  0
 24 26  1  0  0  0  0
 26 27  1  0  0  0  0
 26 28  1  0  0  0  0
 26 29  1  0  0  0  0
M  END
$$$$

  -OEChem-04042215583D

 29 28  0     1  0  0  0  0  0999 V2000
   -3.3279   -3.7816    1.3375 H   0  0  0  0  0  0  0  0  0  0  0  0
   -3.3142   -2.8040    0.8473 C   0  0  0  0  0  0  0  0  0  0  0  0
   -3.9969   -2.1350    1.3768 H   0  0  0  0  0  0  0  0  0  0  0  0
   -3.6565   -2.9219   -0.1836 H   0  0  0  0  0  0  0  0  0  0  0  0
   -1.9096   -2.2310    0.8640 C   0  0  0  0  0  0  0  0  0  0  0  0
   -1.0003   -2.8608    1.3806 O   0  0  0  0  0  0  0  0  0  0  0  0
   -1.6698   -0.9899    0.3108 N   0  0  0  0  0  0  0  0  0  0  0  0
   -2.4743   -0.4609   -0.0223 H   0  0  0  0  0  0  0  0  0  0  0  0
   -0.3769   -0.2904    0.3460 C   0  0  1  0  0  0  0  0  0  0  0  0
    0.2403   -0.7223    1.1410 H   0  0  0  0  0  0  0  0  0  0  0  0
    0.3641   -0.5291   -0.9968 C   0  0  0  0  0  0  0  0  0  0  0  0
    1.3007   -1.0540   -0.7783 H   0  0  0  0  0  0  0  0  0  0  0  0
   -0.2292   -1.1998   -1.6291 H   0  0  0  0  0  0  0  0  0  0  0  0
    0.6929    0.7433   -1.8088 C   0  0  0  0  0  0  0  0  0  0  0  0
   -0.2347    1.2701   -2.0504 H   0  0  0  0  0  0  0  0  0  0  0  0
    1.3242    1.4111   -1.2164 H   0  0  0  0  0  0  0  0  0  0  0  0
    1.4205    0.4463   -3.1174 C   0  0  0  0  0  0  0  0  0  0  0  0
    1.8417   -0.6562   -3.4131 O   0  0  0  0  0  0  0  0  0  0  0  0
    1.6325    1.4275   -4.0427 N   0  0  0  0  0  0  0  0  0  0  0  0
    1.9626    1.1168   -4.9519 H   0  0  0  0  0  0  0  0  0  0  0  0
    1.1292    2.3037   -3.9525 H   0  0  0  0  0  0  0  0  0  0  0  0
   -0.5849    1.1918    0.7261 C   0  0  0  0  0  0  0  0  0  0  0  0
   -1.5193    1.8248    0.2460 O   0  0  0  0  0  0  0  0  0  0  0  0
    0.2373    1.7976    1.6580 N   0  0  0  0  0  0  0  0  0  0  0  0
    0.9468    1.2211    2.1024 H   0  0  0  0  0  0  0  0  0  0  0  0
    0.0395    3.1615    2.1335 C   0  0  0  0  0  0  0  0  0  0  0  0
   -0.9258    3.2539    2.6423 H   0  0  0  0  0  0  0  0  0  0  0  0
    0.8305    3.4341    2.8389 H   0  0  0  0  0  0  0  0  0  0  0  0
    0.0660    3.8676    1.2967 H   0  0  0  0  0  0  0  0  0  0  0  0
  1  2  1  0  0  0  0
  2  3  1  0  0  0  0
  2  4  1  0  0  0  0
  2  5  1  0  0  0  0
  5  6  2  0  0  0  0
  5  7  1  0  0  0  0
  7  8  1  0  0  0  0
  7  9  1  0  0  0  0
  9 10  1  0  0  0  0
  9 11  1  0  0  0  0
  9 22  1  0  0  0  0
 11 12  1  0  0  0  0
 11 13  1  0  0  0  0
 11 14  1  0  0  0  0
 14 15  1  0  0  0  0
 14 16  1  0  0  0  0
 14 17  1  0  0  0  0
 17 18  2  0  0  0  0
 17 19  1  0  0  0  0
 19 20  1  0  0  0  0
 19 21  1  0  0  0  0
 22 23  2  0  0  0  0
 22 24  1  0  0  0  0
 24 25  1  0  0  0  0
 24 26  1  0  0  0  0
 26 27  1  0  0  0  0
 26 28  1  0  0  0  0
 26 29  1  0  0  0  0
M  END
$$$$

  -OEChem-04042215583D

 29 28  0     1  0  0  0  0  0999 V2000
   -3.3461   -3.7648    1.2789 H   0  0  0  0  0  0  0  0  0  0  0  0
   -3.3292   -2.7757    0.8129 C   0  0  0  0  0  0  0  0  0  0  0  0
   -4.0032   -2.1152    1.3638 H   0  0  0  0  0  0  0  0  0  0  0  0
   -3.6799   -2.8659   -0.2179 H   0  0  0  0  0  0  0  0  0  0  0  0
   -1.9205   -2.2130    0.8330 C   0  0  0  0  0  0  0  0  0  0  0  0
   -1.0140   -2.8553    1.3391 O   0  0  0  0  0  0  0  0  0  0  0  0
   -1.6729   -0.9676    0.2928 N   0  0  0  0  0  0  0  0  0  0  0  0
   -2.4748   -0.4296   -0.0320 H   0  0  0  0  0  0  0  0  0  0  0  0
   -0.3774   -0.2736    0.3411 C   0  0  1  0  0  0  0  0  0  0  0  0
    0.2242   -0.7129    1.1437 H   0  0  0  0  0  0  0  0  0  0  0  0
    0.3912   -0.5192   -0.9852 C   0  0  0  0  0  0  0  0  0  0  0  0
    1.3177   -1.0588   -0.7608 H   0  0  0  0  0  0  0  0  0  0  0  0
   -0.2084   -1.1832   -1.6187 H   0  0  0  0  0  0  0  0  0  0  0  0
    0.7428    0.7445   -1.8033 C   0  0  0  0  0  0  0  0  0  0  0  0
   -0.1351    1.3910   -1.8757 H   0  0  0  0  0  0  0  0  0  0  0  0
    1.5413    1.3037   -1.3083 H   0  0  0  0  0  0  0  0  0  0  0  0
    1.1634    0.4259   -3.2357 C   0  0  0  0  0  0  0  0  0  0  0  0
    1.5614   -0.6702   -3.5825 O   0  0  0  0  0  0  0  0  0  0  0  0
    1.1136    1.3758   -4.2154 N   0  0  0  0  0  0  0  0  0  0  0  0
    1.2457    1.0425   -5.1659 H   0  0  0  0  0  0  0  0  0  0  0  0
    0.6050    2.2360   -4.0398 H   0  0  0  0  0  0  0  0  0  0  0  0
   -0.5723    1.2072    0.7333 C   0  0  0  0  0  0  0  0  0  0  0  0
   -1.5151    1.8453    0.2765 O   0  0  0  0  0  0  0  0  0  0  0  0
    0.2530    1.7962    1.6731 N   0  0  0  0  0  0  0  0  0  0  0  0
    0.9647    1.2121    2.1037 H   0  0  0  0  0  0  0  0  0  0  0  0
    0.0571    3.1513    2.1734 C   0  0  0  0  0  0  0  0  0  0  0  0
   -0.8886    3.2242    2.7205 H   0  0  0  0  0  0  0  0  0  0  0  0
    0.8722    3.4257    2.8500 H   0  0  0  0  0  0  0  0  0  0  0  0
    0.0412    3.8680    1.3455 H   0  0  0  0  0  0  0  0  0  0  0  0
  1  2  1  0  0  0  0
  2  3  1  0  0  0  0
  2  4  1  0  0  0  0
  2  5  1  0  0  0  0
  5  6  2  0  0  0  0
  5  7  1  0  0  0  0
  7  8  1  0  0  0  0
  7  9  1  0  0  0  0
  9 10  1  0  0  0  0
  9 11  1  0  0  0  0
  9 22  1  0  0  0  0
 11 12  1  0  0  0  0
 11 13  1  0  0  0  0
 11 14  1  0  0  0  0
 14 15  1  0  0  0  0
 14 16  1  0  0  0  0
 14 17  1  0  0  0  0
 17 18  2  0  0  0  0
 17 19  1  0  0  0  0
 19 20  1  0  0  0  0
 19 21  1  0  0  0  0
 22 23  2  0  0  0  0
 22 24  1  0  0  0  0
 24 25  1  0  0  0  0
 24 26  1  0  0  0  0
 26 27  1  0  0  0  0
 26 28  1  0  0  0  0
 26 29  1  0  0  0  0
M  END
$$$$

  -OEChem-04042215583D

 29 28  0     1  0  0  0  0  0999 V2000
   -3.3871   -3.7113    1.1172 H   0  0  0  0  0  0  0  0  0  0  0  0
   -3.3502   -2.7044    0.6919 C   0  0  0  0  0  0  0  0  0  0  0  0
   -4.0243   -2.0575    1.2584 H   0  0  0  0  0  0  0  0  0  0  0  0
   -3.6855   -2.7490   -0.3471 H   0  0  0  0  0  0  0  0  0  0  0  0
   -1.9351   -2.1618    0.7553 C   0  0  0  0  0  0  0  0  0  0  0  0
   -1.0464   -2.8309    1.2579 O   0  0  0  0  0  0  0  0  0  0  0  0
   -1.6596   -0.9087    0.2476 N   0  0  0  0  0  0  0  0  0  0  0  0
   -2.4498   -0.3480   -0.0676 H   0  0  0  0  0  0  0  0  0  0  0  0
   -0.3555   -0.2345    0.3378 C   0  0  1  0  0  0  0  0  0  0  0  0
    0.2165   -0.6966    1.1493 H   0  0  0  0  0  0  0  0  0  0  0  0
    0.4462   -0.4835   -0.9700 C   0  0  0  0  0  0  0  0  0  0  0  0
    1.3542   -1.0457   -0.7264 H   0  0  0  0  0  0  0  0  0  0  0  0
   -0.1519   -1.1383   -1.6145 H   0  0  0  0  0  0  0  0  0  0  0  0
    0.8538    0.7637   -1.7919 C   0  0  0  0  0  0  0  0  0  0  0  0
    0.1082    1.5542   -1.6948 H   0  0  0  0  0  0  0  0  0  0  0  0
    1.8091    1.1573   -1.4340 H   0  0  0  0  0  0  0  0  0  0  0  0
    0.9476    0.4529   -3.2823 C   0  0  0  0  0  0  0  0  0  0  0  0
    1.5352   -0.5258   -3.7021 O   0  0  0  0  0  0  0  0  0  0  0  0
    0.3342    1.2320   -4.2216 N   0  0  0  0  0  0  0  0  0  0  0  0
    0.2924    0.8504   -5.1621 H   0  0  0  0  0  0  0  0  0  0  0  0
   -0.3374    1.9306   -3.9199 H   0  0  0  0  0  0  0  0  0  0  0  0
   -0.5343    1.2406    0.7580 C   0  0  0  0  0  0  0  0  0  0  0  0
   -1.4612    1.8999    0.2984 O   0  0  0  0  0  0  0  0  0  0  0  0
    0.2799    1.7979    1.7265 N   0  0  0  0  0  0  0  0  0  0  0  0
    0.9831    1.1989    2.1507 H   0  0  0  0  0  0  0  0  0  0  0  0
    0.0964    3.1469    2.2481 C   0  0  0  0  0  0  0  0  0  0  0  0
   -0.8818    3.2413    2.7313 H   0  0  0  0  0  0  0  0  0  0  0  0
    0.8707    3.3756    2.9867 H   0  0  0  0  0  0  0  0  0  0  0  0
    0.1629    3.8827    1.4400 H   0  0  0  0  0  0  0  0  0  0  0  0
  1  2  1  0  0  0  0
  2  3  1  0  0  0  0
  2  4  1  0  0  0  0
  2  5  1  0  0  0  0
  5  6  2  0  0  0  0
  5  7  1  0  0  0  0
  7  8  1  0  0  0  0
  7  9  1  0  0  0  0
  9 10  1  0  0  0  0
  9 11  1  0  0  0  0
  9 22  1  0  0  0  0
 11 12  1  0  0  0  0
 11 13  1  0  0  0  0
 11 14  1  0  0  0  0
 14 15  1  0  0  0  0
 14 16  1  0  0  0  0
 14 17  1  0  0  0  0
 17 18  2  0  0  0  0
 17 19  1  0  0  0  0
 19 20  1  0  0  0  0
 19 21  1  0  0  0  0
 22 23  2  0  0  0  0
 22 24  1  0  0  0  0
 24 25  1  0  0  0  0
 24 26  1  0  0  0  0
 26 27  1  0  0  0  0
 26 28  1  0  0  0  0
 26 29  1  0  0  0  0
M  END
$$$$

  -OEChem-04042215583D

 29 28  0     1  0  0  0  0  0999 V2000
   -3.4551   -3.6188    1.0187 H   0  0  0  0  0  0  0  0  0  0  0  0
   -3.3880   -2.6048    0.6146 C   0  0  0  0  0  0  0  0  0  0  0  0
   -4.0427   -1.9497    1.1943 H   0  0  0  0  0  0  0  0  0  0  0  0
   -3.7236   -2.6176   -0.4252 H   0  0  0  0  0  0  0  0  0  0  0  0
   -1.9578   -2.1054    0.6902 C   0  0  0  0  0  0  0  0  0  0  0  0
   -1.0907   -2.8054    1.1881 O   0  0  0  0  0  0  0  0  0  0  0  0
   -1.6423   -0.8558    0.1975 N   0  0  0  0  0  0  0  0  0  0  0  0
   -2.4150   -0.2657   -0.1078 H   0  0  0  0  0  0  0  0  0  0  0  0
   -0.3228   -0.2171    0.3185 C   0  0  1  0  0  0  0  0  0  0  0  0
    0.2267   -0.6976    1.1350 H   0  0  0  0  0  0  0  0  0  0  0  0
    0.4853   -0.4744   -0.9852 C   0  0  0  0  0  0  0  0  0  0  0  0
    1.3739   -1.0598   -0.7261 H   0  0  0  0  0  0  0  0  0  0  0  0
   -0.1152   -1.1212   -1.6356 H   0  0  0  0  0  0  0  0  0  0  0  0
    0.9517    0.7541   -1.8092 C   0  0  0  0  0  0  0  0  0  0  0  0
    0.4390    1.6731   -1.5271 H   0  0  0  0  0  0  0  0  0  0  0  0
    2.0207    0.9198   -1.6486 H   0  0  0  0  0  0  0  0  0  0  0  0
    0.6937    0.5479   -3.2957 C   0  0  0  0  0  0  0  0  0  0  0  0
    1.3657   -0.2155   -3.9619 O   0  0  0  0  0  0  0  0  0  0  0  0
   -0.3620    1.1402   -3.9279 N   0  0  0  0  0  0  0  0  0  0  0  0
   -0.5818    0.7969   -4.8582 H   0  0  0  0  0  0  0  0  0  0  0  0
   -1.0681    1.6113   -3.3704 H   0  0  0  0  0  0  0  0  0  0  0  0
   -0.4937    1.2556    0.7475 C   0  0  0  0  0  0  0  0  0  0  0  0
   -1.3958    1.9291    0.2590 O   0  0  0  0  0  0  0  0  0  0  0  0
    0.3016    1.7986    1.7393 N   0  0  0  0  0  0  0  0  0  0  0  0
    0.9912    1.1921    2.1751 H   0  0  0  0  0  0  0  0  0  0  0  0
    0.1242    3.1496    2.2576 C   0  0  0  0  0  0  0  0  0  0  0  0
   -0.8564    3.2508    2.7345 H   0  0  0  0  0  0  0  0  0  0  0  0
    0.8955    3.3737    3.0008 H   0  0  0  0  0  0  0  0  0  0  0  0
    0.2011    3.8845    1.4493 H   0  0  0  0  0  0  0  0  0  0  0  0
  1  2  1  0  0  0  0
  2  3  1  0  0  0  0
  2  4  1  0  0  0  0
  2  5  1  0  0  0  0
  5  6  2  0  0  0  0
  5  7  1  0  0  0  0
  7  8  1  0  0  0  0
  7  9  1  0  0  0  0
  9 10  1  0  0  0  0
  9 11  1  0  0  0  0
  9 22  1  0  0  0  0
 11 12  1  0  0  0  0
 11 13  1  0  0  0  0
 11 14  1  0  0  0  0
 14 15  1  0  0  0  0
 14 16  1  0  0  0  0
 14 17  1  0  0  0  0
 17 18  2  0  0  0  0
 17 19  1  0  0  0  0
 19 20  1  0  0  0  0
 19 21  1  0  0  0  0
 22 23  2  0  0  0  0
 22 24  1  0  0  0  0
 24 25  1  0  0  0  0
 24 26  1  0  0  0  0
 26 27  1  0  0  0  0
 26 28  1  0  0  0  0
 26 29  1  0  0  0  0
M  END
$$$$

  -OEChem-04042215583D

 29 28  0     1  0  0  0  0  0999 V2000
   -3.4956   -3.5784    1.0615 H   0  0  0  0  0  0  0  0  0  0  0  0
   -3.4061   -2.5785    0.6275 C   0  0  0  0  0  0  0  0  0  0  0  0
   -4.0716   -1.8997    1.1660 H   0  0  0  0  0  0  0  0  0  0  0  0
   -3.7111   -2.6221   -0.4209 H   0  0  0  0  0  0  0  0  0  0  0  0
   -1.9735   -2.0902    0.7304 C   0  0  0  0  0  0  0  0  0  0  0  0
   -1.1298   -2.7810    1.2789 O   0  0  0  0  0  0  0  0  0  0  0  0
   -1.6277   -0.8626    0.2038 N   0  0  0  0  0  0  0  0  0  0  0  0
   -2.3810   -0.2770   -0.1537 H   0  0  0  0  0  0  0  0  0  0  0  0
   -0.2968   -0.2475    0.3229 C   0  0  1  0  0  0  0  0  0  0  0  0
    0.2543   -0.7161    1.1453 H   0  0  0  0  0  0  0  0  0  0  0  0
    0.4808   -0.5297   -0.9950 C   0  0  0  0  0  0  0  0  0  0  0  0
    1.3669   -1.1137   -0.7246 H   0  0  0  0  0  0  0  0  0  0  0  0
   -0.1191   -1.1886   -1.6341 H   0  0  0  0  0  0  0  0  0  0  0  0
    0.9676    0.6809   -1.8359 C   0  0  0  0  0  0  0  0  0  0  0  0
    0.7693    1.6513   -1.3829 H   0  0  0  0  0  0  0  0  0  0  0  0
    2.0538    0.6125   -1.9466 H   0  0  0  0  0  0  0  0  0  0  0  0
    0.3589    0.6597   -3.2297 C   0  0  0  0  0  0  0  0  0  0  0  0
    0.7924   -0.0520   -4.1155 O   0  0  0  0  0  0  0  0  0  0  0  0
   -0.7709    1.3750   -3.5051 N   0  0  0  0  0  0  0  0  0  0  0  0
   -1.2435    1.1597   -4.3776 H   0  0  0  0  0  0  0  0  0  0  0  0
   -1.2770    1.8031   -2.7333 H   0  0  0  0  0  0  0  0  0  0  0  0
   -0.4743    1.2370    0.7052 C   0  0  0  0  0  0  0  0  0  0  0  0
   -1.3265    1.9113    0.1327 O   0  0  0  0  0  0  0  0  0  0  0  0
    0.3014    1.8105    1.6950 N   0  0  0  0  0  0  0  0  0  0  0  0
    0.9580    1.2098    2.1862 H   0  0  0  0  0  0  0  0  0  0  0  0
    0.1467    3.1921    2.1341 C   0  0  0  0  0  0  0  0  0  0  0  0
   -0.8535    3.3523    2.5501 H   0  0  0  0  0  0  0  0  0  0  0  0
    0.8849    3.4284    2.9067 H   0  0  0  0  0  0  0  0  0  0  0  0
    0.2943    3.8804    1.2952 H   0  0  0  0  0  0  0  0  0  0  0  0
  1  2  1  0  0  0  0
  2  3  1  0  0  0  0
  2  4  1  0  0  0  0
  2  5  1  0  0  0  0
  5  6  2  0  0  0  0
  5  7  1  0  0  0  0
  7  8  1  0  0  0  0
  7  9  1  0  0  0  0
  9 10  1  0  0  0  0
  9 11  1  0  0  0  0
  9 22  1  0  0  0  0
 11 12  1  0  0  0  0
 11 13  1  0  0  0  0
 11 14  1  0  0  0  0
 14 15  1  0  0  0  0
 14 16  1  0  0  0  0
 14 17  1  0  0  0  0
 17 18  2  0  0  0  0
 17 19  1  0  0  0  0
 19 20  1  0  0  0  0
 19 21  1  0  0  0  0
 22 23  2  0  0  0  0
 22 24  1  0  0  0  0
 24 25  1  0  0  0  0
 24 26  1  0  0  0  0
 26 27  1  0  0  0  0
 26 28  1  0  0  0  0
 26 29  1  0  0  0  0
M  END
$$$$

  -OEChem-04042215583D

 29 28  0     1  0  0  0  0  0999 V2000
   -3.5167   -3.5600    1.1232 H   0  0  0  0  0  0  0  0  0  0  0  0
   -3.4140   -2.5783    0.6523 C   0  0  0  0  0  0  0  0  0  0  0  0
   -4.0923   -1.8781    1.1457 H   0  0  0  0  0  0  0  0  0  0  0  0
   -3.6914   -2.6637   -0.4012 H   0  0  0  0  0  0  0  0  0  0  0  0
   -1.9835   -2.0872    0.7727 C   0  0  0  0  0  0  0  0  0  0  0  0
   -1.1544   -2.7560    1.3687 O   0  0  0  0  0  0  0  0  0  0  0  0
   -1.6228   -0.8800    0.2100 N   0  0  0  0  0  0  0  0  0  0  0  0
   -2.3619   -0.3183   -0.2092 H   0  0  0  0  0  0  0  0  0  0  0  0
   -0.2879   -0.2716    0.3182 C   0  0  1  0  0  0  0  0  0  0  0  0
    0.2672   -0.7220    1.1480 H   0  0  0  0  0  0  0  0  0  0  0  0
    0.4702   -0.5768   -1.0054 C   0  0  0  0  0  0  0  0  0  0  0  0
    1.3618   -1.1481   -0.7265 H   0  0  0  0  0  0  0  0  0  0  0  0
   -0.1245   -1.2470   -1.6377 H   0  0  0  0  0  0  0  0  0  0  0  0
    0.9496    0.6302   -1.8500 C   0  0  0  0  0  0  0  0  0  0  0  0
    1.0420    1.5620   -1.2909 H   0  0  0  0  0  0  0  0  0  0  0  0
    1.9533    0.4051   -2.2228 H   0  0  0  0  0  0  0  0  0  0  0  0
    0.0629    0.8253   -3.0703 C   0  0  0  0  0  0  0  0  0  0  0  0
    0.2355    0.2119   -4.1064 O   0  0  0  0  0  0  0  0  0  0  0  0
   -1.0314    1.6379   -2.9987 N   0  0  0  0  0  0  0  0  0  0  0  0
   -1.7044    1.5603   -3.7542 H   0  0  0  0  0  0  0  0  0  0  0  0
   -1.3253    1.9646   -2.0761 H   0  0  0  0  0  0  0  0  0  0  0  0
   -0.4692    1.2253    0.6517 C   0  0  0  0  0  0  0  0  0  0  0  0
   -1.2880    1.8915    0.0216 O   0  0  0  0  0  0  0  0  0  0  0  0
    0.2972    1.8308    1.6291 N   0  0  0  0  0  0  0  0  0  0  0  0
    0.9319    1.2420    2.1620 H   0  0  0  0  0  0  0  0  0  0  0  0
    0.1678    3.2370    1.9923 C   0  0  0  0  0  0  0  0  0  0  0  0
   -0.8369    3.4436    2.3756 H   0  0  0  0  0  0  0  0  0  0  0  0
    0.8942    3.4954    2.7689 H   0  0  0  0  0  0  0  0  0  0  0  0
    0.3519    3.8763    1.1224 H   0  0  0  0  0  0  0  0  0  0  0  0
  1  2  1  0  0  0  0
  2  3  1  0  0  0  0
  2  4  1  0  0  0  0
  2  5  1  0  0  0  0
  5  6  2  0  0  0  0
  5  7  1  0  0  0  0
  7  8  1  0  0  0  0
  7  9  1  0  0  0  0
  9 10  1  0  0  0  0
  9 11  1  0  0  0  0
  9 22  1  0  0  0  0
 11 12  1  0  0  0  0
 11 13  1  0  0  0  0
 11 14  1  0  0  0  0
 14 15  1  0  0  0  0
 14 16  1  0  0  0  0
 14 17  1  0  0  0  0
 17 18  2  0  0  0  0
 17 19  1  0  0  0  0
 19 20  1  0  0  0  0
 19 21  1  0  0  0  0
 22 23  2  0  0  0  0
 22 24  1  0  0  0  0
 24 25  1  0  0  0  0
 24 26  1  0  0  0  0
 26 27  1  0  0  0  0
 26 28  1  0  0  0  0
 26 29  1  0  0  0  0
M  END
$$$$

  -OEChem-04042215583D

 29 28  0     1  0  0  0  0  0999 V2000
   -3.4721   -3.5799    1.2267 H   0  0  0  0  0  0  0  0  0  0  0  0
   -3.3996   -2.6126    0.7217 C   0  0  0  0  0  0  0  0  0  0  0  0
   -4.0880   -1.9123    1.2009 H   0  0  0  0  0  0  0  0  0  0  0  0
   -3.6884   -2.7394   -0.3247 H   0  0  0  0  0  0  0  0  0  0  0  0
   -1.9802   -2.0841    0.8058 C   0  0  0  0  0  0  0  0  0  0  0  0
   -1.1191   -2.7311    1.3806 O   0  0  0  0  0  0  0  0  0  0  0  0
   -1.6667   -0.8686    0.2326 N   0  0  0  0  0  0  0  0  0  0  0  0
   -2.4307   -0.3326   -0.1758 H   0  0  0  0  0  0  0  0  0  0  0  0
   -0.3473   -0.2235    0.3008 C   0  0  1  0  0  0  0  0  0  0  0  0
    0.2068   -0.6556    1.1409 H   0  0  0  0  0  0  0  0  0  0  0  0
    0.4405   -0.5775   -0.9910 C   0  0  0  0  0  0  0  0  0  0  0  0
    1.3473   -1.1014   -0.6708 H   0  0  0  0  0  0  0  0  0  0  0  0
   -0.1257   -1.2971   -1.5941 H   0  0  0  0  0  0  0  0  0  0  0  0
    0.8891    0.5922   -1.8956 C   0  0  0  0  0  0  0  0  0  0  0  0
    1.1619    1.4826   -1.3250 H   0  0  0  0  0  0  0  0  0  0  0  0
    1.7883    0.2836   -2.4373 H   0  0  0  0  0  0  0  0  0  0  0  0
   -0.1684    0.9304   -2.9428 C   0  0  0  0  0  0  0  0  0  0  0  0
   -0.2582    0.2984   -3.9782 O   0  0  0  0  0  0  0  0  0  0  0  0
   -1.0936    1.9153   -2.7597 N   0  0  0  0  0  0  0  0  0  0  0  0
   -1.8677    1.9108   -3.4155 H   0  0  0  0  0  0  0  0  0  0  0  0
   -1.2519    2.2363   -1.8023 H   0  0  0  0  0  0  0  0  0  0  0  0
   -0.4846    1.2771    0.6357 C   0  0  0  0  0  0  0  0  0  0  0  0
   -1.3540    1.9531    0.0952 O   0  0  0  0  0  0  0  0  0  0  0  0
    0.3367    1.8630    1.5804 N   0  0  0  0  0  0  0  0  0  0  0  0
    0.9929    1.2606    2.0707 H   0  0  0  0  0  0  0  0  0  0  0  0
    0.2035    3.2509    2.0076 C   0  0  0  0  0  0  0  0  0  0  0  0
   -0.7688    3.4135    2.4843 H   0  0  0  0  0  0  0  0  0  0  0  0
    0.9885    3.5017    2.7275 H   0  0  0  0  0  0  0  0  0  0  0  0
    0.2935    3.9273    1.1511 H   0  0  0  0  0  0  0  0  0  0  0  0
  1  2  1  0  0  0  0
  2  3  1  0  0  0  0
  2  4  1  0  0  0  0
  2  5  1  0  0  0  0
  5  6  2  0  0  0  0
  5  7  1  0  0  0  0
  7  8  1  0  0  0  0
  7  9  1  0  0  0  0
  9 10  1  0  0  0  0
  9 11  1  0  0  0  0
  9 22  1  0  0  0  0
 11 12  1  0  0  0  0
 11 13  1  0  0  0  0
 11 14  1  0  0  0  0
 14 15  1  0  0  0  0
 14 16  1  0  0  0  0
 14 17  1  0  0  0  0
 17 18  2  0  0  0  0
 17 19  1  0  0  0  0
 19 20  1  0  0  0  0
 19 21  1  0  0  0  0
 22 23  2  0  0  0  0
 22 24  1  0  0  0  0
 24 25  1  0  0  0  0
 24 26  1  0  0  0  0
 26 27  1  0  0  0  0
 26 28  1  0  0  0  0
 26 29  1  0  0  0  0
M  END
$$$$

  -OEChem-04042215583D

 29 28  0     1  0  0  0  0  0999 V2000
   -3.4076   -3.6537    1.2916 H   0  0  0  0  0  0  0  0  0  0  0  0
   -3.3717   -2.6895    0.7768 C   0  0  0  0  0  0  0  0  0  0  0  0
   -4.0790   -2.0083    1.2559 H   0  0  0  0  0  0  0  0  0  0  0  0
   -3.6663   -2.8355   -0.2653 H   0  0  0  0  0  0  0  0  0  0  0  0
   -1.9697   -2.1129    0.8418 C   0  0  0  0  0  0  0  0  0  0  0  0
   -1.0760   -2.7364    1.3929 O   0  0  0  0  0  0  0  0  0  0  0  0
   -1.7095   -0.8826    0.2730 N   0  0  0  0  0  0  0  0  0  0  0  0
   -2.4953   -0.3835   -0.1403 H   0  0  0  0  0  0  0  0  0  0  0  0
   -0.4105   -0.1953    0.3008 C   0  0  1  0  0  0  0  0  0  0  0  0
    0.1521   -0.6141    1.1420 H   0  0  0  0  0  0  0  0  0  0  0  0
    0.4015   -0.5680   -0.9690 C   0  0  0  0  0  0  0  0  0  0  0  0
    1.3229   -1.0530   -0.6306 H   0  0  0  0  0  0  0  0  0  0  0  0
   -0.1458   -1.3214   -1.5477 H   0  0  0  0  0  0  0  0  0  0  0  0
    0.8113    0.5743   -1.9224 C   0  0  0  0  0  0  0  0  0  0  0  0
    1.2596    1.4030   -1.3686 H   0  0  0  0  0  0  0  0  0  0  0  0
    1.5747    0.2003   -2.6108 H   0  0  0  0  0  0  0  0  0  0  0  0
   -0.3567    1.0851   -2.7664 C   0  0  0  0  0  0  0  0  0  0  0  0
   -0.7785    0.4329   -3.7026 O   0  0  0  0  0  0  0  0  0  0  0  0
   -0.9709    2.2853   -2.5656 N   0  0  0  0  0  0  0  0  0  0  0  0
   -1.8182    2.4050   -3.1114 H   0  0  0  0  0  0  0  0  0  0  0  0
   -0.9761    2.6242   -1.6028 H   0  0  0  0  0  0  0  0  0  0  0  0
   -0.5229    1.3034    0.6515 C   0  0  0  0  0  0  0  0  0  0  0  0
   -1.4316    1.9871    0.1961 O   0  0  0  0  0  0  0  0  0  0  0  0
    0.3474    1.8718    1.5632 N   0  0  0  0  0  0  0  0  0  0  0  0
    1.0214    1.2574    2.0128 H   0  0  0  0  0  0  0  0  0  0  0  0
    0.2313    3.2470    2.0345 C   0  0  0  0  0  0  0  0  0  0  0  0
   -0.7068    3.3867    2.5821 H   0  0  0  0  0  0  0  0  0  0  0  0
    1.0627    3.4884    2.7039 H   0  0  0  0  0  0  0  0  0  0  0  0
    0.2557    3.9460    1.1917 H   0  0  0  0  0  0  0  0  0  0  0  0
  1  2  1  0  0  0  0
  2  3  1  0  0  0  0
  2  4  1  0  0  0  0
  2  5  1  0  0  0  0
  5  6  2  0  0  0  0
  5  7  1  0  0  0  0
  7  8  1  0  0  0  0
  7  9  1  0  0  0  0
  9 10  1  0  0  0  0
  9 11  1  0  0  0  0
  9 22  1  0  0  0  0
 11 12  1  0  0  0  0
 11 13  1  0  0  0  0
 11 14  1  0  0  0  0
 14 15  1  0  0  0  0
 14 16  1  0  0  0  0
 14 17  1  0  0  0  0
 17 18  2  0  0  0  0
 17 19  1  0  0  0  0
 19 20  1  0  0  0  0
 19 21  1  0  0  0  0
 22 23  2  0  0  0  0
 22 24  1  0  0  0  0
 24 25  1  0  0  0  0
 24 26  1  0  0  0  0
 26 27  1  0  0  0  0
 26 28  1  0  0  0  0
 26 29  1  0  0  0  0
M  END
$$$$

  -OEChem-04042215583D

 29 28  0     1  0  0  0  0  0999 V2000
   -3.3131   -3.7592    1.3354 H   0  0  0  0  0  0  0  0  0  0  0  0
   -3.3134   -2.7900    0.8290 C   0  0  0  0  0  0  0  0  0  0  0  0
   -4.0543   -2.1433    1.3053 H   0  0  0  0  0  0  0  0  0  0  0  0
   -3.5906   -2.9393   -0.2175 H   0  0  0  0  0  0  0  0  0  0  0  0
   -1.9389   -2.1535    0.9133 C   0  0  0  0  0  0  0  0  0  0  0  0
   -1.0265   -2.7385    1.4770 O   0  0  0  0  0  0  0  0  0  0  0  0
   -1.7229   -0.9172    0.3406 N   0  0  0  0  0  0  0  0  0  0  0  0
   -2.5102   -0.4736   -0.1318 H   0  0  0  0  0  0  0  0  0  0  0  0
   -0.4412   -0.1998    0.3196 C   0  0  1  0  0  0  0  0  0  0  0  0
    0.1566   -0.6054    1.1424 H   0  0  0  0  0  0  0  0  0  0  0  0
    0.3391   -0.5705   -0.9719 C   0  0  0  0  0  0  0  0  0  0  0  0
    1.2776   -1.0460   -0.6691 H   0  0  0  0  0  0  0  0  0  0  0  0
   -0.2256   -1.3294   -1.5258 H   0  0  0  0  0  0  0  0  0  0  0  0
    0.6896    0.5695   -1.9514 C   0  0  0  0  0  0  0  0  0  0  0  0
    1.3373    1.2946   -1.4516 H   0  0  0  0  0  0  0  0  0  0  0  0
    1.2474    0.1591   -2.7976 H   0  0  0  0  0  0  0  0  0  0  0  0
   -0.5420    1.2913   -2.4982 C   0  0  0  0  0  0  0  0  0  0  0  0
   -1.4855    0.6725   -2.9560 O   0  0  0  0  0  0  0  0  0  0  0  0
   -0.6409    2.6522   -2.5286 N   0  0  0  0  0  0  0  0  0  0  0  0
   -1.5886    2.9824   -2.6870 H   0  0  0  0  0  0  0  0  0  0  0  0
   -0.0640    3.1620   -1.8691 H   0  0  0  0  0  0  0  0  0  0  0  0
   -0.5642    1.2981    0.6780 C   0  0  0  0  0  0  0  0  0  0  0  0
   -1.5134    1.9679    0.2924 O   0  0  0  0  0  0  0  0  0  0  0  0
    0.3377    1.8729    1.5556 N   0  0  0  0  0  0  0  0  0  0  0  0
    1.0252    1.2577    1.9825 H   0  0  0  0  0  0  0  0  0  0  0  0
    0.1862    3.2232    2.0856 C   0  0  0  0  0  0  0  0  0  0  0  0
   -0.7412    3.3072    2.6620 H   0  0  0  0  0  0  0  0  0  0  0  0
    1.0261    3.4679    2.7430 H   0  0  0  0  0  0  0  0  0  0  0  0
    0.1623    3.9550    1.2713 H   0  0  0  0  0  0  0  0  0  0  0  0
  1  2  1  0  0  0  0
  2  3  1  0  0  0  0
  2  4  1  0  0  0  0
  2  5  1  0  0  0  0
  5  6  2  0  0  0  0
  5  7  1  0  0  0  0
  7  8  1  0  0  0  0
  7  9  1  0  0  0  0
  9 10  1  0  0  0  0
  9 11  1  0  0  0  0
  9 22  1  0  0  0  0
 11 12  1  0  0  0  0
 11 13  1  0  0  0  0
 11 14  1  0  0  0  0
 14 15  1  0  0  0  0
 14 16  1  0  0  0  0
 14 17  1  0  0  0  0
 17 18  2  0  0  0  0
 17 19  1  0  0  0  0
 19 20  1  0  0  0  0
 19 21  1  0  0  0  0
 22 23  2  0  0  0  0
 22 24  1  0  0  0  0
 24 25  1  0  0  0  0
 24 26  1  0  0  0  0
 26 27  1  0  0  0  0
 26 28  1  0  0  0  0
 26 29  1  0  0  0  0
M  END
$$$$

  -OEChem-04042215583D

 29 28  0     1  0  0  0  0  0999 V2000
   -3.2337   -3.7827    1.4480 H   0  0  0  0  0  0  0  0  0  0  0  0
   -3.2769   -2.8129    0.9446 C   0  0  0  0  0  0  0  0  0  0  0  0
   -3.9802   -2.1696    1.4789 H   0  0  0  0  0  0  0  0  0  0  0  0
   -3.6341   -2.9616   -0.0774 H   0  0  0  0  0  0  0  0  0  0  0  0
   -1.9019   -2.1724    0.9232 C   0  0  0  0  0  0  0  0  0  0  0  0
   -0.9427   -2.7680    1.3900 O   0  0  0  0  0  0  0  0  0  0  0  0
   -1.7379   -0.9205    0.3673 N   0  0  0  0  0  0  0  0  0  0  0  0
   -2.5682   -0.4526    0.0042 H   0  0  0  0  0  0  0  0  0  0  0  0
   -0.4730   -0.1766    0.3013 C   0  0  1  0  0  0  0  0  0  0  0  0
    0.1467   -0.5768    1.1105 H   0  0  0  0  0  0  0  0  0  0  0  0
    0.3067   -0.5420   -0.9945 C   0  0  0  0  0  0  0  0  0  0  0  0
    1.2488   -1.0151   -0.6989 H   0  0  0  0  0  0  0  0  0  0  0  0
   -0.2686   -1.3089   -1.5256 H   0  0  0  0  0  0  0  0  0  0  0  0
    0.6398    0.5587   -2.0284 C   0  0  0  0  0  0  0  0  0  0  0  0
    1.4662    1.1601   -1.6407 H   0  0  0  0  0  0  0  0  0  0  0  0
    0.9844    0.0905   -2.9546 H   0  0  0  0  0  0  0  0  0  0  0  0
   -0.5123    1.5005   -2.3665 C   0  0  0  0  0  0  0  0  0  0  0  0
   -1.5577    1.0660   -2.8119 O   0  0  0  0  0  0  0  0  0  0  0  0
   -0.4203    2.8568   -2.2374 N   0  0  0  0  0  0  0  0  0  0  0  0
   -1.3223    3.3253   -2.2508 H   0  0  0  0  0  0  0  0  0  0  0  0
    0.2986    3.2150   -1.6198 H   0  0  0  0  0  0  0  0  0  0  0  0
   -0.6038    1.3111    0.6956 C   0  0  0  0  0  0  0  0  0  0  0  0
   -1.6116    1.9510    0.4249 O   0  0  0  0  0  0  0  0  0  0  0  0
    0.3310    1.8832    1.5403 N   0  0  0  0  0  0  0  0  0  0  0  0
    1.0618    1.2759    1.9014 H   0  0  0  0  0  0  0  0  0  0  0  0
    0.1636    3.2030    2.1382 C   0  0  0  0  0  0  0  0  0  0  0  0
   -0.7216    3.2223    2.7829 H   0  0  0  0  0  0  0  0  0  0  0  0
    1.0390    3.4580    2.7433 H   0  0  0  0  0  0  0  0  0  0  0  0
    0.0497    3.9653    1.3603 H   0  0  0  0  0  0  0  0  0  0  0  0
  1  2  1  0  0  0  0
  2  3  1  0  0  0  0
  2  4  1  0  0  0  0
  2  5  1  0  0  0  0
  5  6  2  0  0  0  0
  5  7  1  0  0  0  0
  7  8  1  0  0  0  0
  7  9  1  0  0  0  0
  9 10  1  0  0  0  0
  9 11  1  0  0  0  0
  9 22  1  0  0  0  0
 11 12  1  0  0  0  0
 11 13  1  0  0  0  0
 11 14  1  0  0  0  0
 14 15  1  0  0  0  0
 14 16  1  0  0  0  0
 14 17  1  0  0  0  0
 17 18  2  0  0  0  0
 17 19  1  0  0  0  0
 19 20  1  0  0  0  0
 19 21  1  0  0  0  0
 22 23  2  0  0  0  0
 22 24  1  0  0  0  0
 24 25  1  0  0  0  0
 24 26  1  0  0  0  0
 26 27  1  0  0  0  0
 26 28  1  0  0  0  0
 26 29  1  0  0  0  0
M  END
$$$$

  -OEChem-04042215583D

 29 28  0     1  0  0  0  0  0999 V2000
   -3.1470   -3.7765    1.6146 H   0  0  0  0  0  0  0  0  0  0  0  0
   -3.2251   -2.8127    1.1037 C   0  0  0  0  0  0  0  0  0  0  0  0
   -3.8930   -2.1637    1.6753 H   0  0  0  0  0  0  0  0  0  0  0  0
   -3.6478   -2.9733    0.1090 H   0  0  0  0  0  0  0  0  0  0  0  0
   -1.8560   -2.1709    0.9856 C   0  0  0  0  0  0  0  0  0  0  0  0
   -0.8673   -2.7549    1.4025 O   0  0  0  0  0  0  0  0  0  0  0  0
   -1.7312   -0.9257    0.4054 N   0  0  0  0  0  0  0  0  0  0  0  0
   -2.5872   -0.4533    0.1146 H   0  0  0  0  0  0  0  0  0  0  0  0
   -0.4833   -0.1563    0.3083 C   0  0  1  0  0  0  0  0  0  0  0  0
    0.1511   -0.5217    1.1227 H   0  0  0  0  0  0  0  0  0  0  0  0
    0.3015   -0.5396   -0.9822 C   0  0  0  0  0  0  0  0  0  0  0  0
    1.2440   -1.0040   -0.6734 H   0  0  0  0  0  0  0  0  0  0  0  0
   -0.2733   -1.3288   -1.4795 H   0  0  0  0  0  0  0  0  0  0  0  0
    0.6366    0.4973   -2.0864 C   0  0  0  0  0  0  0  0  0  0  0  0
    1.6105    0.9343   -1.8499 H   0  0  0  0  0  0  0  0  0  0  0  0
    0.7468   -0.0263   -3.0405 H   0  0  0  0  0  0  0  0  0  0  0  0
   -0.3329    1.6554   -2.2929 C   0  0  0  0  0  0  0  0  0  0  0  0
   -1.4008    1.4738   -2.8445 O   0  0  0  0  0  0  0  0  0  0  0  0
   -0.0314    2.9444   -1.9555 N   0  0  0  0  0  0  0  0  0  0  0  0
   -0.8427    3.5570   -1.9293 H   0  0  0  0  0  0  0  0  0  0  0  0
    0.7112    3.0915   -1.2821 H   0  0  0  0  0  0  0  0  0  0  0  0
   -0.6643    1.3291    0.6832 C   0  0  0  0  0  0  0  0  0  0  0  0
   -1.7112    1.9132    0.4365 O   0  0  0  0  0  0  0  0  0  0  0  0
    0.2577    1.9474    1.5095 N   0  0  0  0  0  0  0  0  0  0  0  0
    1.0111    1.3696    1.8726 H   0  0  0  0  0  0  0  0  0  0  0  0
    0.0247    3.2498    2.1233 C   0  0  0  0  0  0  0  0  0  0  0  0
   -0.8366    3.2060    2.7983 H   0  0  0  0  0  0  0  0  0  0  0  0
    0.9023    3.5587    2.6995 H   0  0  0  0  0  0  0  0  0  0  0  0
   -0.1672    4.0075    1.3564 H   0  0  0  0  0  0  0  0  0  0  0  0
  1  2  1  0  0  0  0
  2  3  1  0  0  0  0
  2  4  1  0  0  0  0
  2  5  1  0  0  0  0
  5  6  2  0  0  0  0
  5  7  1  0  0  0  0
  7  8  1  0  0  0  0
  7  9  1  0  0  0  0
  9 10  1  0  0  0  0
  9 11  1  0  0  0  0
  9 22  1  0  0  0  0
 11 12  1  0  0  0  0
 11 13  1  0  0  0  0
 11 14  1  0  0  0  0
 14 15  1  0  0  0  0
 14 16  1  0  0  0  0
 14 17  1  0  0  0  0
 17 18  2  0  0  0  0
 17 19  1  0  0  0  0
 19 20  1  0  0  0  0
 19 21  1  0  0  0  0
 22 23  2  0  0  0  0
 22 24  1  0  0  0  0
 24 25  1  0  0  0  0
 24 26  1  0  0  0  0
 26 27  1  0  0  0  0
 26 28  1  0  0  0  0
 26 29  1  0  0  0  0
M  END
$$$$

  -OEChem-04042215583D

 29 28  0     1  0  0  0  0  0999 V2000
   -3.5825   -3.5155    1.1880 H   0  0  0  0  0  0  0  0  0  0  0  0
   -3.5037   -2.5086    0.7683 C   0  0  0  0  0  0  0  0  0  0  0  0
   -4.1030   -1.8261    1.3760 H   0  0  0  0  0  0  0  0  0  0  0  0
   -3.8977   -2.5196   -0.2508 H   0  0  0  0  0  0  0  0  0  0  0  0
   -2.0551   -2.0583    0.7581 C   0  0  0  0  0  0  0  0  0  0  0  0
   -1.1792   -2.8031    1.1687 O   0  0  0  0  0  0  0  0  0  0  0  0
   -1.7282   -0.8102    0.2692 N   0  0  0  0  0  0  0  0  0  0  0  0
   -2.5048   -0.1774    0.0772 H   0  0  0  0  0  0  0  0  0  0  0  0
   -0.4082   -0.1800    0.4345 C   0  0  1  0  0  0  0  0  0  0  0  0
    0.0748   -0.6402    1.3038 H   0  0  0  0  0  0  0  0  0  0  0  0
    0.4967   -0.5326   -0.7884 C   0  0  0  0  0  0  0  0  0  0  0  0
    1.3288   -1.1303   -0.4005 H   0  0  0  0  0  0  0  0  0  0  0  0
   -0.0793   -1.2124   -1.4258 H   0  0  0  0  0  0  0  0  0  0  0  0
    1.1157    0.5256   -1.7472 C   0  0  0  0  0  0  0  0  0  0  0  0
    2.1837    0.5878   -1.5164 H   0  0  0  0  0  0  0  0  0  0  0  0
    1.0406    0.1472   -2.7707 H   0  0  0  0  0  0  0  0  0  0  0  0
    0.5952    1.9567   -1.7480 C   0  0  0  0  0  0  0  0  0  0  0  0
    1.2338    2.8547   -1.2317 O   0  0  0  0  0  0  0  0  0  0  0  0
   -0.5682    2.3059   -2.3696 N   0  0  0  0  0  0  0  0  0  0  0  0
   -1.2345    1.5619   -2.5432 H   0  0  0  0  0  0  0  0  0  0  0  0
   -0.9255    3.2138   -2.0839 H   0  0  0  0  0  0  0  0  0  0  0  0
   -0.6018    1.2935    0.8545 C   0  0  0  0  0  0  0  0  0  0  0  0
   -1.5894    1.9001    0.4465 O   0  0  0  0  0  0  0  0  0  0  0  0
    0.1540    1.8430    1.8722 N   0  0  0  0  0  0  0  0  0  0  0  0
    0.9911    1.3390    2.1497 H   0  0  0  0  0  0  0  0  0  0  0  0
    0.0198    3.2358    2.2812 C   0  0  0  0  0  0  0  0  0  0  0  0
   -0.9924    3.4326    2.6493 H   0  0  0  0  0  0  0  0  0  0  0  0
    0.7281    3.4639    3.0832 H   0  0  0  0  0  0  0  0  0  0  0  0
    0.2251    3.9033    1.4373 H   0  0  0  0  0  0  0  0  0  0  0  0
  1  2  1  0  0  0  0
  2  3  1  0  0  0  0
  2  4  1  0  0  0  0
  2  5  1  0  0  0  0
  5  6  2  0  0  0  0
  5  7  1  0  0  0  0
  7  8  1  0  0  0  0
  7  9  1  0  0  0  0
  9 10  1  0  0  0  0
  9 11  1  0  0  0  0
  9 22  1  0  0  0  0
 11 12  1  0  0  0  0
 11 13  1  0  0  0  0
 11 14  1  0  0  0  0
 14 15  1  0  0  0  0
 14 16  1  0  0  0  0
 14 17  1  0  0  0  0
 17 18  2  0  0  0  0
 17 19  1  0  0  0  0
 19 20  1  0  0  0  0
 19 21  1  0  0  0  0
 22 23  2  0  0  0  0
 22 24  1  0  0  0  0
 24 25  1  0  0  0  0
 24 26  1  0  0  0  0
 26 27  1  0  0  0  0
 26 28  1  0  0  0  0
 26 29  1  0  0  0  0
M  END
$$$$

  -OEChem-04042215583D

 29 28  0     1  0  0  0  0  0999 V2000
   -3.3609   -3.7781    0.7760 H   0  0  0  0  0  0  0  0  0  0  0  0
   -3.3273   -2.7433    0.4238 C   0  0  0  0  0  0  0  0  0  0  0  0
   -3.9724   -2.1338    1.0611 H   0  0  0  0  0  0  0  0  0  0  0  0
   -3.7013   -2.7077   -0.6022 H   0  0  0  0  0  0  0  0  0  0  0  0
   -1.9043   -2.2201    0.4750 C   0  0  0  0  0  0  0  0  0  0  0  0
   -0.9911   -2.9606    0.8038 O   0  0  0  0  0  0  0  0  0  0  0  0
   -1.6435   -0.9085    0.1350 N   0  0  0  0  0  0  0  0  0  0  0  0
   -2.4510   -0.2994    0.0039 H   0  0  0  0  0  0  0  0  0  0  0  0
   -0.3537   -0.2364    0.3632 C   0  0  1  0  0  0  0  0  0  0  0  0
    0.1776   -0.7699    1.1591 H   0  0  0  0  0  0  0  0  0  0  0  0
    0.5199   -0.3829   -0.9249 C   0  0  0  0  0  0  0  0  0  0  0  0
    1.3977   -0.9623   -0.6183 H   0  0  0  0  0  0  0  0  0  0  0  0
   -0.0236   -1.0289   -1.6233 H   0  0  0  0  0  0  0  0  0  0  0  0
    1.0669    0.8081   -1.7687 C   0  0  0  0  0  0  0  0  0  0  0  0
    2.1560    0.7123   -1.8143 H   0  0  0  0  0  0  0  0  0  0  0  0
    0.7041    0.6847   -2.7929 H   0  0  0  0  0  0  0  0  0  0  0  0
    0.7707    2.2468   -1.3681 C   0  0  0  0  0  0  0  0  0  0  0  0
    1.5189    2.8526   -0.6235 O   0  0  0  0  0  0  0  0  0  0  0  0
   -0.3066    2.9332   -1.8478 N   0  0  0  0  0  0  0  0  0  0  0  0
   -0.5180    3.7792   -1.3264 H   0  0  0  0  0  0  0  0  0  0  0  0
   -1.0832    2.3780   -2.1908 H   0  0  0  0  0  0  0  0  0  0  0  0
   -0.6376    1.1613    0.9548 C   0  0  0  0  0  0  0  0  0  0  0  0
   -1.6392    1.7719    0.5875 O   0  0  0  0  0  0  0  0  0  0  0  0
    0.0902    1.6345    2.0299 N   0  0  0  0  0  0  0  0  0  0  0  0
    0.9644    1.1585    2.2340 H   0  0  0  0  0  0  0  0  0  0  0  0
   -0.1059    2.9699    2.5805 C   0  0  0  0  0  0  0  0  0  0  0  0
   -1.1381    3.0981    2.9230 H   0  0  0  0  0  0  0  0  0  0  0  0
    0.5606    3.1282    3.4336 H   0  0  0  0  0  0  0  0  0  0  0  0
    0.1133    3.7305    1.8236 H   0  0  0  0  0  0  0  0  0  0  0  0
  1  2  1  0  0  0  0
  2  3  1  0  0  0  0
  2  4  1  0  0  0  0
  2  5  1  0  0  0  0
  5  6  2  0  0  0  0
  5  7  1  0  0  0  0
  7  8  1  0  0  0  0
  7  9  1  0  0  0  0
  9 10  1  0  0  0  0
  9 11  1  0  0  0  0
  9 22  1  0  0  0  0
 11 12  1  0  0  0  0
 11 13  1  0  0  0  0
 11 14  1  0  0  0  0
 14 15  1  0  0  0  0
 14 16  1  0  0  0  0
 14 17  1  0  0  0  0
 17 18  2  0  0  0  0
 17 19  1  0  0  0  0
 19 20  1  0  0  0  0
 19 21  1  0  0  0  0
 22 23  2  0  0  0  0
 22 24  1  0  0  0  0
 24 25  1  0  0  0  0
 24 26  1  0  0  0  0
 26 27  1  0  0  0  0
 26 28  1  0  0  0  0
 26 29  1  0  0  0  0
M  END
$$$$

  -OEChem-04042215583D

 29 28  0     1  0  0  0  0  0999 V2000
   -3.2037   -3.8565    1.0036 H   0  0  0  0  0  0  0  0  0  0  0  0
   -3.2046   -2.8360    0.6102 C   0  0  0  0  0  0  0  0  0  0  0  0
   -3.8535   -2.2183    1.2360 H   0  0  0  0  0  0  0  0  0  0  0  0
   -3.5987   -2.8510   -0.4088 H   0  0  0  0  0  0  0  0  0  0  0  0
   -1.7958   -2.2738    0.6119 C   0  0  0  0  0  0  0  0  0  0  0  0
   -0.8593   -2.9712    0.9675 O   0  0  0  0  0  0  0  0  0  0  0  0
   -1.5755   -0.9742    0.2047 N   0  0  0  0  0  0  0  0  0  0  0  0
   -2.3989   -0.3968    0.0348 H   0  0  0  0  0  0  0  0  0  0  0  0
   -0.2987   -0.2607    0.3701 C   0  0  1  0  0  0  0  0  0  0  0  0
    0.2847   -0.7432    1.1620 H   0  0  0  0  0  0  0  0  0  0  0  0
    0.5070   -0.4176   -0.9599 C   0  0  0  0  0  0  0  0  0  0  0  0
    1.4241   -0.9413   -0.6690 H   0  0  0  0  0  0  0  0  0  0  0  0
   -0.0301   -1.1127   -1.6146 H   0  0  0  0  0  0  0  0  0  0  0  0
    0.9754    0.7695   -1.8524 C   0  0  0  0  0  0  0  0  0  0  0  0
    1.9889    0.5560   -2.2050 H   0  0  0  0  0  0  0  0  0  0  0  0
    0.3341    0.7815   -2.7380 H   0  0  0  0  0  0  0  0  0  0  0  0
    0.9729    2.1899   -1.3026 C   0  0  0  0  0  0  0  0  0  0  0  0
    1.8473    2.5637   -0.5430 O   0  0  0  0  0  0  0  0  0  0  0  0
    0.0168    3.1065   -1.6315 N   0  0  0  0  0  0  0  0  0  0  0  0
    0.0145    3.9303   -1.0380 H   0  0  0  0  0  0  0  0  0  0  0  0
   -0.8787    2.7345   -1.9330 H   0  0  0  0  0  0  0  0  0  0  0  0
   -0.6310    1.1500    0.9018 C   0  0  0  0  0  0  0  0  0  0  0  0
   -1.6290    1.7312    0.4801 O   0  0  0  0  0  0  0  0  0  0  0  0
    0.0920    1.7030    1.9412 N   0  0  0  0  0  0  0  0  0  0  0  0
    0.9851    1.2671    2.1554 H   0  0  0  0  0  0  0  0  0  0  0  0
   -0.1436    3.0543    2.4334 C   0  0  0  0  0  0  0  0  0  0  0  0
   -1.1831    3.1708    2.7576 H   0  0  0  0  0  0  0  0  0  0  0  0
    0.5075    3.2625    3.2879 H   0  0  0  0  0  0  0  0  0  0  0  0
    0.0674    3.7886    1.6490 H   0  0  0  0  0  0  0  0  0  0  0  0
  1  2  1  0  0  0  0
  2  3  1  0  0  0  0
  2  4  1  0  0  0  0
  2  5  1  0  0  0  0
  5  6  2  0  0  0  0
  5  7  1  0  0  0  0
  7  8  1  0  0  0  0
  7  9  1  0  0  0  0
  9 10  1  0  0  0  0
  9 11  1  0  0  0  0
  9 22  1  0  0  0  0
 11 12  1  0  0  0  0
 11 13  1  0  0  0  0
 11 14  1  0  0  0  0
 14 15  1  0  0  0  0
 14 16  1  0  0  0  0
 14 17  1  0  0  0  0
 17 18  2  0  0  0  0
 17 19  1  0  0  0  0
 19 20  1  0  0  0  0
 19 21  1  0  0  0  0
 22 23  2  0  0  0  0
 22 24  1  0  0  0  0
 24 25  1  0  0  0  0
 24 26  1  0  0  0  0
 26 27  1  0  0  0  0
 26 28  1  0  0  0  0
 26 29  1  0  0  0  0
M  END
$$$$

  -OEChem-04042215583D

 29 28  0     1  0  0  0  0  0999 V2000
   -3.4256   -3.6502    1.3092 H   0  0  0  0  0  0  0  0  0  0  0  0
   -3.3653   -2.6769    0.8138 C   0  0  0  0  0  0  0  0  0  0  0  0
   -3.9964   -1.9678    1.3551 H   0  0  0  0  0  0  0  0  0  0  0  0
   -3.7364   -2.7782   -0.2089 H   0  0  0  0  0  0  0  0  0  0  0  0
   -1.9295   -2.1868    0.7969 C   0  0  0  0  0  0  0  0  0  0  0  0
   -1.0352   -2.9011    1.2205 O   0  0  0  0  0  0  0  0  0  0  0  0
   -1.6374   -0.9359    0.2939 N   0  0  0  0  0  0  0  0  0  0  0  0
   -2.4254   -0.3341    0.0566 H   0  0  0  0  0  0  0  0  0  0  0  0
   -0.3185   -0.2888    0.3851 C   0  0  1  0  0  0  0  0  0  0  0  0
    0.2686   -0.7509    1.1867 H   0  0  0  0  0  0  0  0  0  0  0  0
    0.4198   -0.5595   -0.9639 C   0  0  0  0  0  0  0  0  0  0  0  0
    1.3220   -1.1148   -0.6853 H   0  0  0  0  0  0  0  0  0  0  0  0
   -0.1785   -1.2484   -1.5700 H   0  0  0  0  0  0  0  0  0  0  0  0
    0.9032    0.5766   -1.9067 C   0  0  0  0  0  0  0  0  0  0  0  0
    1.7449    0.2075   -2.4997 H   0  0  0  0  0  0  0  0  0  0  0  0
    0.0887    0.7855   -2.6059 H   0  0  0  0  0  0  0  0  0  0  0  0
    1.3095    1.9118   -1.2946 C   0  0  0  0  0  0  0  0  0  0  0  0
    2.2590    1.9892   -0.5367 O   0  0  0  0  0  0  0  0  0  0  0  0
    0.6153    3.0652   -1.5187 N   0  0  0  0  0  0  0  0  0  0  0  0
    0.8586    3.8251   -0.8913 H   0  0  0  0  0  0  0  0  0  0  0  0
   -0.3585    2.9593   -1.7899 H   0  0  0  0  0  0  0  0  0  0  0  0
   -0.5661    1.1724    0.8177 C   0  0  0  0  0  0  0  0  0  0  0  0
   -1.5007    1.7996    0.3234 O   0  0  0  0  0  0  0  0  0  0  0  0
    0.2039    1.7589    1.8039 N   0  0  0  0  0  0  0  0  0  0  0  0
    1.0702    1.2828    2.0455 H   0  0  0  0  0  0  0  0  0  0  0  0
    0.0468    3.1480    2.2152 C   0  0  0  0  0  0  0  0  0  0  0  0
   -0.9814    3.3390    2.5399 H   0  0  0  0  0  0  0  0  0  0  0  0
    0.7172    3.3709    3.0508 H   0  0  0  0  0  0  0  0  0  0  0  0
    0.2875    3.8231    1.3880 H   0  0  0  0  0  0  0  0  0  0  0  0
  1  2  1  0  0  0  0
  2  3  1  0  0  0  0
  2  4  1  0  0  0  0
  2  5  1  0  0  0  0
  5  6  2  0  0  0  0
  5  7  1  0  0  0  0
  7  8  1  0  0  0  0
  7  9  1  0  0  0  0
  9 10  1  0  0  0  0
  9 11  1  0  0  0  0
  9 22  1  0  0  0  0
 11 12  1  0  0  0  0
 11 13  1  0  0  0  0
 11 14  1  0  0  0  0
 14 15  1  0  0  0  0
 14 16  1  0  0  0  0
 14 17  1  0  0  0  0
 17 18  2  0  0  0  0
 17 19  1  0  0  0  0
 19 20  1  0  0  0  0
 19 21  1  0  0  0  0
 22 23  2  0  0  0  0
 22 24  1  0  0  0  0
 24 25  1  0  0  0  0
 24 26  1  0  0  0  0
 26 27  1  0  0  0  0
 26 28  1  0  0  0  0
 26 29  1  0  0  0  0
M  END
$$$$

  -OEChem-04042215583D

 29 28  0     1  0  0  0  0  0999 V2000
   -3.4425   -3.6639    1.3000 H   0  0  0  0  0  0  0  0  0  0  0  0
   -3.3776   -2.6853    0.8161 C   0  0  0  0  0  0  0  0  0  0  0  0
   -4.0147   -1.9821    1.3578 H   0  0  0  0  0  0  0  0  0  0  0  0
   -3.7374   -2.7760   -0.2117 H   0  0  0  0  0  0  0  0  0  0  0  0
   -1.9422   -2.1937    0.8215 C   0  0  0  0  0  0  0  0  0  0  0  0
   -1.0621   -2.8842    1.3093 O   0  0  0  0  0  0  0  0  0  0  0  0
   -1.6368   -0.9658    0.2718 N   0  0  0  0  0  0  0  0  0  0  0  0
   -2.4175   -0.3836   -0.0292 H   0  0  0  0  0  0  0  0  0  0  0  0
   -0.3243   -0.3081    0.3757 C   0  0  1  0  0  0  0  0  0  0  0  0
    0.2443   -0.7358    1.2087 H   0  0  0  0  0  0  0  0  0  0  0  0
    0.4495   -0.6143   -0.9431 C   0  0  0  0  0  0  0  0  0  0  0  0
    1.3491   -1.1638   -0.6447 H   0  0  0  0  0  0  0  0  0  0  0  0
   -0.1379   -1.3044   -1.5582 H   0  0  0  0  0  0  0  0  0  0  0  0
    0.9223    0.5376   -1.8641 C   0  0  0  0  0  0  0  0  0  0  0  0
    1.6165    0.1376   -2.6083 H   0  0  0  0  0  0  0  0  0  0  0  0
    0.0482    0.9139   -2.4029 H   0  0  0  0  0  0  0  0  0  0  0  0
    1.5923    1.7253   -1.1813 C   0  0  0  0  0  0  0  0  0  0  0  0
    2.4551    1.5696   -0.3359 O   0  0  0  0  0  0  0  0  0  0  0  0
    1.2035    3.0116   -1.4201 N   0  0  0  0  0  0  0  0  0  0  0  0
    1.5550    3.6937   -0.7555 H   0  0  0  0  0  0  0  0  0  0  0  0
    0.2822    3.1484   -1.8260 H   0  0  0  0  0  0  0  0  0  0  0  0
   -0.5802    1.1731    0.7325 C   0  0  0  0  0  0  0  0  0  0  0  0
   -1.4746    1.7916    0.1611 O   0  0  0  0  0  0  0  0  0  0  0  0
    0.1611    1.8029    1.7141 N   0  0  0  0  0  0  0  0  0  0  0  0
    1.0152    1.3331    2.0086 H   0  0  0  0  0  0  0  0  0  0  0  0
   -0.0195    3.2019    2.0791 C   0  0  0  0  0  0  0  0  0  0  0  0
   -1.0509    3.3843    2.3989 H   0  0  0  0  0  0  0  0  0  0  0  0
    0.6478    3.4640    2.9059 H   0  0  0  0  0  0  0  0  0  0  0  0
    0.2075    3.8541    1.2301 H   0  0  0  0  0  0  0  0  0  0  0  0
  1  2  1  0  0  0  0
  2  3  1  0  0  0  0
  2  4  1  0  0  0  0
  2  5  1  0  0  0  0
  5  6  2  0  0  0  0
  5  7  1  0  0  0  0
  7  8  1  0  0  0  0
  7  9  1  0  0  0  0
  9 10  1  0  0  0  0
  9 11  1  0  0  0  0
  9 22  1  0  0  0  0
 11 12  1  0  0  0  0
 11 13  1  0  0  0  0
 11 14  1  0  0  0  0
 14 15  1  0  0  0  0
 14 16  1  0  0  0  0
 14 17  1  0  0  0  0
 17 18  2  0  0  0  0
 17 19  1  0  0  0  0
 19 20  1  0  0  0  0
 19 21  1  0  0  0  0
 22 23  2  0  0  0  0
 22 24  1  0  0  0  0
 24 25  1  0  0  0  0
 24 26  1  0  0  0  0
 26 27  1  0  0  0  0
 26 28  1  0  0  0  0
 26 29  1  0  0  0  0
M  END
$$$$

  -OEChem-04042215583D

 29 28  0     1  0  0  0  0  0999 V2000
   -3.4006   -3.7254    1.3603 H   0  0  0  0  0  0  0  0  0  0  0  0
   -3.3609   -2.7447    0.8779 C   0  0  0  0  0  0  0  0  0  0  0  0
   -3.9940   -2.0511    1.4365 H   0  0  0  0  0  0  0  0  0  0  0  0
   -3.7440   -2.8378   -0.1411 H   0  0  0  0  0  0  0  0  0  0  0  0
   -1.9328   -2.2339    0.8496 C   0  0  0  0  0  0  0  0  0  0  0  0
   -1.0333   -2.9103    1.3219 O   0  0  0  0  0  0  0  0  0  0  0  0
   -1.6575   -1.0071    0.2822 N   0  0  0  0  0  0  0  0  0  0  0  0
   -2.4531   -0.4363   -0.0007 H   0  0  0  0  0  0  0  0  0  0  0  0
   -0.3527   -0.3313    0.3510 C   0  0  1  0  0  0  0  0  0  0  0  0
    0.2365   -0.7486    1.1751 H   0  0  0  0  0  0  0  0  0  0  0  0
    0.4131   -0.6188   -0.9724 C   0  0  0  0  0  0  0  0  0  0  0  0
    1.3229   -1.1709   -0.7115 H   0  0  0  0  0  0  0  0  0  0  0  0
   -0.1860   -1.2910   -1.5957 H   0  0  0  0  0  0  0  0  0  0  0  0
    0.8227    0.5872   -1.8483 C   0  0  0  0  0  0  0  0  0  0  0  0
    1.3276    0.2191   -2.7453 H   0  0  0  0  0  0  0  0  0  0  0  0
   -0.0821    1.1099   -2.1717 H   0  0  0  0  0  0  0  0  0  0  0  0
    1.7519    1.5891   -1.1646 C   0  0  0  0  0  0  0  0  0  0  0  0
    2.4905    1.2760   -0.2470 O   0  0  0  0  0  0  0  0  0  0  0  0
    1.7500    2.9104   -1.5062 N   0  0  0  0  0  0  0  0  0  0  0  0
    2.2376    3.5306   -0.8668 H   0  0  0  0  0  0  0  0  0  0  0  0
    0.9714    3.2620   -2.0547 H   0  0  0  0  0  0  0  0  0  0  0  0
   -0.5961    1.1547    0.7000 C   0  0  0  0  0  0  0  0  0  0  0  0
   -1.5163    1.7651    0.1629 O   0  0  0  0  0  0  0  0  0  0  0  0
    0.1737    1.7900    1.6552 N   0  0  0  0  0  0  0  0  0  0  0  0
    1.0462    1.3267    1.9055 H   0  0  0  0  0  0  0  0  0  0  0  0
    0.0243    3.2010    1.9860 C   0  0  0  0  0  0  0  0  0  0  0  0
   -0.9959    3.4098    2.3250 H   0  0  0  0  0  0  0  0  0  0  0  0
    0.7155    3.4743    2.7890 H   0  0  0  0  0  0  0  0  0  0  0  0
    0.2410    3.8246    1.1128 H   0  0  0  0  0  0  0  0  0  0  0  0
  1  2  1  0  0  0  0
  2  3  1  0  0  0  0
  2  4  1  0  0  0  0
  2  5  1  0  0  0  0
  5  6  2  0  0  0  0
  5  7  1  0  0  0  0
  7  8  1  0  0  0  0
  7  9  1  0  0  0  0
  9 10  1  0  0  0  0
  9 11  1  0  0  0  0
  9 22  1  0  0  0  0
 11 12  1  0  0  0  0
 11 13  1  0  0  0  0
 11 14  1  0  0  0  0
 14 15  1  0  0  0  0
 14 16  1  0  0  0  0
 14 17  1  0  0  0  0
 17 18  2  0  0  0  0
 17 19  1  0  0  0  0
 19 20  1  0  0  0  0
 19 21  1  0  0  0  0
 22 23  2  0  0  0  0
 22 24  1  0  0  0  0
 24 25  1  0  0  0  0
 24 26  1  0  0  0  0
 26 27  1  0  0  0  0
 26 28  1  0  0  0  0
 26 29  1  0  0  0  0
M  END
$$$$

  -OEChem-04042215583D

 29 28  0     1  0  0  0  0  0999 V2000
   -3.3555   -3.7617    1.4486 H   0  0  0  0  0  0  0  0  0  0  0  0
   -3.3407   -2.8056    0.9179 C   0  0  0  0  0  0  0  0  0  0  0  0
   -3.9790   -2.0975    1.4520 H   0  0  0  0  0  0  0  0  0  0  0  0
   -3.7359   -2.9546   -0.0897 H   0  0  0  0  0  0  0  0  0  0  0  0
   -1.9229   -2.2717    0.8428 C   0  0  0  0  0  0  0  0  0  0  0  0
   -0.9958   -2.9447    1.2639 O   0  0  0  0  0  0  0  0  0  0  0  0
   -1.6889   -1.0302    0.2889 N   0  0  0  0  0  0  0  0  0  0  0  0
   -2.5045   -0.4658    0.0542 H   0  0  0  0  0  0  0  0  0  0  0  0
   -0.3963   -0.3294    0.3306 C   0  0  1  0  0  0  0  0  0  0  0  0
    0.2108   -0.7499    1.1398 H   0  0  0  0  0  0  0  0  0  0  0  0
    0.3737   -0.5794   -0.9940 C   0  0  0  0  0  0  0  0  0  0  0  0
    1.2932   -1.1293   -0.7639 H   0  0  0  0  0  0  0  0  0  0  0  0
   -0.2281   -1.2393   -1.6278 H   0  0  0  0  0  0  0  0  0  0  0  0
    0.7278    0.6710   -1.8306 C   0  0  0  0  0  0  0  0  0  0  0  0
    1.0316    0.3396   -2.8272 H   0  0  0  0  0  0  0  0  0  0  0  0
   -0.1528    1.3067   -1.9577 H   0  0  0  0  0  0  0  0  0  0  0  0
    1.8820    1.4935   -1.2558 C   0  0  0  0  0  0  0  0  0  0  0  0
    2.4740    1.1893   -0.2343 O   0  0  0  0  0  0  0  0  0  0  0  0
    2.2776    2.6596   -1.8440 N   0  0  0  0  0  0  0  0  0  0  0  0
    2.9131    3.2392   -1.3038 H   0  0  0  0  0  0  0  0  0  0  0  0
    1.6811    3.0771   -2.5507 H   0  0  0  0  0  0  0  0  0  0  0  0
   -0.6268    1.1511    0.7107 C   0  0  0  0  0  0  0  0  0  0  0  0
   -1.5994    1.7503    0.2604 O   0  0  0  0  0  0  0  0  0  0  0  0
    0.1786    1.7692    1.6474 N   0  0  0  0  0  0  0  0  0  0  0  0
    1.0813    1.3246    1.8123 H   0  0  0  0  0  0  0  0  0  0  0  0
    0.0303    3.1717    2.0132 C   0  0  0  0  0  0  0  0  0  0  0  0
   -0.9809    3.3673    2.3853 H   0  0  0  0  0  0  0  0  0  0  0  0
    0.7423    3.4317    2.8024 H   0  0  0  0  0  0  0  0  0  0  0  0
    0.2192    3.8151    1.1479 H   0  0  0  0  0  0  0  0  0  0  0  0
  1  2  1  0  0  0  0
  2  3  1  0  0  0  0
  2  4  1  0  0  0  0
  2  5  1  0  0  0  0
  5  6  2  0  0  0  0
  5  7  1  0  0  0  0
  7  8  1  0  0  0  0
  7  9  1  0  0  0  0
  9 10  1  0  0  0  0
  9 11  1  0  0  0  0
  9 22  1  0  0  0  0
 11 12  1  0  0  0  0
 11 13  1  0  0  0  0
 11 14  1  0  0  0  0
 14 15  1  0  0  0  0
 14 16  1  0  0  0  0
 14 17  1  0  0  0  0
 17 18  2  0  0  0  0
 17 19  1  0  0  0  0
 19 20  1  0  0  0  0
 19 21  1  0  0  0  0
 22 23  2  0  0  0  0
 22 24  1  0  0  0  0
 24 25  1  0  0  0  0
 24 26  1  0  0  0  0
 26 27  1  0  0  0  0
 26 28  1  0  0  0  0
 26 29  1  0  0  0  0
M  END
$$$$

  -OEChem-04042215583D

 29 28  0     1  0  0  0  0  0999 V2000
   -3.2717   -3.8430    1.3858 H   0  0  0  0  0  0  0  0  0  0  0  0
   -3.3007   -2.8510    0.9264 C   0  0  0  0  0  0  0  0  0  0  0  0
   -3.9141   -2.1934    1.5473 H   0  0  0  0  0  0  0  0  0  0  0  0
   -3.7544   -2.9338   -0.0641 H   0  0  0  0  0  0  0  0  0  0  0  0
   -1.8967   -2.2887    0.8071 C   0  0  0  0  0  0  0  0  0  0  0  0
   -0.9397   -2.9582    1.1620 O   0  0  0  0  0  0  0  0  0  0  0  0
   -1.7099   -1.0247    0.2873 N   0  0  0  0  0  0  0  0  0  0  0  0
   -2.5463   -0.4687    0.1134 H   0  0  0  0  0  0  0  0  0  0  0  0
   -0.4351   -0.2915    0.3149 C   0  0  1  0  0  0  0  0  0  0  0  0
    0.1879   -0.7206    1.1074 H   0  0  0  0  0  0  0  0  0  0  0  0
    0.3422   -0.4982   -1.0105 C   0  0  0  0  0  0  0  0  0  0  0  0
    1.2741   -1.0339   -0.7963 H   0  0  0  0  0  0  0  0  0  0  0  0
   -0.2491   -1.1613   -1.6508 H   0  0  0  0  0  0  0  0  0  0  0  0
    0.6514    0.7788   -1.8265 C   0  0  0  0  0  0  0  0  0  0  0  0
    0.7305    0.4877   -2.8774 H   0  0  0  0  0  0  0  0  0  0  0  0
   -0.1542    1.5143   -1.7678 H   0  0  0  0  0  0  0  0  0  0  0  0
    1.9856    1.4124   -1.4367 C   0  0  0  0  0  0  0  0  0  0  0  0
    2.4705    1.2844   -0.3254 O   0  0  0  0  0  0  0  0  0  0  0  0
    2.6862    2.1972   -2.3066 N   0  0  0  0  0  0  0  0  0  0  0  0
    3.4607    2.7222   -1.9110 H   0  0  0  0  0  0  0  0  0  0  0  0
    2.2321    2.5168   -3.1557 H   0  0  0  0  0  0  0  0  0  0  0  0
   -0.6669    1.1740    0.7462 C   0  0  0  0  0  0  0  0  0  0  0  0
   -1.6843    1.7578    0.3831 O   0  0  0  0  0  0  0  0  0  0  0  0
    0.1658    1.7696    1.6735 N   0  0  0  0  0  0  0  0  0  0  0  0
    1.0902    1.3496    1.7664 H   0  0  0  0  0  0  0  0  0  0  0  0
   -0.0049    3.1479    2.1138 C   0  0  0  0  0  0  0  0  0  0  0  0
   -1.0023    3.2939    2.5420 H   0  0  0  0  0  0  0  0  0  0  0  0
    0.7363    3.3922    2.8808 H   0  0  0  0  0  0  0  0  0  0  0  0
    0.1234    3.8372    1.2729 H   0  0  0  0  0  0  0  0  0  0  0  0
  1  2  1  0  0  0  0
  2  3  1  0  0  0  0
  2  4  1  0  0  0  0
  2  5  1  0  0  0  0
  5  6  2  0  0  0  0
  5  7  1  0  0  0  0
  7  8  1  0  0  0  0
  7  9  1  0  0  0  0
  9 10  1  0  0  0  0
  9 11  1  0  0  0  0
  9 22  1  0  0  0  0
 11 12  1  0  0  0  0
 11 13  1  0  0  0  0
 11 14  1  0  0  0  0
 14 15  1  0  0  0  0
 14 16  1  0  0  0  0
 14 17  1  0  0  0  0
 17 18  2  0  0  0  0
 17 19  1  0  0  0  0
 19 20  1  0  0  0  0
 19 21  1  0  0  0  0
 22 23  2  0  0  0  0
 22 24  1  0  0  0  0
 24 25  1  0  0  0  0
 24 26  1  0  0  0  0
 26 27  1  0  0  0  0
 26 28  1  0  0  0  0
 26 29  1  0  0  0  0
M  END
$$$$

  -OEChem-04042215583D

 29 28  0     1  0  0  0  0  0999 V2000
   -3.2099   -3.8932    1.2947 H   0  0  0  0  0  0  0  0  0  0  0  0
   -3.2634   -2.8853    0.8738 C   0  0  0  0  0  0  0  0  0  0  0  0
   -3.8906   -2.2667    1.5201 H   0  0  0  0  0  0  0  0  0  0  0  0
   -3.7179   -2.9414   -0.1181 H   0  0  0  0  0  0  0  0  0  0  0  0
   -1.8735   -2.2855    0.7734 C   0  0  0  0  0  0  0  0  0  0  0  0
   -0.9002   -2.9427    1.1065 O   0  0  0  0  0  0  0  0  0  0  0  0
   -1.7170   -1.0021    0.2920 N   0  0  0  0  0  0  0  0  0  0  0  0
   -2.5661   -0.4615    0.1321 H   0  0  0  0  0  0  0  0  0  0  0  0
   -0.4564   -0.2450    0.3222 C   0  0  1  0  0  0  0  0  0  0  0  0
    0.1772   -0.6875    1.0986 H   0  0  0  0  0  0  0  0  0  0  0  0
    0.3215   -0.4140   -1.0080 C   0  0  0  0  0  0  0  0  0  0  0  0
    1.2609   -0.9380   -0.7980 H   0  0  0  0  0  0  0  0  0  0  0  0
   -0.2568   -1.0831   -1.6538 H   0  0  0  0  0  0  0  0  0  0  0  0
    0.6092    0.8755   -1.8186 C   0  0  0  0  0  0  0  0  0  0  0  0
    0.4284    0.6489   -2.8728 H   0  0  0  0  0  0  0  0  0  0  0  0
   -0.0527    1.7066   -1.5712 H   0  0  0  0  0  0  0  0  0  0  0  0
    2.0654    1.3084   -1.6907 C   0  0  0  0  0  0  0  0  0  0  0  0
    2.6247    1.3382   -0.6088 O   0  0  0  0  0  0  0  0  0  0  0  0
    2.8067    1.7016   -2.7681 N   0  0  0  0  0  0  0  0  0  0  0  0
    3.7019    2.1354   -2.5616 H   0  0  0  0  0  0  0  0  0  0  0  0
    2.3376    1.8896   -3.6477 H   0  0  0  0  0  0  0  0  0  0  0  0
   -0.6895    1.2036    0.8013 C   0  0  0  0  0  0  0  0  0  0  0  0
   -1.7134    1.7937    0.4696 O   0  0  0  0  0  0  0  0  0  0  0  0
    0.1588    1.7761    1.7294 N   0  0  0  0  0  0  0  0  0  0  0  0
    1.0631    1.3243    1.8516 H   0  0  0  0  0  0  0  0  0  0  0  0
    0.0028    3.1446    2.2042 C   0  0  0  0  0  0  0  0  0  0  0  0
   -0.9827    3.2827    2.6615 H   0  0  0  0  0  0  0  0  0  0  0  0
    0.7648    3.3715    2.9561 H   0  0  0  0  0  0  0  0  0  0  0  0
    0.1103    3.8519    1.3753 H   0  0  0  0  0  0  0  0  0  0  0  0
  1  2  1  0  0  0  0
  2  3  1  0  0  0  0
  2  4  1  0  0  0  0
  2  5  1  0  0  0  0
  5  6  2  0  0  0  0
  5  7  1  0  0  0  0
  7  8  1  0  0  0  0
  7  9  1  0  0  0  0
  9 10  1  0  0  0  0
  9 11  1  0  0  0  0
  9 22  1  0  0  0  0
 11 12  1  0  0  0  0
 11 13  1  0  0  0  0
 11 14  1  0  0  0  0
 14 15  1  0  0  0  0
 14 16  1  0  0  0  0
 14 17  1  0  0  0  0
 17 18  2  0  0  0  0
 17 19  1  0  0  0  0
 19 20  1  0  0  0  0
 19 21  1  0  0  0  0
 22 23  2  0  0  0  0
 22 24  1  0  0  0  0
 24 25  1  0  0  0  0
 24 26  1  0  0  0  0
 26 27  1  0  0  0  0
 26 28  1  0  0  0  0
 26 29  1  0  0  0  0
M  END
$$$$

  -OEChem-04042215583D

 29 28  0     1  0  0  0  0  0999 V2000
   -3.1782   -3.8911    1.1493 H   0  0  0  0  0  0  0  0  0  0  0  0
   -3.2343   -2.8558    0.8017 C   0  0  0  0  0  0  0  0  0  0  0  0
   -3.8495   -2.2828    1.4997 H   0  0  0  0  0  0  0  0  0  0  0  0
   -3.7039   -2.8400   -0.1847 H   0  0  0  0  0  0  0  0  0  0  0  0
   -1.8437   -2.2545    0.7232 C   0  0  0  0  0  0  0  0  0  0  0  0
   -0.8721   -2.9175    1.0493 O   0  0  0  0  0  0  0  0  0  0  0  0
   -1.6847   -0.9594    0.2762 N   0  0  0  0  0  0  0  0  0  0  0  0
   -2.5327   -0.4165    0.1180 H   0  0  0  0  0  0  0  0  0  0  0  0
   -0.4250   -0.2027    0.3322 C   0  0  1  0  0  0  0  0  0  0  0  0
    0.2141   -0.6636    1.0933 H   0  0  0  0  0  0  0  0  0  0  0  0
    0.3325   -0.3381   -1.0166 C   0  0  0  0  0  0  0  0  0  0  0  0
    1.2752   -0.8572   -0.8082 H   0  0  0  0  0  0  0  0  0  0  0  0
   -0.2347   -1.0081   -1.6718 H   0  0  0  0  0  0  0  0  0  0  0  0
    0.6285    0.9595   -1.8170 C   0  0  0  0  0  0  0  0  0  0  0  0
    0.1532    0.8746   -2.7979 H   0  0  0  0  0  0  0  0  0  0  0  0
    0.2237    1.8615   -1.3588 H   0  0  0  0  0  0  0  0  0  0  0  0
    2.1250    1.1630   -2.0155 C   0  0  0  0  0  0  0  0  0  0  0  0
    2.8755    1.2858   -1.0653 O   0  0  0  0  0  0  0  0  0  0  0  0
    2.7028    1.1838   -3.2526 N   0  0  0  0  0  0  0  0  0  0  0  0
    3.6772    1.4691   -3.2873 H   0  0  0  0  0  0  0  0  0  0  0  0
    2.1133    1.2686   -4.0738 H   0  0  0  0  0  0  0  0  0  0  0  0
   -0.6818    1.2286    0.8491 C   0  0  0  0  0  0  0  0  0  0  0  0
   -1.6980    1.8241    0.5051 O   0  0  0  0  0  0  0  0  0  0  0  0
    0.1471    1.7904    1.8015 N   0  0  0  0  0  0  0  0  0  0  0  0
    1.0176    1.3050    2.0048 H   0  0  0  0  0  0  0  0  0  0  0  0
   -0.0534    3.1271    2.3465 C   0  0  0  0  0  0  0  0  0  0  0  0
   -1.0188    3.1900    2.8594 H   0  0  0  0  0  0  0  0  0  0  0  0
    0.7356    3.3637    3.0670 H   0  0  0  0  0  0  0  0  0  0  0  0
   -0.0287    3.8754    1.5473 H   0  0  0  0  0  0  0  0  0  0  0  0
  1  2  1  0  0  0  0
  2  3  1  0  0  0  0
  2  4  1  0  0  0  0
  2  5  1  0  0  0  0
  5  6  2  0  0  0  0
  5  7  1  0  0  0  0
  7  8  1  0  0  0  0
  7  9  1  0  0  0  0
  9 10  1  0  0  0  0
  9 11  1  0  0  0  0
  9 22  1  0  0  0  0
 11 12  1  0  0  0  0
 11 13  1  0  0  0  0
 11 14  1  0  0  0  0
 14 15  1  0  0  0  0
 14 16  1  0  0  0  0
 14 17  1  0  0  0  0
 17 18  2  0  0  0  0
 17 19  1  0  0  0  0
 19 20  1  0  0  0  0
 19 21  1  0  0  0  0
 22 23  2  0  0  0  0
 22 24  1  0  0  0  0
 24 25  1  0  0  0  0
 24 26  1  0  0  0  0
 26 27  1  0  0  0  0
 26 28  1  0  0  0  0
 26 29  1  0  0  0  0
M  END
$$$$

  -OEChem-04042215583D

 29 28  0     1  0  0  0  0  0999 V2000
   -3.1904   -3.8568    1.0642 H   0  0  0  0  0  0  0  0  0  0  0  0
   -3.2295   -2.8205    0.7171 C   0  0  0  0  0  0  0  0  0  0  0  0
   -3.8637   -2.2455    1.3961 H   0  0  0  0  0  0  0  0  0  0  0  0
   -3.6671   -2.8006   -0.2838 H   0  0  0  0  0  0  0  0  0  0  0  0
   -1.8337   -2.2269    0.6849 C   0  0  0  0  0  0  0  0  0  0  0  0
   -0.8759   -2.8993    1.0316 O   0  0  0  0  0  0  0  0  0  0  0  0
   -1.6520   -0.9281    0.2570 N   0  0  0  0  0  0  0  0  0  0  0  0
   -2.4898   -0.3754    0.0784 H   0  0  0  0  0  0  0  0  0  0  0  0
   -0.3836   -0.1885    0.3445 C   0  0  1  0  0  0  0  0  0  0  0  0
    0.2525   -0.6675    1.0969 H   0  0  0  0  0  0  0  0  0  0  0  0
    0.3572   -0.2966   -1.0170 C   0  0  0  0  0  0  0  0  0  0  0  0
    1.3024   -0.8108   -0.8073 H   0  0  0  0  0  0  0  0  0  0  0  0
   -0.2004   -0.9574   -1.6892 H   0  0  0  0  0  0  0  0  0  0  0  0
    0.6703    1.0155   -1.7839 C   0  0  0  0  0  0  0  0  0  0  0  0
   -0.0404    1.1360   -2.6057 H   0  0  0  0  0  0  0  0  0  0  0  0
    0.5845    1.9032   -1.1561 H   0  0  0  0  0  0  0  0  0  0  0  0
    2.0974    1.0140   -2.3164 C   0  0  0  0  0  0  0  0  0  0  0  0
    3.0510    1.1527   -1.5742 O   0  0  0  0  0  0  0  0  0  0  0  0
    2.3799    0.7987   -3.6352 N   0  0  0  0  0  0  0  0  0  0  0  0
    3.3440    0.9466   -3.9194 H   0  0  0  0  0  0  0  0  0  0  0  0
    1.6303    0.8382   -4.3173 H   0  0  0  0  0  0  0  0  0  0  0  0
   -0.6528    1.2348    0.8771 C   0  0  0  0  0  0  0  0  0  0  0  0
   -1.6410    1.8512    0.4914 O   0  0  0  0  0  0  0  0  0  0  0  0
    0.1536    1.7833    1.8565 N   0  0  0  0  0  0  0  0  0  0  0  0
    0.9836    1.2618    2.1269 H   0  0  0  0  0  0  0  0  0  0  0  0
   -0.0523    3.1153    2.4111 C   0  0  0  0  0  0  0  0  0  0  0  0
   -1.0507    3.1969    2.8535 H   0  0  0  0  0  0  0  0  0  0  0  0
    0.6873    3.3175    3.1918 H   0  0  0  0  0  0  0  0  0  0  0  0
    0.0510    3.8757    1.6300 H   0  0  0  0  0  0  0  0  0  0  0  0
  1  2  1  0  0  0  0
  2  3  1  0  0  0  0
  2  4  1  0  0  0  0
  2  5  1  0  0  0  0
  5  6  2  0  0  0  0
  5  7  1  0  0  0  0
  7  8  1  0  0  0  0
  7  9  1  0  0  0  0
  9 10  1  0  0  0  0
  9 11  1  0  0  0  0
  9 22  1  0  0  0  0
 11 12  1  0  0  0  0
 11 13  1  0  0  0  0
 11 14  1  0  0  0  0
 14 15  1  0  0  0  0
 14 16  1  0  0  0  0
 14 17  1  0  0  0  0
 17 18  2  0  0  0  0
 17 19  1  0  0  0  0
 19 20  1  0  0  0  0
 19 21  1  0  0  0  0
 22 23  2  0  0  0  0
 22 24  1  0  0  0  0
 24 25  1  0  0  0  0
 24 26  1  0  0  0  0
 26 27  1  0  0  0  0
 26 28  1  0  0  0  0
 26 29  1  0  0  0  0
M  END
$$$$

  -OEChem-04042215583D

 29 28  0     1  0  0  0  0  0999 V2000
   -3.2892   -3.7959    1.3839 H   0  0  0  0  0  0  0  0  0  0  0  0
   -3.2868   -2.8268    0.8771 C   0  0  0  0  0  0  0  0  0  0  0  0
   -3.9777   -2.1572    1.3949 H   0  0  0  0  0  0  0  0  0  0  0  0
   -3.6271   -2.9667   -0.1518 H   0  0  0  0  0  0  0  0  0  0  0  0
   -1.8887   -2.2374    0.8843 C   0  0  0  0  0  0  0  0  0  0  0  0
   -0.9672   -2.8603    1.3869 O   0  0  0  0  0  0  0  0  0  0  0  0
   -1.6666   -0.9924    0.3322 N   0  0  0  0  0  0  0  0  0  0  0  0
   -2.4793   -0.4696    0.0094 H   0  0  0  0  0  0  0  0  0  0  0  0
   -0.3799   -0.2806    0.3545 C   0  0  1  0  0  0  0  0  0  0  0  0
    0.2540   -0.7046    1.1407 H   0  0  0  0  0  0  0  0  0  0  0  0
    0.3315   -0.5224   -1.0067 C   0  0  0  0  0  0  0  0  0  0  0  0
    1.2704   -1.0316   -0.7624 H   0  0  0  0  0  0  0  0  0  0  0  0
   -0.2450   -1.2232   -1.6204 H   0  0  0  0  0  0  0  0  0  0  0  0
    0.6580    0.7265   -1.8692 C   0  0  0  0  0  0  0  0  0  0  0  0
   -0.2075    0.9745   -2.4898 H   0  0  0  0  0  0  0  0  0  0  0  0
    0.8709    1.5883   -1.2348 H   0  0  0  0  0  0  0  0  0  0  0  0
    1.8969    0.5676   -2.7499 C   0  0  0  0  0  0  0  0  0  0  0  0
    2.5034   -0.4786   -2.8818 O   0  0  0  0  0  0  0  0  0  0  0  0
    2.3792    1.6173   -3.4774 N   0  0  0  0  0  0  0  0  0  0  0  0
    3.0798    1.3870   -4.1761 H   0  0  0  0  0  0  0  0  0  0  0  0
    1.8023    2.4448   -3.5848 H   0  0  0  0  0  0  0  0  0  0  0  0
   -0.6166    1.1944    0.7424 C   0  0  0  0  0  0  0  0  0  0  0  0
   -1.5526    1.8161    0.2511 O   0  0  0  0  0  0  0  0  0  0  0  0
    0.1999    1.8140    1.6703 N   0  0  0  0  0  0  0  0  0  0  0  0
    0.9273    1.2523    2.1049 H   0  0  0  0  0  0  0  0  0  0  0  0
   -0.0098    3.1791    2.1369 C   0  0  0  0  0  0  0  0  0  0  0  0
   -1.0038    3.2833    2.5846 H   0  0  0  0  0  0  0  0  0  0  0  0
    0.7377    3.4393    2.8925 H   0  0  0  0  0  0  0  0  0  0  0  0
    0.0786    3.8858    1.3052 H   0  0  0  0  0  0  0  0  0  0  0  0
  1  2  1  0  0  0  0
  2  3  1  0  0  0  0
  2  4  1  0  0  0  0
  2  5  1  0  0  0  0
  5  6  2  0  0  0  0
  5  7  1  0  0  0  0
  7  8  1  0  0  0  0
  7  9  1  0  0  0  0
  9 10  1  0  0  0  0
  9 11  1  0  0  0  0
  9 22  1  0  0  0  0
 11 12  1  0  0  0  0
 11 13  1  0  0  0  0
 11 14  1  0  0  0  0
 14 15  1  0  0  0  0
 14 16  1  0  0  0  0
 14 17  1  0  0  0  0
 17 18  2  0  0  0  0
 17 19  1  0  0  0  0
 19 20  1  0  0  0  0
 19 21  1  0  0  0  0
 22 23  2  0  0  0  0
 22 24  1  0  0  0  0
 24 25  1  0  0  0  0
 24 26  1  0  0  0  0
 26 27  1  0  0  0  0
 26 28  1  0  0  0  0
 26 29  1  0  0  0  0
M  END
$$$$

  -OEChem-04042215583D

 29 28  0     1  0  0  0  0  0999 V2000
   -3.3136   -3.7868    1.3729 H   0  0  0  0  0  0  0  0  0  0  0  0
   -3.2989   -2.8197    0.8626 C   0  0  0  0  0  0  0  0  0  0  0  0
   -3.9897   -2.1424    1.3707 H   0  0  0  0  0  0  0  0  0  0  0  0
   -3.6297   -2.9606   -0.1692 H   0  0  0  0  0  0  0  0  0  0  0  0
   -1.8969   -2.2408    0.8815 C   0  0  0  0  0  0  0  0  0  0  0  0
   -0.9836   -2.8677    1.3942 O   0  0  0  0  0  0  0  0  0  0  0  0
   -1.6638   -0.9994    0.3270 N   0  0  0  0  0  0  0  0  0  0  0  0
   -2.4709   -0.4753   -0.0076 H   0  0  0  0  0  0  0  0  0  0  0  0
   -0.3741   -0.2947    0.3543 C   0  0  1  0  0  0  0  0  0  0  0  0
    0.2558   -0.7224    1.1414 H   0  0  0  0  0  0  0  0  0  0  0  0
    0.3422   -0.5306   -1.0032 C   0  0  0  0  0  0  0  0  0  0  0  0
    1.2834   -1.0460   -0.7801 H   0  0  0  0  0  0  0  0  0  0  0  0
   -0.2442   -1.2132   -1.6282 H   0  0  0  0  0  0  0  0  0  0  0  0
    0.6621    0.7378   -1.8292 C   0  0  0  0  0  0  0  0  0  0  0  0
   -0.2635    1.1410   -2.2502 H   0  0  0  0  0  0  0  0  0  0  0  0
    1.1057    1.5021   -1.1865 H   0  0  0  0  0  0  0  0  0  0  0  0
    1.6642    0.4924   -2.9551 C   0  0  0  0  0  0  0  0  0  0  0  0
    2.1580   -0.5943   -3.1908 O   0  0  0  0  0  0  0  0  0  0  0  0
    2.0523    1.5068   -3.7820 N   0  0  0  0  0  0  0  0  0  0  0  0
    2.5753    1.2312   -4.6081 H   0  0  0  0  0  0  0  0  0  0  0  0
    1.5273    2.3748   -3.7736 H   0  0  0  0  0  0  0  0  0  0  0  0
   -0.6000    1.1844    0.7356 C   0  0  0  0  0  0  0  0  0  0  0  0
   -1.5290    1.8124    0.2385 O   0  0  0  0  0  0  0  0  0  0  0  0
    0.2167    1.8016    1.6648 N   0  0  0  0  0  0  0  0  0  0  0  0
    0.9348    1.2355    2.1091 H   0  0  0  0  0  0  0  0  0  0  0  0
    0.0210    3.1741    2.1157 C   0  0  0  0  0  0  0  0  0  0  0  0
   -0.9666    3.2901    2.5744 H   0  0  0  0  0  0  0  0  0  0  0  0
    0.7800    3.4404    2.8576 H   0  0  0  0  0  0  0  0  0  0  0  0
    0.1027    3.8695    1.2738 H   0  0  0  0  0  0  0  0  0  0  0  0
  1  2  1  0  0  0  0
  2  3  1  0  0  0  0
  2  4  1  0  0  0  0
  2  5  1  0  0  0  0
  5  6  2  0  0  0  0
  5  7  1  0  0  0  0
  7  8  1  0  0  0  0
  7  9  1  0  0  0  0
  9 10  1  0  0  0  0
  9 11  1  0  0  0  0
  9 22  1  0  0  0  0
 11 12  1  0  0  0  0
 11 13  1  0  0  0  0
 11 14  1  0  0  0  0
 14 15  1  0  0  0  0
 14 16  1  0  0  0  0
 14 17  1  0  0  0  0
 17 18  2  0  0  0  0
 17 19  1  0  0  0  0
 19 20  1  0  0  0  0
 19 21  1  0  0  0  0
 22 23  2  0  0  0  0
 22 24  1  0  0  0  0
 24 25  1  0  0  0  0
 24 26  1  0  0  0  0
 26 27  1  0  0  0  0
 26 28  1  0  0  0  0
 26 29  1  0  0  0  0
M  END
$$$$

  -OEChem-04042215583D

 29 28  0     1  0  0  0  0  0999 V2000
   -3.3420   -3.7690    1.3452 H   0  0  0  0  0  0  0  0  0  0  0  0
   -3.3141   -2.7999    0.8390 C   0  0  0  0  0  0  0  0  0  0  0  0
   -4.0086   -2.1210    1.3396 H   0  0  0  0  0  0  0  0  0  0  0  0
   -3.6305   -2.9348   -0.1981 H   0  0  0  0  0  0  0  0  0  0  0  0
   -1.9090   -2.2290    0.8803 C   0  0  0  0  0  0  0  0  0  0  0  0
   -1.0118   -2.8534    1.4240 O   0  0  0  0  0  0  0  0  0  0  0  0
   -1.6537   -0.9957    0.3169 N   0  0  0  0  0  0  0  0  0  0  0  0
   -2.4481   -0.4684   -0.0426 H   0  0  0  0  0  0  0  0  0  0  0  0
   -0.3555   -0.3071    0.3602 C   0  0  1  0  0  0  0  0  0  0  0  0
    0.2658   -0.7303    1.1563 H   0  0  0  0  0  0  0  0  0  0  0  0
    0.3740   -0.5412   -0.9891 C   0  0  0  0  0  0  0  0  0  0  0  0
    1.1350   -1.3151   -0.8379 H   0  0  0  0  0  0  0  0  0  0  0  0
   -0.3394   -0.9390   -1.7199 H   0  0  0  0  0  0  0  0  0  0  0  0
    1.0323    0.7092   -1.6147 C   0  0  0  0  0  0  0  0  0  0  0  0
    0.2701    1.4690   -1.8079 H   0  0  0  0  0  0  0  0  0  0  0  0
    1.7670    1.1265   -0.9208 H   0  0  0  0  0  0  0  0  0  0  0  0
    1.7338    0.4147   -2.9386 C   0  0  0  0  0  0  0  0  0  0  0  0
    1.8975   -0.7097   -3.3731 O   0  0  0  0  0  0  0  0  0  0  0  0
    2.2193    1.4246   -3.7186 N   0  0  0  0  0  0  0  0  0  0  0  0
    2.5116    1.1605   -4.6550 H   0  0  0  0  0  0  0  0  0  0  0  0
    1.9328    2.3776   -3.5221 H   0  0  0  0  0  0  0  0  0  0  0  0
   -0.5777    1.1772    0.7238 C   0  0  0  0  0  0  0  0  0  0  0  0
   -1.4922    1.8078    0.2041 O   0  0  0  0  0  0  0  0  0  0  0  0
    0.2263    1.7966    1.6630 N   0  0  0  0  0  0  0  0  0  0  0  0
    0.9132    1.2218    2.1437 H   0  0  0  0  0  0  0  0  0  0  0  0
    0.0199    3.1686    2.1103 C   0  0  0  0  0  0  0  0  0  0  0  0
   -0.9609    3.2732    2.5860 H   0  0  0  0  0  0  0  0  0  0  0  0
    0.7887    3.4497    2.8365 H   0  0  0  0  0  0  0  0  0  0  0  0
    0.0766    3.8605    1.2635 H   0  0  0  0  0  0  0  0  0  0  0  0
  1  2  1  0  0  0  0
  2  3  1  0  0  0  0
  2  4  1  0  0  0  0
  2  5  1  0  0  0  0
  5  6  2  0  0  0  0
  5  7  1  0  0  0  0
  7  8  1  0  0  0  0
  7  9  1  0  0  0  0
  9 10  1  0  0  0  0
  9 11  1  0  0  0  0
  9 22  1  0  0  0  0
 11 12  1  0  0  0  0
 11 13  1  0  0  0  0
 11 14  1  0  0  0  0
 14 15  1  0  0  0  0
 14 16  1  0  0  0  0
 14 17  1  0  0  0  0
 17 18  2  0  0  0  0
 17 19  1  0  0  0  0
 19 20  1  0  0  0  0
 19 21  1  0  0  0  0
 22 23  2  0  0  0  0
 22 24  1  0  0  0  0
 24 25  1  0  0  0  0
 24 26  1  0  0  0  0
 26 27  1  0  0  0  0
 26 28  1  0  0  0  0
 26 29  1  0  0  0  0
M  END
$$$$

  -OEChem-04042215583D

 29 28  0     1  0  0  0  0  0999 V2000
   -3.3601   -3.7482    1.2826 H   0  0  0  0  0  0  0  0  0  0  0  0
   -3.3271   -2.7668    0.8011 C   0  0  0  0  0  0  0  0  0  0  0  0
   -4.0117   -2.0944    1.3238 H   0  0  0  0  0  0  0  0  0  0  0  0
   -3.6523   -2.8728   -0.2366 H   0  0  0  0  0  0  0  0  0  0  0  0
   -1.9171   -2.2093    0.8475 C   0  0  0  0  0  0  0  0  0  0  0  0
   -1.0255   -2.8477    1.3840 O   0  0  0  0  0  0  0  0  0  0  0  0
   -1.6510   -0.9722    0.2979 N   0  0  0  0  0  0  0  0  0  0  0  0
   -2.4405   -0.4349   -0.0575 H   0  0  0  0  0  0  0  0  0  0  0  0
   -0.3494   -0.2916    0.3605 C   0  0  1  0  0  0  0  0  0  0  0  0
    0.2549   -0.7223    1.1659 H   0  0  0  0  0  0  0  0  0  0  0  0
    0.4075   -0.5357   -0.9730 C   0  0  0  0  0  0  0  0  0  0  0  0
    1.1521   -1.3247   -0.8197 H   0  0  0  0  0  0  0  0  0  0  0  0
   -0.3101   -0.9214   -1.7063 H   0  0  0  0  0  0  0  0  0  0  0  0
    1.0930    0.6977   -1.6075 C   0  0  0  0  0  0  0  0  0  0  0  0
    0.4082    1.5487   -1.6146 H   0  0  0  0  0  0  0  0  0  0  0  0
    1.9766    0.9740   -1.0261 H   0  0  0  0  0  0  0  0  0  0  0  0
    1.4949    0.4630   -3.0618 C   0  0  0  0  0  0  0  0  0  0  0  0
    1.6508   -0.6463   -3.5364 O   0  0  0  0  0  0  0  0  0  0  0  0
    1.7040    1.5066   -3.9172 N   0  0  0  0  0  0  0  0  0  0  0  0
    1.7974    1.2625   -4.8990 H   0  0  0  0  0  0  0  0  0  0  0  0
    1.3854    2.4315   -3.6486 H   0  0  0  0  0  0  0  0  0  0  0  0
   -0.5643    1.1906    0.7358 C   0  0  0  0  0  0  0  0  0  0  0  0
   -1.4760    1.8293    0.2209 O   0  0  0  0  0  0  0  0  0  0  0  0
    0.2356    1.7947    1.6880 N   0  0  0  0  0  0  0  0  0  0  0  0
    0.9211    1.2116    2.1605 H   0  0  0  0  0  0  0  0  0  0  0  0
    0.0285    3.1593    2.1580 C   0  0  0  0  0  0  0  0  0  0  0  0
   -0.9375    3.2467    2.6664 H   0  0  0  0  0  0  0  0  0  0  0  0
    0.8179    3.4399    2.8620 H   0  0  0  0  0  0  0  0  0  0  0  0
    0.0502    3.8627    1.3189 H   0  0  0  0  0  0  0  0  0  0  0  0
  1  2  1  0  0  0  0
  2  3  1  0  0  0  0
  2  4  1  0  0  0  0
  2  5  1  0  0  0  0
  5  6  2  0  0  0  0
  5  7  1  0  0  0  0
  7  8  1  0  0  0  0
  7  9  1  0  0  0  0
  9 10  1  0  0  0  0
  9 11  1  0  0  0  0
  9 22  1  0  0  0  0
 11 12  1  0  0  0  0
 11 13  1  0  0  0  0
 11 14  1  0  0  0  0
 14 15  1  0  0  0  0
 14 16  1  0  0  0  0
 14 17  1  0  0  0  0
 17 18  2  0  0  0  0
 17 19  1  0  0  0  0
 19 20  1  0  0  0  0
 19 21  1  0  0  0  0
 22 23  2  0  0  0  0
 22 24  1  0  0  0  0
 24 25  1  0  0  0  0
 24 26  1  0  0  0  0
 26 27  1  0  0  0  0
 26 28  1  0  0  0  0
 26 29  1  0  0  0  0
M  END
$$$$

  -OEChem-04042215583D

 29 28  0     1  0  0  0  0  0999 V2000
   -3.4453   -3.6363    1.0549 H   0  0  0  0  0  0  0  0  0  0  0  0
   -3.3655   -2.6365    0.6188 C   0  0  0  0  0  0  0  0  0  0  0  0
   -4.0396   -1.9635    1.1542 H   0  0  0  0  0  0  0  0  0  0  0  0
   -3.6670   -2.6854   -0.4304 H   0  0  0  0  0  0  0  0  0  0  0  0
   -1.9386   -2.1327    0.7244 C   0  0  0  0  0  0  0  0  0  0  0  0
   -1.0851   -2.8214    1.2602 O   0  0  0  0  0  0  0  0  0  0  0  0
   -1.6109   -0.8916    0.2188 N   0  0  0  0  0  0  0  0  0  0  0  0
   -2.3738   -0.3078   -0.1216 H   0  0  0  0  0  0  0  0  0  0  0  0
   -0.2920   -0.2561    0.3586 C   0  0  1  0  0  0  0  0  0  0  0  0
    0.2623   -0.7228    1.1797 H   0  0  0  0  0  0  0  0  0  0  0  0
    0.5153   -0.4941   -0.9479 C   0  0  0  0  0  0  0  0  0  0  0  0
    1.2196   -1.3175   -0.7859 H   0  0  0  0  0  0  0  0  0  0  0  0
   -0.1898   -0.8406   -1.7124 H   0  0  0  0  0  0  0  0  0  0  0  0
    1.2809    0.7130   -1.5448 C   0  0  0  0  0  0  0  0  0  0  0  0
    0.7778    1.6597   -1.3446 H   0  0  0  0  0  0  0  0  0  0  0  0
    2.2818    0.7725   -1.1083 H   0  0  0  0  0  0  0  0  0  0  0  0
    1.3868    0.5966   -3.0597 C   0  0  0  0  0  0  0  0  0  0  0  0
    2.0807   -0.2505   -3.5876 O   0  0  0  0  0  0  0  0  0  0  0  0
    0.6430    1.3792   -3.8959 N   0  0  0  0  0  0  0  0  0  0  0  0
    0.6222    1.0977   -4.8716 H   0  0  0  0  0  0  0  0  0  0  0  0
   -0.1109    1.9359   -3.5055 H   0  0  0  0  0  0  0  0  0  0  0  0
   -0.4919    1.2200    0.7618 C   0  0  0  0  0  0  0  0  0  0  0  0
   -1.3570    1.8917    0.2088 O   0  0  0  0  0  0  0  0  0  0  0  0
    0.2714    1.7847    1.7665 N   0  0  0  0  0  0  0  0  0  0  0  0
    0.9390    1.1852    2.2443 H   0  0  0  0  0  0  0  0  0  0  0  0
    0.0937    3.1543    2.2331 C   0  0  0  0  0  0  0  0  0  0  0  0
   -0.9122    3.2918    2.6434 H   0  0  0  0  0  0  0  0  0  0  0  0
    0.8215    3.3842    3.0173 H   0  0  0  0  0  0  0  0  0  0  0  0
    0.2390    3.8618    1.4100 H   0  0  0  0  0  0  0  0  0  0  0  0
  1  2  1  0  0  0  0
  2  3  1  0  0  0  0
  2  4  1  0  0  0  0
  2  5  1  0  0  0  0
  5  6  2  0  0  0  0
  5  7  1  0  0  0  0
  7  8  1  0  0  0  0
  7  9  1  0  0  0  0
  9 10  1  0  0  0  0
  9 11  1  0  0  0  0
  9 22  1  0  0  0  0
 11 12  1  0  0  0  0
 11 13  1  0  0  0  0
 11 14  1  0  0  0  0
 14 15  1  0  0  0  0
 14 16  1  0  0  0  0
 14 17  1  0  0  0  0
 17 18  2  0  0  0  0
 17 19  1  0  0  0  0
 19 20  1  0  0  0  0
 19 21  1  0  0  0  0
 22 23  2  0  0  0  0
 22 24  1  0  0  0  0
 24 25  1  0  0  0  0
 24 26  1  0  0  0  0
 26 27  1  0  0  0  0
 26 28  1  0  0  0  0
 26 29  1  0  0  0  0
M  END
$$$$

  -OEChem-04042215583D

 29 28  0     1  0  0  0  0  0999 V2000
   -3.4929   -3.5794    1.0564 H   0  0  0  0  0  0  0  0  0  0  0  0
   -3.3891   -2.5851    0.6127 C   0  0  0  0  0  0  0  0  0  0  0  0
   -4.0585   -1.8955    1.1327 H   0  0  0  0  0  0  0  0  0  0  0  0
   -3.6768   -2.6378   -0.4403 H   0  0  0  0  0  0  0  0  0  0  0  0
   -1.9550   -2.1057    0.7337 C   0  0  0  0  0  0  0  0  0  0  0  0
   -1.1224   -2.8005    1.2940 O   0  0  0  0  0  0  0  0  0  0  0  0
   -1.5957   -0.8791    0.2147 N   0  0  0  0  0  0  0  0  0  0  0  0
   -2.3401   -0.2886   -0.1536 H   0  0  0  0  0  0  0  0  0  0  0  0
   -0.2634   -0.2721    0.3565 C   0  0  1  0  0  0  0  0  0  0  0  0
    0.2883   -0.7410    1.1781 H   0  0  0  0  0  0  0  0  0  0  0  0
    0.5211   -0.5227   -0.9630 C   0  0  0  0  0  0  0  0  0  0  0  0
    1.2076   -1.3613   -0.8036 H   0  0  0  0  0  0  0  0  0  0  0  0
   -0.1971   -0.8635   -1.7180 H   0  0  0  0  0  0  0  0  0  0  0  0
    1.3177    0.6602   -1.5775 C   0  0  0  0  0  0  0  0  0  0  0  0
    1.0575    1.6297   -1.1539 H   0  0  0  0  0  0  0  0  0  0  0  0
    2.3848    0.5106   -1.3894 H   0  0  0  0  0  0  0  0  0  0  0  0
    1.0887    0.7524   -3.0794 C   0  0  0  0  0  0  0  0  0  0  0  0
    1.6975    0.0548   -3.8673 O   0  0  0  0  0  0  0  0  0  0  0  0
    0.1187    1.5632   -3.5955 N   0  0  0  0  0  0  0  0  0  0  0  0
   -0.1167    1.4198   -4.5729 H   0  0  0  0  0  0  0  0  0  0  0  0
   -0.5520    1.9876   -2.9603 H   0  0  0  0  0  0  0  0  0  0  0  0
   -0.4599    1.2099    0.7389 C   0  0  0  0  0  0  0  0  0  0  0  0
   -1.2803    1.8900    0.1295 O   0  0  0  0  0  0  0  0  0  0  0  0
    0.2922    1.7856    1.7455 N   0  0  0  0  0  0  0  0  0  0  0  0
    0.9309    1.1840    2.2589 H   0  0  0  0  0  0  0  0  0  0  0  0
    0.1384    3.1729    2.1662 C   0  0  0  0  0  0  0  0  0  0  0  0
   -0.8789    3.3528    2.5293 H   0  0  0  0  0  0  0  0  0  0  0  0
    0.8395    3.4027    2.9743 H   0  0  0  0  0  0  0  0  0  0  0  0
    0.3399    3.8518    1.3309 H   0  0  0  0  0  0  0  0  0  0  0  0
  1  2  1  0  0  0  0
  2  3  1  0  0  0  0
  2  4  1  0  0  0  0
  2  5  1  0  0  0  0
  5  6  2  0  0  0  0
  5  7  1  0  0  0  0
  7  8  1  0  0  0  0
  7  9  1  0  0  0  0
  9 10  1  0  0  0  0
  9 11  1  0  0  0  0
  9 22  1  0  0  0  0
 11 12  1  0  0  0  0
 11 13  1  0  0  0  0
 11 14  1  0  0  0  0
 14 15  1  0  0  0  0
 14 16  1  0  0  0  0
 14 17  1  0  0  0  0
 17 18  2  0  0  0  0
 17 19  1  0  0  0  0
 19 20  1  0  0  0  0
 19 21  1  0  0  0  0
 22 23  2  0  0  0  0
 22 24  1  0  0  0  0
 24 25  1  0  0  0  0
 24 26  1  0  0  0  0
 26 27  1  0  0  0  0
 26 28  1  0  0  0  0
 26 29  1  0  0  0  0
M  END
$$$$

  -OEChem-04042215583D

 29 28  0     1  0  0  0  0  0999 V2000
   -3.5280   -3.5463    1.0957 H   0  0  0  0  0  0  0  0  0  0  0  0
   -3.4068   -2.5620    0.6348 C   0  0  0  0  0  0  0  0  0  0  0  0
   -4.0785   -1.8563    1.1294 H   0  0  0  0  0  0  0  0  0  0  0  0
   -3.6770   -2.6328   -0.4217 H   0  0  0  0  0  0  0  0  0  0  0  0
   -1.9702   -2.0942    0.7717 C   0  0  0  0  0  0  0  0  0  0  0  0
   -1.1580   -2.7777    1.3740 O   0  0  0  0  0  0  0  0  0  0  0  0
   -1.5841   -0.8911    0.2178 N   0  0  0  0  0  0  0  0  0  0  0  0
   -2.3090   -0.3122   -0.2039 H   0  0  0  0  0  0  0  0  0  0  0  0
   -0.2417   -0.3050    0.3511 C   0  0  1  0  0  0  0  0  0  0  0  0
    0.3163   -0.7629    1.1748 H   0  0  0  0  0  0  0  0  0  0  0  0
    0.5082   -0.5686   -0.9849 C   0  0  0  0  0  0  0  0  0  0  0  0
    1.1974   -1.4028   -0.8153 H   0  0  0  0  0  0  0  0  0  0  0  0
   -0.2095   -0.9235   -1.7339 H   0  0  0  0  0  0  0  0  0  0  0  0
    1.3119    0.6086   -1.6006 C   0  0  0  0  0  0  0  0  0  0  0  0
    1.3379    1.5081   -0.9861 H   0  0  0  0  0  0  0  0  0  0  0  0
    2.3529    0.2919   -1.7145 H   0  0  0  0  0  0  0  0  0  0  0  0
    0.7845    0.9601   -2.9826 C   0  0  0  0  0  0  0  0  0  0  0  0
    1.2023    0.4318   -3.9951 O   0  0  0  0  0  0  0  0  0  0  0  0
   -0.2623    1.8271   -3.1102 N   0  0  0  0  0  0  0  0  0  0  0  0
   -0.7199    1.8539   -4.0158 H   0  0  0  0  0  0  0  0  0  0  0  0
   -0.7720    2.0916   -2.2667 H   0  0  0  0  0  0  0  0  0  0  0  0
   -0.4390    1.1893    0.6854 C   0  0  0  0  0  0  0  0  0  0  0  0
   -1.1991    1.8662   -0.0037 O   0  0  0  0  0  0  0  0  0  0  0  0
    0.3016    1.7952    1.6826 N   0  0  0  0  0  0  0  0  0  0  0  0
    0.9043    1.2029    2.2479 H   0  0  0  0  0  0  0  0  0  0  0  0
    0.1888    3.2096    2.0176 C   0  0  0  0  0  0  0  0  0  0  0  0
   -0.8188    3.4385    2.3805 H   0  0  0  0  0  0  0  0  0  0  0  0
    0.9067    3.4707    2.8012 H   0  0  0  0  0  0  0  0  0  0  0  0
    0.3976    3.8302    1.1396 H   0  0  0  0  0  0  0  0  0  0  0  0
  1  2  1  0  0  0  0
  2  3  1  0  0  0  0
  2  4  1  0  0  0  0
  2  5  1  0  0  0  0
  5  6  2  0  0  0  0
  5  7  1  0  0  0  0
  7  8  1  0  0  0  0
  7  9  1  0  0  0  0
  9 10  1  0  0  0  0
  9 11  1  0  0  0  0
  9 22  1  0  0  0  0
 11 12  1  0  0  0  0
 11 13  1  0  0  0  0
 11 14  1  0  0  0  0
 14 15  1  0  0  0  0
 14 16  1  0  0  0  0
 14 17  1  0  0  0  0
 17 18  2  0  0  0  0
 17 19  1  0  0  0  0
 19 20  1  0  0  0  0
 19 21  1  0  0  0  0
 22 23  2  0  0  0  0
 22 24  1  0  0  0  0
 24 25  1  0  0  0  0
 24 26  1  0  0  0  0
 26 27  1  0  0  0  0
 26 28  1  0  0  0  0
 26 29  1  0  0  0  0
M  END
$$$$

  -OEChem-04042215583D

 29 28  0     1  0  0  0  0  0999 V2000
   -3.5034   -3.5445    1.1919 H   0  0  0  0  0  0  0  0  0  0  0  0
   -3.4025   -2.5701    0.7056 C   0  0  0  0  0  0  0  0  0  0  0  0
   -4.0694   -1.8593    1.1995 H   0  0  0  0  0  0  0  0  0  0  0  0
   -3.6965   -2.6684   -0.3422 H   0  0  0  0  0  0  0  0  0  0  0  0
   -1.9677   -2.0856    0.7980 C   0  0  0  0  0  0  0  0  0  0  0  0
   -1.1316   -2.7566    1.3815 O   0  0  0  0  0  0  0  0  0  0  0  0
   -1.6102   -0.8814    0.2268 N   0  0  0  0  0  0  0  0  0  0  0  0
   -2.3537   -0.3138   -0.1774 H   0  0  0  0  0  0  0  0  0  0  0  0
   -0.2731   -0.2771    0.3242 C   0  0  1  0  0  0  0  0  0  0  0  0
    0.2892   -0.7205    1.1530 H   0  0  0  0  0  0  0  0  0  0  0  0
    0.4807   -0.5871   -0.9989 C   0  0  0  0  0  0  0  0  0  0  0  0
    1.1915   -1.3907   -0.7797 H   0  0  0  0  0  0  0  0  0  0  0  0
   -0.2181   -0.9975   -1.7378 H   0  0  0  0  0  0  0  0  0  0  0  0
    1.2625    0.5754   -1.6582 C   0  0  0  0  0  0  0  0  0  0  0  0
    1.4968    1.3852   -0.9652 H   0  0  0  0  0  0  0  0  0  0  0  0
    2.2237    0.1854   -2.0068 H   0  0  0  0  0  0  0  0  0  0  0  0
    0.5324    1.1196   -2.8809 C   0  0  0  0  0  0  0  0  0  0  0  0
    0.7432    0.6857   -3.9974 O   0  0  0  0  0  0  0  0  0  0  0  0
   -0.4328    2.0777   -2.7703 N   0  0  0  0  0  0  0  0  0  0  0  0
   -1.0102    2.2203   -3.5925 H   0  0  0  0  0  0  0  0  0  0  0  0
   -0.8213    2.2571   -1.8417 H   0  0  0  0  0  0  0  0  0  0  0  0
   -0.4389    1.2224    0.6528 C   0  0  0  0  0  0  0  0  0  0  0  0
   -1.2500    1.8993    0.0275 O   0  0  0  0  0  0  0  0  0  0  0  0
    0.3415    1.8222    1.6230 N   0  0  0  0  0  0  0  0  0  0  0  0
    0.9631    1.2251    2.1622 H   0  0  0  0  0  0  0  0  0  0  0  0
    0.2201    3.2272    1.9935 C   0  0  0  0  0  0  0  0  0  0  0  0
   -0.7724    3.4286    2.4099 H   0  0  0  0  0  0  0  0  0  0  0  0
    0.9709    3.4859    2.7464 H   0  0  0  0  0  0  0  0  0  0  0  0
    0.3738    3.8699    1.1202 H   0  0  0  0  0  0  0  0  0  0  0  0
  1  2  1  0  0  0  0
  2  3  1  0  0  0  0
  2  4  1  0  0  0  0
  2  5  1  0  0  0  0
  5  6  2  0  0  0  0
  5  7  1  0  0  0  0
  7  8  1  0  0  0  0
  7  9  1  0  0  0  0
  9 10  1  0  0  0  0
  9 11  1  0  0  0  0
  9 22  1  0  0  0  0
 11 12  1  0  0  0  0
 11 13  1  0  0  0  0
 11 14  1  0  0  0  0
 14 15  1  0  0  0  0
 14 16  1  0  0  0  0
 14 17  1  0  0  0  0
 17 18  2  0  0  0  0
 17 19  1  0  0  0  0
 19 20  1  0  0  0  0
 19 21  1  0  0  0  0
 22 23  2  0  0  0  0
 22 24  1  0  0  0  0
 24 25  1  0  0  0  0
 24 26  1  0  0  0  0
 26 27  1  0  0  0  0
 26 28  1  0  0  0  0
 26 29  1  0  0  0  0
M  END
$$$$

  -OEChem-04042215583D

 29 28  0     1  0  0  0  0  0999 V2000
   -3.4437   -3.5865    1.2848 H   0  0  0  0  0  0  0  0  0  0  0  0
   -3.3817   -2.6141    0.7882 C   0  0  0  0  0  0  0  0  0  0  0  0
   -4.0477   -1.9144    1.2990 H   0  0  0  0  0  0  0  0  0  0  0  0
   -3.7083   -2.7271   -0.2484 H   0  0  0  0  0  0  0  0  0  0  0  0
   -1.9563   -2.0967    0.8277 C   0  0  0  0  0  0  0  0  0  0  0  0
   -1.0820   -2.7535    1.3706 O   0  0  0  0  0  0  0  0  0  0  0  0
   -1.6502   -0.8809    0.2511 N   0  0  0  0  0  0  0  0  0  0  0  0
   -2.4231   -0.3300   -0.1198 H   0  0  0  0  0  0  0  0  0  0  0  0
   -0.3279   -0.2405    0.3031 C   0  0  1  0  0  0  0  0  0  0  0  0
    0.2406   -0.6676    1.1361 H   0  0  0  0  0  0  0  0  0  0  0  0
    0.4459   -0.5913   -0.9974 C   0  0  0  0  0  0  0  0  0  0  0  0
    1.1792   -1.3611   -0.7343 H   0  0  0  0  0  0  0  0  0  0  0  0
   -0.2369   -1.0554   -1.7189 H   0  0  0  0  0  0  0  0  0  0  0  0
    1.1957    0.5512   -1.7194 C   0  0  0  0  0  0  0  0  0  0  0  0
    1.6069    1.2735   -1.0105 H   0  0  0  0  0  0  0  0  0  0  0  0
    2.0466    0.1182   -2.2539 H   0  0  0  0  0  0  0  0  0  0  0  0
    0.3327    1.2659   -2.7593 C   0  0  0  0  0  0  0  0  0  0  0  0
    0.2628    0.8509   -3.9003 O   0  0  0  0  0  0  0  0  0  0  0  0
   -0.3861    2.3955   -2.5011 N   0  0  0  0  0  0  0  0  0  0  0  0
   -1.0398    2.6516   -3.2340 H   0  0  0  0  0  0  0  0  0  0  0  0
   -0.6601    2.5557   -1.5306 H   0  0  0  0  0  0  0  0  0  0  0  0
   -0.4655    1.2580    0.6424 C   0  0  0  0  0  0  0  0  0  0  0  0
   -1.3540    1.9295    0.1306 O   0  0  0  0  0  0  0  0  0  0  0  0
    0.3654    1.8442    1.5786 N   0  0  0  0  0  0  0  0  0  0  0  0
    1.0278    1.2415    2.0602 H   0  0  0  0  0  0  0  0  0  0  0  0
    0.2227    3.2254    2.0242 C   0  0  0  0  0  0  0  0  0  0  0  0
   -0.7412    3.3692    2.5236 H   0  0  0  0  0  0  0  0  0  0  0  0
    1.0195    3.4796    2.7300 H   0  0  0  0  0  0  0  0  0  0  0  0
    0.2854    3.9123    1.1735 H   0  0  0  0  0  0  0  0  0  0  0  0
  1  2  1  0  0  0  0
  2  3  1  0  0  0  0
  2  4  1  0  0  0  0
  2  5  1  0  0  0  0
  5  6  2  0  0  0  0
  5  7  1  0  0  0  0
  7  8  1  0  0  0  0
  7  9  1  0  0  0  0
  9 10  1  0  0  0  0
  9 11  1  0  0  0  0
  9 22  1  0  0  0  0
 11 12  1  0  0  0  0
 11 13  1  0  0  0  0
 11 14  1  0  0  0  0
 14 15  1  0  0  0  0
 14 16  1  0  0  0  0
 14 17  1  0  0  0  0
 17 18  2  0  0  0  0
 17 19  1  0  0  0  0
 19 20  1  0  0  0  0
 19 21  1  0  0  0  0
 22 23  2  0  0  0  0
 22 24  1  0  0  0  0
 24 25  1  0  0  0  0
 24 26  1  0  0  0  0
 26 27  1  0  0  0  0
 26 28  1  0  0  0  0
 26 29  1  0  0  0  0
M  END
$$$$

  -OEChem-04042215583D

 29 28  0     1  0  0  0  0  0999 V2000
   -3.3712   -3.6534    1.3681 H   0  0  0  0  0  0  0  0  0  0  0  0
   -3.3470   -2.6834    0.8637 C   0  0  0  0  0  0  0  0  0  0  0  0
   -4.0174   -1.9975    1.3873 H   0  0  0  0  0  0  0  0  0  0  0  0
   -3.6975   -2.8116   -0.1634 H   0  0  0  0  0  0  0  0  0  0  0  0
   -1.9347   -2.1293    0.8632 C   0  0  0  0  0  0  0  0  0  0  0  0
   -1.0266   -2.7668    1.3731 O   0  0  0  0  0  0  0  0  0  0  0  0
   -1.6795   -0.9019    0.2865 N   0  0  0  0  0  0  0  0  0  0  0  0
   -2.4765   -0.3758   -0.0691 H   0  0  0  0  0  0  0  0  0  0  0  0
   -0.3749   -0.2252    0.2937 C   0  0  1  0  0  0  0  0  0  0  0  0
    0.2119   -0.6378    1.1215 H   0  0  0  0  0  0  0  0  0  0  0  0
    0.4038   -0.5879   -1.0001 C   0  0  0  0  0  0  0  0  0  0  0  0
    1.1568   -1.3351   -0.7279 H   0  0  0  0  0  0  0  0  0  0  0  0
   -0.2790   -1.0810   -1.7021 H   0  0  0  0  0  0  0  0  0  0  0  0
    1.1148    0.5452   -1.7730 C   0  0  0  0  0  0  0  0  0  0  0  0
    1.7032    1.1585   -1.0855 H   0  0  0  0  0  0  0  0  0  0  0  0
    1.8166    0.0951   -2.4814 H   0  0  0  0  0  0  0  0  0  0  0  0
    0.1716    1.4422   -2.5765 C   0  0  0  0  0  0  0  0  0  0  0  0
   -0.2543    1.0760   -3.6550 O   0  0  0  0  0  0  0  0  0  0  0  0
   -0.1734    2.7110   -2.2153 N   0  0  0  0  0  0  0  0  0  0  0  0
   -0.8969    3.1063   -2.8080 H   0  0  0  0  0  0  0  0  0  0  0  0
   -0.2550    2.8750   -1.2137 H   0  0  0  0  0  0  0  0  0  0  0  0
   -0.5084    1.2695    0.6462 C   0  0  0  0  0  0  0  0  0  0  0  0
   -1.4407    1.9328    0.2104 O   0  0  0  0  0  0  0  0  0  0  0  0
    0.3597    1.8547    1.5494 N   0  0  0  0  0  0  0  0  0  0  0  0
    1.0442    1.2499    1.9963 H   0  0  0  0  0  0  0  0  0  0  0  0
    0.2058    3.2182    2.0442 C   0  0  0  0  0  0  0  0  0  0  0  0
   -0.7254    3.3173    2.6118 H   0  0  0  0  0  0  0  0  0  0  0  0
    1.0413    3.4779    2.7017 H   0  0  0  0  0  0  0  0  0  0  0  0
    0.1895    3.9308    1.2128 H   0  0  0  0  0  0  0  0  0  0  0  0
  1  2  1  0  0  0  0
  2  3  1  0  0  0  0
  2  4  1  0  0  0  0
  2  5  1  0  0  0  0
  5  6  2  0  0  0  0
  5  7  1  0  0  0  0
  7  8  1  0  0  0  0
  7  9  1  0  0  0  0
  9 10  1  0  0  0  0
  9 11  1  0  0  0  0
  9 22  1  0  0  0  0
 11 12  1  0  0  0  0
 11 13  1  0  0  0  0
 11 14  1  0  0  0  0
 14 15  1  0  0  0  0
 14 16  1  0  0  0  0
 14 17  1  0  0  0  0
 17 18  2  0  0  0  0
 17 19  1  0  0  0  0
 19 20  1  0  0  0  0
 19 21  1  0  0  0  0
 22 23  2  0  0  0  0
 22 24  1  0  0  0  0
 24 25  1  0  0  0  0
 24 26  1  0  0  0  0
 26 27  1  0  0  0  0
 26 28  1  0  0  0  0
 26 29  1  0  0  0  0
M  END
$$$$

  -OEChem-04042215583D

 29 28  0     1  0  0  0  0  0999 V2000
   -3.2899   -3.7193    1.4374 H   0  0  0  0  0  0  0  0  0  0  0  0
   -3.2965   -2.7527    0.9262 C   0  0  0  0  0  0  0  0  0  0  0  0
   -3.9816   -2.0816    1.4498 H   0  0  0  0  0  0  0  0  0  0  0  0
   -3.6508   -2.8977   -0.0973 H   0  0  0  0  0  0  0  0  0  0  0  0
   -1.9004   -2.1595    0.9099 C   0  0  0  0  0  0  0  0  0  0  0  0
   -0.9677   -2.7743    1.4041 O   0  0  0  0  0  0  0  0  0  0  0  0
   -1.6861   -0.9273    0.3280 N   0  0  0  0  0  0  0  0  0  0  0  0
   -2.4996   -0.4224   -0.0229 H   0  0  0  0  0  0  0  0  0  0  0  0
   -0.3967   -0.2243    0.2907 C   0  0  1  0  0  0  0  0  0  0  0  0
    0.2244   -0.6217    1.1001 H   0  0  0  0  0  0  0  0  0  0  0  0
    0.3496   -0.5798   -1.0263 C   0  0  0  0  0  0  0  0  0  0  0  0
    1.1112   -1.3289   -0.7860 H   0  0  0  0  0  0  0  0  0  0  0  0
   -0.3626   -1.0684   -1.7015 H   0  0  0  0  0  0  0  0  0  0  0  0
    1.0204    0.5495   -1.8417 C   0  0  0  0  0  0  0  0  0  0  0  0
    1.7986    1.0153   -1.2315 H   0  0  0  0  0  0  0  0  0  0  0  0
    1.5110    0.1121   -2.7158 H   0  0  0  0  0  0  0  0  0  0  0  0
    0.0684    1.6352   -2.3381 C   0  0  0  0  0  0  0  0  0  0  0  0
   -0.8380    1.3667   -3.1030 O   0  0  0  0  0  0  0  0  0  0  0  0
    0.2071    2.9507   -1.9992 N   0  0  0  0  0  0  0  0  0  0  0  0
   -0.6191    3.5082   -2.1990 H   0  0  0  0  0  0  0  0  0  0  0  0
    0.7349    3.1571   -1.1591 H   0  0  0  0  0  0  0  0  0  0  0  0
   -0.5605    1.2669    0.6518 C   0  0  0  0  0  0  0  0  0  0  0  0
   -1.5501    1.8923    0.2936 O   0  0  0  0  0  0  0  0  0  0  0  0
    0.3248    1.8692    1.5280 N   0  0  0  0  0  0  0  0  0  0  0  0
    1.0336    1.2746    1.9496 H   0  0  0  0  0  0  0  0  0  0  0  0
    0.1102    3.1990    2.0877 C   0  0  0  0  0  0  0  0  0  0  0  0
   -0.8028    3.2171    2.6923 H   0  0  0  0  0  0  0  0  0  0  0  0
    0.9538    3.4815    2.7249 H   0  0  0  0  0  0  0  0  0  0  0  0
    0.0185    3.9428    1.2893 H   0  0  0  0  0  0  0  0  0  0  0  0
  1  2  1  0  0  0  0
  2  3  1  0  0  0  0
  2  4  1  0  0  0  0
  2  5  1  0  0  0  0
  5  6  2  0  0  0  0
  5  7  1  0  0  0  0
  7  8  1  0  0  0  0
  7  9  1  0  0  0  0
  9 10  1  0  0  0  0
  9 11  1  0  0  0  0
  9 22  1  0  0  0  0
 11 12  1  0  0  0  0
 11 13  1  0  0  0  0
 11 14  1  0  0  0  0
 14 15  1  0  0  0  0
 14 16  1  0  0  0  0
 14 17  1  0  0  0  0
 17 18  2  0  0  0  0
 17 19  1  0  0  0  0
 19 20  1  0  0  0  0
 19 21  1  0  0  0  0
 22 23  2  0  0  0  0
 22 24  1  0  0  0  0
 24 25  1  0  0  0  0
 24 26  1  0  0  0  0
 26 27  1  0  0  0  0
 26 28  1  0  0  0  0
 26 29  1  0  0  0  0
M  END
$$$$

  -OEChem-04042215583D

 29 28  0     1  0  0  0  0  0999 V2000
   -3.2139   -3.7482    1.5087 H   0  0  0  0  0  0  0  0  0  0  0  0
   -3.2545   -2.7769    1.0079 C   0  0  0  0  0  0  0  0  0  0  0  0
   -3.9094   -2.1134    1.5780 H   0  0  0  0  0  0  0  0  0  0  0  0
   -3.6692   -2.9138    0.0062 H   0  0  0  0  0  0  0  0  0  0  0  0
   -1.8642   -2.1773    0.9150 C   0  0  0  0  0  0  0  0  0  0  0  0
   -0.9009   -2.7925    1.3459 O   0  0  0  0  0  0  0  0  0  0  0  0
   -1.6912   -0.9332    0.3452 N   0  0  0  0  0  0  0  0  0  0  0  0
   -2.5283   -0.4221    0.0653 H   0  0  0  0  0  0  0  0  0  0  0  0
   -0.4171   -0.2034    0.2882 C   0  0  1  0  0  0  0  0  0  0  0  0
    0.2225   -0.5926    1.0875 H   0  0  0  0  0  0  0  0  0  0  0  0
    0.3252   -0.5493   -1.0370 C   0  0  0  0  0  0  0  0  0  0  0  0
    1.0842   -1.3050   -0.8081 H   0  0  0  0  0  0  0  0  0  0  0  0
   -0.4049   -1.0370   -1.6929 H   0  0  0  0  0  0  0  0  0  0  0  0
    0.9853    0.5474   -1.9114 C   0  0  0  0  0  0  0  0  0  0  0  0
    1.9182    0.8497   -1.4286 H   0  0  0  0  0  0  0  0  0  0  0  0
    1.2522    0.1106   -2.8782 H   0  0  0  0  0  0  0  0  0  0  0  0
    0.1756    1.8125   -2.1782 C   0  0  0  0  0  0  0  0  0  0  0  0
   -0.7653    1.7927   -2.9471 O   0  0  0  0  0  0  0  0  0  0  0  0
    0.5090    3.0318   -1.6602 N   0  0  0  0  0  0  0  0  0  0  0  0
   -0.2272    3.7273   -1.7487 H   0  0  0  0  0  0  0  0  0  0  0  0
    1.0956    3.0453   -0.8340 H   0  0  0  0  0  0  0  0  0  0  0  0
   -0.6139    1.2757    0.6755 C   0  0  0  0  0  0  0  0  0  0  0  0
   -1.6369    1.8708    0.3630 O   0  0  0  0  0  0  0  0  0  0  0  0
    0.2750    1.8872    1.5426 N   0  0  0  0  0  0  0  0  0  0  0  0
    0.9998    1.2999    1.9470 H   0  0  0  0  0  0  0  0  0  0  0  0
    0.0195    3.1895    2.1485 C   0  0  0  0  0  0  0  0  0  0  0  0
   -0.8695    3.1466    2.7867 H   0  0  0  0  0  0  0  0  0  0  0  0
    0.8726    3.4955    2.7617 H   0  0  0  0  0  0  0  0  0  0  0  0
   -0.1385    3.9495    1.3760 H   0  0  0  0  0  0  0  0  0  0  0  0
  1  2  1  0  0  0  0
  2  3  1  0  0  0  0
  2  4  1  0  0  0  0
  2  5  1  0  0  0  0
  5  6  2  0  0  0  0
  5  7  1  0  0  0  0
  7  8  1  0  0  0  0
  7  9  1  0  0  0  0
  9 10  1  0  0  0  0
  9 11  1  0  0  0  0
  9 22  1  0  0  0  0
 11 12  1  0  0  0  0
 11 13  1  0  0  0  0
 11 14  1  0  0  0  0
 14 15  1  0  0  0  0
 14 16  1  0  0  0  0
 14 17  1  0  0  0  0
 17 18  2  0  0  0  0
 17 19  1  0  0  0  0
 19 20  1  0  0  0  0
 19 21  1  0  0  0  0
 22 23  2  0  0  0  0
 22 24  1  0  0  0  0
 24 25  1  0  0  0  0
 24 26  1  0  0  0  0
 26 27  1  0  0  0  0
 26 28  1  0  0  0  0
 26 29  1  0  0  0  0
M  END
$$$$

  -OEChem-04042215583D

 29 28  0     1  0  0  0  0  0999 V2000
   -3.3987   -3.6989    1.2856 H   0  0  0  0  0  0  0  0  0  0  0  0
   -3.3831   -2.7259    0.7869 C   0  0  0  0  0  0  0  0  0  0  0  0
   -4.0797   -2.0571    1.2981 H   0  0  0  0  0  0  0  0  0  0  0  0
   -3.7075   -2.8555   -0.2485 H   0  0  0  0  0  0  0  0  0  0  0  0
   -1.9833   -2.1418    0.8220 C   0  0  0  0  0  0  0  0  0  0  0  0
   -1.0729   -2.7616    1.3501 O   0  0  0  0  0  0  0  0  0  0  0  0
   -1.7399   -0.9070    0.2572 N   0  0  0  0  0  0  0  0  0  0  0  0
   -2.5414   -0.3848   -0.0972 H   0  0  0  0  0  0  0  0  0  0  0  0
   -0.4600   -0.1868    0.3292 C   0  0  1  0  0  0  0  0  0  0  0  0
    0.0932   -0.5660    1.1949 H   0  0  0  0  0  0  0  0  0  0  0  0
    0.4043   -0.5628   -0.9141 C   0  0  0  0  0  0  0  0  0  0  0  0
    1.1094   -1.3412   -0.6035 H   0  0  0  0  0  0  0  0  0  0  0  0
   -0.2786   -1.0416   -1.6250 H   0  0  0  0  0  0  0  0  0  0  0  0
    1.1842    0.4726   -1.7717 C   0  0  0  0  0  0  0  0  0  0  0  0
    2.1872    0.5593   -1.3457 H   0  0  0  0  0  0  0  0  0  0  0  0
    1.3063    0.0619   -2.7786 H   0  0  0  0  0  0  0  0  0  0  0  0
    0.6512    1.8947   -1.9133 C   0  0  0  0  0  0  0  0  0  0  0  0
   -0.1468    2.1721   -2.7861 O   0  0  0  0  0  0  0  0  0  0  0  0
    1.1434    2.9493   -1.1978 N   0  0  0  0  0  0  0  0  0  0  0  0
    1.6094    2.7498   -0.3203 H   0  0  0  0  0  0  0  0  0  0  0  0
    0.5895    3.7978   -1.2814 H   0  0  0  0  0  0  0  0  0  0  0  0
   -0.7073    1.2946    0.6734 C   0  0  0  0  0  0  0  0  0  0  0  0
   -1.6877    1.8788    0.2317 O   0  0  0  0  0  0  0  0  0  0  0  0
    0.0761    1.9206    1.6283 N   0  0  0  0  0  0  0  0  0  0  0  0
    0.7354    1.3353    2.1346 H   0  0  0  0  0  0  0  0  0  0  0  0
   -0.2569    3.2279    2.1839 C   0  0  0  0  0  0  0  0  0  0  0  0
   -1.2011    3.1792    2.7365 H   0  0  0  0  0  0  0  0  0  0  0  0
    0.5297    3.5600    2.8683 H   0  0  0  0  0  0  0  0  0  0  0  0
   -0.3551    3.9724    1.3866 H   0  0  0  0  0  0  0  0  0  0  0  0
  1  2  1  0  0  0  0
  2  3  1  0  0  0  0
  2  4  1  0  0  0  0
  2  5  1  0  0  0  0
  5  6  2  0  0  0  0
  5  7  1  0  0  0  0
  7  8  1  0  0  0  0
  7  9  1  0  0  0  0
  9 10  1  0  0  0  0
  9 11  1  0  0  0  0
  9 22  1  0  0  0  0
 11 12  1  0  0  0  0
 11 13  1  0  0  0  0
 11 14  1  0  0  0  0
 14 15  1  0  0  0  0
 14 16  1  0  0  0  0
 14 17  1  0  0  0  0
 17 18  2  0  0  0  0
 17 19  1  0  0  0  0
 19 20  1  0  0  0  0
 19 21  1  0  0  0  0
 22 23  2  0  0  0  0
 22 24  1  0  0  0  0
 24 25  1  0  0  0  0
 24 26  1  0  0  0  0
 26 27  1  0  0  0  0
 26 28  1  0  0  0  0
 26 29  1  0  0  0  0
M  END
$$$$

  -OEChem-04042215583D

 29 28  0     1  0  0  0  0  0999 V2000
   -3.3712   -3.7192    1.0048 H   0  0  0  0  0  0  0  0  0  0  0  0
   -3.3096   -2.7251    0.5529 C   0  0  0  0  0  0  0  0  0  0  0  0
   -3.9789   -2.0514    1.0935 H   0  0  0  0  0  0  0  0  0  0  0  0
   -3.6324   -2.7902   -0.4889 H   0  0  0  0  0  0  0  0  0  0  0  0
   -1.8853   -2.2073    0.6212 C   0  0  0  0  0  0  0  0  0  0  0  0
   -0.9902   -2.9300    1.0295 O   0  0  0  0  0  0  0  0  0  0  0  0
   -1.6011   -0.9228    0.2064 N   0  0  0  0  0  0  0  0  0  0  0  0
   -2.3956   -0.3169    0.0011 H   0  0  0  0  0  0  0  0  0  0  0  0
   -0.3056   -0.2550    0.4167 C   0  0  1  0  0  0  0  0  0  0  0  0
    0.2373   -0.7399    1.2355 H   0  0  0  0  0  0  0  0  0  0  0  0
    0.5454   -0.4435   -0.8804 C   0  0  0  0  0  0  0  0  0  0  0  0
    1.2259   -1.2818   -0.6951 H   0  0  0  0  0  0  0  0  0  0  0  0
   -0.1456   -0.7896   -1.6570 H   0  0  0  0  0  0  0  0  0  0  0  0
    1.3682    0.6874   -1.5667 C   0  0  0  0  0  0  0  0  0  0  0  0
    2.4230    0.4898   -1.3524 H   0  0  0  0  0  0  0  0  0  0  0  0
    1.2496    0.5890   -2.6495 H   0  0  0  0  0  0  0  0  0  0  0  0
    1.1347    2.1502   -1.2118 C   0  0  0  0  0  0  0  0  0  0  0  0
    1.8744    2.7348   -0.4424 O   0  0  0  0  0  0  0  0  0  0  0  0
    0.1328    2.8859   -1.7743 N   0  0  0  0  0  0  0  0  0  0  0  0
   -0.0441    3.7683   -1.3032 H   0  0  0  0  0  0  0  0  0  0  0  0
   -0.6638    2.3692   -2.1322 H   0  0  0  0  0  0  0  0  0  0  0  0
   -0.6191    1.1726    0.9150 C   0  0  0  0  0  0  0  0  0  0  0  0
   -1.5807    1.7749    0.4422 O   0  0  0  0  0  0  0  0  0  0  0  0
    0.0727    1.7188    1.9792 N   0  0  0  0  0  0  0  0  0  0  0  0
    0.9333    1.2527    2.2531 H   0  0  0  0  0  0  0  0  0  0  0  0
   -0.1378    3.0870    2.4361 C   0  0  0  0  0  0  0  0  0  0  0  0
   -1.1846    3.2429    2.7173 H   0  0  0  0  0  0  0  0  0  0  0  0
    0.4866    3.2925    3.3109 H   0  0  0  0  0  0  0  0  0  0  0  0
    0.1266    3.7986    1.6469 H   0  0  0  0  0  0  0  0  0  0  0  0
  1  2  1  0  0  0  0
  2  3  1  0  0  0  0
  2  4  1  0  0  0  0
  2  5  1  0  0  0  0
  5  6  2  0  0  0  0
  5  7  1  0  0  0  0
  7  8  1  0  0  0  0
  7  9  1  0  0  0  0
  9 10  1  0  0  0  0
  9 11  1  0  0  0  0
  9 22  1  0  0  0  0
 11 12  1  0  0  0  0
 11 13  1  0  0  0  0
 11 14  1  0  0  0  0
 14 15  1  0  0  0  0
 14 16  1  0  0  0  0
 14 17  1  0  0  0  0
 17 18  2  0  0  0  0
 17 19  1  0  0  0  0
 19 20  1  0  0  0  0
 19 21  1  0  0  0  0
 22 23  2  0  0  0  0
 22 24  1  0  0  0  0
 24 25  1  0  0  0  0
 24 26  1  0  0  0  0
 26 27  1  0  0  0  0
 26 28  1  0  0  0  0
 26 29  1  0  0  0  0
M  END
$$$$

  -OEChem-04042215583D

 29 28  0     1  0  0  0  0  0999 V2000
   -2.9792   -4.0219    1.0742 H   0  0  0  0  0  0  0  0  0  0  0  0
   -3.0648   -3.0177    0.6498 C   0  0  0  0  0  0  0  0  0  0  0  0
   -3.7720   -2.4407    1.2507 H   0  0  0  0  0  0  0  0  0  0  0  0
   -3.4453   -3.0974   -0.3713 H   0  0  0  0  0  0  0  0  0  0  0  0
   -1.7105   -2.3344    0.6449 C   0  0  0  0  0  0  0  0  0  0  0  0
   -0.7194   -2.9326    1.0345 O   0  0  0  0  0  0  0  0  0  0  0  0
   -1.5978   -1.0361    0.1951 N   0  0  0  0  0  0  0  0  0  0  0  0
   -2.4627   -0.5316   -0.0056 H   0  0  0  0  0  0  0  0  0  0  0  0
   -0.3795   -0.2196    0.3137 C   0  0  1  0  0  0  0  0  0  0  0  0
    0.2757   -0.6183    1.0953 H   0  0  0  0  0  0  0  0  0  0  0  0
    0.3753   -0.3263   -1.0511 C   0  0  0  0  0  0  0  0  0  0  0  0
    1.1665   -1.0688   -0.9022 H   0  0  0  0  0  0  0  0  0  0  0  0
   -0.3191   -0.7766   -1.7696 H   0  0  0  0  0  0  0  0  0  0  0  0
    1.0095    0.8755   -1.8143 C   0  0  0  0  0  0  0  0  0  0  0  0
    2.0674    0.6503   -1.9738 H   0  0  0  0  0  0  0  0  0  0  0  0
    0.5495    0.9135   -2.8069 H   0  0  0  0  0  0  0  0  0  0  0  0
    0.9323    2.2877   -1.2499 C   0  0  0  0  0  0  0  0  0  0  0  0
    0.1726    3.1253   -1.6908 O   0  0  0  0  0  0  0  0  0  0  0  0
    1.8680    2.7462   -0.3660 N   0  0  0  0  0  0  0  0  0  0  0  0
    1.9017    3.7577   -0.2721 H   0  0  0  0  0  0  0  0  0  0  0  0
    2.7140    2.2017   -0.2398 H   0  0  0  0  0  0  0  0  0  0  0  0
   -0.8539    1.1663    0.8097 C   0  0  0  0  0  0  0  0  0  0  0  0
   -1.9308    1.6134    0.4297 O   0  0  0  0  0  0  0  0  0  0  0  0
   -0.1806    1.8183    1.8267 N   0  0  0  0  0  0  0  0  0  0  0  0
    0.6957    1.4183    2.1466 H   0  0  0  0  0  0  0  0  0  0  0  0
   -0.6028    3.1095    2.3560 C   0  0  0  0  0  0  0  0  0  0  0  0
   -1.5864    3.0258    2.8299 H   0  0  0  0  0  0  0  0  0  0  0  0
    0.1125    3.4650    3.1036 H   0  0  0  0  0  0  0  0  0  0  0  0
   -0.6608    3.8515    1.5524 H   0  0  0  0  0  0  0  0  0  0  0  0
  1  2  1  0  0  0  0
  2  3  1  0  0  0  0
  2  4  1  0  0  0  0
  2  5  1  0  0  0  0
  5  6  2  0  0  0  0
  5  7  1  0  0  0  0
  7  8  1  0  0  0  0
  7  9  1  0  0  0  0
  9 10  1  0  0  0  0
  9 11  1  0  0  0  0
  9 22  1  0  0  0  0
 11 12  1  0  0  0  0
 11 13  1  0  0  0  0
 11 14  1  0  0  0  0
 14 15  1  0  0  0  0
 14 16  1  0  0  0  0
 14 17  1  0  0  0  0
 17 18  2  0  0  0  0
 17 19  1  0  0  0  0
 19 20  1  0  0  0  0
 19 21  1  0  0  0  0
 22 23  2  0  0  0  0
 22 24  1  0  0  0  0
 24 25  1  0  0  0  0
 24 26  1  0  0  0  0
 26 27  1  0  0  0  0
 26 28  1  0  0  0  0
 26 29  1  0  0  0  0
M  END
$$$$

  -OEChem-04042215583D

 29 28  0     1  0  0  0  0  0999 V2000
   -3.3143   -3.6826    1.4583 H   0  0  0  0  0  0  0  0  0  0  0  0
   -3.2877   -2.6829    1.0158 C   0  0  0  0  0  0  0  0  0  0  0  0
   -3.8657   -2.0031    1.6464 H   0  0  0  0  0  0  0  0  0  0  0  0
   -3.7427   -2.7245    0.0233 H   0  0  0  0  0  0  0  0  0  0  0  0
   -1.8549   -2.1972    0.9073 C   0  0  0  0  0  0  0  0  0  0  0  0
   -0.9359   -2.9189    1.2597 O   0  0  0  0  0  0  0  0  0  0  0  0
   -1.5939   -0.9425    0.3977 N   0  0  0  0  0  0  0  0  0  0  0  0
   -2.3935   -0.3344    0.2225 H   0  0  0  0  0  0  0  0  0  0  0  0
   -0.2673   -0.3049    0.4016 C   0  0  1  0  0  0  0  0  0  0  0  0
    0.3936   -0.7719    1.1402 H   0  0  0  0  0  0  0  0  0  0  0  0
    0.3343   -0.5388   -1.0208 C   0  0  0  0  0  0  0  0  0  0  0  0
    1.0542   -1.3558   -0.9001 H   0  0  0  0  0  0  0  0  0  0  0  0
   -0.4542   -0.9304   -1.6730 H   0  0  0  0  0  0  0  0  0  0  0  0
    1.0528    0.5688   -1.8431 C   0  0  0  0  0  0  0  0  0  0  0  0
    1.9304    0.1282   -2.3254 H   0  0  0  0  0  0  0  0  0  0  0  0
    0.3750    0.8745   -2.6451 H   0  0  0  0  0  0  0  0  0  0  0  0
    1.5050    1.8431   -1.1440 C   0  0  0  0  0  0  0  0  0  0  0  0
    2.4373    1.8320   -0.3612 O   0  0  0  0  0  0  0  0  0  0  0  0
    0.8704    3.0385   -1.3216 N   0  0  0  0  0  0  0  0  0  0  0  0
   -0.0927    3.0014   -1.6445 H   0  0  0  0  0  0  0  0  0  0  0  0
    1.1284    3.7545   -0.6501 H   0  0  0  0  0  0  0  0  0  0  0  0
   -0.5072    1.1478    0.8701 C   0  0  0  0  0  0  0  0  0  0  0  0
   -1.4578    1.7833    0.4198 O   0  0  0  0  0  0  0  0  0  0  0  0
    0.3157    1.7336    1.8133 N   0  0  0  0  0  0  0  0  0  0  0  0
    1.2048    1.2695    1.9897 H   0  0  0  0  0  0  0  0  0  0  0  0
    0.1562    3.1081    2.2697 C   0  0  0  0  0  0  0  0  0  0  0  0
   -0.8392    3.2556    2.7014 H   0  0  0  0  0  0  0  0  0  0  0  0
    0.9014    3.3380    3.0373 H   0  0  0  0  0  0  0  0  0  0  0  0
    0.2876    3.8079    1.4387 H   0  0  0  0  0  0  0  0  0  0  0  0
  1  2  1  0  0  0  0
  2  3  1  0  0  0  0
  2  4  1  0  0  0  0
  2  5  1  0  0  0  0
  5  6  2  0  0  0  0
  5  7  1  0  0  0  0
  7  8  1  0  0  0  0
  7  9  1  0  0  0  0
  9 10  1  0  0  0  0
  9 11  1  0  0  0  0
  9 22  1  0  0  0  0
 11 12  1  0  0  0  0
 11 13  1  0  0  0  0
 11 14  1  0  0  0  0
 14 15  1  0  0  0  0
 14 16  1  0  0  0  0
 14 17  1  0  0  0  0
 17 18  2  0  0  0  0
 17 19  1  0  0  0  0
 19 20  1  0  0  0  0
 19 21  1  0  0  0  0
 22 23  2  0  0  0  0
 22 24  1  0  0  0  0
 24 25  1  0  0  0  0
 24 26  1  0  0  0  0
 26 27  1  0  0  0  0
 26 28  1  0  0  0  0
 26 29  1  0  0  0  0
M  END
$$$$

  -OEChem-04042215583D

 29 28  0     1  0  0  0  0  0999 V2000
   -3.4910   -3.6093    1.3201 H   0  0  0  0  0  0  0  0  0  0  0  0
   -3.3961   -2.6494    0.8047 C   0  0  0  0  0  0  0  0  0  0  0  0
   -4.0359   -1.9175    1.3037 H   0  0  0  0  0  0  0  0  0  0  0  0
   -3.7289   -2.7698   -0.2290 H   0  0  0  0  0  0  0  0  0  0  0  0
   -1.9531   -2.1815    0.8329 C   0  0  0  0  0  0  0  0  0  0  0  0
   -1.0916   -2.8876    1.3317 O   0  0  0  0  0  0  0  0  0  0  0  0
   -1.6188   -0.9591    0.2885 N   0  0  0  0  0  0  0  0  0  0  0  0
   -2.3846   -0.3591   -0.0169 H   0  0  0  0  0  0  0  0  0  0  0  0
   -0.2955   -0.3271    0.4150 C   0  0  1  0  0  0  0  0  0  0  0  0
    0.2761   -0.7580    1.2446 H   0  0  0  0  0  0  0  0  0  0  0  0
    0.4566   -0.6170   -0.9203 C   0  0  0  0  0  0  0  0  0  0  0  0
    1.1632   -1.4222   -0.6913 H   0  0  0  0  0  0  0  0  0  0  0  0
   -0.2497   -1.0292   -1.6493 H   0  0  0  0  0  0  0  0  0  0  0  0
    1.2564    0.4861   -1.6615 C   0  0  0  0  0  0  0  0  0  0  0  0
    2.0419    0.0163   -2.2600 H   0  0  0  0  0  0  0  0  0  0  0  0
    0.5700    0.9747   -2.3589 H   0  0  0  0  0  0  0  0  0  0  0  0
    1.8919    1.5839   -0.8175 C   0  0  0  0  0  0  0  0  0  0  0  0
    2.5891    1.3215    0.1464 O   0  0  0  0  0  0  0  0  0  0  0  0
    1.6623    2.9081   -1.0571 N   0  0  0  0  0  0  0  0  0  0  0  0
    1.9560    3.5392   -0.3181 H   0  0  0  0  0  0  0  0  0  0  0  0
    0.8598    3.1514   -1.6300 H   0  0  0  0  0  0  0  0  0  0  0  0
   -0.5729    1.1528    0.7690 C   0  0  0  0  0  0  0  0  0  0  0  0
   -1.4530    1.7693    0.1739 O   0  0  0  0  0  0  0  0  0  0  0  0
    0.1383    1.7881    1.7690 N   0  0  0  0  0  0  0  0  0  0  0  0
    1.0037    1.3351    2.0612 H   0  0  0  0  0  0  0  0  0  0  0  0
   -0.0729    3.1812    2.1403 C   0  0  0  0  0  0  0  0  0  0  0  0
   -1.1075    3.3384    2.4629 H   0  0  0  0  0  0  0  0  0  0  0  0
    0.5898    3.4546    2.9670 H   0  0  0  0  0  0  0  0  0  0  0  0
    0.1364    3.8423    1.2935 H   0  0  0  0  0  0  0  0  0  0  0  0
  1  2  1  0  0  0  0
  2  3  1  0  0  0  0
  2  4  1  0  0  0  0
  2  5  1  0  0  0  0
  5  6  2  0  0  0  0
  5  7  1  0  0  0  0
  7  8  1  0  0  0  0
  7  9  1  0  0  0  0
  9 10  1  0  0  0  0
  9 11  1  0  0  0  0
  9 22  1  0  0  0  0
 11 12  1  0  0  0  0
 11 13  1  0  0  0  0
 11 14  1  0  0  0  0
 14 15  1  0  0  0  0
 14 16  1  0  0  0  0
 14 17  1  0  0  0  0
 17 18  2  0  0  0  0
 17 19  1  0  0  0  0
 19 20  1  0  0  0  0
 19 21  1  0  0  0  0
 22 23  2  0  0  0  0
 22 24  1  0  0  0  0
 24 25  1  0  0  0  0
 24 26  1  0  0  0  0
 26 27  1  0  0  0  0
 26 28  1  0  0  0  0
 26 29  1  0  0  0  0
M  END
$$$$

  -OEChem-04042215583D

 29 28  0     1  0  0  0  0  0999 V2000
   -3.4280   -3.7066    1.3875 H   0  0  0  0  0  0  0  0  0  0  0  0
   -3.3690   -2.7479    0.8644 C   0  0  0  0  0  0  0  0  0  0  0  0
   -4.0108   -2.0273    1.3770 H   0  0  0  0  0  0  0  0  0  0  0  0
   -3.7277   -2.8815   -0.1590 H   0  0  0  0  0  0  0  0  0  0  0  0
   -1.9366   -2.2482    0.8497 C   0  0  0  0  0  0  0  0  0  0  0  0
   -1.0454   -2.9396    1.3157 O   0  0  0  0  0  0  0  0  0  0  0  0
   -1.6470   -1.0168    0.3004 N   0  0  0  0  0  0  0  0  0  0  0  0
   -2.4358   -0.4304    0.0289 H   0  0  0  0  0  0  0  0  0  0  0  0
   -0.3382   -0.3517    0.3976 C   0  0  1  0  0  0  0  0  0  0  0  0
    0.2648   -0.7745    1.2092 H   0  0  0  0  0  0  0  0  0  0  0  0
    0.3987   -0.5866   -0.9524 C   0  0  0  0  0  0  0  0  0  0  0  0
    1.1341   -1.3787   -0.7743 H   0  0  0  0  0  0  0  0  0  0  0  0
   -0.3125   -0.9809   -1.6861 H   0  0  0  0  0  0  0  0  0  0  0  0
    1.1310    0.5958   -1.6324 C   0  0  0  0  0  0  0  0  0  0  0  0
    1.7589    0.2103   -2.4402 H   0  0  0  0  0  0  0  0  0  0  0  0
    0.3745    1.2446   -2.0835 H   0  0  0  0  0  0  0  0  0  0  0  0
    1.9977    1.4616   -0.7199 C   0  0  0  0  0  0  0  0  0  0  0  0
    2.5342    1.0211    0.2820 O   0  0  0  0  0  0  0  0  0  0  0  0
    2.2217    2.7822   -0.9841 N   0  0  0  0  0  0  0  0  0  0  0  0
    2.9291    3.2487   -0.4241 H   0  0  0  0  0  0  0  0  0  0  0  0
    1.9198    3.1741   -1.8701 H   0  0  0  0  0  0  0  0  0  0  0  0
   -0.6309    1.1235    0.7615 C   0  0  0  0  0  0  0  0  0  0  0  0
   -1.5522    1.7163    0.2063 O   0  0  0  0  0  0  0  0  0  0  0  0
    0.0963    1.7684    1.7434 N   0  0  0  0  0  0  0  0  0  0  0  0
    0.9862    1.3316    1.9863 H   0  0  0  0  0  0  0  0  0  0  0  0
   -0.0817    3.1796    2.0590 C   0  0  0  0  0  0  0  0  0  0  0  0
   -1.1148    3.3779    2.3630 H   0  0  0  0  0  0  0  0  0  0  0  0
    0.5795    3.4673    2.8819 H   0  0  0  0  0  0  0  0  0  0  0  0
    0.1559    3.7993    1.1883 H   0  0  0  0  0  0  0  0  0  0  0  0
  1  2  1  0  0  0  0
  2  3  1  0  0  0  0
  2  4  1  0  0  0  0
  2  5  1  0  0  0  0
  5  6  2  0  0  0  0
  5  7  1  0  0  0  0
  7  8  1  0  0  0  0
  7  9  1  0  0  0  0
  9 10  1  0  0  0  0
  9 11  1  0  0  0  0
  9 22  1  0  0  0  0
 11 12  1  0  0  0  0
 11 13  1  0  0  0  0
 11 14  1  0  0  0  0
 14 15  1  0  0  0  0
 14 16  1  0  0  0  0
 14 17  1  0  0  0  0
 17 18  2  0  0  0  0
 17 19  1  0  0  0  0
 19 20  1  0  0  0  0
 19 21  1  0  0  0  0
 22 23  2  0  0  0  0
 22 24  1  0  0  0  0
 24 25  1  0  0  0  0
 24 26  1  0  0  0  0
 26 27  1  0  0  0  0
 26 28  1  0  0  0  0
 26 29  1  0  0  0  0
M  END
$$$$

  -OEChem-04042215583D

 29 28  0     1  0  0  0  0  0999 V2000
   -3.3648   -3.7709    1.4078 H   0  0  0  0  0  0  0  0  0  0  0  0
   -3.3411   -2.7996    0.9058 C   0  0  0  0  0  0  0  0  0  0  0  0
   -3.9738   -2.1017    1.4594 H   0  0  0  0  0  0  0  0  0  0  0  0
   -3.7365   -2.9160   -0.1060 H   0  0  0  0  0  0  0  0  0  0  0  0
   -1.9186   -2.2753    0.8494 C   0  0  0  0  0  0  0  0  0  0  0  0
   -1.0024   -2.9525    1.2871 O   0  0  0  0  0  0  0  0  0  0  0  0
   -1.6684   -1.0367    0.2967 N   0  0  0  0  0  0  0  0  0  0  0  0
   -2.4765   -0.4665    0.0497 H   0  0  0  0  0  0  0  0  0  0  0  0
   -0.3725   -0.3437    0.3621 C   0  0  1  0  0  0  0  0  0  0  0  0
    0.2459   -0.7610    1.1648 H   0  0  0  0  0  0  0  0  0  0  0  0
    0.3701   -0.5578   -0.9847 C   0  0  0  0  0  0  0  0  0  0  0  0
    1.1245   -1.3373   -0.8311 H   0  0  0  0  0  0  0  0  0  0  0  0
   -0.3406   -0.9478   -1.7209 H   0  0  0  0  0  0  0  0  0  0  0  0
    1.0486    0.6760   -1.6249 C   0  0  0  0  0  0  0  0  0  0  0  0
    1.5092    0.3703   -2.5681 H   0  0  0  0  0  0  0  0  0  0  0  0
    0.2873    1.4253   -1.8608 H   0  0  0  0  0  0  0  0  0  0  0  0
    2.1292    1.3313   -0.7631 C   0  0  0  0  0  0  0  0  0  0  0  0
    2.5390    0.8461    0.2774 O   0  0  0  0  0  0  0  0  0  0  0  0
    2.6891    2.5252   -1.1160 N   0  0  0  0  0  0  0  0  0  0  0  0
    3.5037    2.8195   -0.5850 H   0  0  0  0  0  0  0  0  0  0  0  0
    2.5116    2.9039   -2.0405 H   0  0  0  0  0  0  0  0  0  0  0  0
   -0.6472    1.1310    0.7357 C   0  0  0  0  0  0  0  0  0  0  0  0
   -1.5961    1.7217    0.2275 O   0  0  0  0  0  0  0  0  0  0  0  0
    0.1172    1.7674    1.6940 N   0  0  0  0  0  0  0  0  0  0  0  0
    1.0109    1.3214    1.9067 H   0  0  0  0  0  0  0  0  0  0  0  0
   -0.0423    3.1774    2.0236 C   0  0  0  0  0  0  0  0  0  0  0  0
   -1.0672    3.3822    2.3507 H   0  0  0  0  0  0  0  0  0  0  0  0
    0.6385    3.4533    2.8345 H   0  0  0  0  0  0  0  0  0  0  0  0
    0.1818    3.8017    1.1526 H   0  0  0  0  0  0  0  0  0  0  0  0
  1  2  1  0  0  0  0
  2  3  1  0  0  0  0
  2  4  1  0  0  0  0
  2  5  1  0  0  0  0
  5  6  2  0  0  0  0
  5  7  1  0  0  0  0
  7  8  1  0  0  0  0
  7  9  1  0  0  0  0
  9 10  1  0  0  0  0
  9 11  1  0  0  0  0
  9 22  1  0  0  0  0
 11 12  1  0  0  0  0
 11 13  1  0  0  0  0
 11 14  1  0  0  0  0
 14 15  1  0  0  0  0
 14 16  1  0  0  0  0
 14 17  1  0  0  0  0
 17 18  2  0  0  0  0
 17 19  1  0  0  0  0
 19 20  1  0  0  0  0
 19 21  1  0  0  0  0
 22 23  2  0  0  0  0
 22 24  1  0  0  0  0
 24 25  1  0  0  0  0
 24 26  1  0  0  0  0
 26 27  1  0  0  0  0
 26 28  1  0  0  0  0
 26 29  1  0  0  0  0
M  END
$$$$

  -OEChem-04042215583D

 29 28  0     1  0  0  0  0  0999 V2000
   -3.3111   -3.8105    1.3951 H   0  0  0  0  0  0  0  0  0  0  0  0
   -3.3132   -2.8289    0.9130 C   0  0  0  0  0  0  0  0  0  0  0  0
   -3.9401   -2.1513    1.4977 H   0  0  0  0  0  0  0  0  0  0  0  0
   -3.7333   -2.9289   -0.0905 H   0  0  0  0  0  0  0  0  0  0  0  0
   -1.8999   -2.2843    0.8295 C   0  0  0  0  0  0  0  0  0  0  0  0
   -0.9634   -2.9549    1.2331 O   0  0  0  0  0  0  0  0  0  0  0  0
   -1.6821   -1.0344    0.2886 N   0  0  0  0  0  0  0  0  0  0  0  0
   -2.5055   -0.4752    0.0690 H   0  0  0  0  0  0  0  0  0  0  0  0
   -0.3985   -0.3178    0.3360 C   0  0  1  0  0  0  0  0  0  0  0  0
    0.2262   -0.7351    1.1338 H   0  0  0  0  0  0  0  0  0  0  0  0
    0.3589   -0.5260   -1.0011 C   0  0  0  0  0  0  0  0  0  0  0  0
    1.1243   -1.2959   -0.8532 H   0  0  0  0  0  0  0  0  0  0  0  0
   -0.3481   -0.9231   -1.7371 H   0  0  0  0  0  0  0  0  0  0  0  0
    1.0030    0.7303   -1.6307 C   0  0  0  0  0  0  0  0  0  0  0  0
    1.2787    0.4839   -2.6596 H   0  0  0  0  0  0  0  0  0  0  0  0
    0.2893    1.5567   -1.6829 H   0  0  0  0  0  0  0  0  0  0  0  0
    2.2751    1.1853   -0.9155 C   0  0  0  0  0  0  0  0  0  0  0  0
    2.5550    0.8488    0.2224 O   0  0  0  0  0  0  0  0  0  0  0  0
    3.1502    2.0487   -1.5084 N   0  0  0  0  0  0  0  0  0  0  0  0
    3.8749    2.4377   -0.9123 H   0  0  0  0  0  0  0  0  0  0  0  0
    2.8764    2.5237   -2.3621 H   0  0  0  0  0  0  0  0  0  0  0  0
   -0.6573    1.1530    0.7321 C   0  0  0  0  0  0  0  0  0  0  0  0
   -1.6344    1.7436    0.2806 O   0  0  0  0  0  0  0  0  0  0  0  0
    0.1386    1.7714    1.6762 N   0  0  0  0  0  0  0  0  0  0  0  0
    1.0433    1.3281    1.8444 H   0  0  0  0  0  0  0  0  0  0  0  0
   -0.0304    3.1642    2.0680 C   0  0  0  0  0  0  0  0  0  0  0  0
   -1.0425    3.3359    2.4492 H   0  0  0  0  0  0  0  0  0  0  0  0
    0.6818    3.4216    2.8579 H   0  0  0  0  0  0  0  0  0  0  0  0
    0.1423    3.8265    1.2135 H   0  0  0  0  0  0  0  0  0  0  0  0
  1  2  1  0  0  0  0
  2  3  1  0  0  0  0
  2  4  1  0  0  0  0
  2  5  1  0  0  0  0
  5  6  2  0  0  0  0
  5  7  1  0  0  0  0
  7  8  1  0  0  0  0
  7  9  1  0  0  0  0
  9 10  1  0  0  0  0
  9 11  1  0  0  0  0
  9 22  1  0  0  0  0
 11 12  1  0  0  0  0
 11 13  1  0  0  0  0
 11 14  1  0  0  0  0
 14 15  1  0  0  0  0
 14 16  1  0  0  0  0
 14 17  1  0  0  0  0
 17 18  2  0  0  0  0
 17 19  1  0  0  0  0
 19 20  1  0  0  0  0
 19 21  1  0  0  0  0
 22 23  2  0  0  0  0
 22 24  1  0  0  0  0
 24 25  1  0  0  0  0
 24 26  1  0  0  0  0
 26 27  1  0  0  0  0
 26 28  1  0  0  0  0
 26 29  1  0  0  0  0
M  END
$$$$

  -OEChem-04042215583D

 29 28  0     1  0  0  0  0  0999 V2000
   -3.1968   -3.8811    1.3203 H   0  0  0  0  0  0  0  0  0  0  0  0
   -3.2453   -2.8817    0.8789 C   0  0  0  0  0  0  0  0  0  0  0  0
   -3.8778   -2.2497    1.5071 H   0  0  0  0  0  0  0  0  0  0  0  0
   -3.6899   -2.9566   -0.1163 H   0  0  0  0  0  0  0  0  0  0  0  0
   -1.8533   -2.2868    0.7805 C   0  0  0  0  0  0  0  0  0  0  0  0
   -0.8852   -2.9411    1.1337 O   0  0  0  0  0  0  0  0  0  0  0  0
   -1.6886   -1.0125    0.2792 N   0  0  0  0  0  0  0  0  0  0  0  0
   -2.5340   -0.4718    0.1005 H   0  0  0  0  0  0  0  0  0  0  0  0
   -0.4276   -0.2572    0.3229 C   0  0  1  0  0  0  0  0  0  0  0  0
    0.2099   -0.6803    1.1071 H   0  0  0  0  0  0  0  0  0  0  0  0
    0.3452   -0.4229   -1.0101 C   0  0  0  0  0  0  0  0  0  0  0  0
    1.1287   -1.1777   -0.8772 H   0  0  0  0  0  0  0  0  0  0  0  0
   -0.3527   -0.8270   -1.7509 H   0  0  0  0  0  0  0  0  0  0  0  0
    0.9451    0.8658   -1.6196 C   0  0  0  0  0  0  0  0  0  0  0  0
    1.0106    0.7203   -2.7013 H   0  0  0  0  0  0  0  0  0  0  0  0
    0.3191    1.7475   -1.4674 H   0  0  0  0  0  0  0  0  0  0  0  0
    2.3593    1.1157   -1.1071 C   0  0  0  0  0  0  0  0  0  0  0  0
    2.6253    1.0432    0.0802 O   0  0  0  0  0  0  0  0  0  0  0  0
    3.3878    1.4505   -1.9404 N   0  0  0  0  0  0  0  0  0  0  0  0
    4.2468    1.7592   -1.4940 H   0  0  0  0  0  0  0  0  0  0  0  0
    3.1827    1.7169   -2.8976 H   0  0  0  0  0  0  0  0  0  0  0  0
   -0.6972    1.1941    0.7741 C   0  0  0  0  0  0  0  0  0  0  0  0
   -1.7090    1.7727    0.3892 O   0  0  0  0  0  0  0  0  0  0  0  0
    0.1190    1.7898    1.7160 N   0  0  0  0  0  0  0  0  0  0  0  0
    1.0407    1.3661    1.8308 H   0  0  0  0  0  0  0  0  0  0  0  0
   -0.0641    3.1633    2.1646 C   0  0  0  0  0  0  0  0  0  0  0  0
   -1.0671    3.3010    2.5819 H   0  0  0  0  0  0  0  0  0  0  0  0
    0.6668    3.4053    2.9420 H   0  0  0  0  0  0  0  0  0  0  0  0
    0.0708    3.8592    1.3303 H   0  0  0  0  0  0  0  0  0  0  0  0
  1  2  1  0  0  0  0
  2  3  1  0  0  0  0
  2  4  1  0  0  0  0
  2  5  1  0  0  0  0
  5  6  2  0  0  0  0
  5  7  1  0  0  0  0
  7  8  1  0  0  0  0
  7  9  1  0  0  0  0
  9 10  1  0  0  0  0
  9 11  1  0  0  0  0
  9 22  1  0  0  0  0
 11 12  1  0  0  0  0
 11 13  1  0  0  0  0
 11 14  1  0  0  0  0
 14 15  1  0  0  0  0
 14 16  1  0  0  0  0
 14 17  1  0  0  0  0
 17 18  2  0  0  0  0
 17 19  1  0  0  0  0
 19 20  1  0  0  0  0
 19 21  1  0  0  0  0
 22 23  2  0  0  0  0
 22 24  1  0  0  0  0
 24 25  1  0  0  0  0
 24 26  1  0  0  0  0
 26 27  1  0  0  0  0
 26 28  1  0  0  0  0
 26 29  1  0  0  0  0
M  END
$$$$

  -OEChem-04042215583D

 29 28  0     1  0  0  0  0  0999 V2000
   -3.1497   -3.9005    1.2011 H   0  0  0  0  0  0  0  0  0  0  0  0
   -3.2053   -2.8822    0.8064 C   0  0  0  0  0  0  0  0  0  0  0  0
   -3.8482   -2.2866    1.4590 H   0  0  0  0  0  0  0  0  0  0  0  0
   -3.6431   -2.9159   -0.1942 H   0  0  0  0  0  0  0  0  0  0  0  0
   -1.8190   -2.2686    0.7446 C   0  0  0  0  0  0  0  0  0  0  0  0
   -0.8482   -2.9176    1.0999 O   0  0  0  0  0  0  0  0  0  0  0  0
   -1.6619   -0.9819    0.2731 N   0  0  0  0  0  0  0  0  0  0  0  0
   -2.5108   -0.4477    0.0914 H   0  0  0  0  0  0  0  0  0  0  0  0
   -0.4079   -0.2162    0.3402 C   0  0  1  0  0  0  0  0  0  0  0  0
    0.2333   -0.6499    1.1157 H   0  0  0  0  0  0  0  0  0  0  0  0
    0.3622   -0.3476   -0.9995 C   0  0  0  0  0  0  0  0  0  0  0  0
    1.1415   -1.1095   -0.8813 H   0  0  0  0  0  0  0  0  0  0  0  0
   -0.3377   -0.7411   -1.7442 H   0  0  0  0  0  0  0  0  0  0  0  0
    0.9638    0.9464   -1.6053 C   0  0  0  0  0  0  0  0  0  0  0  0
    0.7736    0.9353   -2.6819 H   0  0  0  0  0  0  0  0  0  0  0  0
    0.5165    1.8672   -1.2292 H   0  0  0  0  0  0  0  0  0  0  0  0
    2.4716    0.9878   -1.4000 C   0  0  0  0  0  0  0  0  0  0  0  0
    2.9457    0.9961   -0.2787 O   0  0  0  0  0  0  0  0  0  0  0  0
    3.3562    0.9832   -2.4406 N   0  0  0  0  0  0  0  0  0  0  0  0
    4.3305    1.1502   -2.2058 H   0  0  0  0  0  0  0  0  0  0  0  0
    3.0179    1.1507   -3.3820 H   0  0  0  0  0  0  0  0  0  0  0  0
   -0.7010    1.2196    0.8225 C   0  0  0  0  0  0  0  0  0  0  0  0
   -1.7053    1.8020    0.4250 O   0  0  0  0  0  0  0  0  0  0  0  0
    0.0975    1.8090    1.7839 N   0  0  0  0  0  0  0  0  0  0  0  0
    0.9831    1.3496    1.9891 H   0  0  0  0  0  0  0  0  0  0  0  0
   -0.1147    3.1648    2.2733 C   0  0  0  0  0  0  0  0  0  0  0  0
   -1.1137    3.2620    2.7109 H   0  0  0  0  0  0  0  0  0  0  0  0
    0.6230    3.4075    3.0443 H   0  0  0  0  0  0  0  0  0  0  0  0
   -0.0150    3.8875    1.4568 H   0  0  0  0  0  0  0  0  0  0  0  0
  1  2  1  0  0  0  0
  2  3  1  0  0  0  0
  2  4  1  0  0  0  0
  2  5  1  0  0  0  0
  5  6  2  0  0  0  0
  5  7  1  0  0  0  0
  7  8  1  0  0  0  0
  7  9  1  0  0  0  0
  9 10  1  0  0  0  0
  9 11  1  0  0  0  0
  9 22  1  0  0  0  0
 11 12  1  0  0  0  0
 11 13  1  0  0  0  0
 11 14  1  0  0  0  0
 14 15  1  0  0  0  0
 14 16  1  0  0  0  0
 14 17  1  0  0  0  0
 17 18  2  0  0  0  0
 17 19  1  0  0  0  0
 19 20  1  0  0  0  0
 19 21  1  0  0  0  0
 22 23  2  0  0  0  0
 22 24  1  0  0  0  0
 24 25  1  0  0  0  0
 24 26  1  0  0  0  0
 26 27  1  0  0  0  0
 26 28  1  0  0  0  0
 26 29  1  0  0  0  0
M  END
$$$$

  -OEChem-04042215583D

 29 28  0     1  0  0  0  0  0999 V2000
   -3.1742   -3.8645    1.1103 H   0  0  0  0  0  0  0  0  0  0  0  0
   -3.2071   -2.8409    0.7267 C   0  0  0  0  0  0  0  0  0  0  0  0
   -3.8641   -2.2460    1.3656 H   0  0  0  0  0  0  0  0  0  0  0  0
   -3.6133   -2.8576   -0.2874 H   0  0  0  0  0  0  0  0  0  0  0  0
   -1.8137   -2.2415    0.7169 C   0  0  0  0  0  0  0  0  0  0  0  0
   -0.8632   -2.8992    1.1088 O   0  0  0  0  0  0  0  0  0  0  0  0
   -1.6269   -0.9527    0.2624 N   0  0  0  0  0  0  0  0  0  0  0  0
   -2.4621   -0.4082    0.0493 H   0  0  0  0  0  0  0  0  0  0  0  0
   -0.3636   -0.2065    0.3661 C   0  0  1  0  0  0  0  0  0  0  0  0
    0.2704   -0.6571    1.1376 H   0  0  0  0  0  0  0  0  0  0  0  0
    0.3968   -0.3159   -0.9835 C   0  0  0  0  0  0  0  0  0  0  0  0
    1.1676   -1.0867   -0.8657 H   0  0  0  0  0  0  0  0  0  0  0  0
   -0.2981   -0.6966   -1.7397 H   0  0  0  0  0  0  0  0  0  0  0  0
    1.0273    0.9756   -1.5713 C   0  0  0  0  0  0  0  0  0  0  0  0
    0.5864    1.1696   -2.5528 H   0  0  0  0  0  0  0  0  0  0  0  0
    0.8466    1.8652   -0.9677 H   0  0  0  0  0  0  0  0  0  0  0  0
    2.5346    0.8272   -1.7253 C   0  0  0  0  0  0  0  0  0  0  0  0
    3.2643    0.7939   -0.7526 O   0  0  0  0  0  0  0  0  0  0  0  0
    3.1335    0.6818   -2.9441 N   0  0  0  0  0  0  0  0  0  0  0  0
    4.1486    0.7269   -2.9558 H   0  0  0  0  0  0  0  0  0  0  0  0
    2.6001    0.8707   -3.7860 H   0  0  0  0  0  0  0  0  0  0  0  0
   -0.6760    1.2223    0.8580 C   0  0  0  0  0  0  0  0  0  0  0  0
   -1.6491    1.8223    0.4127 O   0  0  0  0  0  0  0  0  0  0  0  0
    0.0903    1.8040    1.8501 N   0  0  0  0  0  0  0  0  0  0  0  0
    0.9215    1.3019    2.1536 H   0  0  0  0  0  0  0  0  0  0  0  0
   -0.1422    3.1508    2.3555 C   0  0  0  0  0  0  0  0  0  0  0  0
   -1.1490    3.2332    2.7783 H   0  0  0  0  0  0  0  0  0  0  0  0
    0.5819    3.3894    3.1405 H   0  0  0  0  0  0  0  0  0  0  0  0
   -0.0358    3.8857    1.5508 H   0  0  0  0  0  0  0  0  0  0  0  0
  1  2  1  0  0  0  0
  2  3  1  0  0  0  0
  2  4  1  0  0  0  0
  2  5  1  0  0  0  0
  5  6  2  0  0  0  0
  5  7  1  0  0  0  0
  7  8  1  0  0  0  0
  7  9  1  0  0  0  0
  9 10  1  0  0  0  0
  9 11  1  0  0  0  0
  9 22  1  0  0  0  0
 11 12  1  0  0  0  0
 11 13  1  0  0  0  0
 11 14  1  0  0  0  0
 14 15  1  0  0  0  0
 14 16  1  0  0  0  0
 14 17  1  0  0  0  0
 17 18  2  0  0  0  0
 17 19  1  0  0  0  0
 19 20  1  0  0  0  0
 19 21  1  0  0  0  0
 22 23  2  0  0  0  0
 22 24  1  0  0  0  0
 24 25  1  0  0  0  0
 24 26  1  0  0  0  0
 26 27  1  0  0  0  0
 26 28  1  0  0  0  0
 26 29  1  0  0  0  0
M  END
$$$$

  -OEChem-04042215583D

 29 28  0     1  0  0  0  0  0999 V2000
   -3.2209   -3.8237    1.0230 H   0  0  0  0  0  0  0  0  0  0  0  0
   -3.2273   -2.7925    0.6587 C   0  0  0  0  0  0  0  0  0  0  0  0
   -3.8943   -2.1999    1.2895 H   0  0  0  0  0  0  0  0  0  0  0  0
   -3.6038   -2.7838   -0.3670 H   0  0  0  0  0  0  0  0  0  0  0  0
   -1.8251   -2.2148    0.7012 C   0  0  0  0  0  0  0  0  0  0  0  0
   -0.9014   -2.8843    1.1348 O   0  0  0  0  0  0  0  0  0  0  0  0
   -1.5987   -0.9323    0.2469 N   0  0  0  0  0  0  0  0  0  0  0  0
   -2.4146   -0.3741   -0.0025 H   0  0  0  0  0  0  0  0  0  0  0  0
   -0.3226   -0.2132    0.3789 C   0  0  1  0  0  0  0  0  0  0  0  0
    0.2965   -0.6757    1.1554 H   0  0  0  0  0  0  0  0  0  0  0  0
    0.4357   -0.3198   -0.9715 C   0  0  0  0  0  0  0  0  0  0  0  0
    1.2050   -1.0892   -0.8381 H   0  0  0  0  0  0  0  0  0  0  0  0
   -0.2439   -0.6964   -1.7434 H   0  0  0  0  0  0  0  0  0  0  0  0
    1.0908    0.9712   -1.5259 C   0  0  0  0  0  0  0  0  0  0  0  0
    0.4730    1.3863   -2.3270 H   0  0  0  0  0  0  0  0  0  0  0  0
    1.1933    1.7438   -0.7620 H   0  0  0  0  0  0  0  0  0  0  0  0
    2.5011    0.6969   -2.0305 C   0  0  0  0  0  0  0  0  0  0  0  0
    3.4383    0.5865   -1.2636 O   0  0  0  0  0  0  0  0  0  0  0  0
    2.7731    0.5129   -3.3560 N   0  0  0  0  0  0  0  0  0  0  0  0
    3.7551    0.4664   -3.6123 H   0  0  0  0  0  0  0  0  0  0  0  0
    2.0715    0.7593   -4.0459 H   0  0  0  0  0  0  0  0  0  0  0  0
   -0.6306    1.2218    0.8581 C   0  0  0  0  0  0  0  0  0  0  0  0
   -1.5706    1.8403    0.3695 O   0  0  0  0  0  0  0  0  0  0  0  0
    0.1139    1.7987    1.8700 N   0  0  0  0  0  0  0  0  0  0  0  0
    0.8883    1.2603    2.2502 H   0  0  0  0  0  0  0  0  0  0  0  0
   -0.1323    3.1406    2.3827 C   0  0  0  0  0  0  0  0  0  0  0  0
   -1.1385    3.2092    2.8093 H   0  0  0  0  0  0  0  0  0  0  0  0
    0.5924    3.3847    3.1654 H   0  0  0  0  0  0  0  0  0  0  0  0
   -0.0375    3.8807    1.5813 H   0  0  0  0  0  0  0  0  0  0  0  0
  1  2  1  0  0  0  0
  2  3  1  0  0  0  0
  2  4  1  0  0  0  0
  2  5  1  0  0  0  0
  5  6  2  0  0  0  0
  5  7  1  0  0  0  0
  7  8  1  0  0  0  0
  7  9  1  0  0  0  0
  9 10  1  0  0  0  0
  9 11  1  0  0  0  0
  9 22  1  0  0  0  0
 11 12  1  0  0  0  0
 11 13  1  0  0  0  0
 11 14  1  0  0  0  0
 14 15  1  0  0  0  0
 14 16  1  0  0  0  0
 14 17  1  0  0  0  0
 17 18  2  0  0  0  0
 17 19  1  0  0  0  0
 19 20  1  0  0  0  0
 19 21  1  0  0  0  0
 22 23  2  0  0  0  0
 22 24  1  0  0  0  0
 24 25  1  0  0  0  0
 24 26  1  0  0  0  0
 26 27  1  0  0  0  0
 26 28  1  0  0  0  0
 26 29  1  0  0  0  0
M  END
$$$$

  -OEChem-04042215583D

 29 28  0     1  0  0  0  0  0999 V2000
   -3.3163   -3.7775    1.3862 H   0  0  0  0  0  0  0  0  0  0  0  0
   -3.2962   -2.8091    0.8782 C   0  0  0  0  0  0  0  0  0  0  0  0
   -3.9854   -2.1303    1.3864 H   0  0  0  0  0  0  0  0  0  0  0  0
   -3.6255   -2.9463   -0.1546 H   0  0  0  0  0  0  0  0  0  0  0  0
   -1.8918   -2.2357    0.9017 C   0  0  0  0  0  0  0  0  0  0  0  0
   -0.9884   -2.8548    1.4407 O   0  0  0  0  0  0  0  0  0  0  0  0
   -1.6452   -1.0047    0.3300 N   0  0  0  0  0  0  0  0  0  0  0  0
   -2.4440   -0.4816   -0.0259 H   0  0  0  0  0  0  0  0  0  0  0  0
   -0.3498   -0.3101    0.3627 C   0  0  1  0  0  0  0  0  0  0  0  0
    0.2888   -0.7244    1.1502 H   0  0  0  0  0  0  0  0  0  0  0  0
    0.3480   -0.5384   -1.0054 C   0  0  0  0  0  0  0  0  0  0  0  0
    1.1098   -1.3074   -0.8358 H   0  0  0  0  0  0  0  0  0  0  0  0
   -0.3610   -0.9579   -1.7275 H   0  0  0  0  0  0  0  0  0  0  0  0
    1.0010    0.7071   -1.6595 C   0  0  0  0  0  0  0  0  0  0  0  0
    0.2525    1.2458   -2.2474 H   0  0  0  0  0  0  0  0  0  0  0  0
    1.3739    1.3839   -0.8879 H   0  0  0  0  0  0  0  0  0  0  0  0
    2.2127    0.3876   -2.5343 C   0  0  0  0  0  0  0  0  0  0  0  0
    2.5754   -0.7423   -2.8013 O   0  0  0  0  0  0  0  0  0  0  0  0
    2.9541    1.3859   -3.0979 N   0  0  0  0  0  0  0  0  0  0  0  0
    3.6210    1.0946   -3.8068 H   0  0  0  0  0  0  0  0  0  0  0  0
    2.5828    2.3298   -3.1028 H   0  0  0  0  0  0  0  0  0  0  0  0
   -0.6024    1.1708    0.7208 C   0  0  0  0  0  0  0  0  0  0  0  0
   -1.5140    1.7881    0.1806 O   0  0  0  0  0  0  0  0  0  0  0  0
    0.1907    1.8086    1.6570 N   0  0  0  0  0  0  0  0  0  0  0  0
    0.8843    1.2462    2.1429 H   0  0  0  0  0  0  0  0  0  0  0  0
   -0.0326    3.1815    2.0929 C   0  0  0  0  0  0  0  0  0  0  0  0
   -1.0180    3.2798    2.5602 H   0  0  0  0  0  0  0  0  0  0  0  0
    0.7275    3.4740    2.8236 H   0  0  0  0  0  0  0  0  0  0  0  0
    0.0246    3.8688    1.2424 H   0  0  0  0  0  0  0  0  0  0  0  0
  1  2  1  0  0  0  0
  2  3  1  0  0  0  0
  2  4  1  0  0  0  0
  2  5  1  0  0  0  0
  5  6  2  0  0  0  0
  5  7  1  0  0  0  0
  7  8  1  0  0  0  0
  7  9  1  0  0  0  0
  9 10  1  0  0  0  0
  9 11  1  0  0  0  0
  9 22  1  0  0  0  0
 11 12  1  0  0  0  0
 11 13  1  0  0  0  0
 11 14  1  0  0  0  0
 14 15  1  0  0  0  0
 14 16  1  0  0  0  0
 14 17  1  0  0  0  0
 17 18  2  0  0  0  0
 17 19  1  0  0  0  0
 19 20  1  0  0  0  0
 19 21  1  0  0  0  0
 22 23  2  0  0  0  0
 22 24  1  0  0  0  0
 24 25  1  0  0  0  0
 24 26  1  0  0  0  0
 26 27  1  0  0  0  0
 26 28  1  0  0  0  0
 26 29  1  0  0  0  0
M  END
$$$$

  -OEChem-04042215583D

 29 28  0     1  0  0  0  0  0999 V2000
   -3.3302   -3.7709    1.3843 H   0  0  0  0  0  0  0  0  0  0  0  0
   -3.3010   -2.8145    0.8550 C   0  0  0  0  0  0  0  0  0  0  0  0
   -4.0048   -2.1273    1.3305 H   0  0  0  0  0  0  0  0  0  0  0  0
   -3.6047   -2.9769   -0.1818 H   0  0  0  0  0  0  0  0  0  0  0  0
   -1.8997   -2.2350    0.8993 C   0  0  0  0  0  0  0  0  0  0  0  0
   -1.0008   -2.8524    1.4477 O   0  0  0  0  0  0  0  0  0  0  0  0
   -1.6488   -1.0041    0.3292 N   0  0  0  0  0  0  0  0  0  0  0  0
   -2.4440   -0.4832   -0.0376 H   0  0  0  0  0  0  0  0  0  0  0  0
   -0.3524   -0.3121    0.3650 C   0  0  1  0  0  0  0  0  0  0  0  0
    0.2810   -0.7305    1.1544 H   0  0  0  0  0  0  0  0  0  0  0  0
    0.3538   -0.5408   -0.9971 C   0  0  0  0  0  0  0  0  0  0  0  0
    1.1207   -1.3077   -0.8400 H   0  0  0  0  0  0  0  0  0  0  0  0
   -0.3568   -0.9503   -1.7236 H   0  0  0  0  0  0  0  0  0  0  0  0
    1.0028    0.7128   -1.6287 C   0  0  0  0  0  0  0  0  0  0  0  0
    0.2217    1.3762   -2.0117 H   0  0  0  0  0  0  0  0  0  0  0  0
    1.5714    1.2557   -0.8692 H   0  0  0  0  0  0  0  0  0  0  0  0
    1.9767    0.3866   -2.7592 C   0  0  0  0  0  0  0  0  0  0  0  0
    2.2210   -0.7462   -3.1294 O   0  0  0  0  0  0  0  0  0  0  0  0
    2.6217    1.3788   -3.4398 N   0  0  0  0  0  0  0  0  0  0  0  0
    3.1036    1.0926   -4.2872 H   0  0  0  0  0  0  0  0  0  0  0  0
    2.3017    2.3354   -3.3320 H   0  0  0  0  0  0  0  0  0  0  0  0
   -0.5874    1.1718    0.7225 C   0  0  0  0  0  0  0  0  0  0  0  0
   -1.4966    1.7972    0.1874 O   0  0  0  0  0  0  0  0  0  0  0  0
    0.2126    1.8018    1.6581 N   0  0  0  0  0  0  0  0  0  0  0  0
    0.9056    1.2350    2.1395 H   0  0  0  0  0  0  0  0  0  0  0  0
    0.0051    3.1783    2.0911 C   0  0  0  0  0  0  0  0  0  0  0  0
   -1.0015    3.3030    2.5040 H   0  0  0  0  0  0  0  0  0  0  0  0
    0.7311    3.4445    2.8652 H   0  0  0  0  0  0  0  0  0  0  0  0
    0.1290    3.8677    1.2494 H   0  0  0  0  0  0  0  0  0  0  0  0
  1  2  1  0  0  0  0
  2  3  1  0  0  0  0
  2  4  1  0  0  0  0
  2  5  1  0  0  0  0
  5  6  2  0  0  0  0
  5  7  1  0  0  0  0
  7  8  1  0  0  0  0
  7  9  1  0  0  0  0
  9 10  1  0  0  0  0
  9 11  1  0  0  0  0
  9 22  1  0  0  0  0
 11 12  1  0  0  0  0
 11 13  1  0  0  0  0
 11 14  1  0  0  0  0
 14 15  1  0  0  0  0
 14 16  1  0  0  0  0
 14 17  1  0  0  0  0
 17 18  2  0  0  0  0
 17 19  1  0  0  0  0
 19 20  1  0  0  0  0
 19 21  1  0  0  0  0
 22 23  2  0  0  0  0
 22 24  1  0  0  0  0
 24 25  1  0  0  0  0
 24 26  1  0  0  0  0
 26 27  1  0  0  0  0
 26 28  1  0  0  0  0
 26 29  1  0  0  0  0
M  END
$$$$

  -OEChem-04042215583D

 29 28  0     1  0  0  0  0  0999 V2000
   -3.3510   -3.7606    1.3590 H   0  0  0  0  0  0  0  0  0  0  0  0
   -3.3102   -2.8037    0.8312 C   0  0  0  0  0  0  0  0  0  0  0  0
   -4.0204   -2.1151    1.2953 H   0  0  0  0  0  0  0  0  0  0  0  0
   -3.5959   -2.9641   -0.2113 H   0  0  0  0  0  0  0  0  0  0  0  0
   -1.9080   -2.2283    0.9000 C   0  0  0  0  0  0  0  0  0  0  0  0
   -1.0235   -2.8417    1.4760 O   0  0  0  0  0  0  0  0  0  0  0  0
   -1.6404   -1.0042    0.3230 N   0  0  0  0  0  0  0  0  0  0  0  0
   -2.4243   -0.4870   -0.0721 H   0  0  0  0  0  0  0  0  0  0  0  0
   -0.3405   -0.3205    0.3751 C   0  0  1  0  0  0  0  0  0  0  0  0
    0.2846   -0.7381    1.1713 H   0  0  0  0  0  0  0  0  0  0  0  0
    0.3718   -0.5530   -0.9786 C   0  0  0  0  0  0  0  0  0  0  0  0
    0.9206   -1.5001   -0.9232 H   0  0  0  0  0  0  0  0  0  0  0  0
   -0.3853   -0.6649   -1.7632 H   0  0  0  0  0  0  0  0  0  0  0  0
    1.3275    0.5790   -1.4176 C   0  0  0  0  0  0  0  0  0  0  0  0
    0.7736    1.5158   -1.5223 H   0  0  0  0  0  0  0  0  0  0  0  0
    2.1020    0.7201   -0.6589 H   0  0  0  0  0  0  0  0  0  0  0  0
    2.0037    0.2978   -2.7581 C   0  0  0  0  0  0  0  0  0  0  0  0
    1.8921   -0.7558   -3.3562 O   0  0  0  0  0  0  0  0  0  0  0  0
    2.7765    1.2428   -3.3695 N   0  0  0  0  0  0  0  0  0  0  0  0
    3.0398    1.0445   -4.3305 H   0  0  0  0  0  0  0  0  0  0  0  0
    2.7335    2.2007   -3.0388 H   0  0  0  0  0  0  0  0  0  0  0  0
   -0.5666    1.1680    0.7149 C   0  0  0  0  0  0  0  0  0  0  0  0
   -1.4541    1.7992    0.1520 O   0  0  0  0  0  0  0  0  0  0  0  0
    0.2238    1.7991    1.6579 N   0  0  0  0  0  0  0  0  0  0  0  0
    0.8907    1.2259    2.1676 H   0  0  0  0  0  0  0  0  0  0  0  0
    0.0159    3.1791    2.0796 C   0  0  0  0  0  0  0  0  0  0  0  0
   -0.9903    3.3064    2.4929 H   0  0  0  0  0  0  0  0  0  0  0  0
    0.7431    3.4526    2.8503 H   0  0  0  0  0  0  0  0  0  0  0  0
    0.1376    3.8619    1.2322 H   0  0  0  0  0  0  0  0  0  0  0  0
  1  2  1  0  0  0  0
  2  3  1  0  0  0  0
  2  4  1  0  0  0  0
  2  5  1  0  0  0  0
  5  6  2  0  0  0  0
  5  7  1  0  0  0  0
  7  8  1  0  0  0  0
  7  9  1  0  0  0  0
  9 10  1  0  0  0  0
  9 11  1  0  0  0  0
  9 22  1  0  0  0  0
 11 12  1  0  0  0  0
 11 13  1  0  0  0  0
 11 14  1  0  0  0  0
 14 15  1  0  0  0  0
 14 16  1  0  0  0  0
 14 17  1  0  0  0  0
 17 18  2  0  0  0  0
 17 19  1  0  0  0  0
 19 20  1  0  0  0  0
 19 21  1  0  0  0  0
 22 23  2  0  0  0  0
 22 24  1  0  0  0  0
 24 25  1  0  0  0  0
 24 26  1  0  0  0  0
 26 27  1  0  0  0  0
 26 28  1  0  0  0  0
 26 29  1  0  0  0  0
M  END
$$$$

  -OEChem-04042215583D

 29 28  0     1  0  0  0  0  0999 V2000
   -3.3953   -3.7327    1.2263 H   0  0  0  0  0  0  0  0  0  0  0  0
   -3.3374   -2.7499    0.7504 C   0  0  0  0  0  0  0  0  0  0  0  0
   -4.0397   -2.0756    1.2462 H   0  0  0  0  0  0  0  0  0  0  0  0
   -3.6193   -2.8508   -0.3003 H   0  0  0  0  0  0  0  0  0  0  0  0
   -1.9277   -2.2002    0.8569 C   0  0  0  0  0  0  0  0  0  0  0  0
   -1.0670   -2.8342    1.4464 O   0  0  0  0  0  0  0  0  0  0  0  0
   -1.6253   -0.9768    0.2962 N   0  0  0  0  0  0  0  0  0  0  0  0
   -2.3914   -0.4407   -0.1089 H   0  0  0  0  0  0  0  0  0  0  0  0
   -0.3165   -0.3149    0.3908 C   0  0  1  0  0  0  0  0  0  0  0  0
    0.2763   -0.7445    1.2051 H   0  0  0  0  0  0  0  0  0  0  0  0
    0.4371   -0.5622   -0.9396 C   0  0  0  0  0  0  0  0  0  0  0  0
    0.9562   -1.5256   -0.8837 H   0  0  0  0  0  0  0  0  0  0  0  0
   -0.3102   -0.6486   -1.7369 H   0  0  0  0  0  0  0  0  0  0  0  0
    1.4334    0.5400   -1.3702 C   0  0  0  0  0  0  0  0  0  0  0  0
    0.9818    1.5291   -1.2695 H   0  0  0  0  0  0  0  0  0  0  0  0
    2.3230    0.5066   -0.7357 H   0  0  0  0  0  0  0  0  0  0  0  0
    1.8486    0.3983   -2.8323 C   0  0  0  0  0  0  0  0  0  0  0  0
    1.9060   -0.6767   -3.3988 O   0  0  0  0  0  0  0  0  0  0  0  0
    2.1646    1.4873   -3.5928 N   0  0  0  0  0  0  0  0  0  0  0  0
    2.2486    1.3178   -4.5909 H   0  0  0  0  0  0  0  0  0  0  0  0
    1.9154    2.4097   -3.2519 H   0  0  0  0  0  0  0  0  0  0  0  0
   -0.5356    1.1733    0.7346 C   0  0  0  0  0  0  0  0  0  0  0  0
   -1.3916    1.8207    0.1416 O   0  0  0  0  0  0  0  0  0  0  0  0
    0.2328    1.7891    1.7051 N   0  0  0  0  0  0  0  0  0  0  0  0
    0.8741    1.2042    2.2342 H   0  0  0  0  0  0  0  0  0  0  0  0
    0.0402    3.1743    2.1170 C   0  0  0  0  0  0  0  0  0  0  0  0
   -0.9441    3.3028    2.5792 H   0  0  0  0  0  0  0  0  0  0  0  0
    0.8054    3.4625    2.8442 H   0  0  0  0  0  0  0  0  0  0  0  0
    0.1156    3.8457    1.2551 H   0  0  0  0  0  0  0  0  0  0  0  0
  1  2  1  0  0  0  0
  2  3  1  0  0  0  0
  2  4  1  0  0  0  0
  2  5  1  0  0  0  0
  5  6  2  0  0  0  0
  5  7  1  0  0  0  0
  7  8  1  0  0  0  0
  7  9  1  0  0  0  0
  9 10  1  0  0  0  0
  9 11  1  0  0  0  0
  9 22  1  0  0  0  0
 11 12  1  0  0  0  0
 11 13  1  0  0  0  0
 11 14  1  0  0  0  0
 14 15  1  0  0  0  0
 14 16  1  0  0  0  0
 14 17  1  0  0  0  0
 17 18  2  0  0  0  0
 17 19  1  0  0  0  0
 19 20  1  0  0  0  0
 19 21  1  0  0  0  0
 22 23  2  0  0  0  0
 22 24  1  0  0  0  0
 24 25  1  0  0  0  0
 24 26  1  0  0  0  0
 26 27  1  0  0  0  0
 26 28  1  0  0  0  0
 26 29  1  0  0  0  0
M  END
$$$$

  -OEChem-04042215583D

 29 28  0     1  0  0  0  0  0999 V2000
   -3.5008   -3.5842    1.0644 H   0  0  0  0  0  0  0  0  0  0  0  0
   -3.3812   -2.6016    0.5992 C   0  0  0  0  0  0  0  0  0  0  0  0
   -4.0578   -1.8961    1.0875 H   0  0  0  0  0  0  0  0  0  0  0  0
   -3.6460   -2.6785   -0.4581 H   0  0  0  0  0  0  0  0  0  0  0  0
   -1.9470   -2.1275    0.7414 C   0  0  0  0  0  0  0  0  0  0  0  0
   -1.1302   -2.8181    1.3293 O   0  0  0  0  0  0  0  0  0  0  0  0
   -1.5716   -0.9076    0.2174 N   0  0  0  0  0  0  0  0  0  0  0  0
   -2.3047   -0.3199   -0.1774 H   0  0  0  0  0  0  0  0  0  0  0  0
   -0.2429   -0.3012    0.3892 C   0  0  1  0  0  0  0  0  0  0  0  0
    0.2993   -0.7666    1.2193 H   0  0  0  0  0  0  0  0  0  0  0  0
    0.5529   -0.5381   -0.9200 C   0  0  0  0  0  0  0  0  0  0  0  0
    1.0251   -1.5259   -0.8810 H   0  0  0  0  0  0  0  0  0  0  0  0
   -0.1748   -0.5700   -1.7393 H   0  0  0  0  0  0  0  0  0  0  0  0
    1.6161    0.5238   -1.2947 C   0  0  0  0  0  0  0  0  0  0  0  0
    1.3534    1.5236   -0.9472 H   0  0  0  0  0  0  0  0  0  0  0  0
    2.5747    0.2620   -0.8380 H   0  0  0  0  0  0  0  0  0  0  0  0
    1.7775    0.6155   -2.8056 C   0  0  0  0  0  0  0  0  0  0  0  0
    2.5054   -0.1400   -3.4195 O   0  0  0  0  0  0  0  0  0  0  0  0
    1.0535    1.5054   -3.5468 N   0  0  0  0  0  0  0  0  0  0  0  0
    1.0723    1.3736   -4.5538 H   0  0  0  0  0  0  0  0  0  0  0  0
    0.2829    1.9995   -3.1064 H   0  0  0  0  0  0  0  0  0  0  0  0
   -0.4447    1.1857    0.7481 C   0  0  0  0  0  0  0  0  0  0  0  0
   -1.2259    1.8677    0.0926 O   0  0  0  0  0  0  0  0  0  0  0  0
    0.2817    1.7698    1.7689 N   0  0  0  0  0  0  0  0  0  0  0  0
    0.8890    1.1675    2.3185 H   0  0  0  0  0  0  0  0  0  0  0  0
    0.1343    3.1667    2.1590 C   0  0  0  0  0  0  0  0  0  0  0  0
   -0.8905    3.3665    2.4894 H   0  0  0  0  0  0  0  0  0  0  0  0
    0.8156    3.4033    2.9821 H   0  0  0  0  0  0  0  0  0  0  0  0
    0.3687    3.8268    1.3172 H   0  0  0  0  0  0  0  0  0  0  0  0
  1  2  1  0  0  0  0
  2  3  1  0  0  0  0
  2  4  1  0  0  0  0
  2  5  1  0  0  0  0
  5  6  2  0  0  0  0
  5  7  1  0  0  0  0
  7  8  1  0  0  0  0
  7  9  1  0  0  0  0
  9 10  1  0  0  0  0
  9 11  1  0  0  0  0
  9 22  1  0  0  0  0
 11 12  1  0  0  0  0
 11 13  1  0  0  0  0
 11 14  1  0  0  0  0
 14 15  1  0  0  0  0
 14 16  1  0  0  0  0
 14 17  1  0  0  0  0
 17 18  2  0  0  0  0
 17 19  1  0  0  0  0
 19 20  1  0  0  0  0
 19 21  1  0  0  0  0
 22 23  2  0  0  0  0
 22 24  1  0  0  0  0
 24 25  1  0  0  0  0
 24 26  1  0  0  0  0
 26 27  1  0  0  0  0
 26 28  1  0  0  0  0
 26 29  1  0  0  0  0
M  END
$$$$

  -OEChem-04042215583D

 29 28  0     1  0  0  0  0  0999 V2000
   -3.5287   -3.5501    1.0926 H   0  0  0  0  0  0  0  0  0  0  0  0
   -3.3945   -2.5747    0.6163 C   0  0  0  0  0  0  0  0  0  0  0  0
   -4.0750   -1.8584    1.0828 H   0  0  0  0  0  0  0  0  0  0  0  0
   -3.6414   -2.6642   -0.4443 H   0  0  0  0  0  0  0  0  0  0  0  0
   -1.9598   -2.1082    0.7766 C   0  0  0  0  0  0  0  0  0  0  0  0
   -1.1596   -2.7910    1.3955 O   0  0  0  0  0  0  0  0  0  0  0  0
   -1.5632   -0.9059    0.2288 N   0  0  0  0  0  0  0  0  0  0  0  0
   -2.2802   -0.3264   -0.2054 H   0  0  0  0  0  0  0  0  0  0  0  0
   -0.2237   -0.3202    0.3873 C   0  0  1  0  0  0  0  0  0  0  0  0
    0.3266   -0.7819    1.2140 H   0  0  0  0  0  0  0  0  0  0  0  0
    0.5374   -0.5703   -0.9397 C   0  0  0  0  0  0  0  0  0  0  0  0
    0.9975   -1.5639   -0.9006 H   0  0  0  0  0  0  0  0  0  0  0  0
   -0.2054   -0.6061   -1.7452 H   0  0  0  0  0  0  0  0  0  0  0  0
    1.6147    0.4722   -1.3379 C   0  0  0  0  0  0  0  0  0  0  0  0
    1.5619    1.3962   -0.7623 H   0  0  0  0  0  0  0  0  0  0  0  0
    2.6067    0.0476   -1.1580 H   0  0  0  0  0  0  0  0  0  0  0  0
    1.4929    0.8404   -2.8088 C   0  0  0  0  0  0  0  0  0  0  0  0
    2.1055    0.2504   -3.6773 O   0  0  0  0  0  0  0  0  0  0  0  0
    0.6181    1.8083   -3.2121 N   0  0  0  0  0  0  0  0  0  0  0  0
    0.4308    1.8582   -4.2087 H   0  0  0  0  0  0  0  0  0  0  0  0
   -0.0669    2.1524   -2.5424 H   0  0  0  0  0  0  0  0  0  0  0  0
   -0.4140    1.1753    0.7168 C   0  0  0  0  0  0  0  0  0  0  0  0
   -1.1427    1.8628    0.0073 O   0  0  0  0  0  0  0  0  0  0  0  0
    0.3158    1.7722    1.7276 N   0  0  0  0  0  0  0  0  0  0  0  0
    0.8959    1.1706    2.3067 H   0  0  0  0  0  0  0  0  0  0  0  0
    0.2101    3.1863    2.0657 C   0  0  0  0  0  0  0  0  0  0  0  0
   -0.8164    3.4361    2.3540 H   0  0  0  0  0  0  0  0  0  0  0  0
    0.8721    3.4245    2.9040 H   0  0  0  0  0  0  0  0  0  0  0  0
    0.4983    3.8075    1.2111 H   0  0  0  0  0  0  0  0  0  0  0  0
  1  2  1  0  0  0  0
  2  3  1  0  0  0  0
  2  4  1  0  0  0  0
  2  5  1  0  0  0  0
  5  6  2  0  0  0  0
  5  7  1  0  0  0  0
  7  8  1  0  0  0  0
  7  9  1  0  0  0  0
  9 10  1  0  0  0  0
  9 11  1  0  0  0  0
  9 22  1  0  0  0  0
 11 12  1  0  0  0  0
 11 13  1  0  0  0  0
 11 14  1  0  0  0  0
 14 15  1  0  0  0  0
 14 16  1  0  0  0  0
 14 17  1  0  0  0  0
 17 18  2  0  0  0  0
 17 19  1  0  0  0  0
 19 20  1  0  0  0  0
 19 21  1  0  0  0  0
 22 23  2  0  0  0  0
 22 24  1  0  0  0  0
 24 25  1  0  0  0  0
 24 26  1  0  0  0  0
 26 27  1  0  0  0  0
 26 28  1  0  0  0  0
 26 29  1  0  0  0  0
M  END
$$$$

  -OEChem-04042215583D

 29 28  0     1  0  0  0  0  0999 V2000
   -3.5417   -3.5262    1.1639 H   0  0  0  0  0  0  0  0  0  0  0  0
   -3.4045   -2.5609    0.6682 C   0  0  0  0  0  0  0  0  0  0  0  0
   -4.0762   -1.8309    1.1262 H   0  0  0  0  0  0  0  0  0  0  0  0
   -3.6605   -2.6687   -0.3887 H   0  0  0  0  0  0  0  0  0  0  0  0
   -1.9658   -2.1008    0.8087 C   0  0  0  0  0  0  0  0  0  0  0  0
   -1.1638   -2.7780    1.4315 O   0  0  0  0  0  0  0  0  0  0  0  0
   -1.5666   -0.9109    0.2362 N   0  0  0  0  0  0  0  0  0  0  0  0
   -2.2825   -0.3383   -0.2084 H   0  0  0  0  0  0  0  0  0  0  0  0
   -0.2201   -0.3353    0.3671 C   0  0  1  0  0  0  0  0  0  0  0  0
    0.3439   -0.7918    1.1873 H   0  0  0  0  0  0  0  0  0  0  0  0
    0.5071   -0.5978   -0.9754 C   0  0  0  0  0  0  0  0  0  0  0  0
    0.9754   -1.5863   -0.9184 H   0  0  0  0  0  0  0  0  0  0  0  0
   -0.2399   -0.6578   -1.7759 H   0  0  0  0  0  0  0  0  0  0  0  0
    1.5804    0.4423   -1.3863 C   0  0  0  0  0  0  0  0  0  0  0  0
    1.7506    1.2150   -0.6358 H   0  0  0  0  0  0  0  0  0  0  0  0
    2.5357   -0.0762   -1.5124 H   0  0  0  0  0  0  0  0  0  0  0  0
    1.2262    1.0972   -2.7140 C   0  0  0  0  0  0  0  0  0  0  0  0
    1.7164    0.7368   -3.7668 O   0  0  0  0  0  0  0  0  0  0  0  0
    0.2898    2.0897   -2.7673 N   0  0  0  0  0  0  0  0  0  0  0  0
   -0.0503    2.3378   -3.6909 H   0  0  0  0  0  0  0  0  0  0  0  0
   -0.3001    2.2403   -1.9463 H   0  0  0  0  0  0  0  0  0  0  0  0
   -0.3923    1.1681    0.6755 C   0  0  0  0  0  0  0  0  0  0  0  0
   -1.1036    1.8564   -0.0518 O   0  0  0  0  0  0  0  0  0  0  0  0
    0.3551    1.7768    1.6660 N   0  0  0  0  0  0  0  0  0  0  0  0
    0.9285    1.1802    2.2569 H   0  0  0  0  0  0  0  0  0  0  0  0
    0.2874    3.2034    1.9592 C   0  0  0  0  0  0  0  0  0  0  0  0
   -0.7306    3.4884    2.2449 H   0  0  0  0  0  0  0  0  0  0  0  0
    0.9605    3.4521    2.7855 H   0  0  0  0  0  0  0  0  0  0  0  0
    0.5852    3.7897    1.0835 H   0  0  0  0  0  0  0  0  0  0  0  0
  1  2  1  0  0  0  0
  2  3  1  0  0  0  0
  2  4  1  0  0  0  0
  2  5  1  0  0  0  0
  5  6  2  0  0  0  0
  5  7  1  0  0  0  0
  7  8  1  0  0  0  0
  7  9  1  0  0  0  0
  9 10  1  0  0  0  0
  9 11  1  0  0  0  0
  9 22  1  0  0  0  0
 11 12  1  0  0  0  0
 11 13  1  0  0  0  0
 11 14  1  0  0  0  0
 14 15  1  0  0  0  0
 14 16  1  0  0  0  0
 14 17  1  0  0  0  0
 17 18  2  0  0  0  0
 17 19  1  0  0  0  0
 19 20  1  0  0  0  0
 19 21  1  0  0  0  0
 22 23  2  0  0  0  0
 22 24  1  0  0  0  0
 24 25  1  0  0  0  0
 24 26  1  0  0  0  0
 26 27  1  0  0  0  0
 26 28  1  0  0  0  0
 26 29  1  0  0  0  0
M  END
$$$$

  -OEChem-04042215583D

 29 28  0     1  0  0  0  0  0999 V2000
   -3.4865   -3.5513    1.2451 H   0  0  0  0  0  0  0  0  0  0  0  0
   -3.3881   -2.5758    0.7602 C   0  0  0  0  0  0  0  0  0  0  0  0
   -4.0456   -1.8638    1.2646 H   0  0  0  0  0  0  0  0  0  0  0  0
   -3.6966   -2.6696   -0.2839 H   0  0  0  0  0  0  0  0  0  0  0  0
   -1.9505   -2.0968    0.8345 C   0  0  0  0  0  0  0  0  0  0  0  0
   -1.1093   -2.7706    1.4076 O   0  0  0  0  0  0  0  0  0  0  0  0
   -1.5947   -0.8969    0.2534 N   0  0  0  0  0  0  0  0  0  0  0  0
   -2.3416   -0.3254   -0.1389 H   0  0  0  0  0  0  0  0  0  0  0  0
   -0.2547   -0.2977    0.3330 C   0  0  1  0  0  0  0  0  0  0  0  0
    0.3204   -0.7422    1.1522 H   0  0  0  0  0  0  0  0  0  0  0  0
    0.4742   -0.6068   -0.9993 C   0  0  0  0  0  0  0  0  0  0  0  0
    0.9680   -1.5778   -0.8841 H   0  0  0  0  0  0  0  0  0  0  0  0
   -0.2661   -0.7290   -1.7989 H   0  0  0  0  0  0  0  0  0  0  0  0
    1.5237    0.4285   -1.4688 C   0  0  0  0  0  0  0  0  0  0  0  0
    1.8665    1.0669   -0.6519 H   0  0  0  0  0  0  0  0  0  0  0  0
    2.4035   -0.1147   -1.8273 H   0  0  0  0  0  0  0  0  0  0  0  0
    1.0217    1.2891   -2.6266 C   0  0  0  0  0  0  0  0  0  0  0  0
    1.3585    1.0615   -3.7727 O   0  0  0  0  0  0  0  0  0  0  0  0
    0.1780    2.3472   -2.4523 N   0  0  0  0  0  0  0  0  0  0  0  0
   -0.2296    2.7228   -3.3026 H   0  0  0  0  0  0  0  0  0  0  0  0
   -0.3509    2.4004   -1.5796 H   0  0  0  0  0  0  0  0  0  0  0  0
   -0.3992    1.2039    0.6555 C   0  0  0  0  0  0  0  0  0  0  0  0
   -1.2138    1.8863    0.0430 O   0  0  0  0  0  0  0  0  0  0  0  0
    0.4007    1.7988    1.6126 N   0  0  0  0  0  0  0  0  0  0  0  0
    1.0240    1.1966    2.1445 H   0  0  0  0  0  0  0  0  0  0  0  0
    0.3048    3.2075    1.9767 C   0  0  0  0  0  0  0  0  0  0  0  0
   -0.6817    3.4287    2.3974 H   0  0  0  0  0  0  0  0  0  0  0  0
    1.0637    3.4571    2.7246 H   0  0  0  0  0  0  0  0  0  0  0  0
    0.4648    3.8429    1.0992 H   0  0  0  0  0  0  0  0  0  0  0  0
  1  2  1  0  0  0  0
  2  3  1  0  0  0  0
  2  4  1  0  0  0  0
  2  5  1  0  0  0  0
  5  6  2  0  0  0  0
  5  7  1  0  0  0  0
  7  8  1  0  0  0  0
  7  9  1  0  0  0  0
  9 10  1  0  0  0  0
  9 11  1  0  0  0  0
  9 22  1  0  0  0  0
 11 12  1  0  0  0  0
 11 13  1  0  0  0  0
 11 14  1  0  0  0  0
 14 15  1  0  0  0  0
 14 16  1  0  0  0  0
 14 17  1  0  0  0  0
 17 18  2  0  0  0  0
 17 19  1  0  0  0  0
 19 20  1  0  0  0  0
 19 21  1  0  0  0  0
 22 23  2  0  0  0  0
 22 24  1  0  0  0  0
 24 25  1  0  0  0  0
 24 26  1  0  0  0  0
 26 27  1  0  0  0  0
 26 28  1  0  0  0  0
 26 29  1  0  0  0  0
M  END
$$$$

  -OEChem-04042215583D

 29 28  0     1  0  0  0  0  0999 V2000
   -3.4178   -3.5901    1.3530 H   0  0  0  0  0  0  0  0  0  0  0  0
   -3.3569   -2.6199    0.8521 C   0  0  0  0  0  0  0  0  0  0  0  0
   -4.0047   -1.9120    1.3749 H   0  0  0  0  0  0  0  0  0  0  0  0
   -3.7068   -2.7327   -0.1770 H   0  0  0  0  0  0  0  0  0  0  0  0
   -1.9259   -2.1164    0.8603 C   0  0  0  0  0  0  0  0  0  0  0  0
   -1.0451   -2.7817    1.3817 O   0  0  0  0  0  0  0  0  0  0  0  0
   -1.6221   -0.9031    0.2779 N   0  0  0  0  0  0  0  0  0  0  0  0
   -2.3991   -0.3425   -0.0697 H   0  0  0  0  0  0  0  0  0  0  0  0
   -0.2962   -0.2700    0.3085 C   0  0  1  0  0  0  0  0  0  0  0  0
    0.2952   -0.6990    1.1247 H   0  0  0  0  0  0  0  0  0  0  0  0
    0.4367   -0.6103   -1.0140 C   0  0  0  0  0  0  0  0  0  0  0  0
    0.9563   -1.5622   -0.8603 H   0  0  0  0  0  0  0  0  0  0  0  0
   -0.3046   -0.7841   -1.8027 H   0  0  0  0  0  0  0  0  0  0  0  0
    1.4558    0.4203   -1.5514 C   0  0  0  0  0  0  0  0  0  0  0  0
    1.9663    0.9244   -0.7270 H   0  0  0  0  0  0  0  0  0  0  0  0
    2.2226   -0.1210   -2.1143 H   0  0  0  0  0  0  0  0  0  0  0  0
    0.8571    1.4635   -2.4985 C   0  0  0  0  0  0  0  0  0  0  0  0
    0.9255    1.3099   -3.7026 O   0  0  0  0  0  0  0  0  0  0  0  0
    0.2878    2.6378   -2.1025 N   0  0  0  0  0  0  0  0  0  0  0  0
   -0.1772    3.1392   -2.8530 H   0  0  0  0  0  0  0  0  0  0  0  0
   -0.1462    2.6523   -1.1795 H   0  0  0  0  0  0  0  0  0  0  0  0
   -0.4329    1.2260    0.6483 C   0  0  0  0  0  0  0  0  0  0  0  0
   -1.3206    1.8965    0.1347 O   0  0  0  0  0  0  0  0  0  0  0  0
    0.4073    1.8187    1.5718 N   0  0  0  0  0  0  0  0  0  0  0  0
    1.0740    1.2194    2.0518 H   0  0  0  0  0  0  0  0  0  0  0  0
    0.2762    3.2055    2.0037 C   0  0  0  0  0  0  0  0  0  0  0  0
   -0.6855    3.3622    2.5034 H   0  0  0  0  0  0  0  0  0  0  0  0
    1.0763    3.4594    2.7056 H   0  0  0  0  0  0  0  0  0  0  0  0
    0.3435    3.8840    1.1468 H   0  0  0  0  0  0  0  0  0  0  0  0
  1  2  1  0  0  0  0
  2  3  1  0  0  0  0
  2  4  1  0  0  0  0
  2  5  1  0  0  0  0
  5  6  2  0  0  0  0
  5  7  1  0  0  0  0
  7  8  1  0  0  0  0
  7  9  1  0  0  0  0
  9 10  1  0  0  0  0
  9 11  1  0  0  0  0
  9 22  1  0  0  0  0
 11 12  1  0  0  0  0
 11 13  1  0  0  0  0
 11 14  1  0  0  0  0
 14 15  1  0  0  0  0
 14 16  1  0  0  0  0
 14 17  1  0  0  0  0
 17 18  2  0  0  0  0
 17 19  1  0  0  0  0
 19 20  1  0  0  0  0
 19 21  1  0  0  0  0
 22 23  2  0  0  0  0
 22 24  1  0  0  0  0
 24 25  1  0  0  0  0
 24 26  1  0  0  0  0
 26 27  1  0  0  0  0
 26 28  1  0  0  0  0
 26 29  1  0  0  0  0
M  END
$$$$

  -OEChem-04042215583D

 29 28  0     1  0  0  0  0  0999 V2000
   -3.3435   -3.6464    1.4505 H   0  0  0  0  0  0  0  0  0  0  0  0
   -3.3160   -2.6811    0.9371 C   0  0  0  0  0  0  0  0  0  0  0  0
   -3.9660   -1.9810    1.4676 H   0  0  0  0  0  0  0  0  0  0  0  0
   -3.6886   -2.8136   -0.0816 H   0  0  0  0  0  0  0  0  0  0  0  0
   -1.8966   -2.1467    0.9038 C   0  0  0  0  0  0  0  0  0  0  0  0
   -0.9905   -2.7811    1.4213 O   0  0  0  0  0  0  0  0  0  0  0  0
   -1.6323   -0.9372    0.2957 N   0  0  0  0  0  0  0  0  0  0  0  0
   -2.4261   -0.4026   -0.0559 H   0  0  0  0  0  0  0  0  0  0  0  0
   -0.3202   -0.2765    0.2789 C   0  0  1  0  0  0  0  0  0  0  0  0
    0.3028   -0.6793    1.0843 H   0  0  0  0  0  0  0  0  0  0  0  0
    0.3858   -0.6174   -1.0584 C   0  0  0  0  0  0  0  0  0  0  0  0
    0.9227   -1.5613   -0.9170 H   0  0  0  0  0  0  0  0  0  0  0  0
   -0.3770   -0.8006   -1.8245 H   0  0  0  0  0  0  0  0  0  0  0  0
    1.3677    0.4276   -1.6350 C   0  0  0  0  0  0  0  0  0  0  0  0
    2.0542    0.7603   -0.8521 H   0  0  0  0  0  0  0  0  0  0  0  0
    1.9714   -0.0526   -2.4106 H   0  0  0  0  0  0  0  0  0  0  0  0
    0.6954    1.6419   -2.2735 C   0  0  0  0  0  0  0  0  0  0  0  0
    0.0902    1.5408   -3.3229 O   0  0  0  0  0  0  0  0  0  0  0  0
    0.7823    2.8993   -1.7484 N   0  0  0  0  0  0  0  0  0  0  0  0
    0.1224    3.5553   -2.1570 H   0  0  0  0  0  0  0  0  0  0  0  0
    0.9753    2.9687   -0.7550 H   0  0  0  0  0  0  0  0  0  0  0  0
   -0.4902    1.2211    0.6014 C   0  0  0  0  0  0  0  0  0  0  0  0
   -1.4324    1.8529    0.1412 O   0  0  0  0  0  0  0  0  0  0  0  0
    0.3628    1.8443    1.4949 N   0  0  0  0  0  0  0  0  0  0  0  0
    1.0227    1.2487    1.9890 H   0  0  0  0  0  0  0  0  0  0  0  0
    0.1284    3.1905    2.0066 C   0  0  0  0  0  0  0  0  0  0  0  0
   -0.7916    3.2194    2.6001 H   0  0  0  0  0  0  0  0  0  0  0  0
    0.9619    3.5034    2.6430 H   0  0  0  0  0  0  0  0  0  0  0  0
    0.0376    3.9074    1.1838 H   0  0  0  0  0  0  0  0  0  0  0  0
  1  2  1  0  0  0  0
  2  3  1  0  0  0  0
  2  4  1  0  0  0  0
  2  5  1  0  0  0  0
  5  6  2  0  0  0  0
  5  7  1  0  0  0  0
  7  8  1  0  0  0  0
  7  9  1  0  0  0  0
  9 10  1  0  0  0  0
  9 11  1  0  0  0  0
  9 22  1  0  0  0  0
 11 12  1  0  0  0  0
 11 13  1  0  0  0  0
 11 14  1  0  0  0  0
 14 15  1  0  0  0  0
 14 16  1  0  0  0  0
 14 17  1  0  0  0  0
 17 18  2  0  0  0  0
 17 19  1  0  0  0  0
 19 20  1  0  0  0  0
 19 21  1  0  0  0  0
 22 23  2  0  0  0  0
 22 24  1  0  0  0  0
 24 25  1  0  0  0  0
 24 26  1  0  0  0  0
 26 27  1  0  0  0  0
 26 28  1  0  0  0  0
 26 29  1  0  0  0  0
M  END
$$$$

  -OEChem-04042215583D

 29 28  0     1  0  0  0  0  0999 V2000
   -3.2606   -3.6981    1.4765 H   0  0  0  0  0  0  0  0  0  0  0  0
   -3.2680   -2.7263    0.9750 C   0  0  0  0  0  0  0  0  0  0  0  0
   -3.9145   -2.0459    1.5346 H   0  0  0  0  0  0  0  0  0  0  0  0
   -3.6698   -2.8531   -0.0333 H   0  0  0  0  0  0  0  0  0  0  0  0
   -1.8610   -2.1636    0.9041 C   0  0  0  0  0  0  0  0  0  0  0  0
   -0.9248   -2.7926    1.3724 O   0  0  0  0  0  0  0  0  0  0  0  0
   -1.6415   -0.9357    0.3156 N   0  0  0  0  0  0  0  0  0  0  0  0
   -2.4578   -0.4067    0.0088 H   0  0  0  0  0  0  0  0  0  0  0  0
   -0.3463   -0.2426    0.2815 C   0  0  1  0  0  0  0  0  0  0  0  0
    0.2957   -0.6403    1.0744 H   0  0  0  0  0  0  0  0  0  0  0  0
    0.3513   -0.5800   -1.0647 C   0  0  0  0  0  0  0  0  0  0  0  0
    0.8881   -1.5256   -0.9337 H   0  0  0  0  0  0  0  0  0  0  0  0
   -0.4335   -0.7641   -1.8078 H   0  0  0  0  0  0  0  0  0  0  0  0
    1.3128    0.4451   -1.7129 C   0  0  0  0  0  0  0  0  0  0  0  0
    2.1547    0.6121   -1.0360 H   0  0  0  0  0  0  0  0  0  0  0  0
    1.7185    0.0095   -2.6307 H   0  0  0  0  0  0  0  0  0  0  0  0
    0.7106    1.8004   -2.0763 C   0  0  0  0  0  0  0  0  0  0  0  0
   -0.0289    1.9130   -3.0340 O   0  0  0  0  0  0  0  0  0  0  0  0
    1.0322    2.9579   -1.4271 N   0  0  0  0  0  0  0  0  0  0  0  0
    0.4160    3.7345   -1.6515 H   0  0  0  0  0  0  0  0  0  0  0  0
    1.3867    2.8767   -0.4807 H   0  0  0  0  0  0  0  0  0  0  0  0
   -0.5450    1.2429    0.6396 C   0  0  0  0  0  0  0  0  0  0  0  0
   -1.5255    1.8543    0.2357 O   0  0  0  0  0  0  0  0  0  0  0  0
    0.3182    1.8623    1.5274 N   0  0  0  0  0  0  0  0  0  0  0  0
    0.9937    1.2650    1.9979 H   0  0  0  0  0  0  0  0  0  0  0  0
    0.0506    3.1800    2.0939 C   0  0  0  0  0  0  0  0  0  0  0  0
   -0.8496    3.1528    2.7170 H   0  0  0  0  0  0  0  0  0  0  0  0
    0.8925    3.5035    2.7136 H   0  0  0  0  0  0  0  0  0  0  0  0
   -0.0949    3.9197    1.2994 H   0  0  0  0  0  0  0  0  0  0  0  0
  1  2  1  0  0  0  0
  2  3  1  0  0  0  0
  2  4  1  0  0  0  0
  2  5  1  0  0  0  0
  5  6  2  0  0  0  0
  5  7  1  0  0  0  0
  7  8  1  0  0  0  0
  7  9  1  0  0  0  0
  9 10  1  0  0  0  0
  9 11  1  0  0  0  0
  9 22  1  0  0  0  0
 11 12  1  0  0  0  0
 11 13  1  0  0  0  0
 11 14  1  0  0  0  0
 14 15  1  0  0  0  0
 14 16  1  0  0  0  0
 14 17  1  0  0  0  0
 17 18  2  0  0  0  0
 17 19  1  0  0  0  0
 19 20  1  0  0  0  0
 19 21  1  0  0  0  0
 22 23  2  0  0  0  0
 22 24  1  0  0  0  0
 24 25  1  0  0  0  0
 24 26  1  0  0  0  0
 26 27  1  0  0  0  0
 26 28  1  0  0  0  0
 26 29  1  0  0  0  0
M  END
$$$$

  -OEChem-04042215583D

 29 28  0     1  0  0  0  0  0999 V2000
   -3.2314   -3.7773    1.4394 H   0  0  0  0  0  0  0  0  0  0  0  0
   -3.2526   -2.8097    0.9301 C   0  0  0  0  0  0  0  0  0  0  0  0
   -3.9137   -2.1363    1.4810 H   0  0  0  0  0  0  0  0  0  0  0  0
   -3.6468   -2.9506   -0.0793 H   0  0  0  0  0  0  0  0  0  0  0  0
   -1.8555   -2.2226    0.8620 C   0  0  0  0  0  0  0  0  0  0  0  0
   -0.9037   -2.8514    1.2989 O   0  0  0  0  0  0  0  0  0  0  0  0
   -1.6623   -0.9750    0.3076 N   0  0  0  0  0  0  0  0  0  0  0  0
   -2.4927   -0.4401    0.0515 H   0  0  0  0  0  0  0  0  0  0  0  0
   -0.3887   -0.2413    0.3231 C   0  0  1  0  0  0  0  0  0  0  0  0
    0.2503   -0.6305    1.1227 H   0  0  0  0  0  0  0  0  0  0  0  0
    0.3400   -0.5340   -1.0205 C   0  0  0  0  0  0  0  0  0  0  0  0
    0.8734   -1.4842   -0.9121 H   0  0  0  0  0  0  0  0  0  0  0  0
   -0.4437   -0.6981   -1.7690 H   0  0  0  0  0  0  0  0  0  0  0  0
    1.2973    0.4956   -1.6743 C   0  0  0  0  0  0  0  0  0  0  0  0
    2.2388    0.4713   -1.1193 H   0  0  0  0  0  0  0  0  0  0  0  0
    1.5181    0.1657   -2.6939 H   0  0  0  0  0  0  0  0  0  0  0  0
    0.8466    1.9500   -1.7462 C   0  0  0  0  0  0  0  0  0  0  0  0
   -0.0424    2.2934   -2.4984 O   0  0  0  0  0  0  0  0  0  0  0  0
    1.4973    2.9539   -1.0866 N   0  0  0  0  0  0  0  0  0  0  0  0
    1.2388    3.8994   -1.3547 H   0  0  0  0  0  0  0  0  0  0  0  0
    2.3932    2.7683   -0.6512 H   0  0  0  0  0  0  0  0  0  0  0  0
   -0.6796    1.2235    0.7137 C   0  0  0  0  0  0  0  0  0  0  0  0
   -1.7180    1.7638    0.3523 O   0  0  0  0  0  0  0  0  0  0  0  0
    0.1213    1.8628    1.6435 N   0  0  0  0  0  0  0  0  0  0  0  0
    0.8851    1.3315    2.0499 H   0  0  0  0  0  0  0  0  0  0  0  0
   -0.1864    3.1812    2.1844 C   0  0  0  0  0  0  0  0  0  0  0  0
   -1.1339    3.1592    2.7330 H   0  0  0  0  0  0  0  0  0  0  0  0
    0.6036    3.5034    2.8694 H   0  0  0  0  0  0  0  0  0  0  0  0
   -0.2641    3.9166    1.3765 H   0  0  0  0  0  0  0  0  0  0  0  0
  1  2  1  0  0  0  0
  2  3  1  0  0  0  0
  2  4  1  0  0  0  0
  2  5  1  0  0  0  0
  5  6  2  0  0  0  0
  5  7  1  0  0  0  0
  7  8  1  0  0  0  0
  7  9  1  0  0  0  0
  9 10  1  0  0  0  0
  9 11  1  0  0  0  0
  9 22  1  0  0  0  0
 11 12  1  0  0  0  0
 11 13  1  0  0  0  0
 11 14  1  0  0  0  0
 14 15  1  0  0  0  0
 14 16  1  0  0  0  0
 14 17  1  0  0  0  0
 17 18  2  0  0  0  0
 17 19  1  0  0  0  0
 19 20  1  0  0  0  0
 19 21  1  0  0  0  0
 22 23  2  0  0  0  0
 22 24  1  0  0  0  0
 24 25  1  0  0  0  0
 24 26  1  0  0  0  0
 26 27  1  0  0  0  0
 26 28  1  0  0  0  0
 26 29  1  0  0  0  0
M  END
$$$$

  -OEChem-04042215583D

 29 28  0     1  0  0  0  0  0999 V2000
   -3.1816   -3.8337    1.3557 H   0  0  0  0  0  0  0  0  0  0  0  0
   -3.2145   -2.8593    0.8607 C   0  0  0  0  0  0  0  0  0  0  0  0
   -3.8808   -2.2011    1.4236 H   0  0  0  0  0  0  0  0  0  0  0  0
   -3.6101   -2.9889   -0.1495 H   0  0  0  0  0  0  0  0  0  0  0  0
   -1.8236   -2.2574    0.7970 C   0  0  0  0  0  0  0  0  0  0  0  0
   -0.8617   -2.8901    1.2054 O   0  0  0  0  0  0  0  0  0  0  0  0
   -1.6470   -0.9923    0.2786 N   0  0  0  0  0  0  0  0  0  0  0  0
   -2.4858   -0.4525    0.0608 H   0  0  0  0  0  0  0  0  0  0  0  0
   -0.3836   -0.2417    0.3300 C   0  0  1  0  0  0  0  0  0  0  0  0
    0.2671   -0.6399    1.1154 H   0  0  0  0  0  0  0  0  0  0  0  0
    0.3320   -0.4638   -1.0357 C   0  0  0  0  0  0  0  0  0  0  0  0
    0.8573   -1.4235   -0.9844 H   0  0  0  0  0  0  0  0  0  0  0  0
   -0.4684   -0.5879   -1.7745 H   0  0  0  0  0  0  0  0  0  0  0  0
    1.2828    0.5810   -1.6834 C   0  0  0  0  0  0  0  0  0  0  0  0
    2.2943    0.3502   -1.3390 H   0  0  0  0  0  0  0  0  0  0  0  0
    1.2770    0.4249   -2.7664 H   0  0  0  0  0  0  0  0  0  0  0  0
    1.0654    2.0676   -1.4331 C   0  0  0  0  0  0  0  0  0  0  0  0
    0.2254    2.6987   -2.0402 O   0  0  0  0  0  0  0  0  0  0  0  0
    1.9033    2.7995   -0.6399 N   0  0  0  0  0  0  0  0  0  0  0  0
    1.8126    3.8072   -0.7356 H   0  0  0  0  0  0  0  0  0  0  0  0
    2.7921    2.3951   -0.3681 H   0  0  0  0  0  0  0  0  0  0  0  0
   -0.7447    1.1976    0.7610 C   0  0  0  0  0  0  0  0  0  0  0  0
   -1.8037    1.6988    0.3997 O   0  0  0  0  0  0  0  0  0  0  0  0
    0.0062    1.8449    1.7254 N   0  0  0  0  0  0  0  0  0  0  0  0
    0.8301    1.3715    2.0823 H   0  0  0  0  0  0  0  0  0  0  0  0
   -0.3352    3.1624    2.2471 C   0  0  0  0  0  0  0  0  0  0  0  0
   -1.3068    3.1347    2.7514 H   0  0  0  0  0  0  0  0  0  0  0  0
    0.4194    3.4918    2.9674 H   0  0  0  0  0  0  0  0  0  0  0  0
   -0.3805    3.8949    1.4341 H   0  0  0  0  0  0  0  0  0  0  0  0
  1  2  1  0  0  0  0
  2  3  1  0  0  0  0
  2  4  1  0  0  0  0
  2  5  1  0  0  0  0
  5  6  2  0  0  0  0
  5  7  1  0  0  0  0
  7  8  1  0  0  0  0
  7  9  1  0  0  0  0
  9 10  1  0  0  0  0
  9 11  1  0  0  0  0
  9 22  1  0  0  0  0
 11 12  1  0  0  0  0
 11 13  1  0  0  0  0
 11 14  1  0  0  0  0
 14 15  1  0  0  0  0
 14 16  1  0  0  0  0
 14 17  1  0  0  0  0
 17 18  2  0  0  0  0
 17 19  1  0  0  0  0
 19 20  1  0  0  0  0
 19 21  1  0  0  0  0
 22 23  2  0  0  0  0
 22 24  1  0  0  0  0
 24 25  1  0  0  0  0
 24 26  1  0  0  0  0
 26 27  1  0  0  0  0
 26 28  1  0  0  0  0
 26 29  1  0  0  0  0
M  END
$$$$

  -OEChem-04042215583D

 29 28  0     1  0  0  0  0  0999 V2000
   -2.9210   -4.0010    1.2825 H   0  0  0  0  0  0  0  0  0  0  0  0
   -3.0169   -3.0133    0.8231 C   0  0  0  0  0  0  0  0  0  0  0  0
   -3.6882   -2.4048    1.4340 H   0  0  0  0  0  0  0  0  0  0  0  0
   -3.4468   -3.1276   -0.1749 H   0  0  0  0  0  0  0  0  0  0  0  0
   -1.6577   -2.3470    0.7271 C   0  0  0  0  0  0  0  0  0  0  0  0
   -0.6512   -2.9534    1.0604 O   0  0  0  0  0  0  0  0  0  0  0  0
   -1.5598   -1.0528    0.2629 N   0  0  0  0  0  0  0  0  0  0  0  0
   -2.4307   -0.5405    0.1147 H   0  0  0  0  0  0  0  0  0  0  0  0
   -0.3316   -0.2449    0.3166 C   0  0  1  0  0  0  0  0  0  0  0  0
    0.3775   -0.6416    1.0506 H   0  0  0  0  0  0  0  0  0  0  0  0
    0.3111   -0.3347   -1.1005 C   0  0  0  0  0  0  0  0  0  0  0  0
    0.8782   -1.2706   -1.1444 H   0  0  0  0  0  0  0  0  0  0  0  0
   -0.5235   -0.4493   -1.8021 H   0  0  0  0  0  0  0  0  0  0  0  0
    1.1821    0.7911   -1.7298 C   0  0  0  0  0  0  0  0  0  0  0  0
    2.2194    0.4455   -1.7137 H   0  0  0  0  0  0  0  0  0  0  0  0
    0.9044    0.8868   -2.7842 H   0  0  0  0  0  0  0  0  0  0  0  0
    1.1816    2.1915   -1.1330 C   0  0  0  0  0  0  0  0  0  0  0  0
    0.4296    3.0623   -1.5186 O   0  0  0  0  0  0  0  0  0  0  0  0
    2.1382    2.5847   -0.2396 N   0  0  0  0  0  0  0  0  0  0  0  0
    2.2065    3.5904   -0.1090 H   0  0  0  0  0  0  0  0  0  0  0  0
    2.9682    2.0097   -0.1449 H   0  0  0  0  0  0  0  0  0  0  0  0
   -0.7920    1.1425    0.8271 C   0  0  0  0  0  0  0  0  0  0  0  0
   -1.8836    1.5859    0.4840 O   0  0  0  0  0  0  0  0  0  0  0  0
   -0.0806    1.8060    1.8103 N   0  0  0  0  0  0  0  0  0  0  0  0
    0.8297    1.4351    2.0627 H   0  0  0  0  0  0  0  0  0  0  0  0
   -0.4658    3.1201    2.3102 C   0  0  0  0  0  0  0  0  0  0  0  0
   -1.4598    3.0802    2.7678 H   0  0  0  0  0  0  0  0  0  0  0  0
    0.2481    3.4621    3.0654 H   0  0  0  0  0  0  0  0  0  0  0  0
   -0.4831    3.8495    1.4931 H   0  0  0  0  0  0  0  0  0  0  0  0
  1  2  1  0  0  0  0
  2  3  1  0  0  0  0
  2  4  1  0  0  0  0
  2  5  1  0  0  0  0
  5  6  2  0  0  0  0
  5  7  1  0  0  0  0
  7  8  1  0  0  0  0
  7  9  1  0  0  0  0
  9 10  1  0  0  0  0
  9 11  1  0  0  0  0
  9 22  1  0  0  0  0
 11 12  1  0  0  0  0
 11 13  1  0  0  0  0
 11 14  1  0  0  0  0
 14 15  1  0  0  0  0
 14 16  1  0  0  0  0
 14 17  1  0  0  0  0
 17 18  2  0  0  0  0
 17 19  1  0  0  0  0
 19 20  1  0  0  0  0
 19 21  1  0  0  0  0
 22 23  2  0  0  0  0
 22 24  1  0  0  0  0
 24 25  1  0  0  0  0
 24 26  1  0  0  0  0
 26 27  1  0  0  0  0
 26 28  1  0  0  0  0
 26 29  1  0  0  0  0
M  END
$$$$

  -OEChem-04042215583D

 29 28  0     1  0  0  0  0  0999 V2000
   -3.2059   -3.7183    1.5887 H   0  0  0  0  0  0  0  0  0  0  0  0
   -3.2352   -2.7491    1.0830 C   0  0  0  0  0  0  0  0  0  0  0  0
   -3.8551   -2.0653    1.6679 H   0  0  0  0  0  0  0  0  0  0  0  0
   -3.6822   -2.8797    0.0946 H   0  0  0  0  0  0  0  0  0  0  0  0
   -1.8328   -2.1877    0.9459 C   0  0  0  0  0  0  0  0  0  0  0  0
   -0.8709   -2.8352    1.3298 O   0  0  0  0  0  0  0  0  0  0  0  0
   -1.6430   -0.9451    0.3803 N   0  0  0  0  0  0  0  0  0  0  0  0
   -2.4753   -0.3855    0.1878 H   0  0  0  0  0  0  0  0  0  0  0  0
   -0.3596   -0.2257    0.3756 C   0  0  1  0  0  0  0  0  0  0  0  0
    0.3332   -0.6138    1.1296 H   0  0  0  0  0  0  0  0  0  0  0  0
    0.2414   -0.4420   -1.0455 C   0  0  0  0  0  0  0  0  0  0  0  0
    0.7601   -1.4065   -1.0233 H   0  0  0  0  0  0  0  0  0  0  0  0
   -0.6025   -0.5654   -1.7341 H   0  0  0  0  0  0  0  0  0  0  0  0
    1.1780    0.5872   -1.7423 C   0  0  0  0  0  0  0  0  0  0  0  0
    2.1109    0.0775   -1.9977 H   0  0  0  0  0  0  0  0  0  0  0  0
    0.7117    0.8761   -2.6896 H   0  0  0  0  0  0  0  0  0  0  0  0
    1.5484    1.8763   -1.0229 C   0  0  0  0  0  0  0  0  0  0  0  0
    1.0991    2.9591   -1.3378 O   0  0  0  0  0  0  0  0  0  0  0  0
    2.5394    1.8972   -0.0816 N   0  0  0  0  0  0  0  0  0  0  0  0
    3.1615    1.0968   -0.0356 H   0  0  0  0  0  0  0  0  0  0  0  0
    2.9049    2.8243    0.1198 H   0  0  0  0  0  0  0  0  0  0  0  0
   -0.7379    1.2238    0.7733 C   0  0  0  0  0  0  0  0  0  0  0  0
   -1.7806    1.7154    0.3511 O   0  0  0  0  0  0  0  0  0  0  0  0
    0.0045    1.9232    1.7072 N   0  0  0  0  0  0  0  0  0  0  0  0
    0.9088    1.5370    1.9596 H   0  0  0  0  0  0  0  0  0  0  0  0
   -0.2683    3.3172    2.0362 C   0  0  0  0  0  0  0  0  0  0  0  0
   -1.2794    3.4255    2.4428 H   0  0  0  0  0  0  0  0  0  0  0  0
    0.4440    3.6755    2.7854 H   0  0  0  0  0  0  0  0  0  0  0  0
   -0.1782    3.9451    1.1431 H   0  0  0  0  0  0  0  0  0  0  0  0
  1  2  1  0  0  0  0
  2  3  1  0  0  0  0
  2  4  1  0  0  0  0
  2  5  1  0  0  0  0
  5  6  2  0  0  0  0
  5  7  1  0  0  0  0
  7  8  1  0  0  0  0
  7  9  1  0  0  0  0
  9 10  1  0  0  0  0
  9 11  1  0  0  0  0
  9 22  1  0  0  0  0
 11 12  1  0  0  0  0
 11 13  1  0  0  0  0
 11 14  1  0  0  0  0
 14 15  1  0  0  0  0
 14 16  1  0  0  0  0
 14 17  1  0  0  0  0
 17 18  2  0  0  0  0
 17 19  1  0  0  0  0
 19 20  1  0  0  0  0
 19 21  1  0  0  0  0
 22 23  2  0  0  0  0
 22 24  1  0  0  0  0
 24 25  1  0  0  0  0
 24 26  1  0  0  0  0
 26 27  1  0  0  0  0
 26 28  1  0  0  0  0
 26 29  1  0  0  0  0
M  END
$$$$

  -OEChem-04042215583D

 29 28  0     1  0  0  0  0  0999 V2000
   -3.5236   -3.5846    1.3299 H   0  0  0  0  0  0  0  0  0  0  0  0
   -3.4130   -2.6196    0.8273 C   0  0  0  0  0  0  0  0  0  0  0  0
   -4.0428   -1.8843    1.3340 H   0  0  0  0  0  0  0  0  0  0  0  0
   -3.7444   -2.7216   -0.2088 H   0  0  0  0  0  0  0  0  0  0  0  0
   -1.9636   -2.1737    0.8658 C   0  0  0  0  0  0  0  0  0  0  0  0
   -1.1200   -2.8838    1.3888 O   0  0  0  0  0  0  0  0  0  0  0  0
   -1.6039   -0.9656    0.3063 N   0  0  0  0  0  0  0  0  0  0  0  0
   -2.3571   -0.3586   -0.0165 H   0  0  0  0  0  0  0  0  0  0  0  0
   -0.2770   -0.3466    0.4556 C   0  0  1  0  0  0  0  0  0  0  0  0
    0.2853   -0.7692    1.2958 H   0  0  0  0  0  0  0  0  0  0  0  0
    0.4749   -0.6436   -0.8743 C   0  0  0  0  0  0  0  0  0  0  0  0
    0.9413   -1.6261   -0.7436 H   0  0  0  0  0  0  0  0  0  0  0  0
   -0.2675   -0.7577   -1.6719 H   0  0  0  0  0  0  0  0  0  0  0  0
    1.5604    0.3156   -1.4352 C   0  0  0  0  0  0  0  0  0  0  0  0
    2.3913   -0.2809   -1.8223 H   0  0  0  0  0  0  0  0  0  0  0  0
    1.1251    0.8440   -2.2881 H   0  0  0  0  0  0  0  0  0  0  0  0
    2.1400    1.3719   -0.5040 C   0  0  0  0  0  0  0  0  0  0  0  0
    2.6639    1.0711    0.5540 O   0  0  0  0  0  0  0  0  0  0  0  0
    2.0481    2.7068   -0.7760 N   0  0  0  0  0  0  0  0  0  0  0  0
    2.2740    3.3273   -0.0048 H   0  0  0  0  0  0  0  0  0  0  0  0
    1.3825    3.0059   -1.4822 H   0  0  0  0  0  0  0  0  0  0  0  0
   -0.5626    1.1412    0.7737 C   0  0  0  0  0  0  0  0  0  0  0  0
   -1.4211    1.7472    0.1383 O   0  0  0  0  0  0  0  0  0  0  0  0
    0.1175    1.7988    1.7809 N   0  0  0  0  0  0  0  0  0  0  0  0
    0.9745    1.3503    2.1077 H   0  0  0  0  0  0  0  0  0  0  0  0
   -0.1015    3.2007    2.1125 C   0  0  0  0  0  0  0  0  0  0  0  0
   -1.1471    3.3692    2.3908 H   0  0  0  0  0  0  0  0  0  0  0  0
    0.5297    3.4899    2.9582 H   0  0  0  0  0  0  0  0  0  0  0  0
    0.1440    3.8416    1.2598 H   0  0  0  0  0  0  0  0  0  0  0  0
  1  2  1  0  0  0  0
  2  3  1  0  0  0  0
  2  4  1  0  0  0  0
  2  5  1  0  0  0  0
  5  6  2  0  0  0  0
  5  7  1  0  0  0  0
  7  8  1  0  0  0  0
  7  9  1  0  0  0  0
  9 10  1  0  0  0  0
  9 11  1  0  0  0  0
  9 22  1  0  0  0  0
 11 12  1  0  0  0  0
 11 13  1  0  0  0  0
 11 14  1  0  0  0  0
 14 15  1  0  0  0  0
 14 16  1  0  0  0  0
 14 17  1  0  0  0  0
 17 18  2  0  0  0  0
 17 19  1  0  0  0  0
 19 20  1  0  0  0  0
 19 21  1  0  0  0  0
 22 23  2  0  0  0  0
 22 24  1  0  0  0  0
 24 25  1  0  0  0  0
 24 26  1  0  0  0  0
 26 27  1  0  0  0  0
 26 28  1  0  0  0  0
 26 29  1  0  0  0  0
M  END
$$$$

  -OEChem-04042215583D

 29 28  0     1  0  0  0  0  0999 V2000
   -3.4799   -3.6830    1.3472 H   0  0  0  0  0  0  0  0  0  0  0  0
   -3.3941   -2.7248    0.8273 C   0  0  0  0  0  0  0  0  0  0  0  0
   -4.0401   -1.9961    1.3228 H   0  0  0  0  0  0  0  0  0  0  0  0
   -3.7260   -2.8530   -0.2058 H   0  0  0  0  0  0  0  0  0  0  0  0
   -1.9561   -2.2427    0.8523 C   0  0  0  0  0  0  0  0  0  0  0  0
   -1.0874   -2.9402    1.3503 O   0  0  0  0  0  0  0  0  0  0  0  0
   -1.6370   -1.0196    0.3013 N   0  0  0  0  0  0  0  0  0  0  0  0
   -2.4116   -0.4276    0.0025 H   0  0  0  0  0  0  0  0  0  0  0  0
   -0.3252   -0.3664    0.4315 C   0  0  1  0  0  0  0  0  0  0  0  0
    0.2653   -0.7912    1.2511 H   0  0  0  0  0  0  0  0  0  0  0  0
    0.4135   -0.5948   -0.9149 C   0  0  0  0  0  0  0  0  0  0  0  0
    0.9269   -1.5581   -0.8226 H   0  0  0  0  0  0  0  0  0  0  0  0
   -0.3297   -0.7090   -1.7118 H   0  0  0  0  0  0  0  0  0  0  0  0
    1.4469    0.4461   -1.4191 C   0  0  0  0  0  0  0  0  0  0  0  0
    2.1648   -0.0532   -2.0754 H   0  0  0  0  0  0  0  0  0  0  0  0
    0.9032    1.1757   -2.0262 H   0  0  0  0  0  0  0  0  0  0  0  0
    2.2225    1.2349   -0.3667 C   0  0  0  0  0  0  0  0  0  0  0  0
    2.5757    0.7449    0.6916 O   0  0  0  0  0  0  0  0  0  0  0  0
    2.5704    2.5411   -0.5600 N   0  0  0  0  0  0  0  0  0  0  0  0
    3.2266    2.9407    0.1045 H   0  0  0  0  0  0  0  0  0  0  0  0
    2.4446    2.9599   -1.4758 H   0  0  0  0  0  0  0  0  0  0  0  0
   -0.6226    1.1134    0.7728 C   0  0  0  0  0  0  0  0  0  0  0  0
   -1.5137    1.7086    0.1731 O   0  0  0  0  0  0  0  0  0  0  0  0
    0.0742    1.7662    1.7710 N   0  0  0  0  0  0  0  0  0  0  0  0
    0.9411    1.3152    2.0689 H   0  0  0  0  0  0  0  0  0  0  0  0
   -0.1081    3.1793    2.0741 C   0  0  0  0  0  0  0  0  0  0  0  0
   -1.1506    3.3832    2.3398 H   0  0  0  0  0  0  0  0  0  0  0  0
    0.5241    3.4671    2.9196 H   0  0  0  0  0  0  0  0  0  0  0  0
    0.1633    3.7948    1.2104 H   0  0  0  0  0  0  0  0  0  0  0  0
  1  2  1  0  0  0  0
  2  3  1  0  0  0  0
  2  4  1  0  0  0  0
  2  5  1  0  0  0  0
  5  6  2  0  0  0  0
  5  7  1  0  0  0  0
  7  8  1  0  0  0  0
  7  9  1  0  0  0  0
  9 10  1  0  0  0  0
  9 11  1  0  0  0  0
  9 22  1  0  0  0  0
 11 12  1  0  0  0  0
 11 13  1  0  0  0  0
 11 14  1  0  0  0  0
 14 15  1  0  0  0  0
 14 16  1  0  0  0  0
 14 17  1  0  0  0  0
 17 18  2  0  0  0  0
 17 19  1  0  0  0  0
 19 20  1  0  0  0  0
 19 21  1  0  0  0  0
 22 23  2  0  0  0  0
 22 24  1  0  0  0  0
 24 25  1  0  0  0  0
 24 26  1  0  0  0  0
 26 27  1  0  0  0  0
 26 28  1  0  0  0  0
 26 29  1  0  0  0  0
M  END
$$$$

  -OEChem-04042215583D

 29 28  0     1  0  0  0  0  0999 V2000
   -3.4214   -3.7394    1.3916 H   0  0  0  0  0  0  0  0  0  0  0  0
   -3.3684   -2.7789    0.8712 C   0  0  0  0  0  0  0  0  0  0  0  0
   -4.0153   -2.0638    1.3851 H   0  0  0  0  0  0  0  0  0  0  0  0
   -3.7249   -2.9124   -0.1529 H   0  0  0  0  0  0  0  0  0  0  0  0
   -1.9396   -2.2693    0.8597 C   0  0  0  0  0  0  0  0  0  0  0  0
   -1.0467   -2.9501    1.3375 O   0  0  0  0  0  0  0  0  0  0  0  0
   -1.6578   -1.0417    0.2981 N   0  0  0  0  0  0  0  0  0  0  0  0
   -2.4508   -0.4689    0.0114 H   0  0  0  0  0  0  0  0  0  0  0  0
   -0.3578   -0.3610    0.3950 C   0  0  1  0  0  0  0  0  0  0  0  0
    0.2473   -0.7803    1.2068 H   0  0  0  0  0  0  0  0  0  0  0  0
    0.3812   -0.5711   -0.9505 C   0  0  0  0  0  0  0  0  0  0  0  0
    0.9246   -1.5193   -0.8751 H   0  0  0  0  0  0  0  0  0  0  0  0
   -0.3611   -0.6900   -1.7470 H   0  0  0  0  0  0  0  0  0  0  0  0
    1.3700    0.5268   -1.4158 C   0  0  0  0  0  0  0  0  0  0  0  0
    1.9580    0.1391   -2.2520 H   0  0  0  0  0  0  0  0  0  0  0  0
    0.7849    1.3720   -1.7901 H   0  0  0  0  0  0  0  0  0  0  0  0
    2.3356    1.0697   -0.3611 C   0  0  0  0  0  0  0  0  0  0  0  0
    2.5551    0.5133    0.7002 O   0  0  0  0  0  0  0  0  0  0  0  0
    3.0108    2.2399   -0.5564 N   0  0  0  0  0  0  0  0  0  0  0  0
    3.7566    2.4446    0.1024 H   0  0  0  0  0  0  0  0  0  0  0  0
    3.0117    2.6616   -1.4794 H   0  0  0  0  0  0  0  0  0  0  0  0
   -0.6351    1.1198    0.7384 C   0  0  0  0  0  0  0  0  0  0  0  0
   -1.5405    1.7193    0.1660 O   0  0  0  0  0  0  0  0  0  0  0  0
    0.1001    1.7659    1.7127 N   0  0  0  0  0  0  0  0  0  0  0  0
    0.9548    1.2911    2.0097 H   0  0  0  0  0  0  0  0  0  0  0  0
   -0.0511    3.1820    2.0178 C   0  0  0  0  0  0  0  0  0  0  0  0
   -1.0853    3.4049    2.3007 H   0  0  0  0  0  0  0  0  0  0  0  0
    0.6003    3.4586    2.8523 H   0  0  0  0  0  0  0  0  0  0  0  0
    0.2169    3.7918    1.1490 H   0  0  0  0  0  0  0  0  0  0  0  0
  1  2  1  0  0  0  0
  2  3  1  0  0  0  0
  2  4  1  0  0  0  0
  2  5  1  0  0  0  0
  5  6  2  0  0  0  0
  5  7  1  0  0  0  0
  7  8  1  0  0  0  0
  7  9  1  0  0  0  0
  9 10  1  0  0  0  0
  9 11  1  0  0  0  0
  9 22  1  0  0  0  0
 11 12  1  0  0  0  0
 11 13  1  0  0  0  0
 11 14  1  0  0  0  0
 14 15  1  0  0  0  0
 14 16  1  0  0  0  0
 14 17  1  0  0  0  0
 17 18  2  0  0  0  0
 17 19  1  0  0  0  0
 19 20  1  0  0  0  0
 19 21  1  0  0  0  0
 22 23  2  0  0  0  0
 22 24  1  0  0  0  0
 24 25  1  0  0  0  0
 24 26  1  0  0  0  0
 26 27  1  0  0  0  0
 26 28  1  0  0  0  0
 26 29  1  0  0  0  0
M  END
$$$$

  -OEChem-04042215583D

 29 28  0     1  0  0  0  0  0999 V2000
   -3.3383   -3.8075    1.3702 H   0  0  0  0  0  0  0  0  0  0  0  0
   -3.3227   -2.8283    0.8834 C   0  0  0  0  0  0  0  0  0  0  0  0
   -3.9685   -2.1466    1.4423 H   0  0  0  0  0  0  0  0  0  0  0  0
   -3.7084   -2.9343   -0.1333 H   0  0  0  0  0  0  0  0  0  0  0  0
   -1.9067   -2.2853    0.8455 C   0  0  0  0  0  0  0  0  0  0  0  0
   -0.9869   -2.9516    1.2920 O   0  0  0  0  0  0  0  0  0  0  0  0
   -1.6681   -1.0445    0.2929 N   0  0  0  0  0  0  0  0  0  0  0  0
   -2.4824   -0.4888    0.0345 H   0  0  0  0  0  0  0  0  0  0  0  0
   -0.3858   -0.3291    0.3702 C   0  0  1  0  0  0  0  0  0  0  0  0
    0.2314   -0.7429    1.1756 H   0  0  0  0  0  0  0  0  0  0  0  0
    0.3640   -0.5196   -0.9703 C   0  0  0  0  0  0  0  0  0  0  0  0
    0.9337   -1.4533   -0.9096 H   0  0  0  0  0  0  0  0  0  0  0  0
   -0.3768   -0.6451   -1.7670 H   0  0  0  0  0  0  0  0  0  0  0  0
    1.3084    0.6252   -1.4088 C   0  0  0  0  0  0  0  0  0  0  0  0
    1.7477    0.3507   -2.3717 H   0  0  0  0  0  0  0  0  0  0  0  0
    0.7285    1.5391   -1.5670 H   0  0  0  0  0  0  0  0  0  0  0  0
    2.4535    0.9396   -0.4443 C   0  0  0  0  0  0  0  0  0  0  0  0
    2.5340    0.4858    0.6833 O   0  0  0  0  0  0  0  0  0  0  0  0
    3.4553    1.7957   -0.7992 N   0  0  0  0  0  0  0  0  0  0  0  0
    4.2561    1.8346   -0.1753 H   0  0  0  0  0  0  0  0  0  0  0  0
    3.5458    2.0781   -1.7695 H   0  0  0  0  0  0  0  0  0  0  0  0
   -0.6631    1.1453    0.7347 C   0  0  0  0  0  0  0  0  0  0  0  0
   -1.6023    1.7376    0.2119 O   0  0  0  0  0  0  0  0  0  0  0  0
    0.0979    1.7803    1.6960 N   0  0  0  0  0  0  0  0  0  0  0  0
    0.9688    1.3101    1.9523 H   0  0  0  0  0  0  0  0  0  0  0  0
   -0.0671    3.1837    2.0481 C   0  0  0  0  0  0  0  0  0  0  0  0
   -1.0958    3.3804    2.3681 H   0  0  0  0  0  0  0  0  0  0  0  0
    0.6044    3.4463    2.8713 H   0  0  0  0  0  0  0  0  0  0  0  0
    0.1648    3.8238    1.1907 H   0  0  0  0  0  0  0  0  0  0  0  0
  1  2  1  0  0  0  0
  2  3  1  0  0  0  0
  2  4  1  0  0  0  0
  2  5  1  0  0  0  0
  5  6  2  0  0  0  0
  5  7  1  0  0  0  0
  7  8  1  0  0  0  0
  7  9  1  0  0  0  0
  9 10  1  0  0  0  0
  9 11  1  0  0  0  0
  9 22  1  0  0  0  0
 11 12  1  0  0  0  0
 11 13  1  0  0  0  0
 11 14  1  0  0  0  0
 14 15  1  0  0  0  0
 14 16  1  0  0  0  0
 14 17  1  0  0  0  0
 17 18  2  0  0  0  0
 17 19  1  0  0  0  0
 19 20  1  0  0  0  0
 19 21  1  0  0  0  0
 22 23  2  0  0  0  0
 22 24  1  0  0  0  0
 24 25  1  0  0  0  0
 24 26  1  0  0  0  0
 26 27  1  0  0  0  0
 26 28  1  0  0  0  0
 26 29  1  0  0  0  0
M  END
$$$$

  -OEChem-04042215583D

 29 28  0     1  0  0  0  0  0999 V2000
   -3.1697   -3.8893    1.2760 H   0  0  0  0  0  0  0  0  0  0  0  0
   -3.2084   -2.8791    0.8591 C   0  0  0  0  0  0  0  0  0  0  0  0
   -3.8456   -2.2597    1.4950 H   0  0  0  0  0  0  0  0  0  0  0  0
   -3.6416   -2.9276   -0.1427 H   0  0  0  0  0  0  0  0  0  0  0  0
   -1.8132   -2.2869    0.7922 C   0  0  0  0  0  0  0  0  0  0  0  0
   -0.8556   -2.9367    1.1801 O   0  0  0  0  0  0  0  0  0  0  0  0
   -1.6344   -1.0202    0.2769 N   0  0  0  0  0  0  0  0  0  0  0  0
   -2.4750   -0.4815    0.0709 H   0  0  0  0  0  0  0  0  0  0  0  0
   -0.3766   -0.2624    0.3515 C   0  0  1  0  0  0  0  0  0  0  0  0
    0.2686   -0.6747    1.1355 H   0  0  0  0  0  0  0  0  0  0  0  0
    0.3658   -0.3915   -1.0002 C   0  0  0  0  0  0  0  0  0  0  0  0
    0.9589   -1.3127   -0.9906 H   0  0  0  0  0  0  0  0  0  0  0  0
   -0.3869   -0.5021   -1.7881 H   0  0  0  0  0  0  0  0  0  0  0  0
    1.2577    0.8046   -1.4010 C   0  0  0  0  0  0  0  0  0  0  0  0
    1.5141    0.6964   -2.4582 H   0  0  0  0  0  0  0  0  0  0  0  0
    0.7300    1.7567   -1.3027 H   0  0  0  0  0  0  0  0  0  0  0  0
    2.5571    0.8455   -0.6001 C   0  0  0  0  0  0  0  0  0  0  0  0
    2.5668    0.8555    0.6183 O   0  0  0  0  0  0  0  0  0  0  0  0
    3.7802    0.8523   -1.2070 N   0  0  0  0  0  0  0  0  0  0  0  0
    4.5854    1.0098   -0.6077 H   0  0  0  0  0  0  0  0  0  0  0  0
    3.8430    1.0044   -2.2081 H   0  0  0  0  0  0  0  0  0  0  0  0
   -0.7030    1.1876    0.7731 C   0  0  0  0  0  0  0  0  0  0  0  0
   -1.6939    1.7461    0.3112 O   0  0  0  0  0  0  0  0  0  0  0  0
    0.0525    1.8218    1.7394 N   0  0  0  0  0  0  0  0  0  0  0  0
    0.9752    1.4138    1.9080 H   0  0  0  0  0  0  0  0  0  0  0  0
   -0.1702    3.2050    2.1376 C   0  0  0  0  0  0  0  0  0  0  0  0
   -1.1911    3.3373    2.5105 H   0  0  0  0  0  0  0  0  0  0  0  0
    0.5254    3.4832    2.9351 H   0  0  0  0  0  0  0  0  0  0  0  0
   -0.0140    3.8783    1.2886 H   0  0  0  0  0  0  0  0  0  0  0  0
  1  2  1  0  0  0  0
  2  3  1  0  0  0  0
  2  4  1  0  0  0  0
  2  5  1  0  0  0  0
  5  6  2  0  0  0  0
  5  7  1  0  0  0  0
  7  8  1  0  0  0  0
  7  9  1  0  0  0  0
  9 10  1  0  0  0  0
  9 11  1  0  0  0  0
  9 22  1  0  0  0  0
 11 12  1  0  0  0  0
 11 13  1  0  0  0  0
 11 14  1  0  0  0  0
 14 15  1  0  0  0  0
 14 16  1  0  0  0  0
 14 17  1  0  0  0  0
 17 18  2  0  0  0  0
 17 19  1  0  0  0  0
 19 20  1  0  0  0  0
 19 21  1  0  0  0  0
 22 23  2  0  0  0  0
 22 24  1  0  0  0  0
 24 25  1  0  0  0  0
 24 26  1  0  0  0  0
 26 27  1  0  0  0  0
 26 28  1  0  0  0  0
 26 29  1  0  0  0  0
M  END
$$$$

  -OEChem-04042215583D

 29 28  0     1  0  0  0  0  0999 V2000
   -3.0975   -3.9137    1.2343 H   0  0  0  0  0  0  0  0  0  0  0  0
   -3.1602   -2.9067    0.8124 C   0  0  0  0  0  0  0  0  0  0  0  0
   -3.8117   -2.2998    1.4458 H   0  0  0  0  0  0  0  0  0  0  0  0
   -3.5928   -2.9703   -0.1890 H   0  0  0  0  0  0  0  0  0  0  0  0
   -1.7789   -2.2829    0.7416 C   0  0  0  0  0  0  0  0  0  0  0  0
   -0.8026   -2.9207    1.1020 O   0  0  0  0  0  0  0  0  0  0  0  0
   -1.6319   -1.0015    0.2526 N   0  0  0  0  0  0  0  0  0  0  0  0
   -2.4860   -0.4776    0.0652 H   0  0  0  0  0  0  0  0  0  0  0  0
   -0.3898   -0.2184    0.3300 C   0  0  1  0  0  0  0  0  0  0  0  0
    0.2525   -0.6335    1.1148 H   0  0  0  0  0  0  0  0  0  0  0  0
    0.3882   -0.3411   -1.0005 C   0  0  0  0  0  0  0  0  0  0  0  0
    0.9934   -1.2547   -0.9833 H   0  0  0  0  0  0  0  0  0  0  0  0
   -0.3498   -0.4641   -1.8002 H   0  0  0  0  0  0  0  0  0  0  0  0
    1.2562    0.8794   -1.3835 C   0  0  0  0  0  0  0  0  0  0  0  0
    1.3457    0.9043   -2.4729 H   0  0  0  0  0  0  0  0  0  0  0  0
    0.8212    1.8376   -1.0925 H   0  0  0  0  0  0  0  0  0  0  0  0
    2.6565    0.7353   -0.8067 C   0  0  0  0  0  0  0  0  0  0  0  0
    2.8394    0.8453    0.3927 O   0  0  0  0  0  0  0  0  0  0  0  0
    3.7455    0.4356   -1.5745 N   0  0  0  0  0  0  0  0  0  0  0  0
    4.6517    0.4768   -1.1167 H   0  0  0  0  0  0  0  0  0  0  0  0
    3.6746    0.4816   -2.5854 H   0  0  0  0  0  0  0  0  0  0  0  0
   -0.7088    1.2201    0.7844 C   0  0  0  0  0  0  0  0  0  0  0  0
   -1.7079    1.7880    0.3547 O   0  0  0  0  0  0  0  0  0  0  0  0
    0.0700    1.8277    1.7504 N   0  0  0  0  0  0  0  0  0  0  0  0
    0.9770    1.3959    1.9320 H   0  0  0  0  0  0  0  0  0  0  0  0
   -0.1419    3.2003    2.1904 C   0  0  0  0  0  0  0  0  0  0  0  0
   -1.1561    3.3256    2.5843 H   0  0  0  0  0  0  0  0  0  0  0  0
    0.5681    3.4550    2.9832 H   0  0  0  0  0  0  0  0  0  0  0  0
    0.0017    3.8964    1.3575 H   0  0  0  0  0  0  0  0  0  0  0  0
  1  2  1  0  0  0  0
  2  3  1  0  0  0  0
  2  4  1  0  0  0  0
  2  5  1  0  0  0  0
  5  6  2  0  0  0  0
  5  7  1  0  0  0  0
  7  8  1  0  0  0  0
  7  9  1  0  0  0  0
  9 10  1  0  0  0  0
  9 11  1  0  0  0  0
  9 22  1  0  0  0  0
 11 12  1  0  0  0  0
 11 13  1  0  0  0  0
 11 14  1  0  0  0  0
 14 15  1  0  0  0  0
 14 16  1  0  0  0  0
 14 17  1  0  0  0  0
 17 18  2  0  0  0  0
 17 19  1  0  0  0  0
 19 20  1  0  0  0  0
 19 21  1  0  0  0  0
 22 23  2  0  0  0  0
 22 24  1  0  0  0  0
 24 25  1  0  0  0  0
 24 26  1  0  0  0  0
 26 27  1  0  0  0  0
 26 28  1  0  0  0  0
 26 29  1  0  0  0  0
M  END
$$$$

  -OEChem-04042215583D

 29 28  0     1  0  0  0  0  0999 V2000
   -3.1266   -3.8884    1.1164 H   0  0  0  0  0  0  0  0  0  0  0  0
   -3.1634   -2.8700    0.7198 C   0  0  0  0  0  0  0  0  0  0  0  0
   -3.8411   -2.2755    1.3372 H   0  0  0  0  0  0  0  0  0  0  0  0
   -3.5475   -2.9034   -0.3025 H   0  0  0  0  0  0  0  0  0  0  0  0
   -1.7770   -2.2541    0.7318 C   0  0  0  0  0  0  0  0  0  0  0  0
   -0.8286   -2.8931    1.1578 O   0  0  0  0  0  0  0  0  0  0  0  0
   -1.5944   -0.9741    0.2522 N   0  0  0  0  0  0  0  0  0  0  0  0
   -2.4309   -0.4464    0.0052 H   0  0  0  0  0  0  0  0  0  0  0  0
   -0.3452   -0.2078    0.3718 C   0  0  1  0  0  0  0  0  0  0  0  0
    0.2852   -0.6331    1.1606 H   0  0  0  0  0  0  0  0  0  0  0  0
    0.4318   -0.3213   -0.9620 C   0  0  0  0  0  0  0  0  0  0  0  0
    1.0121   -1.2513   -0.9550 H   0  0  0  0  0  0  0  0  0  0  0  0
   -0.3084   -0.4211   -1.7631 H   0  0  0  0  0  0  0  0  0  0  0  0
    1.3328    0.8786   -1.3473 C   0  0  0  0  0  0  0  0  0  0  0  0
    1.1937    1.0885   -2.4113 H   0  0  0  0  0  0  0  0  0  0  0  0
    1.0898    1.8010   -0.8188 H   0  0  0  0  0  0  0  0  0  0  0  0
    2.7996    0.5461   -1.1202 C   0  0  0  0  0  0  0  0  0  0  0  0
    3.2700    0.5592    0.0015 O   0  0  0  0  0  0  0  0  0  0  0  0
    3.6369    0.1788   -2.1349 N   0  0  0  0  0  0  0  0  0  0  0  0
    4.6225    0.0963   -1.9019 H   0  0  0  0  0  0  0  0  0  0  0  0
    3.3417    0.3014   -3.0975 H   0  0  0  0  0  0  0  0  0  0  0  0
   -0.6862    1.2280    0.8203 C   0  0  0  0  0  0  0  0  0  0  0  0
   -1.6483    1.8097    0.3298 O   0  0  0  0  0  0  0  0  0  0  0  0
    0.0497    1.8387    1.8182 N   0  0  0  0  0  0  0  0  0  0  0  0
    0.8825    1.3533    2.1461 H   0  0  0  0  0  0  0  0  0  0  0  0
   -0.2018    3.1962    2.2839 C   0  0  0  0  0  0  0  0  0  0  0  0
   -1.2091    3.2755    2.7062 H   0  0  0  0  0  0  0  0  0  0  0  0
    0.5203    3.4685    3.0598 H   0  0  0  0  0  0  0  0  0  0  0  0
   -0.1075    3.9090    1.4580 H   0  0  0  0  0  0  0  0  0  0  0  0
  1  2  1  0  0  0  0
  2  3  1  0  0  0  0
  2  4  1  0  0  0  0
  2  5  1  0  0  0  0
  5  6  2  0  0  0  0
  5  7  1  0  0  0  0
  7  8  1  0  0  0  0
  7  9  1  0  0  0  0
  9 10  1  0  0  0  0
  9 11  1  0  0  0  0
  9 22  1  0  0  0  0
 11 12  1  0  0  0  0
 11 13  1  0  0  0  0
 11 14  1  0  0  0  0
 14 15  1  0  0  0  0
 14 16  1  0  0  0  0
 14 17  1  0  0  0  0
 17 18  2  0  0  0  0
 17 19  1  0  0  0  0
 19 20  1  0  0  0  0
 19 21  1  0  0  0  0
 22 23  2  0  0  0  0
 22 24  1  0  0  0  0
 24 25  1  0  0  0  0
 24 26  1  0  0  0  0
 26 27  1  0  0  0  0
 26 28  1  0  0  0  0
 26 29  1  0  0  0  0
M  END
$$$$

  -OEChem-04042215583D

 29 28  0     1  0  0  0  0  0999 V2000
   -3.1669   -3.8495    1.0166 H   0  0  0  0  0  0  0  0  0  0  0  0
   -3.1770   -2.8256    0.6327 C   0  0  0  0  0  0  0  0  0  0  0  0
   -3.8746   -2.2325    1.2289 H   0  0  0  0  0  0  0  0  0  0  0  0
   -3.5179   -2.8424   -0.4052 H   0  0  0  0  0  0  0  0  0  0  0  0
   -1.7866   -2.2242    0.7114 C   0  0  0  0  0  0  0  0  0  0  0  0
   -0.8663   -2.8735    1.1813 O   0  0  0  0  0  0  0  0  0  0  0  0
   -1.5650   -0.9470    0.2402 N   0  0  0  0  0  0  0  0  0  0  0  0
   -2.3806   -0.4052   -0.0436 H   0  0  0  0  0  0  0  0  0  0  0  0
   -0.3030   -0.2090    0.3979 C   0  0  1  0  0  0  0  0  0  0  0  0
    0.3114   -0.6496    1.1907 H   0  0  0  0  0  0  0  0  0  0  0  0
    0.4744   -0.3126   -0.9370 C   0  0  0  0  0  0  0  0  0  0  0  0
    1.0393   -1.2521   -0.9246 H   0  0  0  0  0  0  0  0  0  0  0  0
   -0.2534   -0.3971   -1.7513 H   0  0  0  0  0  0  0  0  0  0  0  0
    1.4075    0.8717   -1.2961 C   0  0  0  0  0  0  0  0  0  0  0  0
    1.0784    1.3220   -2.2366 H   0  0  0  0  0  0  0  0  0  0  0  0
    1.3972    1.6624   -0.5448 H   0  0  0  0  0  0  0  0  0  0  0  0
    2.8490    0.4050   -1.4401 C   0  0  0  0  0  0  0  0  0  0  0  0
    3.5850    0.3304   -0.4753 O   0  0  0  0  0  0  0  0  0  0  0  0
    3.3720    0.0135   -2.6395 N   0  0  0  0  0  0  0  0  0  0  0  0
    4.3739   -0.1541   -2.6619 H   0  0  0  0  0  0  0  0  0  0  0  0
    2.8621    0.2087   -3.4943 H   0  0  0  0  0  0  0  0  0  0  0  0
   -0.6450    1.2297    0.8414 C   0  0  0  0  0  0  0  0  0  0  0  0
   -1.5721    1.8294    0.3071 O   0  0  0  0  0  0  0  0  0  0  0  0
    0.0603    1.8343    1.8652 N   0  0  0  0  0  0  0  0  0  0  0  0
    0.8314    1.3136    2.2766 H   0  0  0  0  0  0  0  0  0  0  0  0
   -0.2148    3.1834    2.3426 C   0  0  0  0  0  0  0  0  0  0  0  0
   -1.2245    3.2422    2.7621 H   0  0  0  0  0  0  0  0  0  0  0  0
    0.5008    3.4609    3.1226 H   0  0  0  0  0  0  0  0  0  0  0  0
   -0.1301    3.9056    1.5238 H   0  0  0  0  0  0  0  0  0  0  0  0
  1  2  1  0  0  0  0
  2  3  1  0  0  0  0
  2  4  1  0  0  0  0
  2  5  1  0  0  0  0
  5  6  2  0  0  0  0
  5  7  1  0  0  0  0
  7  8  1  0  0  0  0
  7  9  1  0  0  0  0
  9 10  1  0  0  0  0
  9 11  1  0  0  0  0
  9 22  1  0  0  0  0
 11 12  1  0  0  0  0
 11 13  1  0  0  0  0
 11 14  1  0  0  0  0
 14 15  1  0  0  0  0
 14 16  1  0  0  0  0
 14 17  1  0  0  0  0
 17 18  2  0  0  0  0
 17 19  1  0  0  0  0
 19 20  1  0  0  0  0
 19 21  1  0  0  0  0
 22 23  2  0  0  0  0
 22 24  1  0  0  0  0
 24 25  1  0  0  0  0
 24 26  1  0  0  0  0
 26 27  1  0  0  0  0
 26 28  1  0  0  0  0
 26 29  1  0  0  0  0
M  END
$$$$

  -OEChem-04042215583D

 29 28  0     1  0  0  0  0  0999 V2000
   -3.3428   -3.7590    1.3846 H   0  0  0  0  0  0  0  0  0  0  0  0
   -3.3014   -2.8034    0.8545 C   0  0  0  0  0  0  0  0  0  0  0  0
   -4.0095   -2.1126    1.3183 H   0  0  0  0  0  0  0  0  0  0  0  0
   -3.5894   -2.9659   -0.1869 H   0  0  0  0  0  0  0  0  0  0  0  0
   -1.8982   -2.2304    0.9195 C   0  0  0  0  0  0  0  0  0  0  0  0
   -1.0144   -2.8432    1.4965 O   0  0  0  0  0  0  0  0  0  0  0  0
   -1.6295   -1.0089    0.3379 N   0  0  0  0  0  0  0  0  0  0  0  0
   -2.4148   -0.4875   -0.0490 H   0  0  0  0  0  0  0  0  0  0  0  0
   -0.3301   -0.3241    0.3908 C   0  0  1  0  0  0  0  0  0  0  0  0
    0.3062   -0.7356    1.1816 H   0  0  0  0  0  0  0  0  0  0  0  0
    0.3583   -0.5470   -0.9790 C   0  0  0  0  0  0  0  0  0  0  0  0
    0.8827   -1.5061   -0.9118 H   0  0  0  0  0  0  0  0  0  0  0  0
   -0.4043   -0.6633   -1.7567 H   0  0  0  0  0  0  0  0  0  0  0  0
    1.3221    0.5774   -1.4501 C   0  0  0  0  0  0  0  0  0  0  0  0
    0.8138    1.1957   -2.1956 H   0  0  0  0  0  0  0  0  0  0  0  0
    1.5898    1.2235   -0.6127 H   0  0  0  0  0  0  0  0  0  0  0  0
    2.6539    0.0886   -2.0223 C   0  0  0  0  0  0  0  0  0  0  0  0
    2.9431   -1.0823   -2.1780 O   0  0  0  0  0  0  0  0  0  0  0  0
    3.6078    0.9775   -2.4274 N   0  0  0  0  0  0  0  0  0  0  0  0
    4.3774    0.5848   -2.9623 H   0  0  0  0  0  0  0  0  0  0  0  0
    3.3535    1.9531   -2.5390 H   0  0  0  0  0  0  0  0  0  0  0  0
   -0.5909    1.1607    0.7248 C   0  0  0  0  0  0  0  0  0  0  0  0
   -1.4744    1.7761    0.1381 O   0  0  0  0  0  0  0  0  0  0  0  0
    0.1778    1.8118    1.6722 N   0  0  0  0  0  0  0  0  0  0  0  0
    0.8496    1.2541    2.1930 H   0  0  0  0  0  0  0  0  0  0  0  0
   -0.0472    3.1961    2.0695 C   0  0  0  0  0  0  0  0  0  0  0  0
   -1.0640    3.3239    2.4558 H   0  0  0  0  0  0  0  0  0  0  0  0
    0.6593    3.4840    2.8540 H   0  0  0  0  0  0  0  0  0  0  0  0
    0.0928    3.8670    1.2156 H   0  0  0  0  0  0  0  0  0  0  0  0
  1  2  1  0  0  0  0
  2  3  1  0  0  0  0
  2  4  1  0  0  0  0
  2  5  1  0  0  0  0
  5  6  2  0  0  0  0
  5  7  1  0  0  0  0
  7  8  1  0  0  0  0
  7  9  1  0  0  0  0
  9 10  1  0  0  0  0
  9 11  1  0  0  0  0
  9 22  1  0  0  0  0
 11 12  1  0  0  0  0
 11 13  1  0  0  0  0
 11 14  1  0  0  0  0
 14 15  1  0  0  0  0
 14 16  1  0  0  0  0
 14 17  1  0  0  0  0
 17 18  2  0  0  0  0
 17 19  1  0  0  0  0
 19 20  1  0  0  0  0
 19 21  1  0  0  0  0
 22 23  2  0  0  0  0
 22 24  1  0  0  0  0
 24 25  1  0  0  0  0
 24 26  1  0  0  0  0
 26 27  1  0  0  0  0
 26 28  1  0  0  0  0
 26 29  1  0  0  0  0
M  END
$$$$

  -OEChem-04042215583D

 29 28  0     1  0  0  0  0  0999 V2000
   -3.3316   -3.7705    1.3965 H   0  0  0  0  0  0  0  0  0  0  0  0
   -3.3011   -2.8081    0.8779 C   0  0  0  0  0  0  0  0  0  0  0  0
   -3.9967   -2.1222    1.3674 H   0  0  0  0  0  0  0  0  0  0  0  0
   -3.6144   -2.9567   -0.1582 H   0  0  0  0  0  0  0  0  0  0  0  0
   -1.8959   -2.2374    0.9168 C   0  0  0  0  0  0  0  0  0  0  0  0
   -1.0041   -2.8477    1.4844 O   0  0  0  0  0  0  0  0  0  0  0  0
   -1.6350   -1.0172    0.3286 N   0  0  0  0  0  0  0  0  0  0  0  0
   -2.4250   -0.4977   -0.0514 H   0  0  0  0  0  0  0  0  0  0  0  0
   -0.3360   -0.3308    0.3680 C   0  0  1  0  0  0  0  0  0  0  0  0
    0.3055   -0.7414    1.1550 H   0  0  0  0  0  0  0  0  0  0  0  0
    0.3466   -0.5504   -1.0032 C   0  0  0  0  0  0  0  0  0  0  0  0
    0.8969   -1.4955   -0.9339 H   0  0  0  0  0  0  0  0  0  0  0  0
   -0.4103   -0.6785   -1.7847 H   0  0  0  0  0  0  0  0  0  0  0  0
    1.2948    0.5887   -1.4514 C   0  0  0  0  0  0  0  0  0  0  0  0
    0.7212    1.3602   -1.9731 H   0  0  0  0  0  0  0  0  0  0  0  0
    1.7569    1.0464   -0.5734 H   0  0  0  0  0  0  0  0  0  0  0  0
    2.4491    0.1232   -2.3383 C   0  0  0  0  0  0  0  0  0  0  0  0
    2.5409   -1.0015   -2.7923 O   0  0  0  0  0  0  0  0  0  0  0  0
    3.4434    0.9835   -2.7059 N   0  0  0  0  0  0  0  0  0  0  0  0
    4.0618    0.6529   -3.4413 H   0  0  0  0  0  0  0  0  0  0  0  0
    3.3078    1.9785   -2.5627 H   0  0  0  0  0  0  0  0  0  0  0  0
   -0.5827    1.1573    0.6990 C   0  0  0  0  0  0  0  0  0  0  0  0
   -1.4729    1.7750    0.1250 O   0  0  0  0  0  0  0  0  0  0  0  0
    0.2007    1.8068    1.6356 N   0  0  0  0  0  0  0  0  0  0  0  0
    0.8652    1.2436    2.1596 H   0  0  0  0  0  0  0  0  0  0  0  0
   -0.0222    3.1896    2.0398 C   0  0  0  0  0  0  0  0  0  0  0  0
   -1.0034    3.2962    2.5143 H   0  0  0  0  0  0  0  0  0  0  0  0
    0.7449    3.5035    2.7542 H   0  0  0  0  0  0  0  0  0  0  0  0
    0.0236    3.8553    1.1714 H   0  0  0  0  0  0  0  0  0  0  0  0
  1  2  1  0  0  0  0
  2  3  1  0  0  0  0
  2  4  1  0  0  0  0
  2  5  1  0  0  0  0
  5  6  2  0  0  0  0
  5  7  1  0  0  0  0
  7  8  1  0  0  0  0
  7  9  1  0  0  0  0
  9 10  1  0  0  0  0
  9 11  1  0  0  0  0
  9 22  1  0  0  0  0
 11 12  1  0  0  0  0
 11 13  1  0  0  0  0
 11 14  1  0  0  0  0
 14 15  1  0  0  0  0
 14 16  1  0  0  0  0
 14 17  1  0  0  0  0
 17 18  2  0  0  0  0
 17 19  1  0  0  0  0
 19 20  1  0  0  0  0
 19 21  1  0  0  0  0
 22 23  2  0  0  0  0
 22 24  1  0  0  0  0
 24 25  1  0  0  0  0
 24 26  1  0  0  0  0
 26 27  1  0  0  0  0
 26 28  1  0  0  0  0
 26 29  1  0  0  0  0
M  END
$$$$

  -OEChem-04042215583D

 29 28  0     1  0  0  0  0  0999 V2000
   -3.3476   -3.7655    1.3838 H   0  0  0  0  0  0  0  0  0  0  0  0
   -3.3075   -2.8119    0.8498 C   0  0  0  0  0  0  0  0  0  0  0  0
   -4.0174   -2.1202    1.3099 H   0  0  0  0  0  0  0  0  0  0  0  0
   -3.5943   -2.9790   -0.1913 H   0  0  0  0  0  0  0  0  0  0  0  0
   -1.9054   -2.2356    0.9134 C   0  0  0  0  0  0  0  0  0  0  0  0
   -1.0202   -2.8444    1.4934 O   0  0  0  0  0  0  0  0  0  0  0  0
   -1.6395   -1.0149    0.3288 N   0  0  0  0  0  0  0  0  0  0  0  0
   -2.4246   -0.5008   -0.0683 H   0  0  0  0  0  0  0  0  0  0  0  0
   -0.3402   -0.3300    0.3739 C   0  0  1  0  0  0  0  0  0  0  0  0
    0.2929   -0.7444    1.1653 H   0  0  0  0  0  0  0  0  0  0  0  0
    0.3567   -0.5546   -0.9883 C   0  0  0  0  0  0  0  0  0  0  0  0
    0.9129   -1.4968   -0.9234 H   0  0  0  0  0  0  0  0  0  0  0  0
   -0.3959   -0.6782   -1.7749 H   0  0  0  0  0  0  0  0  0  0  0  0
    1.3046    0.5866   -1.4209 C   0  0  0  0  0  0  0  0  0  0  0  0
    0.7172    1.4558   -1.7314 H   0  0  0  0  0  0  0  0  0  0  0  0
    1.9296    0.8808   -0.5735 H   0  0  0  0  0  0  0  0  0  0  0  0
    2.2412    0.1956   -2.5628 C   0  0  0  0  0  0  0  0  0  0  0  0
    2.2424   -0.9033   -3.0846 O   0  0  0  0  0  0  0  0  0  0  0  0
    3.1264    1.0941   -3.0855 N   0  0  0  0  0  0  0  0  0  0  0  0
    3.5727    0.8181   -3.9556 H   0  0  0  0  0  0  0  0  0  0  0  0
    3.0211    2.0763   -2.8552 H   0  0  0  0  0  0  0  0  0  0  0  0
   -0.5715    1.1598    0.7058 C   0  0  0  0  0  0  0  0  0  0  0  0
   -1.4570    1.7865    0.1348 O   0  0  0  0  0  0  0  0  0  0  0  0
    0.2176    1.7998    1.6440 N   0  0  0  0  0  0  0  0  0  0  0  0
    0.8832    1.2315    2.1610 H   0  0  0  0  0  0  0  0  0  0  0  0
    0.0104    3.1847    2.0499 C   0  0  0  0  0  0  0  0  0  0  0  0
   -0.9966    3.3180    2.4592 H   0  0  0  0  0  0  0  0  0  0  0  0
    0.7358    3.4661    2.8193 H   0  0  0  0  0  0  0  0  0  0  0  0
    0.1355    3.8577    1.1951 H   0  0  0  0  0  0  0  0  0  0  0  0
  1  2  1  0  0  0  0
  2  3  1  0  0  0  0
  2  4  1  0  0  0  0
  2  5  1  0  0  0  0
  5  6  2  0  0  0  0
  5  7  1  0  0  0  0
  7  8  1  0  0  0  0
  7  9  1  0  0  0  0
  9 10  1  0  0  0  0
  9 11  1  0  0  0  0
  9 22  1  0  0  0  0
 11 12  1  0  0  0  0
 11 13  1  0  0  0  0
 11 14  1  0  0  0  0
 14 15  1  0  0  0  0
 14 16  1  0  0  0  0
 14 17  1  0  0  0  0
 17 18  2  0  0  0  0
 17 19  1  0  0  0  0
 19 20  1  0  0  0  0
 19 21  1  0  0  0  0
 22 23  2  0  0  0  0
 22 24  1  0  0  0  0
 24 25  1  0  0  0  0
 24 26  1  0  0  0  0
 26 27  1  0  0  0  0
 26 28  1  0  0  0  0
 26 29  1  0  0  0  0
M  END
$$$$

  -OEChem-04042215583D

 29 28  0     1  0  0  0  0  0999 V2000
   -3.3614   -3.7628    1.3620 H   0  0  0  0  0  0  0  0  0  0  0  0
   -3.3150   -2.8090    0.8293 C   0  0  0  0  0  0  0  0  0  0  0  0
   -4.0321   -2.1185    1.2795 H   0  0  0  0  0  0  0  0  0  0  0  0
   -3.5866   -2.9762   -0.2158 H   0  0  0  0  0  0  0  0  0  0  0  0
   -1.9150   -2.2309    0.9140 C   0  0  0  0  0  0  0  0  0  0  0  0
   -1.0388   -2.8362    1.5113 O   0  0  0  0  0  0  0  0  0  0  0  0
   -1.6386   -1.0148    0.3243 N   0  0  0  0  0  0  0  0  0  0  0  0
   -2.4152   -0.5046   -0.0939 H   0  0  0  0  0  0  0  0  0  0  0  0
   -0.3379   -0.3340    0.3812 C   0  0  1  0  0  0  0  0  0  0  0  0
    0.2858   -0.7521    1.1780 H   0  0  0  0  0  0  0  0  0  0  0  0
    0.3637   -0.5660   -0.9728 C   0  0  0  0  0  0  0  0  0  0  0  0
    0.6896   -1.6112   -1.0236 H   0  0  0  0  0  0  0  0  0  0  0  0
   -0.3622   -0.4100   -1.7793 H   0  0  0  0  0  0  0  0  0  0  0  0
    1.5684    0.3658   -1.2262 C   0  0  0  0  0  0  0  0  0  0  0  0
    1.2442    1.4098   -1.2136 H   0  0  0  0  0  0  0  0  0  0  0  0
    2.3093    0.2268   -0.4344 H   0  0  0  0  0  0  0  0  0  0  0  0
    2.2408    0.1098   -2.5739 C   0  0  0  0  0  0  0  0  0  0  0  0
    1.9277   -0.8019   -3.3162 O   0  0  0  0  0  0  0  0  0  0  0  0
    3.2448    0.9174   -3.0256 N   0  0  0  0  0  0  0  0  0  0  0  0
    3.5164    0.7862   -3.9958 H   0  0  0  0  0  0  0  0  0  0  0  0
    3.4076    1.8060   -2.5648 H   0  0  0  0  0  0  0  0  0  0  0  0
   -0.5551    1.1597    0.6996 C   0  0  0  0  0  0  0  0  0  0  0  0
   -1.4232    1.7932    0.1106 O   0  0  0  0  0  0  0  0  0  0  0  0
    0.2314    1.7970    1.6419 N   0  0  0  0  0  0  0  0  0  0  0  0
    0.8754    1.2218    2.1779 H   0  0  0  0  0  0  0  0  0  0  0  0
    0.0346    3.1868    2.0363 C   0  0  0  0  0  0  0  0  0  0  0  0
   -0.9712    3.3305    2.4448 H   0  0  0  0  0  0  0  0  0  0  0  0
    0.7629    3.4692    2.8026 H   0  0  0  0  0  0  0  0  0  0  0  0
    0.1636    3.8520    1.1761 H   0  0  0  0  0  0  0  0  0  0  0  0
  1  2  1  0  0  0  0
  2  3  1  0  0  0  0
  2  4  1  0  0  0  0
  2  5  1  0  0  0  0
  5  6  2  0  0  0  0
  5  7  1  0  0  0  0
  7  8  1  0  0  0  0
  7  9  1  0  0  0  0
  9 10  1  0  0  0  0
  9 11  1  0  0  0  0
  9 22  1  0  0  0  0
 11 12  1  0  0  0  0
 11 13  1  0  0  0  0
 11 14  1  0  0  0  0
 14 15  1  0  0  0  0
 14 16  1  0  0  0  0
 14 17  1  0  0  0  0
 17 18  2  0  0  0  0
 17 19  1  0  0  0  0
 19 20  1  0  0  0  0
 19 21  1  0  0  0  0
 22 23  2  0  0  0  0
 22 24  1  0  0  0  0
 24 25  1  0  0  0  0
 24 26  1  0  0  0  0
 26 27  1  0  0  0  0
 26 28  1  0  0  0  0
 26 29  1  0  0  0  0
M  END
$$$$

  -OEChem-04042215583D

 29 28  0     1  0  0  0  0  0999 V2000
   -3.4107   -3.7226    1.2992 H   0  0  0  0  0  0  0  0  0  0  0  0
   -3.3454   -2.7557    0.7927 C   0  0  0  0  0  0  0  0  0  0  0  0
   -4.0460   -2.0625    1.2645 H   0  0  0  0  0  0  0  0  0  0  0  0
   -3.6237   -2.8879   -0.2556 H   0  0  0  0  0  0  0  0  0  0  0  0
   -1.9329   -2.2106    0.8884 C   0  0  0  0  0  0  0  0  0  0  0  0
   -1.0770   -2.8343    1.4960 O   0  0  0  0  0  0  0  0  0  0  0  0
   -1.6239   -0.9999    0.3039 N   0  0  0  0  0  0  0  0  0  0  0  0
   -2.3843   -0.4737   -0.1240 H   0  0  0  0  0  0  0  0  0  0  0  0
   -0.3138   -0.3406    0.3893 C   0  0  1  0  0  0  0  0  0  0  0  0
    0.2850   -0.7653    1.2014 H   0  0  0  0  0  0  0  0  0  0  0  0
    0.4151   -0.5923   -0.9482 C   0  0  0  0  0  0  0  0  0  0  0  0
    0.7139   -1.6451   -1.0056 H   0  0  0  0  0  0  0  0  0  0  0  0
   -0.3008   -0.4141   -1.7593 H   0  0  0  0  0  0  0  0  0  0  0  0
    1.6460    0.3083   -1.1980 C   0  0  0  0  0  0  0  0  0  0  0  0
    1.4138    1.3492   -0.9637 H   0  0  0  0  0  0  0  0  0  0  0  0
    2.4713   -0.0071   -0.5542 H   0  0  0  0  0  0  0  0  0  0  0  0
    2.1014    0.2756   -2.6554 C   0  0  0  0  0  0  0  0  0  0  0  0
    1.8635   -0.6544   -3.4026 O   0  0  0  0  0  0  0  0  0  0  0  0
    2.8071    1.3081   -3.2036 N   0  0  0  0  0  0  0  0  0  0  0  0
    2.9123    1.2820   -4.2137 H   0  0  0  0  0  0  0  0  0  0  0  0
    2.8408    2.1939   -2.7108 H   0  0  0  0  0  0  0  0  0  0  0  0
   -0.5251    1.1550    0.7017 C   0  0  0  0  0  0  0  0  0  0  0  0
   -1.3690    1.7969    0.0871 O   0  0  0  0  0  0  0  0  0  0  0  0
    0.2443    1.7859    1.6621 N   0  0  0  0  0  0  0  0  0  0  0  0
    0.8670    1.2043    2.2166 H   0  0  0  0  0  0  0  0  0  0  0  0
    0.0410    3.1738    2.0590 C   0  0  0  0  0  0  0  0  0  0  0  0
   -0.9419    3.2975    2.5257 H   0  0  0  0  0  0  0  0  0  0  0  0
    0.8079    3.4780    2.7778 H   0  0  0  0  0  0  0  0  0  0  0  0
    0.1039    3.8359    1.1889 H   0  0  0  0  0  0  0  0  0  0  0  0
  1  2  1  0  0  0  0
  2  3  1  0  0  0  0
  2  4  1  0  0  0  0
  2  5  1  0  0  0  0
  5  6  2  0  0  0  0
  5  7  1  0  0  0  0
  7  8  1  0  0  0  0
  7  9  1  0  0  0  0
  9 10  1  0  0  0  0
  9 11  1  0  0  0  0
  9 22  1  0  0  0  0
 11 12  1  0  0  0  0
 11 13  1  0  0  0  0
 11 14  1  0  0  0  0
 14 15  1  0  0  0  0
 14 16  1  0  0  0  0
 14 17  1  0  0  0  0
 17 18  2  0  0  0  0
 17 19  1  0  0  0  0
 19 20  1  0  0  0  0
 19 21  1  0  0  0  0
 22 23  2  0  0  0  0
 22 24  1  0  0  0  0
 24 25  1  0  0  0  0
 24 26  1  0  0  0  0
 26 27  1  0  0  0  0
 26 28  1  0  0  0  0
 26 29  1  0  0  0  0
M  END
$$$$

  -OEChem-04042215583D

 29 28  0     1  0  0  0  0  0999 V2000
   -3.5362   -3.5681    1.0821 H   0  0  0  0  0  0  0  0  0  0  0  0
   -3.3935   -2.5970    0.5998 C   0  0  0  0  0  0  0  0  0  0  0  0
   -4.0798   -1.8758    1.0498 H   0  0  0  0  0  0  0  0  0  0  0  0
   -3.6240   -2.6953   -0.4637 H   0  0  0  0  0  0  0  0  0  0  0  0
   -1.9609   -2.1307    0.7777 C   0  0  0  0  0  0  0  0  0  0  0  0
   -1.1692   -2.8122    1.4088 O   0  0  0  0  0  0  0  0  0  0  0  0
   -1.5574   -0.9308    0.2291 N   0  0  0  0  0  0  0  0  0  0  0  0
   -2.2713   -0.3516   -0.2105 H   0  0  0  0  0  0  0  0  0  0  0  0
   -0.2249   -0.3373    0.4101 C   0  0  1  0  0  0  0  0  0  0  0  0
    0.3085   -0.8002    1.2470 H   0  0  0  0  0  0  0  0  0  0  0  0
    0.5582   -0.5909   -0.8962 C   0  0  0  0  0  0  0  0  0  0  0  0
    0.8065   -1.6555   -0.9700 H   0  0  0  0  0  0  0  0  0  0  0  0
   -0.1148   -0.3603   -1.7304 H   0  0  0  0  0  0  0  0  0  0  0  0
    1.8464    0.2456   -1.0711 C   0  0  0  0  0  0  0  0  0  0  0  0
    1.7792    1.2188   -0.5827 H   0  0  0  0  0  0  0  0  0  0  0  0
    2.6925   -0.2848   -0.6246 H   0  0  0  0  0  0  0  0  0  0  0  0
    2.1243    0.5039   -2.5451 C   0  0  0  0  0  0  0  0  0  0  0  0
    2.8393   -0.2272   -3.2020 O   0  0  0  0  0  0  0  0  0  0  0  0
    1.5357    1.5437   -3.2068 N   0  0  0  0  0  0  0  0  0  0  0  0
    1.6193    1.5366   -4.2191 H   0  0  0  0  0  0  0  0  0  0  0  0
    0.7711    2.0403   -2.7579 H   0  0  0  0  0  0  0  0  0  0  0  0
   -0.3980    1.1629    0.7253 C   0  0  0  0  0  0  0  0  0  0  0  0
   -1.1276    1.8503    0.0189 O   0  0  0  0  0  0  0  0  0  0  0  0
    0.3243    1.7572    1.7431 N   0  0  0  0  0  0  0  0  0  0  0  0
    0.8847    1.1511    2.3367 H   0  0  0  0  0  0  0  0  0  0  0  0
    0.2074    3.1685    2.0892 C   0  0  0  0  0  0  0  0  0  0  0  0
   -0.8136    3.4009    2.4102 H   0  0  0  0  0  0  0  0  0  0  0  0
    0.8920    3.4150    2.9066 H   0  0  0  0  0  0  0  0  0  0  0  0
    0.4583    3.7973    1.2284 H   0  0  0  0  0  0  0  0  0  0  0  0
  1  2  1  0  0  0  0
  2  3  1  0  0  0  0
  2  4  1  0  0  0  0
  2  5  1  0  0  0  0
  5  6  2  0  0  0  0
  5  7  1  0  0  0  0
  7  8  1  0  0  0  0
  7  9  1  0  0  0  0
  9 10  1  0  0  0  0
  9 11  1  0  0  0  0
  9 22  1  0  0  0  0
 11 12  1  0  0  0  0
 11 13  1  0  0  0  0
 11 14  1  0  0  0  0
 14 15  1  0  0  0  0
 14 16  1  0  0  0  0
 14 17  1  0  0  0  0
 17 18  2  0  0  0  0
 17 19  1  0  0  0  0
 19 20  1  0  0  0  0
 19 21  1  0  0  0  0
 22 23  2  0  0  0  0
 22 24  1  0  0  0  0
 24 25  1  0  0  0  0
 24 26  1  0  0  0  0
 26 27  1  0  0  0  0
 26 28  1  0  0  0  0
 26 29  1  0  0  0  0
M  END
$$$$

  -OEChem-04042215583D

 29 28  0     1  0  0  0  0  0999 V2000
   -3.5513   -3.5566    1.1029 H   0  0  0  0  0  0  0  0  0  0  0  0
   -3.4037   -2.5862    0.6207 C   0  0  0  0  0  0  0  0  0  0  0  0
   -4.0925   -1.8635    1.0646 H   0  0  0  0  0  0  0  0  0  0  0  0
   -3.6266   -2.6857   -0.4444 H   0  0  0  0  0  0  0  0  0  0  0  0
   -1.9719   -2.1217    0.8093 C   0  0  0  0  0  0  0  0  0  0  0  0
   -1.1907   -2.7944    1.4623 O   0  0  0  0  0  0  0  0  0  0  0  0
   -1.5550   -0.9352    0.2420 N   0  0  0  0  0  0  0  0  0  0  0  0
   -2.2565   -0.3667   -0.2297 H   0  0  0  0  0  0  0  0  0  0  0  0
   -0.2130   -0.3590    0.4060 C   0  0  1  0  0  0  0  0  0  0  0  0
    0.3340   -0.8246    1.2326 H   0  0  0  0  0  0  0  0  0  0  0  0
    0.5305   -0.6107   -0.9228 C   0  0  0  0  0  0  0  0  0  0  0  0
    0.7679   -1.6771   -1.0037 H   0  0  0  0  0  0  0  0  0  0  0  0
   -0.1607   -0.3790   -1.7420 H   0  0  0  0  0  0  0  0  0  0  0  0
    1.8265    0.2125   -1.1176 C   0  0  0  0  0  0  0  0  0  0  0  0
    1.9212    1.0322   -0.4046 H   0  0  0  0  0  0  0  0  0  0  0  0
    2.6927   -0.4387   -0.9670 H   0  0  0  0  0  0  0  0  0  0  0  0
    1.8833    0.8020   -2.5190 C   0  0  0  0  0  0  0  0  0  0  0  0
    2.5510    0.3063   -3.4057 O   0  0  0  0  0  0  0  0  0  0  0  0
    1.1373    1.9006   -2.8396 N   0  0  0  0  0  0  0  0  0  0  0  0
    1.0657    2.1215   -3.8281 H   0  0  0  0  0  0  0  0  0  0  0  0
    0.4061    2.1957   -2.1945 H   0  0  0  0  0  0  0  0  0  0  0  0
   -0.3651    1.1484    0.7023 C   0  0  0  0  0  0  0  0  0  0  0  0
   -1.0314    1.8463   -0.0558 O   0  0  0  0  0  0  0  0  0  0  0  0
    0.3697    1.7489    1.7076 N   0  0  0  0  0  0  0  0  0  0  0  0
    0.9003    1.1428    2.3280 H   0  0  0  0  0  0  0  0  0  0  0  0
    0.3189    3.1777    1.9934 C   0  0  0  0  0  0  0  0  0  0  0  0
   -0.6955    3.4758    2.2786 H   0  0  0  0  0  0  0  0  0  0  0  0
    0.9962    3.4225    2.8173 H   0  0  0  0  0  0  0  0  0  0  0  0
    0.6224    3.7565    1.1147 H   0  0  0  0  0  0  0  0  0  0  0  0
  1  2  1  0  0  0  0
  2  3  1  0  0  0  0
  2  4  1  0  0  0  0
  2  5  1  0  0  0  0
  5  6  2  0  0  0  0
  5  7  1  0  0  0  0
  7  8  1  0  0  0  0
  7  9  1  0  0  0  0
  9 10  1  0  0  0  0
  9 11  1  0  0  0  0
  9 22  1  0  0  0  0
 11 12  1  0  0  0  0
 11 13  1  0  0  0  0
 11 14  1  0  0  0  0
 14 15  1  0  0  0  0
 14 16  1  0  0  0  0
 14 17  1  0  0  0  0
 17 18  2  0  0  0  0
 17 19  1  0  0  0  0
 19 20  1  0  0  0  0
 19 21  1  0  0  0  0
 22 23  2  0  0  0  0
 22 24  1  0  0  0  0
 24 25  1  0  0  0  0
 24 26  1  0  0  0  0
 26 27  1  0  0  0  0
 26 28  1  0  0  0  0
 26 29  1  0  0  0  0
M  END
$$$$

  -OEChem-04042215583D

 29 28  0     1  0  0  0  0  0999 V2000
   -3.5399   -3.5454    1.2030 H   0  0  0  0  0  0  0  0  0  0  0  0
   -3.4044   -2.5814    0.7046 C   0  0  0  0  0  0  0  0  0  0  0  0
   -4.0743   -1.8505    1.1636 H   0  0  0  0  0  0  0  0  0  0  0  0
   -3.6642   -2.6919   -0.3509 H   0  0  0  0  0  0  0  0  0  0  0  0
   -1.9651   -2.1211    0.8383 C   0  0  0  0  0  0  0  0  0  0  0  0
   -1.1627   -2.7943    1.4649 O   0  0  0  0  0  0  0  0  0  0  0  0
   -1.5656   -0.9362    0.2549 N   0  0  0  0  0  0  0  0  0  0  0  0
   -2.2810   -0.3696   -0.1980 H   0  0  0  0  0  0  0  0  0  0  0  0
   -0.2181   -0.3621    0.3759 C   0  0  1  0  0  0  0  0  0  0  0  0
    0.3508   -0.8277    1.1877 H   0  0  0  0  0  0  0  0  0  0  0  0
    0.4892   -0.6196   -0.9718 C   0  0  0  0  0  0  0  0  0  0  0  0
    0.7377   -1.6849   -1.0317 H   0  0  0  0  0  0  0  0  0  0  0  0
   -0.2148   -0.4150   -1.7873 H   0  0  0  0  0  0  0  0  0  0  0  0
    1.7774    0.2080   -1.1914 C   0  0  0  0  0  0  0  0  0  0  0  0
    2.0357    0.8213   -0.3266 H   0  0  0  0  0  0  0  0  0  0  0  0
    2.6141   -0.4799   -1.3472 H   0  0  0  0  0  0  0  0  0  0  0  0
    1.6592    1.0984   -2.4221 C   0  0  0  0  0  0  0  0  0  0  0  0
    2.2723    0.8677   -3.4463 O   0  0  0  0  0  0  0  0  0  0  0  0
    0.8450    2.1953   -2.4227 N   0  0  0  0  0  0  0  0  0  0  0  0
    0.6771    2.6249   -3.3268 H   0  0  0  0  0  0  0  0  0  0  0  0
    0.1468    2.2820   -1.6813 H   0  0  0  0  0  0  0  0  0  0  0  0
   -0.3471    1.1471    0.6741 C   0  0  0  0  0  0  0  0  0  0  0  0
   -1.0246    1.8527   -0.0670 O   0  0  0  0  0  0  0  0  0  0  0  0
    0.4252    1.7428    1.6535 N   0  0  0  0  0  0  0  0  0  0  0  0
    0.9718    1.1334    2.2568 H   0  0  0  0  0  0  0  0  0  0  0  0
    0.4191    3.1761    1.9209 C   0  0  0  0  0  0  0  0  0  0  0  0
   -0.5846    3.5096    2.2045 H   0  0  0  0  0  0  0  0  0  0  0  0
    1.1054    3.4106    2.7404 H   0  0  0  0  0  0  0  0  0  0  0  0
    0.7389    3.7332    1.0339 H   0  0  0  0  0  0  0  0  0  0  0  0
  1  2  1  0  0  0  0
  2  3  1  0  0  0  0
  2  4  1  0  0  0  0
  2  5  1  0  0  0  0
  5  6  2  0  0  0  0
  5  7  1  0  0  0  0
  7  8  1  0  0  0  0
  7  9  1  0  0  0  0
  9 10  1  0  0  0  0
  9 11  1  0  0  0  0
  9 22  1  0  0  0  0
 11 12  1  0  0  0  0
 11 13  1  0  0  0  0
 11 14  1  0  0  0  0
 14 15  1  0  0  0  0
 14 16  1  0  0  0  0
 14 17  1  0  0  0  0
 17 18  2  0  0  0  0
 17 19  1  0  0  0  0
 19 20  1  0  0  0  0
 19 21  1  0  0  0  0
 22 23  2  0  0  0  0
 22 24  1  0  0  0  0
 24 25  1  0  0  0  0
 24 26  1  0  0  0  0
 26 27  1  0  0  0  0
 26 28  1  0  0  0  0
 26 29  1  0  0  0  0
M  END
$$$$

  -OEChem-04042215583D

 29 28  0     1  0  0  0  0  0999 V2000
   -3.4785   -3.5574    1.2950 H   0  0  0  0  0  0  0  0  0  0  0  0
   -3.3800   -2.5812    0.8116 C   0  0  0  0  0  0  0  0  0  0  0  0
   -4.0199   -1.8641    1.3316 H   0  0  0  0  0  0  0  0  0  0  0  0
   -3.7095   -2.6675   -0.2267 H   0  0  0  0  0  0  0  0  0  0  0  0
   -1.9363   -2.1185    0.8598 C   0  0  0  0  0  0  0  0  0  0  0  0
   -1.0918   -2.8024    1.4154 O   0  0  0  0  0  0  0  0  0  0  0  0
   -1.5801   -0.9198    0.2770 N   0  0  0  0  0  0  0  0  0  0  0  0
   -2.3288   -0.3418   -0.1023 H   0  0  0  0  0  0  0  0  0  0  0  0
   -0.2357   -0.3302    0.3390 C   0  0  1  0  0  0  0  0  0  0  0  0
    0.3530   -0.7903    1.1399 H   0  0  0  0  0  0  0  0  0  0  0  0
    0.4567   -0.6222   -1.0112 C   0  0  0  0  0  0  0  0  0  0  0  0
    0.7214   -1.6851   -1.0254 H   0  0  0  0  0  0  0  0  0  0  0  0
   -0.2566   -0.4626   -1.8281 H   0  0  0  0  0  0  0  0  0  0  0  0
    1.7298    0.2077   -1.2937 C   0  0  0  0  0  0  0  0  0  0  0  0
    2.1361    0.6334   -0.3733 H   0  0  0  0  0  0  0  0  0  0  0  0
    2.4952   -0.4643   -1.6945 H   0  0  0  0  0  0  0  0  0  0  0  0
    1.5169    1.3224   -2.3190 C   0  0  0  0  0  0  0  0  0  0  0  0
    2.0834    1.2972   -3.3945 O   0  0  0  0  0  0  0  0  0  0  0  0
    0.7321    2.4171   -2.0974 N   0  0  0  0  0  0  0  0  0  0  0  0
    0.5504    2.9934   -2.9130 H   0  0  0  0  0  0  0  0  0  0  0  0
    0.0379    2.3790   -1.3493 H   0  0  0  0  0  0  0  0  0  0  0  0
   -0.3521    1.1706    0.6665 C   0  0  0  0  0  0  0  0  0  0  0  0
   -1.1500    1.8669    0.0484 O   0  0  0  0  0  0  0  0  0  0  0  0
    0.4693    1.7555    1.6112 N   0  0  0  0  0  0  0  0  0  0  0  0
    1.0886    1.1459    2.1393 H   0  0  0  0  0  0  0  0  0  0  0  0
    0.4140    3.1707    1.9579 C   0  0  0  0  0  0  0  0  0  0  0  0
   -0.5712    3.4293    2.3603 H   0  0  0  0  0  0  0  0  0  0  0  0
    1.1688    3.4036    2.7154 H   0  0  0  0  0  0  0  0  0  0  0  0
    0.6093    3.7901    1.0761 H   0  0  0  0  0  0  0  0  0  0  0  0
  1  2  1  0  0  0  0
  2  3  1  0  0  0  0
  2  4  1  0  0  0  0
  2  5  1  0  0  0  0
  5  6  2  0  0  0  0
  5  7  1  0  0  0  0
  7  8  1  0  0  0  0
  7  9  1  0  0  0  0
  9 10  1  0  0  0  0
  9 11  1  0  0  0  0
  9 22  1  0  0  0  0
 11 12  1  0  0  0  0
 11 13  1  0  0  0  0
 11 14  1  0  0  0  0
 14 15  1  0  0  0  0
 14 16  1  0  0  0  0
 14 17  1  0  0  0  0
 17 18  2  0  0  0  0
 17 19  1  0  0  0  0
 19 20  1  0  0  0  0
 19 21  1  0  0  0  0
 22 23  2  0  0  0  0
 22 24  1  0  0  0  0
 24 25  1  0  0  0  0
 24 26  1  0  0  0  0
 26 27  1  0  0  0  0
 26 28  1  0  0  0  0
 26 29  1  0  0  0  0
M  END
$$$$

  -OEChem-04042215583D

 29 28  0     1  0  0  0  0  0999 V2000
   -3.4011   -3.5996    1.4028 H   0  0  0  0  0  0  0  0  0  0  0  0
   -3.3369   -2.6401    0.8820 C   0  0  0  0  0  0  0  0  0  0  0  0
   -3.9835   -1.9201    1.3894 H   0  0  0  0  0  0  0  0  0  0  0  0
   -3.6857   -2.7729   -0.1450 H   0  0  0  0  0  0  0  0  0  0  0  0
   -1.9045   -2.1407    0.8812 C   0  0  0  0  0  0  0  0  0  0  0  0
   -1.0199   -2.8144    1.3849 O   0  0  0  0  0  0  0  0  0  0  0  0
   -1.6026   -0.9218    0.3092 N   0  0  0  0  0  0  0  0  0  0  0  0
   -2.3800   -0.3575   -0.0310 H   0  0  0  0  0  0  0  0  0  0  0  0
   -0.2723   -0.2975    0.3258 C   0  0  1  0  0  0  0  0  0  0  0  0
    0.3404   -0.7477    1.1139 H   0  0  0  0  0  0  0  0  0  0  0  0
    0.4068   -0.6110   -1.0285 C   0  0  0  0  0  0  0  0  0  0  0  0
    0.6903   -1.6691   -1.0109 H   0  0  0  0  0  0  0  0  0  0  0  0
   -0.3275   -0.4921   -1.8334 H   0  0  0  0  0  0  0  0  0  0  0  0
    1.6565    0.2197   -1.4015 C   0  0  0  0  0  0  0  0  0  0  0  0
    2.2203    0.4659   -0.4982 H   0  0  0  0  0  0  0  0  0  0  0  0
    2.3049   -0.4089   -2.0201 H   0  0  0  0  0  0  0  0  0  0  0  0
    1.3959    1.5093   -2.1896 C   0  0  0  0  0  0  0  0  0  0  0  0
    1.7676    1.5999   -3.3435 O   0  0  0  0  0  0  0  0  0  0  0  0
    0.8533    2.6569   -1.6901 N   0  0  0  0  0  0  0  0  0  0  0  0
    0.6499    3.3555   -2.3983 H   0  0  0  0  0  0  0  0  0  0  0  0
    0.2105    2.5719   -0.9036 H   0  0  0  0  0  0  0  0  0  0  0  0
   -0.3958    1.1911    0.6865 C   0  0  0  0  0  0  0  0  0  0  0  0
   -1.2455    1.8855    0.1419 O   0  0  0  0  0  0  0  0  0  0  0  0
    0.4611    1.7681    1.6040 N   0  0  0  0  0  0  0  0  0  0  0  0
    1.1213    1.1581    2.0797 H   0  0  0  0  0  0  0  0  0  0  0  0
    0.3869    3.1684    2.0047 C   0  0  0  0  0  0  0  0  0  0  0  0
   -0.6081    3.4047    2.3965 H   0  0  0  0  0  0  0  0  0  0  0  0
    1.1229    3.3767    2.7872 H   0  0  0  0  0  0  0  0  0  0  0  0
    0.5951    3.8231    1.1522 H   0  0  0  0  0  0  0  0  0  0  0  0
  1  2  1  0  0  0  0
  2  3  1  0  0  0  0
  2  4  1  0  0  0  0
  2  5  1  0  0  0  0
  5  6  2  0  0  0  0
  5  7  1  0  0  0  0
  7  8  1  0  0  0  0
  7  9  1  0  0  0  0
  9 10  1  0  0  0  0
  9 11  1  0  0  0  0
  9 22  1  0  0  0  0
 11 12  1  0  0  0  0
 11 13  1  0  0  0  0
 11 14  1  0  0  0  0
 14 15  1  0  0  0  0
 14 16  1  0  0  0  0
 14 17  1  0  0  0  0
 17 18  2  0  0  0  0
 17 19  1  0  0  0  0
 19 20  1  0  0  0  0
 19 21  1  0  0  0  0
 22 23  2  0  0  0  0
 22 24  1  0  0  0  0
 24 25  1  0  0  0  0
 24 26  1  0  0  0  0
 26 27  1  0  0  0  0
 26 28  1  0  0  0  0
 26 29  1  0  0  0  0
M  END
$$$$

  -OEChem-04042215583D

 29 28  0     1  0  0  0  0  0999 V2000
   -3.3074   -3.6708    1.4296 H   0  0  0  0  0  0  0  0  0  0  0  0
   -3.2869   -2.6896    0.9472 C   0  0  0  0  0  0  0  0  0  0  0  0
   -3.9309   -2.0076    1.5076 H   0  0  0  0  0  0  0  0  0  0  0  0
   -3.6723   -2.7897   -0.0704 H   0  0  0  0  0  0  0  0  0  0  0  0
   -1.8683   -2.1531    0.9136 C   0  0  0  0  0  0  0  0  0  0  0  0
   -0.9603   -2.7875    1.4276 O   0  0  0  0  0  0  0  0  0  0  0  0
   -1.6057   -0.9426    0.3066 N   0  0  0  0  0  0  0  0  0  0  0  0
   -2.4006   -0.4068   -0.0409 H   0  0  0  0  0  0  0  0  0  0  0  0
   -0.2930   -0.2832    0.2868 C   0  0  1  0  0  0  0  0  0  0  0  0
    0.3454   -0.6964    1.0747 H   0  0  0  0  0  0  0  0  0  0  0  0
    0.3663   -0.6148   -1.0732 C   0  0  0  0  0  0  0  0  0  0  0  0
    0.6695   -1.6670   -1.0457 H   0  0  0  0  0  0  0  0  0  0  0  0
   -0.3889   -0.5191   -1.8623 H   0  0  0  0  0  0  0  0  0  0  0  0
    1.5865    0.2336   -1.4945 C   0  0  0  0  0  0  0  0  0  0  0  0
    2.2936    0.2959   -0.6633 H   0  0  0  0  0  0  0  0  0  0  0  0
    2.0975   -0.2768   -2.3163 H   0  0  0  0  0  0  0  0  0  0  0  0
    1.2486    1.6427   -1.9781 C   0  0  0  0  0  0  0  0  0  0  0  0
    0.7762    1.8248   -3.0828 O   0  0  0  0  0  0  0  0  0  0  0  0
    1.5155    2.7676   -1.2524 N   0  0  0  0  0  0  0  0  0  0  0  0
    1.0675    3.6039   -1.6165 H   0  0  0  0  0  0  0  0  0  0  0  0
    1.6003    2.6610   -0.2469 H   0  0  0  0  0  0  0  0  0  0  0  0
   -0.4624    1.2127    0.6127 C   0  0  0  0  0  0  0  0  0  0  0  0
   -1.3834    1.8533    0.1237 O   0  0  0  0  0  0  0  0  0  0  0  0
    0.3956    1.8295    1.5078 N   0  0  0  0  0  0  0  0  0  0  0  0
    1.0160    1.2194    2.0346 H   0  0  0  0  0  0  0  0  0  0  0  0
    0.1628    3.1781    2.0150 C   0  0  0  0  0  0  0  0  0  0  0  0
   -0.7448    3.2047    2.6273 H   0  0  0  0  0  0  0  0  0  0  0  0
    1.0076    3.5017    2.6308 H   0  0  0  0  0  0  0  0  0  0  0  0
    0.0491    3.8891    1.1896 H   0  0  0  0  0  0  0  0  0  0  0  0
  1  2  1  0  0  0  0
  2  3  1  0  0  0  0
  2  4  1  0  0  0  0
  2  5  1  0  0  0  0
  5  6  2  0  0  0  0
  5  7  1  0  0  0  0
  7  8  1  0  0  0  0
  7  9  1  0  0  0  0
  9 10  1  0  0  0  0
  9 11  1  0  0  0  0
  9 22  1  0  0  0  0
 11 12  1  0  0  0  0
 11 13  1  0  0  0  0
 11 14  1  0  0  0  0
 14 15  1  0  0  0  0
 14 16  1  0  0  0  0
 14 17  1  0  0  0  0
 17 18  2  0  0  0  0
 17 19  1  0  0  0  0
 19 20  1  0  0  0  0
 19 21  1  0  0  0  0
 22 23  2  0  0  0  0
 22 24  1  0  0  0  0
 24 25  1  0  0  0  0
 24 26  1  0  0  0  0
 26 27  1  0  0  0  0
 26 28  1  0  0  0  0
 26 29  1  0  0  0  0
M  END
$$$$

  -OEChem-04042215583D

 29 28  0     1  0  0  0  0  0999 V2000
   -3.2476   -3.7554    1.4787 H   0  0  0  0  0  0  0  0  0  0  0  0
   -3.2572   -2.7852    0.9742 C   0  0  0  0  0  0  0  0  0  0  0  0
   -3.8951   -2.1007    1.5386 H   0  0  0  0  0  0  0  0  0  0  0  0
   -3.6706   -2.9133   -0.0291 H   0  0  0  0  0  0  0  0  0  0  0  0
   -1.8492   -2.2276    0.8863 C   0  0  0  0  0  0  0  0  0  0  0  0
   -0.9063   -2.8720    1.3195 O   0  0  0  0  0  0  0  0  0  0  0  0
   -1.6358   -0.9903    0.3167 N   0  0  0  0  0  0  0  0  0  0  0  0
   -2.4574   -0.4396    0.0659 H   0  0  0  0  0  0  0  0  0  0  0  0
   -0.3475   -0.2842    0.3136 C   0  0  1  0  0  0  0  0  0  0  0  0
    0.3108   -0.6903    1.0883 H   0  0  0  0  0  0  0  0  0  0  0  0
    0.3128   -0.5530   -1.0623 C   0  0  0  0  0  0  0  0  0  0  0  0
    0.6281   -1.6017   -1.0839 H   0  0  0  0  0  0  0  0  0  0  0  0
   -0.4609   -0.4334   -1.8298 H   0  0  0  0  0  0  0  0  0  0  0  0
    1.5073    0.3272   -1.5006 C   0  0  0  0  0  0  0  0  0  0  0  0
    2.3229    0.1775   -0.7887 H   0  0  0  0  0  0  0  0  0  0  0  0
    1.8583   -0.0237   -2.4752 H   0  0  0  0  0  0  0  0  0  0  0  0
    1.2411    1.8237   -1.6219 C   0  0  0  0  0  0  0  0  0  0  0  0
    0.3978    2.2583   -2.3793 O   0  0  0  0  0  0  0  0  0  0  0  0
    1.9975    2.7541   -0.9678 N   0  0  0  0  0  0  0  0  0  0  0  0
    1.8643    3.7154   -1.2694 H   0  0  0  0  0  0  0  0  0  0  0  0
    2.8721    2.4686   -0.5426 H   0  0  0  0  0  0  0  0  0  0  0  0
   -0.6117    1.1891    0.6919 C   0  0  0  0  0  0  0  0  0  0  0  0
   -1.6352    1.7466    0.3139 O   0  0  0  0  0  0  0  0  0  0  0  0
    0.2032    1.8282    1.6088 N   0  0  0  0  0  0  0  0  0  0  0  0
    0.9717    1.2984    2.0078 H   0  0  0  0  0  0  0  0  0  0  0  0
   -0.0544    3.1776    2.0961 C   0  0  0  0  0  0  0  0  0  0  0  0
   -1.0043    3.2143    2.6400 H   0  0  0  0  0  0  0  0  0  0  0  0
    0.7453    3.4953    2.7720 H   0  0  0  0  0  0  0  0  0  0  0  0
   -0.0998    3.8836    1.2599 H   0  0  0  0  0  0  0  0  0  0  0  0
  1  2  1  0  0  0  0
  2  3  1  0  0  0  0
  2  4  1  0  0  0  0
  2  5  1  0  0  0  0
  5  6  2  0  0  0  0
  5  7  1  0  0  0  0
  7  8  1  0  0  0  0
  7  9  1  0  0  0  0
  9 10  1  0  0  0  0
  9 11  1  0  0  0  0
  9 22  1  0  0  0  0
 11 12  1  0  0  0  0
 11 13  1  0  0  0  0
 11 14  1  0  0  0  0
 14 15  1  0  0  0  0
 14 16  1  0  0  0  0
 14 17  1  0  0  0  0
 17 18  2  0  0  0  0
 17 19  1  0  0  0  0
 19 20  1  0  0  0  0
 19 21  1  0  0  0  0
 22 23  2  0  0  0  0
 22 24  1  0  0  0  0
 24 25  1  0  0  0  0
 24 26  1  0  0  0  0
 26 27  1  0  0  0  0
 26 28  1  0  0  0  0
 26 29  1  0  0  0  0
M  END
$$$$

  -OEChem-04042215583D

 29 28  0     1  0  0  0  0  0999 V2000
   -3.1876   -3.7878    1.5037 H   0  0  0  0  0  0  0  0  0  0  0  0
   -3.2149   -2.8248    0.9863 C   0  0  0  0  0  0  0  0  0  0  0  0
   -3.8518   -2.1398    1.5513 H   0  0  0  0  0  0  0  0  0  0  0  0
   -3.6418   -2.9706   -0.0089 H   0  0  0  0  0  0  0  0  0  0  0  0
   -1.8143   -2.2534    0.8698 C   0  0  0  0  0  0  0  0  0  0  0  0
   -0.8533   -2.9002    1.2577 O   0  0  0  0  0  0  0  0  0  0  0  0
   -1.6281   -1.0004    0.3259 N   0  0  0  0  0  0  0  0  0  0  0  0
   -2.4624   -0.4467    0.1272 H   0  0  0  0  0  0  0  0  0  0  0  0
   -0.3504   -0.2737    0.3287 C   0  0  1  0  0  0  0  0  0  0  0  0
    0.3281   -0.6816    1.0851 H   0  0  0  0  0  0  0  0  0  0  0  0
    0.2849   -0.4949   -1.0698 C   0  0  0  0  0  0  0  0  0  0  0  0
    0.5888   -1.5447   -1.1403 H   0  0  0  0  0  0  0  0  0  0  0  0
   -0.5155   -0.3435   -1.8034 H   0  0  0  0  0  0  0  0  0  0  0  0
    1.4652    0.3872   -1.5520 C   0  0  0  0  0  0  0  0  0  0  0  0
    2.3663    0.0362   -1.0422 H   0  0  0  0  0  0  0  0  0  0  0  0
    1.6138    0.2106   -2.6213 H   0  0  0  0  0  0  0  0  0  0  0  0
    1.3811    1.8936   -1.3424 C   0  0  0  0  0  0  0  0  0  0  0  0
    0.5635    2.5756   -1.9243 O   0  0  0  0  0  0  0  0  0  0  0  0
    2.2845    2.5694   -0.5719 N   0  0  0  0  0  0  0  0  0  0  0  0
    2.2708    3.5795   -0.6838 H   0  0  0  0  0  0  0  0  0  0  0  0
    3.1472    2.1024   -0.3158 H   0  0  0  0  0  0  0  0  0  0  0  0
   -0.6715    1.1798    0.7460 C   0  0  0  0  0  0  0  0  0  0  0  0
   -1.7270    1.6972    0.3961 O   0  0  0  0  0  0  0  0  0  0  0  0
    0.1174    1.8304    1.6773 N   0  0  0  0  0  0  0  0  0  0  0  0
    0.9620    1.3636    1.9913 H   0  0  0  0  0  0  0  0  0  0  0  0
   -0.1550    3.1847    2.1418 C   0  0  0  0  0  0  0  0  0  0  0  0
   -1.1353    3.2340    2.6273 H   0  0  0  0  0  0  0  0  0  0  0  0
    0.6043    3.4968    2.8651 H   0  0  0  0  0  0  0  0  0  0  0  0
   -0.1417    3.8862    1.3007 H   0  0  0  0  0  0  0  0  0  0  0  0
  1  2  1  0  0  0  0
  2  3  1  0  0  0  0
  2  4  1  0  0  0  0
  2  5  1  0  0  0  0
  5  6  2  0  0  0  0
  5  7  1  0  0  0  0
  7  8  1  0  0  0  0
  7  9  1  0  0  0  0
  9 10  1  0  0  0  0
  9 11  1  0  0  0  0
  9 22  1  0  0  0  0
 11 12  1  0  0  0  0
 11 13  1  0  0  0  0
 11 14  1  0  0  0  0
 14 15  1  0  0  0  0
 14 16  1  0  0  0  0
 14 17  1  0  0  0  0
 17 18  2  0  0  0  0
 17 19  1  0  0  0  0
 19 20  1  0  0  0  0
 19 21  1  0  0  0  0
 22 23  2  0  0  0  0
 22 24  1  0  0  0  0
 24 25  1  0  0  0  0
 24 26  1  0  0  0  0
 26 27  1  0  0  0  0
 26 28  1  0  0  0  0
 26 29  1  0  0  0  0
M  END
$$$$

  -OEChem-04042215583D

 29 28  0     1  0  0  0  0  0999 V2000
   -3.0782   -3.8785    1.4077 H   0  0  0  0  0  0  0  0  0  0  0  0
   -3.1317   -2.8946    0.9335 C   0  0  0  0  0  0  0  0  0  0  0  0
   -3.7694   -2.2462    1.5393 H   0  0  0  0  0  0  0  0  0  0  0  0
   -3.5743   -3.0045   -0.0594 H   0  0  0  0  0  0  0  0  0  0  0  0
   -1.7440   -2.2933    0.8169 C   0  0  0  0  0  0  0  0  0  0  0  0
   -0.7658   -2.9321    1.1735 O   0  0  0  0  0  0  0  0  0  0  0  0
   -1.5888   -1.0222    0.3064 N   0  0  0  0  0  0  0  0  0  0  0  0
   -2.4363   -0.4777    0.1403 H   0  0  0  0  0  0  0  0  0  0  0  0
   -0.3273   -0.2675    0.3342 C   0  0  1  0  0  0  0  0  0  0  0  0
    0.3722   -0.6772    1.0700 H   0  0  0  0  0  0  0  0  0  0  0  0
    0.2826   -0.4095   -1.0866 C   0  0  0  0  0  0  0  0  0  0  0  0
    0.5887   -1.4526   -1.2215 H   0  0  0  0  0  0  0  0  0  0  0  0
   -0.5408   -0.2277   -1.7873 H   0  0  0  0  0  0  0  0  0  0  0  0
    1.4398    0.5034   -1.5738 C   0  0  0  0  0  0  0  0  0  0  0  0
    2.3763   -0.0051   -1.3300 H   0  0  0  0  0  0  0  0  0  0  0  0
    1.3917    0.5674   -2.6650 H   0  0  0  0  0  0  0  0  0  0  0  0
    1.5551    1.9214   -1.0326 C   0  0  0  0  0  0  0  0  0  0  0  0
    0.8679    2.8314   -1.4466 O   0  0  0  0  0  0  0  0  0  0  0  0
    2.5088    2.2626   -0.1147 N   0  0  0  0  0  0  0  0  0  0  0  0
    2.6509    3.2632   -0.0052 H   0  0  0  0  0  0  0  0  0  0  0  0
    3.2905    1.6297    0.0175 H   0  0  0  0  0  0  0  0  0  0  0  0
   -0.7197    1.1588    0.7924 C   0  0  0  0  0  0  0  0  0  0  0  0
   -1.7872    1.6414    0.4263 O   0  0  0  0  0  0  0  0  0  0  0  0
    0.0224    1.8241    1.7512 N   0  0  0  0  0  0  0  0  0  0  0  0
    0.9258    1.4314    1.9959 H   0  0  0  0  0  0  0  0  0  0  0  0
   -0.2839    3.1851    2.1742 C   0  0  0  0  0  0  0  0  0  0  0  0
   -1.2867    3.2351    2.6110 H   0  0  0  0  0  0  0  0  0  0  0  0
    0.4367    3.5186    2.9269 H   0  0  0  0  0  0  0  0  0  0  0  0
   -0.2366    3.8696    1.3202 H   0  0  0  0  0  0  0  0  0  0  0  0
  1  2  1  0  0  0  0
  2  3  1  0  0  0  0
  2  4  1  0  0  0  0
  2  5  1  0  0  0  0
  5  6  2  0  0  0  0
  5  7  1  0  0  0  0
  7  8  1  0  0  0  0
  7  9  1  0  0  0  0
  9 10  1  0  0  0  0
  9 11  1  0  0  0  0
  9 22  1  0  0  0  0
 11 12  1  0  0  0  0
 11 13  1  0  0  0  0
 11 14  1  0  0  0  0
 14 15  1  0  0  0  0
 14 16  1  0  0  0  0
 14 17  1  0  0  0  0
 17 18  2  0  0  0  0
 17 19  1  0  0  0  0
 19 20  1  0  0  0  0
 19 21  1  0  0  0  0
 22 23  2  0  0  0  0
 22 24  1  0  0  0  0
 24 25  1  0  0  0  0
 24 26  1  0  0  0  0
 26 27  1  0  0  0  0
 26 28  1  0  0  0  0
 26 29  1  0  0  0  0
M  END
$$$$

  -OEChem-04042215583D

 29 28  0     1  0  0  0  0  0999 V2000
   -3.1685   -3.7412    1.5757 H   0  0  0  0  0  0  0  0  0  0  0  0
   -3.1999   -2.7735    1.0672 C   0  0  0  0  0  0  0  0  0  0  0  0
   -3.8155   -2.0875    1.6543 H   0  0  0  0  0  0  0  0  0  0  0  0
   -3.6534   -2.9061    0.0820 H   0  0  0  0  0  0  0  0  0  0  0  0
   -1.7978   -2.2142    0.9187 C   0  0  0  0  0  0  0  0  0  0  0  0
   -0.8323   -2.8725    1.2743 O   0  0  0  0  0  0  0  0  0  0  0  0
   -1.6141   -0.9611    0.3744 N   0  0  0  0  0  0  0  0  0  0  0  0
   -2.4483   -0.3960    0.2089 H   0  0  0  0  0  0  0  0  0  0  0  0
   -0.3303   -0.2439    0.3645 C   0  0  1  0  0  0  0  0  0  0  0  0
    0.3789   -0.6567    1.0896 H   0  0  0  0  0  0  0  0  0  0  0  0
    0.2252   -0.4149   -1.0754 C   0  0  0  0  0  0  0  0  0  0  0  0
    0.4971   -1.4681   -1.2052 H   0  0  0  0  0  0  0  0  0  0  0  0
   -0.6152   -0.2218   -1.7524 H   0  0  0  0  0  0  0  0  0  0  0  0
    1.3949    0.4554   -1.6123 C   0  0  0  0  0  0  0  0  0  0  0  0
    2.2846   -0.1784   -1.6570 H   0  0  0  0  0  0  0  0  0  0  0  0
    1.1642    0.7433   -2.6428 H   0  0  0  0  0  0  0  0  0  0  0  0
    1.7908    1.7164   -0.8590 C   0  0  0  0  0  0  0  0  0  0  0  0
    1.3854    2.8178   -1.1681 O   0  0  0  0  0  0  0  0  0  0  0  0
    2.7158    1.6817    0.1475 N   0  0  0  0  0  0  0  0  0  0  0  0
    3.3008    0.8553    0.2192 H   0  0  0  0  0  0  0  0  0  0  0  0
    3.1059    2.5892    0.3887 H   0  0  0  0  0  0  0  0  0  0  0  0
   -0.6894    1.2016    0.7949 C   0  0  0  0  0  0  0  0  0  0  0  0
   -1.7356    1.7071    0.3979 O   0  0  0  0  0  0  0  0  0  0  0  0
    0.0723    1.8800    1.7285 N   0  0  0  0  0  0  0  0  0  0  0  0
    0.9877    1.4936    1.9391 H   0  0  0  0  0  0  0  0  0  0  0  0
   -0.1825    3.2729    2.0759 C   0  0  0  0  0  0  0  0  0  0  0  0
   -1.1923    3.3894    2.4833 H   0  0  0  0  0  0  0  0  0  0  0  0
    0.5335    3.6119    2.8303 H   0  0  0  0  0  0  0  0  0  0  0  0
   -0.0834    3.9109    1.1908 H   0  0  0  0  0  0  0  0  0  0  0  0
  1  2  1  0  0  0  0
  2  3  1  0  0  0  0
  2  4  1  0  0  0  0
  2  5  1  0  0  0  0
  5  6  2  0  0  0  0
  5  7  1  0  0  0  0
  7  8  1  0  0  0  0
  7  9  1  0  0  0  0
  9 10  1  0  0  0  0
  9 11  1  0  0  0  0
  9 22  1  0  0  0  0
 11 12  1  0  0  0  0
 11 13  1  0  0  0  0
 11 14  1  0  0  0  0
 14 15  1  0  0  0  0
 14 16  1  0  0  0  0
 14 17  1  0  0  0  0
 17 18  2  0  0  0  0
 17 19  1  0  0  0  0
 19 20  1  0  0  0  0
 19 21  1  0  0  0  0
 22 23  2  0  0  0  0
 22 24  1  0  0  0  0
 24 25  1  0  0  0  0
 24 26  1  0  0  0  0
 26 27  1  0  0  0  0
 26 28  1  0  0  0  0
 26 29  1  0  0  0  0
M  END
$$$$

  -OEChem-04042215583D

 29 28  0     1  0  0  0  0  0999 V2000
   -3.4544   -3.6108    1.4862 H   0  0  0  0  0  0  0  0  0  0  0  0
   -3.3626   -2.6638    0.9471 C   0  0  0  0  0  0  0  0  0  0  0  0
   -3.9906   -1.9171    1.4389 H   0  0  0  0  0  0  0  0  0  0  0  0
   -3.7118   -2.8060   -0.0783 H   0  0  0  0  0  0  0  0  0  0  0  0
   -1.9169   -2.2041    0.9414 C   0  0  0  0  0  0  0  0  0  0  0  0
   -1.0483   -2.9162    1.4183 O   0  0  0  0  0  0  0  0  0  0  0  0
   -1.5878   -0.9865    0.3835 N   0  0  0  0  0  0  0  0  0  0  0  0
   -2.3573   -0.3815    0.0977 H   0  0  0  0  0  0  0  0  0  0  0  0
   -0.2581   -0.3630    0.4745 C   0  0  1  0  0  0  0  0  0  0  0  0
    0.3531   -0.8055    1.2693 H   0  0  0  0  0  0  0  0  0  0  0  0
    0.4060   -0.6244   -0.9036 C   0  0  0  0  0  0  0  0  0  0  0  0
    0.6361   -1.6947   -0.9481 H   0  0  0  0  0  0  0  0  0  0  0  0
   -0.3519   -0.4335   -1.6716 H   0  0  0  0  0  0  0  0  0  0  0  0
    1.6779    0.1501   -1.3458 C   0  0  0  0  0  0  0  0  0  0  0  0
    2.4664   -0.5786   -1.5555 H   0  0  0  0  0  0  0  0  0  0  0  0
    1.4587    0.6561   -2.2902 H   0  0  0  0  0  0  0  0  0  0  0  0
    2.2684    1.1784   -0.3916 C   0  0  0  0  0  0  0  0  0  0  0  0
    2.7322    0.8592    0.6887 O   0  0  0  0  0  0  0  0  0  0  0  0
    2.2411    2.5155   -0.6672 N   0  0  0  0  0  0  0  0  0  0  0  0
    1.6278    2.8412   -1.4078 H   0  0  0  0  0  0  0  0  0  0  0  0
    2.4631    3.1308    0.1095 H   0  0  0  0  0  0  0  0  0  0  0  0
   -0.5182    1.1213    0.8285 C   0  0  0  0  0  0  0  0  0  0  0  0
   -1.4030    1.7396    0.2433 O   0  0  0  0  0  0  0  0  0  0  0  0
    0.2164    1.7630    1.8070 N   0  0  0  0  0  0  0  0  0  0  0  0
    1.0772    1.2955    2.0984 H   0  0  0  0  0  0  0  0  0  0  0  0
    0.0372    3.1668    2.1529 C   0  0  0  0  0  0  0  0  0  0  0  0
   -0.9879    3.3496    2.4916 H   0  0  0  0  0  0  0  0  0  0  0  0
    0.7211    3.4448    2.9606 H   0  0  0  0  0  0  0  0  0  0  0  0
    0.2421    3.8053    1.2877 H   0  0  0  0  0  0  0  0  0  0  0  0
  1  2  1  0  0  0  0
  2  3  1  0  0  0  0
  2  4  1  0  0  0  0
  2  5  1  0  0  0  0
  5  6  2  0  0  0  0
  5  7  1  0  0  0  0
  7  8  1  0  0  0  0
  7  9  1  0  0  0  0
  9 10  1  0  0  0  0
  9 11  1  0  0  0  0
  9 22  1  0  0  0  0
 11 12  1  0  0  0  0
 11 13  1  0  0  0  0
 11 14  1  0  0  0  0
 14 15  1  0  0  0  0
 14 16  1  0  0  0  0
 14 17  1  0  0  0  0
 17 18  2  0  0  0  0
 17 19  1  0  0  0  0
 19 20  1  0  0  0  0
 19 21  1  0  0  0  0
 22 23  2  0  0  0  0
 22 24  1  0  0  0  0
 24 25  1  0  0  0  0
 24 26  1  0  0  0  0
 26 27  1  0  0  0  0
 26 28  1  0  0  0  0
 26 29  1  0  0  0  0
M  END
$$$$

  -OEChem-04042215583D

 29 28  0     1  0  0  0  0  0999 V2000
   -3.5330   -3.6621    1.3055 H   0  0  0  0  0  0  0  0  0  0  0  0
   -3.4270   -2.7017    0.7932 C   0  0  0  0  0  0  0  0  0  0  0  0
   -4.0722   -1.9686    1.2834 H   0  0  0  0  0  0  0  0  0  0  0  0
   -3.7434   -2.8191   -0.2459 H   0  0  0  0  0  0  0  0  0  0  0  0
   -1.9837   -2.2381    0.8449 C   0  0  0  0  0  0  0  0  0  0  0  0
   -1.1348   -2.9438    1.3649 O   0  0  0  0  0  0  0  0  0  0  0  0
   -1.6386   -1.0227    0.2926 N   0  0  0  0  0  0  0  0  0  0  0  0
   -2.4004   -0.4263   -0.0292 H   0  0  0  0  0  0  0  0  0  0  0  0
   -0.3262   -0.3785    0.4513 C   0  0  1  0  0  0  0  0  0  0  0  0
    0.2405   -0.8125    1.2827 H   0  0  0  0  0  0  0  0  0  0  0  0
    0.4286   -0.6129   -0.8800 C   0  0  0  0  0  0  0  0  0  0  0  0
    0.7062   -1.6726   -0.8941 H   0  0  0  0  0  0  0  0  0  0  0  0
   -0.2745   -0.4576   -1.7058 H   0  0  0  0  0  0  0  0  0  0  0  0
    1.7055    0.2087   -1.2078 C   0  0  0  0  0  0  0  0  0  0  0  0
    2.4457   -0.4565   -1.6613 H   0  0  0  0  0  0  0  0  0  0  0  0
    1.4302    0.9470   -1.9664 H   0  0  0  0  0  0  0  0  0  0  0  0
    2.3890    0.9696   -0.0746 C   0  0  0  0  0  0  0  0  0  0  0  0
    2.5806    0.4818    1.0249 O   0  0  0  0  0  0  0  0  0  0  0  0
    2.8224    2.2549   -0.2320 N   0  0  0  0  0  0  0  0  0  0  0  0
    3.4161    2.6262    0.5038 H   0  0  0  0  0  0  0  0  0  0  0  0
    2.8412    2.6615   -1.1615 H   0  0  0  0  0  0  0  0  0  0  0  0
   -0.6033    1.1090    0.7723 C   0  0  0  0  0  0  0  0  0  0  0  0
   -1.4673    1.7144    0.1443 O   0  0  0  0  0  0  0  0  0  0  0  0
    0.0810    1.7589    1.7807 N   0  0  0  0  0  0  0  0  0  0  0  0
    0.9133    1.2802    2.1318 H   0  0  0  0  0  0  0  0  0  0  0  0
   -0.0808    3.1769    2.0711 C   0  0  0  0  0  0  0  0  0  0  0  0
   -1.1252    3.4025    2.3106 H   0  0  0  0  0  0  0  0  0  0  0  0
    0.5370    3.4575    2.9294 H   0  0  0  0  0  0  0  0  0  0  0  0
    0.2231    3.7812    1.2104 H   0  0  0  0  0  0  0  0  0  0  0  0
  1  2  1  0  0  0  0
  2  3  1  0  0  0  0
  2  4  1  0  0  0  0
  2  5  1  0  0  0  0
  5  6  2  0  0  0  0
  5  7  1  0  0  0  0
  7  8  1  0  0  0  0
  7  9  1  0  0  0  0
  9 10  1  0  0  0  0
  9 11  1  0  0  0  0
  9 22  1  0  0  0  0
 11 12  1  0  0  0  0
 11 13  1  0  0  0  0
 11 14  1  0  0  0  0
 14 15  1  0  0  0  0
 14 16  1  0  0  0  0
 14 17  1  0  0  0  0
 17 18  2  0  0  0  0
 17 19  1  0  0  0  0
 19 20  1  0  0  0  0
 19 21  1  0  0  0  0
 22 23  2  0  0  0  0
 22 24  1  0  0  0  0
 24 25  1  0  0  0  0
 24 26  1  0  0  0  0
 26 27  1  0  0  0  0
 26 28  1  0  0  0  0
 26 29  1  0  0  0  0
M  END
$$$$

  -OEChem-04042215583D

 29 28  0     1  0  0  0  0  0999 V2000
   -3.4844   -3.7237    1.3490 H   0  0  0  0  0  0  0  0  0  0  0  0
   -3.4064   -2.7689    0.8212 C   0  0  0  0  0  0  0  0  0  0  0  0
   -4.0721   -2.0467    1.3001 H   0  0  0  0  0  0  0  0  0  0  0  0
   -3.7199   -2.9125   -0.2155 H   0  0  0  0  0  0  0  0  0  0  0  0
   -1.9766   -2.2636    0.8631 C   0  0  0  0  0  0  0  0  0  0  0  0
   -1.1066   -2.9443    1.3812 O   0  0  0  0  0  0  0  0  0  0  0  0
   -1.6669   -1.0451    0.2958 N   0  0  0  0  0  0  0  0  0  0  0  0
   -2.4456   -0.4736   -0.0293 H   0  0  0  0  0  0  0  0  0  0  0  0
   -0.3673   -0.3697    0.4265 C   0  0  1  0  0  0  0  0  0  0  0  0
    0.2062   -0.7966    1.2563 H   0  0  0  0  0  0  0  0  0  0  0  0
    0.3923   -0.5919   -0.9006 C   0  0  0  0  0  0  0  0  0  0  0  0
    0.7106   -1.6401   -0.9048 H   0  0  0  0  0  0  0  0  0  0  0  0
   -0.3087   -0.4650   -1.7329 H   0  0  0  0  0  0  0  0  0  0  0  0
    1.6378    0.2829   -1.2033 C   0  0  0  0  0  0  0  0  0  0  0  0
    2.2935   -0.2652   -1.8853 H   0  0  0  0  0  0  0  0  0  0  0  0
    1.2843    1.1708   -1.7356 H   0  0  0  0  0  0  0  0  0  0  0  0
    2.4805    0.7859   -0.0295 C   0  0  0  0  0  0  0  0  0  0  0  0
    2.5183    0.2486    1.0623 O   0  0  0  0  0  0  0  0  0  0  0  0
    3.2596    1.9003   -0.1490 N   0  0  0  0  0  0  0  0  0  0  0  0
    3.9249    2.0631    0.6015 H   0  0  0  0  0  0  0  0  0  0  0  0
    3.4265    2.2866   -1.0723 H   0  0  0  0  0  0  0  0  0  0  0  0
   -0.6224    1.1202    0.7410 C   0  0  0  0  0  0  0  0  0  0  0  0
   -1.4920    1.7314    0.1278 O   0  0  0  0  0  0  0  0  0  0  0  0
    0.0970    1.7650    1.7278 N   0  0  0  0  0  0  0  0  0  0  0  0
    0.9103    1.2618    2.0895 H   0  0  0  0  0  0  0  0  0  0  0  0
   -0.0391    3.1848    2.0228 C   0  0  0  0  0  0  0  0  0  0  0  0
   -1.0727    3.4219    2.2959 H   0  0  0  0  0  0  0  0  0  0  0  0
    0.6095    3.4590    2.8602 H   0  0  0  0  0  0  0  0  0  0  0  0
    0.2430    3.7856    1.1521 H   0  0  0  0  0  0  0  0  0  0  0  0
  1  2  1  0  0  0  0
  2  3  1  0  0  0  0
  2  4  1  0  0  0  0
  2  5  1  0  0  0  0
  5  6  2  0  0  0  0
  5  7  1  0  0  0  0
  7  8  1  0  0  0  0
  7  9  1  0  0  0  0
  9 10  1  0  0  0  0
  9 11  1  0  0  0  0
  9 22  1  0  0  0  0
 11 12  1  0  0  0  0
 11 13  1  0  0  0  0
 11 14  1  0  0  0  0
 14 15  1  0  0  0  0
 14 16  1  0  0  0  0
 14 17  1  0  0  0  0
 17 18  2  0  0  0  0
 17 19  1  0  0  0  0
 19 20  1  0  0  0  0
 19 21  1  0  0  0  0
 22 23  2  0  0  0  0
 22 24  1  0  0  0  0
 24 25  1  0  0  0  0
 24 26  1  0  0  0  0
 26 27  1  0  0  0  0
 26 28  1  0  0  0  0
 26 29  1  0  0  0  0
M  END
$$$$

  -OEChem-04042215583D

 29 28  0     1  0  0  0  0  0999 V2000
   -3.4052   -3.7932    1.3424 H   0  0  0  0  0  0  0  0  0  0  0  0
   -3.3662   -2.8179    0.8492 C   0  0  0  0  0  0  0  0  0  0  0  0
   -4.0208   -2.1262    1.3850 H   0  0  0  0  0  0  0  0  0  0  0  0
   -3.7241   -2.9276   -0.1773 H   0  0  0  0  0  0  0  0  0  0  0  0
   -1.9443   -2.2889    0.8479 C   0  0  0  0  0  0  0  0  0  0  0  0
   -1.0459   -2.9596    1.3295 O   0  0  0  0  0  0  0  0  0  0  0  0
   -1.6768   -1.0578    0.2862 N   0  0  0  0  0  0  0  0  0  0  0  0
   -2.4779   -0.5024   -0.0107 H   0  0  0  0  0  0  0  0  0  0  0  0
   -0.3950   -0.3464    0.4004 C   0  0  1  0  0  0  0  0  0  0  0  0
    0.1876   -0.7691    1.2255 H   0  0  0  0  0  0  0  0  0  0  0  0
    0.3741   -0.5406   -0.9236 C   0  0  0  0  0  0  0  0  0  0  0  0
    0.7277   -1.5773   -0.9416 H   0  0  0  0  0  0  0  0  0  0  0  0
   -0.3274   -0.4216   -1.7563 H   0  0  0  0  0  0  0  0  0  0  0  0
    1.5839    0.3901   -1.1965 C   0  0  0  0  0  0  0  0  0  0  0  0
    2.1338   -0.0123   -2.0514 H   0  0  0  0  0  0  0  0  0  0  0  0
    1.1947    1.3687   -1.4922 H   0  0  0  0  0  0  0  0  0  0  0  0
    2.5856    0.6332   -0.0637 C   0  0  0  0  0  0  0  0  0  0  0  0
    2.4664    0.2126    1.0721 O   0  0  0  0  0  0  0  0  0  0  0  0
    3.7014    1.3901   -0.2749 N   0  0  0  0  0  0  0  0  0  0  0  0
    4.3997    1.3733    0.4631 H   0  0  0  0  0  0  0  0  0  0  0  0
    3.9670    1.6244   -1.2257 H   0  0  0  0  0  0  0  0  0  0  0  0
   -0.6551    1.1376    0.7308 C   0  0  0  0  0  0  0  0  0  0  0  0
   -1.5523    1.7425    0.1525 O   0  0  0  0  0  0  0  0  0  0  0  0
    0.0835    1.7759    1.7070 N   0  0  0  0  0  0  0  0  0  0  0  0
    0.9090    1.2736    2.0420 H   0  0  0  0  0  0  0  0  0  0  0  0
   -0.0589    3.1892    2.0277 C   0  0  0  0  0  0  0  0  0  0  0  0
   -1.0915    3.4149    2.3142 H   0  0  0  0  0  0  0  0  0  0  0  0
    0.5955    3.4532    2.8641 H   0  0  0  0  0  0  0  0  0  0  0  0
    0.2119    3.8066    1.1651 H   0  0  0  0  0  0  0  0  0  0  0  0
  1  2  1  0  0  0  0
  2  3  1  0  0  0  0
  2  4  1  0  0  0  0
  2  5  1  0  0  0  0
  5  6  2  0  0  0  0
  5  7  1  0  0  0  0
  7  8  1  0  0  0  0
  7  9  1  0  0  0  0
  9 10  1  0  0  0  0
  9 11  1  0  0  0  0
  9 22  1  0  0  0  0
 11 12  1  0  0  0  0
 11 13  1  0  0  0  0
 11 14  1  0  0  0  0
 14 15  1  0  0  0  0
 14 16  1  0  0  0  0
 14 17  1  0  0  0  0
 17 18  2  0  0  0  0
 17 19  1  0  0  0  0
 19 20  1  0  0  0  0
 19 21  1  0  0  0  0
 22 23  2  0  0  0  0
 22 24  1  0  0  0  0
 24 25  1  0  0  0  0
 24 26  1  0  0  0  0
 26 27  1  0  0  0  0
 26 28  1  0  0  0  0
 26 29  1  0  0  0  0
M  END
$$$$

  -OEChem-04042215583D

 29 28  0     1  0  0  0  0  0999 V2000
   -2.9774   -3.9164    1.2546 H   0  0  0  0  0  0  0  0  0  0  0  0
   -3.0467   -2.9055    0.8431 C   0  0  0  0  0  0  0  0  0  0  0  0
   -3.6916   -2.3057    1.4900 H   0  0  0  0  0  0  0  0  0  0  0  0
   -3.4915   -2.9604   -0.1534 H   0  0  0  0  0  0  0  0  0  0  0  0
   -1.6677   -2.2783    0.7614 C   0  0  0  0  0  0  0  0  0  0  0  0
   -0.6879   -2.9057    1.1319 O   0  0  0  0  0  0  0  0  0  0  0  0
   -1.5238   -1.0059    0.2499 N   0  0  0  0  0  0  0  0  0  0  0  0
   -2.3795   -0.4837    0.0611 H   0  0  0  0  0  0  0  0  0  0  0  0
   -0.2898   -0.2139    0.3482 C   0  0  1  0  0  0  0  0  0  0  0  0
    0.3766   -0.6150    1.1201 H   0  0  0  0  0  0  0  0  0  0  0  0
    0.4127   -0.2664   -1.0249 C   0  0  0  0  0  0  0  0  0  0  0  0
    0.8226   -1.2726   -1.1641 H   0  0  0  0  0  0  0  0  0  0  0  0
   -0.3398   -0.1090   -1.8053 H   0  0  0  0  0  0  0  0  0  0  0  0
    1.5294    0.7760   -1.2382 C   0  0  0  0  0  0  0  0  0  0  0  0
    1.9416    0.6593   -2.2441 H   0  0  0  0  0  0  0  0  0  0  0  0
    1.1216    1.7891   -1.1746 H   0  0  0  0  0  0  0  0  0  0  0  0
    2.6596    0.6318   -0.2212 C   0  0  0  0  0  0  0  0  0  0  0  0
    2.5824    1.0735    0.9107 O   0  0  0  0  0  0  0  0  0  0  0  0
    3.7923   -0.0750   -0.5053 N   0  0  0  0  0  0  0  0  0  0  0  0
    4.3920   -0.2941    0.2854 H   0  0  0  0  0  0  0  0  0  0  0  0
    3.8153   -0.6541   -1.3380 H   0  0  0  0  0  0  0  0  0  0  0  0
   -0.6945    1.2196    0.7693 C   0  0  0  0  0  0  0  0  0  0  0  0
   -1.7059    1.7228    0.2878 O   0  0  0  0  0  0  0  0  0  0  0  0
   -0.0040    1.8987    1.7533 N   0  0  0  0  0  0  0  0  0  0  0  0
    0.9423    1.5556    1.9391 H   0  0  0  0  0  0  0  0  0  0  0  0
   -0.3191    3.2684    2.1366 C   0  0  0  0  0  0  0  0  0  0  0  0
   -1.3571    3.3432    2.4773 H   0  0  0  0  0  0  0  0  0  0  0  0
    0.3343    3.5897    2.9535 H   0  0  0  0  0  0  0  0  0  0  0  0
   -0.1757    3.9461    1.2887 H   0  0  0  0  0  0  0  0  0  0  0  0
  1  2  1  0  0  0  0
  2  3  1  0  0  0  0
  2  4  1  0  0  0  0
  2  5  1  0  0  0  0
  5  6  2  0  0  0  0
  5  7  1  0  0  0  0
  7  8  1  0  0  0  0
  7  9  1  0  0  0  0
  9 10  1  0  0  0  0
  9 11  1  0  0  0  0
  9 22  1  0  0  0  0
 11 12  1  0  0  0  0
 11 13  1  0  0  0  0
 11 14  1  0  0  0  0
 14 15  1  0  0  0  0
 14 16  1  0  0  0  0
 14 17  1  0  0  0  0
 17 18  2  0  0  0  0
 17 19  1  0  0  0  0
 19 20  1  0  0  0  0
 19 21  1  0  0  0  0
 22 23  2  0  0  0  0
 22 24  1  0  0  0  0
 24 25  1  0  0  0  0
 24 26  1  0  0  0  0
 26 27  1  0  0  0  0
 26 28  1  0  0  0  0
 26 29  1  0  0  0  0
M  END
$$$$

  -OEChem-04042215583D

 29 28  0     1  0  0  0  0  0999 V2000
   -3.0370   -3.9263    1.2492 H   0  0  0  0  0  0  0  0  0  0  0  0
   -3.1045   -2.9238    0.8175 C   0  0  0  0  0  0  0  0  0  0  0  0
   -3.7692   -2.3175    1.4377 H   0  0  0  0  0  0  0  0  0  0  0  0
   -3.5246   -3.0006   -0.1881 H   0  0  0  0  0  0  0  0  0  0  0  0
   -1.7290   -2.2868    0.7568 C   0  0  0  0  0  0  0  0  0  0  0  0
   -0.7519   -2.9081    1.1432 O   0  0  0  0  0  0  0  0  0  0  0  0
   -1.5876   -1.0150    0.2417 N   0  0  0  0  0  0  0  0  0  0  0  0
   -2.4442   -0.5049    0.0292 H   0  0  0  0  0  0  0  0  0  0  0  0
   -0.3567   -0.2167    0.3271 C   0  0  1  0  0  0  0  0  0  0  0  0
    0.2833   -0.6174    1.1214 H   0  0  0  0  0  0  0  0  0  0  0  0
    0.4139   -0.3365   -1.0033 C   0  0  0  0  0  0  0  0  0  0  0  0
    0.8350   -1.3445   -1.0872 H   0  0  0  0  0  0  0  0  0  0  0  0
   -0.3032   -0.2121   -1.8217 H   0  0  0  0  0  0  0  0  0  0  0  0
    1.5216    0.7212   -1.1872 C   0  0  0  0  0  0  0  0  0  0  0  0
    1.8405    0.7132   -2.2328 H   0  0  0  0  0  0  0  0  0  0  0  0
    1.1665    1.7332   -0.9773 H   0  0  0  0  0  0  0  0  0  0  0  0
    2.7301    0.4001   -0.3188 C   0  0  0  0  0  0  0  0  0  0  0  0
    2.7336    0.6869    0.8657 O   0  0  0  0  0  0  0  0  0  0  0  0
    3.8274   -0.2563   -0.7979 N   0  0  0  0  0  0  0  0  0  0  0  0
    4.6179   -0.3604   -0.1681 H   0  0  0  0  0  0  0  0  0  0  0  0
    3.9257   -0.4277   -1.7929 H   0  0  0  0  0  0  0  0  0  0  0  0
   -0.6919    1.2302    0.7420 C   0  0  0  0  0  0  0  0  0  0  0  0
   -1.6822    1.7839    0.2753 O   0  0  0  0  0  0  0  0  0  0  0  0
    0.0648    1.8637    1.7088 N   0  0  0  0  0  0  0  0  0  0  0  0
    0.9694    1.4360    1.9215 H   0  0  0  0  0  0  0  0  0  0  0  0
   -0.1641    3.2416    2.1220 C   0  0  0  0  0  0  0  0  0  0  0  0
   -1.1867    3.3660    2.4934 H   0  0  0  0  0  0  0  0  0  0  0  0
    0.5282    3.5130    2.9248 H   0  0  0  0  0  0  0  0  0  0  0  0
   -0.0077    3.9251    1.2811 H   0  0  0  0  0  0  0  0  0  0  0  0
  1  2  1  0  0  0  0
  2  3  1  0  0  0  0
  2  4  1  0  0  0  0
  2  5  1  0  0  0  0
  5  6  2  0  0  0  0
  5  7  1  0  0  0  0
  7  8  1  0  0  0  0
  7  9  1  0  0  0  0
  9 10  1  0  0  0  0
  9 11  1  0  0  0  0
  9 22  1  0  0  0  0
 11 12  1  0  0  0  0
 11 13  1  0  0  0  0
 11 14  1  0  0  0  0
 14 15  1  0  0  0  0
 14 16  1  0  0  0  0
 14 17  1  0  0  0  0
 17 18  2  0  0  0  0
 17 19  1  0  0  0  0
 19 20  1  0  0  0  0
 19 21  1  0  0  0  0
 22 23  2  0  0  0  0
 22 24  1  0  0  0  0
 24 25  1  0  0  0  0
 24 26  1  0  0  0  0
 26 27  1  0  0  0  0
 26 28  1  0  0  0  0
 26 29  1  0  0  0  0
M  END
$$$$

  -OEChem-04042215583D

 29 28  0     1  0  0  0  0  0999 V2000
   -3.0604   -3.9086    1.1625 H   0  0  0  0  0  0  0  0  0  0  0  0
   -3.1101   -2.9004    0.7415 C   0  0  0  0  0  0  0  0  0  0  0  0
   -3.7936   -2.2998    1.3465 H   0  0  0  0  0  0  0  0  0  0  0  0
   -3.4960   -2.9628   -0.2787 H   0  0  0  0  0  0  0  0  0  0  0  0
   -1.7313   -2.2678    0.7357 C   0  0  0  0  0  0  0  0  0  0  0  0
   -0.7732   -2.8905    1.1642 O   0  0  0  0  0  0  0  0  0  0  0  0
   -1.5649   -0.9953    0.2299 N   0  0  0  0  0  0  0  0  0  0  0  0
   -2.4095   -0.4822   -0.0200 H   0  0  0  0  0  0  0  0  0  0  0  0
   -0.3308   -0.2060    0.3505 C   0  0  1  0  0  0  0  0  0  0  0  0
    0.2944   -0.6125    1.1535 H   0  0  0  0  0  0  0  0  0  0  0  0
    0.4589   -0.3304   -0.9683 C   0  0  0  0  0  0  0  0  0  0  0  0
    0.8578   -1.3471   -1.0601 H   0  0  0  0  0  0  0  0  0  0  0  0
   -0.2500   -0.1859   -1.7907 H   0  0  0  0  0  0  0  0  0  0  0  0
    1.5846    0.7115   -1.1449 C   0  0  0  0  0  0  0  0  0  0  0  0
    1.7374    0.8784   -2.2146 H   0  0  0  0  0  0  0  0  0  0  0  0
    1.3430    1.6841   -0.7122 H   0  0  0  0  0  0  0  0  0  0  0  0
    2.8908    0.1931   -0.5651 C   0  0  0  0  0  0  0  0  0  0  0  0
    3.1342    0.3384    0.6185 O   0  0  0  0  0  0  0  0  0  0  0  0
    3.8120   -0.4861   -1.3104 N   0  0  0  0  0  0  0  0  0  0  0  0
    4.6894   -0.7252   -0.8573 H   0  0  0  0  0  0  0  0  0  0  0  0
    3.7103   -0.5454   -2.3179 H   0  0  0  0  0  0  0  0  0  0  0  0
   -0.6764    1.2389    0.7617 C   0  0  0  0  0  0  0  0  0  0  0  0
   -1.6394    1.8041    0.2547 O   0  0  0  0  0  0  0  0  0  0  0  0
    0.0512    1.8704    1.7528 N   0  0  0  0  0  0  0  0  0  0  0  0
    0.8921    1.3986    2.0838 H   0  0  0  0  0  0  0  0  0  0  0  0
   -0.2122    3.2334    2.1951 C   0  0  0  0  0  0  0  0  0  0  0  0
   -1.2248    3.3139    2.6041 H   0  0  0  0  0  0  0  0  0  0  0  0
    0.4986    3.5212    2.9759 H   0  0  0  0  0  0  0  0  0  0  0  0
   -0.1120    3.9340    1.3597 H   0  0  0  0  0  0  0  0  0  0  0  0
  1  2  1  0  0  0  0
  2  3  1  0  0  0  0
  2  4  1  0  0  0  0
  2  5  1  0  0  0  0
  5  6  2  0  0  0  0
  5  7  1  0  0  0  0
  7  8  1  0  0  0  0
  7  9  1  0  0  0  0
  9 10  1  0  0  0  0
  9 11  1  0  0  0  0
  9 22  1  0  0  0  0
 11 12  1  0  0  0  0
 11 13  1  0  0  0  0
 11 14  1  0  0  0  0
 14 15  1  0  0  0  0
 14 16  1  0  0  0  0
 14 17  1  0  0  0  0
 17 18  2  0  0  0  0
 17 19  1  0  0  0  0
 19 20  1  0  0  0  0
 19 21  1  0  0  0  0
 22 23  2  0  0  0  0
 22 24  1  0  0  0  0
 24 25  1  0  0  0  0
 24 26  1  0  0  0  0
 26 27  1  0  0  0  0
 26 28  1  0  0  0  0
 26 29  1  0  0  0  0
M  END
$$$$

  -OEChem-04042215583D

 29 28  0     1  0  0  0  0  0999 V2000
   -3.1364   -3.8618    1.0872 H   0  0  0  0  0  0  0  0  0  0  0  0
   -3.1441   -2.8563    0.6573 C   0  0  0  0  0  0  0  0  0  0  0  0
   -3.8526   -2.2399    1.2158 H   0  0  0  0  0  0  0  0  0  0  0  0
   -3.4692   -2.9207   -0.3838 H   0  0  0  0  0  0  0  0  0  0  0  0
   -1.7570   -2.2458    0.7302 C   0  0  0  0  0  0  0  0  0  0  0  0
   -0.8378   -2.8770    1.2257 O   0  0  0  0  0  0  0  0  0  0  0  0
   -1.5408   -0.9784    0.2304 N   0  0  0  0  0  0  0  0  0  0  0  0
   -2.3592   -0.4540   -0.0768 H   0  0  0  0  0  0  0  0  0  0  0  0
   -0.2941   -0.2169    0.3958 C   0  0  1  0  0  0  0  0  0  0  0  0
    0.3110   -0.6369    1.2069 H   0  0  0  0  0  0  0  0  0  0  0  0
    0.5035   -0.3345   -0.9199 C   0  0  0  0  0  0  0  0  0  0  0  0
    0.8720   -1.3616   -1.0232 H   0  0  0  0  0  0  0  0  0  0  0  0
   -0.1958   -0.1615   -1.7453 H   0  0  0  0  0  0  0  0  0  0  0  0
    1.6632    0.6759   -1.0845 C   0  0  0  0  0  0  0  0  0  0  0  0
    1.6432    1.0732   -2.1029 H   0  0  0  0  0  0  0  0  0  0  0  0
    1.5819    1.5324   -0.4134 H   0  0  0  0  0  0  0  0  0  0  0  0
    3.0101    0.0028   -0.8664 C   0  0  0  0  0  0  0  0  0  0  0  0
    3.5188   -0.0277    0.2374 O   0  0  0  0  0  0  0  0  0  0  0  0
    3.6942   -0.6120   -1.8761 N   0  0  0  0  0  0  0  0  0  0  0  0
    4.6364   -0.9269   -1.6623 H   0  0  0  0  0  0  0  0  0  0  0  0
    3.3947   -0.4860   -2.8368 H   0  0  0  0  0  0  0  0  0  0  0  0
   -0.6461    1.2316    0.7924 C   0  0  0  0  0  0  0  0  0  0  0  0
   -1.5636    1.8138    0.2239 O   0  0  0  0  0  0  0  0  0  0  0  0
    0.0401    1.8636    1.8123 N   0  0  0  0  0  0  0  0  0  0  0  0
    0.8070    1.3553    2.2477 H   0  0  0  0  0  0  0  0  0  0  0  0
   -0.2418    3.2255    2.2469 C   0  0  0  0  0  0  0  0  0  0  0  0
   -1.2663    3.3020    2.6259 H   0  0  0  0  0  0  0  0  0  0  0  0
    0.4455    3.5166    3.0473 H   0  0  0  0  0  0  0  0  0  0  0  0
   -0.1198    3.9268    1.4148 H   0  0  0  0  0  0  0  0  0  0  0  0
  1  2  1  0  0  0  0
  2  3  1  0  0  0  0
  2  4  1  0  0  0  0
  2  5  1  0  0  0  0
  5  6  2  0  0  0  0
  5  7  1  0  0  0  0
  7  8  1  0  0  0  0
  7  9  1  0  0  0  0
  9 10  1  0  0  0  0
  9 11  1  0  0  0  0
  9 22  1  0  0  0  0
 11 12  1  0  0  0  0
 11 13  1  0  0  0  0
 11 14  1  0  0  0  0
 14 15  1  0  0  0  0
 14 16  1  0  0  0  0
 14 17  1  0  0  0  0
 17 18  2  0  0  0  0
 17 19  1  0  0  0  0
 19 20  1  0  0  0  0
 19 21  1  0  0  0  0
 22 23  2  0  0  0  0
 22 24  1  0  0  0  0
 24 25  1  0  0  0  0
 24 26  1  0  0  0  0
 26 27  1  0  0  0  0
 26 28  1  0  0  0  0
 26 29  1  0  0  0  0
M  END
$$$$

  -OEChem-04042215583D

 29 28  0     1  0  0  0  0  0999 V2000
   -3.1608   -3.8280    0.9836 H   0  0  0  0  0  0  0  0  0  0  0  0
   -3.1479   -2.8157    0.5698 C   0  0  0  0  0  0  0  0  0  0  0  0
   -3.8615   -2.2000    1.1227 H   0  0  0  0  0  0  0  0  0  0  0  0
   -3.4512   -2.8605   -0.4791 H   0  0  0  0  0  0  0  0  0  0  0  0
   -1.7560   -2.2228    0.6837 C   0  0  0  0  0  0  0  0  0  0  0  0
   -0.8573   -2.8691    1.1971 O   0  0  0  0  0  0  0  0  0  0  0  0
   -1.5089   -0.9551    0.1997 N   0  0  0  0  0  0  0  0  0  0  0  0
   -2.3118   -0.4144   -0.1204 H   0  0  0  0  0  0  0  0  0  0  0  0
   -0.2548   -0.2163    0.4047 C   0  0  1  0  0  0  0  0  0  0  0  0
    0.3317   -0.6537    1.2200 H   0  0  0  0  0  0  0  0  0  0  0  0
    0.5546   -0.3187   -0.9041 C   0  0  0  0  0  0  0  0  0  0  0  0
    0.9161   -1.3491   -0.9997 H   0  0  0  0  0  0  0  0  0  0  0  0
   -0.1233   -0.1371   -1.7453 H   0  0  0  0  0  0  0  0  0  0  0  0
    1.7318    0.6769   -1.0281 C   0  0  0  0  0  0  0  0  0  0  0  0
    1.5744    1.3239   -1.8955 H   0  0  0  0  0  0  0  0  0  0  0  0
    1.8121    1.3251   -0.1532 H   0  0  0  0  0  0  0  0  0  0  0  0
    3.0610   -0.0490   -1.1836 C   0  0  0  0  0  0  0  0  0  0  0  0
    3.7924   -0.2379   -0.2314 O   0  0  0  0  0  0  0  0  0  0  0  0
    3.4813   -0.5457   -2.3845 N   0  0  0  0  0  0  0  0  0  0  0  0
    4.2882   -1.1627   -2.3557 H   0  0  0  0  0  0  0  0  0  0  0  0
    2.8268   -0.5920   -3.1580 H   0  0  0  0  0  0  0  0  0  0  0  0
   -0.6014    1.2342    0.8045 C   0  0  0  0  0  0  0  0  0  0  0  0
   -1.4938    1.8308    0.2118 O   0  0  0  0  0  0  0  0  0  0  0  0
    0.0592    1.8555    1.8482 N   0  0  0  0  0  0  0  0  0  0  0  0
    0.7808    1.3256    2.3313 H   0  0  0  0  0  0  0  0  0  0  0  0
   -0.2407    3.2101    2.2954 C   0  0  0  0  0  0  0  0  0  0  0  0
   -1.2711    3.2733    2.6610 H   0  0  0  0  0  0  0  0  0  0  0  0
    0.4333    3.4972    3.1085 H   0  0  0  0  0  0  0  0  0  0  0  0
   -0.1132    3.9229    1.4737 H   0  0  0  0  0  0  0  0  0  0  0  0
  1  2  1  0  0  0  0
  2  3  1  0  0  0  0
  2  4  1  0  0  0  0
  2  5  1  0  0  0  0
  5  6  2  0  0  0  0
  5  7  1  0  0  0  0
  7  8  1  0  0  0  0
  7  9  1  0  0  0  0
  9 10  1  0  0  0  0
  9 11  1  0  0  0  0
  9 22  1  0  0  0  0
 11 12  1  0  0  0  0
 11 13  1  0  0  0  0
 11 14  1  0  0  0  0
 14 15  1  0  0  0  0
 14 16  1  0  0  0  0
 14 17  1  0  0  0  0
 17 18  2  0  0  0  0
 17 19  1  0  0  0  0
 19 20  1  0  0  0  0
 19 21  1  0  0  0  0
 22 23  2  0  0  0  0
 22 24  1  0  0  0  0
 24 25  1  0  0  0  0
 24 26  1  0  0  0  0
 26 27  1  0  0  0  0
 26 28  1  0  0  0  0
 26 29  1  0  0  0  0
M  END
$$$$

  -OEChem-04042215583D

 29 28  0     1  0  0  0  0  0999 V2000
   -3.2701   -3.8008    1.4189 H   0  0  0  0  0  0  0  0  0  0  0  0
   -3.2594   -2.8353    0.9052 C   0  0  0  0  0  0  0  0  0  0  0  0
   -3.9664   -2.1648    1.3997 H   0  0  0  0  0  0  0  0  0  0  0  0
   -3.5725   -2.9843   -0.1311 H   0  0  0  0  0  0  0  0  0  0  0  0
   -1.8655   -2.2382    0.9436 C   0  0  0  0  0  0  0  0  0  0  0  0
   -0.9647   -2.8259    1.5210 O   0  0  0  0  0  0  0  0  0  0  0  0
   -1.6239   -1.0218    0.3397 N   0  0  0  0  0  0  0  0  0  0  0  0
   -2.4206   -0.5222   -0.0526 H   0  0  0  0  0  0  0  0  0  0  0  0
   -0.3321   -0.3223    0.3561 C   0  0  1  0  0  0  0  0  0  0  0  0
    0.3306   -0.7284    1.1276 H   0  0  0  0  0  0  0  0  0  0  0  0
    0.3123   -0.5296   -1.0303 C   0  0  0  0  0  0  0  0  0  0  0  0
    0.6374   -1.5750   -1.0798 H   0  0  0  0  0  0  0  0  0  0  0  0
   -0.4416   -0.3915   -1.8132 H   0  0  0  0  0  0  0  0  0  0  0  0
    1.4987    0.4188   -1.3348 C   0  0  0  0  0  0  0  0  0  0  0  0
    1.1656    1.2223   -1.9976 H   0  0  0  0  0  0  0  0  0  0  0  0
    1.8539    0.8775   -0.4094 H   0  0  0  0  0  0  0  0  0  0  0  0
    2.7031   -0.2854   -1.9587 C   0  0  0  0  0  0  0  0  0  0  0  0
    2.6111   -1.2929   -2.6335 O   0  0  0  0  0  0  0  0  0  0  0  0
    3.9665    0.2148   -1.8242 N   0  0  0  0  0  0  0  0  0  0  0  0
    4.6731   -0.2079   -2.4198 H   0  0  0  0  0  0  0  0  0  0  0  0
    4.0864    1.1622   -1.4831 H   0  0  0  0  0  0  0  0  0  0  0  0
   -0.5785    1.1682    0.6740 C   0  0  0  0  0  0  0  0  0  0  0  0
   -1.4762    1.7768    0.1027 O   0  0  0  0  0  0  0  0  0  0  0  0
    0.2156    1.8302    1.5931 N   0  0  0  0  0  0  0  0  0  0  0  0
    0.8747    1.2704    2.1272 H   0  0  0  0  0  0  0  0  0  0  0  0
   -0.0068    3.2166    1.9854 C   0  0  0  0  0  0  0  0  0  0  0  0
   -0.9775    3.3228    2.4809 H   0  0  0  0  0  0  0  0  0  0  0  0
    0.7748    3.5436    2.6779 H   0  0  0  0  0  0  0  0  0  0  0  0
    0.0148    3.8722    1.1084 H   0  0  0  0  0  0  0  0  0  0  0  0
  1  2  1  0  0  0  0
  2  3  1  0  0  0  0
  2  4  1  0  0  0  0
  2  5  1  0  0  0  0
  5  6  2  0  0  0  0
  5  7  1  0  0  0  0
  7  8  1  0  0  0  0
  7  9  1  0  0  0  0
  9 10  1  0  0  0  0
  9 11  1  0  0  0  0
  9 22  1  0  0  0  0
 11 12  1  0  0  0  0
 11 13  1  0  0  0  0
 11 14  1  0  0  0  0
 14 15  1  0  0  0  0
 14 16  1  0  0  0  0
 14 17  1  0  0  0  0
 17 18  2  0  0  0  0
 17 19  1  0  0  0  0
 19 20  1  0  0  0  0
 19 21  1  0  0  0  0
 22 23  2  0  0  0  0
 22 24  1  0  0  0  0
 24 25  1  0  0  0  0
 24 26  1  0  0  0  0
 26 27  1  0  0  0  0
 26 28  1  0  0  0  0
 26 29  1  0  0  0  0
M  END
$$$$

  -OEChem-04042215583D

 29 28  0     1  0  0  0  0  0999 V2000
   -3.3184   -3.7823    1.4168 H   0  0  0  0  0  0  0  0  0  0  0  0
   -3.2937   -2.8237    0.8908 C   0  0  0  0  0  0  0  0  0  0  0  0
   -3.9960   -2.1391    1.3726 H   0  0  0  0  0  0  0  0  0  0  0  0
   -3.6030   -2.9827   -0.1450 H   0  0  0  0  0  0  0  0  0  0  0  0
   -1.8927   -2.2426    0.9297 C   0  0  0  0  0  0  0  0  0  0  0  0
   -0.9996   -2.8404    1.5087 O   0  0  0  0  0  0  0  0  0  0  0  0
   -1.6366   -1.0280    0.3279 N   0  0  0  0  0  0  0  0  0  0  0  0
   -2.4270   -0.5208   -0.0674 H   0  0  0  0  0  0  0  0  0  0  0  0
   -0.3408   -0.3363    0.3576 C   0  0  1  0  0  0  0  0  0  0  0  0
    0.3069   -0.7478    1.1388 H   0  0  0  0  0  0  0  0  0  0  0  0
    0.3265   -0.5460   -1.0160 C   0  0  0  0  0  0  0  0  0  0  0  0
    0.6638   -1.5881   -1.0549 H   0  0  0  0  0  0  0  0  0  0  0  0
   -0.4084   -0.4115   -1.8174 H   0  0  0  0  0  0  0  0  0  0  0  0
    1.5157    0.4061   -1.2794 C   0  0  0  0  0  0  0  0  0  0  0  0
    1.1498    1.3424   -1.7108 H   0  0  0  0  0  0  0  0  0  0  0  0
    2.0078    0.6403   -0.3317 H   0  0  0  0  0  0  0  0  0  0  0  0
    2.5865   -0.1886   -2.1930 C   0  0  0  0  0  0  0  0  0  0  0  0
    2.4101   -1.1776   -2.8787 O   0  0  0  0  0  0  0  0  0  0  0  0
    3.8134    0.3980   -2.3165 N   0  0  0  0  0  0  0  0  0  0  0  0
    4.3933    0.0511   -3.0754 H   0  0  0  0  0  0  0  0  0  0  0  0
    3.9463    1.3387   -1.9615 H   0  0  0  0  0  0  0  0  0  0  0  0
   -0.5693    1.1576    0.6712 C   0  0  0  0  0  0  0  0  0  0  0  0
   -1.4576    1.7757    0.0958 O   0  0  0  0  0  0  0  0  0  0  0  0
    0.2255    1.8103    1.5961 N   0  0  0  0  0  0  0  0  0  0  0  0
    0.8766    1.2434    2.1323 H   0  0  0  0  0  0  0  0  0  0  0  0
    0.0089    3.1960    1.9942 C   0  0  0  0  0  0  0  0  0  0  0  0
   -0.9598    3.3038    2.4933 H   0  0  0  0  0  0  0  0  0  0  0  0
    0.7935    3.5176    2.6856 H   0  0  0  0  0  0  0  0  0  0  0  0
    0.0302    3.8551    1.1199 H   0  0  0  0  0  0  0  0  0  0  0  0
  1  2  1  0  0  0  0
  2  3  1  0  0  0  0
  2  4  1  0  0  0  0
  2  5  1  0  0  0  0
  5  6  2  0  0  0  0
  5  7  1  0  0  0  0
  7  8  1  0  0  0  0
  7  9  1  0  0  0  0
  9 10  1  0  0  0  0
  9 11  1  0  0  0  0
  9 22  1  0  0  0  0
 11 12  1  0  0  0  0
 11 13  1  0  0  0  0
 11 14  1  0  0  0  0
 14 15  1  0  0  0  0
 14 16  1  0  0  0  0
 14 17  1  0  0  0  0
 17 18  2  0  0  0  0
 17 19  1  0  0  0  0
 19 20  1  0  0  0  0
 19 21  1  0  0  0  0
 22 23  2  0  0  0  0
 22 24  1  0  0  0  0
 24 25  1  0  0  0  0
 24 26  1  0  0  0  0
 26 27  1  0  0  0  0
 26 28  1  0  0  0  0
 26 29  1  0  0  0  0
M  END
$$$$

  -OEChem-04042215583D

 29 28  0     1  0  0  0  0  0999 V2000
   -3.3575   -3.7654    1.3900 H   0  0  0  0  0  0  0  0  0  0  0  0
   -3.3127   -2.8146    0.8517 C   0  0  0  0  0  0  0  0  0  0  0  0
   -4.0265   -2.1206    1.3021 H   0  0  0  0  0  0  0  0  0  0  0  0
   -3.5905   -2.9871   -0.1909 H   0  0  0  0  0  0  0  0  0  0  0  0
   -1.9114   -2.2378    0.9250 C   0  0  0  0  0  0  0  0  0  0  0  0
   -1.0328   -2.8396    1.5223 O   0  0  0  0  0  0  0  0  0  0  0  0
   -1.6388   -1.0244    0.3283 N   0  0  0  0  0  0  0  0  0  0  0  0
   -2.4181   -0.5176   -0.0890 H   0  0  0  0  0  0  0  0  0  0  0  0
   -0.3393   -0.3414    0.3753 C   0  0  1  0  0  0  0  0  0  0  0  0
    0.2931   -0.7578    1.1664 H   0  0  0  0  0  0  0  0  0  0  0  0
    0.3488   -0.5625   -0.9864 C   0  0  0  0  0  0  0  0  0  0  0  0
    0.6834   -1.6057   -1.0261 H   0  0  0  0  0  0  0  0  0  0  0  0
   -0.3749   -0.4196   -1.7968 H   0  0  0  0  0  0  0  0  0  0  0  0
    1.5462    0.3808   -1.2323 C   0  0  0  0  0  0  0  0  0  0  0  0
    1.1832    1.3915   -1.4401 H   0  0  0  0  0  0  0  0  0  0  0  0
    2.1670    0.4188   -0.3330 H   0  0  0  0  0  0  0  0  0  0  0  0
    2.4375   -0.0653   -2.3903 C   0  0  0  0  0  0  0  0  0  0  0  0
    2.2160   -1.0513   -3.0674 O   0  0  0  0  0  0  0  0  0  0  0  0
    3.5373    0.6587   -2.7515 N   0  0  0  0  0  0  0  0  0  0  0  0
    3.9620    0.4026   -3.6382 H   0  0  0  0  0  0  0  0  0  0  0  0
    3.6502    1.5969   -2.3835 H   0  0  0  0  0  0  0  0  0  0  0  0
   -0.5574    1.1537    0.6875 C   0  0  0  0  0  0  0  0  0  0  0  0
   -1.4289    1.7824    0.0981 O   0  0  0  0  0  0  0  0  0  0  0  0
    0.2320    1.7981    1.6224 N   0  0  0  0  0  0  0  0  0  0  0  0
    0.8757    1.2265    2.1625 H   0  0  0  0  0  0  0  0  0  0  0  0
    0.0302    3.1885    2.0121 C   0  0  0  0  0  0  0  0  0  0  0  0
   -0.9733    3.3282    2.4277 H   0  0  0  0  0  0  0  0  0  0  0  0
    0.7628    3.4789    2.7714 H   0  0  0  0  0  0  0  0  0  0  0  0
    0.1486    3.8502    1.1476 H   0  0  0  0  0  0  0  0  0  0  0  0
  1  2  1  0  0  0  0
  2  3  1  0  0  0  0
  2  4  1  0  0  0  0
  2  5  1  0  0  0  0
  5  6  2  0  0  0  0
  5  7  1  0  0  0  0
  7  8  1  0  0  0  0
  7  9  1  0  0  0  0
  9 10  1  0  0  0  0
  9 11  1  0  0  0  0
  9 22  1  0  0  0  0
 11 12  1  0  0  0  0
 11 13  1  0  0  0  0
 11 14  1  0  0  0  0
 14 15  1  0  0  0  0
 14 16  1  0  0  0  0
 14 17  1  0  0  0  0
 17 18  2  0  0  0  0
 17 19  1  0  0  0  0
 19 20  1  0  0  0  0
 19 21  1  0  0  0  0
 22 23  2  0  0  0  0
 22 24  1  0  0  0  0
 24 25  1  0  0  0  0
 24 26  1  0  0  0  0
 26 27  1  0  0  0  0
 26 28  1  0  0  0  0
 26 29  1  0  0  0  0
M  END
$$$$
