default_name
  -OEChem-02102213163D

 29 28  0     1  0  0  0  0  0999 V2000
   -3.3998   -3.6239    1.3678 H   0  0  0  0  0  0  0  0  0  0  0  0
   -3.3608   -2.6749    0.8348 C   0  0  0  0  0  0  0  0  0  0  0  0
   -4.0988   -1.9909    1.2498 H   0  0  0  0  0  0  0  0  0  0  0  0
   -3.5618   -2.8419   -0.2222 H   0  0  0  0  0  0  0  0  0  0  0  0
   -1.9818   -2.0809    0.9918 C   0  0  0  0  0  0  0  0  0  0  0  0
   -1.1288   -2.6669    1.6468 O   0  0  0  0  0  0  0  0  0  0  0  0
   -1.7648   -0.9089    0.3998 N   0  0  0  0  0  0  0  0  0  0  0  0
   -2.5238   -0.4719   -0.1032 H   0  0  0  0  0  0  0  0  0  0  0  0
   -0.4848   -0.1959    0.4138 C   0  0  1  0  0  0  0  0  0  0  0  0
    0.2783   -0.8411   -0.0248 H   0  0  0  0  0  0  0  0  0  0  0  0
   -0.6101    1.0666   -0.4611 C   0  0  0  0  0  0  0  0  0  0  0  0
   -0.8724    0.7571   -1.4750 H   0  0  0  0  0  0  0  0  0  0  0  0
   -1.4185    1.6892   -0.0747 H   0  0  0  0  0  0  0  0  0  0  0  0
    0.6766    1.9075   -0.5284 C   0  0  0  0  0  0  0  0  0  0  0  0
    0.9588    2.2276    0.4744 H   0  0  0  0  0  0  0  0  0  0  0  0
    1.4794    1.2937   -0.9368 H   0  0  0  0  0  0  0  0  0  0  0  0
    0.5347    3.1553   -1.3999 C   0  0  0  0  0  0  0  0  0  0  0  0
   -0.4686    3.4160   -2.0370 O   0  0  0  0  0  0  0  0  0  0  0  0
    1.5450    3.9955   -1.4593 N   0  0  0  0  0  0  0  0  0  0  0  0
    1.3972    4.7984   -2.0457 H   0  0  0  0  0  0  0  0  0  0  0  0
    2.3917    3.8309   -0.9535 H   0  0  0  0  0  0  0  0  0  0  0  0
   -0.0637    0.1284    1.8555 C   0  0  0  0  0  0  0  0  0  0  0  0
    1.0918   -0.0745    2.2236 O   0  0  0  0  0  0  0  0  0  0  0  0
   -1.0024    0.6217    2.6735 N   0  0  0  0  0  0  0  0  0  0  0  0
   -1.9213    0.7848    2.2938 H   0  0  0  0  0  0  0  0  0  0  0  0
   -0.7639    0.9676    4.0741 C   0  0  0  0  0  0  0  0  0  0  0  0
    0.0520    1.6916    4.1400 H   0  0  0  0  0  0  0  0  0  0  0  0
   -1.6626    1.3984    4.5182 H   0  0  0  0  0  0  0  0  0  0  0  0
   -0.4775    0.0737    4.6309 H   0  0  0  0  0  0  0  0  0  0  0  0
  5  6  2  0  0  0  0
  5  7  1  0  0  0  0
  2  3  1  0  0  0  0
  2  4  1  0  0  0  0
  2  5  1  0  0  0  0
  1  2  1  0  0  0  0
 22 23  2  0  0  0  0
 22 24  1  0  0  0  0
 19 20  1  0  0  0  0
 19 21  1  0  0  0  0
 17 18  2  0  0  0  0
 17 19  1  0  0  0  0
 14 15  1  0  0  0  0
 14 16  1  0  0  0  0
 14 17  1  0  0  0  0
 11 12  1  0  0  0  0
 11 13  1  0  0  0  0
 11 14  1  0  0  0  0
  9 10  1  0  0  0  0
  9 11  1  0  0  0  0
  9 22  1  0  0  0  0
  7  8  1  0  0  0  0
  7  9  1  0  0  0  0
 26 27  1  0  0  0  0
 26 28  1  0  0  0  0
 26 29  1  0  0  0  0
 24 25  1  0  0  0  0
 24 26  1  0  0  0  0
M  END
$$$$
default_name
  -OEChem-02102213163D

 29 28  0     1  0  0  0  0  0999 V2000
   -3.3998   -3.6239    1.3678 H   0  0  0  0  0  0  0  0  0  0  0  0
   -3.3608   -2.6749    0.8348 C   0  0  0  0  0  0  0  0  0  0  0  0
   -4.0988   -1.9909    1.2498 H   0  0  0  0  0  0  0  0  0  0  0  0
   -3.5618   -2.8419   -0.2222 H   0  0  0  0  0  0  0  0  0  0  0  0
   -1.9818   -2.0809    0.9918 C   0  0  0  0  0  0  0  0  0  0  0  0
   -1.1288   -2.6669    1.6468 O   0  0  0  0  0  0  0  0  0  0  0  0
   -1.7648   -0.9089    0.3998 N   0  0  0  0  0  0  0  0  0  0  0  0
   -2.5238   -0.4719   -0.1032 H   0  0  0  0  0  0  0  0  0  0  0  0
   -0.4848   -0.1959    0.4138 C   0  0  1  0  0  0  0  0  0  0  0  0
    0.2783   -0.8411   -0.0248 H   0  0  0  0  0  0  0  0  0  0  0  0
   -0.6101    1.0666   -0.4611 C   0  0  0  0  0  0  0  0  0  0  0  0
   -0.8724    0.7571   -1.4750 H   0  0  0  0  0  0  0  0  0  0  0  0
   -1.4185    1.6892   -0.0747 H   0  0  0  0  0  0  0  0  0  0  0  0
    0.6766    1.9075   -0.5284 C   0  0  0  0  0  0  0  0  0  0  0  0
    1.1051    2.0033    0.4690 H   0  0  0  0  0  0  0  0  0  0  0  0
    1.3974    1.4005   -1.1698 H   0  0  0  0  0  0  0  0  0  0  0  0
    0.4475    3.3143   -1.0809 C   0  0  0  0  0  0  0  0  0  0  0  0
   -0.6278    3.7028   -1.4970 O   0  0  0  0  0  0  0  0  0  0  0  0
    1.4618    4.1516   -1.1013 N   0  0  0  0  0  0  0  0  0  0  0  0
    1.2548    5.0621   -1.4736 H   0  0  0  0  0  0  0  0  0  0  0  0
    2.3663    3.8846   -0.7690 H   0  0  0  0  0  0  0  0  0  0  0  0
   -0.0637    0.1284    1.8555 C   0  0  0  0  0  0  0  0  0  0  0  0
    1.0918   -0.0745    2.2236 O   0  0  0  0  0  0  0  0  0  0  0  0
   -1.0024    0.6217    2.6735 N   0  0  0  0  0  0  0  0  0  0  0  0
   -1.9213    0.7848    2.2938 H   0  0  0  0  0  0  0  0  0  0  0  0
   -0.7639    0.9676    4.0741 C   0  0  0  0  0  0  0  0  0  0  0  0
    0.0520    1.6916    4.1400 H   0  0  0  0  0  0  0  0  0  0  0  0
   -1.6626    1.3984    4.5182 H   0  0  0  0  0  0  0  0  0  0  0  0
   -0.4775    0.0737    4.6309 H   0  0  0  0  0  0  0  0  0  0  0  0
  5  6  2  0  0  0  0
  5  7  1  0  0  0  0
  2  3  1  0  0  0  0
  2  4  1  0  0  0  0
  2  5  1  0  0  0  0
  1  2  1  0  0  0  0
 22 23  2  0  0  0  0
 22 24  1  0  0  0  0
 19 20  1  0  0  0  0
 19 21  1  0  0  0  0
 17 18  2  0  0  0  0
 17 19  1  0  0  0  0
 14 15  1  0  0  0  0
 14 16  1  0  0  0  0
 14 17  1  0  0  0  0
 11 12  1  0  0  0  0
 11 13  1  0  0  0  0
 11 14  1  0  0  0  0
  9 10  1  0  0  0  0
  9 11  1  0  0  0  0
  9 22  1  0  0  0  0
  7  8  1  0  0  0  0
  7  9  1  0  0  0  0
 26 27  1  0  0  0  0
 26 28  1  0  0  0  0
 26 29  1  0  0  0  0
 24 25  1  0  0  0  0
 24 26  1  0  0  0  0
M  END
$$$$
default_name
  -OEChem-02102213163D

 29 28  0     1  0  0  0  0  0999 V2000
   -3.3998   -3.6239    1.3678 H   0  0  0  0  0  0  0  0  0  0  0  0
   -3.3608   -2.6749    0.8348 C   0  0  0  0  0  0  0  0  0  0  0  0
   -4.0988   -1.9909    1.2498 H   0  0  0  0  0  0  0  0  0  0  0  0
   -3.5618   -2.8419   -0.2222 H   0  0  0  0  0  0  0  0  0  0  0  0
   -1.9818   -2.0809    0.9918 C   0  0  0  0  0  0  0  0  0  0  0  0
   -1.1288   -2.6669    1.6468 O   0  0  0  0  0  0  0  0  0  0  0  0
   -1.7648   -0.9089    0.3998 N   0  0  0  0  0  0  0  0  0  0  0  0
   -2.5238   -0.4719   -0.1032 H   0  0  0  0  0  0  0  0  0  0  0  0
   -0.4848   -0.1959    0.4138 C   0  0  1  0  0  0  0  0  0  0  0  0
    0.2783   -0.8411   -0.0248 H   0  0  0  0  0  0  0  0  0  0  0  0
   -0.6101    1.0666   -0.4611 C   0  0  0  0  0  0  0  0  0  0  0  0
   -0.8724    0.7571   -1.4750 H   0  0  0  0  0  0  0  0  0  0  0  0
   -1.4185    1.6892   -0.0747 H   0  0  0  0  0  0  0  0  0  0  0  0
    0.6766    1.9075   -0.5284 C   0  0  0  0  0  0  0  0  0  0  0  0
    1.2432    1.7861    0.3946 H   0  0  0  0  0  0  0  0  0  0  0  0
    1.2865    1.5550   -1.3602 H   0  0  0  0  0  0  0  0  0  0  0  0
    0.4103    3.3997   -0.7261 C   0  0  0  0  0  0  0  0  0  0  0  0
   -0.7020    3.8648   -0.8908 O   0  0  0  0  0  0  0  0  0  0  0  0
    1.4338    4.2258   -0.7099 N   0  0  0  0  0  0  0  0  0  0  0  0
    1.2012    5.1945   -0.8437 H   0  0  0  0  0  0  0  0  0  0  0  0
    2.3684    3.8968   -0.5756 H   0  0  0  0  0  0  0  0  0  0  0  0
   -0.0637    0.1284    1.8555 C   0  0  0  0  0  0  0  0  0  0  0  0
    1.0918   -0.0745    2.2236 O   0  0  0  0  0  0  0  0  0  0  0  0
   -1.0024    0.6217    2.6735 N   0  0  0  0  0  0  0  0  0  0  0  0
   -1.9213    0.7848    2.2938 H   0  0  0  0  0  0  0  0  0  0  0  0
   -0.7639    0.9676    4.0741 C   0  0  0  0  0  0  0  0  0  0  0  0
    0.0520    1.6916    4.1400 H   0  0  0  0  0  0  0  0  0  0  0  0
   -1.6626    1.3984    4.5182 H   0  0  0  0  0  0  0  0  0  0  0  0
   -0.4775    0.0737    4.6309 H   0  0  0  0  0  0  0  0  0  0  0  0
  5  6  2  0  0  0  0
  5  7  1  0  0  0  0
  2  3  1  0  0  0  0
  2  4  1  0  0  0  0
  2  5  1  0  0  0  0
  1  2  1  0  0  0  0
 22 23  2  0  0  0  0
 22 24  1  0  0  0  0
 19 20  1  0  0  0  0
 19 21  1  0  0  0  0
 17 18  2  0  0  0  0
 17 19  1  0  0  0  0
 14 15  1  0  0  0  0
 14 16  1  0  0  0  0
 14 17  1  0  0  0  0
 11 12  1  0  0  0  0
 11 13  1  0  0  0  0
 11 14  1  0  0  0  0
  9 10  1  0  0  0  0
  9 11  1  0  0  0  0
  9 22  1  0  0  0  0
  7  8  1  0  0  0  0
  7  9  1  0  0  0  0
 26 27  1  0  0  0  0
 26 28  1  0  0  0  0
 26 29  1  0  0  0  0
 24 25  1  0  0  0  0
 24 26  1  0  0  0  0
M  END
$$$$
default_name
  -OEChem-02102213163D

 29 28  0     1  0  0  0  0  0999 V2000
   -3.3998   -3.6239    1.3678 H   0  0  0  0  0  0  0  0  0  0  0  0
   -3.3608   -2.6749    0.8348 C   0  0  0  0  0  0  0  0  0  0  0  0
   -4.0988   -1.9909    1.2498 H   0  0  0  0  0  0  0  0  0  0  0  0
   -3.5618   -2.8419   -0.2222 H   0  0  0  0  0  0  0  0  0  0  0  0
   -1.9818   -2.0809    0.9918 C   0  0  0  0  0  0  0  0  0  0  0  0
   -1.1288   -2.6669    1.6468 O   0  0  0  0  0  0  0  0  0  0  0  0
   -1.7648   -0.9089    0.3998 N   0  0  0  0  0  0  0  0  0  0  0  0
   -2.5238   -0.4719   -0.1032 H   0  0  0  0  0  0  0  0  0  0  0  0
   -0.4848   -0.1959    0.4138 C   0  0  1  0  0  0  0  0  0  0  0  0
    0.2783   -0.8411   -0.0248 H   0  0  0  0  0  0  0  0  0  0  0  0
   -0.6101    1.0666   -0.4611 C   0  0  0  0  0  0  0  0  0  0  0  0
   -0.8724    0.7571   -1.4750 H   0  0  0  0  0  0  0  0  0  0  0  0
   -1.4185    1.6892   -0.0747 H   0  0  0  0  0  0  0  0  0  0  0  0
    0.6766    1.9075   -0.5284 C   0  0  0  0  0  0  0  0  0  0  0  0
    1.3635    1.5909    0.2562 H   0  0  0  0  0  0  0  0  0  0  0  0
    1.1541    1.7468   -1.4949 H   0  0  0  0  0  0  0  0  0  0  0  0
    0.4254    3.4059   -0.3596 C   0  0  0  0  0  0  0  0  0  0  0  0
   -0.6860    3.8909   -0.2596 O   0  0  0  0  0  0  0  0  0  0  0  0
    1.4629    4.2130   -0.3119 N   0  0  0  0  0  0  0  0  0  0  0  0
    1.2400    5.1867   -0.1990 H   0  0  0  0  0  0  0  0  0  0  0  0
    2.3979    3.8667   -0.3865 H   0  0  0  0  0  0  0  0  0  0  0  0
   -0.0637    0.1284    1.8555 C   0  0  0  0  0  0  0  0  0  0  0  0
    1.0918   -0.0745    2.2236 O   0  0  0  0  0  0  0  0  0  0  0  0
   -1.0024    0.6217    2.6735 N   0  0  0  0  0  0  0  0  0  0  0  0
   -1.9213    0.7848    2.2938 H   0  0  0  0  0  0  0  0  0  0  0  0
   -0.7639    0.9676    4.0741 C   0  0  0  0  0  0  0  0  0  0  0  0
    0.0520    1.6916    4.1400 H   0  0  0  0  0  0  0  0  0  0  0  0
   -1.6626    1.3984    4.5182 H   0  0  0  0  0  0  0  0  0  0  0  0
   -0.4775    0.0737    4.6309 H   0  0  0  0  0  0  0  0  0  0  0  0
  5  6  2  0  0  0  0
  5  7  1  0  0  0  0
  2  3  1  0  0  0  0
  2  4  1  0  0  0  0
  2  5  1  0  0  0  0
  1  2  1  0  0  0  0
 22 23  2  0  0  0  0
 22 24  1  0  0  0  0
 19 20  1  0  0  0  0
 19 21  1  0  0  0  0
 17 18  2  0  0  0  0
 17 19  1  0  0  0  0
 14 15  1  0  0  0  0
 14 16  1  0  0  0  0
 14 17  1  0  0  0  0
 11 12  1  0  0  0  0
 11 13  1  0  0  0  0
 11 14  1  0  0  0  0
  9 10  1  0  0  0  0
  9 11  1  0  0  0  0
  9 22  1  0  0  0  0
  7  8  1  0  0  0  0
  7  9  1  0  0  0  0
 26 27  1  0  0  0  0
 26 28  1  0  0  0  0
 26 29  1  0  0  0  0
 24 25  1  0  0  0  0
 24 26  1  0  0  0  0
M  END
$$$$
default_name
  -OEChem-02102213163D

 29 28  0     1  0  0  0  0  0999 V2000
   -3.3998   -3.6239    1.3678 H   0  0  0  0  0  0  0  0  0  0  0  0
   -3.3608   -2.6749    0.8348 C   0  0  0  0  0  0  0  0  0  0  0  0
   -4.0988   -1.9909    1.2498 H   0  0  0  0  0  0  0  0  0  0  0  0
   -3.5618   -2.8419   -0.2222 H   0  0  0  0  0  0  0  0  0  0  0  0
   -1.9818   -2.0809    0.9918 C   0  0  0  0  0  0  0  0  0  0  0  0
   -1.1288   -2.6669    1.6468 O   0  0  0  0  0  0  0  0  0  0  0  0
   -1.7648   -0.9089    0.3998 N   0  0  0  0  0  0  0  0  0  0  0  0
   -2.5238   -0.4719   -0.1032 H   0  0  0  0  0  0  0  0  0  0  0  0
   -0.4848   -0.1959    0.4138 C   0  0  1  0  0  0  0  0  0  0  0  0
    0.2783   -0.8411   -0.0248 H   0  0  0  0  0  0  0  0  0  0  0  0
   -0.6101    1.0666   -0.4611 C   0  0  0  0  0  0  0  0  0  0  0  0
   -0.8724    0.7571   -1.4750 H   0  0  0  0  0  0  0  0  0  0  0  0
   -1.4185    1.6892   -0.0747 H   0  0  0  0  0  0  0  0  0  0  0  0
    0.6766    1.9075   -0.5284 C   0  0  0  0  0  0  0  0  0  0  0  0
    1.4579    1.4309    0.0632 H   0  0  0  0  0  0  0  0  0  0  0  0
    1.0094    1.9626   -1.5649 H   0  0  0  0  0  0  0  0  0  0  0  0
    0.4920    3.3323   -0.0064 C   0  0  0  0  0  0  0  0  0  0  0  0
   -0.5810    3.7793    0.3534 O   0  0  0  0  0  0  0  0  0  0  0  0
    1.5472    4.1142    0.0657 N   0  0  0  0  0  0  0  0  0  0  0  0
    1.3686    5.0392    0.4165 H   0  0  0  0  0  0  0  0  0  0  0  0
    2.4529    3.7964   -0.2144 H   0  0  0  0  0  0  0  0  0  0  0  0
   -0.0637    0.1284    1.8555 C   0  0  0  0  0  0  0  0  0  0  0  0
    1.0918   -0.0745    2.2236 O   0  0  0  0  0  0  0  0  0  0  0  0
   -1.0024    0.6217    2.6735 N   0  0  0  0  0  0  0  0  0  0  0  0
   -1.9213    0.7848    2.2938 H   0  0  0  0  0  0  0  0  0  0  0  0
   -0.7639    0.9676    4.0741 C   0  0  0  0  0  0  0  0  0  0  0  0
    0.0520    1.6916    4.1400 H   0  0  0  0  0  0  0  0  0  0  0  0
   -1.6626    1.3984    4.5182 H   0  0  0  0  0  0  0  0  0  0  0  0
   -0.4775    0.0737    4.6309 H   0  0  0  0  0  0  0  0  0  0  0  0
  5  6  2  0  0  0  0
  5  7  1  0  0  0  0
  2  3  1  0  0  0  0
  2  4  1  0  0  0  0
  2  5  1  0  0  0  0
  1  2  1  0  0  0  0
 22 23  2  0  0  0  0
 22 24  1  0  0  0  0
 19 20  1  0  0  0  0
 19 21  1  0  0  0  0
 17 18  2  0  0  0  0
 17 19  1  0  0  0  0
 14 15  1  0  0  0  0
 14 16  1  0  0  0  0
 14 17  1  0  0  0  0
 11 12  1  0  0  0  0
 11 13  1  0  0  0  0
 11 14  1  0  0  0  0
  9 10  1  0  0  0  0
  9 11  1  0  0  0  0
  9 22  1  0  0  0  0
  7  8  1  0  0  0  0
  7  9  1  0  0  0  0
 26 27  1  0  0  0  0
 26 28  1  0  0  0  0
 26 29  1  0  0  0  0
 24 25  1  0  0  0  0
 24 26  1  0  0  0  0
M  END
$$$$
default_name
  -OEChem-02102213163D

 29 28  0     1  0  0  0  0  0999 V2000
   -3.3998   -3.6239    1.3678 H   0  0  0  0  0  0  0  0  0  0  0  0
   -3.3608   -2.6749    0.8348 C   0  0  0  0  0  0  0  0  0  0  0  0
   -4.0988   -1.9909    1.2498 H   0  0  0  0  0  0  0  0  0  0  0  0
   -3.5618   -2.8419   -0.2222 H   0  0  0  0  0  0  0  0  0  0  0  0
   -1.9818   -2.0809    0.9918 C   0  0  0  0  0  0  0  0  0  0  0  0
   -1.1288   -2.6669    1.6468 O   0  0  0  0  0  0  0  0  0  0  0  0
   -1.7648   -0.9089    0.3998 N   0  0  0  0  0  0  0  0  0  0  0  0
   -2.5238   -0.4719   -0.1032 H   0  0  0  0  0  0  0  0  0  0  0  0
   -0.4848   -0.1959    0.4138 C   0  0  1  0  0  0  0  0  0  0  0  0
    0.2783   -0.8411   -0.0248 H   0  0  0  0  0  0  0  0  0  0  0  0
   -0.6101    1.0666   -0.4611 C   0  0  0  0  0  0  0  0  0  0  0  0
   -0.8724    0.7571   -1.4750 H   0  0  0  0  0  0  0  0  0  0  0  0
   -1.4185    1.6892   -0.0747 H   0  0  0  0  0  0  0  0  0  0  0  0
    0.6766    1.9075   -0.5284 C   0  0  0  0  0  0  0  0  0  0  0  0
    1.5201    1.3171   -0.1712 H   0  0  0  0  0  0  0  0  0  0  0  0
    0.8621    2.1879   -1.5652 H   0  0  0  0  0  0  0  0  0  0  0  0
    0.6054    3.1841    0.3095 C   0  0  0  0  0  0  0  0  0  0  0  0
   -0.3942    3.5377    0.9065 O   0  0  0  0  0  0  0  0  0  0  0  0
    1.6810    3.9361    0.3971 N   0  0  0  0  0  0  0  0  0  0  0  0
    1.5783    4.7620    0.9609 H   0  0  0  0  0  0  0  0  0  0  0  0
    2.5295    3.6906   -0.0713 H   0  0  0  0  0  0  0  0  0  0  0  0
   -0.0637    0.1284    1.8555 C   0  0  0  0  0  0  0  0  0  0  0  0
    1.0918   -0.0745    2.2236 O   0  0  0  0  0  0  0  0  0  0  0  0
   -1.0024    0.6217    2.6735 N   0  0  0  0  0  0  0  0  0  0  0  0
   -1.9213    0.7848    2.2938 H   0  0  0  0  0  0  0  0  0  0  0  0
   -0.7639    0.9676    4.0741 C   0  0  0  0  0  0  0  0  0  0  0  0
    0.0520    1.6916    4.1400 H   0  0  0  0  0  0  0  0  0  0  0  0
   -1.6626    1.3984    4.5182 H   0  0  0  0  0  0  0  0  0  0  0  0
   -0.4775    0.0737    4.6309 H   0  0  0  0  0  0  0  0  0  0  0  0
  5  6  2  0  0  0  0
  5  7  1  0  0  0  0
  2  3  1  0  0  0  0
  2  4  1  0  0  0  0
  2  5  1  0  0  0  0
  1  2  1  0  0  0  0
 22 23  2  0  0  0  0
 22 24  1  0  0  0  0
 19 20  1  0  0  0  0
 19 21  1  0  0  0  0
 17 18  2  0  0  0  0
 17 19  1  0  0  0  0
 14 15  1  0  0  0  0
 14 16  1  0  0  0  0
 14 17  1  0  0  0  0
 11 12  1  0  0  0  0
 11 13  1  0  0  0  0
 11 14  1  0  0  0  0
  9 10  1  0  0  0  0
  9 11  1  0  0  0  0
  9 22  1  0  0  0  0
  7  8  1  0  0  0  0
  7  9  1  0  0  0  0
 26 27  1  0  0  0  0
 26 28  1  0  0  0  0
 26 29  1  0  0  0  0
 24 25  1  0  0  0  0
 24 26  1  0  0  0  0
M  END
$$$$
default_name
  -OEChem-02102213163D

 29 28  0     1  0  0  0  0  0999 V2000
   -3.3998   -3.6239    1.3678 H   0  0  0  0  0  0  0  0  0  0  0  0
   -3.3608   -2.6749    0.8348 C   0  0  0  0  0  0  0  0  0  0  0  0
   -4.0988   -1.9909    1.2498 H   0  0  0  0  0  0  0  0  0  0  0  0
   -3.5618   -2.8419   -0.2222 H   0  0  0  0  0  0  0  0  0  0  0  0
   -1.9818   -2.0809    0.9918 C   0  0  0  0  0  0  0  0  0  0  0  0
   -1.1288   -2.6669    1.6468 O   0  0  0  0  0  0  0  0  0  0  0  0
   -1.7648   -0.9089    0.3998 N   0  0  0  0  0  0  0  0  0  0  0  0
   -2.5238   -0.4719   -0.1032 H   0  0  0  0  0  0  0  0  0  0  0  0
   -0.4848   -0.1959    0.4138 C   0  0  1  0  0  0  0  0  0  0  0  0
    0.2783   -0.8411   -0.0248 H   0  0  0  0  0  0  0  0  0  0  0  0
   -0.6101    1.0666   -0.4611 C   0  0  0  0  0  0  0  0  0  0  0  0
   -0.8724    0.7571   -1.4750 H   0  0  0  0  0  0  0  0  0  0  0  0
   -1.4185    1.6892   -0.0747 H   0  0  0  0  0  0  0  0  0  0  0  0
    0.6766    1.9075   -0.5284 C   0  0  0  0  0  0  0  0  0  0  0  0
    1.5456    1.2572   -0.4310 H   0  0  0  0  0  0  0  0  0  0  0  0
    0.7224    2.4073   -1.4960 H   0  0  0  0  0  0  0  0  0  0  0  0
    0.7579    2.9712    0.5664 C   0  0  0  0  0  0  0  0  0  0  0  0
   -0.1382    3.1824    1.3620 O   0  0  0  0  0  0  0  0  0  0  0  0
    1.8550    3.6908    0.6597 N   0  0  0  0  0  0  0  0  0  0  0  0
    1.8546    4.3740    1.3971 H   0  0  0  0  0  0  0  0  0  0  0  0
    2.6226    3.5565    0.0333 H   0  0  0  0  0  0  0  0  0  0  0  0
   -0.0637    0.1284    1.8555 C   0  0  0  0  0  0  0  0  0  0  0  0
    1.0918   -0.0745    2.2236 O   0  0  0  0  0  0  0  0  0  0  0  0
   -1.0024    0.6217    2.6735 N   0  0  0  0  0  0  0  0  0  0  0  0
   -1.9213    0.7848    2.2938 H   0  0  0  0  0  0  0  0  0  0  0  0
   -0.7639    0.9676    4.0741 C   0  0  0  0  0  0  0  0  0  0  0  0
    0.0520    1.6916    4.1400 H   0  0  0  0  0  0  0  0  0  0  0  0
   -1.6626    1.3984    4.5182 H   0  0  0  0  0  0  0  0  0  0  0  0
   -0.4775    0.0737    4.6309 H   0  0  0  0  0  0  0  0  0  0  0  0
  5  6  2  0  0  0  0
  5  7  1  0  0  0  0
  2  3  1  0  0  0  0
  2  4  1  0  0  0  0
  2  5  1  0  0  0  0
  1  2  1  0  0  0  0
 22 23  2  0  0  0  0
 22 24  1  0  0  0  0
 19 20  1  0  0  0  0
 19 21  1  0  0  0  0
 17 18  2  0  0  0  0
 17 19  1  0  0  0  0
 14 15  1  0  0  0  0
 14 16  1  0  0  0  0
 14 17  1  0  0  0  0
 11 12  1  0  0  0  0
 11 13  1  0  0  0  0
 11 14  1  0  0  0  0
  9 10  1  0  0  0  0
  9 11  1  0  0  0  0
  9 22  1  0  0  0  0
  7  8  1  0  0  0  0
  7  9  1  0  0  0  0
 26 27  1  0  0  0  0
 26 28  1  0  0  0  0
 26 29  1  0  0  0  0
 24 25  1  0  0  0  0
 24 26  1  0  0  0  0
M  END
$$$$
default_name
  -OEChem-02102213163D

 29 28  0     1  0  0  0  0  0999 V2000
   -3.3998   -3.6239    1.3678 H   0  0  0  0  0  0  0  0  0  0  0  0
   -3.3608   -2.6749    0.8348 C   0  0  0  0  0  0  0  0  0  0  0  0
   -4.0988   -1.9909    1.2498 H   0  0  0  0  0  0  0  0  0  0  0  0
   -3.5618   -2.8419   -0.2222 H   0  0  0  0  0  0  0  0  0  0  0  0
   -1.9818   -2.0809    0.9918 C   0  0  0  0  0  0  0  0  0  0  0  0
   -1.1288   -2.6669    1.6468 O   0  0  0  0  0  0  0  0  0  0  0  0
   -1.7648   -0.9089    0.3998 N   0  0  0  0  0  0  0  0  0  0  0  0
   -2.5238   -0.4719   -0.1032 H   0  0  0  0  0  0  0  0  0  0  0  0
   -0.4848   -0.1959    0.4138 C   0  0  1  0  0  0  0  0  0  0  0  0
    0.2783   -0.8411   -0.0248 H   0  0  0  0  0  0  0  0  0  0  0  0
   -0.6101    1.0666   -0.4611 C   0  0  0  0  0  0  0  0  0  0  0  0
   -0.8724    0.7571   -1.4750 H   0  0  0  0  0  0  0  0  0  0  0  0
   -1.4185    1.6892   -0.0747 H   0  0  0  0  0  0  0  0  0  0  0  0
    0.6766    1.9075   -0.5284 C   0  0  0  0  0  0  0  0  0  0  0  0
    1.5329    1.2552   -0.6985 H   0  0  0  0  0  0  0  0  0  0  0  0
    0.5997    2.6057   -1.3618 H   0  0  0  0  0  0  0  0  0  0  0  0
    0.9392    2.7083    0.7469 C   0  0  0  0  0  0  0  0  0  0  0  0
    0.1695    2.7378    1.6889 O   0  0  0  0  0  0  0  0  0  0  0  0
    2.0575    3.3951    0.8357 N   0  0  0  0  0  0  0  0  0  0  0  0
    2.1788    3.9018    1.6954 H   0  0  0  0  0  0  0  0  0  0  0  0
    2.7258    3.4034    0.0921 H   0  0  0  0  0  0  0  0  0  0  0  0
   -0.0637    0.1284    1.8555 C   0  0  0  0  0  0  0  0  0  0  0  0
    1.0918   -0.0745    2.2236 O   0  0  0  0  0  0  0  0  0  0  0  0
   -1.0024    0.6217    2.6735 N   0  0  0  0  0  0  0  0  0  0  0  0
   -1.9213    0.7848    2.2938 H   0  0  0  0  0  0  0  0  0  0  0  0
   -0.7639    0.9676    4.0741 C   0  0  0  0  0  0  0  0  0  0  0  0
    0.0520    1.6916    4.1400 H   0  0  0  0  0  0  0  0  0  0  0  0
   -1.6626    1.3984    4.5182 H   0  0  0  0  0  0  0  0  0  0  0  0
   -0.4775    0.0737    4.6309 H   0  0  0  0  0  0  0  0  0  0  0  0
  5  6  2  0  0  0  0
  5  7  1  0  0  0  0
  2  3  1  0  0  0  0
  2  4  1  0  0  0  0
  2  5  1  0  0  0  0
  1  2  1  0  0  0  0
 22 23  2  0  0  0  0
 22 24  1  0  0  0  0
 19 20  1  0  0  0  0
 19 21  1  0  0  0  0
 17 18  2  0  0  0  0
 17 19  1  0  0  0  0
 14 15  1  0  0  0  0
 14 16  1  0  0  0  0
 14 17  1  0  0  0  0
 11 12  1  0  0  0  0
 11 13  1  0  0  0  0
 11 14  1  0  0  0  0
  9 10  1  0  0  0  0
  9 11  1  0  0  0  0
  9 22  1  0  0  0  0
  7  8  1  0  0  0  0
  7  9  1  0  0  0  0
 26 27  1  0  0  0  0
 26 28  1  0  0  0  0
 26 29  1  0  0  0  0
 24 25  1  0  0  0  0
 24 26  1  0  0  0  0
M  END
$$$$
default_name
  -OEChem-02102213163D

 29 28  0     1  0  0  0  0  0999 V2000
   -3.3998   -3.6239    1.3678 H   0  0  0  0  0  0  0  0  0  0  0  0
   -3.3608   -2.6749    0.8348 C   0  0  0  0  0  0  0  0  0  0  0  0
   -4.0988   -1.9909    1.2498 H   0  0  0  0  0  0  0  0  0  0  0  0
   -3.5618   -2.8419   -0.2222 H   0  0  0  0  0  0  0  0  0  0  0  0
   -1.9818   -2.0809    0.9918 C   0  0  0  0  0  0  0  0  0  0  0  0
   -1.1288   -2.6669    1.6468 O   0  0  0  0  0  0  0  0  0  0  0  0
   -1.7648   -0.9089    0.3998 N   0  0  0  0  0  0  0  0  0  0  0  0
   -2.5238   -0.4719   -0.1032 H   0  0  0  0  0  0  0  0  0  0  0  0
   -0.4848   -0.1959    0.4138 C   0  0  1  0  0  0  0  0  0  0  0  0
    0.2783   -0.8411   -0.0248 H   0  0  0  0  0  0  0  0  0  0  0  0
   -0.6101    1.0666   -0.4611 C   0  0  0  0  0  0  0  0  0  0  0  0
   -0.8724    0.7571   -1.4750 H   0  0  0  0  0  0  0  0  0  0  0  0
   -1.4185    1.6892   -0.0747 H   0  0  0  0  0  0  0  0  0  0  0  0
    0.6766    1.9075   -0.5284 C   0  0  0  0  0  0  0  0  0  0  0  0
    1.4827    1.3114   -0.9556 H   0  0  0  0  0  0  0  0  0  0  0  0
    0.5025    2.7698   -1.1720 H   0  0  0  0  0  0  0  0  0  0  0  0
    1.1368    2.4132    0.8388 C   0  0  0  0  0  0  0  0  0  0  0  0
    0.5079    2.2340    1.8649 O   0  0  0  0  0  0  0  0  0  0  0  0
    2.2746    3.0690    0.9131 N   0  0  0  0  0  0  0  0  0  0  0  0
    2.5289    3.3773    1.8354 H   0  0  0  0  0  0  0  0  0  0  0  0
    2.8320    3.2415    0.1011 H   0  0  0  0  0  0  0  0  0  0  0  0
   -0.0637    0.1284    1.8555 C   0  0  0  0  0  0  0  0  0  0  0  0
    1.0918   -0.0745    2.2236 O   0  0  0  0  0  0  0  0  0  0  0  0
   -1.0024    0.6217    2.6735 N   0  0  0  0  0  0  0  0  0  0  0  0
   -1.9213    0.7848    2.2938 H   0  0  0  0  0  0  0  0  0  0  0  0
   -0.7639    0.9676    4.0741 C   0  0  0  0  0  0  0  0  0  0  0  0
    0.0520    1.6916    4.1400 H   0  0  0  0  0  0  0  0  0  0  0  0
   -1.6626    1.3984    4.5182 H   0  0  0  0  0  0  0  0  0  0  0  0
   -0.4775    0.0737    4.6309 H   0  0  0  0  0  0  0  0  0  0  0  0
  5  6  2  0  0  0  0
  5  7  1  0  0  0  0
  2  3  1  0  0  0  0
  2  4  1  0  0  0  0
  2  5  1  0  0  0  0
  1  2  1  0  0  0  0
 22 23  2  0  0  0  0
 22 24  1  0  0  0  0
 19 20  1  0  0  0  0
 19 21  1  0  0  0  0
 17 18  2  0  0  0  0
 17 19  1  0  0  0  0
 14 15  1  0  0  0  0
 14 16  1  0  0  0  0
 14 17  1  0  0  0  0
 11 12  1  0  0  0  0
 11 13  1  0  0  0  0
 11 14  1  0  0  0  0
  9 10  1  0  0  0  0
  9 11  1  0  0  0  0
  9 22  1  0  0  0  0
  7  8  1  0  0  0  0
  7  9  1  0  0  0  0
 26 27  1  0  0  0  0
 26 28  1  0  0  0  0
 26 29  1  0  0  0  0
 24 25  1  0  0  0  0
 24 26  1  0  0  0  0
M  END
$$$$
default_name
  -OEChem-02102213163D

 29 28  0     1  0  0  0  0  0999 V2000
   -3.3998   -3.6239    1.3678 H   0  0  0  0  0  0  0  0  0  0  0  0
   -3.3608   -2.6749    0.8348 C   0  0  0  0  0  0  0  0  0  0  0  0
   -4.0988   -1.9909    1.2498 H   0  0  0  0  0  0  0  0  0  0  0  0
   -3.5618   -2.8419   -0.2222 H   0  0  0  0  0  0  0  0  0  0  0  0
   -1.9818   -2.0809    0.9918 C   0  0  0  0  0  0  0  0  0  0  0  0
   -1.1288   -2.6669    1.6468 O   0  0  0  0  0  0  0  0  0  0  0  0
   -1.7648   -0.9089    0.3998 N   0  0  0  0  0  0  0  0  0  0  0  0
   -2.5238   -0.4719   -0.1032 H   0  0  0  0  0  0  0  0  0  0  0  0
   -0.4848   -0.1959    0.4138 C   0  0  1  0  0  0  0  0  0  0  0  0
    0.2783   -0.8411   -0.0248 H   0  0  0  0  0  0  0  0  0  0  0  0
   -0.6101    1.0666   -0.4611 C   0  0  0  0  0  0  0  0  0  0  0  0
   -0.8724    0.7571   -1.4750 H   0  0  0  0  0  0  0  0  0  0  0  0
   -1.4185    1.6892   -0.0747 H   0  0  0  0  0  0  0  0  0  0  0  0
    0.6766    1.9075   -0.5284 C   0  0  0  0  0  0  0  0  0  0  0  0
    1.3986    1.4219   -1.1846 H   0  0  0  0  0  0  0  0  0  0  0  0
    0.4372    2.8883   -0.9393 H   0  0  0  0  0  0  0  0  0  0  0  0
    1.3374    2.1060    0.8356 C   0  0  0  0  0  0  0  0  0  0  0  0
    0.8539    1.7055    1.8780 O   0  0  0  0  0  0  0  0  0  0  0  0
    2.4916    2.7349    0.8865 N   0  0  0  0  0  0  0  0  0  0  0  0
    2.8808    2.8365    1.8077 H   0  0  0  0  0  0  0  0  0  0  0  0
    2.9341    3.0820    0.0598 H   0  0  0  0  0  0  0  0  0  0  0  0
   -0.0637    0.1284    1.8555 C   0  0  0  0  0  0  0  0  0  0  0  0
    1.0918   -0.0745    2.2236 O   0  0  0  0  0  0  0  0  0  0  0  0
   -1.0024    0.6217    2.6735 N   0  0  0  0  0  0  0  0  0  0  0  0
   -1.9213    0.7848    2.2938 H   0  0  0  0  0  0  0  0  0  0  0  0
   -0.7639    0.9676    4.0741 C   0  0  0  0  0  0  0  0  0  0  0  0
    0.0520    1.6916    4.1400 H   0  0  0  0  0  0  0  0  0  0  0  0
   -1.6626    1.3984    4.5182 H   0  0  0  0  0  0  0  0  0  0  0  0
   -0.4775    0.0737    4.6309 H   0  0  0  0  0  0  0  0  0  0  0  0
  5  6  2  0  0  0  0
  5  7  1  0  0  0  0
  2  3  1  0  0  0  0
  2  4  1  0  0  0  0
  2  5  1  0  0  0  0
  1  2  1  0  0  0  0
 22 23  2  0  0  0  0
 22 24  1  0  0  0  0
 19 20  1  0  0  0  0
 19 21  1  0  0  0  0
 17 18  2  0  0  0  0
 17 19  1  0  0  0  0
 14 15  1  0  0  0  0
 14 16  1  0  0  0  0
 14 17  1  0  0  0  0
 11 12  1  0  0  0  0
 11 13  1  0  0  0  0
 11 14  1  0  0  0  0
  9 10  1  0  0  0  0
  9 11  1  0  0  0  0
  9 22  1  0  0  0  0
  7  8  1  0  0  0  0
  7  9  1  0  0  0  0
 26 27  1  0  0  0  0
 26 28  1  0  0  0  0
 26 29  1  0  0  0  0
 24 25  1  0  0  0  0
 24 26  1  0  0  0  0
M  END
$$$$
default_name
  -OEChem-02102213163D

 29 28  0     1  0  0  0  0  0999 V2000
   -3.3998   -3.6239    1.3678 H   0  0  0  0  0  0  0  0  0  0  0  0
   -3.3608   -2.6749    0.8348 C   0  0  0  0  0  0  0  0  0  0  0  0
   -4.0988   -1.9909    1.2498 H   0  0  0  0  0  0  0  0  0  0  0  0
   -3.5618   -2.8419   -0.2222 H   0  0  0  0  0  0  0  0  0  0  0  0
   -1.9818   -2.0809    0.9918 C   0  0  0  0  0  0  0  0  0  0  0  0
   -1.1288   -2.6669    1.6468 O   0  0  0  0  0  0  0  0  0  0  0  0
   -1.7648   -0.9089    0.3998 N   0  0  0  0  0  0  0  0  0  0  0  0
   -2.5238   -0.4719   -0.1032 H   0  0  0  0  0  0  0  0  0  0  0  0
   -0.4848   -0.1959    0.4138 C   0  0  1  0  0  0  0  0  0  0  0  0
    0.2783   -0.8411   -0.0248 H   0  0  0  0  0  0  0  0  0  0  0  0
   -0.6101    1.0666   -0.4611 C   0  0  0  0  0  0  0  0  0  0  0  0
   -0.8724    0.7571   -1.4750 H   0  0  0  0  0  0  0  0  0  0  0  0
   -1.4185    1.6892   -0.0747 H   0  0  0  0  0  0  0  0  0  0  0  0
    0.6766    1.9075   -0.5284 C   0  0  0  0  0  0  0  0  0  0  0  0
    1.2861    1.5792   -1.3701 H   0  0  0  0  0  0  0  0  0  0  0  0
    0.4084    2.9531   -0.6797 H   0  0  0  0  0  0  0  0  0  0  0  0
    1.5272    1.8077    0.7378 C   0  0  0  0  0  0  0  0  0  0  0  0
    1.1841    1.1883    1.7273 O   0  0  0  0  0  0  0  0  0  0  0  0
    2.6936    2.4154    0.7578 N   0  0  0  0  0  0  0  0  0  0  0  0
    3.2108    2.3161    1.6140 H   0  0  0  0  0  0  0  0  0  0  0  0
    3.0250    2.9358   -0.0291 H   0  0  0  0  0  0  0  0  0  0  0  0
   -0.0637    0.1284    1.8555 C   0  0  0  0  0  0  0  0  0  0  0  0
    1.0918   -0.0745    2.2236 O   0  0  0  0  0  0  0  0  0  0  0  0
   -1.0024    0.6217    2.6735 N   0  0  0  0  0  0  0  0  0  0  0  0
   -1.9213    0.7848    2.2938 H   0  0  0  0  0  0  0  0  0  0  0  0
   -0.7639    0.9676    4.0741 C   0  0  0  0  0  0  0  0  0  0  0  0
    0.0520    1.6916    4.1400 H   0  0  0  0  0  0  0  0  0  0  0  0
   -1.6626    1.3984    4.5182 H   0  0  0  0  0  0  0  0  0  0  0  0
   -0.4775    0.0737    4.6309 H   0  0  0  0  0  0  0  0  0  0  0  0
  5  6  2  0  0  0  0
  5  7  1  0  0  0  0
  2  3  1  0  0  0  0
  2  4  1  0  0  0  0
  2  5  1  0  0  0  0
  1  2  1  0  0  0  0
 22 23  2  0  0  0  0
 22 24  1  0  0  0  0
 19 20  1  0  0  0  0
 19 21  1  0  0  0  0
 17 18  2  0  0  0  0
 17 19  1  0  0  0  0
 14 15  1  0  0  0  0
 14 16  1  0  0  0  0
 14 17  1  0  0  0  0
 11 12  1  0  0  0  0
 11 13  1  0  0  0  0
 11 14  1  0  0  0  0
  9 10  1  0  0  0  0
  9 11  1  0  0  0  0
  9 22  1  0  0  0  0
  7  8  1  0  0  0  0
  7  9  1  0  0  0  0
 26 27  1  0  0  0  0
 26 28  1  0  0  0  0
 26 29  1  0  0  0  0
 24 25  1  0  0  0  0
 24 26  1  0  0  0  0
M  END
$$$$
default_name
  -OEChem-02102213163D

 29 28  0     1  0  0  0  0  0999 V2000
   -3.3998   -3.6239    1.3678 H   0  0  0  0  0  0  0  0  0  0  0  0
   -3.3608   -2.6749    0.8348 C   0  0  0  0  0  0  0  0  0  0  0  0
   -4.0988   -1.9909    1.2498 H   0  0  0  0  0  0  0  0  0  0  0  0
   -3.5618   -2.8419   -0.2222 H   0  0  0  0  0  0  0  0  0  0  0  0
   -1.9818   -2.0809    0.9918 C   0  0  0  0  0  0  0  0  0  0  0  0
   -1.1288   -2.6669    1.6468 O   0  0  0  0  0  0  0  0  0  0  0  0
   -1.7648   -0.9089    0.3998 N   0  0  0  0  0  0  0  0  0  0  0  0
   -2.5238   -0.4719   -0.1032 H   0  0  0  0  0  0  0  0  0  0  0  0
   -0.4848   -0.1959    0.4138 C   0  0  1  0  0  0  0  0  0  0  0  0
    0.2783   -0.8411   -0.0248 H   0  0  0  0  0  0  0  0  0  0  0  0
   -0.6101    1.0666   -0.4611 C   0  0  0  0  0  0  0  0  0  0  0  0
   -0.8724    0.7571   -1.4750 H   0  0  0  0  0  0  0  0  0  0  0  0
   -1.4185    1.6892   -0.0747 H   0  0  0  0  0  0  0  0  0  0  0  0
    0.6766    1.9075   -0.5284 C   0  0  0  0  0  0  0  0  0  0  0  0
    1.1530    1.7725   -1.4992 H   0  0  0  0  0  0  0  0  0  0  0  0
    0.4181    2.9598   -0.4108 H   0  0  0  0  0  0  0  0  0  0  0  0
    1.6933    1.5386    0.5518 C   0  0  0  0  0  0  0  0  0  0  0  0
    1.4758    0.7176    1.4231 O   0  0  0  0  0  0  0  0  0  0  0  0
    2.8669    2.1324    0.5358 N   0  0  0  0  0  0  0  0  0  0  0  0
    3.4962    1.8517    1.2677 H   0  0  0  0  0  0  0  0  0  0  0  0
    3.0986    2.8127   -0.1594 H   0  0  0  0  0  0  0  0  0  0  0  0
   -0.0637    0.1284    1.8555 C   0  0  0  0  0  0  0  0  0  0  0  0
    1.0918   -0.0745    2.2236 O   0  0  0  0  0  0  0  0  0  0  0  0
   -1.0024    0.6217    2.6735 N   0  0  0  0  0  0  0  0  0  0  0  0
   -1.9213    0.7848    2.2938 H   0  0  0  0  0  0  0  0  0  0  0  0
   -0.7639    0.9676    4.0741 C   0  0  0  0  0  0  0  0  0  0  0  0
    0.0520    1.6916    4.1400 H   0  0  0  0  0  0  0  0  0  0  0  0
   -1.6626    1.3984    4.5182 H   0  0  0  0  0  0  0  0  0  0  0  0
   -0.4775    0.0737    4.6309 H   0  0  0  0  0  0  0  0  0  0  0  0
  5  6  2  0  0  0  0
  5  7  1  0  0  0  0
  2  3  1  0  0  0  0
  2  4  1  0  0  0  0
  2  5  1  0  0  0  0
  1  2  1  0  0  0  0
 22 23  2  0  0  0  0
 22 24  1  0  0  0  0
 19 20  1  0  0  0  0
 19 21  1  0  0  0  0
 17 18  2  0  0  0  0
 17 19  1  0  0  0  0
 14 15  1  0  0  0  0
 14 16  1  0  0  0  0
 14 17  1  0  0  0  0
 11 12  1  0  0  0  0
 11 13  1  0  0  0  0
 11 14  1  0  0  0  0
  9 10  1  0  0  0  0
  9 11  1  0  0  0  0
  9 22  1  0  0  0  0
  7  8  1  0  0  0  0
  7  9  1  0  0  0  0
 26 27  1  0  0  0  0
 26 28  1  0  0  0  0
 26 29  1  0  0  0  0
 24 25  1  0  0  0  0
 24 26  1  0  0  0  0
M  END
$$$$
default_name
  -OEChem-02102213163D

 29 28  0     1  0  0  0  0  0999 V2000
   -3.3998   -3.6239    1.3678 H   0  0  0  0  0  0  0  0  0  0  0  0
   -3.3608   -2.6749    0.8348 C   0  0  0  0  0  0  0  0  0  0  0  0
   -4.0988   -1.9909    1.2498 H   0  0  0  0  0  0  0  0  0  0  0  0
   -3.5618   -2.8419   -0.2222 H   0  0  0  0  0  0  0  0  0  0  0  0
   -1.9818   -2.0809    0.9918 C   0  0  0  0  0  0  0  0  0  0  0  0
   -1.1288   -2.6669    1.6468 O   0  0  0  0  0  0  0  0  0  0  0  0
   -1.7648   -0.9089    0.3998 N   0  0  0  0  0  0  0  0  0  0  0  0
   -2.5238   -0.4719   -0.1032 H   0  0  0  0  0  0  0  0  0  0  0  0
   -0.4848   -0.1959    0.4138 C   0  0  1  0  0  0  0  0  0  0  0  0
    0.2783   -0.8411   -0.0248 H   0  0  0  0  0  0  0  0  0  0  0  0
   -0.6101    1.0666   -0.4611 C   0  0  0  0  0  0  0  0  0  0  0  0
   -0.8724    0.7571   -1.4750 H   0  0  0  0  0  0  0  0  0  0  0  0
   -1.4185    1.6892   -0.0747 H   0  0  0  0  0  0  0  0  0  0  0  0
    0.6766    1.9075   -0.5284 C   0  0  0  0  0  0  0  0  0  0  0  0
    1.0084    1.9886   -1.5633 H   0  0  0  0  0  0  0  0  0  0  0  0
    0.4655    2.9080   -0.1510 H   0  0  0  0  0  0  0  0  0  0  0  0
    1.8244    1.3171    0.2904 C   0  0  0  0  0  0  0  0  0  0  0  0
    1.7092    0.3254    0.9861 O   0  0  0  0  0  0  0  0  0  0  0  0
    2.9997    1.9052    0.2355 N   0  0  0  0  0  0  0  0  0  0  0  0
    3.7176    1.4748    0.7922 H   0  0  0  0  0  0  0  0  0  0  0  0
    3.1499    2.7212   -0.3224 H   0  0  0  0  0  0  0  0  0  0  0  0
   -0.0637    0.1284    1.8555 C   0  0  0  0  0  0  0  0  0  0  0  0
    1.0918   -0.0745    2.2236 O   0  0  0  0  0  0  0  0  0  0  0  0
   -1.0024    0.6217    2.6735 N   0  0  0  0  0  0  0  0  0  0  0  0
   -1.9213    0.7848    2.2938 H   0  0  0  0  0  0  0  0  0  0  0  0
   -0.7639    0.9676    4.0741 C   0  0  0  0  0  0  0  0  0  0  0  0
    0.0520    1.6916    4.1400 H   0  0  0  0  0  0  0  0  0  0  0  0
   -1.6626    1.3984    4.5182 H   0  0  0  0  0  0  0  0  0  0  0  0
   -0.4775    0.0737    4.6309 H   0  0  0  0  0  0  0  0  0  0  0  0
  5  6  2  0  0  0  0
  5  7  1  0  0  0  0
  2  3  1  0  0  0  0
  2  4  1  0  0  0  0
  2  5  1  0  0  0  0
  1  2  1  0  0  0  0
 22 23  2  0  0  0  0
 22 24  1  0  0  0  0
 19 20  1  0  0  0  0
 19 21  1  0  0  0  0
 17 18  2  0  0  0  0
 17 19  1  0  0  0  0
 14 15  1  0  0  0  0
 14 16  1  0  0  0  0
 14 17  1  0  0  0  0
 11 12  1  0  0  0  0
 11 13  1  0  0  0  0
 11 14  1  0  0  0  0
  9 10  1  0  0  0  0
  9 11  1  0  0  0  0
  9 22  1  0  0  0  0
  7  8  1  0  0  0  0
  7  9  1  0  0  0  0
 26 27  1  0  0  0  0
 26 28  1  0  0  0  0
 26 29  1  0  0  0  0
 24 25  1  0  0  0  0
 24 26  1  0  0  0  0
M  END
$$$$
default_name
  -OEChem-02102213163D

 29 28  0     1  0  0  0  0  0999 V2000
   -3.3998   -3.6239    1.3678 H   0  0  0  0  0  0  0  0  0  0  0  0
   -3.3608   -2.6749    0.8348 C   0  0  0  0  0  0  0  0  0  0  0  0
   -4.0988   -1.9909    1.2498 H   0  0  0  0  0  0  0  0  0  0  0  0
   -3.5618   -2.8419   -0.2222 H   0  0  0  0  0  0  0  0  0  0  0  0
   -1.9818   -2.0809    0.9918 C   0  0  0  0  0  0  0  0  0  0  0  0
   -1.1288   -2.6669    1.6468 O   0  0  0  0  0  0  0  0  0  0  0  0
   -1.7648   -0.9089    0.3998 N   0  0  0  0  0  0  0  0  0  0  0  0
   -2.5238   -0.4719   -0.1032 H   0  0  0  0  0  0  0  0  0  0  0  0
   -0.4848   -0.1959    0.4138 C   0  0  1  0  0  0  0  0  0  0  0  0
    0.2783   -0.8411   -0.0248 H   0  0  0  0  0  0  0  0  0  0  0  0
   -0.6101    1.0666   -0.4611 C   0  0  0  0  0  0  0  0  0  0  0  0
   -0.8724    0.7571   -1.4750 H   0  0  0  0  0  0  0  0  0  0  0  0
   -1.4185    1.6892   -0.0747 H   0  0  0  0  0  0  0  0  0  0  0  0
    0.6766    1.9075   -0.5284 C   0  0  0  0  0  0  0  0  0  0  0  0
    0.8621    2.2130   -1.5579 H   0  0  0  0  0  0  0  0  0  0  0  0
    0.5475    2.8012    0.0821 H   0  0  0  0  0  0  0  0  0  0  0  0
    1.9116    1.1581   -0.0285 C   0  0  0  0  0  0  0  0  0  0  0  0
    1.8684    0.0386    0.4461 O   0  0  0  0  0  0  0  0  0  0  0  0
    3.0830    1.7491   -0.1225 N   0  0  0  0  0  0  0  0  0  0  0  0
    3.8600    1.2111    0.2200 H   0  0  0  0  0  0  0  0  0  0  0  0
    3.1753    2.6675   -0.5069 H   0  0  0  0  0  0  0  0  0  0  0  0
   -0.0637    0.1284    1.8555 C   0  0  0  0  0  0  0  0  0  0  0  0
    1.0918   -0.0745    2.2236 O   0  0  0  0  0  0  0  0  0  0  0  0
   -1.0024    0.6217    2.6735 N   0  0  0  0  0  0  0  0  0  0  0  0
   -1.9213    0.7848    2.2938 H   0  0  0  0  0  0  0  0  0  0  0  0
   -0.7639    0.9676    4.0741 C   0  0  0  0  0  0  0  0  0  0  0  0
    0.0520    1.6916    4.1400 H   0  0  0  0  0  0  0  0  0  0  0  0
   -1.6626    1.3984    4.5182 H   0  0  0  0  0  0  0  0  0  0  0  0
   -0.4775    0.0737    4.6309 H   0  0  0  0  0  0  0  0  0  0  0  0
  5  6  2  0  0  0  0
  5  7  1  0  0  0  0
  2  3  1  0  0  0  0
  2  4  1  0  0  0  0
  2  5  1  0  0  0  0
  1  2  1  0  0  0  0
 22 23  2  0  0  0  0
 22 24  1  0  0  0  0
 19 20  1  0  0  0  0
 19 21  1  0  0  0  0
 17 18  2  0  0  0  0
 17 19  1  0  0  0  0
 14 15  1  0  0  0  0
 14 16  1  0  0  0  0
 14 17  1  0  0  0  0
 11 12  1  0  0  0  0
 11 13  1  0  0  0  0
 11 14  1  0  0  0  0
  9 10  1  0  0  0  0
  9 11  1  0  0  0  0
  9 22  1  0  0  0  0
  7  8  1  0  0  0  0
  7  9  1  0  0  0  0
 26 27  1  0  0  0  0
 26 28  1  0  0  0  0
 26 29  1  0  0  0  0
 24 25  1  0  0  0  0
 24 26  1  0  0  0  0
M  END
$$$$
default_name
  -OEChem-02102213163D

 29 28  0     1  0  0  0  0  0999 V2000
   -3.3998   -3.6239    1.3678 H   0  0  0  0  0  0  0  0  0  0  0  0
   -3.3608   -2.6749    0.8348 C   0  0  0  0  0  0  0  0  0  0  0  0
   -4.0988   -1.9909    1.2498 H   0  0  0  0  0  0  0  0  0  0  0  0
   -3.5618   -2.8419   -0.2222 H   0  0  0  0  0  0  0  0  0  0  0  0
   -1.9818   -2.0809    0.9918 C   0  0  0  0  0  0  0  0  0  0  0  0
   -1.1288   -2.6669    1.6468 O   0  0  0  0  0  0  0  0  0  0  0  0
   -1.7648   -0.9089    0.3998 N   0  0  0  0  0  0  0  0  0  0  0  0
   -2.5238   -0.4719   -0.1032 H   0  0  0  0  0  0  0  0  0  0  0  0
   -0.4848   -0.1959    0.4138 C   0  0  1  0  0  0  0  0  0  0  0  0
    0.2783   -0.8411   -0.0248 H   0  0  0  0  0  0  0  0  0  0  0  0
   -0.6101    1.0666   -0.4611 C   0  0  0  0  0  0  0  0  0  0  0  0
   -0.8724    0.7571   -1.4750 H   0  0  0  0  0  0  0  0  0  0  0  0
   -1.4185    1.6892   -0.0747 H   0  0  0  0  0  0  0  0  0  0  0  0
    0.6766    1.9075   -0.5284 C   0  0  0  0  0  0  0  0  0  0  0  0
    0.7241    2.4301   -1.4835 H   0  0  0  0  0  0  0  0  0  0  0  0
    0.6585    2.6467    0.2724 H   0  0  0  0  0  0  0  0  0  0  0  0
    1.9489    1.0727   -0.3834 C   0  0  0  0  0  0  0  0  0  0  0  0
    1.9425   -0.1234   -0.1602 O   0  0  0  0  0  0  0  0  0  0  0  0
    3.1110    1.6749   -0.5138 N   0  0  0  0  0  0  0  0  0  0  0  0
    3.9136    1.0787   -0.4099 H   0  0  0  0  0  0  0  0  0  0  0  0
    3.1732    2.6553   -0.7003 H   0  0  0  0  0  0  0  0  0  0  0  0
   -0.0637    0.1284    1.8555 C   0  0  0  0  0  0  0  0  0  0  0  0
    1.0918   -0.0745    2.2236 O   0  0  0  0  0  0  0  0  0  0  0  0
   -1.0024    0.6217    2.6735 N   0  0  0  0  0  0  0  0  0  0  0  0
   -1.9213    0.7848    2.2938 H   0  0  0  0  0  0  0  0  0  0  0  0
   -0.7639    0.9676    4.0741 C   0  0  0  0  0  0  0  0  0  0  0  0
    0.0520    1.6916    4.1400 H   0  0  0  0  0  0  0  0  0  0  0  0
   -1.6626    1.3984    4.5182 H   0  0  0  0  0  0  0  0  0  0  0  0
   -0.4775    0.0737    4.6309 H   0  0  0  0  0  0  0  0  0  0  0  0
  5  6  2  0  0  0  0
  5  7  1  0  0  0  0
  2  3  1  0  0  0  0
  2  4  1  0  0  0  0
  2  5  1  0  0  0  0
  1  2  1  0  0  0  0
 22 23  2  0  0  0  0
 22 24  1  0  0  0  0
 19 20  1  0  0  0  0
 19 21  1  0  0  0  0
 17 18  2  0  0  0  0
 17 19  1  0  0  0  0
 14 15  1  0  0  0  0
 14 16  1  0  0  0  0
 14 17  1  0  0  0  0
 11 12  1  0  0  0  0
 11 13  1  0  0  0  0
 11 14  1  0  0  0  0
  9 10  1  0  0  0  0
  9 11  1  0  0  0  0
  9 22  1  0  0  0  0
  7  8  1  0  0  0  0
  7  9  1  0  0  0  0
 26 27  1  0  0  0  0
 26 28  1  0  0  0  0
 26 29  1  0  0  0  0
 24 25  1  0  0  0  0
 24 26  1  0  0  0  0
M  END
$$$$
default_name
  -OEChem-02102213163D

 29 28  0     1  0  0  0  0  0999 V2000
   -3.3998   -3.6239    1.3678 H   0  0  0  0  0  0  0  0  0  0  0  0
   -3.3608   -2.6749    0.8348 C   0  0  0  0  0  0  0  0  0  0  0  0
   -4.0988   -1.9909    1.2498 H   0  0  0  0  0  0  0  0  0  0  0  0
   -3.5618   -2.8419   -0.2222 H   0  0  0  0  0  0  0  0  0  0  0  0
   -1.9818   -2.0809    0.9918 C   0  0  0  0  0  0  0  0  0  0  0  0
   -1.1288   -2.6669    1.6468 O   0  0  0  0  0  0  0  0  0  0  0  0
   -1.7648   -0.9089    0.3998 N   0  0  0  0  0  0  0  0  0  0  0  0
   -2.5238   -0.4719   -0.1032 H   0  0  0  0  0  0  0  0  0  0  0  0
   -0.4848   -0.1959    0.4138 C   0  0  1  0  0  0  0  0  0  0  0  0
    0.2783   -0.8411   -0.0248 H   0  0  0  0  0  0  0  0  0  0  0  0
   -0.6101    1.0666   -0.4611 C   0  0  0  0  0  0  0  0  0  0  0  0
   -0.8724    0.7571   -1.4750 H   0  0  0  0  0  0  0  0  0  0  0  0
   -1.4185    1.6892   -0.0747 H   0  0  0  0  0  0  0  0  0  0  0  0
    0.6766    1.9075   -0.5284 C   0  0  0  0  0  0  0  0  0  0  0  0
    0.6037    2.6254   -1.3451 H   0  0  0  0  0  0  0  0  0  0  0  0
    0.7908    2.4549    0.4072 H   0  0  0  0  0  0  0  0  0  0  0  0
    1.9337    1.0665   -0.7499 C   0  0  0  0  0  0  0  0  0  0  0  0
    1.9266   -0.1495   -0.7913 O   0  0  0  0  0  0  0  0  0  0  0  0
    3.0818    1.6877   -0.9118 N   0  0  0  0  0  0  0  0  0  0  0  0
    3.8747    1.0865   -1.0545 H   0  0  0  0  0  0  0  0  0  0  0  0
    3.1436    2.6854   -0.8894 H   0  0  0  0  0  0  0  0  0  0  0  0
   -0.0637    0.1284    1.8555 C   0  0  0  0  0  0  0  0  0  0  0  0
    1.0918   -0.0745    2.2236 O   0  0  0  0  0  0  0  0  0  0  0  0
   -1.0024    0.6217    2.6735 N   0  0  0  0  0  0  0  0  0  0  0  0
   -1.9213    0.7848    2.2938 H   0  0  0  0  0  0  0  0  0  0  0  0
   -0.7639    0.9676    4.0741 C   0  0  0  0  0  0  0  0  0  0  0  0
    0.0520    1.6916    4.1400 H   0  0  0  0  0  0  0  0  0  0  0  0
   -1.6626    1.3984    4.5182 H   0  0  0  0  0  0  0  0  0  0  0  0
   -0.4775    0.0737    4.6309 H   0  0  0  0  0  0  0  0  0  0  0  0
  5  6  2  0  0  0  0
  5  7  1  0  0  0  0
  2  3  1  0  0  0  0
  2  4  1  0  0  0  0
  2  5  1  0  0  0  0
  1  2  1  0  0  0  0
 22 23  2  0  0  0  0
 22 24  1  0  0  0  0
 19 20  1  0  0  0  0
 19 21  1  0  0  0  0
 17 18  2  0  0  0  0
 17 19  1  0  0  0  0
 14 15  1  0  0  0  0
 14 16  1  0  0  0  0
 14 17  1  0  0  0  0
 11 12  1  0  0  0  0
 11 13  1  0  0  0  0
 11 14  1  0  0  0  0
  9 10  1  0  0  0  0
  9 11  1  0  0  0  0
  9 22  1  0  0  0  0
  7  8  1  0  0  0  0
  7  9  1  0  0  0  0
 26 27  1  0  0  0  0
 26 28  1  0  0  0  0
 26 29  1  0  0  0  0
 24 25  1  0  0  0  0
 24 26  1  0  0  0  0
M  END
$$$$
default_name
  -OEChem-02102213163D

 29 28  0     1  0  0  0  0  0999 V2000
   -3.3998   -3.6239    1.3678 H   0  0  0  0  0  0  0  0  0  0  0  0
   -3.3608   -2.6749    0.8348 C   0  0  0  0  0  0  0  0  0  0  0  0
   -4.0988   -1.9909    1.2498 H   0  0  0  0  0  0  0  0  0  0  0  0
   -3.5618   -2.8419   -0.2222 H   0  0  0  0  0  0  0  0  0  0  0  0
   -1.9818   -2.0809    0.9918 C   0  0  0  0  0  0  0  0  0  0  0  0
   -1.1288   -2.6669    1.6468 O   0  0  0  0  0  0  0  0  0  0  0  0
   -1.7648   -0.9089    0.3998 N   0  0  0  0  0  0  0  0  0  0  0  0
   -2.5238   -0.4719   -0.1032 H   0  0  0  0  0  0  0  0  0  0  0  0
   -0.4848   -0.1959    0.4138 C   0  0  1  0  0  0  0  0  0  0  0  0
    0.2783   -0.8411   -0.0248 H   0  0  0  0  0  0  0  0  0  0  0  0
   -0.6101    1.0666   -0.4611 C   0  0  0  0  0  0  0  0  0  0  0  0
   -0.8724    0.7571   -1.4750 H   0  0  0  0  0  0  0  0  0  0  0  0
   -1.4185    1.6892   -0.0747 H   0  0  0  0  0  0  0  0  0  0  0  0
    0.6766    1.9075   -0.5284 C   0  0  0  0  0  0  0  0  0  0  0  0
    0.5093    2.7854   -1.1522 H   0  0  0  0  0  0  0  0  0  0  0  0
    0.9355    2.2391    0.4771 H   0  0  0  0  0  0  0  0  0  0  0  0
    1.8672    1.1401   -1.1031 C   0  0  0  0  0  0  0  0  0  0  0  0
    1.8216   -0.0379   -1.4043 O   0  0  0  0  0  0  0  0  0  0  0  0
    2.9975    1.7865   -1.2894 N   0  0  0  0  0  0  0  0  0  0  0  0
    3.7461    1.2340   -1.6700 H   0  0  0  0  0  0  0  0  0  0  0  0
    3.0887    2.7557   -1.0614 H   0  0  0  0  0  0  0  0  0  0  0  0
   -0.0637    0.1284    1.8555 C   0  0  0  0  0  0  0  0  0  0  0  0
    1.0918   -0.0745    2.2236 O   0  0  0  0  0  0  0  0  0  0  0  0
   -1.0024    0.6217    2.6735 N   0  0  0  0  0  0  0  0  0  0  0  0
   -1.9213    0.7848    2.2938 H   0  0  0  0  0  0  0  0  0  0  0  0
   -0.7639    0.9676    4.0741 C   0  0  0  0  0  0  0  0  0  0  0  0
    0.0520    1.6916    4.1400 H   0  0  0  0  0  0  0  0  0  0  0  0
   -1.6626    1.3984    4.5182 H   0  0  0  0  0  0  0  0  0  0  0  0
   -0.4775    0.0737    4.6309 H   0  0  0  0  0  0  0  0  0  0  0  0
  5  6  2  0  0  0  0
  5  7  1  0  0  0  0
  2  3  1  0  0  0  0
  2  4  1  0  0  0  0
  2  5  1  0  0  0  0
  1  2  1  0  0  0  0
 22 23  2  0  0  0  0
 22 24  1  0  0  0  0
 19 20  1  0  0  0  0
 19 21  1  0  0  0  0
 17 18  2  0  0  0  0
 17 19  1  0  0  0  0
 14 15  1  0  0  0  0
 14 16  1  0  0  0  0
 14 17  1  0  0  0  0
 11 12  1  0  0  0  0
 11 13  1  0  0  0  0
 11 14  1  0  0  0  0
  9 10  1  0  0  0  0
  9 11  1  0  0  0  0
  9 22  1  0  0  0  0
  7  8  1  0  0  0  0
  7  9  1  0  0  0  0
 26 27  1  0  0  0  0
 26 28  1  0  0  0  0
 26 29  1  0  0  0  0
 24 25  1  0  0  0  0
 24 26  1  0  0  0  0
M  END
$$$$
default_name
  -OEChem-02102213163D

 29 28  0     1  0  0  0  0  0999 V2000
   -3.3998   -3.6239    1.3678 H   0  0  0  0  0  0  0  0  0  0  0  0
   -3.3608   -2.6749    0.8348 C   0  0  0  0  0  0  0  0  0  0  0  0
   -4.0988   -1.9909    1.2498 H   0  0  0  0  0  0  0  0  0  0  0  0
   -3.5618   -2.8419   -0.2222 H   0  0  0  0  0  0  0  0  0  0  0  0
   -1.9818   -2.0809    0.9918 C   0  0  0  0  0  0  0  0  0  0  0  0
   -1.1288   -2.6669    1.6468 O   0  0  0  0  0  0  0  0  0  0  0  0
   -1.7648   -0.9089    0.3998 N   0  0  0  0  0  0  0  0  0  0  0  0
   -2.5238   -0.4719   -0.1032 H   0  0  0  0  0  0  0  0  0  0  0  0
   -0.4848   -0.1959    0.4138 C   0  0  1  0  0  0  0  0  0  0  0  0
    0.2783   -0.8411   -0.0248 H   0  0  0  0  0  0  0  0  0  0  0  0
   -0.6101    1.0666   -0.4611 C   0  0  0  0  0  0  0  0  0  0  0  0
   -0.8724    0.7571   -1.4750 H   0  0  0  0  0  0  0  0  0  0  0  0
   -1.4185    1.6892   -0.0747 H   0  0  0  0  0  0  0  0  0  0  0  0
    0.6766    1.9075   -0.5284 C   0  0  0  0  0  0  0  0  0  0  0  0
    0.4471    2.8992   -0.9178 H   0  0  0  0  0  0  0  0  0  0  0  0
    1.0828    2.0138    0.4775 H   0  0  0  0  0  0  0  0  0  0  0  0
    1.7538    1.2883   -1.4189 C   0  0  0  0  0  0  0  0  0  0  0  0
    1.6347    0.2037   -1.9574 O   0  0  0  0  0  0  0  0  0  0  0  0
    2.8638    1.9646   -1.6208 N   0  0  0  0  0  0  0  0  0  0  0  0
    3.5365    1.5112   -2.2144 H   0  0  0  0  0  0  0  0  0  0  0  0
    3.0120    2.8615   -1.2046 H   0  0  0  0  0  0  0  0  0  0  0  0
   -0.0637    0.1284    1.8555 C   0  0  0  0  0  0  0  0  0  0  0  0
    1.0918   -0.0745    2.2236 O   0  0  0  0  0  0  0  0  0  0  0  0
   -1.0024    0.6217    2.6735 N   0  0  0  0  0  0  0  0  0  0  0  0
   -1.9213    0.7848    2.2938 H   0  0  0  0  0  0  0  0  0  0  0  0
   -0.7639    0.9676    4.0741 C   0  0  0  0  0  0  0  0  0  0  0  0
    0.0520    1.6916    4.1400 H   0  0  0  0  0  0  0  0  0  0  0  0
   -1.6626    1.3984    4.5182 H   0  0  0  0  0  0  0  0  0  0  0  0
   -0.4775    0.0737    4.6309 H   0  0  0  0  0  0  0  0  0  0  0  0
  5  6  2  0  0  0  0
  5  7  1  0  0  0  0
  2  3  1  0  0  0  0
  2  4  1  0  0  0  0
  2  5  1  0  0  0  0
  1  2  1  0  0  0  0
 22 23  2  0  0  0  0
 22 24  1  0  0  0  0
 19 20  1  0  0  0  0
 19 21  1  0  0  0  0
 17 18  2  0  0  0  0
 17 19  1  0  0  0  0
 14 15  1  0  0  0  0
 14 16  1  0  0  0  0
 14 17  1  0  0  0  0
 11 12  1  0  0  0  0
 11 13  1  0  0  0  0
 11 14  1  0  0  0  0
  9 10  1  0  0  0  0
  9 11  1  0  0  0  0
  9 22  1  0  0  0  0
  7  8  1  0  0  0  0
  7  9  1  0  0  0  0
 26 27  1  0  0  0  0
 26 28  1  0  0  0  0
 26 29  1  0  0  0  0
 24 25  1  0  0  0  0
 24 26  1  0  0  0  0
M  END
$$$$
default_name
  -OEChem-02102213163D

 29 28  0     1  0  0  0  0  0999 V2000
   -3.3998   -3.6239    1.3678 H   0  0  0  0  0  0  0  0  0  0  0  0
   -3.3608   -2.6749    0.8348 C   0  0  0  0  0  0  0  0  0  0  0  0
   -4.0988   -1.9909    1.2498 H   0  0  0  0  0  0  0  0  0  0  0  0
   -3.5618   -2.8419   -0.2222 H   0  0  0  0  0  0  0  0  0  0  0  0
   -1.9818   -2.0809    0.9918 C   0  0  0  0  0  0  0  0  0  0  0  0
   -1.1288   -2.6669    1.6468 O   0  0  0  0  0  0  0  0  0  0  0  0
   -1.7648   -0.9089    0.3998 N   0  0  0  0  0  0  0  0  0  0  0  0
   -2.5238   -0.4719   -0.1032 H   0  0  0  0  0  0  0  0  0  0  0  0
   -0.4848   -0.1959    0.4138 C   0  0  1  0  0  0  0  0  0  0  0  0
    0.2783   -0.8411   -0.0248 H   0  0  0  0  0  0  0  0  0  0  0  0
   -0.6101    1.0666   -0.4611 C   0  0  0  0  0  0  0  0  0  0  0  0
   -0.8724    0.7571   -1.4750 H   0  0  0  0  0  0  0  0  0  0  0  0
   -1.4185    1.6892   -0.0747 H   0  0  0  0  0  0  0  0  0  0  0  0
    0.6766    1.9075   -0.5284 C   0  0  0  0  0  0  0  0  0  0  0  0
    0.4216    2.9591   -0.6579 H   0  0  0  0  0  0  0  0  0  0  0  0
    1.2225    1.7944    0.4082 H   0  0  0  0  0  0  0  0  0  0  0  0
    1.6013    1.5012   -1.6758 C   0  0  0  0  0  0  0  0  0  0  0  0
    1.3788    0.5590   -2.4129 O   0  0  0  0  0  0  0  0  0  0  0  0
    2.6898    2.2099   -1.8835 N   0  0  0  0  0  0  0  0  0  0  0  0
    3.2602    1.8992   -2.6507 H   0  0  0  0  0  0  0  0  0  0  0  0
    2.9190    2.9956   -1.3091 H   0  0  0  0  0  0  0  0  0  0  0  0
   -0.0637    0.1284    1.8555 C   0  0  0  0  0  0  0  0  0  0  0  0
    1.0918   -0.0745    2.2236 O   0  0  0  0  0  0  0  0  0  0  0  0
   -1.0024    0.6217    2.6735 N   0  0  0  0  0  0  0  0  0  0  0  0
   -1.9213    0.7848    2.2938 H   0  0  0  0  0  0  0  0  0  0  0  0
   -0.7639    0.9676    4.0741 C   0  0  0  0  0  0  0  0  0  0  0  0
    0.0520    1.6916    4.1400 H   0  0  0  0  0  0  0  0  0  0  0  0
   -1.6626    1.3984    4.5182 H   0  0  0  0  0  0  0  0  0  0  0  0
   -0.4775    0.0737    4.6309 H   0  0  0  0  0  0  0  0  0  0  0  0
  5  6  2  0  0  0  0
  5  7  1  0  0  0  0
  2  3  1  0  0  0  0
  2  4  1  0  0  0  0
  2  5  1  0  0  0  0
  1  2  1  0  0  0  0
 22 23  2  0  0  0  0
 22 24  1  0  0  0  0
 19 20  1  0  0  0  0
 19 21  1  0  0  0  0
 17 18  2  0  0  0  0
 17 19  1  0  0  0  0
 14 15  1  0  0  0  0
 14 16  1  0  0  0  0
 14 17  1  0  0  0  0
 11 12  1  0  0  0  0
 11 13  1  0  0  0  0
 11 14  1  0  0  0  0
  9 10  1  0  0  0  0
  9 11  1  0  0  0  0
  9 22  1  0  0  0  0
  7  8  1  0  0  0  0
  7  9  1  0  0  0  0
 26 27  1  0  0  0  0
 26 28  1  0  0  0  0
 26 29  1  0  0  0  0
 24 25  1  0  0  0  0
 24 26  1  0  0  0  0
M  END
$$$$
default_name
  -OEChem-02102213163D

 29 28  0     1  0  0  0  0  0999 V2000
   -3.3998   -3.6239    1.3678 H   0  0  0  0  0  0  0  0  0  0  0  0
   -3.3608   -2.6749    0.8348 C   0  0  0  0  0  0  0  0  0  0  0  0
   -4.0988   -1.9909    1.2498 H   0  0  0  0  0  0  0  0  0  0  0  0
   -3.5618   -2.8419   -0.2222 H   0  0  0  0  0  0  0  0  0  0  0  0
   -1.9818   -2.0809    0.9918 C   0  0  0  0  0  0  0  0  0  0  0  0
   -1.1288   -2.6669    1.6468 O   0  0  0  0  0  0  0  0  0  0  0  0
   -1.7648   -0.9089    0.3998 N   0  0  0  0  0  0  0  0  0  0  0  0
   -2.5238   -0.4719   -0.1032 H   0  0  0  0  0  0  0  0  0  0  0  0
   -0.4848   -0.1959    0.4138 C   0  0  1  0  0  0  0  0  0  0  0  0
    0.2783   -0.8411   -0.0248 H   0  0  0  0  0  0  0  0  0  0  0  0
   -0.6101    1.0666   -0.4611 C   0  0  0  0  0  0  0  0  0  0  0  0
   -0.8724    0.7571   -1.4750 H   0  0  0  0  0  0  0  0  0  0  0  0
   -1.4185    1.6892   -0.0747 H   0  0  0  0  0  0  0  0  0  0  0  0
    0.6766    1.9075   -0.5284 C   0  0  0  0  0  0  0  0  0  0  0  0
    0.4343    2.9610   -0.3904 H   0  0  0  0  0  0  0  0  0  0  0  0
    1.3452    1.5960    0.2741 H   0  0  0  0  0  0  0  0  0  0  0  0
    1.4200    1.7641   -1.8564 C   0  0  0  0  0  0  0  0  0  0  0  0
    1.0711    1.0036   -2.7398 O   0  0  0  0  0  0  0  0  0  0  0  0
    2.4873    2.5056   -2.0595 N   0  0  0  0  0  0  0  0  0  0  0  0
    2.9360    2.3714   -2.9490 H   0  0  0  0  0  0  0  0  0  0  0  0
    2.8158    3.1487   -1.3679 H   0  0  0  0  0  0  0  0  0  0  0  0
   -0.0637    0.1284    1.8555 C   0  0  0  0  0  0  0  0  0  0  0  0
    1.0918   -0.0745    2.2236 O   0  0  0  0  0  0  0  0  0  0  0  0
   -1.0024    0.6217    2.6735 N   0  0  0  0  0  0  0  0  0  0  0  0
   -1.9213    0.7848    2.2938 H   0  0  0  0  0  0  0  0  0  0  0  0
   -0.7639    0.9676    4.0741 C   0  0  0  0  0  0  0  0  0  0  0  0
    0.0520    1.6916    4.1400 H   0  0  0  0  0  0  0  0  0  0  0  0
   -1.6626    1.3984    4.5182 H   0  0  0  0  0  0  0  0  0  0  0  0
   -0.4775    0.0737    4.6309 H   0  0  0  0  0  0  0  0  0  0  0  0
  5  6  2  0  0  0  0
  5  7  1  0  0  0  0
  2  3  1  0  0  0  0
  2  4  1  0  0  0  0
  2  5  1  0  0  0  0
  1  2  1  0  0  0  0
 22 23  2  0  0  0  0
 22 24  1  0  0  0  0
 19 20  1  0  0  0  0
 19 21  1  0  0  0  0
 17 18  2  0  0  0  0
 17 19  1  0  0  0  0
 14 15  1  0  0  0  0
 14 16  1  0  0  0  0
 14 17  1  0  0  0  0
 11 12  1  0  0  0  0
 11 13  1  0  0  0  0
 11 14  1  0  0  0  0
  9 10  1  0  0  0  0
  9 11  1  0  0  0  0
  9 22  1  0  0  0  0
  7  8  1  0  0  0  0
  7  9  1  0  0  0  0
 26 27  1  0  0  0  0
 26 28  1  0  0  0  0
 26 29  1  0  0  0  0
 24 25  1  0  0  0  0
 24 26  1  0  0  0  0
M  END
$$$$
default_name
  -OEChem-02102213163D

 29 28  0     1  0  0  0  0  0999 V2000
   -3.3998   -3.6239    1.3678 H   0  0  0  0  0  0  0  0  0  0  0  0
   -3.3608   -2.6749    0.8348 C   0  0  0  0  0  0  0  0  0  0  0  0
   -4.0988   -1.9909    1.2498 H   0  0  0  0  0  0  0  0  0  0  0  0
   -3.5618   -2.8419   -0.2222 H   0  0  0  0  0  0  0  0  0  0  0  0
   -1.9818   -2.0809    0.9918 C   0  0  0  0  0  0  0  0  0  0  0  0
   -1.1288   -2.6669    1.6468 O   0  0  0  0  0  0  0  0  0  0  0  0
   -1.7648   -0.9089    0.3998 N   0  0  0  0  0  0  0  0  0  0  0  0
   -2.5238   -0.4719   -0.1032 H   0  0  0  0  0  0  0  0  0  0  0  0
   -0.4848   -0.1959    0.4138 C   0  0  1  0  0  0  0  0  0  0  0  0
    0.2783   -0.8411   -0.0248 H   0  0  0  0  0  0  0  0  0  0  0  0
   -0.6101    1.0666   -0.4611 C   0  0  0  0  0  0  0  0  0  0  0  0
   -0.8724    0.7571   -1.4750 H   0  0  0  0  0  0  0  0  0  0  0  0
   -1.4185    1.6892   -0.0747 H   0  0  0  0  0  0  0  0  0  0  0  0
    0.6766    1.9075   -0.5284 C   0  0  0  0  0  0  0  0  0  0  0  0
    0.4845    2.9048   -0.1333 H   0  0  0  0  0  0  0  0  0  0  0  0
    1.4425    1.4319    0.0842 H   0  0  0  0  0  0  0  0  0  0  0  0
    1.2223    2.0592   -1.9482 C   0  0  0  0  0  0  0  0  0  0  0  0
    0.7327    1.5074   -2.9158 O   0  0  0  0  0  0  0  0  0  0  0  0
    2.2702    2.8317   -2.1368 N   0  0  0  0  0  0  0  0  0  0  0  0
    2.5859    2.8959   -3.0890 H   0  0  0  0  0  0  0  0  0  0  0  0
    2.7096    3.3106   -1.3770 H   0  0  0  0  0  0  0  0  0  0  0  0
   -0.0637    0.1284    1.8555 C   0  0  0  0  0  0  0  0  0  0  0  0
    1.0918   -0.0745    2.2236 O   0  0  0  0  0  0  0  0  0  0  0  0
   -1.0024    0.6217    2.6735 N   0  0  0  0  0  0  0  0  0  0  0  0
   -1.9213    0.7848    2.2938 H   0  0  0  0  0  0  0  0  0  0  0  0
   -0.7639    0.9676    4.0741 C   0  0  0  0  0  0  0  0  0  0  0  0
    0.0520    1.6916    4.1400 H   0  0  0  0  0  0  0  0  0  0  0  0
   -1.6626    1.3984    4.5182 H   0  0  0  0  0  0  0  0  0  0  0  0
   -0.4775    0.0737    4.6309 H   0  0  0  0  0  0  0  0  0  0  0  0
  5  6  2  0  0  0  0
  5  7  1  0  0  0  0
  2  3  1  0  0  0  0
  2  4  1  0  0  0  0
  2  5  1  0  0  0  0
  1  2  1  0  0  0  0
 22 23  2  0  0  0  0
 22 24  1  0  0  0  0
 19 20  1  0  0  0  0
 19 21  1  0  0  0  0
 17 18  2  0  0  0  0
 17 19  1  0  0  0  0
 14 15  1  0  0  0  0
 14 16  1  0  0  0  0
 14 17  1  0  0  0  0
 11 12  1  0  0  0  0
 11 13  1  0  0  0  0
 11 14  1  0  0  0  0
  9 10  1  0  0  0  0
  9 11  1  0  0  0  0
  9 22  1  0  0  0  0
  7  8  1  0  0  0  0
  7  9  1  0  0  0  0
 26 27  1  0  0  0  0
 26 28  1  0  0  0  0
 26 29  1  0  0  0  0
 24 25  1  0  0  0  0
 24 26  1  0  0  0  0
M  END
$$$$
default_name
  -OEChem-02102213163D

 29 28  0     1  0  0  0  0  0999 V2000
   -3.3998   -3.6239    1.3678 H   0  0  0  0  0  0  0  0  0  0  0  0
   -3.3608   -2.6749    0.8348 C   0  0  0  0  0  0  0  0  0  0  0  0
   -4.0988   -1.9909    1.2498 H   0  0  0  0  0  0  0  0  0  0  0  0
   -3.5618   -2.8419   -0.2222 H   0  0  0  0  0  0  0  0  0  0  0  0
   -1.9818   -2.0809    0.9918 C   0  0  0  0  0  0  0  0  0  0  0  0
   -1.1288   -2.6669    1.6468 O   0  0  0  0  0  0  0  0  0  0  0  0
   -1.7648   -0.9089    0.3998 N   0  0  0  0  0  0  0  0  0  0  0  0
   -2.5238   -0.4719   -0.1032 H   0  0  0  0  0  0  0  0  0  0  0  0
   -0.4848   -0.1959    0.4138 C   0  0  1  0  0  0  0  0  0  0  0  0
    0.2783   -0.8411   -0.0248 H   0  0  0  0  0  0  0  0  0  0  0  0
   -0.6101    1.0666   -0.4611 C   0  0  0  0  0  0  0  0  0  0  0  0
   -0.8724    0.7571   -1.4750 H   0  0  0  0  0  0  0  0  0  0  0  0
   -1.4185    1.6892   -0.0747 H   0  0  0  0  0  0  0  0  0  0  0  0
    0.6766    1.9075   -0.5284 C   0  0  0  0  0  0  0  0  0  0  0  0
    0.5687    2.7944    0.0957 H   0  0  0  0  0  0  0  0  0  0  0  0
    1.5077    1.3134   -0.1485 H   0  0  0  0  0  0  0  0  0  0  0  0
    1.0218    2.3664   -1.9451 C   0  0  0  0  0  0  0  0  0  0  0  0
    0.3866    2.0359   -2.9289 O   0  0  0  0  0  0  0  0  0  0  0  0
    2.0532    3.1658   -2.1102 N   0  0  0  0  0  0  0  0  0  0  0  0
    2.2340    3.4367   -3.0612 H   0  0  0  0  0  0  0  0  0  0  0  0
    2.6075    3.4700   -1.3357 H   0  0  0  0  0  0  0  0  0  0  0  0
   -0.0637    0.1284    1.8555 C   0  0  0  0  0  0  0  0  0  0  0  0
    1.0918   -0.0745    2.2236 O   0  0  0  0  0  0  0  0  0  0  0  0
   -1.0024    0.6217    2.6735 N   0  0  0  0  0  0  0  0  0  0  0  0
   -1.9213    0.7848    2.2938 H   0  0  0  0  0  0  0  0  0  0  0  0
   -0.7639    0.9676    4.0741 C   0  0  0  0  0  0  0  0  0  0  0  0
    0.0520    1.6916    4.1400 H   0  0  0  0  0  0  0  0  0  0  0  0
   -1.6626    1.3984    4.5182 H   0  0  0  0  0  0  0  0  0  0  0  0
   -0.4775    0.0737    4.6309 H   0  0  0  0  0  0  0  0  0  0  0  0
  5  6  2  0  0  0  0
  5  7  1  0  0  0  0
  2  3  1  0  0  0  0
  2  4  1  0  0  0  0
  2  5  1  0  0  0  0
  1  2  1  0  0  0  0
 22 23  2  0  0  0  0
 22 24  1  0  0  0  0
 19 20  1  0  0  0  0
 19 21  1  0  0  0  0
 17 18  2  0  0  0  0
 17 19  1  0  0  0  0
 14 15  1  0  0  0  0
 14 16  1  0  0  0  0
 14 17  1  0  0  0  0
 11 12  1  0  0  0  0
 11 13  1  0  0  0  0
 11 14  1  0  0  0  0
  9 10  1  0  0  0  0
  9 11  1  0  0  0  0
  9 22  1  0  0  0  0
  7  8  1  0  0  0  0
  7  9  1  0  0  0  0
 26 27  1  0  0  0  0
 26 28  1  0  0  0  0
 26 29  1  0  0  0  0
 24 25  1  0  0  0  0
 24 26  1  0  0  0  0
M  END
$$$$
default_name
  -OEChem-02102213163D

 29 28  0     1  0  0  0  0  0999 V2000
   -3.3998   -3.6239    1.3678 H   0  0  0  0  0  0  0  0  0  0  0  0
   -3.3608   -2.6749    0.8348 C   0  0  0  0  0  0  0  0  0  0  0  0
   -4.0988   -1.9909    1.2498 H   0  0  0  0  0  0  0  0  0  0  0  0
   -3.5618   -2.8419   -0.2222 H   0  0  0  0  0  0  0  0  0  0  0  0
   -1.9818   -2.0809    0.9918 C   0  0  0  0  0  0  0  0  0  0  0  0
   -1.1288   -2.6669    1.6468 O   0  0  0  0  0  0  0  0  0  0  0  0
   -1.7648   -0.9089    0.3998 N   0  0  0  0  0  0  0  0  0  0  0  0
   -2.5238   -0.4719   -0.1032 H   0  0  0  0  0  0  0  0  0  0  0  0
   -0.4848   -0.1959    0.4138 C   0  0  1  0  0  0  0  0  0  0  0  0
    0.2783   -0.8411   -0.0248 H   0  0  0  0  0  0  0  0  0  0  0  0
   -0.6101    1.0666   -0.4611 C   0  0  0  0  0  0  0  0  0  0  0  0
   -0.8724    0.7571   -1.4750 H   0  0  0  0  0  0  0  0  0  0  0  0
   -1.4185    1.6892   -0.0747 H   0  0  0  0  0  0  0  0  0  0  0  0
    0.6766    1.9075   -0.5284 C   0  0  0  0  0  0  0  0  0  0  0  0
    0.6811    2.6371    0.2811 H   0  0  0  0  0  0  0  0  0  0  0  0
    1.5365    1.2486   -0.4081 H   0  0  0  0  0  0  0  0  0  0  0  0
    0.8319    2.6647   -1.8472 C   0  0  0  0  0  0  0  0  0  0  0  0
    0.0565    2.5531   -2.7782 O   0  0  0  0  0  0  0  0  0  0  0  0
    1.8512    3.4853   -1.9815 N   0  0  0  0  0  0  0  0  0  0  0  0
    1.9040    3.9571   -2.8676 H   0  0  0  0  0  0  0  0  0  0  0  0
    2.5166    3.6163   -1.2468 H   0  0  0  0  0  0  0  0  0  0  0  0
   -0.0637    0.1284    1.8555 C   0  0  0  0  0  0  0  0  0  0  0  0
    1.0918   -0.0745    2.2236 O   0  0  0  0  0  0  0  0  0  0  0  0
   -1.0024    0.6217    2.6735 N   0  0  0  0  0  0  0  0  0  0  0  0
   -1.9213    0.7848    2.2938 H   0  0  0  0  0  0  0  0  0  0  0  0
   -0.7639    0.9676    4.0741 C   0  0  0  0  0  0  0  0  0  0  0  0
    0.0520    1.6916    4.1400 H   0  0  0  0  0  0  0  0  0  0  0  0
   -1.6626    1.3984    4.5182 H   0  0  0  0  0  0  0  0  0  0  0  0
   -0.4775    0.0737    4.6309 H   0  0  0  0  0  0  0  0  0  0  0  0
  5  6  2  0  0  0  0
  5  7  1  0  0  0  0
  2  3  1  0  0  0  0
  2  4  1  0  0  0  0
  2  5  1  0  0  0  0
  1  2  1  0  0  0  0
 22 23  2  0  0  0  0
 22 24  1  0  0  0  0
 19 20  1  0  0  0  0
 19 21  1  0  0  0  0
 17 18  2  0  0  0  0
 17 19  1  0  0  0  0
 14 15  1  0  0  0  0
 14 16  1  0  0  0  0
 14 17  1  0  0  0  0
 11 12  1  0  0  0  0
 11 13  1  0  0  0  0
 11 14  1  0  0  0  0
  9 10  1  0  0  0  0
  9 11  1  0  0  0  0
  9 22  1  0  0  0  0
  7  8  1  0  0  0  0
  7  9  1  0  0  0  0
 26 27  1  0  0  0  0
 26 28  1  0  0  0  0
 26 29  1  0  0  0  0
 24 25  1  0  0  0  0
 24 26  1  0  0  0  0
M  END
$$$$
default_name
  -OEChem-02102213163D

 29 28  0     1  0  0  0  0  0999 V2000
   -3.3998   -3.6239    1.3678 H   0  0  0  0  0  0  0  0  0  0  0  0
   -3.3608   -2.6749    0.8348 C   0  0  0  0  0  0  0  0  0  0  0  0
   -4.0988   -1.9909    1.2498 H   0  0  0  0  0  0  0  0  0  0  0  0
   -3.5618   -2.8419   -0.2222 H   0  0  0  0  0  0  0  0  0  0  0  0
   -1.9818   -2.0809    0.9918 C   0  0  0  0  0  0  0  0  0  0  0  0
   -1.1288   -2.6669    1.6468 O   0  0  0  0  0  0  0  0  0  0  0  0
   -1.7648   -0.9089    0.3998 N   0  0  0  0  0  0  0  0  0  0  0  0
   -2.5238   -0.4719   -0.1032 H   0  0  0  0  0  0  0  0  0  0  0  0
   -0.4848   -0.1959    0.4138 C   0  0  1  0  0  0  0  0  0  0  0  0
    0.2783   -0.8411   -0.0248 H   0  0  0  0  0  0  0  0  0  0  0  0
   -0.6101    1.0666   -0.4611 C   0  0  0  0  0  0  0  0  0  0  0  0
   -0.8724    0.7571   -1.4750 H   0  0  0  0  0  0  0  0  0  0  0  0
   -1.4185    1.6892   -0.0747 H   0  0  0  0  0  0  0  0  0  0  0  0
    0.6766    1.9075   -0.5284 C   0  0  0  0  0  0  0  0  0  0  0  0
    0.8142    2.4438    0.4103 H   0  0  0  0  0  0  0  0  0  0  0  0
    1.5268    1.2419   -0.6770 H   0  0  0  0  0  0  0  0  0  0  0  0
    0.6658    2.9338   -1.6612 C   0  0  0  0  0  0  0  0  0  0  0  0
   -0.2352    3.0238   -2.4740 O   0  0  0  0  0  0  0  0  0  0  0  0
    1.6779    3.7683   -1.7595 N   0  0  0  0  0  0  0  0  0  0  0  0
    1.6186    4.4215   -2.5212 H   0  0  0  0  0  0  0  0  0  0  0  0
    2.4430    3.7394   -1.1165 H   0  0  0  0  0  0  0  0  0  0  0  0
   -0.0637    0.1284    1.8555 C   0  0  0  0  0  0  0  0  0  0  0  0
    1.0918   -0.0745    2.2236 O   0  0  0  0  0  0  0  0  0  0  0  0
   -1.0024    0.6217    2.6735 N   0  0  0  0  0  0  0  0  0  0  0  0
   -1.9213    0.7848    2.2938 H   0  0  0  0  0  0  0  0  0  0  0  0
   -0.7639    0.9676    4.0741 C   0  0  0  0  0  0  0  0  0  0  0  0
    0.0520    1.6916    4.1400 H   0  0  0  0  0  0  0  0  0  0  0  0
   -1.6626    1.3984    4.5182 H   0  0  0  0  0  0  0  0  0  0  0  0
   -0.4775    0.0737    4.6309 H   0  0  0  0  0  0  0  0  0  0  0  0
  5  6  2  0  0  0  0
  5  7  1  0  0  0  0
  2  3  1  0  0  0  0
  2  4  1  0  0  0  0
  2  5  1  0  0  0  0
  1  2  1  0  0  0  0
 22 23  2  0  0  0  0
 22 24  1  0  0  0  0
 19 20  1  0  0  0  0
 19 21  1  0  0  0  0
 17 18  2  0  0  0  0
 17 19  1  0  0  0  0
 14 15  1  0  0  0  0
 14 16  1  0  0  0  0
 14 17  1  0  0  0  0
 11 12  1  0  0  0  0
 11 13  1  0  0  0  0
 11 14  1  0  0  0  0
  9 10  1  0  0  0  0
  9 11  1  0  0  0  0
  9 22  1  0  0  0  0
  7  8  1  0  0  0  0
  7  9  1  0  0  0  0
 26 27  1  0  0  0  0
 26 28  1  0  0  0  0
 26 29  1  0  0  0  0
 24 25  1  0  0  0  0
 24 26  1  0  0  0  0
M  END
$$$$
default_name
  -OEChem-02102213163D

 29 28  0     1  0  0  0  0  0999 V2000
   -3.3998   -3.6239    1.3678 H   0  0  0  0  0  0  0  0  0  0  0  0
   -3.3608   -2.6749    0.8348 C   0  0  0  0  0  0  0  0  0  0  0  0
   -4.0988   -1.9909    1.2498 H   0  0  0  0  0  0  0  0  0  0  0  0
   -3.5618   -2.8419   -0.2222 H   0  0  0  0  0  0  0  0  0  0  0  0
   -1.9818   -2.0809    0.9918 C   0  0  0  0  0  0  0  0  0  0  0  0
   -1.1288   -2.6669    1.6468 O   0  0  0  0  0  0  0  0  0  0  0  0
   -1.7648   -0.9089    0.3998 N   0  0  0  0  0  0  0  0  0  0  0  0
   -2.5238   -0.4719   -0.1032 H   0  0  0  0  0  0  0  0  0  0  0  0
   -0.4848   -0.1959    0.4138 C   0  0  1  0  0  0  0  0  0  0  0  0
    0.2783   -0.8411   -0.0248 H   0  0  0  0  0  0  0  0  0  0  0  0
   -0.6101    1.0666   -0.4611 C   0  0  0  0  0  0  0  0  0  0  0  0
   -1.1249    0.7944   -1.3849 H   0  0  0  0  0  0  0  0  0  0  0  0
   -1.2185    1.8049    0.0636 H   0  0  0  0  0  0  0  0  0  0  0  0
    0.7403    1.7058   -0.8287 C   0  0  0  0  0  0  0  0  0  0  0  0
    1.2735    1.9854    0.0797 H   0  0  0  0  0  0  0  0  0  0  0  0
    1.3399    0.9769   -1.3739 H   0  0  0  0  0  0  0  0  0  0  0  0
    0.5976    2.9562   -1.6962 C   0  0  0  0  0  0  0  0  0  0  0  0
   -0.4702    3.3603   -2.1171 O   0  0  0  0  0  0  0  0  0  0  0  0
    1.6826    3.6360   -1.9979 N   0  0  0  0  0  0  0  0  0  0  0  0
    1.5306    4.4489   -2.5693 H   0  0  0  0  0  0  0  0  0  0  0  0
    2.5848    3.3495   -1.6759 H   0  0  0  0  0  0  0  0  0  0  0  0
   -0.0637    0.1284    1.8555 C   0  0  0  0  0  0  0  0  0  0  0  0
    1.0918   -0.0745    2.2236 O   0  0  0  0  0  0  0  0  0  0  0  0
   -1.0024    0.6217    2.6735 N   0  0  0  0  0  0  0  0  0  0  0  0
   -1.9213    0.7848    2.2938 H   0  0  0  0  0  0  0  0  0  0  0  0
   -0.7639    0.9676    4.0741 C   0  0  0  0  0  0  0  0  0  0  0  0
    0.0520    1.6916    4.1400 H   0  0  0  0  0  0  0  0  0  0  0  0
   -1.6626    1.3984    4.5182 H   0  0  0  0  0  0  0  0  0  0  0  0
   -0.4775    0.0737    4.6309 H   0  0  0  0  0  0  0  0  0  0  0  0
  5  6  2  0  0  0  0
  5  7  1  0  0  0  0
  2  3  1  0  0  0  0
  2  4  1  0  0  0  0
  2  5  1  0  0  0  0
  1  2  1  0  0  0  0
 22 23  2  0  0  0  0
 22 24  1  0  0  0  0
 19 20  1  0  0  0  0
 19 21  1  0  0  0  0
 17 18  2  0  0  0  0
 17 19  1  0  0  0  0
 14 15  1  0  0  0  0
 14 16  1  0  0  0  0
 14 17  1  0  0  0  0
 11 12  1  0  0  0  0
 11 13  1  0  0  0  0
 11 14  1  0  0  0  0
  9 10  1  0  0  0  0
  9 11  1  0  0  0  0
  9 22  1  0  0  0  0
  7  8  1  0  0  0  0
  7  9  1  0  0  0  0
 26 27  1  0  0  0  0
 26 28  1  0  0  0  0
 26 29  1  0  0  0  0
 24 25  1  0  0  0  0
 24 26  1  0  0  0  0
M  END
$$$$
default_name
  -OEChem-02102213163D

 29 28  0     1  0  0  0  0  0999 V2000
   -3.3998   -3.6239    1.3678 H   0  0  0  0  0  0  0  0  0  0  0  0
   -3.3608   -2.6749    0.8348 C   0  0  0  0  0  0  0  0  0  0  0  0
   -4.0988   -1.9909    1.2498 H   0  0  0  0  0  0  0  0  0  0  0  0
   -3.5618   -2.8419   -0.2222 H   0  0  0  0  0  0  0  0  0  0  0  0
   -1.9818   -2.0809    0.9918 C   0  0  0  0  0  0  0  0  0  0  0  0
   -1.1288   -2.6669    1.6468 O   0  0  0  0  0  0  0  0  0  0  0  0
   -1.7648   -0.9089    0.3998 N   0  0  0  0  0  0  0  0  0  0  0  0
   -2.5238   -0.4719   -0.1032 H   0  0  0  0  0  0  0  0  0  0  0  0
   -0.4848   -0.1959    0.4138 C   0  0  1  0  0  0  0  0  0  0  0  0
    0.2783   -0.8411   -0.0248 H   0  0  0  0  0  0  0  0  0  0  0  0
   -0.6101    1.0666   -0.4611 C   0  0  0  0  0  0  0  0  0  0  0  0
   -1.1249    0.7944   -1.3849 H   0  0  0  0  0  0  0  0  0  0  0  0
   -1.2185    1.8049    0.0636 H   0  0  0  0  0  0  0  0  0  0  0  0
    0.7403    1.7058   -0.8287 C   0  0  0  0  0  0  0  0  0  0  0  0
    1.3812    1.7417    0.0520 H   0  0  0  0  0  0  0  0  0  0  0  0
    1.2264    1.0935   -1.5883 H   0  0  0  0  0  0  0  0  0  0  0  0
    0.6045    3.1280   -1.3721 C   0  0  0  0  0  0  0  0  0  0  0  0
   -0.4672    3.6705   -1.5666 O   0  0  0  0  0  0  0  0  0  0  0  0
    1.7012    3.8045   -1.6364 N   0  0  0  0  0  0  0  0  0  0  0  0
    1.5534    4.7338   -1.9901 H   0  0  0  0  0  0  0  0  0  0  0  0
    2.6074    3.4073   -1.4923 H   0  0  0  0  0  0  0  0  0  0  0  0
   -0.0637    0.1284    1.8555 C   0  0  0  0  0  0  0  0  0  0  0  0
    1.0918   -0.0745    2.2236 O   0  0  0  0  0  0  0  0  0  0  0  0
   -1.0024    0.6217    2.6735 N   0  0  0  0  0  0  0  0  0  0  0  0
   -1.9213    0.7848    2.2938 H   0  0  0  0  0  0  0  0  0  0  0  0
   -0.7639    0.9676    4.0741 C   0  0  0  0  0  0  0  0  0  0  0  0
    0.0520    1.6916    4.1400 H   0  0  0  0  0  0  0  0  0  0  0  0
   -1.6626    1.3984    4.5182 H   0  0  0  0  0  0  0  0  0  0  0  0
   -0.4775    0.0737    4.6309 H   0  0  0  0  0  0  0  0  0  0  0  0
  5  6  2  0  0  0  0
  5  7  1  0  0  0  0
  2  3  1  0  0  0  0
  2  4  1  0  0  0  0
  2  5  1  0  0  0  0
  1  2  1  0  0  0  0
 22 23  2  0  0  0  0
 22 24  1  0  0  0  0
 19 20  1  0  0  0  0
 19 21  1  0  0  0  0
 17 18  2  0  0  0  0
 17 19  1  0  0  0  0
 14 15  1  0  0  0  0
 14 16  1  0  0  0  0
 14 17  1  0  0  0  0
 11 12  1  0  0  0  0
 11 13  1  0  0  0  0
 11 14  1  0  0  0  0
  9 10  1  0  0  0  0
  9 11  1  0  0  0  0
  9 22  1  0  0  0  0
  7  8  1  0  0  0  0
  7  9  1  0  0  0  0
 26 27  1  0  0  0  0
 26 28  1  0  0  0  0
 26 29  1  0  0  0  0
 24 25  1  0  0  0  0
 24 26  1  0  0  0  0
M  END
$$$$
default_name
  -OEChem-02102213163D

 29 28  0     1  0  0  0  0  0999 V2000
   -3.3998   -3.6239    1.3678 H   0  0  0  0  0  0  0  0  0  0  0  0
   -3.3608   -2.6749    0.8348 C   0  0  0  0  0  0  0  0  0  0  0  0
   -4.0988   -1.9909    1.2498 H   0  0  0  0  0  0  0  0  0  0  0  0
   -3.5618   -2.8419   -0.2222 H   0  0  0  0  0  0  0  0  0  0  0  0
   -1.9818   -2.0809    0.9918 C   0  0  0  0  0  0  0  0  0  0  0  0
   -1.1288   -2.6669    1.6468 O   0  0  0  0  0  0  0  0  0  0  0  0
   -1.7648   -0.9089    0.3998 N   0  0  0  0  0  0  0  0  0  0  0  0
   -2.5238   -0.4719   -0.1032 H   0  0  0  0  0  0  0  0  0  0  0  0
   -0.4848   -0.1959    0.4138 C   0  0  1  0  0  0  0  0  0  0  0  0
    0.2783   -0.8411   -0.0248 H   0  0  0  0  0  0  0  0  0  0  0  0
   -0.6101    1.0666   -0.4611 C   0  0  0  0  0  0  0  0  0  0  0  0
   -1.1249    0.7944   -1.3849 H   0  0  0  0  0  0  0  0  0  0  0  0
   -1.2185    1.8049    0.0636 H   0  0  0  0  0  0  0  0  0  0  0  0
    0.7403    1.7058   -0.8287 C   0  0  0  0  0  0  0  0  0  0  0  0
    1.4673    1.5060   -0.0417 H   0  0  0  0  0  0  0  0  0  0  0  0
    1.1009    1.2619   -1.7566 H   0  0  0  0  0  0  0  0  0  0  0  0
    0.6566    3.2199   -1.0208 C   0  0  0  0  0  0  0  0  0  0  0  0
   -0.3859    3.8449   -0.9648 O   0  0  0  0  0  0  0  0  0  0  0  0
    1.7684    3.8841   -1.2509 N   0  0  0  0  0  0  0  0  0  0  0  0
    1.6553    4.8760   -1.3684 H   0  0  0  0  0  0  0  0  0  0  0  0
    2.6525    3.4201   -1.3043 H   0  0  0  0  0  0  0  0  0  0  0  0
   -0.0637    0.1284    1.8555 C   0  0  0  0  0  0  0  0  0  0  0  0
    1.0918   -0.0745    2.2236 O   0  0  0  0  0  0  0  0  0  0  0  0
   -1.0024    0.6217    2.6735 N   0  0  0  0  0  0  0  0  0  0  0  0
   -1.9213    0.7848    2.2938 H   0  0  0  0  0  0  0  0  0  0  0  0
   -0.7639    0.9676    4.0741 C   0  0  0  0  0  0  0  0  0  0  0  0
    0.0520    1.6916    4.1400 H   0  0  0  0  0  0  0  0  0  0  0  0
   -1.6626    1.3984    4.5182 H   0  0  0  0  0  0  0  0  0  0  0  0
   -0.4775    0.0737    4.6309 H   0  0  0  0  0  0  0  0  0  0  0  0
  5  6  2  0  0  0  0
  5  7  1  0  0  0  0
  2  3  1  0  0  0  0
  2  4  1  0  0  0  0
  2  5  1  0  0  0  0
  1  2  1  0  0  0  0
 22 23  2  0  0  0  0
 22 24  1  0  0  0  0
 19 20  1  0  0  0  0
 19 21  1  0  0  0  0
 17 18  2  0  0  0  0
 17 19  1  0  0  0  0
 14 15  1  0  0  0  0
 14 16  1  0  0  0  0
 14 17  1  0  0  0  0
 11 12  1  0  0  0  0
 11 13  1  0  0  0  0
 11 14  1  0  0  0  0
  9 10  1  0  0  0  0
  9 11  1  0  0  0  0
  9 22  1  0  0  0  0
  7  8  1  0  0  0  0
  7  9  1  0  0  0  0
 26 27  1  0  0  0  0
 26 28  1  0  0  0  0
 26 29  1  0  0  0  0
 24 25  1  0  0  0  0
 24 26  1  0  0  0  0
M  END
$$$$
default_name
  -OEChem-02102213163D

 29 28  0     1  0  0  0  0  0999 V2000
   -3.3998   -3.6239    1.3678 H   0  0  0  0  0  0  0  0  0  0  0  0
   -3.3608   -2.6749    0.8348 C   0  0  0  0  0  0  0  0  0  0  0  0
   -4.0988   -1.9909    1.2498 H   0  0  0  0  0  0  0  0  0  0  0  0
   -3.5618   -2.8419   -0.2222 H   0  0  0  0  0  0  0  0  0  0  0  0
   -1.9818   -2.0809    0.9918 C   0  0  0  0  0  0  0  0  0  0  0  0
   -1.1288   -2.6669    1.6468 O   0  0  0  0  0  0  0  0  0  0  0  0
   -1.7648   -0.9089    0.3998 N   0  0  0  0  0  0  0  0  0  0  0  0
   -2.5238   -0.4719   -0.1032 H   0  0  0  0  0  0  0  0  0  0  0  0
   -0.4848   -0.1959    0.4138 C   0  0  1  0  0  0  0  0  0  0  0  0
    0.2783   -0.8411   -0.0248 H   0  0  0  0  0  0  0  0  0  0  0  0
   -0.6101    1.0666   -0.4611 C   0  0  0  0  0  0  0  0  0  0  0  0
   -1.1249    0.7944   -1.3849 H   0  0  0  0  0  0  0  0  0  0  0  0
   -1.2185    1.8049    0.0636 H   0  0  0  0  0  0  0  0  0  0  0  0
    0.7403    1.7058   -0.8287 C   0  0  0  0  0  0  0  0  0  0  0  0
    1.5257    1.2943   -0.1951 H   0  0  0  0  0  0  0  0  0  0  0  0
    0.9719    1.4705   -1.8674 H   0  0  0  0  0  0  0  0  0  0  0  0
    0.7504    3.2257   -0.6662 C   0  0  0  0  0  0  0  0  0  0  0  0
   -0.2319    3.8716   -0.3526 O   0  0  0  0  0  0  0  0  0  0  0  0
    1.8798    3.8692   -0.8678 N   0  0  0  0  0  0  0  0  0  0  0  0
    1.8294    4.8658   -0.7465 H   0  0  0  0  0  0  0  0  0  0  0  0
    2.7171    3.3869   -1.1246 H   0  0  0  0  0  0  0  0  0  0  0  0
   -0.0637    0.1284    1.8555 C   0  0  0  0  0  0  0  0  0  0  0  0
    1.0918   -0.0745    2.2236 O   0  0  0  0  0  0  0  0  0  0  0  0
   -1.0024    0.6217    2.6735 N   0  0  0  0  0  0  0  0  0  0  0  0
   -1.9213    0.7848    2.2938 H   0  0  0  0  0  0  0  0  0  0  0  0
   -0.7639    0.9676    4.0741 C   0  0  0  0  0  0  0  0  0  0  0  0
    0.0520    1.6916    4.1400 H   0  0  0  0  0  0  0  0  0  0  0  0
   -1.6626    1.3984    4.5182 H   0  0  0  0  0  0  0  0  0  0  0  0
   -0.4775    0.0737    4.6309 H   0  0  0  0  0  0  0  0  0  0  0  0
  5  6  2  0  0  0  0
  5  7  1  0  0  0  0
  2  3  1  0  0  0  0
  2  4  1  0  0  0  0
  2  5  1  0  0  0  0
  1  2  1  0  0  0  0
 22 23  2  0  0  0  0
 22 24  1  0  0  0  0
 19 20  1  0  0  0  0
 19 21  1  0  0  0  0
 17 18  2  0  0  0  0
 17 19  1  0  0  0  0
 14 15  1  0  0  0  0
 14 16  1  0  0  0  0
 14 17  1  0  0  0  0
 11 12  1  0  0  0  0
 11 13  1  0  0  0  0
 11 14  1  0  0  0  0
  9 10  1  0  0  0  0
  9 11  1  0  0  0  0
  9 22  1  0  0  0  0
  7  8  1  0  0  0  0
  7  9  1  0  0  0  0
 26 27  1  0  0  0  0
 26 28  1  0  0  0  0
 26 29  1  0  0  0  0
 24 25  1  0  0  0  0
 24 26  1  0  0  0  0
M  END
$$$$
default_name
  -OEChem-02102213163D

 29 28  0     1  0  0  0  0  0999 V2000
   -3.3998   -3.6239    1.3678 H   0  0  0  0  0  0  0  0  0  0  0  0
   -3.3608   -2.6749    0.8348 C   0  0  0  0  0  0  0  0  0  0  0  0
   -4.0988   -1.9909    1.2498 H   0  0  0  0  0  0  0  0  0  0  0  0
   -3.5618   -2.8419   -0.2222 H   0  0  0  0  0  0  0  0  0  0  0  0
   -1.9818   -2.0809    0.9918 C   0  0  0  0  0  0  0  0  0  0  0  0
   -1.1288   -2.6669    1.6468 O   0  0  0  0  0  0  0  0  0  0  0  0
   -1.7648   -0.9089    0.3998 N   0  0  0  0  0  0  0  0  0  0  0  0
   -2.5238   -0.4719   -0.1032 H   0  0  0  0  0  0  0  0  0  0  0  0
   -0.4848   -0.1959    0.4138 C   0  0  1  0  0  0  0  0  0  0  0  0
    0.2783   -0.8411   -0.0248 H   0  0  0  0  0  0  0  0  0  0  0  0
   -0.6101    1.0666   -0.4611 C   0  0  0  0  0  0  0  0  0  0  0  0
   -1.1249    0.7944   -1.3849 H   0  0  0  0  0  0  0  0  0  0  0  0
   -1.2185    1.8049    0.0636 H   0  0  0  0  0  0  0  0  0  0  0  0
    0.7403    1.7058   -0.8287 C   0  0  0  0  0  0  0  0  0  0  0  0
    1.5526    1.1210   -0.3976 H   0  0  0  0  0  0  0  0  0  0  0  0
    0.8484    1.7052   -1.9133 H   0  0  0  0  0  0  0  0  0  0  0  0
    0.8795    3.1449   -0.3324 C   0  0  0  0  0  0  0  0  0  0  0  0
   -0.0156    3.7488    0.2283 O   0  0  0  0  0  0  0  0  0  0  0  0
    2.0276    3.7609   -0.5130 N   0  0  0  0  0  0  0  0  0  0  0  0
    2.0638    4.7040   -0.1668 H   0  0  0  0  0  0  0  0  0  0  0  0
    2.7968    3.3101   -0.9655 H   0  0  0  0  0  0  0  0  0  0  0  0
   -0.0637    0.1284    1.8555 C   0  0  0  0  0  0  0  0  0  0  0  0
    1.0918   -0.0745    2.2236 O   0  0  0  0  0  0  0  0  0  0  0  0
   -1.0024    0.6217    2.6735 N   0  0  0  0  0  0  0  0  0  0  0  0
   -1.9213    0.7848    2.2938 H   0  0  0  0  0  0  0  0  0  0  0  0
   -0.7639    0.9676    4.0741 C   0  0  0  0  0  0  0  0  0  0  0  0
    0.0520    1.6916    4.1400 H   0  0  0  0  0  0  0  0  0  0  0  0
   -1.6626    1.3984    4.5182 H   0  0  0  0  0  0  0  0  0  0  0  0
   -0.4775    0.0737    4.6309 H   0  0  0  0  0  0  0  0  0  0  0  0
  5  6  2  0  0  0  0
  5  7  1  0  0  0  0
  2  3  1  0  0  0  0
  2  4  1  0  0  0  0
  2  5  1  0  0  0  0
  1  2  1  0  0  0  0
 22 23  2  0  0  0  0
 22 24  1  0  0  0  0
 19 20  1  0  0  0  0
 19 21  1  0  0  0  0
 17 18  2  0  0  0  0
 17 19  1  0  0  0  0
 14 15  1  0  0  0  0
 14 16  1  0  0  0  0
 14 17  1  0  0  0  0
 11 12  1  0  0  0  0
 11 13  1  0  0  0  0
 11 14  1  0  0  0  0
  9 10  1  0  0  0  0
  9 11  1  0  0  0  0
  9 22  1  0  0  0  0
  7  8  1  0  0  0  0
  7  9  1  0  0  0  0
 26 27  1  0  0  0  0
 26 28  1  0  0  0  0
 26 29  1  0  0  0  0
 24 25  1  0  0  0  0
 24 26  1  0  0  0  0
M  END
$$$$
default_name
  -OEChem-02102213163D

 29 28  0     1  0  0  0  0  0999 V2000
   -3.3998   -3.6239    1.3678 H   0  0  0  0  0  0  0  0  0  0  0  0
   -3.3608   -2.6749    0.8348 C   0  0  0  0  0  0  0  0  0  0  0  0
   -4.0988   -1.9909    1.2498 H   0  0  0  0  0  0  0  0  0  0  0  0
   -3.5618   -2.8419   -0.2222 H   0  0  0  0  0  0  0  0  0  0  0  0
   -1.9818   -2.0809    0.9918 C   0  0  0  0  0  0  0  0  0  0  0  0
   -1.1288   -2.6669    1.6468 O   0  0  0  0  0  0  0  0  0  0  0  0
   -1.7648   -0.9089    0.3998 N   0  0  0  0  0  0  0  0  0  0  0  0
   -2.5238   -0.4719   -0.1032 H   0  0  0  0  0  0  0  0  0  0  0  0
   -0.4848   -0.1959    0.4138 C   0  0  1  0  0  0  0  0  0  0  0  0
    0.2783   -0.8411   -0.0248 H   0  0  0  0  0  0  0  0  0  0  0  0
   -0.6101    1.0666   -0.4611 C   0  0  0  0  0  0  0  0  0  0  0  0
   -1.1249    0.7944   -1.3849 H   0  0  0  0  0  0  0  0  0  0  0  0
   -1.2185    1.8049    0.0636 H   0  0  0  0  0  0  0  0  0  0  0  0
    0.7403    1.7058   -0.8287 C   0  0  0  0  0  0  0  0  0  0  0  0
    1.5461    0.9980   -0.6354 H   0  0  0  0  0  0  0  0  0  0  0  0
    0.7387    1.9499   -1.8909 H   0  0  0  0  0  0  0  0  0  0  0  0
    1.0351    2.9830   -0.0423 C   0  0  0  0  0  0  0  0  0  0  0  0
    0.2481    3.4849    0.7382 O   0  0  0  0  0  0  0  0  0  0  0  0
    2.2018    3.5666   -0.2108 N   0  0  0  0  0  0  0  0  0  0  0  0
    2.3425    4.4015    0.3311 H   0  0  0  0  0  0  0  0  0  0  0  0
    2.8861    3.1948   -0.8379 H   0  0  0  0  0  0  0  0  0  0  0  0
   -0.0637    0.1284    1.8555 C   0  0  0  0  0  0  0  0  0  0  0  0
    1.0918   -0.0745    2.2236 O   0  0  0  0  0  0  0  0  0  0  0  0
   -1.0024    0.6217    2.6735 N   0  0  0  0  0  0  0  0  0  0  0  0
   -1.9213    0.7848    2.2938 H   0  0  0  0  0  0  0  0  0  0  0  0
   -0.7639    0.9676    4.0741 C   0  0  0  0  0  0  0  0  0  0  0  0
    0.0520    1.6916    4.1400 H   0  0  0  0  0  0  0  0  0  0  0  0
   -1.6626    1.3984    4.5182 H   0  0  0  0  0  0  0  0  0  0  0  0
   -0.4775    0.0737    4.6309 H   0  0  0  0  0  0  0  0  0  0  0  0
  5  6  2  0  0  0  0
  5  7  1  0  0  0  0
  2  3  1  0  0  0  0
  2  4  1  0  0  0  0
  2  5  1  0  0  0  0
  1  2  1  0  0  0  0
 22 23  2  0  0  0  0
 22 24  1  0  0  0  0
 19 20  1  0  0  0  0
 19 21  1  0  0  0  0
 17 18  2  0  0  0  0
 17 19  1  0  0  0  0
 14 15  1  0  0  0  0
 14 16  1  0  0  0  0
 14 17  1  0  0  0  0
 11 12  1  0  0  0  0
 11 13  1  0  0  0  0
 11 14  1  0  0  0  0
  9 10  1  0  0  0  0
  9 11  1  0  0  0  0
  9 22  1  0  0  0  0
  7  8  1  0  0  0  0
  7  9  1  0  0  0  0
 26 27  1  0  0  0  0
 26 28  1  0  0  0  0
 26 29  1  0  0  0  0
 24 25  1  0  0  0  0
 24 26  1  0  0  0  0
M  END
$$$$
default_name
  -OEChem-02102213163D

 29 28  0     1  0  0  0  0  0999 V2000
   -3.3998   -3.6239    1.3678 H   0  0  0  0  0  0  0  0  0  0  0  0
   -3.3608   -2.6749    0.8348 C   0  0  0  0  0  0  0  0  0  0  0  0
   -4.0988   -1.9909    1.2498 H   0  0  0  0  0  0  0  0  0  0  0  0
   -3.5618   -2.8419   -0.2222 H   0  0  0  0  0  0  0  0  0  0  0  0
   -1.9818   -2.0809    0.9918 C   0  0  0  0  0  0  0  0  0  0  0  0
   -1.1288   -2.6669    1.6468 O   0  0  0  0  0  0  0  0  0  0  0  0
   -1.7648   -0.9089    0.3998 N   0  0  0  0  0  0  0  0  0  0  0  0
   -2.5238   -0.4719   -0.1032 H   0  0  0  0  0  0  0  0  0  0  0  0
   -0.4848   -0.1959    0.4138 C   0  0  1  0  0  0  0  0  0  0  0  0
    0.2783   -0.8411   -0.0248 H   0  0  0  0  0  0  0  0  0  0  0  0
   -0.6101    1.0666   -0.4611 C   0  0  0  0  0  0  0  0  0  0  0  0
   -1.1249    0.7944   -1.3849 H   0  0  0  0  0  0  0  0  0  0  0  0
   -1.2185    1.8049    0.0636 H   0  0  0  0  0  0  0  0  0  0  0  0
    0.7403    1.7058   -0.8287 C   0  0  0  0  0  0  0  0  0  0  0  0
    1.5067    0.9336   -0.8924 H   0  0  0  0  0  0  0  0  0  0  0  0
    0.6502    2.1880   -1.8020 H   0  0  0  0  0  0  0  0  0  0  0  0
    1.2066    2.7511    0.1845 C   0  0  0  0  0  0  0  0  0  0  0  0
    0.5413    3.0978    1.1425 O   0  0  0  0  0  0  0  0  0  0  0  0
    2.3906    3.2995    0.0182 N   0  0  0  0  0  0  0  0  0  0  0  0
    2.6465    3.9789    0.7134 H   0  0  0  0  0  0  0  0  0  0  0  0
    2.9789    3.0489   -0.7504 H   0  0  0  0  0  0  0  0  0  0  0  0
   -0.0637    0.1284    1.8555 C   0  0  0  0  0  0  0  0  0  0  0  0
    1.0918   -0.0745    2.2236 O   0  0  0  0  0  0  0  0  0  0  0  0
   -1.0024    0.6217    2.6735 N   0  0  0  0  0  0  0  0  0  0  0  0
   -1.9213    0.7848    2.2938 H   0  0  0  0  0  0  0  0  0  0  0  0
   -0.7639    0.9676    4.0741 C   0  0  0  0  0  0  0  0  0  0  0  0
    0.0520    1.6916    4.1400 H   0  0  0  0  0  0  0  0  0  0  0  0
   -1.6626    1.3984    4.5182 H   0  0  0  0  0  0  0  0  0  0  0  0
   -0.4775    0.0737    4.6309 H   0  0  0  0  0  0  0  0  0  0  0  0
  5  6  2  0  0  0  0
  5  7  1  0  0  0  0
  2  3  1  0  0  0  0
  2  4  1  0  0  0  0
  2  5  1  0  0  0  0
  1  2  1  0  0  0  0
 22 23  2  0  0  0  0
 22 24  1  0  0  0  0
 19 20  1  0  0  0  0
 19 21  1  0  0  0  0
 17 18  2  0  0  0  0
 17 19  1  0  0  0  0
 14 15  1  0  0  0  0
 14 16  1  0  0  0  0
 14 17  1  0  0  0  0
 11 12  1  0  0  0  0
 11 13  1  0  0  0  0
 11 14  1  0  0  0  0
  9 10  1  0  0  0  0
  9 11  1  0  0  0  0
  9 22  1  0  0  0  0
  7  8  1  0  0  0  0
  7  9  1  0  0  0  0
 26 27  1  0  0  0  0
 26 28  1  0  0  0  0
 26 29  1  0  0  0  0
 24 25  1  0  0  0  0
 24 26  1  0  0  0  0
M  END
$$$$
default_name
  -OEChem-02102213163D

 29 28  0     1  0  0  0  0  0999 V2000
   -3.3998   -3.6239    1.3678 H   0  0  0  0  0  0  0  0  0  0  0  0
   -3.3608   -2.6749    0.8348 C   0  0  0  0  0  0  0  0  0  0  0  0
   -4.0988   -1.9909    1.2498 H   0  0  0  0  0  0  0  0  0  0  0  0
   -3.5618   -2.8419   -0.2222 H   0  0  0  0  0  0  0  0  0  0  0  0
   -1.9818   -2.0809    0.9918 C   0  0  0  0  0  0  0  0  0  0  0  0
   -1.1288   -2.6669    1.6468 O   0  0  0  0  0  0  0  0  0  0  0  0
   -1.7648   -0.9089    0.3998 N   0  0  0  0  0  0  0  0  0  0  0  0
   -2.5238   -0.4719   -0.1032 H   0  0  0  0  0  0  0  0  0  0  0  0
   -0.4848   -0.1959    0.4138 C   0  0  1  0  0  0  0  0  0  0  0  0
    0.2783   -0.8411   -0.0248 H   0  0  0  0  0  0  0  0  0  0  0  0
   -0.6101    1.0666   -0.4611 C   0  0  0  0  0  0  0  0  0  0  0  0
   -1.1249    0.7944   -1.3849 H   0  0  0  0  0  0  0  0  0  0  0  0
   -1.2185    1.8049    0.0636 H   0  0  0  0  0  0  0  0  0  0  0  0
    0.7403    1.7058   -0.8287 C   0  0  0  0  0  0  0  0  0  0  0  0
    1.4369    0.9322   -1.1510 H   0  0  0  0  0  0  0  0  0  0  0  0
    0.5890    2.4033   -1.6525 H   0  0  0  0  0  0  0  0  0  0  0  0
    1.3822    2.4650    0.3324 C   0  0  0  0  0  0  0  0  0  0  0  0
    0.8441    2.6139    1.4135 O   0  0  0  0  0  0  0  0  0  0  0  0
    2.5810    2.9778    0.1584 N   0  0  0  0  0  0  0  0  0  0  0  0
    2.9552    3.4651    0.9540 H   0  0  0  0  0  0  0  0  0  0  0  0
    3.0690    2.8824   -0.7090 H   0  0  0  0  0  0  0  0  0  0  0  0
   -0.0637    0.1284    1.8555 C   0  0  0  0  0  0  0  0  0  0  0  0
    1.0918   -0.0745    2.2236 O   0  0  0  0  0  0  0  0  0  0  0  0
   -1.0024    0.6217    2.6735 N   0  0  0  0  0  0  0  0  0  0  0  0
   -1.9213    0.7848    2.2938 H   0  0  0  0  0  0  0  0  0  0  0  0
   -0.7639    0.9676    4.0741 C   0  0  0  0  0  0  0  0  0  0  0  0
    0.0520    1.6916    4.1400 H   0  0  0  0  0  0  0  0  0  0  0  0
   -1.6626    1.3984    4.5182 H   0  0  0  0  0  0  0  0  0  0  0  0
   -0.4775    0.0737    4.6309 H   0  0  0  0  0  0  0  0  0  0  0  0
  5  6  2  0  0  0  0
  5  7  1  0  0  0  0
  2  3  1  0  0  0  0
  2  4  1  0  0  0  0
  2  5  1  0  0  0  0
  1  2  1  0  0  0  0
 22 23  2  0  0  0  0
 22 24  1  0  0  0  0
 19 20  1  0  0  0  0
 19 21  1  0  0  0  0
 17 18  2  0  0  0  0
 17 19  1  0  0  0  0
 14 15  1  0  0  0  0
 14 16  1  0  0  0  0
 14 17  1  0  0  0  0
 11 12  1  0  0  0  0
 11 13  1  0  0  0  0
 11 14  1  0  0  0  0
  9 10  1  0  0  0  0
  9 11  1  0  0  0  0
  9 22  1  0  0  0  0
  7  8  1  0  0  0  0
  7  9  1  0  0  0  0
 26 27  1  0  0  0  0
 26 28  1  0  0  0  0
 26 29  1  0  0  0  0
 24 25  1  0  0  0  0
 24 26  1  0  0  0  0
M  END
$$$$
default_name
  -OEChem-02102213163D

 29 28  0     1  0  0  0  0  0999 V2000
   -3.3998   -3.6239    1.3678 H   0  0  0  0  0  0  0  0  0  0  0  0
   -3.3608   -2.6749    0.8348 C   0  0  0  0  0  0  0  0  0  0  0  0
   -4.0988   -1.9909    1.2498 H   0  0  0  0  0  0  0  0  0  0  0  0
   -3.5618   -2.8419   -0.2222 H   0  0  0  0  0  0  0  0  0  0  0  0
   -1.9818   -2.0809    0.9918 C   0  0  0  0  0  0  0  0  0  0  0  0
   -1.1288   -2.6669    1.6468 O   0  0  0  0  0  0  0  0  0  0  0  0
   -1.7648   -0.9089    0.3998 N   0  0  0  0  0  0  0  0  0  0  0  0
   -2.5238   -0.4719   -0.1032 H   0  0  0  0  0  0  0  0  0  0  0  0
   -0.4848   -0.1959    0.4138 C   0  0  1  0  0  0  0  0  0  0  0  0
    0.2783   -0.8411   -0.0248 H   0  0  0  0  0  0  0  0  0  0  0  0
   -0.6101    1.0666   -0.4611 C   0  0  0  0  0  0  0  0  0  0  0  0
   -1.1249    0.7944   -1.3849 H   0  0  0  0  0  0  0  0  0  0  0  0
   -1.2185    1.8049    0.0636 H   0  0  0  0  0  0  0  0  0  0  0  0
    0.7403    1.7058   -0.8287 C   0  0  0  0  0  0  0  0  0  0  0  0
    1.3417    0.9939   -1.3937 H   0  0  0  0  0  0  0  0  0  0  0  0
    0.5593    2.5810   -1.4525 H   0  0  0  0  0  0  0  0  0  0  0  0
    1.5501    2.1442    0.3914 C   0  0  0  0  0  0  0  0  0  0  0  0
    1.1357    2.0663    1.5328 O   0  0  0  0  0  0  0  0  0  0  0  0
    2.7601    2.6234    0.2003 N   0  0  0  0  0  0  0  0  0  0  0  0
    3.2474    2.8951    1.0365 H   0  0  0  0  0  0  0  0  0  0  0  0
    3.1502    2.7065   -0.7165 H   0  0  0  0  0  0  0  0  0  0  0  0
   -0.0637    0.1284    1.8555 C   0  0  0  0  0  0  0  0  0  0  0  0
    1.0918   -0.0745    2.2236 O   0  0  0  0  0  0  0  0  0  0  0  0
   -1.0024    0.6217    2.6735 N   0  0  0  0  0  0  0  0  0  0  0  0
   -1.9213    0.7848    2.2938 H   0  0  0  0  0  0  0  0  0  0  0  0
   -0.7639    0.9676    4.0741 C   0  0  0  0  0  0  0  0  0  0  0  0
    0.0520    1.6916    4.1400 H   0  0  0  0  0  0  0  0  0  0  0  0
   -1.6626    1.3984    4.5182 H   0  0  0  0  0  0  0  0  0  0  0  0
   -0.4775    0.0737    4.6309 H   0  0  0  0  0  0  0  0  0  0  0  0
  5  6  2  0  0  0  0
  5  7  1  0  0  0  0
  2  3  1  0  0  0  0
  2  4  1  0  0  0  0
  2  5  1  0  0  0  0
  1  2  1  0  0  0  0
 22 23  2  0  0  0  0
 22 24  1  0  0  0  0
 19 20  1  0  0  0  0
 19 21  1  0  0  0  0
 17 18  2  0  0  0  0
 17 19  1  0  0  0  0
 14 15  1  0  0  0  0
 14 16  1  0  0  0  0
 14 17  1  0  0  0  0
 11 12  1  0  0  0  0
 11 13  1  0  0  0  0
 11 14  1  0  0  0  0
  9 10  1  0  0  0  0
  9 11  1  0  0  0  0
  9 22  1  0  0  0  0
  7  8  1  0  0  0  0
  7  9  1  0  0  0  0
 26 27  1  0  0  0  0
 26 28  1  0  0  0  0
 26 29  1  0  0  0  0
 24 25  1  0  0  0  0
 24 26  1  0  0  0  0
M  END
$$$$
default_name
  -OEChem-02102213163D

 29 28  0     1  0  0  0  0  0999 V2000
   -3.3998   -3.6239    1.3678 H   0  0  0  0  0  0  0  0  0  0  0  0
   -3.3608   -2.6749    0.8348 C   0  0  0  0  0  0  0  0  0  0  0  0
   -4.0988   -1.9909    1.2498 H   0  0  0  0  0  0  0  0  0  0  0  0
   -3.5618   -2.8419   -0.2222 H   0  0  0  0  0  0  0  0  0  0  0  0
   -1.9818   -2.0809    0.9918 C   0  0  0  0  0  0  0  0  0  0  0  0
   -1.1288   -2.6669    1.6468 O   0  0  0  0  0  0  0  0  0  0  0  0
   -1.7648   -0.9089    0.3998 N   0  0  0  0  0  0  0  0  0  0  0  0
   -2.5238   -0.4719   -0.1032 H   0  0  0  0  0  0  0  0  0  0  0  0
   -0.4848   -0.1959    0.4138 C   0  0  1  0  0  0  0  0  0  0  0  0
    0.2783   -0.8411   -0.0248 H   0  0  0  0  0  0  0  0  0  0  0  0
   -0.6101    1.0666   -0.4611 C   0  0  0  0  0  0  0  0  0  0  0  0
   -1.1249    0.7944   -1.3849 H   0  0  0  0  0  0  0  0  0  0  0  0
   -1.2185    1.8049    0.0636 H   0  0  0  0  0  0  0  0  0  0  0  0
    0.7403    1.7058   -0.8287 C   0  0  0  0  0  0  0  0  0  0  0  0
    1.2274    1.1145   -1.6038 H   0  0  0  0  0  0  0  0  0  0  0  0
    0.5631    2.7091   -1.2159 H   0  0  0  0  0  0  0  0  0  0  0  0
    1.6988    1.8105    0.3575 C   0  0  0  0  0  0  0  0  0  0  0  0
    1.3964    1.4921    1.4923 O   0  0  0  0  0  0  0  0  0  0  0  0
    2.9157    2.2605    0.1410 N   0  0  0  0  0  0  0  0  0  0  0  0
    3.5033    2.3076    0.9553 H   0  0  0  0  0  0  0  0  0  0  0  0
    3.2169    2.5334   -0.7725 H   0  0  0  0  0  0  0  0  0  0  0  0
   -0.0637    0.1284    1.8555 C   0  0  0  0  0  0  0  0  0  0  0  0
    1.0918   -0.0745    2.2236 O   0  0  0  0  0  0  0  0  0  0  0  0
   -1.0024    0.6217    2.6735 N   0  0  0  0  0  0  0  0  0  0  0  0
   -1.9213    0.7848    2.2938 H   0  0  0  0  0  0  0  0  0  0  0  0
   -0.7639    0.9676    4.0741 C   0  0  0  0  0  0  0  0  0  0  0  0
    0.0520    1.6916    4.1400 H   0  0  0  0  0  0  0  0  0  0  0  0
   -1.6626    1.3984    4.5182 H   0  0  0  0  0  0  0  0  0  0  0  0
   -0.4775    0.0737    4.6309 H   0  0  0  0  0  0  0  0  0  0  0  0
  5  6  2  0  0  0  0
  5  7  1  0  0  0  0
  2  3  1  0  0  0  0
  2  4  1  0  0  0  0
  2  5  1  0  0  0  0
  1  2  1  0  0  0  0
 22 23  2  0  0  0  0
 22 24  1  0  0  0  0
 19 20  1  0  0  0  0
 19 21  1  0  0  0  0
 17 18  2  0  0  0  0
 17 19  1  0  0  0  0
 14 15  1  0  0  0  0
 14 16  1  0  0  0  0
 14 17  1  0  0  0  0
 11 12  1  0  0  0  0
 11 13  1  0  0  0  0
 11 14  1  0  0  0  0
  9 10  1  0  0  0  0
  9 11  1  0  0  0  0
  9 22  1  0  0  0  0
  7  8  1  0  0  0  0
  7  9  1  0  0  0  0
 26 27  1  0  0  0  0
 26 28  1  0  0  0  0
 26 29  1  0  0  0  0
 24 25  1  0  0  0  0
 24 26  1  0  0  0  0
M  END
$$$$
default_name
  -OEChem-02102213163D

 29 28  0     1  0  0  0  0  0999 V2000
   -3.3998   -3.6239    1.3678 H   0  0  0  0  0  0  0  0  0  0  0  0
   -3.3608   -2.6749    0.8348 C   0  0  0  0  0  0  0  0  0  0  0  0
   -4.0988   -1.9909    1.2498 H   0  0  0  0  0  0  0  0  0  0  0  0
   -3.5618   -2.8419   -0.2222 H   0  0  0  0  0  0  0  0  0  0  0  0
   -1.9818   -2.0809    0.9918 C   0  0  0  0  0  0  0  0  0  0  0  0
   -1.1288   -2.6669    1.6468 O   0  0  0  0  0  0  0  0  0  0  0  0
   -1.7648   -0.9089    0.3998 N   0  0  0  0  0  0  0  0  0  0  0  0
   -2.5238   -0.4719   -0.1032 H   0  0  0  0  0  0  0  0  0  0  0  0
   -0.4848   -0.1959    0.4138 C   0  0  1  0  0  0  0  0  0  0  0  0
    0.2783   -0.8411   -0.0248 H   0  0  0  0  0  0  0  0  0  0  0  0
   -0.6101    1.0666   -0.4611 C   0  0  0  0  0  0  0  0  0  0  0  0
   -1.1249    0.7944   -1.3849 H   0  0  0  0  0  0  0  0  0  0  0  0
   -1.2185    1.8049    0.0636 H   0  0  0  0  0  0  0  0  0  0  0  0
    0.7403    1.7058   -0.8287 C   0  0  0  0  0  0  0  0  0  0  0  0
    1.1019    1.2858   -1.7671 H   0  0  0  0  0  0  0  0  0  0  0  0
    0.6001    2.7788   -0.9586 H   0  0  0  0  0  0  0  0  0  0  0  0
    1.8181    1.4868    0.2329 C   0  0  0  0  0  0  0  0  0  0  0  0
    1.6084    0.9306    1.2947 O   0  0  0  0  0  0  0  0  0  0  0  0
    3.0372    1.9138   -0.0154 N   0  0  0  0  0  0  0  0  0  0  0  0
    3.7054    1.7429    0.7159 H   0  0  0  0  0  0  0  0  0  0  0  0
    3.2646    2.3747   -0.8730 H   0  0  0  0  0  0  0  0  0  0  0  0
   -0.0637    0.1284    1.8555 C   0  0  0  0  0  0  0  0  0  0  0  0
    1.0918   -0.0745    2.2236 O   0  0  0  0  0  0  0  0  0  0  0  0
   -1.0024    0.6217    2.6735 N   0  0  0  0  0  0  0  0  0  0  0  0
   -1.9213    0.7848    2.2938 H   0  0  0  0  0  0  0  0  0  0  0  0
   -0.7639    0.9676    4.0741 C   0  0  0  0  0  0  0  0  0  0  0  0
    0.0520    1.6916    4.1400 H   0  0  0  0  0  0  0  0  0  0  0  0
   -1.6626    1.3984    4.5182 H   0  0  0  0  0  0  0  0  0  0  0  0
   -0.4775    0.0737    4.6309 H   0  0  0  0  0  0  0  0  0  0  0  0
  5  6  2  0  0  0  0
  5  7  1  0  0  0  0
  2  3  1  0  0  0  0
  2  4  1  0  0  0  0
  2  5  1  0  0  0  0
  1  2  1  0  0  0  0
 22 23  2  0  0  0  0
 22 24  1  0  0  0  0
 19 20  1  0  0  0  0
 19 21  1  0  0  0  0
 17 18  2  0  0  0  0
 17 19  1  0  0  0  0
 14 15  1  0  0  0  0
 14 16  1  0  0  0  0
 14 17  1  0  0  0  0
 11 12  1  0  0  0  0
 11 13  1  0  0  0  0
 11 14  1  0  0  0  0
  9 10  1  0  0  0  0
  9 11  1  0  0  0  0
  9 22  1  0  0  0  0
  7  8  1  0  0  0  0
  7  9  1  0  0  0  0
 26 27  1  0  0  0  0
 26 28  1  0  0  0  0
 26 29  1  0  0  0  0
 24 25  1  0  0  0  0
 24 26  1  0  0  0  0
M  END
$$$$
default_name
  -OEChem-02102213163D

 29 28  0     1  0  0  0  0  0999 V2000
   -3.3998   -3.6239    1.3678 H   0  0  0  0  0  0  0  0  0  0  0  0
   -3.3608   -2.6749    0.8348 C   0  0  0  0  0  0  0  0  0  0  0  0
   -4.0988   -1.9909    1.2498 H   0  0  0  0  0  0  0  0  0  0  0  0
   -3.5618   -2.8419   -0.2222 H   0  0  0  0  0  0  0  0  0  0  0  0
   -1.9818   -2.0809    0.9918 C   0  0  0  0  0  0  0  0  0  0  0  0
   -1.1288   -2.6669    1.6468 O   0  0  0  0  0  0  0  0  0  0  0  0
   -1.7648   -0.9089    0.3998 N   0  0  0  0  0  0  0  0  0  0  0  0
   -2.5238   -0.4719   -0.1032 H   0  0  0  0  0  0  0  0  0  0  0  0
   -0.4848   -0.1959    0.4138 C   0  0  1  0  0  0  0  0  0  0  0  0
    0.2783   -0.8411   -0.0248 H   0  0  0  0  0  0  0  0  0  0  0  0
   -0.6101    1.0666   -0.4611 C   0  0  0  0  0  0  0  0  0  0  0  0
   -1.1249    0.7944   -1.3849 H   0  0  0  0  0  0  0  0  0  0  0  0
   -1.2185    1.8049    0.0636 H   0  0  0  0  0  0  0  0  0  0  0  0
    0.7403    1.7058   -0.8287 C   0  0  0  0  0  0  0  0  0  0  0  0
    0.9737    1.4961   -1.8723 H   0  0  0  0  0  0  0  0  0  0  0  0
    0.6679    2.7855   -0.6982 H   0  0  0  0  0  0  0  0  0  0  0  0
    1.9000    1.1949    0.0262 C   0  0  0  0  0  0  0  0  0  0  0  0
    1.7571    0.4201    0.9534 O   0  0  0  0  0  0  0  0  0  0  0  0
    3.1163    1.6069   -0.2584 N   0  0  0  0  0  0  0  0  0  0  0  0
    3.8400    1.2392    0.3346 H   0  0  0  0  0  0  0  0  0  0  0  0
    3.2901    2.2414   -1.0113 H   0  0  0  0  0  0  0  0  0  0  0  0
   -0.0637    0.1284    1.8555 C   0  0  0  0  0  0  0  0  0  0  0  0
    1.0918   -0.0745    2.2236 O   0  0  0  0  0  0  0  0  0  0  0  0
   -1.0024    0.6217    2.6735 N   0  0  0  0  0  0  0  0  0  0  0  0
   -1.9213    0.7848    2.2938 H   0  0  0  0  0  0  0  0  0  0  0  0
   -0.7639    0.9676    4.0741 C   0  0  0  0  0  0  0  0  0  0  0  0
    0.0520    1.6916    4.1400 H   0  0  0  0  0  0  0  0  0  0  0  0
   -1.6626    1.3984    4.5182 H   0  0  0  0  0  0  0  0  0  0  0  0
   -0.4775    0.0737    4.6309 H   0  0  0  0  0  0  0  0  0  0  0  0
  5  6  2  0  0  0  0
  5  7  1  0  0  0  0
  2  3  1  0  0  0  0
  2  4  1  0  0  0  0
  2  5  1  0  0  0  0
  1  2  1  0  0  0  0
 22 23  2  0  0  0  0
 22 24  1  0  0  0  0
 19 20  1  0  0  0  0
 19 21  1  0  0  0  0
 17 18  2  0  0  0  0
 17 19  1  0  0  0  0
 14 15  1  0  0  0  0
 14 16  1  0  0  0  0
 14 17  1  0  0  0  0
 11 12  1  0  0  0  0
 11 13  1  0  0  0  0
 11 14  1  0  0  0  0
  9 10  1  0  0  0  0
  9 11  1  0  0  0  0
  9 22  1  0  0  0  0
  7  8  1  0  0  0  0
  7  9  1  0  0  0  0
 26 27  1  0  0  0  0
 26 28  1  0  0  0  0
 26 29  1  0  0  0  0
 24 25  1  0  0  0  0
 24 26  1  0  0  0  0
M  END
$$$$
default_name
  -OEChem-02102213163D

 29 28  0     1  0  0  0  0  0999 V2000
   -3.3998   -3.6239    1.3678 H   0  0  0  0  0  0  0  0  0  0  0  0
   -3.3608   -2.6749    0.8348 C   0  0  0  0  0  0  0  0  0  0  0  0
   -4.0988   -1.9909    1.2498 H   0  0  0  0  0  0  0  0  0  0  0  0
   -3.5618   -2.8419   -0.2222 H   0  0  0  0  0  0  0  0  0  0  0  0
   -1.9818   -2.0809    0.9918 C   0  0  0  0  0  0  0  0  0  0  0  0
   -1.1288   -2.6669    1.6468 O   0  0  0  0  0  0  0  0  0  0  0  0
   -1.7648   -0.9089    0.3998 N   0  0  0  0  0  0  0  0  0  0  0  0
   -2.5238   -0.4719   -0.1032 H   0  0  0  0  0  0  0  0  0  0  0  0
   -0.4848   -0.1959    0.4138 C   0  0  1  0  0  0  0  0  0  0  0  0
    0.2783   -0.8411   -0.0248 H   0  0  0  0  0  0  0  0  0  0  0  0
   -0.6101    1.0666   -0.4611 C   0  0  0  0  0  0  0  0  0  0  0  0
   -1.1249    0.7944   -1.3849 H   0  0  0  0  0  0  0  0  0  0  0  0
   -1.2185    1.8049    0.0636 H   0  0  0  0  0  0  0  0  0  0  0  0
    0.7403    1.7058   -0.8287 C   0  0  0  0  0  0  0  0  0  0  0  0
    0.8516    1.7311   -1.9125 H   0  0  0  0  0  0  0  0  0  0  0  0
    0.7617    2.7285   -0.4525 H   0  0  0  0  0  0  0  0  0  0  0  0
    1.9388    0.9549   -0.2485 C   0  0  0  0  0  0  0  0  0  0  0  0
    1.8326   -0.0048    0.4919 O   0  0  0  0  0  0  0  0  0  0  0  0
    3.1476    1.3608   -0.5712 N   0  0  0  0  0  0  0  0  0  0  0  0
    3.8979    0.8310   -0.1626 H   0  0  0  0  0  0  0  0  0  0  0  0
    3.2916    2.1424   -1.1780 H   0  0  0  0  0  0  0  0  0  0  0  0
   -0.0637    0.1284    1.8555 C   0  0  0  0  0  0  0  0  0  0  0  0
    1.0918   -0.0745    2.2236 O   0  0  0  0  0  0  0  0  0  0  0  0
   -1.0024    0.6217    2.6735 N   0  0  0  0  0  0  0  0  0  0  0  0
   -1.9213    0.7848    2.2938 H   0  0  0  0  0  0  0  0  0  0  0  0
   -0.7639    0.9676    4.0741 C   0  0  0  0  0  0  0  0  0  0  0  0
    0.0520    1.6916    4.1400 H   0  0  0  0  0  0  0  0  0  0  0  0
   -1.6626    1.3984    4.5182 H   0  0  0  0  0  0  0  0  0  0  0  0
   -0.4775    0.0737    4.6309 H   0  0  0  0  0  0  0  0  0  0  0  0
  5  6  2  0  0  0  0
  5  7  1  0  0  0  0
  2  3  1  0  0  0  0
  2  4  1  0  0  0  0
  2  5  1  0  0  0  0
  1  2  1  0  0  0  0
 22 23  2  0  0  0  0
 22 24  1  0  0  0  0
 19 20  1  0  0  0  0
 19 21  1  0  0  0  0
 17 18  2  0  0  0  0
 17 19  1  0  0  0  0
 14 15  1  0  0  0  0
 14 16  1  0  0  0  0
 14 17  1  0  0  0  0
 11 12  1  0  0  0  0
 11 13  1  0  0  0  0
 11 14  1  0  0  0  0
  9 10  1  0  0  0  0
  9 11  1  0  0  0  0
  9 22  1  0  0  0  0
  7  8  1  0  0  0  0
  7  9  1  0  0  0  0
 26 27  1  0  0  0  0
 26 28  1  0  0  0  0
 26 29  1  0  0  0  0
 24 25  1  0  0  0  0
 24 26  1  0  0  0  0
M  END
$$$$
default_name
  -OEChem-02102213163D

 29 28  0     1  0  0  0  0  0999 V2000
   -3.3998   -3.6239    1.3678 H   0  0  0  0  0  0  0  0  0  0  0  0
   -3.3608   -2.6749    0.8348 C   0  0  0  0  0  0  0  0  0  0  0  0
   -4.0988   -1.9909    1.2498 H   0  0  0  0  0  0  0  0  0  0  0  0
   -3.5618   -2.8419   -0.2222 H   0  0  0  0  0  0  0  0  0  0  0  0
   -1.9818   -2.0809    0.9918 C   0  0  0  0  0  0  0  0  0  0  0  0
   -1.1288   -2.6669    1.6468 O   0  0  0  0  0  0  0  0  0  0  0  0
   -1.7648   -0.9089    0.3998 N   0  0  0  0  0  0  0  0  0  0  0  0
   -2.5238   -0.4719   -0.1032 H   0  0  0  0  0  0  0  0  0  0  0  0
   -0.4848   -0.1959    0.4138 C   0  0  1  0  0  0  0  0  0  0  0  0
    0.2783   -0.8411   -0.0248 H   0  0  0  0  0  0  0  0  0  0  0  0
   -0.6101    1.0666   -0.4611 C   0  0  0  0  0  0  0  0  0  0  0  0
   -1.1249    0.7944   -1.3849 H   0  0  0  0  0  0  0  0  0  0  0  0
   -1.2185    1.8049    0.0636 H   0  0  0  0  0  0  0  0  0  0  0  0
    0.7403    1.7058   -0.8287 C   0  0  0  0  0  0  0  0  0  0  0  0
    0.7438    1.9747   -1.8848 H   0  0  0  0  0  0  0  0  0  0  0  0
    0.8753    2.6119   -0.2381 H   0  0  0  0  0  0  0  0  0  0  0  0
    1.9319    0.7831   -0.5726 C   0  0  0  0  0  0  0  0  0  0  0  0
    1.8295   -0.3150   -0.0586 O   0  0  0  0  0  0  0  0  0  0  0  0
    3.1290    1.1922   -0.9327 N   0  0  0  0  0  0  0  0  0  0  0  0
    3.8751    0.5461   -0.7418 H   0  0  0  0  0  0  0  0  0  0  0  0
    3.2690    2.0845   -1.3615 H   0  0  0  0  0  0  0  0  0  0  0  0
   -0.0637    0.1284    1.8555 C   0  0  0  0  0  0  0  0  0  0  0  0
    1.0918   -0.0745    2.2236 O   0  0  0  0  0  0  0  0  0  0  0  0
   -1.0024    0.6217    2.6735 N   0  0  0  0  0  0  0  0  0  0  0  0
   -1.9213    0.7848    2.2938 H   0  0  0  0  0  0  0  0  0  0  0  0
   -0.7639    0.9676    4.0741 C   0  0  0  0  0  0  0  0  0  0  0  0
    0.0520    1.6916    4.1400 H   0  0  0  0  0  0  0  0  0  0  0  0
   -1.6626    1.3984    4.5182 H   0  0  0  0  0  0  0  0  0  0  0  0
   -0.4775    0.0737    4.6309 H   0  0  0  0  0  0  0  0  0  0  0  0
  5  6  2  0  0  0  0
  5  7  1  0  0  0  0
  2  3  1  0  0  0  0
  2  4  1  0  0  0  0
  2  5  1  0  0  0  0
  1  2  1  0  0  0  0
 22 23  2  0  0  0  0
 22 24  1  0  0  0  0
 19 20  1  0  0  0  0
 19 21  1  0  0  0  0
 17 18  2  0  0  0  0
 17 19  1  0  0  0  0
 14 15  1  0  0  0  0
 14 16  1  0  0  0  0
 14 17  1  0  0  0  0
 11 12  1  0  0  0  0
 11 13  1  0  0  0  0
 11 14  1  0  0  0  0
  9 10  1  0  0  0  0
  9 11  1  0  0  0  0
  9 22  1  0  0  0  0
  7  8  1  0  0  0  0
  7  9  1  0  0  0  0
 26 27  1  0  0  0  0
 26 28  1  0  0  0  0
 26 29  1  0  0  0  0
 24 25  1  0  0  0  0
 24 26  1  0  0  0  0
M  END
$$$$
default_name
  -OEChem-02102213163D

 29 28  0     1  0  0  0  0  0999 V2000
   -3.3998   -3.6239    1.3678 H   0  0  0  0  0  0  0  0  0  0  0  0
   -3.3608   -2.6749    0.8348 C   0  0  0  0  0  0  0  0  0  0  0  0
   -4.0988   -1.9909    1.2498 H   0  0  0  0  0  0  0  0  0  0  0  0
   -3.5618   -2.8419   -0.2222 H   0  0  0  0  0  0  0  0  0  0  0  0
   -1.9818   -2.0809    0.9918 C   0  0  0  0  0  0  0  0  0  0  0  0
   -1.1288   -2.6669    1.6468 O   0  0  0  0  0  0  0  0  0  0  0  0
   -1.7648   -0.9089    0.3998 N   0  0  0  0  0  0  0  0  0  0  0  0
   -2.5238   -0.4719   -0.1032 H   0  0  0  0  0  0  0  0  0  0  0  0
   -0.4848   -0.1959    0.4138 C   0  0  1  0  0  0  0  0  0  0  0  0
    0.2783   -0.8411   -0.0248 H   0  0  0  0  0  0  0  0  0  0  0  0
   -0.6101    1.0666   -0.4611 C   0  0  0  0  0  0  0  0  0  0  0  0
   -1.1249    0.7944   -1.3849 H   0  0  0  0  0  0  0  0  0  0  0  0
   -1.2185    1.8049    0.0636 H   0  0  0  0  0  0  0  0  0  0  0  0
    0.7403    1.7058   -0.8287 C   0  0  0  0  0  0  0  0  0  0  0  0
    0.6577    2.2105   -1.7910 H   0  0  0  0  0  0  0  0  0  0  0  0
    1.0008    2.4435   -0.0698 H   0  0  0  0  0  0  0  0  0  0  0  0
    1.8797    0.6912   -0.9239 C   0  0  0  0  0  0  0  0  0  0  0  0
    1.7483   -0.4894   -0.6604 O   0  0  0  0  0  0  0  0  0  0  0  0
    3.0618    1.1127   -1.3182 N   0  0  0  0  0  0  0  0  0  0  0  0
    3.7731    0.4039   -1.3635 H   0  0  0  0  0  0  0  0  0  0  0  0
    3.2239    2.0718   -1.5496 H   0  0  0  0  0  0  0  0  0  0  0  0
   -0.0637    0.1284    1.8555 C   0  0  0  0  0  0  0  0  0  0  0  0
    1.0918   -0.0745    2.2236 O   0  0  0  0  0  0  0  0  0  0  0  0
   -1.0024    0.6217    2.6735 N   0  0  0  0  0  0  0  0  0  0  0  0
   -1.9213    0.7848    2.2938 H   0  0  0  0  0  0  0  0  0  0  0  0
   -0.7639    0.9676    4.0741 C   0  0  0  0  0  0  0  0  0  0  0  0
    0.0520    1.6916    4.1400 H   0  0  0  0  0  0  0  0  0  0  0  0
   -1.6626    1.3984    4.5182 H   0  0  0  0  0  0  0  0  0  0  0  0
   -0.4775    0.0737    4.6309 H   0  0  0  0  0  0  0  0  0  0  0  0
  5  6  2  0  0  0  0
  5  7  1  0  0  0  0
  2  3  1  0  0  0  0
  2  4  1  0  0  0  0
  2  5  1  0  0  0  0
  1  2  1  0  0  0  0
 22 23  2  0  0  0  0
 22 24  1  0  0  0  0
 19 20  1  0  0  0  0
 19 21  1  0  0  0  0
 17 18  2  0  0  0  0
 17 19  1  0  0  0  0
 14 15  1  0  0  0  0
 14 16  1  0  0  0  0
 14 17  1  0  0  0  0
 11 12  1  0  0  0  0
 11 13  1  0  0  0  0
 11 14  1  0  0  0  0
  9 10  1  0  0  0  0
  9 11  1  0  0  0  0
  9 22  1  0  0  0  0
  7  8  1  0  0  0  0
  7  9  1  0  0  0  0
 26 27  1  0  0  0  0
 26 28  1  0  0  0  0
 26 29  1  0  0  0  0
 24 25  1  0  0  0  0
 24 26  1  0  0  0  0
M  END
$$$$
default_name
  -OEChem-02102213163D

 29 28  0     1  0  0  0  0  0999 V2000
   -3.3998   -3.6239    1.3678 H   0  0  0  0  0  0  0  0  0  0  0  0
   -3.3608   -2.6749    0.8348 C   0  0  0  0  0  0  0  0  0  0  0  0
   -4.0988   -1.9909    1.2498 H   0  0  0  0  0  0  0  0  0  0  0  0
   -3.5618   -2.8419   -0.2222 H   0  0  0  0  0  0  0  0  0  0  0  0
   -1.9818   -2.0809    0.9918 C   0  0  0  0  0  0  0  0  0  0  0  0
   -1.1288   -2.6669    1.6468 O   0  0  0  0  0  0  0  0  0  0  0  0
   -1.7648   -0.9089    0.3998 N   0  0  0  0  0  0  0  0  0  0  0  0
   -2.5238   -0.4719   -0.1032 H   0  0  0  0  0  0  0  0  0  0  0  0
   -0.4848   -0.1959    0.4138 C   0  0  1  0  0  0  0  0  0  0  0  0
    0.2783   -0.8411   -0.0248 H   0  0  0  0  0  0  0  0  0  0  0  0
   -0.6101    1.0666   -0.4611 C   0  0  0  0  0  0  0  0  0  0  0  0
   -1.1249    0.7944   -1.3849 H   0  0  0  0  0  0  0  0  0  0  0  0
   -1.2185    1.8049    0.0636 H   0  0  0  0  0  0  0  0  0  0  0  0
    0.7403    1.7058   -0.8287 C   0  0  0  0  0  0  0  0  0  0  0  0
    0.5993    2.4222   -1.6377 H   0  0  0  0  0  0  0  0  0  0  0  0
    1.1297    2.2349    0.0410 H   0  0  0  0  0  0  0  0  0  0  0  0
    1.7859    0.6855   -1.2786 C   0  0  0  0  0  0  0  0  0  0  0  0
    1.5943   -0.5161   -1.2726 O   0  0  0  0  0  0  0  0  0  0  0  0
    2.9504    1.1275   -1.7013 N   0  0  0  0  0  0  0  0  0  0  0  0
    3.5991    0.4140   -1.9854 H   0  0  0  0  0  0  0  0  0  0  0  0
    3.1592    2.1049   -1.7293 H   0  0  0  0  0  0  0  0  0  0  0  0
   -0.0637    0.1284    1.8555 C   0  0  0  0  0  0  0  0  0  0  0  0
    1.0918   -0.0745    2.2236 O   0  0  0  0  0  0  0  0  0  0  0  0
   -1.0024    0.6217    2.6735 N   0  0  0  0  0  0  0  0  0  0  0  0
   -1.9213    0.7848    2.2938 H   0  0  0  0  0  0  0  0  0  0  0  0
   -0.7639    0.9676    4.0741 C   0  0  0  0  0  0  0  0  0  0  0  0
    0.0520    1.6916    4.1400 H   0  0  0  0  0  0  0  0  0  0  0  0
   -1.6626    1.3984    4.5182 H   0  0  0  0  0  0  0  0  0  0  0  0
   -0.4775    0.0737    4.6309 H   0  0  0  0  0  0  0  0  0  0  0  0
  5  6  2  0  0  0  0
  5  7  1  0  0  0  0
  2  3  1  0  0  0  0
  2  4  1  0  0  0  0
  2  5  1  0  0  0  0
  1  2  1  0  0  0  0
 22 23  2  0  0  0  0
 22 24  1  0  0  0  0
 19 20  1  0  0  0  0
 19 21  1  0  0  0  0
 17 18  2  0  0  0  0
 17 19  1  0  0  0  0
 14 15  1  0  0  0  0
 14 16  1  0  0  0  0
 14 17  1  0  0  0  0
 11 12  1  0  0  0  0
 11 13  1  0  0  0  0
 11 14  1  0  0  0  0
  9 10  1  0  0  0  0
  9 11  1  0  0  0  0
  9 22  1  0  0  0  0
  7  8  1  0  0  0  0
  7  9  1  0  0  0  0
 26 27  1  0  0  0  0
 26 28  1  0  0  0  0
 26 29  1  0  0  0  0
 24 25  1  0  0  0  0
 24 26  1  0  0  0  0
M  END
$$$$
default_name
  -OEChem-02102213163D

 29 28  0     1  0  0  0  0  0999 V2000
   -3.3998   -3.6239    1.3678 H   0  0  0  0  0  0  0  0  0  0  0  0
   -3.3608   -2.6749    0.8348 C   0  0  0  0  0  0  0  0  0  0  0  0
   -4.0988   -1.9909    1.2498 H   0  0  0  0  0  0  0  0  0  0  0  0
   -3.5618   -2.8419   -0.2222 H   0  0  0  0  0  0  0  0  0  0  0  0
   -1.9818   -2.0809    0.9918 C   0  0  0  0  0  0  0  0  0  0  0  0
   -1.1288   -2.6669    1.6468 O   0  0  0  0  0  0  0  0  0  0  0  0
   -1.7648   -0.9089    0.3998 N   0  0  0  0  0  0  0  0  0  0  0  0
   -2.5238   -0.4719   -0.1032 H   0  0  0  0  0  0  0  0  0  0  0  0
   -0.4848   -0.1959    0.4138 C   0  0  1  0  0  0  0  0  0  0  0  0
    0.2783   -0.8411   -0.0248 H   0  0  0  0  0  0  0  0  0  0  0  0
   -0.6101    1.0666   -0.4611 C   0  0  0  0  0  0  0  0  0  0  0  0
   -1.1249    0.7944   -1.3849 H   0  0  0  0  0  0  0  0  0  0  0  0
   -1.2185    1.8049    0.0636 H   0  0  0  0  0  0  0  0  0  0  0  0
    0.7403    1.7058   -0.8287 C   0  0  0  0  0  0  0  0  0  0  0  0
    0.5724    2.5955   -1.4352 H   0  0  0  0  0  0  0  0  0  0  0  0
    1.2532    2.0002    0.0869 H   0  0  0  0  0  0  0  0  0  0  0  0
    1.6568    0.7663   -1.6123 C   0  0  0  0  0  0  0  0  0  0  0  0
    1.3780   -0.3933   -1.8535 O   0  0  0  0  0  0  0  0  0  0  0  0
    2.8026    1.2358   -2.0561 N   0  0  0  0  0  0  0  0  0  0  0  0
    3.3647    0.5759   -2.5651 H   0  0  0  0  0  0  0  0  0  0  0  0
    3.0796    2.1818   -1.8883 H   0  0  0  0  0  0  0  0  0  0  0  0
   -0.0637    0.1284    1.8555 C   0  0  0  0  0  0  0  0  0  0  0  0
    1.0918   -0.0745    2.2236 O   0  0  0  0  0  0  0  0  0  0  0  0
   -1.0024    0.6217    2.6735 N   0  0  0  0  0  0  0  0  0  0  0  0
   -1.9213    0.7848    2.2938 H   0  0  0  0  0  0  0  0  0  0  0  0
   -0.7639    0.9676    4.0741 C   0  0  0  0  0  0  0  0  0  0  0  0
    0.0520    1.6916    4.1400 H   0  0  0  0  0  0  0  0  0  0  0  0
   -1.6626    1.3984    4.5182 H   0  0  0  0  0  0  0  0  0  0  0  0
   -0.4775    0.0737    4.6309 H   0  0  0  0  0  0  0  0  0  0  0  0
  5  6  2  0  0  0  0
  5  7  1  0  0  0  0
  2  3  1  0  0  0  0
  2  4  1  0  0  0  0
  2  5  1  0  0  0  0
  1  2  1  0  0  0  0
 22 23  2  0  0  0  0
 22 24  1  0  0  0  0
 19 20  1  0  0  0  0
 19 21  1  0  0  0  0
 17 18  2  0  0  0  0
 17 19  1  0  0  0  0
 14 15  1  0  0  0  0
 14 16  1  0  0  0  0
 14 17  1  0  0  0  0
 11 12  1  0  0  0  0
 11 13  1  0  0  0  0
 11 14  1  0  0  0  0
  9 10  1  0  0  0  0
  9 11  1  0  0  0  0
  9 22  1  0  0  0  0
  7  8  1  0  0  0  0
  7  9  1  0  0  0  0
 26 27  1  0  0  0  0
 26 28  1  0  0  0  0
 26 29  1  0  0  0  0
 24 25  1  0  0  0  0
 24 26  1  0  0  0  0
M  END
$$$$
default_name
  -OEChem-02102213163D

 29 28  0     1  0  0  0  0  0999 V2000
   -3.3998   -3.6239    1.3678 H   0  0  0  0  0  0  0  0  0  0  0  0
   -3.3608   -2.6749    0.8348 C   0  0  0  0  0  0  0  0  0  0  0  0
   -4.0988   -1.9909    1.2498 H   0  0  0  0  0  0  0  0  0  0  0  0
   -3.5618   -2.8419   -0.2222 H   0  0  0  0  0  0  0  0  0  0  0  0
   -1.9818   -2.0809    0.9918 C   0  0  0  0  0  0  0  0  0  0  0  0
   -1.1288   -2.6669    1.6468 O   0  0  0  0  0  0  0  0  0  0  0  0
   -1.7648   -0.9089    0.3998 N   0  0  0  0  0  0  0  0  0  0  0  0
   -2.5238   -0.4719   -0.1032 H   0  0  0  0  0  0  0  0  0  0  0  0
   -0.4848   -0.1959    0.4138 C   0  0  1  0  0  0  0  0  0  0  0  0
    0.2783   -0.8411   -0.0248 H   0  0  0  0  0  0  0  0  0  0  0  0
   -0.6101    1.0666   -0.4611 C   0  0  0  0  0  0  0  0  0  0  0  0
   -1.1249    0.7944   -1.3849 H   0  0  0  0  0  0  0  0  0  0  0  0
   -1.2185    1.8049    0.0636 H   0  0  0  0  0  0  0  0  0  0  0  0
    0.7403    1.7058   -0.8287 C   0  0  0  0  0  0  0  0  0  0  0  0
    0.5789    2.7185   -1.1974 H   0  0  0  0  0  0  0  0  0  0  0  0
    1.3630    1.7555    0.0645 H   0  0  0  0  0  0  0  0  0  0  0  0
    1.5013    0.9282   -1.9025 C   0  0  0  0  0  0  0  0  0  0  0  0
    1.1143   -0.1293   -2.3634 O   0  0  0  0  0  0  0  0  0  0  0  0
    2.6284    1.4302   -2.3583 N   0  0  0  0  0  0  0  0  0  0  0  0
    3.0860    0.8784   -3.0631 H   0  0  0  0  0  0  0  0  0  0  0  0
    2.9903    2.2971   -2.0160 H   0  0  0  0  0  0  0  0  0  0  0  0
   -0.0637    0.1284    1.8555 C   0  0  0  0  0  0  0  0  0  0  0  0
    1.0918   -0.0745    2.2236 O   0  0  0  0  0  0  0  0  0  0  0  0
   -1.0024    0.6217    2.6735 N   0  0  0  0  0  0  0  0  0  0  0  0
   -1.9213    0.7848    2.2938 H   0  0  0  0  0  0  0  0  0  0  0  0
   -0.7639    0.9676    4.0741 C   0  0  0  0  0  0  0  0  0  0  0  0
    0.0520    1.6916    4.1400 H   0  0  0  0  0  0  0  0  0  0  0  0
   -1.6626    1.3984    4.5182 H   0  0  0  0  0  0  0  0  0  0  0  0
   -0.4775    0.0737    4.6309 H   0  0  0  0  0  0  0  0  0  0  0  0
  5  6  2  0  0  0  0
  5  7  1  0  0  0  0
  2  3  1  0  0  0  0
  2  4  1  0  0  0  0
  2  5  1  0  0  0  0
  1  2  1  0  0  0  0
 22 23  2  0  0  0  0
 22 24  1  0  0  0  0
 19 20  1  0  0  0  0
 19 21  1  0  0  0  0
 17 18  2  0  0  0  0
 17 19  1  0  0  0  0
 14 15  1  0  0  0  0
 14 16  1  0  0  0  0
 14 17  1  0  0  0  0
 11 12  1  0  0  0  0
 11 13  1  0  0  0  0
 11 14  1  0  0  0  0
  9 10  1  0  0  0  0
  9 11  1  0  0  0  0
  9 22  1  0  0  0  0
  7  8  1  0  0  0  0
  7  9  1  0  0  0  0
 26 27  1  0  0  0  0
 26 28  1  0  0  0  0
 26 29  1  0  0  0  0
 24 25  1  0  0  0  0
 24 26  1  0  0  0  0
M  END
$$$$
default_name
  -OEChem-02102213163D

 29 28  0     1  0  0  0  0  0999 V2000
   -3.3998   -3.6239    1.3678 H   0  0  0  0  0  0  0  0  0  0  0  0
   -3.3608   -2.6749    0.8348 C   0  0  0  0  0  0  0  0  0  0  0  0
   -4.0988   -1.9909    1.2498 H   0  0  0  0  0  0  0  0  0  0  0  0
   -3.5618   -2.8419   -0.2222 H   0  0  0  0  0  0  0  0  0  0  0  0
   -1.9818   -2.0809    0.9918 C   0  0  0  0  0  0  0  0  0  0  0  0
   -1.1288   -2.6669    1.6468 O   0  0  0  0  0  0  0  0  0  0  0  0
   -1.7648   -0.9089    0.3998 N   0  0  0  0  0  0  0  0  0  0  0  0
   -2.5238   -0.4719   -0.1032 H   0  0  0  0  0  0  0  0  0  0  0  0
   -0.4848   -0.1959    0.4138 C   0  0  1  0  0  0  0  0  0  0  0  0
    0.2783   -0.8411   -0.0248 H   0  0  0  0  0  0  0  0  0  0  0  0
   -0.6101    1.0666   -0.4611 C   0  0  0  0  0  0  0  0  0  0  0  0
   -1.1249    0.7944   -1.3849 H   0  0  0  0  0  0  0  0  0  0  0  0
   -1.2185    1.8049    0.0636 H   0  0  0  0  0  0  0  0  0  0  0  0
    0.7403    1.7058   -0.8287 C   0  0  0  0  0  0  0  0  0  0  0  0
    0.6184    2.7829   -0.9404 H   0  0  0  0  0  0  0  0  0  0  0  0
    1.4514    1.5174   -0.0244 H   0  0  0  0  0  0  0  0  0  0  0  0
    1.3298    1.1601   -2.1292 C   0  0  0  0  0  0  0  0  0  0  0  0
    0.8211    0.2578   -2.7677 O   0  0  0  0  0  0  0  0  0  0  0  0
    2.4396    1.6973   -2.5873 N   0  0  0  0  0  0  0  0  0  0  0  0
    2.7819    1.3010   -3.4454 H   0  0  0  0  0  0  0  0  0  0  0  0
    2.8974    2.4430   -2.1035 H   0  0  0  0  0  0  0  0  0  0  0  0
   -0.0637    0.1284    1.8555 C   0  0  0  0  0  0  0  0  0  0  0  0
    1.0918   -0.0745    2.2236 O   0  0  0  0  0  0  0  0  0  0  0  0
   -1.0024    0.6217    2.6735 N   0  0  0  0  0  0  0  0  0  0  0  0
   -1.9213    0.7848    2.2938 H   0  0  0  0  0  0  0  0  0  0  0  0
   -0.7639    0.9676    4.0741 C   0  0  0  0  0  0  0  0  0  0  0  0
    0.0520    1.6916    4.1400 H   0  0  0  0  0  0  0  0  0  0  0  0
   -1.6626    1.3984    4.5182 H   0  0  0  0  0  0  0  0  0  0  0  0
   -0.4775    0.0737    4.6309 H   0  0  0  0  0  0  0  0  0  0  0  0
  5  6  2  0  0  0  0
  5  7  1  0  0  0  0
  2  3  1  0  0  0  0
  2  4  1  0  0  0  0
  2  5  1  0  0  0  0
  1  2  1  0  0  0  0
 22 23  2  0  0  0  0
 22 24  1  0  0  0  0
 19 20  1  0  0  0  0
 19 21  1  0  0  0  0
 17 18  2  0  0  0  0
 17 19  1  0  0  0  0
 14 15  1  0  0  0  0
 14 16  1  0  0  0  0
 14 17  1  0  0  0  0
 11 12  1  0  0  0  0
 11 13  1  0  0  0  0
 11 14  1  0  0  0  0
  9 10  1  0  0  0  0
  9 11  1  0  0  0  0
  9 22  1  0  0  0  0
  7  8  1  0  0  0  0
  7  9  1  0  0  0  0
 26 27  1  0  0  0  0
 26 28  1  0  0  0  0
 26 29  1  0  0  0  0
 24 25  1  0  0  0  0
 24 26  1  0  0  0  0
M  END
$$$$
default_name
  -OEChem-02102213163D

 29 28  0     1  0  0  0  0  0999 V2000
   -3.3998   -3.6239    1.3678 H   0  0  0  0  0  0  0  0  0  0  0  0
   -3.3608   -2.6749    0.8348 C   0  0  0  0  0  0  0  0  0  0  0  0
   -4.0988   -1.9909    1.2498 H   0  0  0  0  0  0  0  0  0  0  0  0
   -3.5618   -2.8419   -0.2222 H   0  0  0  0  0  0  0  0  0  0  0  0
   -1.9818   -2.0809    0.9918 C   0  0  0  0  0  0  0  0  0  0  0  0
   -1.1288   -2.6669    1.6468 O   0  0  0  0  0  0  0  0  0  0  0  0
   -1.7648   -0.9089    0.3998 N   0  0  0  0  0  0  0  0  0  0  0  0
   -2.5238   -0.4719   -0.1032 H   0  0  0  0  0  0  0  0  0  0  0  0
   -0.4848   -0.1959    0.4138 C   0  0  1  0  0  0  0  0  0  0  0  0
    0.2783   -0.8411   -0.0248 H   0  0  0  0  0  0  0  0  0  0  0  0
   -0.6101    1.0666   -0.4611 C   0  0  0  0  0  0  0  0  0  0  0  0
   -1.1249    0.7944   -1.3849 H   0  0  0  0  0  0  0  0  0  0  0  0
   -1.2185    1.8049    0.0636 H   0  0  0  0  0  0  0  0  0  0  0  0
    0.7403    1.7058   -0.8287 C   0  0  0  0  0  0  0  0  0  0  0  0
    0.6881    2.7843   -0.6817 H   0  0  0  0  0  0  0  0  0  0  0  0
    1.5126    1.3021   -0.1739 H   0  0  0  0  0  0  0  0  0  0  0  0
    1.1541    1.4462   -2.2771 C   0  0  0  0  0  0  0  0  0  0  0  0
    0.5183    0.7416   -3.0387 O   0  0  0  0  0  0  0  0  0  0  0  0
    2.2492    2.0190   -2.7275 N   0  0  0  0  0  0  0  0  0  0  0  0
    2.4733    1.8148   -3.6860 H   0  0  0  0  0  0  0  0  0  0  0  0
    2.8073    2.6095   -2.1449 H   0  0  0  0  0  0  0  0  0  0  0  0
   -0.0637    0.1284    1.8555 C   0  0  0  0  0  0  0  0  0  0  0  0
    1.0918   -0.0745    2.2236 O   0  0  0  0  0  0  0  0  0  0  0  0
   -1.0024    0.6217    2.6735 N   0  0  0  0  0  0  0  0  0  0  0  0
   -1.9213    0.7848    2.2938 H   0  0  0  0  0  0  0  0  0  0  0  0
   -0.7639    0.9676    4.0741 C   0  0  0  0  0  0  0  0  0  0  0  0
    0.0520    1.6916    4.1400 H   0  0  0  0  0  0  0  0  0  0  0  0
   -1.6626    1.3984    4.5182 H   0  0  0  0  0  0  0  0  0  0  0  0
   -0.4775    0.0737    4.6309 H   0  0  0  0  0  0  0  0  0  0  0  0
  5  6  2  0  0  0  0
  5  7  1  0  0  0  0
  2  3  1  0  0  0  0
  2  4  1  0  0  0  0
  2  5  1  0  0  0  0
  1  2  1  0  0  0  0
 22 23  2  0  0  0  0
 22 24  1  0  0  0  0
 19 20  1  0  0  0  0
 19 21  1  0  0  0  0
 17 18  2  0  0  0  0
 17 19  1  0  0  0  0
 14 15  1  0  0  0  0
 14 16  1  0  0  0  0
 14 17  1  0  0  0  0
 11 12  1  0  0  0  0
 11 13  1  0  0  0  0
 11 14  1  0  0  0  0
  9 10  1  0  0  0  0
  9 11  1  0  0  0  0
  9 22  1  0  0  0  0
  7  8  1  0  0  0  0
  7  9  1  0  0  0  0
 26 27  1  0  0  0  0
 26 28  1  0  0  0  0
 26 29  1  0  0  0  0
 24 25  1  0  0  0  0
 24 26  1  0  0  0  0
M  END
$$$$
default_name
  -OEChem-02102213163D

 29 28  0     1  0  0  0  0  0999 V2000
   -3.3998   -3.6239    1.3678 H   0  0  0  0  0  0  0  0  0  0  0  0
   -3.3608   -2.6749    0.8348 C   0  0  0  0  0  0  0  0  0  0  0  0
   -4.0988   -1.9909    1.2498 H   0  0  0  0  0  0  0  0  0  0  0  0
   -3.5618   -2.8419   -0.2222 H   0  0  0  0  0  0  0  0  0  0  0  0
   -1.9818   -2.0809    0.9918 C   0  0  0  0  0  0  0  0  0  0  0  0
   -1.1288   -2.6669    1.6468 O   0  0  0  0  0  0  0  0  0  0  0  0
   -1.7648   -0.9089    0.3998 N   0  0  0  0  0  0  0  0  0  0  0  0
   -2.5238   -0.4719   -0.1032 H   0  0  0  0  0  0  0  0  0  0  0  0
   -0.4848   -0.1959    0.4138 C   0  0  1  0  0  0  0  0  0  0  0  0
    0.2783   -0.8411   -0.0248 H   0  0  0  0  0  0  0  0  0  0  0  0
   -0.6101    1.0666   -0.4611 C   0  0  0  0  0  0  0  0  0  0  0  0
   -1.1249    0.7944   -1.3849 H   0  0  0  0  0  0  0  0  0  0  0  0
   -1.2185    1.8049    0.0636 H   0  0  0  0  0  0  0  0  0  0  0  0
    0.7403    1.7058   -0.8287 C   0  0  0  0  0  0  0  0  0  0  0  0
    0.7833    2.7226   -0.4391 H   0  0  0  0  0  0  0  0  0  0  0  0
    1.5423    1.1244   -0.3739 H   0  0  0  0  0  0  0  0  0  0  0  0
    0.9862    1.7670   -2.3361 C   0  0  0  0  0  0  0  0  0  0  0  0
    0.2267    1.2893   -3.1580 O   0  0  0  0  0  0  0  0  0  0  0  0
    2.0701    2.3734   -2.7694 N   0  0  0  0  0  0  0  0  0  0  0  0
    2.1810    2.3848   -3.7684 H   0  0  0  0  0  0  0  0  0  0  0  0
    2.7262    2.7853   -2.1373 H   0  0  0  0  0  0  0  0  0  0  0  0
   -0.0637    0.1284    1.8555 C   0  0  0  0  0  0  0  0  0  0  0  0
    1.0918   -0.0745    2.2236 O   0  0  0  0  0  0  0  0  0  0  0  0
   -1.0024    0.6217    2.6735 N   0  0  0  0  0  0  0  0  0  0  0  0
   -1.9213    0.7848    2.2938 H   0  0  0  0  0  0  0  0  0  0  0  0
   -0.7639    0.9676    4.0741 C   0  0  0  0  0  0  0  0  0  0  0  0
    0.0520    1.6916    4.1400 H   0  0  0  0  0  0  0  0  0  0  0  0
   -1.6626    1.3984    4.5182 H   0  0  0  0  0  0  0  0  0  0  0  0
   -0.4775    0.0737    4.6309 H   0  0  0  0  0  0  0  0  0  0  0  0
  5  6  2  0  0  0  0
  5  7  1  0  0  0  0
  2  3  1  0  0  0  0
  2  4  1  0  0  0  0
  2  5  1  0  0  0  0
  1  2  1  0  0  0  0
 22 23  2  0  0  0  0
 22 24  1  0  0  0  0
 19 20  1  0  0  0  0
 19 21  1  0  0  0  0
 17 18  2  0  0  0  0
 17 19  1  0  0  0  0
 14 15  1  0  0  0  0
 14 16  1  0  0  0  0
 14 17  1  0  0  0  0
 11 12  1  0  0  0  0
 11 13  1  0  0  0  0
 11 14  1  0  0  0  0
  9 10  1  0  0  0  0
  9 11  1  0  0  0  0
  9 22  1  0  0  0  0
  7  8  1  0  0  0  0
  7  9  1  0  0  0  0
 26 27  1  0  0  0  0
 26 28  1  0  0  0  0
 26 29  1  0  0  0  0
 24 25  1  0  0  0  0
 24 26  1  0  0  0  0
M  END
$$$$
default_name
  -OEChem-02102213163D

 29 28  0     1  0  0  0  0  0999 V2000
   -3.3998   -3.6239    1.3678 H   0  0  0  0  0  0  0  0  0  0  0  0
   -3.3608   -2.6749    0.8348 C   0  0  0  0  0  0  0  0  0  0  0  0
   -4.0988   -1.9909    1.2498 H   0  0  0  0  0  0  0  0  0  0  0  0
   -3.5618   -2.8419   -0.2222 H   0  0  0  0  0  0  0  0  0  0  0  0
   -1.9818   -2.0809    0.9918 C   0  0  0  0  0  0  0  0  0  0  0  0
   -1.1288   -2.6669    1.6468 O   0  0  0  0  0  0  0  0  0  0  0  0
   -1.7648   -0.9089    0.3998 N   0  0  0  0  0  0  0  0  0  0  0  0
   -2.5238   -0.4719   -0.1032 H   0  0  0  0  0  0  0  0  0  0  0  0
   -0.4848   -0.1959    0.4138 C   0  0  1  0  0  0  0  0  0  0  0  0
    0.2783   -0.8411   -0.0248 H   0  0  0  0  0  0  0  0  0  0  0  0
   -0.6101    1.0666   -0.4611 C   0  0  0  0  0  0  0  0  0  0  0  0
   -1.1249    0.7944   -1.3849 H   0  0  0  0  0  0  0  0  0  0  0  0
   -1.2185    1.8049    0.0636 H   0  0  0  0  0  0  0  0  0  0  0  0
    0.7403    1.7058   -0.8287 C   0  0  0  0  0  0  0  0  0  0  0  0
    0.8976    2.6020   -0.2290 H   0  0  0  0  0  0  0  0  0  0  0  0
    1.5385    0.9963   -0.6105 H   0  0  0  0  0  0  0  0  0  0  0  0
    0.8376    2.1006   -2.3022 C   0  0  0  0  0  0  0  0  0  0  0  0
   -0.0340    1.8634   -3.1175 O   0  0  0  0  0  0  0  0  0  0  0  0
    1.9145    2.7363   -2.7101 N   0  0  0  0  0  0  0  0  0  0  0  0
    1.9251    2.9722   -3.6872 H   0  0  0  0  0  0  0  0  0  0  0  0
    2.6595    2.9585   -2.0814 H   0  0  0  0  0  0  0  0  0  0  0  0
   -0.0637    0.1284    1.8555 C   0  0  0  0  0  0  0  0  0  0  0  0
    1.0918   -0.0745    2.2236 O   0  0  0  0  0  0  0  0  0  0  0  0
   -1.0024    0.6217    2.6735 N   0  0  0  0  0  0  0  0  0  0  0  0
   -1.9213    0.7848    2.2938 H   0  0  0  0  0  0  0  0  0  0  0  0
   -0.7639    0.9676    4.0741 C   0  0  0  0  0  0  0  0  0  0  0  0
    0.0520    1.6916    4.1400 H   0  0  0  0  0  0  0  0  0  0  0  0
   -1.6626    1.3984    4.5182 H   0  0  0  0  0  0  0  0  0  0  0  0
   -0.4775    0.0737    4.6309 H   0  0  0  0  0  0  0  0  0  0  0  0
  5  6  2  0  0  0  0
  5  7  1  0  0  0  0
  2  3  1  0  0  0  0
  2  4  1  0  0  0  0
  2  5  1  0  0  0  0
  1  2  1  0  0  0  0
 22 23  2  0  0  0  0
 22 24  1  0  0  0  0
 19 20  1  0  0  0  0
 19 21  1  0  0  0  0
 17 18  2  0  0  0  0
 17 19  1  0  0  0  0
 14 15  1  0  0  0  0
 14 16  1  0  0  0  0
 14 17  1  0  0  0  0
 11 12  1  0  0  0  0
 11 13  1  0  0  0  0
 11 14  1  0  0  0  0
  9 10  1  0  0  0  0
  9 11  1  0  0  0  0
  9 22  1  0  0  0  0
  7  8  1  0  0  0  0
  7  9  1  0  0  0  0
 26 27  1  0  0  0  0
 26 28  1  0  0  0  0
 26 29  1  0  0  0  0
 24 25  1  0  0  0  0
 24 26  1  0  0  0  0
M  END
$$$$
default_name
  -OEChem-02102213163D

 29 28  0     1  0  0  0  0  0999 V2000
   -3.3998   -3.6239    1.3678 H   0  0  0  0  0  0  0  0  0  0  0  0
   -3.3608   -2.6749    0.8348 C   0  0  0  0  0  0  0  0  0  0  0  0
   -4.0988   -1.9909    1.2498 H   0  0  0  0  0  0  0  0  0  0  0  0
   -3.5618   -2.8419   -0.2222 H   0  0  0  0  0  0  0  0  0  0  0  0
   -1.9818   -2.0809    0.9918 C   0  0  0  0  0  0  0  0  0  0  0  0
   -1.1288   -2.6669    1.6468 O   0  0  0  0  0  0  0  0  0  0  0  0
   -1.7648   -0.9089    0.3998 N   0  0  0  0  0  0  0  0  0  0  0  0
   -2.5238   -0.4719   -0.1032 H   0  0  0  0  0  0  0  0  0  0  0  0
   -0.4848   -0.1959    0.4138 C   0  0  1  0  0  0  0  0  0  0  0  0
    0.2783   -0.8411   -0.0248 H   0  0  0  0  0  0  0  0  0  0  0  0
   -0.6101    1.0666   -0.4611 C   0  0  0  0  0  0  0  0  0  0  0  0
   -1.1249    0.7944   -1.3849 H   0  0  0  0  0  0  0  0  0  0  0  0
   -1.2185    1.8049    0.0636 H   0  0  0  0  0  0  0  0  0  0  0  0
    0.7403    1.7058   -0.8287 C   0  0  0  0  0  0  0  0  0  0  0  0
    1.0231    2.4307   -0.0657 H   0  0  0  0  0  0  0  0  0  0  0  0
    1.5015    0.9266   -0.8678 H   0  0  0  0  0  0  0  0  0  0  0  0
    0.7182    2.4244   -2.1776 C   0  0  0  0  0  0  0  0  0  0  0  0
   -0.2460    2.4249   -2.9198 O   0  0  0  0  0  0  0  0  0  0  0  0
    1.7930    3.0830   -2.5537 N   0  0  0  0  0  0  0  0  0  0  0  0
    1.7230    3.5370   -3.4478 H   0  0  0  0  0  0  0  0  0  0  0  0
    2.6117    3.1172   -1.9808 H   0  0  0  0  0  0  0  0  0  0  0  0
   -0.0637    0.1284    1.8555 C   0  0  0  0  0  0  0  0  0  0  0  0
    1.0918   -0.0745    2.2236 O   0  0  0  0  0  0  0  0  0  0  0  0
   -1.0024    0.6217    2.6735 N   0  0  0  0  0  0  0  0  0  0  0  0
   -1.9213    0.7848    2.2938 H   0  0  0  0  0  0  0  0  0  0  0  0
   -0.7639    0.9676    4.0741 C   0  0  0  0  0  0  0  0  0  0  0  0
    0.0520    1.6916    4.1400 H   0  0  0  0  0  0  0  0  0  0  0  0
   -1.6626    1.3984    4.5182 H   0  0  0  0  0  0  0  0  0  0  0  0
   -0.4775    0.0737    4.6309 H   0  0  0  0  0  0  0  0  0  0  0  0
  5  6  2  0  0  0  0
  5  7  1  0  0  0  0
  2  3  1  0  0  0  0
  2  4  1  0  0  0  0
  2  5  1  0  0  0  0
  1  2  1  0  0  0  0
 22 23  2  0  0  0  0
 22 24  1  0  0  0  0
 19 20  1  0  0  0  0
 19 21  1  0  0  0  0
 17 18  2  0  0  0  0
 17 19  1  0  0  0  0
 14 15  1  0  0  0  0
 14 16  1  0  0  0  0
 14 17  1  0  0  0  0
 11 12  1  0  0  0  0
 11 13  1  0  0  0  0
 11 14  1  0  0  0  0
  9 10  1  0  0  0  0
  9 11  1  0  0  0  0
  9 22  1  0  0  0  0
  7  8  1  0  0  0  0
  7  9  1  0  0  0  0
 26 27  1  0  0  0  0
 26 28  1  0  0  0  0
 26 29  1  0  0  0  0
 24 25  1  0  0  0  0
 24 26  1  0  0  0  0
M  END
$$$$
default_name
  -OEChem-02102213163D

 29 28  0     1  0  0  0  0  0999 V2000
   -3.3998   -3.6239    1.3678 H   0  0  0  0  0  0  0  0  0  0  0  0
   -3.3608   -2.6749    0.8348 C   0  0  0  0  0  0  0  0  0  0  0  0
   -4.0988   -1.9909    1.2498 H   0  0  0  0  0  0  0  0  0  0  0  0
   -3.5618   -2.8419   -0.2222 H   0  0  0  0  0  0  0  0  0  0  0  0
   -1.9818   -2.0809    0.9918 C   0  0  0  0  0  0  0  0  0  0  0  0
   -1.1288   -2.6669    1.6468 O   0  0  0  0  0  0  0  0  0  0  0  0
   -1.7648   -0.9089    0.3998 N   0  0  0  0  0  0  0  0  0  0  0  0
   -2.5238   -0.4719   -0.1032 H   0  0  0  0  0  0  0  0  0  0  0  0
   -0.4848   -0.1959    0.4138 C   0  0  1  0  0  0  0  0  0  0  0  0
    0.2783   -0.8411   -0.0248 H   0  0  0  0  0  0  0  0  0  0  0  0
   -0.6101    1.0666   -0.4611 C   0  0  0  0  0  0  0  0  0  0  0  0
   -1.1249    0.7944   -1.3849 H   0  0  0  0  0  0  0  0  0  0  0  0
   -1.2185    1.8049    0.0636 H   0  0  0  0  0  0  0  0  0  0  0  0
    0.7403    1.7058   -0.8287 C   0  0  0  0  0  0  0  0  0  0  0  0
    1.1513    2.2204    0.0396 H   0  0  0  0  0  0  0  0  0  0  0  0
    1.4337    0.9200   -1.1282 H   0  0  0  0  0  0  0  0  0  0  0  0
    0.6364    2.7162   -1.9709 C   0  0  0  0  0  0  0  0  0  0  0  0
   -0.3947    2.9355   -2.5786 O   0  0  0  0  0  0  0  0  0  0  0  0
    1.7139    3.3899   -2.3107 N   0  0  0  0  0  0  0  0  0  0  0  0
    1.5884    4.0407   -3.0665 H   0  0  0  0  0  0  0  0  0  0  0  0
    2.5863    3.2505   -1.8425 H   0  0  0  0  0  0  0  0  0  0  0  0
   -0.0637    0.1284    1.8555 C   0  0  0  0  0  0  0  0  0  0  0  0
    1.0918   -0.0745    2.2236 O   0  0  0  0  0  0  0  0  0  0  0  0
   -1.0024    0.6217    2.6735 N   0  0  0  0  0  0  0  0  0  0  0  0
   -1.9213    0.7848    2.2938 H   0  0  0  0  0  0  0  0  0  0  0  0
   -0.7639    0.9676    4.0741 C   0  0  0  0  0  0  0  0  0  0  0  0
    0.0520    1.6916    4.1400 H   0  0  0  0  0  0  0  0  0  0  0  0
   -1.6626    1.3984    4.5182 H   0  0  0  0  0  0  0  0  0  0  0  0
   -0.4775    0.0737    4.6309 H   0  0  0  0  0  0  0  0  0  0  0  0
  5  6  2  0  0  0  0
  5  7  1  0  0  0  0
  2  3  1  0  0  0  0
  2  4  1  0  0  0  0
  2  5  1  0  0  0  0
  1  2  1  0  0  0  0
 22 23  2  0  0  0  0
 22 24  1  0  0  0  0
 19 20  1  0  0  0  0
 19 21  1  0  0  0  0
 17 18  2  0  0  0  0
 17 19  1  0  0  0  0
 14 15  1  0  0  0  0
 14 16  1  0  0  0  0
 14 17  1  0  0  0  0
 11 12  1  0  0  0  0
 11 13  1  0  0  0  0
 11 14  1  0  0  0  0
  9 10  1  0  0  0  0
  9 11  1  0  0  0  0
  9 22  1  0  0  0  0
  7  8  1  0  0  0  0
  7  9  1  0  0  0  0
 26 27  1  0  0  0  0
 26 28  1  0  0  0  0
 26 29  1  0  0  0  0
 24 25  1  0  0  0  0
 24 26  1  0  0  0  0
M  END
$$$$
default_name
  -OEChem-02102213163D

 29 28  0     1  0  0  0  0  0999 V2000
   -3.3998   -3.6239    1.3678 H   0  0  0  0  0  0  0  0  0  0  0  0
   -3.3608   -2.6749    0.8348 C   0  0  0  0  0  0  0  0  0  0  0  0
   -4.0988   -1.9909    1.2498 H   0  0  0  0  0  0  0  0  0  0  0  0
   -3.5618   -2.8419   -0.2222 H   0  0  0  0  0  0  0  0  0  0  0  0
   -1.9818   -2.0809    0.9918 C   0  0  0  0  0  0  0  0  0  0  0  0
   -1.1288   -2.6669    1.6468 O   0  0  0  0  0  0  0  0  0  0  0  0
   -1.7648   -0.9089    0.3998 N   0  0  0  0  0  0  0  0  0  0  0  0
   -2.5238   -0.4719   -0.1032 H   0  0  0  0  0  0  0  0  0  0  0  0
   -0.4848   -0.1959    0.4138 C   0  0  1  0  0  0  0  0  0  0  0  0
    0.2783   -0.8411   -0.0248 H   0  0  0  0  0  0  0  0  0  0  0  0
   -0.6101    1.0666   -0.4611 C   0  0  0  0  0  0  0  0  0  0  0  0
   -1.3441    0.8695   -1.2452 H   0  0  0  0  0  0  0  0  0  0  0  0
   -0.9791    1.8901    0.1522 H   0  0  0  0  0  0  0  0  0  0  0  0
    0.7085    1.4952   -1.1280 C   0  0  0  0  0  0  0  0  0  0  0  0
    1.4581    1.6969   -0.3631 H   0  0  0  0  0  0  0  0  0  0  0  0
    1.0659    0.6822   -1.7599 H   0  0  0  0  0  0  0  0  0  0  0  0
    0.5662    2.7484   -1.9916 C   0  0  0  0  0  0  0  0  0  0  0  0
   -0.4968    3.3051   -2.1929 O   0  0  0  0  0  0  0  0  0  0  0  0
    1.6484    3.2571   -2.5397 N   0  0  0  0  0  0  0  0  0  0  0  0
    1.4970    4.0806   -3.0960 H   0  0  0  0  0  0  0  0  0  0  0  0
    2.5474    2.8409   -2.4045 H   0  0  0  0  0  0  0  0  0  0  0  0
   -0.0637    0.1284    1.8555 C   0  0  0  0  0  0  0  0  0  0  0  0
    1.0918   -0.0745    2.2236 O   0  0  0  0  0  0  0  0  0  0  0  0
   -1.0024    0.6217    2.6735 N   0  0  0  0  0  0  0  0  0  0  0  0
   -1.9213    0.7848    2.2938 H   0  0  0  0  0  0  0  0  0  0  0  0
   -0.7639    0.9676    4.0741 C   0  0  0  0  0  0  0  0  0  0  0  0
    0.0520    1.6916    4.1400 H   0  0  0  0  0  0  0  0  0  0  0  0
   -1.6626    1.3984    4.5182 H   0  0  0  0  0  0  0  0  0  0  0  0
   -0.4775    0.0737    4.6309 H   0  0  0  0  0  0  0  0  0  0  0  0
  5  6  2  0  0  0  0
  5  7  1  0  0  0  0
  2  3  1  0  0  0  0
  2  4  1  0  0  0  0
  2  5  1  0  0  0  0
  1  2  1  0  0  0  0
 22 23  2  0  0  0  0
 22 24  1  0  0  0  0
 19 20  1  0  0  0  0
 19 21  1  0  0  0  0
 17 18  2  0  0  0  0
 17 19  1  0  0  0  0
 14 15  1  0  0  0  0
 14 16  1  0  0  0  0
 14 17  1  0  0  0  0
 11 12  1  0  0  0  0
 11 13  1  0  0  0  0
 11 14  1  0  0  0  0
  9 10  1  0  0  0  0
  9 11  1  0  0  0  0
  9 22  1  0  0  0  0
  7  8  1  0  0  0  0
  7  9  1  0  0  0  0
 26 27  1  0  0  0  0
 26 28  1  0  0  0  0
 26 29  1  0  0  0  0
 24 25  1  0  0  0  0
 24 26  1  0  0  0  0
M  END
$$$$
default_name
  -OEChem-02102213163D

 29 28  0     1  0  0  0  0  0999 V2000
   -3.3998   -3.6239    1.3678 H   0  0  0  0  0  0  0  0  0  0  0  0
   -3.3608   -2.6749    0.8348 C   0  0  0  0  0  0  0  0  0  0  0  0
   -4.0988   -1.9909    1.2498 H   0  0  0  0  0  0  0  0  0  0  0  0
   -3.5618   -2.8419   -0.2222 H   0  0  0  0  0  0  0  0  0  0  0  0
   -1.9818   -2.0809    0.9918 C   0  0  0  0  0  0  0  0  0  0  0  0
   -1.1288   -2.6669    1.6468 O   0  0  0  0  0  0  0  0  0  0  0  0
   -1.7648   -0.9089    0.3998 N   0  0  0  0  0  0  0  0  0  0  0  0
   -2.5238   -0.4719   -0.1032 H   0  0  0  0  0  0  0  0  0  0  0  0
   -0.4848   -0.1959    0.4138 C   0  0  1  0  0  0  0  0  0  0  0  0
    0.2783   -0.8411   -0.0248 H   0  0  0  0  0  0  0  0  0  0  0  0
   -0.6101    1.0666   -0.4611 C   0  0  0  0  0  0  0  0  0  0  0  0
   -1.3441    0.8695   -1.2452 H   0  0  0  0  0  0  0  0  0  0  0  0
   -0.9791    1.8901    0.1522 H   0  0  0  0  0  0  0  0  0  0  0  0
    0.7085    1.4952   -1.1280 C   0  0  0  0  0  0  0  0  0  0  0  0
    1.5211    1.4397   -0.4039 H   0  0  0  0  0  0  0  0  0  0  0  0
    0.9273    0.8134   -1.9497 H   0  0  0  0  0  0  0  0  0  0  0  0
    0.6670    2.9190   -1.6828 C   0  0  0  0  0  0  0  0  0  0  0  0
   -0.3315    3.6143   -1.6673 O   0  0  0  0  0  0  0  0  0  0  0  0
    1.7680    3.4229   -2.1967 N   0  0  0  0  0  0  0  0  0  0  0  0
    1.6840    4.3619   -2.5455 H   0  0  0  0  0  0  0  0  0  0  0  0
    2.6168    2.8957   -2.2320 H   0  0  0  0  0  0  0  0  0  0  0  0
   -0.0637    0.1284    1.8555 C   0  0  0  0  0  0  0  0  0  0  0  0
    1.0918   -0.0745    2.2236 O   0  0  0  0  0  0  0  0  0  0  0  0
   -1.0024    0.6217    2.6735 N   0  0  0  0  0  0  0  0  0  0  0  0
   -1.9213    0.7848    2.2938 H   0  0  0  0  0  0  0  0  0  0  0  0
   -0.7639    0.9676    4.0741 C   0  0  0  0  0  0  0  0  0  0  0  0
    0.0520    1.6916    4.1400 H   0  0  0  0  0  0  0  0  0  0  0  0
   -1.6626    1.3984    4.5182 H   0  0  0  0  0  0  0  0  0  0  0  0
   -0.4775    0.0737    4.6309 H   0  0  0  0  0  0  0  0  0  0  0  0
  5  6  2  0  0  0  0
  5  7  1  0  0  0  0
  2  3  1  0  0  0  0
  2  4  1  0  0  0  0
  2  5  1  0  0  0  0
  1  2  1  0  0  0  0
 22 23  2  0  0  0  0
 22 24  1  0  0  0  0
 19 20  1  0  0  0  0
 19 21  1  0  0  0  0
 17 18  2  0  0  0  0
 17 19  1  0  0  0  0
 14 15  1  0  0  0  0
 14 16  1  0  0  0  0
 14 17  1  0  0  0  0
 11 12  1  0  0  0  0
 11 13  1  0  0  0  0
 11 14  1  0  0  0  0
  9 10  1  0  0  0  0
  9 11  1  0  0  0  0
  9 22  1  0  0  0  0
  7  8  1  0  0  0  0
  7  9  1  0  0  0  0
 26 27  1  0  0  0  0
 26 28  1  0  0  0  0
 26 29  1  0  0  0  0
 24 25  1  0  0  0  0
 24 26  1  0  0  0  0
M  END
$$$$
default_name
  -OEChem-02102213163D

 29 28  0     1  0  0  0  0  0999 V2000
   -3.3998   -3.6239    1.3678 H   0  0  0  0  0  0  0  0  0  0  0  0
   -3.3608   -2.6749    0.8348 C   0  0  0  0  0  0  0  0  0  0  0  0
   -4.0988   -1.9909    1.2498 H   0  0  0  0  0  0  0  0  0  0  0  0
   -3.5618   -2.8419   -0.2222 H   0  0  0  0  0  0  0  0  0  0  0  0
   -1.9818   -2.0809    0.9918 C   0  0  0  0  0  0  0  0  0  0  0  0
   -1.1288   -2.6669    1.6468 O   0  0  0  0  0  0  0  0  0  0  0  0
   -1.7648   -0.9089    0.3998 N   0  0  0  0  0  0  0  0  0  0  0  0
   -2.5238   -0.4719   -0.1032 H   0  0  0  0  0  0  0  0  0  0  0  0
   -0.4848   -0.1959    0.4138 C   0  0  1  0  0  0  0  0  0  0  0  0
    0.2783   -0.8411   -0.0248 H   0  0  0  0  0  0  0  0  0  0  0  0
   -0.6101    1.0666   -0.4611 C   0  0  0  0  0  0  0  0  0  0  0  0
   -1.3441    0.8695   -1.2452 H   0  0  0  0  0  0  0  0  0  0  0  0
   -0.9791    1.8901    0.1522 H   0  0  0  0  0  0  0  0  0  0  0  0
    0.7085    1.4952   -1.1280 C   0  0  0  0  0  0  0  0  0  0  0  0
    1.5501    1.1933   -0.5048 H   0  0  0  0  0  0  0  0  0  0  0  0
    0.7945    0.9977   -2.0940 H   0  0  0  0  0  0  0  0  0  0  0  0
    0.8057    3.0039   -1.3539 C   0  0  0  0  0  0  0  0  0  0  0  0
   -0.0992    3.7777   -1.1029 O   0  0  0  0  0  0  0  0  0  0  0  0
    1.9268    3.4935   -1.8373 N   0  0  0  0  0  0  0  0  0  0  0  0
    1.9359    4.4906   -1.9648 H   0  0  0  0  0  0  0  0  0  0  0  0
    2.7024    2.9026   -2.0583 H   0  0  0  0  0  0  0  0  0  0  0  0
   -0.0637    0.1284    1.8555 C   0  0  0  0  0  0  0  0  0  0  0  0
    1.0918   -0.0745    2.2236 O   0  0  0  0  0  0  0  0  0  0  0  0
   -1.0024    0.6217    2.6735 N   0  0  0  0  0  0  0  0  0  0  0  0
   -1.9213    0.7848    2.2938 H   0  0  0  0  0  0  0  0  0  0  0  0
   -0.7639    0.9676    4.0741 C   0  0  0  0  0  0  0  0  0  0  0  0
    0.0520    1.6916    4.1400 H   0  0  0  0  0  0  0  0  0  0  0  0
   -1.6626    1.3984    4.5182 H   0  0  0  0  0  0  0  0  0  0  0  0
   -0.4775    0.0737    4.6309 H   0  0  0  0  0  0  0  0  0  0  0  0
  5  6  2  0  0  0  0
  5  7  1  0  0  0  0
  2  3  1  0  0  0  0
  2  4  1  0  0  0  0
  2  5  1  0  0  0  0
  1  2  1  0  0  0  0
 22 23  2  0  0  0  0
 22 24  1  0  0  0  0
 19 20  1  0  0  0  0
 19 21  1  0  0  0  0
 17 18  2  0  0  0  0
 17 19  1  0  0  0  0
 14 15  1  0  0  0  0
 14 16  1  0  0  0  0
 14 17  1  0  0  0  0
 11 12  1  0  0  0  0
 11 13  1  0  0  0  0
 11 14  1  0  0  0  0
  9 10  1  0  0  0  0
  9 11  1  0  0  0  0
  9 22  1  0  0  0  0
  7  8  1  0  0  0  0
  7  9  1  0  0  0  0
 26 27  1  0  0  0  0
 26 28  1  0  0  0  0
 26 29  1  0  0  0  0
 24 25  1  0  0  0  0
 24 26  1  0  0  0  0
M  END
$$$$
default_name
  -OEChem-02102213163D

 29 28  0     1  0  0  0  0  0999 V2000
   -3.3998   -3.6239    1.3678 H   0  0  0  0  0  0  0  0  0  0  0  0
   -3.3608   -2.6749    0.8348 C   0  0  0  0  0  0  0  0  0  0  0  0
   -4.0988   -1.9909    1.2498 H   0  0  0  0  0  0  0  0  0  0  0  0
   -3.5618   -2.8419   -0.2222 H   0  0  0  0  0  0  0  0  0  0  0  0
   -1.9818   -2.0809    0.9918 C   0  0  0  0  0  0  0  0  0  0  0  0
   -1.1288   -2.6669    1.6468 O   0  0  0  0  0  0  0  0  0  0  0  0
   -1.7648   -0.9089    0.3998 N   0  0  0  0  0  0  0  0  0  0  0  0
   -2.5238   -0.4719   -0.1032 H   0  0  0  0  0  0  0  0  0  0  0  0
   -0.4848   -0.1959    0.4138 C   0  0  1  0  0  0  0  0  0  0  0  0
    0.2783   -0.8411   -0.0248 H   0  0  0  0  0  0  0  0  0  0  0  0
   -0.6101    1.0666   -0.4611 C   0  0  0  0  0  0  0  0  0  0  0  0
   -1.3441    0.8695   -1.2452 H   0  0  0  0  0  0  0  0  0  0  0  0
   -0.9791    1.8901    0.1522 H   0  0  0  0  0  0  0  0  0  0  0  0
    0.7085    1.4952   -1.1280 C   0  0  0  0  0  0  0  0  0  0  0  0
    1.5432    0.9745   -0.6591 H   0  0  0  0  0  0  0  0  0  0  0  0
    0.6764    1.2226   -2.1828 H   0  0  0  0  0  0  0  0  0  0  0  0
    0.9729    2.9974   -1.0275 C   0  0  0  0  0  0  0  0  0  0  0  0
    0.1843    3.7843   -0.5382 O   0  0  0  0  0  0  0  0  0  0  0  0
    2.1140    3.4642   -1.4858 N   0  0  0  0  0  0  0  0  0  0  0  0
    2.2354    4.4578   -1.3935 H   0  0  0  0  0  0  0  0  0  0  0  0
    2.7984    2.8611   -1.8951 H   0  0  0  0  0  0  0  0  0  0  0  0
   -0.0637    0.1284    1.8555 C   0  0  0  0  0  0  0  0  0  0  0  0
    1.0918   -0.0745    2.2236 O   0  0  0  0  0  0  0  0  0  0  0  0
   -1.0024    0.6217    2.6735 N   0  0  0  0  0  0  0  0  0  0  0  0
   -1.9213    0.7848    2.2938 H   0  0  0  0  0  0  0  0  0  0  0  0
   -0.7639    0.9676    4.0741 C   0  0  0  0  0  0  0  0  0  0  0  0
    0.0520    1.6916    4.1400 H   0  0  0  0  0  0  0  0  0  0  0  0
   -1.6626    1.3984    4.5182 H   0  0  0  0  0  0  0  0  0  0  0  0
   -0.4775    0.0737    4.6309 H   0  0  0  0  0  0  0  0  0  0  0  0
  5  6  2  0  0  0  0
  5  7  1  0  0  0  0
  2  3  1  0  0  0  0
  2  4  1  0  0  0  0
  2  5  1  0  0  0  0
  1  2  1  0  0  0  0
 22 23  2  0  0  0  0
 22 24  1  0  0  0  0
 19 20  1  0  0  0  0
 19 21  1  0  0  0  0
 17 18  2  0  0  0  0
 17 19  1  0  0  0  0
 14 15  1  0  0  0  0
 14 16  1  0  0  0  0
 14 17  1  0  0  0  0
 11 12  1  0  0  0  0
 11 13  1  0  0  0  0
 11 14  1  0  0  0  0
  9 10  1  0  0  0  0
  9 11  1  0  0  0  0
  9 22  1  0  0  0  0
  7  8  1  0  0  0  0
  7  9  1  0  0  0  0
 26 27  1  0  0  0  0
 26 28  1  0  0  0  0
 26 29  1  0  0  0  0
 24 25  1  0  0  0  0
 24 26  1  0  0  0  0
M  END
$$$$
default_name
  -OEChem-02102213163D

 29 28  0     1  0  0  0  0  0999 V2000
   -3.3998   -3.6239    1.3678 H   0  0  0  0  0  0  0  0  0  0  0  0
   -3.3608   -2.6749    0.8348 C   0  0  0  0  0  0  0  0  0  0  0  0
   -4.0988   -1.9909    1.2498 H   0  0  0  0  0  0  0  0  0  0  0  0
   -3.5618   -2.8419   -0.2222 H   0  0  0  0  0  0  0  0  0  0  0  0
   -1.9818   -2.0809    0.9918 C   0  0  0  0  0  0  0  0  0  0  0  0
   -1.1288   -2.6669    1.6468 O   0  0  0  0  0  0  0  0  0  0  0  0
   -1.7648   -0.9089    0.3998 N   0  0  0  0  0  0  0  0  0  0  0  0
   -2.5238   -0.4719   -0.1032 H   0  0  0  0  0  0  0  0  0  0  0  0
   -0.4848   -0.1959    0.4138 C   0  0  1  0  0  0  0  0  0  0  0  0
    0.2783   -0.8411   -0.0248 H   0  0  0  0  0  0  0  0  0  0  0  0
   -0.6101    1.0666   -0.4611 C   0  0  0  0  0  0  0  0  0  0  0  0
   -1.3441    0.8695   -1.2452 H   0  0  0  0  0  0  0  0  0  0  0  0
   -0.9791    1.8901    0.1522 H   0  0  0  0  0  0  0  0  0  0  0  0
    0.7085    1.4952   -1.1280 C   0  0  0  0  0  0  0  0  0  0  0  0
    1.5009    0.7981   -0.8562 H   0  0  0  0  0  0  0  0  0  0  0  0
    0.5812    1.4729   -2.2103 H   0  0  0  0  0  0  0  0  0  0  0  0
    1.1572    2.9000   -0.7256 C   0  0  0  0  0  0  0  0  0  0  0  0
    0.4995    3.6337   -0.0117 O   0  0  0  0  0  0  0  0  0  0  0  0
    2.3170    3.3369   -1.1664 N   0  0  0  0  0  0  0  0  0  0  0  0
    2.5623    4.2658   -0.8706 H   0  0  0  0  0  0  0  0  0  0  0  0
    2.8982    2.7740   -1.7537 H   0  0  0  0  0  0  0  0  0  0  0  0
   -0.0637    0.1284    1.8555 C   0  0  0  0  0  0  0  0  0  0  0  0
    1.0918   -0.0745    2.2236 O   0  0  0  0  0  0  0  0  0  0  0  0
   -1.0024    0.6217    2.6735 N   0  0  0  0  0  0  0  0  0  0  0  0
   -1.9213    0.7848    2.2938 H   0  0  0  0  0  0  0  0  0  0  0  0
   -0.7639    0.9676    4.0741 C   0  0  0  0  0  0  0  0  0  0  0  0
    0.0520    1.6916    4.1400 H   0  0  0  0  0  0  0  0  0  0  0  0
   -1.6626    1.3984    4.5182 H   0  0  0  0  0  0  0  0  0  0  0  0
   -0.4775    0.0737    4.6309 H   0  0  0  0  0  0  0  0  0  0  0  0
  5  6  2  0  0  0  0
  5  7  1  0  0  0  0
  2  3  1  0  0  0  0
  2  4  1  0  0  0  0
  2  5  1  0  0  0  0
  1  2  1  0  0  0  0
 22 23  2  0  0  0  0
 22 24  1  0  0  0  0
 19 20  1  0  0  0  0
 19 21  1  0  0  0  0
 17 18  2  0  0  0  0
 17 19  1  0  0  0  0
 14 15  1  0  0  0  0
 14 16  1  0  0  0  0
 14 17  1  0  0  0  0
 11 12  1  0  0  0  0
 11 13  1  0  0  0  0
 11 14  1  0  0  0  0
  9 10  1  0  0  0  0
  9 11  1  0  0  0  0
  9 22  1  0  0  0  0
  7  8  1  0  0  0  0
  7  9  1  0  0  0  0
 26 27  1  0  0  0  0
 26 28  1  0  0  0  0
 26 29  1  0  0  0  0
 24 25  1  0  0  0  0
 24 26  1  0  0  0  0
M  END
$$$$
default_name
  -OEChem-02102213163D

 29 28  0     1  0  0  0  0  0999 V2000
   -3.3998   -3.6239    1.3678 H   0  0  0  0  0  0  0  0  0  0  0  0
   -3.3608   -2.6749    0.8348 C   0  0  0  0  0  0  0  0  0  0  0  0
   -4.0988   -1.9909    1.2498 H   0  0  0  0  0  0  0  0  0  0  0  0
   -3.5618   -2.8419   -0.2222 H   0  0  0  0  0  0  0  0  0  0  0  0
   -1.9818   -2.0809    0.9918 C   0  0  0  0  0  0  0  0  0  0  0  0
   -1.1288   -2.6669    1.6468 O   0  0  0  0  0  0  0  0  0  0  0  0
   -1.7648   -0.9089    0.3998 N   0  0  0  0  0  0  0  0  0  0  0  0
   -2.5238   -0.4719   -0.1032 H   0  0  0  0  0  0  0  0  0  0  0  0
   -0.4848   -0.1959    0.4138 C   0  0  1  0  0  0  0  0  0  0  0  0
    0.2783   -0.8411   -0.0248 H   0  0  0  0  0  0  0  0  0  0  0  0
   -0.6101    1.0666   -0.4611 C   0  0  0  0  0  0  0  0  0  0  0  0
   -1.3441    0.8695   -1.2452 H   0  0  0  0  0  0  0  0  0  0  0  0
   -0.9791    1.8901    0.1522 H   0  0  0  0  0  0  0  0  0  0  0  0
    0.7085    1.4952   -1.1280 C   0  0  0  0  0  0  0  0  0  0  0  0
    1.4260    0.6761   -1.0827 H   0  0  0  0  0  0  0  0  0  0  0  0
    0.5154    1.7313   -2.1744 H   0  0  0  0  0  0  0  0  0  0  0  0
    1.3461    2.7182   -0.4689 C   0  0  0  0  0  0  0  0  0  0  0  0
    0.8250    3.3360    0.4407 O   0  0  0  0  0  0  0  0  0  0  0  0
    2.5217    3.1204   -0.9006 N   0  0  0  0  0  0  0  0  0  0  0  0
    2.8942    3.9277   -0.4316 H   0  0  0  0  0  0  0  0  0  0  0  0
    2.9951    2.6473   -1.6435 H   0  0  0  0  0  0  0  0  0  0  0  0
   -0.0637    0.1284    1.8555 C   0  0  0  0  0  0  0  0  0  0  0  0
    1.0918   -0.0745    2.2236 O   0  0  0  0  0  0  0  0  0  0  0  0
   -1.0024    0.6217    2.6735 N   0  0  0  0  0  0  0  0  0  0  0  0
   -1.9213    0.7848    2.2938 H   0  0  0  0  0  0  0  0  0  0  0  0
   -0.7639    0.9676    4.0741 C   0  0  0  0  0  0  0  0  0  0  0  0
    0.0520    1.6916    4.1400 H   0  0  0  0  0  0  0  0  0  0  0  0
   -1.6626    1.3984    4.5182 H   0  0  0  0  0  0  0  0  0  0  0  0
   -0.4775    0.0737    4.6309 H   0  0  0  0  0  0  0  0  0  0  0  0
  5  6  2  0  0  0  0
  5  7  1  0  0  0  0
  2  3  1  0  0  0  0
  2  4  1  0  0  0  0
  2  5  1  0  0  0  0
  1  2  1  0  0  0  0
 22 23  2  0  0  0  0
 22 24  1  0  0  0  0
 19 20  1  0  0  0  0
 19 21  1  0  0  0  0
 17 18  2  0  0  0  0
 17 19  1  0  0  0  0
 14 15  1  0  0  0  0
 14 16  1  0  0  0  0
 14 17  1  0  0  0  0
 11 12  1  0  0  0  0
 11 13  1  0  0  0  0
 11 14  1  0  0  0  0
  9 10  1  0  0  0  0
  9 11  1  0  0  0  0
  9 22  1  0  0  0  0
  7  8  1  0  0  0  0
  7  9  1  0  0  0  0
 26 27  1  0  0  0  0
 26 28  1  0  0  0  0
 26 29  1  0  0  0  0
 24 25  1  0  0  0  0
 24 26  1  0  0  0  0
M  END
$$$$
default_name
  -OEChem-02102213163D

 29 28  0     1  0  0  0  0  0999 V2000
   -3.3998   -3.6239    1.3678 H   0  0  0  0  0  0  0  0  0  0  0  0
   -3.3608   -2.6749    0.8348 C   0  0  0  0  0  0  0  0  0  0  0  0
   -4.0988   -1.9909    1.2498 H   0  0  0  0  0  0  0  0  0  0  0  0
   -3.5618   -2.8419   -0.2222 H   0  0  0  0  0  0  0  0  0  0  0  0
   -1.9818   -2.0809    0.9918 C   0  0  0  0  0  0  0  0  0  0  0  0
   -1.1288   -2.6669    1.6468 O   0  0  0  0  0  0  0  0  0  0  0  0
   -1.7648   -0.9089    0.3998 N   0  0  0  0  0  0  0  0  0  0  0  0
   -2.5238   -0.4719   -0.1032 H   0  0  0  0  0  0  0  0  0  0  0  0
   -0.4848   -0.1959    0.4138 C   0  0  1  0  0  0  0  0  0  0  0  0
    0.2783   -0.8411   -0.0248 H   0  0  0  0  0  0  0  0  0  0  0  0
   -0.6101    1.0666   -0.4611 C   0  0  0  0  0  0  0  0  0  0  0  0
   -1.3441    0.8695   -1.2452 H   0  0  0  0  0  0  0  0  0  0  0  0
   -0.9791    1.8901    0.1522 H   0  0  0  0  0  0  0  0  0  0  0  0
    0.7085    1.4952   -1.1280 C   0  0  0  0  0  0  0  0  0  0  0  0
    1.3236    0.6170   -1.3230 H   0  0  0  0  0  0  0  0  0  0  0  0
    0.4833    1.9804   -2.0776 H   0  0  0  0  0  0  0  0  0  0  0  0
    1.5266    2.4645   -0.2749 C   0  0  0  0  0  0  0  0  0  0  0  0
    1.1387    2.9116    0.7882 O   0  0  0  0  0  0  0  0  0  0  0  0
    2.7144    2.8293   -0.7068 N   0  0  0  0  0  0  0  0  0  0  0  0
    3.2084    3.4665   -0.1066 H   0  0  0  0  0  0  0  0  0  0  0  0
    3.0824    2.4897   -1.5722 H   0  0  0  0  0  0  0  0  0  0  0  0
   -0.0637    0.1284    1.8555 C   0  0  0  0  0  0  0  0  0  0  0  0
    1.0918   -0.0745    2.2236 O   0  0  0  0  0  0  0  0  0  0  0  0
   -1.0024    0.6217    2.6735 N   0  0  0  0  0  0  0  0  0  0  0  0
   -1.9213    0.7848    2.2938 H   0  0  0  0  0  0  0  0  0  0  0  0
   -0.7639    0.9676    4.0741 C   0  0  0  0  0  0  0  0  0  0  0  0
    0.0520    1.6916    4.1400 H   0  0  0  0  0  0  0  0  0  0  0  0
   -1.6626    1.3984    4.5182 H   0  0  0  0  0  0  0  0  0  0  0  0
   -0.4775    0.0737    4.6309 H   0  0  0  0  0  0  0  0  0  0  0  0
  5  6  2  0  0  0  0
  5  7  1  0  0  0  0
  2  3  1  0  0  0  0
  2  4  1  0  0  0  0
  2  5  1  0  0  0  0
  1  2  1  0  0  0  0
 22 23  2  0  0  0  0
 22 24  1  0  0  0  0
 19 20  1  0  0  0  0
 19 21  1  0  0  0  0
 17 18  2  0  0  0  0
 17 19  1  0  0  0  0
 14 15  1  0  0  0  0
 14 16  1  0  0  0  0
 14 17  1  0  0  0  0
 11 12  1  0  0  0  0
 11 13  1  0  0  0  0
 11 14  1  0  0  0  0
  9 10  1  0  0  0  0
  9 11  1  0  0  0  0
  9 22  1  0  0  0  0
  7  8  1  0  0  0  0
  7  9  1  0  0  0  0
 26 27  1  0  0  0  0
 26 28  1  0  0  0  0
 26 29  1  0  0  0  0
 24 25  1  0  0  0  0
 24 26  1  0  0  0  0
M  END
$$$$
default_name
  -OEChem-02102213163D

 29 28  0     1  0  0  0  0  0999 V2000
   -3.3998   -3.6239    1.3678 H   0  0  0  0  0  0  0  0  0  0  0  0
   -3.3608   -2.6749    0.8348 C   0  0  0  0  0  0  0  0  0  0  0  0
   -4.0988   -1.9909    1.2498 H   0  0  0  0  0  0  0  0  0  0  0  0
   -3.5618   -2.8419   -0.2222 H   0  0  0  0  0  0  0  0  0  0  0  0
   -1.9818   -2.0809    0.9918 C   0  0  0  0  0  0  0  0  0  0  0  0
   -1.1288   -2.6669    1.6468 O   0  0  0  0  0  0  0  0  0  0  0  0
   -1.7648   -0.9089    0.3998 N   0  0  0  0  0  0  0  0  0  0  0  0
   -2.5238   -0.4719   -0.1032 H   0  0  0  0  0  0  0  0  0  0  0  0
   -0.4848   -0.1959    0.4138 C   0  0  1  0  0  0  0  0  0  0  0  0
    0.2783   -0.8411   -0.0248 H   0  0  0  0  0  0  0  0  0  0  0  0
   -0.6101    1.0666   -0.4611 C   0  0  0  0  0  0  0  0  0  0  0  0
   -1.3441    0.8695   -1.2452 H   0  0  0  0  0  0  0  0  0  0  0  0
   -0.9791    1.8901    0.1522 H   0  0  0  0  0  0  0  0  0  0  0  0
    0.7085    1.4952   -1.1280 C   0  0  0  0  0  0  0  0  0  0  0  0
    1.2008    0.6246   -1.5610 H   0  0  0  0  0  0  0  0  0  0  0  0
    0.4873    2.2032   -1.9266 H   0  0  0  0  0  0  0  0  0  0  0  0
    1.6866    2.1562   -0.1568 C   0  0  0  0  0  0  0  0  0  0  0  0
    1.4191    2.3894    1.0071 O   0  0  0  0  0  0  0  0  0  0  0  0
    2.8818    2.4835   -0.5980 N   0  0  0  0  0  0  0  0  0  0  0  0
    3.4837    2.9137    0.0825 H   0  0  0  0  0  0  0  0  0  0  0  0
    3.1542    2.3118   -1.5446 H   0  0  0  0  0  0  0  0  0  0  0  0
   -0.0637    0.1284    1.8555 C   0  0  0  0  0  0  0  0  0  0  0  0
    1.0918   -0.0745    2.2236 O   0  0  0  0  0  0  0  0  0  0  0  0
   -1.0024    0.6217    2.6735 N   0  0  0  0  0  0  0  0  0  0  0  0
   -1.9213    0.7848    2.2938 H   0  0  0  0  0  0  0  0  0  0  0  0
   -0.7639    0.9676    4.0741 C   0  0  0  0  0  0  0  0  0  0  0  0
    0.0520    1.6916    4.1400 H   0  0  0  0  0  0  0  0  0  0  0  0
   -1.6626    1.3984    4.5182 H   0  0  0  0  0  0  0  0  0  0  0  0
   -0.4775    0.0737    4.6309 H   0  0  0  0  0  0  0  0  0  0  0  0
  5  6  2  0  0  0  0
  5  7  1  0  0  0  0
  2  3  1  0  0  0  0
  2  4  1  0  0  0  0
  2  5  1  0  0  0  0
  1  2  1  0  0  0  0
 22 23  2  0  0  0  0
 22 24  1  0  0  0  0
 19 20  1  0  0  0  0
 19 21  1  0  0  0  0
 17 18  2  0  0  0  0
 17 19  1  0  0  0  0
 14 15  1  0  0  0  0
 14 16  1  0  0  0  0
 14 17  1  0  0  0  0
 11 12  1  0  0  0  0
 11 13  1  0  0  0  0
 11 14  1  0  0  0  0
  9 10  1  0  0  0  0
  9 11  1  0  0  0  0
  9 22  1  0  0  0  0
  7  8  1  0  0  0  0
  7  9  1  0  0  0  0
 26 27  1  0  0  0  0
 26 28  1  0  0  0  0
 26 29  1  0  0  0  0
 24 25  1  0  0  0  0
 24 26  1  0  0  0  0
M  END
$$$$
default_name
  -OEChem-02102213163D

 29 28  0     1  0  0  0  0  0999 V2000
   -3.3998   -3.6239    1.3678 H   0  0  0  0  0  0  0  0  0  0  0  0
   -3.3608   -2.6749    0.8348 C   0  0  0  0  0  0  0  0  0  0  0  0
   -4.0988   -1.9909    1.2498 H   0  0  0  0  0  0  0  0  0  0  0  0
   -3.5618   -2.8419   -0.2222 H   0  0  0  0  0  0  0  0  0  0  0  0
   -1.9818   -2.0809    0.9918 C   0  0  0  0  0  0  0  0  0  0  0  0
   -1.1288   -2.6669    1.6468 O   0  0  0  0  0  0  0  0  0  0  0  0
   -1.7648   -0.9089    0.3998 N   0  0  0  0  0  0  0  0  0  0  0  0
   -2.5238   -0.4719   -0.1032 H   0  0  0  0  0  0  0  0  0  0  0  0
   -0.4848   -0.1959    0.4138 C   0  0  1  0  0  0  0  0  0  0  0  0
    0.2783   -0.8411   -0.0248 H   0  0  0  0  0  0  0  0  0  0  0  0
   -0.6101    1.0666   -0.4611 C   0  0  0  0  0  0  0  0  0  0  0  0
   -1.3441    0.8695   -1.2452 H   0  0  0  0  0  0  0  0  0  0  0  0
   -0.9791    1.8901    0.1522 H   0  0  0  0  0  0  0  0  0  0  0  0
    0.7085    1.4952   -1.1280 C   0  0  0  0  0  0  0  0  0  0  0  0
    1.0659    0.6986   -1.7802 H   0  0  0  0  0  0  0  0  0  0  0  0
    0.5270    2.3844   -1.7317 H   0  0  0  0  0  0  0  0  0  0  0  0
    1.8150    1.8143   -0.1227 C   0  0  0  0  0  0  0  0  0  0  0  0
    1.6471    1.8050    1.0824 O   0  0  0  0  0  0  0  0  0  0  0  0
    3.0125    2.1065   -0.5817 N   0  0  0  0  0  0  0  0  0  0  0  0
    3.7012    2.3068    0.1226 H   0  0  0  0  0  0  0  0  0  0  0  0
    3.2056    2.1258   -1.5625 H   0  0  0  0  0  0  0  0  0  0  0  0
   -0.0637    0.1284    1.8555 C   0  0  0  0  0  0  0  0  0  0  0  0
    1.0918   -0.0745    2.2236 O   0  0  0  0  0  0  0  0  0  0  0  0
   -1.0024    0.6217    2.6735 N   0  0  0  0  0  0  0  0  0  0  0  0
   -1.9213    0.7848    2.2938 H   0  0  0  0  0  0  0  0  0  0  0  0
   -0.7639    0.9676    4.0741 C   0  0  0  0  0  0  0  0  0  0  0  0
    0.0520    1.6916    4.1400 H   0  0  0  0  0  0  0  0  0  0  0  0
   -1.6626    1.3984    4.5182 H   0  0  0  0  0  0  0  0  0  0  0  0
   -0.4775    0.0737    4.6309 H   0  0  0  0  0  0  0  0  0  0  0  0
  5  6  2  0  0  0  0
  5  7  1  0  0  0  0
  2  3  1  0  0  0  0
  2  4  1  0  0  0  0
  2  5  1  0  0  0  0
  1  2  1  0  0  0  0
 22 23  2  0  0  0  0
 22 24  1  0  0  0  0
 19 20  1  0  0  0  0
 19 21  1  0  0  0  0
 17 18  2  0  0  0  0
 17 19  1  0  0  0  0
 14 15  1  0  0  0  0
 14 16  1  0  0  0  0
 14 17  1  0  0  0  0
 11 12  1  0  0  0  0
 11 13  1  0  0  0  0
 11 14  1  0  0  0  0
  9 10  1  0  0  0  0
  9 11  1  0  0  0  0
  9 22  1  0  0  0  0
  7  8  1  0  0  0  0
  7  9  1  0  0  0  0
 26 27  1  0  0  0  0
 26 28  1  0  0  0  0
 26 29  1  0  0  0  0
 24 25  1  0  0  0  0
 24 26  1  0  0  0  0
M  END
$$$$
default_name
  -OEChem-02102213163D

 29 28  0     1  0  0  0  0  0999 V2000
   -3.3998   -3.6239    1.3678 H   0  0  0  0  0  0  0  0  0  0  0  0
   -3.3608   -2.6749    0.8348 C   0  0  0  0  0  0  0  0  0  0  0  0
   -4.0988   -1.9909    1.2498 H   0  0  0  0  0  0  0  0  0  0  0  0
   -3.5618   -2.8419   -0.2222 H   0  0  0  0  0  0  0  0  0  0  0  0
   -1.9818   -2.0809    0.9918 C   0  0  0  0  0  0  0  0  0  0  0  0
   -1.1288   -2.6669    1.6468 O   0  0  0  0  0  0  0  0  0  0  0  0
   -1.7648   -0.9089    0.3998 N   0  0  0  0  0  0  0  0  0  0  0  0
   -2.5238   -0.4719   -0.1032 H   0  0  0  0  0  0  0  0  0  0  0  0
   -0.4848   -0.1959    0.4138 C   0  0  1  0  0  0  0  0  0  0  0  0
    0.2783   -0.8411   -0.0248 H   0  0  0  0  0  0  0  0  0  0  0  0
   -0.6101    1.0666   -0.4611 C   0  0  0  0  0  0  0  0  0  0  0  0
   -1.3441    0.8695   -1.2452 H   0  0  0  0  0  0  0  0  0  0  0  0
   -0.9791    1.8901    0.1522 H   0  0  0  0  0  0  0  0  0  0  0  0
    0.7085    1.4952   -1.1280 C   0  0  0  0  0  0  0  0  0  0  0  0
    0.9281    0.8338   -1.9659 H   0  0  0  0  0  0  0  0  0  0  0  0
    0.5998    2.5117   -1.5060 H   0  0  0  0  0  0  0  0  0  0  0  0
    1.9031    1.4620   -0.1748 C   0  0  0  0  0  0  0  0  0  0  0  0
    1.8073    1.1982    1.0092 O   0  0  0  0  0  0  0  0  0  0  0  0
    3.0977    1.7242   -0.6590 N   0  0  0  0  0  0  0  0  0  0  0  0
    3.8461    1.6874    0.0111 H   0  0  0  0  0  0  0  0  0  0  0  0
    3.2330    1.9443   -1.6249 H   0  0  0  0  0  0  0  0  0  0  0  0
   -0.0637    0.1284    1.8555 C   0  0  0  0  0  0  0  0  0  0  0  0
    1.0918   -0.0745    2.2236 O   0  0  0  0  0  0  0  0  0  0  0  0
   -1.0024    0.6217    2.6735 N   0  0  0  0  0  0  0  0  0  0  0  0
   -1.9213    0.7848    2.2938 H   0  0  0  0  0  0  0  0  0  0  0  0
   -0.7639    0.9676    4.0741 C   0  0  0  0  0  0  0  0  0  0  0  0
    0.0520    1.6916    4.1400 H   0  0  0  0  0  0  0  0  0  0  0  0
   -1.6626    1.3984    4.5182 H   0  0  0  0  0  0  0  0  0  0  0  0
   -0.4775    0.0737    4.6309 H   0  0  0  0  0  0  0  0  0  0  0  0
  5  6  2  0  0  0  0
  5  7  1  0  0  0  0
  2  3  1  0  0  0  0
  2  4  1  0  0  0  0
  2  5  1  0  0  0  0
  1  2  1  0  0  0  0
 22 23  2  0  0  0  0
 22 24  1  0  0  0  0
 19 20  1  0  0  0  0
 19 21  1  0  0  0  0
 17 18  2  0  0  0  0
 17 19  1  0  0  0  0
 14 15  1  0  0  0  0
 14 16  1  0  0  0  0
 14 17  1  0  0  0  0
 11 12  1  0  0  0  0
 11 13  1  0  0  0  0
 11 14  1  0  0  0  0
  9 10  1  0  0  0  0
  9 11  1  0  0  0  0
  9 22  1  0  0  0  0
  7  8  1  0  0  0  0
  7  9  1  0  0  0  0
 26 27  1  0  0  0  0
 26 28  1  0  0  0  0
 26 29  1  0  0  0  0
 24 25  1  0  0  0  0
 24 26  1  0  0  0  0
M  END
$$$$
default_name
  -OEChem-02102213163D

 29 28  0     1  0  0  0  0  0999 V2000
   -3.3998   -3.6239    1.3678 H   0  0  0  0  0  0  0  0  0  0  0  0
   -3.3608   -2.6749    0.8348 C   0  0  0  0  0  0  0  0  0  0  0  0
   -4.0988   -1.9909    1.2498 H   0  0  0  0  0  0  0  0  0  0  0  0
   -3.5618   -2.8419   -0.2222 H   0  0  0  0  0  0  0  0  0  0  0  0
   -1.9818   -2.0809    0.9918 C   0  0  0  0  0  0  0  0  0  0  0  0
   -1.1288   -2.6669    1.6468 O   0  0  0  0  0  0  0  0  0  0  0  0
   -1.7648   -0.9089    0.3998 N   0  0  0  0  0  0  0  0  0  0  0  0
   -2.5238   -0.4719   -0.1032 H   0  0  0  0  0  0  0  0  0  0  0  0
   -0.4848   -0.1959    0.4138 C   0  0  1  0  0  0  0  0  0  0  0  0
    0.2783   -0.8411   -0.0248 H   0  0  0  0  0  0  0  0  0  0  0  0
   -0.6101    1.0666   -0.4611 C   0  0  0  0  0  0  0  0  0  0  0  0
   -1.3441    0.8695   -1.2452 H   0  0  0  0  0  0  0  0  0  0  0  0
   -0.9791    1.8901    0.1522 H   0  0  0  0  0  0  0  0  0  0  0  0
    0.7085    1.4952   -1.1280 C   0  0  0  0  0  0  0  0  0  0  0  0
    0.7967    1.0211   -2.1053 H   0  0  0  0  0  0  0  0  0  0  0  0
    0.7006    2.5765   -1.2650 H   0  0  0  0  0  0  0  0  0  0  0  0
    1.9450    1.1234   -0.3097 C   0  0  0  0  0  0  0  0  0  0  0  0
    1.8886    0.6103    0.7922 O   0  0  0  0  0  0  0  0  0  0  0  0
    3.1315    1.3624   -0.8246 N   0  0  0  0  0  0  0  0  0  0  0  0
    3.9086    1.0975   -0.2445 H   0  0  0  0  0  0  0  0  0  0  0  0
    3.2347    1.7798   -1.7273 H   0  0  0  0  0  0  0  0  0  0  0  0
   -0.0637    0.1284    1.8555 C   0  0  0  0  0  0  0  0  0  0  0  0
    1.0918   -0.0745    2.2236 O   0  0  0  0  0  0  0  0  0  0  0  0
   -1.0024    0.6217    2.6735 N   0  0  0  0  0  0  0  0  0  0  0  0
   -1.9213    0.7848    2.2938 H   0  0  0  0  0  0  0  0  0  0  0  0
   -0.7639    0.9676    4.0741 C   0  0  0  0  0  0  0  0  0  0  0  0
    0.0520    1.6916    4.1400 H   0  0  0  0  0  0  0  0  0  0  0  0
   -1.6626    1.3984    4.5182 H   0  0  0  0  0  0  0  0  0  0  0  0
   -0.4775    0.0737    4.6309 H   0  0  0  0  0  0  0  0  0  0  0  0
  5  6  2  0  0  0  0
  5  7  1  0  0  0  0
  2  3  1  0  0  0  0
  2  4  1  0  0  0  0
  2  5  1  0  0  0  0
  1  2  1  0  0  0  0
 22 23  2  0  0  0  0
 22 24  1  0  0  0  0
 19 20  1  0  0  0  0
 19 21  1  0  0  0  0
 17 18  2  0  0  0  0
 17 19  1  0  0  0  0
 14 15  1  0  0  0  0
 14 16  1  0  0  0  0
 14 17  1  0  0  0  0
 11 12  1  0  0  0  0
 11 13  1  0  0  0  0
 11 14  1  0  0  0  0
  9 10  1  0  0  0  0
  9 11  1  0  0  0  0
  9 22  1  0  0  0  0
  7  8  1  0  0  0  0
  7  9  1  0  0  0  0
 26 27  1  0  0  0  0
 26 28  1  0  0  0  0
 26 29  1  0  0  0  0
 24 25  1  0  0  0  0
 24 26  1  0  0  0  0
M  END
$$$$
default_name
  -OEChem-02102213163D

 29 28  0     1  0  0  0  0  0999 V2000
   -3.3998   -3.6239    1.3678 H   0  0  0  0  0  0  0  0  0  0  0  0
   -3.3608   -2.6749    0.8348 C   0  0  0  0  0  0  0  0  0  0  0  0
   -4.0988   -1.9909    1.2498 H   0  0  0  0  0  0  0  0  0  0  0  0
   -3.5618   -2.8419   -0.2222 H   0  0  0  0  0  0  0  0  0  0  0  0
   -1.9818   -2.0809    0.9918 C   0  0  0  0  0  0  0  0  0  0  0  0
   -1.1288   -2.6669    1.6468 O   0  0  0  0  0  0  0  0  0  0  0  0
   -1.7648   -0.9089    0.3998 N   0  0  0  0  0  0  0  0  0  0  0  0
   -2.5238   -0.4719   -0.1032 H   0  0  0  0  0  0  0  0  0  0  0  0
   -0.4848   -0.1959    0.4138 C   0  0  1  0  0  0  0  0  0  0  0  0
    0.2783   -0.8411   -0.0248 H   0  0  0  0  0  0  0  0  0  0  0  0
   -0.6101    1.0666   -0.4611 C   0  0  0  0  0  0  0  0  0  0  0  0
   -1.3441    0.8695   -1.2452 H   0  0  0  0  0  0  0  0  0  0  0  0
   -0.9791    1.8901    0.1522 H   0  0  0  0  0  0  0  0  0  0  0  0
    0.7085    1.4952   -1.1280 C   0  0  0  0  0  0  0  0  0  0  0  0
    0.6808    1.2476   -2.1889 H   0  0  0  0  0  0  0  0  0  0  0  0
    0.8226    2.5743   -1.0251 H   0  0  0  0  0  0  0  0  0  0  0  0
    1.9377    0.8215   -0.5180 C   0  0  0  0  0  0  0  0  0  0  0  0
    1.8856    0.0815    0.4464 O   0  0  0  0  0  0  0  0  0  0  0  0
    3.1117    1.0459   -1.0672 N   0  0  0  0  0  0  0  0  0  0  0  0
    3.8843    0.5775   -0.6267 H   0  0  0  0  0  0  0  0  0  0  0  0
    3.2105    1.6434   -1.8628 H   0  0  0  0  0  0  0  0  0  0  0  0
   -0.0637    0.1284    1.8555 C   0  0  0  0  0  0  0  0  0  0  0  0
    1.0918   -0.0745    2.2236 O   0  0  0  0  0  0  0  0  0  0  0  0
   -1.0024    0.6217    2.6735 N   0  0  0  0  0  0  0  0  0  0  0  0
   -1.9213    0.7848    2.2938 H   0  0  0  0  0  0  0  0  0  0  0  0
   -0.7639    0.9676    4.0741 C   0  0  0  0  0  0  0  0  0  0  0  0
    0.0520    1.6916    4.1400 H   0  0  0  0  0  0  0  0  0  0  0  0
   -1.6626    1.3984    4.5182 H   0  0  0  0  0  0  0  0  0  0  0  0
   -0.4775    0.0737    4.6309 H   0  0  0  0  0  0  0  0  0  0  0  0
  5  6  2  0  0  0  0
  5  7  1  0  0  0  0
  2  3  1  0  0  0  0
  2  4  1  0  0  0  0
  2  5  1  0  0  0  0
  1  2  1  0  0  0  0
 22 23  2  0  0  0  0
 22 24  1  0  0  0  0
 19 20  1  0  0  0  0
 19 21  1  0  0  0  0
 17 18  2  0  0  0  0
 17 19  1  0  0  0  0
 14 15  1  0  0  0  0
 14 16  1  0  0  0  0
 14 17  1  0  0  0  0
 11 12  1  0  0  0  0
 11 13  1  0  0  0  0
 11 14  1  0  0  0  0
  9 10  1  0  0  0  0
  9 11  1  0  0  0  0
  9 22  1  0  0  0  0
  7  8  1  0  0  0  0
  7  9  1  0  0  0  0
 26 27  1  0  0  0  0
 26 28  1  0  0  0  0
 26 29  1  0  0  0  0
 24 25  1  0  0  0  0
 24 26  1  0  0  0  0
M  END
$$$$
default_name
  -OEChem-02102213163D

 29 28  0     1  0  0  0  0  0999 V2000
   -3.3998   -3.6239    1.3678 H   0  0  0  0  0  0  0  0  0  0  0  0
   -3.3608   -2.6749    0.8348 C   0  0  0  0  0  0  0  0  0  0  0  0
   -4.0988   -1.9909    1.2498 H   0  0  0  0  0  0  0  0  0  0  0  0
   -3.5618   -2.8419   -0.2222 H   0  0  0  0  0  0  0  0  0  0  0  0
   -1.9818   -2.0809    0.9918 C   0  0  0  0  0  0  0  0  0  0  0  0
   -1.1288   -2.6669    1.6468 O   0  0  0  0  0  0  0  0  0  0  0  0
   -1.7648   -0.9089    0.3998 N   0  0  0  0  0  0  0  0  0  0  0  0
   -2.5238   -0.4719   -0.1032 H   0  0  0  0  0  0  0  0  0  0  0  0
   -0.4848   -0.1959    0.4138 C   0  0  1  0  0  0  0  0  0  0  0  0
    0.2783   -0.8411   -0.0248 H   0  0  0  0  0  0  0  0  0  0  0  0
   -0.6101    1.0666   -0.4611 C   0  0  0  0  0  0  0  0  0  0  0  0
   -1.3441    0.8695   -1.2452 H   0  0  0  0  0  0  0  0  0  0  0  0
   -0.9791    1.8901    0.1522 H   0  0  0  0  0  0  0  0  0  0  0  0
    0.7085    1.4952   -1.1280 C   0  0  0  0  0  0  0  0  0  0  0  0
    0.5882    1.4980   -2.2111 H   0  0  0  0  0  0  0  0  0  0  0  0
    0.9575    2.5052   -0.8027 H   0  0  0  0  0  0  0  0  0  0  0  0
    1.8818    0.5770   -0.7858 C   0  0  0  0  0  0  0  0  0  0  0  0
    1.7985   -0.3523   -0.0047 O   0  0  0  0  0  0  0  0  0  0  0  0
    3.0395    0.7963   -1.3704 N   0  0  0  0  0  0  0  0  0  0  0  0
    3.7750    0.1626   -1.1095 H   0  0  0  0  0  0  0  0  0  0  0  0
    3.1620    1.5445   -2.0222 H   0  0  0  0  0  0  0  0  0  0  0  0
   -0.0637    0.1284    1.8555 C   0  0  0  0  0  0  0  0  0  0  0  0
    1.0918   -0.0745    2.2236 O   0  0  0  0  0  0  0  0  0  0  0  0
   -1.0024    0.6217    2.6735 N   0  0  0  0  0  0  0  0  0  0  0  0
   -1.9213    0.7848    2.2938 H   0  0  0  0  0  0  0  0  0  0  0  0
   -0.7639    0.9676    4.0741 C   0  0  0  0  0  0  0  0  0  0  0  0
    0.0520    1.6916    4.1400 H   0  0  0  0  0  0  0  0  0  0  0  0
   -1.6626    1.3984    4.5182 H   0  0  0  0  0  0  0  0  0  0  0  0
   -0.4775    0.0737    4.6309 H   0  0  0  0  0  0  0  0  0  0  0  0
  5  6  2  0  0  0  0
  5  7  1  0  0  0  0
  2  3  1  0  0  0  0
  2  4  1  0  0  0  0
  2  5  1  0  0  0  0
  1  2  1  0  0  0  0
 22 23  2  0  0  0  0
 22 24  1  0  0  0  0
 19 20  1  0  0  0  0
 19 21  1  0  0  0  0
 17 18  2  0  0  0  0
 17 19  1  0  0  0  0
 14 15  1  0  0  0  0
 14 16  1  0  0  0  0
 14 17  1  0  0  0  0
 11 12  1  0  0  0  0
 11 13  1  0  0  0  0
 11 14  1  0  0  0  0
  9 10  1  0  0  0  0
  9 11  1  0  0  0  0
  9 22  1  0  0  0  0
  7  8  1  0  0  0  0
  7  9  1  0  0  0  0
 26 27  1  0  0  0  0
 26 28  1  0  0  0  0
 26 29  1  0  0  0  0
 24 25  1  0  0  0  0
 24 26  1  0  0  0  0
M  END
$$$$
default_name
  -OEChem-02102213163D

 29 28  0     1  0  0  0  0  0999 V2000
   -3.3998   -3.6239    1.3678 H   0  0  0  0  0  0  0  0  0  0  0  0
   -3.3608   -2.6749    0.8348 C   0  0  0  0  0  0  0  0  0  0  0  0
   -4.0988   -1.9909    1.2498 H   0  0  0  0  0  0  0  0  0  0  0  0
   -3.5618   -2.8419   -0.2222 H   0  0  0  0  0  0  0  0  0  0  0  0
   -1.9818   -2.0809    0.9918 C   0  0  0  0  0  0  0  0  0  0  0  0
   -1.1288   -2.6669    1.6468 O   0  0  0  0  0  0  0  0  0  0  0  0
   -1.7648   -0.9089    0.3998 N   0  0  0  0  0  0  0  0  0  0  0  0
   -2.5238   -0.4719   -0.1032 H   0  0  0  0  0  0  0  0  0  0  0  0
   -0.4848   -0.1959    0.4138 C   0  0  1  0  0  0  0  0  0  0  0  0
    0.2783   -0.8411   -0.0248 H   0  0  0  0  0  0  0  0  0  0  0  0
   -0.6101    1.0666   -0.4611 C   0  0  0  0  0  0  0  0  0  0  0  0
   -1.3441    0.8695   -1.2452 H   0  0  0  0  0  0  0  0  0  0  0  0
   -0.9791    1.8901    0.1522 H   0  0  0  0  0  0  0  0  0  0  0  0
    0.7085    1.4952   -1.1280 C   0  0  0  0  0  0  0  0  0  0  0  0
    0.5252    1.7551   -2.1703 H   0  0  0  0  0  0  0  0  0  0  0  0
    1.0961    2.3741   -0.6129 H   0  0  0  0  0  0  0  0  0  0  0  0
    1.7810    0.4065   -1.0946 C   0  0  0  0  0  0  0  0  0  0  0  0
    1.6331   -0.6614   -0.5303 O   0  0  0  0  0  0  0  0  0  0  0  0
    2.9199    0.6305   -1.7134 N   0  0  0  0  0  0  0  0  0  0  0  0
    3.5880   -0.1187   -1.6600 H   0  0  0  0  0  0  0  0  0  0  0  0
    3.0926    1.4897   -2.1947 H   0  0  0  0  0  0  0  0  0  0  0  0
   -0.0637    0.1284    1.8555 C   0  0  0  0  0  0  0  0  0  0  0  0
    1.0918   -0.0745    2.2236 O   0  0  0  0  0  0  0  0  0  0  0  0
   -1.0024    0.6217    2.6735 N   0  0  0  0  0  0  0  0  0  0  0  0
   -1.9213    0.7848    2.2938 H   0  0  0  0  0  0  0  0  0  0  0  0
   -0.7639    0.9676    4.0741 C   0  0  0  0  0  0  0  0  0  0  0  0
    0.0520    1.6916    4.1400 H   0  0  0  0  0  0  0  0  0  0  0  0
   -1.6626    1.3984    4.5182 H   0  0  0  0  0  0  0  0  0  0  0  0
   -0.4775    0.0737    4.6309 H   0  0  0  0  0  0  0  0  0  0  0  0
  5  6  2  0  0  0  0
  5  7  1  0  0  0  0
  2  3  1  0  0  0  0
  2  4  1  0  0  0  0
  2  5  1  0  0  0  0
  1  2  1  0  0  0  0
 22 23  2  0  0  0  0
 22 24  1  0  0  0  0
 19 20  1  0  0  0  0
 19 21  1  0  0  0  0
 17 18  2  0  0  0  0
 17 19  1  0  0  0  0
 14 15  1  0  0  0  0
 14 16  1  0  0  0  0
 14 17  1  0  0  0  0
 11 12  1  0  0  0  0
 11 13  1  0  0  0  0
 11 14  1  0  0  0  0
  9 10  1  0  0  0  0
  9 11  1  0  0  0  0
  9 22  1  0  0  0  0
  7  8  1  0  0  0  0
  7  9  1  0  0  0  0
 26 27  1  0  0  0  0
 26 28  1  0  0  0  0
 26 29  1  0  0  0  0
 24 25  1  0  0  0  0
 24 26  1  0  0  0  0
M  END
$$$$
default_name
  -OEChem-02102213163D

 29 28  0     1  0  0  0  0  0999 V2000
   -3.3998   -3.6239    1.3678 H   0  0  0  0  0  0  0  0  0  0  0  0
   -3.3608   -2.6749    0.8348 C   0  0  0  0  0  0  0  0  0  0  0  0
   -4.0988   -1.9909    1.2498 H   0  0  0  0  0  0  0  0  0  0  0  0
   -3.5618   -2.8419   -0.2222 H   0  0  0  0  0  0  0  0  0  0  0  0
   -1.9818   -2.0809    0.9918 C   0  0  0  0  0  0  0  0  0  0  0  0
   -1.1288   -2.6669    1.6468 O   0  0  0  0  0  0  0  0  0  0  0  0
   -1.7648   -0.9089    0.3998 N   0  0  0  0  0  0  0  0  0  0  0  0
   -2.5238   -0.4719   -0.1032 H   0  0  0  0  0  0  0  0  0  0  0  0
   -0.4848   -0.1959    0.4138 C   0  0  1  0  0  0  0  0  0  0  0  0
    0.2783   -0.8411   -0.0248 H   0  0  0  0  0  0  0  0  0  0  0  0
   -0.6101    1.0666   -0.4611 C   0  0  0  0  0  0  0  0  0  0  0  0
   -1.3441    0.8695   -1.2452 H   0  0  0  0  0  0  0  0  0  0  0  0
   -0.9791    1.8901    0.1522 H   0  0  0  0  0  0  0  0  0  0  0  0
    0.7085    1.4952   -1.1280 C   0  0  0  0  0  0  0  0  0  0  0  0
    0.4962    2.0016   -2.0694 H   0  0  0  0  0  0  0  0  0  0  0  0
    1.2290    2.1898   -0.4687 H   0  0  0  0  0  0  0  0  0  0  0  0
    1.6423    0.3215   -1.4234 C   0  0  0  0  0  0  0  0  0  0  0  0
    1.4008   -0.8249   -1.0947 O   0  0  0  0  0  0  0  0  0  0  0  0
    2.7611    0.5598   -2.0729 N   0  0  0  0  0  0  0  0  0  0  0  0
    3.3361   -0.2474   -2.2407 H   0  0  0  0  0  0  0  0  0  0  0  0
    3.0070    1.4828   -2.3684 H   0  0  0  0  0  0  0  0  0  0  0  0
   -0.0637    0.1284    1.8555 C   0  0  0  0  0  0  0  0  0  0  0  0
    1.0918   -0.0745    2.2236 O   0  0  0  0  0  0  0  0  0  0  0  0
   -1.0024    0.6217    2.6735 N   0  0  0  0  0  0  0  0  0  0  0  0
   -1.9213    0.7848    2.2938 H   0  0  0  0  0  0  0  0  0  0  0  0
   -0.7639    0.9676    4.0741 C   0  0  0  0  0  0  0  0  0  0  0  0
    0.0520    1.6916    4.1400 H   0  0  0  0  0  0  0  0  0  0  0  0
   -1.6626    1.3984    4.5182 H   0  0  0  0  0  0  0  0  0  0  0  0
   -0.4775    0.0737    4.6309 H   0  0  0  0  0  0  0  0  0  0  0  0
  5  6  2  0  0  0  0
  5  7  1  0  0  0  0
  2  3  1  0  0  0  0
  2  4  1  0  0  0  0
  2  5  1  0  0  0  0
  1  2  1  0  0  0  0
 22 23  2  0  0  0  0
 22 24  1  0  0  0  0
 19 20  1  0  0  0  0
 19 21  1  0  0  0  0
 17 18  2  0  0  0  0
 17 19  1  0  0  0  0
 14 15  1  0  0  0  0
 14 16  1  0  0  0  0
 14 17  1  0  0  0  0
 11 12  1  0  0  0  0
 11 13  1  0  0  0  0
 11 14  1  0  0  0  0
  9 10  1  0  0  0  0
  9 11  1  0  0  0  0
  9 22  1  0  0  0  0
  7  8  1  0  0  0  0
  7  9  1  0  0  0  0
 26 27  1  0  0  0  0
 26 28  1  0  0  0  0
 26 29  1  0  0  0  0
 24 25  1  0  0  0  0
 24 26  1  0  0  0  0
M  END
$$$$
default_name
  -OEChem-02102213163D

 29 28  0     1  0  0  0  0  0999 V2000
   -3.3998   -3.6239    1.3678 H   0  0  0  0  0  0  0  0  0  0  0  0
   -3.3608   -2.6749    0.8348 C   0  0  0  0  0  0  0  0  0  0  0  0
   -4.0988   -1.9909    1.2498 H   0  0  0  0  0  0  0  0  0  0  0  0
   -3.5618   -2.8419   -0.2222 H   0  0  0  0  0  0  0  0  0  0  0  0
   -1.9818   -2.0809    0.9918 C   0  0  0  0  0  0  0  0  0  0  0  0
   -1.1288   -2.6669    1.6468 O   0  0  0  0  0  0  0  0  0  0  0  0
   -1.7648   -0.9089    0.3998 N   0  0  0  0  0  0  0  0  0  0  0  0
   -2.5238   -0.4719   -0.1032 H   0  0  0  0  0  0  0  0  0  0  0  0
   -0.4848   -0.1959    0.4138 C   0  0  1  0  0  0  0  0  0  0  0  0
    0.2783   -0.8411   -0.0248 H   0  0  0  0  0  0  0  0  0  0  0  0
   -0.6101    1.0666   -0.4611 C   0  0  0  0  0  0  0  0  0  0  0  0
   -1.3441    0.8695   -1.2452 H   0  0  0  0  0  0  0  0  0  0  0  0
   -0.9791    1.8901    0.1522 H   0  0  0  0  0  0  0  0  0  0  0  0
    0.7085    1.4952   -1.1280 C   0  0  0  0  0  0  0  0  0  0  0  0
    0.5031    2.2204   -1.9151 H   0  0  0  0  0  0  0  0  0  0  0  0
    1.3470    1.9648   -0.3798 H   0  0  0  0  0  0  0  0  0  0  0  0
    1.4751    0.3280   -1.7499 C   0  0  0  0  0  0  0  0  0  0  0  0
    1.1174   -0.8315   -1.6594 O   0  0  0  0  0  0  0  0  0  0  0  0
    2.5738    0.5892   -2.4243 N   0  0  0  0  0  0  0  0  0  0  0  0
    3.0366   -0.2146   -2.8120 H   0  0  0  0  0  0  0  0  0  0  0  0
    2.9110    1.5243   -2.5316 H   0  0  0  0  0  0  0  0  0  0  0  0
   -0.0637    0.1284    1.8555 C   0  0  0  0  0  0  0  0  0  0  0  0
    1.0918   -0.0745    2.2236 O   0  0  0  0  0  0  0  0  0  0  0  0
   -1.0024    0.6217    2.6735 N   0  0  0  0  0  0  0  0  0  0  0  0
   -1.9213    0.7848    2.2938 H   0  0  0  0  0  0  0  0  0  0  0  0
   -0.7639    0.9676    4.0741 C   0  0  0  0  0  0  0  0  0  0  0  0
    0.0520    1.6916    4.1400 H   0  0  0  0  0  0  0  0  0  0  0  0
   -1.6626    1.3984    4.5182 H   0  0  0  0  0  0  0  0  0  0  0  0
   -0.4775    0.0737    4.6309 H   0  0  0  0  0  0  0  0  0  0  0  0
  5  6  2  0  0  0  0
  5  7  1  0  0  0  0
  2  3  1  0  0  0  0
  2  4  1  0  0  0  0
  2  5  1  0  0  0  0
  1  2  1  0  0  0  0
 22 23  2  0  0  0  0
 22 24  1  0  0  0  0
 19 20  1  0  0  0  0
 19 21  1  0  0  0  0
 17 18  2  0  0  0  0
 17 19  1  0  0  0  0
 14 15  1  0  0  0  0
 14 16  1  0  0  0  0
 14 17  1  0  0  0  0
 11 12  1  0  0  0  0
 11 13  1  0  0  0  0
 11 14  1  0  0  0  0
  9 10  1  0  0  0  0
  9 11  1  0  0  0  0
  9 22  1  0  0  0  0
  7  8  1  0  0  0  0
  7  9  1  0  0  0  0
 26 27  1  0  0  0  0
 26 28  1  0  0  0  0
 26 29  1  0  0  0  0
 24 25  1  0  0  0  0
 24 26  1  0  0  0  0
M  END
$$$$
default_name
  -OEChem-02102213163D

 29 28  0     1  0  0  0  0  0999 V2000
   -3.3998   -3.6239    1.3678 H   0  0  0  0  0  0  0  0  0  0  0  0
   -3.3608   -2.6749    0.8348 C   0  0  0  0  0  0  0  0  0  0  0  0
   -4.0988   -1.9909    1.2498 H   0  0  0  0  0  0  0  0  0  0  0  0
   -3.5618   -2.8419   -0.2222 H   0  0  0  0  0  0  0  0  0  0  0  0
   -1.9818   -2.0809    0.9918 C   0  0  0  0  0  0  0  0  0  0  0  0
   -1.1288   -2.6669    1.6468 O   0  0  0  0  0  0  0  0  0  0  0  0
   -1.7648   -0.9089    0.3998 N   0  0  0  0  0  0  0  0  0  0  0  0
   -2.5238   -0.4719   -0.1032 H   0  0  0  0  0  0  0  0  0  0  0  0
   -0.4848   -0.1959    0.4138 C   0  0  1  0  0  0  0  0  0  0  0  0
    0.2783   -0.8411   -0.0248 H   0  0  0  0  0  0  0  0  0  0  0  0
   -0.6101    1.0666   -0.4611 C   0  0  0  0  0  0  0  0  0  0  0  0
   -1.3441    0.8695   -1.2452 H   0  0  0  0  0  0  0  0  0  0  0  0
   -0.9791    1.8901    0.1522 H   0  0  0  0  0  0  0  0  0  0  0  0
    0.7085    1.4952   -1.1280 C   0  0  0  0  0  0  0  0  0  0  0  0
    0.5454    2.3968   -1.7180 H   0  0  0  0  0  0  0  0  0  0  0  0
    1.4422    1.7146   -0.3524 H   0  0  0  0  0  0  0  0  0  0  0  0
    1.2908    0.4255   -2.0517 C   0  0  0  0  0  0  0  0  0  0  0  0
    0.8021   -0.6808   -2.1859 O   0  0  0  0  0  0  0  0  0  0  0  0
    2.3709    0.7164   -2.7438 N   0  0  0  0  0  0  0  0  0  0  0  0
    2.7097   -0.0226   -3.3349 H   0  0  0  0  0  0  0  0  0  0  0  0
    2.8111    1.6114   -2.6731 H   0  0  0  0  0  0  0  0  0  0  0  0
   -0.0637    0.1284    1.8555 C   0  0  0  0  0  0  0  0  0  0  0  0
    1.0918   -0.0745    2.2236 O   0  0  0  0  0  0  0  0  0  0  0  0
   -1.0024    0.6217    2.6735 N   0  0  0  0  0  0  0  0  0  0  0  0
   -1.9213    0.7848    2.2938 H   0  0  0  0  0  0  0  0  0  0  0  0
   -0.7639    0.9676    4.0741 C   0  0  0  0  0  0  0  0  0  0  0  0
    0.0520    1.6916    4.1400 H   0  0  0  0  0  0  0  0  0  0  0  0
   -1.6626    1.3984    4.5182 H   0  0  0  0  0  0  0  0  0  0  0  0
   -0.4775    0.0737    4.6309 H   0  0  0  0  0  0  0  0  0  0  0  0
  5  6  2  0  0  0  0
  5  7  1  0  0  0  0
  2  3  1  0  0  0  0
  2  4  1  0  0  0  0
  2  5  1  0  0  0  0
  1  2  1  0  0  0  0
 22 23  2  0  0  0  0
 22 24  1  0  0  0  0
 19 20  1  0  0  0  0
 19 21  1  0  0  0  0
 17 18  2  0  0  0  0
 17 19  1  0  0  0  0
 14 15  1  0  0  0  0
 14 16  1  0  0  0  0
 14 17  1  0  0  0  0
 11 12  1  0  0  0  0
 11 13  1  0  0  0  0
 11 14  1  0  0  0  0
  9 10  1  0  0  0  0
  9 11  1  0  0  0  0
  9 22  1  0  0  0  0
  7  8  1  0  0  0  0
  7  9  1  0  0  0  0
 26 27  1  0  0  0  0
 26 28  1  0  0  0  0
 26 29  1  0  0  0  0
 24 25  1  0  0  0  0
 24 26  1  0  0  0  0
M  END
$$$$
default_name
  -OEChem-02102213163D

 29 28  0     1  0  0  0  0  0999 V2000
   -3.3998   -3.6239    1.3678 H   0  0  0  0  0  0  0  0  0  0  0  0
   -3.3608   -2.6749    0.8348 C   0  0  0  0  0  0  0  0  0  0  0  0
   -4.0988   -1.9909    1.2498 H   0  0  0  0  0  0  0  0  0  0  0  0
   -3.5618   -2.8419   -0.2222 H   0  0  0  0  0  0  0  0  0  0  0  0
   -1.9818   -2.0809    0.9918 C   0  0  0  0  0  0  0  0  0  0  0  0
   -1.1288   -2.6669    1.6468 O   0  0  0  0  0  0  0  0  0  0  0  0
   -1.7648   -0.9089    0.3998 N   0  0  0  0  0  0  0  0  0  0  0  0
   -2.5238   -0.4719   -0.1032 H   0  0  0  0  0  0  0  0  0  0  0  0
   -0.4848   -0.1959    0.4138 C   0  0  1  0  0  0  0  0  0  0  0  0
    0.2783   -0.8411   -0.0248 H   0  0  0  0  0  0  0  0  0  0  0  0
   -0.6101    1.0666   -0.4611 C   0  0  0  0  0  0  0  0  0  0  0  0
   -1.3441    0.8695   -1.2452 H   0  0  0  0  0  0  0  0  0  0  0  0
   -0.9791    1.8901    0.1522 H   0  0  0  0  0  0  0  0  0  0  0  0
    0.7085    1.4952   -1.1280 C   0  0  0  0  0  0  0  0  0  0  0  0
    0.6203    2.5188   -1.4916 H   0  0  0  0  0  0  0  0  0  0  0  0
    1.5081    1.4561   -0.3883 H   0  0  0  0  0  0  0  0  0  0  0  0
    1.1019    0.6072   -2.3084 C   0  0  0  0  0  0  0  0  0  0  0  0
    0.4766   -0.3831   -2.6383 O   0  0  0  0  0  0  0  0  0  0  0  0
    2.1661    0.9330   -3.0095 N   0  0  0  0  0  0  0  0  0  0  0  0
    2.3778    0.3155   -3.7739 H   0  0  0  0  0  0  0  0  0  0  0  0
    2.7143    1.7380   -2.7832 H   0  0  0  0  0  0  0  0  0  0  0  0
   -0.0637    0.1284    1.8555 C   0  0  0  0  0  0  0  0  0  0  0  0
    1.0918   -0.0745    2.2236 O   0  0  0  0  0  0  0  0  0  0  0  0
   -1.0024    0.6217    2.6735 N   0  0  0  0  0  0  0  0  0  0  0  0
   -1.9213    0.7848    2.2938 H   0  0  0  0  0  0  0  0  0  0  0  0
   -0.7639    0.9676    4.0741 C   0  0  0  0  0  0  0  0  0  0  0  0
    0.0520    1.6916    4.1400 H   0  0  0  0  0  0  0  0  0  0  0  0
   -1.6626    1.3984    4.5182 H   0  0  0  0  0  0  0  0  0  0  0  0
   -0.4775    0.0737    4.6309 H   0  0  0  0  0  0  0  0  0  0  0  0
  5  6  2  0  0  0  0
  5  7  1  0  0  0  0
  2  3  1  0  0  0  0
  2  4  1  0  0  0  0
  2  5  1  0  0  0  0
  1  2  1  0  0  0  0
 22 23  2  0  0  0  0
 22 24  1  0  0  0  0
 19 20  1  0  0  0  0
 19 21  1  0  0  0  0
 17 18  2  0  0  0  0
 17 19  1  0  0  0  0
 14 15  1  0  0  0  0
 14 16  1  0  0  0  0
 14 17  1  0  0  0  0
 11 12  1  0  0  0  0
 11 13  1  0  0  0  0
 11 14  1  0  0  0  0
  9 10  1  0  0  0  0
  9 11  1  0  0  0  0
  9 22  1  0  0  0  0
  7  8  1  0  0  0  0
  7  9  1  0  0  0  0
 26 27  1  0  0  0  0
 26 28  1  0  0  0  0
 26 29  1  0  0  0  0
 24 25  1  0  0  0  0
 24 26  1  0  0  0  0
M  END
$$$$
default_name
  -OEChem-02102213163D

 29 28  0     1  0  0  0  0  0999 V2000
   -3.3998   -3.6239    1.3678 H   0  0  0  0  0  0  0  0  0  0  0  0
   -3.3608   -2.6749    0.8348 C   0  0  0  0  0  0  0  0  0  0  0  0
   -4.0988   -1.9909    1.2498 H   0  0  0  0  0  0  0  0  0  0  0  0
   -3.5618   -2.8419   -0.2222 H   0  0  0  0  0  0  0  0  0  0  0  0
   -1.9818   -2.0809    0.9918 C   0  0  0  0  0  0  0  0  0  0  0  0
   -1.1288   -2.6669    1.6468 O   0  0  0  0  0  0  0  0  0  0  0  0
   -1.7648   -0.9089    0.3998 N   0  0  0  0  0  0  0  0  0  0  0  0
   -2.5238   -0.4719   -0.1032 H   0  0  0  0  0  0  0  0  0  0  0  0
   -0.4848   -0.1959    0.4138 C   0  0  1  0  0  0  0  0  0  0  0  0
    0.2783   -0.8411   -0.0248 H   0  0  0  0  0  0  0  0  0  0  0  0
   -0.6101    1.0666   -0.4611 C   0  0  0  0  0  0  0  0  0  0  0  0
   -1.3441    0.8695   -1.2452 H   0  0  0  0  0  0  0  0  0  0  0  0
   -0.9791    1.8901    0.1522 H   0  0  0  0  0  0  0  0  0  0  0  0
    0.7085    1.4952   -1.1280 C   0  0  0  0  0  0  0  0  0  0  0  0
    0.7227    2.5779   -1.2512 H   0  0  0  0  0  0  0  0  0  0  0  0
    1.5401    1.2070   -0.4850 H   0  0  0  0  0  0  0  0  0  0  0  0
    0.9213    0.8609   -2.5024 C   0  0  0  0  0  0  0  0  0  0  0  0
    0.1629    0.0413   -2.9858 O   0  0  0  0  0  0  0  0  0  0  0  0
    1.9735    1.2241   -3.2033 N   0  0  0  0  0  0  0  0  0  0  0  0
    2.0636    0.7767   -4.0990 H   0  0  0  0  0  0  0  0  0  0  0  0
    2.6270    1.8957   -2.8545 H   0  0  0  0  0  0  0  0  0  0  0  0
   -0.0637    0.1284    1.8555 C   0  0  0  0  0  0  0  0  0  0  0  0
    1.0918   -0.0745    2.2236 O   0  0  0  0  0  0  0  0  0  0  0  0
   -1.0024    0.6217    2.6735 N   0  0  0  0  0  0  0  0  0  0  0  0
   -1.9213    0.7848    2.2938 H   0  0  0  0  0  0  0  0  0  0  0  0
   -0.7639    0.9676    4.0741 C   0  0  0  0  0  0  0  0  0  0  0  0
    0.0520    1.6916    4.1400 H   0  0  0  0  0  0  0  0  0  0  0  0
   -1.6626    1.3984    4.5182 H   0  0  0  0  0  0  0  0  0  0  0  0
   -0.4775    0.0737    4.6309 H   0  0  0  0  0  0  0  0  0  0  0  0
  5  6  2  0  0  0  0
  5  7  1  0  0  0  0
  2  3  1  0  0  0  0
  2  4  1  0  0  0  0
  2  5  1  0  0  0  0
  1  2  1  0  0  0  0
 22 23  2  0  0  0  0
 22 24  1  0  0  0  0
 19 20  1  0  0  0  0
 19 21  1  0  0  0  0
 17 18  2  0  0  0  0
 17 19  1  0  0  0  0
 14 15  1  0  0  0  0
 14 16  1  0  0  0  0
 14 17  1  0  0  0  0
 11 12  1  0  0  0  0
 11 13  1  0  0  0  0
 11 14  1  0  0  0  0
  9 10  1  0  0  0  0
  9 11  1  0  0  0  0
  9 22  1  0  0  0  0
  7  8  1  0  0  0  0
  7  9  1  0  0  0  0
 26 27  1  0  0  0  0
 26 28  1  0  0  0  0
 26 29  1  0  0  0  0
 24 25  1  0  0  0  0
 24 26  1  0  0  0  0
M  END
$$$$
default_name
  -OEChem-02102213163D

 29 28  0     1  0  0  0  0  0999 V2000
   -3.3998   -3.6239    1.3678 H   0  0  0  0  0  0  0  0  0  0  0  0
   -3.3608   -2.6749    0.8348 C   0  0  0  0  0  0  0  0  0  0  0  0
   -4.0988   -1.9909    1.2498 H   0  0  0  0  0  0  0  0  0  0  0  0
   -3.5618   -2.8419   -0.2222 H   0  0  0  0  0  0  0  0  0  0  0  0
   -1.9818   -2.0809    0.9918 C   0  0  0  0  0  0  0  0  0  0  0  0
   -1.1288   -2.6669    1.6468 O   0  0  0  0  0  0  0  0  0  0  0  0
   -1.7648   -0.9089    0.3998 N   0  0  0  0  0  0  0  0  0  0  0  0
   -2.5238   -0.4719   -0.1032 H   0  0  0  0  0  0  0  0  0  0  0  0
   -0.4848   -0.1959    0.4138 C   0  0  1  0  0  0  0  0  0  0  0  0
    0.2783   -0.8411   -0.0248 H   0  0  0  0  0  0  0  0  0  0  0  0
   -0.6101    1.0666   -0.4611 C   0  0  0  0  0  0  0  0  0  0  0  0
   -1.3441    0.8695   -1.2452 H   0  0  0  0  0  0  0  0  0  0  0  0
   -0.9791    1.8901    0.1522 H   0  0  0  0  0  0  0  0  0  0  0  0
    0.7085    1.4952   -1.1280 C   0  0  0  0  0  0  0  0  0  0  0  0
    0.8455    2.5702   -1.0133 H   0  0  0  0  0  0  0  0  0  0  0  0
    1.5362    0.9843   -0.6360 H   0  0  0  0  0  0  0  0  0  0  0  0
    0.7614    1.1692   -2.6205 C   0  0  0  0  0  0  0  0  0  0  0  0
   -0.1175    0.5635   -3.2047 O   0  0  0  0  0  0  0  0  0  0  0  0
    1.8061    1.5699   -3.3121 N   0  0  0  0  0  0  0  0  0  0  0  0
    1.7883    1.3296   -4.2880 H   0  0  0  0  0  0  0  0  0  0  0  0
    2.5552    2.0736   -2.8821 H   0  0  0  0  0  0  0  0  0  0  0  0
   -0.0637    0.1284    1.8555 C   0  0  0  0  0  0  0  0  0  0  0  0
    1.0918   -0.0745    2.2236 O   0  0  0  0  0  0  0  0  0  0  0  0
   -1.0024    0.6217    2.6735 N   0  0  0  0  0  0  0  0  0  0  0  0
   -1.9213    0.7848    2.2938 H   0  0  0  0  0  0  0  0  0  0  0  0
   -0.7639    0.9676    4.0741 C   0  0  0  0  0  0  0  0  0  0  0  0
    0.0520    1.6916    4.1400 H   0  0  0  0  0  0  0  0  0  0  0  0
   -1.6626    1.3984    4.5182 H   0  0  0  0  0  0  0  0  0  0  0  0
   -0.4775    0.0737    4.6309 H   0  0  0  0  0  0  0  0  0  0  0  0
  5  6  2  0  0  0  0
  5  7  1  0  0  0  0
  2  3  1  0  0  0  0
  2  4  1  0  0  0  0
  2  5  1  0  0  0  0
  1  2  1  0  0  0  0
 22 23  2  0  0  0  0
 22 24  1  0  0  0  0
 19 20  1  0  0  0  0
 19 21  1  0  0  0  0
 17 18  2  0  0  0  0
 17 19  1  0  0  0  0
 14 15  1  0  0  0  0
 14 16  1  0  0  0  0
 14 17  1  0  0  0  0
 11 12  1  0  0  0  0
 11 13  1  0  0  0  0
 11 14  1  0  0  0  0
  9 10  1  0  0  0  0
  9 11  1  0  0  0  0
  9 22  1  0  0  0  0
  7  8  1  0  0  0  0
  7  9  1  0  0  0  0
 26 27  1  0  0  0  0
 26 28  1  0  0  0  0
 26 29  1  0  0  0  0
 24 25  1  0  0  0  0
 24 26  1  0  0  0  0
M  END
$$$$
default_name
  -OEChem-02102213163D

 29 28  0     1  0  0  0  0  0999 V2000
   -3.3998   -3.6239    1.3678 H   0  0  0  0  0  0  0  0  0  0  0  0
   -3.3608   -2.6749    0.8348 C   0  0  0  0  0  0  0  0  0  0  0  0
   -4.0988   -1.9909    1.2498 H   0  0  0  0  0  0  0  0  0  0  0  0
   -3.5618   -2.8419   -0.2222 H   0  0  0  0  0  0  0  0  0  0  0  0
   -1.9818   -2.0809    0.9918 C   0  0  0  0  0  0  0  0  0  0  0  0
   -1.1288   -2.6669    1.6468 O   0  0  0  0  0  0  0  0  0  0  0  0
   -1.7648   -0.9089    0.3998 N   0  0  0  0  0  0  0  0  0  0  0  0
   -2.5238   -0.4719   -0.1032 H   0  0  0  0  0  0  0  0  0  0  0  0
   -0.4848   -0.1959    0.4138 C   0  0  1  0  0  0  0  0  0  0  0  0
    0.2783   -0.8411   -0.0248 H   0  0  0  0  0  0  0  0  0  0  0  0
   -0.6101    1.0666   -0.4611 C   0  0  0  0  0  0  0  0  0  0  0  0
   -1.3441    0.8695   -1.2452 H   0  0  0  0  0  0  0  0  0  0  0  0
   -0.9791    1.8901    0.1522 H   0  0  0  0  0  0  0  0  0  0  0  0
    0.7085    1.4952   -1.1280 C   0  0  0  0  0  0  0  0  0  0  0  0
    0.9804    2.4963   -0.7940 H   0  0  0  0  0  0  0  0  0  0  0  0
    1.4964    0.8031   -0.8310 H   0  0  0  0  0  0  0  0  0  0  0  0
    0.6330    1.5112   -2.6547 C   0  0  0  0  0  0  0  0  0  0  0  0
   -0.3455    1.1479   -3.2800 O   0  0  0  0  0  0  0  0  0  0  0  0
    1.6753    1.9468   -3.3284 N   0  0  0  0  0  0  0  0  0  0  0  0
    1.5708    1.9364   -4.3281 H   0  0  0  0  0  0  0  0  0  0  0  0
    2.5038    2.2596   -2.8642 H   0  0  0  0  0  0  0  0  0  0  0  0
   -0.0637    0.1284    1.8555 C   0  0  0  0  0  0  0  0  0  0  0  0
    1.0918   -0.0745    2.2236 O   0  0  0  0  0  0  0  0  0  0  0  0
   -1.0024    0.6217    2.6735 N   0  0  0  0  0  0  0  0  0  0  0  0
   -1.9213    0.7848    2.2938 H   0  0  0  0  0  0  0  0  0  0  0  0
   -0.7639    0.9676    4.0741 C   0  0  0  0  0  0  0  0  0  0  0  0
    0.0520    1.6916    4.1400 H   0  0  0  0  0  0  0  0  0  0  0  0
   -1.6626    1.3984    4.5182 H   0  0  0  0  0  0  0  0  0  0  0  0
   -0.4775    0.0737    4.6309 H   0  0  0  0  0  0  0  0  0  0  0  0
  5  6  2  0  0  0  0
  5  7  1  0  0  0  0
  2  3  1  0  0  0  0
  2  4  1  0  0  0  0
  2  5  1  0  0  0  0
  1  2  1  0  0  0  0
 22 23  2  0  0  0  0
 22 24  1  0  0  0  0
 19 20  1  0  0  0  0
 19 21  1  0  0  0  0
 17 18  2  0  0  0  0
 17 19  1  0  0  0  0
 14 15  1  0  0  0  0
 14 16  1  0  0  0  0
 14 17  1  0  0  0  0
 11 12  1  0  0  0  0
 11 13  1  0  0  0  0
 11 14  1  0  0  0  0
  9 10  1  0  0  0  0
  9 11  1  0  0  0  0
  9 22  1  0  0  0  0
  7  8  1  0  0  0  0
  7  9  1  0  0  0  0
 26 27  1  0  0  0  0
 26 28  1  0  0  0  0
 26 29  1  0  0  0  0
 24 25  1  0  0  0  0
 24 26  1  0  0  0  0
M  END
$$$$
default_name
  -OEChem-02102213163D

 29 28  0     1  0  0  0  0  0999 V2000
   -3.3998   -3.6239    1.3678 H   0  0  0  0  0  0  0  0  0  0  0  0
   -3.3608   -2.6749    0.8348 C   0  0  0  0  0  0  0  0  0  0  0  0
   -4.0988   -1.9909    1.2498 H   0  0  0  0  0  0  0  0  0  0  0  0
   -3.5618   -2.8419   -0.2222 H   0  0  0  0  0  0  0  0  0  0  0  0
   -1.9818   -2.0809    0.9918 C   0  0  0  0  0  0  0  0  0  0  0  0
   -1.1288   -2.6669    1.6468 O   0  0  0  0  0  0  0  0  0  0  0  0
   -1.7648   -0.9089    0.3998 N   0  0  0  0  0  0  0  0  0  0  0  0
   -2.5238   -0.4719   -0.1032 H   0  0  0  0  0  0  0  0  0  0  0  0
   -0.4848   -0.1959    0.4138 C   0  0  1  0  0  0  0  0  0  0  0  0
    0.2783   -0.8411   -0.0248 H   0  0  0  0  0  0  0  0  0  0  0  0
   -0.6101    1.0666   -0.4611 C   0  0  0  0  0  0  0  0  0  0  0  0
   -1.3441    0.8695   -1.2452 H   0  0  0  0  0  0  0  0  0  0  0  0
   -0.9791    1.8901    0.1522 H   0  0  0  0  0  0  0  0  0  0  0  0
    0.7085    1.4952   -1.1280 C   0  0  0  0  0  0  0  0  0  0  0  0
    1.1183    2.3611   -0.6083 H   0  0  0  0  0  0  0  0  0  0  0  0
    1.4237    0.6757   -1.0567 H   0  0  0  0  0  0  0  0  0  0  0  0
    0.5449    1.8635   -2.6025 C   0  0  0  0  0  0  0  0  0  0  0  0
   -0.5057    1.7547   -3.2068 O   0  0  0  0  0  0  0  0  0  0  0  0
    1.5902    2.3292   -3.2511 N   0  0  0  0  0  0  0  0  0  0  0  0
    1.4259    2.5558   -4.2166 H   0  0  0  0  0  0  0  0  0  0  0  0
    2.4764    2.4410   -2.8019 H   0  0  0  0  0  0  0  0  0  0  0  0
   -0.0637    0.1284    1.8555 C   0  0  0  0  0  0  0  0  0  0  0  0
    1.0918   -0.0745    2.2236 O   0  0  0  0  0  0  0  0  0  0  0  0
   -1.0024    0.6217    2.6735 N   0  0  0  0  0  0  0  0  0  0  0  0
   -1.9213    0.7848    2.2938 H   0  0  0  0  0  0  0  0  0  0  0  0
   -0.7639    0.9676    4.0741 C   0  0  0  0  0  0  0  0  0  0  0  0
    0.0520    1.6916    4.1400 H   0  0  0  0  0  0  0  0  0  0  0  0
   -1.6626    1.3984    4.5182 H   0  0  0  0  0  0  0  0  0  0  0  0
   -0.4775    0.0737    4.6309 H   0  0  0  0  0  0  0  0  0  0  0  0
  5  6  2  0  0  0  0
  5  7  1  0  0  0  0
  2  3  1  0  0  0  0
  2  4  1  0  0  0  0
  2  5  1  0  0  0  0
  1  2  1  0  0  0  0
 22 23  2  0  0  0  0
 22 24  1  0  0  0  0
 19 20  1  0  0  0  0
 19 21  1  0  0  0  0
 17 18  2  0  0  0  0
 17 19  1  0  0  0  0
 14 15  1  0  0  0  0
 14 16  1  0  0  0  0
 14 17  1  0  0  0  0
 11 12  1  0  0  0  0
 11 13  1  0  0  0  0
 11 14  1  0  0  0  0
  9 10  1  0  0  0  0
  9 11  1  0  0  0  0
  9 22  1  0  0  0  0
  7  8  1  0  0  0  0
  7  9  1  0  0  0  0
 26 27  1  0  0  0  0
 26 28  1  0  0  0  0
 26 29  1  0  0  0  0
 24 25  1  0  0  0  0
 24 26  1  0  0  0  0
M  END
$$$$
default_name
  -OEChem-02102213163D

 29 28  0     1  0  0  0  0  0999 V2000
   -3.3998   -3.6239    1.3678 H   0  0  0  0  0  0  0  0  0  0  0  0
   -3.3608   -2.6749    0.8348 C   0  0  0  0  0  0  0  0  0  0  0  0
   -4.0988   -1.9909    1.2498 H   0  0  0  0  0  0  0  0  0  0  0  0
   -3.5618   -2.8419   -0.2222 H   0  0  0  0  0  0  0  0  0  0  0  0
   -1.9818   -2.0809    0.9918 C   0  0  0  0  0  0  0  0  0  0  0  0
   -1.1288   -2.6669    1.6468 O   0  0  0  0  0  0  0  0  0  0  0  0
   -1.7648   -0.9089    0.3998 N   0  0  0  0  0  0  0  0  0  0  0  0
   -2.5238   -0.4719   -0.1032 H   0  0  0  0  0  0  0  0  0  0  0  0
   -0.4848   -0.1959    0.4138 C   0  0  1  0  0  0  0  0  0  0  0  0
    0.2783   -0.8411   -0.0248 H   0  0  0  0  0  0  0  0  0  0  0  0
   -0.6101    1.0666   -0.4611 C   0  0  0  0  0  0  0  0  0  0  0  0
   -1.3441    0.8695   -1.2452 H   0  0  0  0  0  0  0  0  0  0  0  0
   -0.9791    1.8901    0.1522 H   0  0  0  0  0  0  0  0  0  0  0  0
    0.7085    1.4952   -1.1280 C   0  0  0  0  0  0  0  0  0  0  0  0
    1.2496    2.1738   -0.4689 H   0  0  0  0  0  0  0  0  0  0  0  0
    1.3229    0.6110   -1.2977 H   0  0  0  0  0  0  0  0  0  0  0  0
    0.5030    2.2021   -2.4677 C   0  0  0  0  0  0  0  0  0  0  0  0
   -0.5870    2.3425   -2.9898 O   0  0  0  0  0  0  0  0  0  0  0  0
    1.5563    2.6910   -3.0855 N   0  0  0  0  0  0  0  0  0  0  0  0
    1.3634    3.1457   -3.9610 H   0  0  0  0  0  0  0  0  0  0  0  0
    2.4747    2.6056   -2.6994 H   0  0  0  0  0  0  0  0  0  0  0  0
   -0.0637    0.1284    1.8555 C   0  0  0  0  0  0  0  0  0  0  0  0
    1.0918   -0.0745    2.2236 O   0  0  0  0  0  0  0  0  0  0  0  0
   -1.0024    0.6217    2.6735 N   0  0  0  0  0  0  0  0  0  0  0  0
   -1.9213    0.7848    2.2938 H   0  0  0  0  0  0  0  0  0  0  0  0
   -0.7639    0.9676    4.0741 C   0  0  0  0  0  0  0  0  0  0  0  0
    0.0520    1.6916    4.1400 H   0  0  0  0  0  0  0  0  0  0  0  0
   -1.6626    1.3984    4.5182 H   0  0  0  0  0  0  0  0  0  0  0  0
   -0.4775    0.0737    4.6309 H   0  0  0  0  0  0  0  0  0  0  0  0
  5  6  2  0  0  0  0
  5  7  1  0  0  0  0
  2  3  1  0  0  0  0
  2  4  1  0  0  0  0
  2  5  1  0  0  0  0
  1  2  1  0  0  0  0
 22 23  2  0  0  0  0
 22 24  1  0  0  0  0
 19 20  1  0  0  0  0
 19 21  1  0  0  0  0
 17 18  2  0  0  0  0
 17 19  1  0  0  0  0
 14 15  1  0  0  0  0
 14 16  1  0  0  0  0
 14 17  1  0  0  0  0
 11 12  1  0  0  0  0
 11 13  1  0  0  0  0
 11 14  1  0  0  0  0
  9 10  1  0  0  0  0
  9 11  1  0  0  0  0
  9 22  1  0  0  0  0
  7  8  1  0  0  0  0
  7  9  1  0  0  0  0
 26 27  1  0  0  0  0
 26 28  1  0  0  0  0
 26 29  1  0  0  0  0
 24 25  1  0  0  0  0
 24 26  1  0  0  0  0
M  END
$$$$
default_name
  -OEChem-02102213163D

 29 28  0     1  0  0  0  0  0999 V2000
   -3.3998   -3.6239    1.3678 H   0  0  0  0  0  0  0  0  0  0  0  0
   -3.3608   -2.6749    0.8348 C   0  0  0  0  0  0  0  0  0  0  0  0
   -4.0988   -1.9909    1.2498 H   0  0  0  0  0  0  0  0  0  0  0  0
   -3.5618   -2.8419   -0.2222 H   0  0  0  0  0  0  0  0  0  0  0  0
   -1.9818   -2.0809    0.9918 C   0  0  0  0  0  0  0  0  0  0  0  0
   -1.1288   -2.6669    1.6468 O   0  0  0  0  0  0  0  0  0  0  0  0
   -1.7648   -0.9089    0.3998 N   0  0  0  0  0  0  0  0  0  0  0  0
   -2.5238   -0.4719   -0.1032 H   0  0  0  0  0  0  0  0  0  0  0  0
   -0.4848   -0.1959    0.4138 C   0  0  1  0  0  0  0  0  0  0  0  0
    0.2783   -0.8411   -0.0248 H   0  0  0  0  0  0  0  0  0  0  0  0
   -0.6101    1.0666   -0.4611 C   0  0  0  0  0  0  0  0  0  0  0  0
   -1.3441    0.8695   -1.2452 H   0  0  0  0  0  0  0  0  0  0  0  0
   -0.9791    1.8901    0.1522 H   0  0  0  0  0  0  0  0  0  0  0  0
    0.7085    1.4952   -1.1280 C   0  0  0  0  0  0  0  0  0  0  0  0
    1.3655    1.9473   -0.3853 H   0  0  0  0  0  0  0  0  0  0  0  0
    1.2008    0.6132   -1.5375 H   0  0  0  0  0  0  0  0  0  0  0  0
    0.5103    2.5039   -2.2593 C   0  0  0  0  0  0  0  0  0  0  0  0
   -0.5840    2.8714   -2.6440 O   0  0  0  0  0  0  0  0  0  0  0  0
    1.5762    3.0074   -2.8429 N   0  0  0  0  0  0  0  0  0  0  0  0
    1.3877    3.6658   -3.5788 H   0  0  0  0  0  0  0  0  0  0  0  0
    2.4989    2.7419   -2.5639 H   0  0  0  0  0  0  0  0  0  0  0  0
   -0.0637    0.1284    1.8555 C   0  0  0  0  0  0  0  0  0  0  0  0
    1.0918   -0.0745    2.2236 O   0  0  0  0  0  0  0  0  0  0  0  0
   -1.0024    0.6217    2.6735 N   0  0  0  0  0  0  0  0  0  0  0  0
   -1.9213    0.7848    2.2938 H   0  0  0  0  0  0  0  0  0  0  0  0
   -0.7639    0.9676    4.0741 C   0  0  0  0  0  0  0  0  0  0  0  0
    0.0520    1.6916    4.1400 H   0  0  0  0  0  0  0  0  0  0  0  0
   -1.6626    1.3984    4.5182 H   0  0  0  0  0  0  0  0  0  0  0  0
   -0.4775    0.0737    4.6309 H   0  0  0  0  0  0  0  0  0  0  0  0
  5  6  2  0  0  0  0
  5  7  1  0  0  0  0
  2  3  1  0  0  0  0
  2  4  1  0  0  0  0
  2  5  1  0  0  0  0
  1  2  1  0  0  0  0
 22 23  2  0  0  0  0
 22 24  1  0  0  0  0
 19 20  1  0  0  0  0
 19 21  1  0  0  0  0
 17 18  2  0  0  0  0
 17 19  1  0  0  0  0
 14 15  1  0  0  0  0
 14 16  1  0  0  0  0
 14 17  1  0  0  0  0
 11 12  1  0  0  0  0
 11 13  1  0  0  0  0
 11 14  1  0  0  0  0
  9 10  1  0  0  0  0
  9 11  1  0  0  0  0
  9 22  1  0  0  0  0
  7  8  1  0  0  0  0
  7  9  1  0  0  0  0
 26 27  1  0  0  0  0
 26 28  1  0  0  0  0
 26 29  1  0  0  0  0
 24 25  1  0  0  0  0
 24 26  1  0  0  0  0
M  END
$$$$
default_name
  -OEChem-02102213163D

 29 28  0     1  0  0  0  0  0999 V2000
   -3.3998   -3.6239    1.3678 H   0  0  0  0  0  0  0  0  0  0  0  0
   -3.3608   -2.6749    0.8348 C   0  0  0  0  0  0  0  0  0  0  0  0
   -4.0988   -1.9909    1.2498 H   0  0  0  0  0  0  0  0  0  0  0  0
   -3.5618   -2.8419   -0.2222 H   0  0  0  0  0  0  0  0  0  0  0  0
   -1.9818   -2.0809    0.9918 C   0  0  0  0  0  0  0  0  0  0  0  0
   -1.1288   -2.6669    1.6468 O   0  0  0  0  0  0  0  0  0  0  0  0
   -1.7648   -0.9089    0.3998 N   0  0  0  0  0  0  0  0  0  0  0  0
   -2.5238   -0.4719   -0.1032 H   0  0  0  0  0  0  0  0  0  0  0  0
   -0.4848   -0.1959    0.4138 C   0  0  1  0  0  0  0  0  0  0  0  0
    0.2783   -0.8411   -0.0248 H   0  0  0  0  0  0  0  0  0  0  0  0
   -0.6101    1.0666   -0.4611 C   0  0  0  0  0  0  0  0  0  0  0  0
   -1.5153    0.9771   -1.0654 H   0  0  0  0  0  0  0  0  0  0  0  0
   -0.7165    1.9391    0.1853 H   0  0  0  0  0  0  0  0  0  0  0  0
    0.5835    1.2902   -1.4059 C   0  0  0  0  0  0  0  0  0  0  0  0
    1.5002    1.3818   -0.8239 H   0  0  0  0  0  0  0  0  0  0  0  0
    0.6762    0.4297   -2.0685 H   0  0  0  0  0  0  0  0  0  0  0  0
    0.4428    2.5461   -2.2659 C   0  0  0  0  0  0  0  0  0  0  0  0
   -0.5468    3.2541   -2.2594 O   0  0  0  0  0  0  0  0  0  0  0  0
    1.4448    2.8847   -3.0479 N   0  0  0  0  0  0  0  0  0  0  0  0
    1.2989    3.7187   -3.5898 H   0  0  0  0  0  0  0  0  0  0  0  0
    2.2820    2.3398   -3.0896 H   0  0  0  0  0  0  0  0  0  0  0  0
   -0.0637    0.1284    1.8555 C   0  0  0  0  0  0  0  0  0  0  0  0
    1.0918   -0.0745    2.2236 O   0  0  0  0  0  0  0  0  0  0  0  0
   -1.0024    0.6217    2.6735 N   0  0  0  0  0  0  0  0  0  0  0  0
   -1.9213    0.7848    2.2938 H   0  0  0  0  0  0  0  0  0  0  0  0
   -0.7639    0.9676    4.0741 C   0  0  0  0  0  0  0  0  0  0  0  0
    0.0520    1.6916    4.1400 H   0  0  0  0  0  0  0  0  0  0  0  0
   -1.6626    1.3984    4.5182 H   0  0  0  0  0  0  0  0  0  0  0  0
   -0.4775    0.0737    4.6309 H   0  0  0  0  0  0  0  0  0  0  0  0
  5  6  2  0  0  0  0
  5  7  1  0  0  0  0
  2  3  1  0  0  0  0
  2  4  1  0  0  0  0
  2  5  1  0  0  0  0
  1  2  1  0  0  0  0
 22 23  2  0  0  0  0
 22 24  1  0  0  0  0
 19 20  1  0  0  0  0
 19 21  1  0  0  0  0
 17 18  2  0  0  0  0
 17 19  1  0  0  0  0
 14 15  1  0  0  0  0
 14 16  1  0  0  0  0
 14 17  1  0  0  0  0
 11 12  1  0  0  0  0
 11 13  1  0  0  0  0
 11 14  1  0  0  0  0
  9 10  1  0  0  0  0
  9 11  1  0  0  0  0
  9 22  1  0  0  0  0
  7  8  1  0  0  0  0
  7  9  1  0  0  0  0
 26 27  1  0  0  0  0
 26 28  1  0  0  0  0
 26 29  1  0  0  0  0
 24 25  1  0  0  0  0
 24 26  1  0  0  0  0
M  END
$$$$
default_name
  -OEChem-02102213163D

 29 28  0     1  0  0  0  0  0999 V2000
   -3.3998   -3.6239    1.3678 H   0  0  0  0  0  0  0  0  0  0  0  0
   -3.3608   -2.6749    0.8348 C   0  0  0  0  0  0  0  0  0  0  0  0
   -4.0988   -1.9909    1.2498 H   0  0  0  0  0  0  0  0  0  0  0  0
   -3.5618   -2.8419   -0.2222 H   0  0  0  0  0  0  0  0  0  0  0  0
   -1.9818   -2.0809    0.9918 C   0  0  0  0  0  0  0  0  0  0  0  0
   -1.1288   -2.6669    1.6468 O   0  0  0  0  0  0  0  0  0  0  0  0
   -1.7648   -0.9089    0.3998 N   0  0  0  0  0  0  0  0  0  0  0  0
   -2.5238   -0.4719   -0.1032 H   0  0  0  0  0  0  0  0  0  0  0  0
   -0.4848   -0.1959    0.4138 C   0  0  1  0  0  0  0  0  0  0  0  0
    0.2783   -0.8411   -0.0248 H   0  0  0  0  0  0  0  0  0  0  0  0
   -0.6101    1.0666   -0.4611 C   0  0  0  0  0  0  0  0  0  0  0  0
   -1.5153    0.9771   -1.0654 H   0  0  0  0  0  0  0  0  0  0  0  0
   -0.7165    1.9391    0.1853 H   0  0  0  0  0  0  0  0  0  0  0  0
    0.5835    1.2902   -1.4059 C   0  0  0  0  0  0  0  0  0  0  0  0
    1.5151    1.1179   -0.8675 H   0  0  0  0  0  0  0  0  0  0  0  0
    0.5207    0.5790   -2.2296 H   0  0  0  0  0  0  0  0  0  0  0  0
    0.6307    2.7013   -1.9917 C   0  0  0  0  0  0  0  0  0  0  0  0
   -0.2300    3.5379   -1.7921 O   0  0  0  0  0  0  0  0  0  0  0  0
    1.6576    3.0326   -2.7441 N   0  0  0  0  0  0  0  0  0  0  0  0
    1.6378    3.9719   -3.1018 H   0  0  0  0  0  0  0  0  0  0  0  0
    2.3939    2.3845   -2.9377 H   0  0  0  0  0  0  0  0  0  0  0  0
   -0.0637    0.1284    1.8555 C   0  0  0  0  0  0  0  0  0  0  0  0
    1.0918   -0.0745    2.2236 O   0  0  0  0  0  0  0  0  0  0  0  0
   -1.0024    0.6217    2.6735 N   0  0  0  0  0  0  0  0  0  0  0  0
   -1.9213    0.7848    2.2938 H   0  0  0  0  0  0  0  0  0  0  0  0
   -0.7639    0.9676    4.0741 C   0  0  0  0  0  0  0  0  0  0  0  0
    0.0520    1.6916    4.1400 H   0  0  0  0  0  0  0  0  0  0  0  0
   -1.6626    1.3984    4.5182 H   0  0  0  0  0  0  0  0  0  0  0  0
   -0.4775    0.0737    4.6309 H   0  0  0  0  0  0  0  0  0  0  0  0
  5  6  2  0  0  0  0
  5  7  1  0  0  0  0
  2  3  1  0  0  0  0
  2  4  1  0  0  0  0
  2  5  1  0  0  0  0
  1  2  1  0  0  0  0
 22 23  2  0  0  0  0
 22 24  1  0  0  0  0
 19 20  1  0  0  0  0
 19 21  1  0  0  0  0
 17 18  2  0  0  0  0
 17 19  1  0  0  0  0
 14 15  1  0  0  0  0
 14 16  1  0  0  0  0
 14 17  1  0  0  0  0
 11 12  1  0  0  0  0
 11 13  1  0  0  0  0
 11 14  1  0  0  0  0
  9 10  1  0  0  0  0
  9 11  1  0  0  0  0
  9 22  1  0  0  0  0
  7  8  1  0  0  0  0
  7  9  1  0  0  0  0
 26 27  1  0  0  0  0
 26 28  1  0  0  0  0
 26 29  1  0  0  0  0
 24 25  1  0  0  0  0
 24 26  1  0  0  0  0
M  END
$$$$
default_name
  -OEChem-02102213163D

 29 28  0     1  0  0  0  0  0999 V2000
   -3.3998   -3.6239    1.3678 H   0  0  0  0  0  0  0  0  0  0  0  0
   -3.3608   -2.6749    0.8348 C   0  0  0  0  0  0  0  0  0  0  0  0
   -4.0988   -1.9909    1.2498 H   0  0  0  0  0  0  0  0  0  0  0  0
   -3.5618   -2.8419   -0.2222 H   0  0  0  0  0  0  0  0  0  0  0  0
   -1.9818   -2.0809    0.9918 C   0  0  0  0  0  0  0  0  0  0  0  0
   -1.1288   -2.6669    1.6468 O   0  0  0  0  0  0  0  0  0  0  0  0
   -1.7648   -0.9089    0.3998 N   0  0  0  0  0  0  0  0  0  0  0  0
   -2.5238   -0.4719   -0.1032 H   0  0  0  0  0  0  0  0  0  0  0  0
   -0.4848   -0.1959    0.4138 C   0  0  1  0  0  0  0  0  0  0  0  0
    0.2783   -0.8411   -0.0248 H   0  0  0  0  0  0  0  0  0  0  0  0
   -0.6101    1.0666   -0.4611 C   0  0  0  0  0  0  0  0  0  0  0  0
   -1.5153    0.9771   -1.0654 H   0  0  0  0  0  0  0  0  0  0  0  0
   -0.7165    1.9391    0.1853 H   0  0  0  0  0  0  0  0  0  0  0  0
    0.5835    1.2902   -1.4059 C   0  0  0  0  0  0  0  0  0  0  0  0
    1.4860    0.8694   -0.9632 H   0  0  0  0  0  0  0  0  0  0  0  0
    0.3882    0.7804   -2.3493 H   0  0  0  0  0  0  0  0  0  0  0  0
    0.8473    2.7663   -1.7028 C   0  0  0  0  0  0  0  0  0  0  0  0
    0.1386    3.6678   -1.2956 O   0  0  0  0  0  0  0  0  0  0  0  0
    1.8980    3.0807   -2.4289 N   0  0  0  0  0  0  0  0  0  0  0  0
    2.0238    4.0645   -2.5923 H   0  0  0  0  0  0  0  0  0  0  0  0
    2.5147    2.3794   -2.7863 H   0  0  0  0  0  0  0  0  0  0  0  0
   -0.0637    0.1284    1.8555 C   0  0  0  0  0  0  0  0  0  0  0  0
    1.0918   -0.0745    2.2236 O   0  0  0  0  0  0  0  0  0  0  0  0
   -1.0024    0.6217    2.6735 N   0  0  0  0  0  0  0  0  0  0  0  0
   -1.9213    0.7848    2.2938 H   0  0  0  0  0  0  0  0  0  0  0  0
   -0.7639    0.9676    4.0741 C   0  0  0  0  0  0  0  0  0  0  0  0
    0.0520    1.6916    4.1400 H   0  0  0  0  0  0  0  0  0  0  0  0
   -1.6626    1.3984    4.5182 H   0  0  0  0  0  0  0  0  0  0  0  0
   -0.4775    0.0737    4.6309 H   0  0  0  0  0  0  0  0  0  0  0  0
  5  6  2  0  0  0  0
  5  7  1  0  0  0  0
  2  3  1  0  0  0  0
  2  4  1  0  0  0  0
  2  5  1  0  0  0  0
  1  2  1  0  0  0  0
 22 23  2  0  0  0  0
 22 24  1  0  0  0  0
 19 20  1  0  0  0  0
 19 21  1  0  0  0  0
 17 18  2  0  0  0  0
 17 19  1  0  0  0  0
 14 15  1  0  0  0  0
 14 16  1  0  0  0  0
 14 17  1  0  0  0  0
 11 12  1  0  0  0  0
 11 13  1  0  0  0  0
 11 14  1  0  0  0  0
  9 10  1  0  0  0  0
  9 11  1  0  0  0  0
  9 22  1  0  0  0  0
  7  8  1  0  0  0  0
  7  9  1  0  0  0  0
 26 27  1  0  0  0  0
 26 28  1  0  0  0  0
 26 29  1  0  0  0  0
 24 25  1  0  0  0  0
 24 26  1  0  0  0  0
M  END
$$$$
default_name
  -OEChem-02102213163D

 29 28  0     1  0  0  0  0  0999 V2000
   -3.3998   -3.6239    1.3678 H   0  0  0  0  0  0  0  0  0  0  0  0
   -3.3608   -2.6749    0.8348 C   0  0  0  0  0  0  0  0  0  0  0  0
   -4.0988   -1.9909    1.2498 H   0  0  0  0  0  0  0  0  0  0  0  0
   -3.5618   -2.8419   -0.2222 H   0  0  0  0  0  0  0  0  0  0  0  0
   -1.9818   -2.0809    0.9918 C   0  0  0  0  0  0  0  0  0  0  0  0
   -1.1288   -2.6669    1.6468 O   0  0  0  0  0  0  0  0  0  0  0  0
   -1.7648   -0.9089    0.3998 N   0  0  0  0  0  0  0  0  0  0  0  0
   -2.5238   -0.4719   -0.1032 H   0  0  0  0  0  0  0  0  0  0  0  0
   -0.4848   -0.1959    0.4138 C   0  0  1  0  0  0  0  0  0  0  0  0
    0.2783   -0.8411   -0.0248 H   0  0  0  0  0  0  0  0  0  0  0  0
   -0.6101    1.0666   -0.4611 C   0  0  0  0  0  0  0  0  0  0  0  0
   -1.5153    0.9771   -1.0654 H   0  0  0  0  0  0  0  0  0  0  0  0
   -0.7165    1.9391    0.1853 H   0  0  0  0  0  0  0  0  0  0  0  0
    0.5835    1.2902   -1.4059 C   0  0  0  0  0  0  0  0  0  0  0  0
    1.4147    0.6532   -1.1043 H   0  0  0  0  0  0  0  0  0  0  0  0
    0.2877    1.0200   -2.4196 H   0  0  0  0  0  0  0  0  0  0  0  0
    1.0776    2.7366   -1.4188 C   0  0  0  0  0  0  0  0  0  0  0  0
    0.5340    3.6350   -0.8039 O   0  0  0  0  0  0  0  0  0  0  0  0
    2.1498    3.0256   -2.1240 N   0  0  0  0  0  0  0  0  0  0  0  0
    2.4305    3.9904   -2.0960 H   0  0  0  0  0  0  0  0  0  0  0  0
    2.6363    2.3249   -2.6456 H   0  0  0  0  0  0  0  0  0  0  0  0
   -0.0637    0.1284    1.8555 C   0  0  0  0  0  0  0  0  0  0  0  0
    1.0918   -0.0745    2.2236 O   0  0  0  0  0  0  0  0  0  0  0  0
   -1.0024    0.6217    2.6735 N   0  0  0  0  0  0  0  0  0  0  0  0
   -1.9213    0.7848    2.2938 H   0  0  0  0  0  0  0  0  0  0  0  0
   -0.7639    0.9676    4.0741 C   0  0  0  0  0  0  0  0  0  0  0  0
    0.0520    1.6916    4.1400 H   0  0  0  0  0  0  0  0  0  0  0  0
   -1.6626    1.3984    4.5182 H   0  0  0  0  0  0  0  0  0  0  0  0
   -0.4775    0.0737    4.6309 H   0  0  0  0  0  0  0  0  0  0  0  0
  5  6  2  0  0  0  0
  5  7  1  0  0  0  0
  2  3  1  0  0  0  0
  2  4  1  0  0  0  0
  2  5  1  0  0  0  0
  1  2  1  0  0  0  0
 22 23  2  0  0  0  0
 22 24  1  0  0  0  0
 19 20  1  0  0  0  0
 19 21  1  0  0  0  0
 17 18  2  0  0  0  0
 17 19  1  0  0  0  0
 14 15  1  0  0  0  0
 14 16  1  0  0  0  0
 14 17  1  0  0  0  0
 11 12  1  0  0  0  0
 11 13  1  0  0  0  0
 11 14  1  0  0  0  0
  9 10  1  0  0  0  0
  9 11  1  0  0  0  0
  9 22  1  0  0  0  0
  7  8  1  0  0  0  0
  7  9  1  0  0  0  0
 26 27  1  0  0  0  0
 26 28  1  0  0  0  0
 26 29  1  0  0  0  0
 24 25  1  0  0  0  0
 24 26  1  0  0  0  0
M  END
$$$$
default_name
  -OEChem-02102213163D

 29 28  0     1  0  0  0  0  0999 V2000
   -3.3998   -3.6239    1.3678 H   0  0  0  0  0  0  0  0  0  0  0  0
   -3.3608   -2.6749    0.8348 C   0  0  0  0  0  0  0  0  0  0  0  0
   -4.0988   -1.9909    1.2498 H   0  0  0  0  0  0  0  0  0  0  0  0
   -3.5618   -2.8419   -0.2222 H   0  0  0  0  0  0  0  0  0  0  0  0
   -1.9818   -2.0809    0.9918 C   0  0  0  0  0  0  0  0  0  0  0  0
   -1.1288   -2.6669    1.6468 O   0  0  0  0  0  0  0  0  0  0  0  0
   -1.7648   -0.9089    0.3998 N   0  0  0  0  0  0  0  0  0  0  0  0
   -2.5238   -0.4719   -0.1032 H   0  0  0  0  0  0  0  0  0  0  0  0
   -0.4848   -0.1959    0.4138 C   0  0  1  0  0  0  0  0  0  0  0  0
    0.2783   -0.8411   -0.0248 H   0  0  0  0  0  0  0  0  0  0  0  0
   -0.6101    1.0666   -0.4611 C   0  0  0  0  0  0  0  0  0  0  0  0
   -1.5153    0.9771   -1.0654 H   0  0  0  0  0  0  0  0  0  0  0  0
   -0.7165    1.9391    0.1853 H   0  0  0  0  0  0  0  0  0  0  0  0
    0.5835    1.2902   -1.4059 C   0  0  0  0  0  0  0  0  0  0  0  0
    1.3062    0.4840   -1.2815 H   0  0  0  0  0  0  0  0  0  0  0  0
    0.2260    1.2814   -2.4356 H   0  0  0  0  0  0  0  0  0  0  0  0
    1.3061    2.6144   -1.1591 C   0  0  0  0  0  0  0  0  0  0  0  0
    0.9293    3.4417   -0.3504 O   0  0  0  0  0  0  0  0  0  0  0  0
    2.3957    2.8711   -1.8499 N   0  0  0  0  0  0  0  0  0  0  0  0
    2.8302    3.7545   -1.6469 H   0  0  0  0  0  0  0  0  0  0  0  0
    2.7504    2.2247   -2.5252 H   0  0  0  0  0  0  0  0  0  0  0  0
   -0.0637    0.1284    1.8555 C   0  0  0  0  0  0  0  0  0  0  0  0
    1.0918   -0.0745    2.2236 O   0  0  0  0  0  0  0  0  0  0  0  0
   -1.0024    0.6217    2.6735 N   0  0  0  0  0  0  0  0  0  0  0  0
   -1.9213    0.7848    2.2938 H   0  0  0  0  0  0  0  0  0  0  0  0
   -0.7639    0.9676    4.0741 C   0  0  0  0  0  0  0  0  0  0  0  0
    0.0520    1.6916    4.1400 H   0  0  0  0  0  0  0  0  0  0  0  0
   -1.6626    1.3984    4.5182 H   0  0  0  0  0  0  0  0  0  0  0  0
   -0.4775    0.0737    4.6309 H   0  0  0  0  0  0  0  0  0  0  0  0
  5  6  2  0  0  0  0
  5  7  1  0  0  0  0
  2  3  1  0  0  0  0
  2  4  1  0  0  0  0
  2  5  1  0  0  0  0
  1  2  1  0  0  0  0
 22 23  2  0  0  0  0
 22 24  1  0  0  0  0
 19 20  1  0  0  0  0
 19 21  1  0  0  0  0
 17 18  2  0  0  0  0
 17 19  1  0  0  0  0
 14 15  1  0  0  0  0
 14 16  1  0  0  0  0
 14 17  1  0  0  0  0
 11 12  1  0  0  0  0
 11 13  1  0  0  0  0
 11 14  1  0  0  0  0
  9 10  1  0  0  0  0
  9 11  1  0  0  0  0
  9 22  1  0  0  0  0
  7  8  1  0  0  0  0
  7  9  1  0  0  0  0
 26 27  1  0  0  0  0
 26 28  1  0  0  0  0
 26 29  1  0  0  0  0
 24 25  1  0  0  0  0
 24 26  1  0  0  0  0
M  END
$$$$
default_name
  -OEChem-02102213163D

 29 28  0     1  0  0  0  0  0999 V2000
   -3.3998   -3.6239    1.3678 H   0  0  0  0  0  0  0  0  0  0  0  0
   -3.3608   -2.6749    0.8348 C   0  0  0  0  0  0  0  0  0  0  0  0
   -4.0988   -1.9909    1.2498 H   0  0  0  0  0  0  0  0  0  0  0  0
   -3.5618   -2.8419   -0.2222 H   0  0  0  0  0  0  0  0  0  0  0  0
   -1.9818   -2.0809    0.9918 C   0  0  0  0  0  0  0  0  0  0  0  0
   -1.1288   -2.6669    1.6468 O   0  0  0  0  0  0  0  0  0  0  0  0
   -1.7648   -0.9089    0.3998 N   0  0  0  0  0  0  0  0  0  0  0  0
   -2.5238   -0.4719   -0.1032 H   0  0  0  0  0  0  0  0  0  0  0  0
   -0.4848   -0.1959    0.4138 C   0  0  1  0  0  0  0  0  0  0  0  0
    0.2783   -0.8411   -0.0248 H   0  0  0  0  0  0  0  0  0  0  0  0
   -0.6101    1.0666   -0.4611 C   0  0  0  0  0  0  0  0  0  0  0  0
   -1.5153    0.9771   -1.0654 H   0  0  0  0  0  0  0  0  0  0  0  0
   -0.7165    1.9391    0.1853 H   0  0  0  0  0  0  0  0  0  0  0  0
    0.5835    1.2902   -1.4059 C   0  0  0  0  0  0  0  0  0  0  0  0
    1.1678    0.3735   -1.4824 H   0  0  0  0  0  0  0  0  0  0  0  0
    0.2075    1.5470   -2.3962 H   0  0  0  0  0  0  0  0  0  0  0  0
    1.5171    2.4078   -0.9414 C   0  0  0  0  0  0  0  0  0  0  0  0
    1.2973    3.1011    0.0341 O   0  0  0  0  0  0  0  0  0  0  0  0
    2.6189    2.6278   -1.6254 N   0  0  0  0  0  0  0  0  0  0  0  0
    3.1957    3.3730   -1.2754 H   0  0  0  0  0  0  0  0  0  0  0  0
    2.8492    2.0856   -2.4333 H   0  0  0  0  0  0  0  0  0  0  0  0
   -0.0637    0.1284    1.8555 C   0  0  0  0  0  0  0  0  0  0  0  0
    1.0918   -0.0745    2.2236 O   0  0  0  0  0  0  0  0  0  0  0  0
   -1.0024    0.6217    2.6735 N   0  0  0  0  0  0  0  0  0  0  0  0
   -1.9213    0.7848    2.2938 H   0  0  0  0  0  0  0  0  0  0  0  0
   -0.7639    0.9676    4.0741 C   0  0  0  0  0  0  0  0  0  0  0  0
    0.0520    1.6916    4.1400 H   0  0  0  0  0  0  0  0  0  0  0  0
   -1.6626    1.3984    4.5182 H   0  0  0  0  0  0  0  0  0  0  0  0
   -0.4775    0.0737    4.6309 H   0  0  0  0  0  0  0  0  0  0  0  0
  5  6  2  0  0  0  0
  5  7  1  0  0  0  0
  2  3  1  0  0  0  0
  2  4  1  0  0  0  0
  2  5  1  0  0  0  0
  1  2  1  0  0  0  0
 22 23  2  0  0  0  0
 22 24  1  0  0  0  0
 19 20  1  0  0  0  0
 19 21  1  0  0  0  0
 17 18  2  0  0  0  0
 17 19  1  0  0  0  0
 14 15  1  0  0  0  0
 14 16  1  0  0  0  0
 14 17  1  0  0  0  0
 11 12  1  0  0  0  0
 11 13  1  0  0  0  0
 11 14  1  0  0  0  0
  9 10  1  0  0  0  0
  9 11  1  0  0  0  0
  9 22  1  0  0  0  0
  7  8  1  0  0  0  0
  7  9  1  0  0  0  0
 26 27  1  0  0  0  0
 26 28  1  0  0  0  0
 26 29  1  0  0  0  0
 24 25  1  0  0  0  0
 24 26  1  0  0  0  0
M  END
$$$$
default_name
  -OEChem-02102213163D

 29 28  0     1  0  0  0  0  0999 V2000
   -3.3998   -3.6239    1.3678 H   0  0  0  0  0  0  0  0  0  0  0  0
   -3.3608   -2.6749    0.8348 C   0  0  0  0  0  0  0  0  0  0  0  0
   -4.0988   -1.9909    1.2498 H   0  0  0  0  0  0  0  0  0  0  0  0
   -3.5618   -2.8419   -0.2222 H   0  0  0  0  0  0  0  0  0  0  0  0
   -1.9818   -2.0809    0.9918 C   0  0  0  0  0  0  0  0  0  0  0  0
   -1.1288   -2.6669    1.6468 O   0  0  0  0  0  0  0  0  0  0  0  0
   -1.7648   -0.9089    0.3998 N   0  0  0  0  0  0  0  0  0  0  0  0
   -2.5238   -0.4719   -0.1032 H   0  0  0  0  0  0  0  0  0  0  0  0
   -0.4848   -0.1959    0.4138 C   0  0  1  0  0  0  0  0  0  0  0  0
    0.2783   -0.8411   -0.0248 H   0  0  0  0  0  0  0  0  0  0  0  0
   -0.6101    1.0666   -0.4611 C   0  0  0  0  0  0  0  0  0  0  0  0
   -1.5153    0.9771   -1.0654 H   0  0  0  0  0  0  0  0  0  0  0  0
   -0.7165    1.9391    0.1853 H   0  0  0  0  0  0  0  0  0  0  0  0
    0.5835    1.2902   -1.4059 C   0  0  0  0  0  0  0  0  0  0  0  0
    1.0090    0.3290   -1.6935 H   0  0  0  0  0  0  0  0  0  0  0  0
    0.2332    1.7986   -2.3042 H   0  0  0  0  0  0  0  0  0  0  0  0
    1.6963    2.1310   -0.7805 C   0  0  0  0  0  0  0  0  0  0  0  0
    1.6132    2.6365    0.3232 O   0  0  0  0  0  0  0  0  0  0  0  0
    2.8043    2.3122   -1.4658 N   0  0  0  0  0  0  0  0  0  0  0  0
    3.5021    2.8717   -1.0070 H   0  0  0  0  0  0  0  0  0  0  0  0
    2.9259    1.9170   -2.3762 H   0  0  0  0  0  0  0  0  0  0  0  0
   -0.0637    0.1284    1.8555 C   0  0  0  0  0  0  0  0  0  0  0  0
    1.0918   -0.0745    2.2236 O   0  0  0  0  0  0  0  0  0  0  0  0
   -1.0024    0.6217    2.6735 N   0  0  0  0  0  0  0  0  0  0  0  0
   -1.9213    0.7848    2.2938 H   0  0  0  0  0  0  0  0  0  0  0  0
   -0.7639    0.9676    4.0741 C   0  0  0  0  0  0  0  0  0  0  0  0
    0.0520    1.6916    4.1400 H   0  0  0  0  0  0  0  0  0  0  0  0
   -1.6626    1.3984    4.5182 H   0  0  0  0  0  0  0  0  0  0  0  0
   -0.4775    0.0737    4.6309 H   0  0  0  0  0  0  0  0  0  0  0  0
  5  6  2  0  0  0  0
  5  7  1  0  0  0  0
  2  3  1  0  0  0  0
  2  4  1  0  0  0  0
  2  5  1  0  0  0  0
  1  2  1  0  0  0  0
 22 23  2  0  0  0  0
 22 24  1  0  0  0  0
 19 20  1  0  0  0  0
 19 21  1  0  0  0  0
 17 18  2  0  0  0  0
 17 19  1  0  0  0  0
 14 15  1  0  0  0  0
 14 16  1  0  0  0  0
 14 17  1  0  0  0  0
 11 12  1  0  0  0  0
 11 13  1  0  0  0  0
 11 14  1  0  0  0  0
  9 10  1  0  0  0  0
  9 11  1  0  0  0  0
  9 22  1  0  0  0  0
  7  8  1  0  0  0  0
  7  9  1  0  0  0  0
 26 27  1  0  0  0  0
 26 28  1  0  0  0  0
 26 29  1  0  0  0  0
 24 25  1  0  0  0  0
 24 26  1  0  0  0  0
M  END
$$$$
default_name
  -OEChem-02102213163D

 29 28  0     1  0  0  0  0  0999 V2000
   -3.3998   -3.6239    1.3678 H   0  0  0  0  0  0  0  0  0  0  0  0
   -3.3608   -2.6749    0.8348 C   0  0  0  0  0  0  0  0  0  0  0  0
   -4.0988   -1.9909    1.2498 H   0  0  0  0  0  0  0  0  0  0  0  0
   -3.5618   -2.8419   -0.2222 H   0  0  0  0  0  0  0  0  0  0  0  0
   -1.9818   -2.0809    0.9918 C   0  0  0  0  0  0  0  0  0  0  0  0
   -1.1288   -2.6669    1.6468 O   0  0  0  0  0  0  0  0  0  0  0  0
   -1.7648   -0.9089    0.3998 N   0  0  0  0  0  0  0  0  0  0  0  0
   -2.5238   -0.4719   -0.1032 H   0  0  0  0  0  0  0  0  0  0  0  0
   -0.4848   -0.1959    0.4138 C   0  0  1  0  0  0  0  0  0  0  0  0
    0.2783   -0.8411   -0.0248 H   0  0  0  0  0  0  0  0  0  0  0  0
   -0.6101    1.0666   -0.4611 C   0  0  0  0  0  0  0  0  0  0  0  0
   -1.5153    0.9771   -1.0654 H   0  0  0  0  0  0  0  0  0  0  0  0
   -0.7165    1.9391    0.1853 H   0  0  0  0  0  0  0  0  0  0  0  0
    0.5835    1.2902   -1.4059 C   0  0  0  0  0  0  0  0  0  0  0  0
    0.8407    0.3537   -1.9004 H   0  0  0  0  0  0  0  0  0  0  0  0
    0.3015    2.0191   -2.1657 H   0  0  0  0  0  0  0  0  0  0  0  0
    1.8314    1.8029   -0.6874 C   0  0  0  0  0  0  0  0  0  0  0  0
    1.8553    2.0795    0.4973 O   0  0  0  0  0  0  0  0  0  0  0  0
    2.9393    1.9459   -1.3820 N   0  0  0  0  0  0  0  0  0  0  0  0
    3.7284    2.2850   -0.8598 H   0  0  0  0  0  0  0  0  0  0  0  0
    2.9755    1.7306   -2.3577 H   0  0  0  0  0  0  0  0  0  0  0  0
   -0.0637    0.1284    1.8555 C   0  0  0  0  0  0  0  0  0  0  0  0
    1.0918   -0.0745    2.2236 O   0  0  0  0  0  0  0  0  0  0  0  0
   -1.0024    0.6217    2.6735 N   0  0  0  0  0  0  0  0  0  0  0  0
   -1.9213    0.7848    2.2938 H   0  0  0  0  0  0  0  0  0  0  0  0
   -0.7639    0.9676    4.0741 C   0  0  0  0  0  0  0  0  0  0  0  0
    0.0520    1.6916    4.1400 H   0  0  0  0  0  0  0  0  0  0  0  0
   -1.6626    1.3984    4.5182 H   0  0  0  0  0  0  0  0  0  0  0  0
   -0.4775    0.0737    4.6309 H   0  0  0  0  0  0  0  0  0  0  0  0
  5  6  2  0  0  0  0
  5  7  1  0  0  0  0
  2  3  1  0  0  0  0
  2  4  1  0  0  0  0
  2  5  1  0  0  0  0
  1  2  1  0  0  0  0
 22 23  2  0  0  0  0
 22 24  1  0  0  0  0
 19 20  1  0  0  0  0
 19 21  1  0  0  0  0
 17 18  2  0  0  0  0
 17 19  1  0  0  0  0
 14 15  1  0  0  0  0
 14 16  1  0  0  0  0
 14 17  1  0  0  0  0
 11 12  1  0  0  0  0
 11 13  1  0  0  0  0
 11 14  1  0  0  0  0
  9 10  1  0  0  0  0
  9 11  1  0  0  0  0
  9 22  1  0  0  0  0
  7  8  1  0  0  0  0
  7  9  1  0  0  0  0
 26 27  1  0  0  0  0
 26 28  1  0  0  0  0
 26 29  1  0  0  0  0
 24 25  1  0  0  0  0
 24 26  1  0  0  0  0
M  END
$$$$
default_name
  -OEChem-02102213163D

 29 28  0     1  0  0  0  0  0999 V2000
   -3.3998   -3.6239    1.3678 H   0  0  0  0  0  0  0  0  0  0  0  0
   -3.3608   -2.6749    0.8348 C   0  0  0  0  0  0  0  0  0  0  0  0
   -4.0988   -1.9909    1.2498 H   0  0  0  0  0  0  0  0  0  0  0  0
   -3.5618   -2.8419   -0.2222 H   0  0  0  0  0  0  0  0  0  0  0  0
   -1.9818   -2.0809    0.9918 C   0  0  0  0  0  0  0  0  0  0  0  0
   -1.1288   -2.6669    1.6468 O   0  0  0  0  0  0  0  0  0  0  0  0
   -1.7648   -0.9089    0.3998 N   0  0  0  0  0  0  0  0  0  0  0  0
   -2.5238   -0.4719   -0.1032 H   0  0  0  0  0  0  0  0  0  0  0  0
   -0.4848   -0.1959    0.4138 C   0  0  1  0  0  0  0  0  0  0  0  0
    0.2783   -0.8411   -0.0248 H   0  0  0  0  0  0  0  0  0  0  0  0
   -0.6101    1.0666   -0.4611 C   0  0  0  0  0  0  0  0  0  0  0  0
   -1.5153    0.9771   -1.0654 H   0  0  0  0  0  0  0  0  0  0  0  0
   -0.7165    1.9391    0.1853 H   0  0  0  0  0  0  0  0  0  0  0  0
    0.5835    1.2902   -1.4059 C   0  0  0  0  0  0  0  0  0  0  0  0
    0.6742    0.4458   -2.0889 H   0  0  0  0  0  0  0  0  0  0  0  0
    0.4078    2.1933   -1.9903 H   0  0  0  0  0  0  0  0  0  0  0  0
    1.9133    1.4458   -0.6685 C   0  0  0  0  0  0  0  0  0  0  0  0
    2.0072    1.4680    0.5445 O   0  0  0  0  0  0  0  0  0  0  0  0
    3.0146    1.5538   -1.3797 N   0  0  0  0  0  0  0  0  0  0  0  0
    3.8594    1.6527   -0.8440 H   0  0  0  0  0  0  0  0  0  0  0  0
    2.9944    1.5389   -2.3792 H   0  0  0  0  0  0  0  0  0  0  0  0
   -0.0637    0.1284    1.8555 C   0  0  0  0  0  0  0  0  0  0  0  0
    1.0918   -0.0745    2.2236 O   0  0  0  0  0  0  0  0  0  0  0  0
   -1.0024    0.6217    2.6735 N   0  0  0  0  0  0  0  0  0  0  0  0
   -1.9213    0.7848    2.2938 H   0  0  0  0  0  0  0  0  0  0  0  0
   -0.7639    0.9676    4.0741 C   0  0  0  0  0  0  0  0  0  0  0  0
    0.0520    1.6916    4.1400 H   0  0  0  0  0  0  0  0  0  0  0  0
   -1.6626    1.3984    4.5182 H   0  0  0  0  0  0  0  0  0  0  0  0
   -0.4775    0.0737    4.6309 H   0  0  0  0  0  0  0  0  0  0  0  0
  5  6  2  0  0  0  0
  5  7  1  0  0  0  0
  2  3  1  0  0  0  0
  2  4  1  0  0  0  0
  2  5  1  0  0  0  0
  1  2  1  0  0  0  0
 22 23  2  0  0  0  0
 22 24  1  0  0  0  0
 19 20  1  0  0  0  0
 19 21  1  0  0  0  0
 17 18  2  0  0  0  0
 17 19  1  0  0  0  0
 14 15  1  0  0  0  0
 14 16  1  0  0  0  0
 14 17  1  0  0  0  0
 11 12  1  0  0  0  0
 11 13  1  0  0  0  0
 11 14  1  0  0  0  0
  9 10  1  0  0  0  0
  9 11  1  0  0  0  0
  9 22  1  0  0  0  0
  7  8  1  0  0  0  0
  7  9  1  0  0  0  0
 26 27  1  0  0  0  0
 26 28  1  0  0  0  0
 26 29  1  0  0  0  0
 24 25  1  0  0  0  0
 24 26  1  0  0  0  0
M  END
$$$$
default_name
  -OEChem-02102213163D

 29 28  0     1  0  0  0  0  0999 V2000
   -3.3998   -3.6239    1.3678 H   0  0  0  0  0  0  0  0  0  0  0  0
   -3.3608   -2.6749    0.8348 C   0  0  0  0  0  0  0  0  0  0  0  0
   -4.0988   -1.9909    1.2498 H   0  0  0  0  0  0  0  0  0  0  0  0
   -3.5618   -2.8419   -0.2222 H   0  0  0  0  0  0  0  0  0  0  0  0
   -1.9818   -2.0809    0.9918 C   0  0  0  0  0  0  0  0  0  0  0  0
   -1.1288   -2.6669    1.6468 O   0  0  0  0  0  0  0  0  0  0  0  0
   -1.7648   -0.9089    0.3998 N   0  0  0  0  0  0  0  0  0  0  0  0
   -2.5238   -0.4719   -0.1032 H   0  0  0  0  0  0  0  0  0  0  0  0
   -0.4848   -0.1959    0.4138 C   0  0  1  0  0  0  0  0  0  0  0  0
    0.2783   -0.8411   -0.0248 H   0  0  0  0  0  0  0  0  0  0  0  0
   -0.6101    1.0666   -0.4611 C   0  0  0  0  0  0  0  0  0  0  0  0
   -1.5153    0.9771   -1.0654 H   0  0  0  0  0  0  0  0  0  0  0  0
   -0.7165    1.9391    0.1853 H   0  0  0  0  0  0  0  0  0  0  0  0
    0.5835    1.2902   -1.4059 C   0  0  0  0  0  0  0  0  0  0  0  0
    0.5209    0.5991   -2.2463 H   0  0  0  0  0  0  0  0  0  0  0  0
    0.5447    2.3096   -1.7898 H   0  0  0  0  0  0  0  0  0  0  0  0
    1.9364    1.0841   -0.7249 C   0  0  0  0  0  0  0  0  0  0  0  0
    2.0585    0.8437    0.4616 O   0  0  0  0  0  0  0  0  0  0  0  0
    3.0250    1.1626   -1.4590 N   0  0  0  0  0  0  0  0  0  0  0  0
    3.8860    1.0180   -0.9606 H   0  0  0  0  0  0  0  0  0  0  0  0
    2.9813    1.3550   -2.4392 H   0  0  0  0  0  0  0  0  0  0  0  0
   -0.0637    0.1284    1.8555 C   0  0  0  0  0  0  0  0  0  0  0  0
    1.0918   -0.0745    2.2236 O   0  0  0  0  0  0  0  0  0  0  0  0
   -1.0024    0.6217    2.6735 N   0  0  0  0  0  0  0  0  0  0  0  0
   -1.9213    0.7848    2.2938 H   0  0  0  0  0  0  0  0  0  0  0  0
   -0.7639    0.9676    4.0741 C   0  0  0  0  0  0  0  0  0  0  0  0
    0.0520    1.6916    4.1400 H   0  0  0  0  0  0  0  0  0  0  0  0
   -1.6626    1.3984    4.5182 H   0  0  0  0  0  0  0  0  0  0  0  0
   -0.4775    0.0737    4.6309 H   0  0  0  0  0  0  0  0  0  0  0  0
  5  6  2  0  0  0  0
  5  7  1  0  0  0  0
  2  3  1  0  0  0  0
  2  4  1  0  0  0  0
  2  5  1  0  0  0  0
  1  2  1  0  0  0  0
 22 23  2  0  0  0  0
 22 24  1  0  0  0  0
 19 20  1  0  0  0  0
 19 21  1  0  0  0  0
 17 18  2  0  0  0  0
 17 19  1  0  0  0  0
 14 15  1  0  0  0  0
 14 16  1  0  0  0  0
 14 17  1  0  0  0  0
 11 12  1  0  0  0  0
 11 13  1  0  0  0  0
 11 14  1  0  0  0  0
  9 10  1  0  0  0  0
  9 11  1  0  0  0  0
  9 22  1  0  0  0  0
  7  8  1  0  0  0  0
  7  9  1  0  0  0  0
 26 27  1  0  0  0  0
 26 28  1  0  0  0  0
 26 29  1  0  0  0  0
 24 25  1  0  0  0  0
 24 26  1  0  0  0  0
M  END
$$$$
default_name
  -OEChem-02102213163D

 29 28  0     1  0  0  0  0  0999 V2000
   -3.3998   -3.6239    1.3678 H   0  0  0  0  0  0  0  0  0  0  0  0
   -3.3608   -2.6749    0.8348 C   0  0  0  0  0  0  0  0  0  0  0  0
   -4.0988   -1.9909    1.2498 H   0  0  0  0  0  0  0  0  0  0  0  0
   -3.5618   -2.8419   -0.2222 H   0  0  0  0  0  0  0  0  0  0  0  0
   -1.9818   -2.0809    0.9918 C   0  0  0  0  0  0  0  0  0  0  0  0
   -1.1288   -2.6669    1.6468 O   0  0  0  0  0  0  0  0  0  0  0  0
   -1.7648   -0.9089    0.3998 N   0  0  0  0  0  0  0  0  0  0  0  0
   -2.5238   -0.4719   -0.1032 H   0  0  0  0  0  0  0  0  0  0  0  0
   -0.4848   -0.1959    0.4138 C   0  0  1  0  0  0  0  0  0  0  0  0
    0.2783   -0.8411   -0.0248 H   0  0  0  0  0  0  0  0  0  0  0  0
   -0.6101    1.0666   -0.4611 C   0  0  0  0  0  0  0  0  0  0  0  0
   -1.5153    0.9771   -1.0654 H   0  0  0  0  0  0  0  0  0  0  0  0
   -0.7165    1.9391    0.1853 H   0  0  0  0  0  0  0  0  0  0  0  0
    0.5835    1.2902   -1.4059 C   0  0  0  0  0  0  0  0  0  0  0  0
    0.3913    0.8031   -2.3617 H   0  0  0  0  0  0  0  0  0  0  0  0
    0.7029    2.3598   -1.5780 H   0  0  0  0  0  0  0  0  0  0  0  0
    1.8990    0.7423   -0.8530 C   0  0  0  0  0  0  0  0  0  0  0  0
    2.0058    0.2492    0.2542 O   0  0  0  0  0  0  0  0  0  0  0  0
    2.9700    0.7990   -1.6146 N   0  0  0  0  0  0  0  0  0  0  0  0
    3.8064    0.4241   -1.2016 H   0  0  0  0  0  0  0  0  0  0  0  0
    2.9373    1.1916   -2.5335 H   0  0  0  0  0  0  0  0  0  0  0  0
   -0.0637    0.1284    1.8555 C   0  0  0  0  0  0  0  0  0  0  0  0
    1.0918   -0.0745    2.2236 O   0  0  0  0  0  0  0  0  0  0  0  0
   -1.0024    0.6217    2.6735 N   0  0  0  0  0  0  0  0  0  0  0  0
   -1.9213    0.7848    2.2938 H   0  0  0  0  0  0  0  0  0  0  0  0
   -0.7639    0.9676    4.0741 C   0  0  0  0  0  0  0  0  0  0  0  0
    0.0520    1.6916    4.1400 H   0  0  0  0  0  0  0  0  0  0  0  0
   -1.6626    1.3984    4.5182 H   0  0  0  0  0  0  0  0  0  0  0  0
   -0.4775    0.0737    4.6309 H   0  0  0  0  0  0  0  0  0  0  0  0
  5  6  2  0  0  0  0
  5  7  1  0  0  0  0
  2  3  1  0  0  0  0
  2  4  1  0  0  0  0
  2  5  1  0  0  0  0
  1  2  1  0  0  0  0
 22 23  2  0  0  0  0
 22 24  1  0  0  0  0
 19 20  1  0  0  0  0
 19 21  1  0  0  0  0
 17 18  2  0  0  0  0
 17 19  1  0  0  0  0
 14 15  1  0  0  0  0
 14 16  1  0  0  0  0
 14 17  1  0  0  0  0
 11 12  1  0  0  0  0
 11 13  1  0  0  0  0
 11 14  1  0  0  0  0
  9 10  1  0  0  0  0
  9 11  1  0  0  0  0
  9 22  1  0  0  0  0
  7  8  1  0  0  0  0
  7  9  1  0  0  0  0
 26 27  1  0  0  0  0
 26 28  1  0  0  0  0
 26 29  1  0  0  0  0
 24 25  1  0  0  0  0
 24 26  1  0  0  0  0
M  END
$$$$
default_name
  -OEChem-02102213163D

 29 28  0     1  0  0  0  0  0999 V2000
   -3.3998   -3.6239    1.3678 H   0  0  0  0  0  0  0  0  0  0  0  0
   -3.3608   -2.6749    0.8348 C   0  0  0  0  0  0  0  0  0  0  0  0
   -4.0988   -1.9909    1.2498 H   0  0  0  0  0  0  0  0  0  0  0  0
   -3.5618   -2.8419   -0.2222 H   0  0  0  0  0  0  0  0  0  0  0  0
   -1.9818   -2.0809    0.9918 C   0  0  0  0  0  0  0  0  0  0  0  0
   -1.1288   -2.6669    1.6468 O   0  0  0  0  0  0  0  0  0  0  0  0
   -1.7648   -0.9089    0.3998 N   0  0  0  0  0  0  0  0  0  0  0  0
   -2.5238   -0.4719   -0.1032 H   0  0  0  0  0  0  0  0  0  0  0  0
   -0.4848   -0.1959    0.4138 C   0  0  1  0  0  0  0  0  0  0  0  0
    0.2783   -0.8411   -0.0248 H   0  0  0  0  0  0  0  0  0  0  0  0
   -0.6101    1.0666   -0.4611 C   0  0  0  0  0  0  0  0  0  0  0  0
   -1.5153    0.9771   -1.0654 H   0  0  0  0  0  0  0  0  0  0  0  0
   -0.7165    1.9391    0.1853 H   0  0  0  0  0  0  0  0  0  0  0  0
    0.5835    1.2902   -1.4059 C   0  0  0  0  0  0  0  0  0  0  0  0
    0.2942    1.0440   -2.4274 H   0  0  0  0  0  0  0  0  0  0  0  0
    0.8717    2.3407   -1.3693 H   0  0  0  0  0  0  0  0  0  0  0  0
    1.8038    0.4438   -1.0439 C   0  0  0  0  0  0  0  0  0  0  0  0
    1.8525   -0.2751   -0.0634 O   0  0  0  0  0  0  0  0  0  0  0  0
    2.8532    0.4877   -1.8358 N   0  0  0  0  0  0  0  0  0  0  0  0
    3.6260   -0.0885   -1.5507 H   0  0  0  0  0  0  0  0  0  0  0  0
    2.8652    1.0596   -2.6558 H   0  0  0  0  0  0  0  0  0  0  0  0
   -0.0637    0.1284    1.8555 C   0  0  0  0  0  0  0  0  0  0  0  0
    1.0918   -0.0745    2.2236 O   0  0  0  0  0  0  0  0  0  0  0  0
   -1.0024    0.6217    2.6735 N   0  0  0  0  0  0  0  0  0  0  0  0
   -1.9213    0.7848    2.2938 H   0  0  0  0  0  0  0  0  0  0  0  0
   -0.7639    0.9676    4.0741 C   0  0  0  0  0  0  0  0  0  0  0  0
    0.0520    1.6916    4.1400 H   0  0  0  0  0  0  0  0  0  0  0  0
   -1.6626    1.3984    4.5182 H   0  0  0  0  0  0  0  0  0  0  0  0
   -0.4775    0.0737    4.6309 H   0  0  0  0  0  0  0  0  0  0  0  0
  5  6  2  0  0  0  0
  5  7  1  0  0  0  0
  2  3  1  0  0  0  0
  2  4  1  0  0  0  0
  2  5  1  0  0  0  0
  1  2  1  0  0  0  0
 22 23  2  0  0  0  0
 22 24  1  0  0  0  0
 19 20  1  0  0  0  0
 19 21  1  0  0  0  0
 17 18  2  0  0  0  0
 17 19  1  0  0  0  0
 14 15  1  0  0  0  0
 14 16  1  0  0  0  0
 14 17  1  0  0  0  0
 11 12  1  0  0  0  0
 11 13  1  0  0  0  0
 11 14  1  0  0  0  0
  9 10  1  0  0  0  0
  9 11  1  0  0  0  0
  9 22  1  0  0  0  0
  7  8  1  0  0  0  0
  7  9  1  0  0  0  0
 26 27  1  0  0  0  0
 26 28  1  0  0  0  0
 26 29  1  0  0  0  0
 24 25  1  0  0  0  0
 24 26  1  0  0  0  0
M  END
$$$$
default_name
  -OEChem-02102213163D

 29 28  0     1  0  0  0  0  0999 V2000
   -3.3998   -3.6239    1.3678 H   0  0  0  0  0  0  0  0  0  0  0  0
   -3.3608   -2.6749    0.8348 C   0  0  0  0  0  0  0  0  0  0  0  0
   -4.0988   -1.9909    1.2498 H   0  0  0  0  0  0  0  0  0  0  0  0
   -3.5618   -2.8419   -0.2222 H   0  0  0  0  0  0  0  0  0  0  0  0
   -1.9818   -2.0809    0.9918 C   0  0  0  0  0  0  0  0  0  0  0  0
   -1.1288   -2.6669    1.6468 O   0  0  0  0  0  0  0  0  0  0  0  0
   -1.7648   -0.9089    0.3998 N   0  0  0  0  0  0  0  0  0  0  0  0
   -2.5238   -0.4719   -0.1032 H   0  0  0  0  0  0  0  0  0  0  0  0
   -0.4848   -0.1959    0.4138 C   0  0  1  0  0  0  0  0  0  0  0  0
    0.2783   -0.8411   -0.0248 H   0  0  0  0  0  0  0  0  0  0  0  0
   -0.6101    1.0666   -0.4611 C   0  0  0  0  0  0  0  0  0  0  0  0
   -1.5153    0.9771   -1.0654 H   0  0  0  0  0  0  0  0  0  0  0  0
   -0.7165    1.9391    0.1853 H   0  0  0  0  0  0  0  0  0  0  0  0
    0.5835    1.2902   -1.4059 C   0  0  0  0  0  0  0  0  0  0  0  0
    0.2362    1.3053   -2.4388 H   0  0  0  0  0  0  0  0  0  0  0  0
    1.0396    2.2535   -1.1779 H   0  0  0  0  0  0  0  0  0  0  0  0
    1.6572    0.2090   -1.2846 C   0  0  0  0  0  0  0  0  0  0  0  0
    1.6092   -0.6933   -0.4697 O   0  0  0  0  0  0  0  0  0  0  0  0
    2.6826    0.2501   -2.1075 N   0  0  0  0  0  0  0  0  0  0  0  0
    3.3572   -0.4849   -1.9841 H   0  0  0  0  0  0  0  0  0  0  0  0
    2.7700    0.9682   -2.7977 H   0  0  0  0  0  0  0  0  0  0  0  0
   -0.0637    0.1284    1.8555 C   0  0  0  0  0  0  0  0  0  0  0  0
    1.0918   -0.0745    2.2236 O   0  0  0  0  0  0  0  0  0  0  0  0
   -1.0024    0.6217    2.6735 N   0  0  0  0  0  0  0  0  0  0  0  0
   -1.9213    0.7848    2.2938 H   0  0  0  0  0  0  0  0  0  0  0  0
   -0.7639    0.9676    4.0741 C   0  0  0  0  0  0  0  0  0  0  0  0
    0.0520    1.6916    4.1400 H   0  0  0  0  0  0  0  0  0  0  0  0
   -1.6626    1.3984    4.5182 H   0  0  0  0  0  0  0  0  0  0  0  0
   -0.4775    0.0737    4.6309 H   0  0  0  0  0  0  0  0  0  0  0  0
  5  6  2  0  0  0  0
  5  7  1  0  0  0  0
  2  3  1  0  0  0  0
  2  4  1  0  0  0  0
  2  5  1  0  0  0  0
  1  2  1  0  0  0  0
 22 23  2  0  0  0  0
 22 24  1  0  0  0  0
 19 20  1  0  0  0  0
 19 21  1  0  0  0  0
 17 18  2  0  0  0  0
 17 19  1  0  0  0  0
 14 15  1  0  0  0  0
 14 16  1  0  0  0  0
 14 17  1  0  0  0  0
 11 12  1  0  0  0  0
 11 13  1  0  0  0  0
 11 14  1  0  0  0  0
  9 10  1  0  0  0  0
  9 11  1  0  0  0  0
  9 22  1  0  0  0  0
  7  8  1  0  0  0  0
  7  9  1  0  0  0  0
 26 27  1  0  0  0  0
 26 28  1  0  0  0  0
 26 29  1  0  0  0  0
 24 25  1  0  0  0  0
 24 26  1  0  0  0  0
M  END
$$$$
default_name
  -OEChem-02102213163D

 29 28  0     1  0  0  0  0  0999 V2000
   -3.3998   -3.6239    1.3678 H   0  0  0  0  0  0  0  0  0  0  0  0
   -3.3608   -2.6749    0.8348 C   0  0  0  0  0  0  0  0  0  0  0  0
   -4.0988   -1.9909    1.2498 H   0  0  0  0  0  0  0  0  0  0  0  0
   -3.5618   -2.8419   -0.2222 H   0  0  0  0  0  0  0  0  0  0  0  0
   -1.9818   -2.0809    0.9918 C   0  0  0  0  0  0  0  0  0  0  0  0
   -1.1288   -2.6669    1.6468 O   0  0  0  0  0  0  0  0  0  0  0  0
   -1.7648   -0.9089    0.3998 N   0  0  0  0  0  0  0  0  0  0  0  0
   -2.5238   -0.4719   -0.1032 H   0  0  0  0  0  0  0  0  0  0  0  0
   -0.4848   -0.1959    0.4138 C   0  0  1  0  0  0  0  0  0  0  0  0
    0.2783   -0.8411   -0.0248 H   0  0  0  0  0  0  0  0  0  0  0  0
   -0.6101    1.0666   -0.4611 C   0  0  0  0  0  0  0  0  0  0  0  0
   -1.5153    0.9771   -1.0654 H   0  0  0  0  0  0  0  0  0  0  0  0
   -0.7165    1.9391    0.1853 H   0  0  0  0  0  0  0  0  0  0  0  0
    0.5835    1.2902   -1.4059 C   0  0  0  0  0  0  0  0  0  0  0  0
    0.2213    1.5691   -2.3952 H   0  0  0  0  0  0  0  0  0  0  0  0
    1.1951    2.1041   -1.0168 H   0  0  0  0  0  0  0  0  0  0  0  0
    1.4693    0.0538   -1.5588 C   0  0  0  0  0  0  0  0  0  0  0  0
    1.2924   -0.9771   -0.9371 O   0  0  0  0  0  0  0  0  0  0  0  0
    2.4698    0.1022   -2.4113 N   0  0  0  0  0  0  0  0  0  0  0  0
    3.0183   -0.7380   -2.4721 H   0  0  0  0  0  0  0  0  0  0  0  0
    2.6582    0.9235   -2.9495 H   0  0  0  0  0  0  0  0  0  0  0  0
   -0.0637    0.1284    1.8555 C   0  0  0  0  0  0  0  0  0  0  0  0
    1.0918   -0.0745    2.2236 O   0  0  0  0  0  0  0  0  0  0  0  0
   -1.0024    0.6217    2.6735 N   0  0  0  0  0  0  0  0  0  0  0  0
   -1.9213    0.7848    2.2938 H   0  0  0  0  0  0  0  0  0  0  0  0
   -0.7639    0.9676    4.0741 C   0  0  0  0  0  0  0  0  0  0  0  0
    0.0520    1.6916    4.1400 H   0  0  0  0  0  0  0  0  0  0  0  0
   -1.6626    1.3984    4.5182 H   0  0  0  0  0  0  0  0  0  0  0  0
   -0.4775    0.0737    4.6309 H   0  0  0  0  0  0  0  0  0  0  0  0
  5  6  2  0  0  0  0
  5  7  1  0  0  0  0
  2  3  1  0  0  0  0
  2  4  1  0  0  0  0
  2  5  1  0  0  0  0
  1  2  1  0  0  0  0
 22 23  2  0  0  0  0
 22 24  1  0  0  0  0
 19 20  1  0  0  0  0
 19 21  1  0  0  0  0
 17 18  2  0  0  0  0
 17 19  1  0  0  0  0
 14 15  1  0  0  0  0
 14 16  1  0  0  0  0
 14 17  1  0  0  0  0
 11 12  1  0  0  0  0
 11 13  1  0  0  0  0
 11 14  1  0  0  0  0
  9 10  1  0  0  0  0
  9 11  1  0  0  0  0
  9 22  1  0  0  0  0
  7  8  1  0  0  0  0
  7  9  1  0  0  0  0
 26 27  1  0  0  0  0
 26 28  1  0  0  0  0
 26 29  1  0  0  0  0
 24 25  1  0  0  0  0
 24 26  1  0  0  0  0
M  END
$$$$
default_name
  -OEChem-02102213163D

 29 28  0     1  0  0  0  0  0999 V2000
   -3.3998   -3.6239    1.3678 H   0  0  0  0  0  0  0  0  0  0  0  0
   -3.3608   -2.6749    0.8348 C   0  0  0  0  0  0  0  0  0  0  0  0
   -4.0988   -1.9909    1.2498 H   0  0  0  0  0  0  0  0  0  0  0  0
   -3.5618   -2.8419   -0.2222 H   0  0  0  0  0  0  0  0  0  0  0  0
   -1.9818   -2.0809    0.9918 C   0  0  0  0  0  0  0  0  0  0  0  0
   -1.1288   -2.6669    1.6468 O   0  0  0  0  0  0  0  0  0  0  0  0
   -1.7648   -0.9089    0.3998 N   0  0  0  0  0  0  0  0  0  0  0  0
   -2.5238   -0.4719   -0.1032 H   0  0  0  0  0  0  0  0  0  0  0  0
   -0.4848   -0.1959    0.4138 C   0  0  1  0  0  0  0  0  0  0  0  0
    0.2783   -0.8411   -0.0248 H   0  0  0  0  0  0  0  0  0  0  0  0
   -0.6101    1.0666   -0.4611 C   0  0  0  0  0  0  0  0  0  0  0  0
   -1.5153    0.9771   -1.0654 H   0  0  0  0  0  0  0  0  0  0  0  0
   -0.7165    1.9391    0.1853 H   0  0  0  0  0  0  0  0  0  0  0  0
    0.5835    1.2902   -1.4059 C   0  0  0  0  0  0  0  0  0  0  0  0
    0.2505    1.8176   -2.2996 H   0  0  0  0  0  0  0  0  0  0  0  0
    1.3276    1.9028   -0.8970 H   0  0  0  0  0  0  0  0  0  0  0  0
    1.2527   -0.0112   -1.8477 C   0  0  0  0  0  0  0  0  0  0  0  0
    0.9237   -1.1070   -1.4335 O   0  0  0  0  0  0  0  0  0  0  0  0
    2.2294    0.0541   -2.7264 N   0  0  0  0  0  0  0  0  0  0  0  0
    2.6324   -0.8307   -2.9816 H   0  0  0  0  0  0  0  0  0  0  0  0
    2.5373    0.9285   -3.1010 H   0  0  0  0  0  0  0  0  0  0  0  0
   -0.0637    0.1284    1.8555 C   0  0  0  0  0  0  0  0  0  0  0  0
    1.0918   -0.0745    2.2236 O   0  0  0  0  0  0  0  0  0  0  0  0
   -1.0024    0.6217    2.6735 N   0  0  0  0  0  0  0  0  0  0  0  0
   -1.9213    0.7848    2.2938 H   0  0  0  0  0  0  0  0  0  0  0  0
   -0.7639    0.9676    4.0741 C   0  0  0  0  0  0  0  0  0  0  0  0
    0.0520    1.6916    4.1400 H   0  0  0  0  0  0  0  0  0  0  0  0
   -1.6626    1.3984    4.5182 H   0  0  0  0  0  0  0  0  0  0  0  0
   -0.4775    0.0737    4.6309 H   0  0  0  0  0  0  0  0  0  0  0  0
  5  6  2  0  0  0  0
  5  7  1  0  0  0  0
  2  3  1  0  0  0  0
  2  4  1  0  0  0  0
  2  5  1  0  0  0  0
  1  2  1  0  0  0  0
 22 23  2  0  0  0  0
 22 24  1  0  0  0  0
 19 20  1  0  0  0  0
 19 21  1  0  0  0  0
 17 18  2  0  0  0  0
 17 19  1  0  0  0  0
 14 15  1  0  0  0  0
 14 16  1  0  0  0  0
 14 17  1  0  0  0  0
 11 12  1  0  0  0  0
 11 13  1  0  0  0  0
 11 14  1  0  0  0  0
  9 10  1  0  0  0  0
  9 11  1  0  0  0  0
  9 22  1  0  0  0  0
  7  8  1  0  0  0  0
  7  9  1  0  0  0  0
 26 27  1  0  0  0  0
 26 28  1  0  0  0  0
 26 29  1  0  0  0  0
 24 25  1  0  0  0  0
 24 26  1  0  0  0  0
M  END
$$$$
default_name
  -OEChem-02102213163D

 29 28  0     1  0  0  0  0  0999 V2000
   -3.3998   -3.6239    1.3678 H   0  0  0  0  0  0  0  0  0  0  0  0
   -3.3608   -2.6749    0.8348 C   0  0  0  0  0  0  0  0  0  0  0  0
   -4.0988   -1.9909    1.2498 H   0  0  0  0  0  0  0  0  0  0  0  0
   -3.5618   -2.8419   -0.2222 H   0  0  0  0  0  0  0  0  0  0  0  0
   -1.9818   -2.0809    0.9918 C   0  0  0  0  0  0  0  0  0  0  0  0
   -1.1288   -2.6669    1.6468 O   0  0  0  0  0  0  0  0  0  0  0  0
   -1.7648   -0.9089    0.3998 N   0  0  0  0  0  0  0  0  0  0  0  0
   -2.5238   -0.4719   -0.1032 H   0  0  0  0  0  0  0  0  0  0  0  0
   -0.4848   -0.1959    0.4138 C   0  0  1  0  0  0  0  0  0  0  0  0
    0.2783   -0.8411   -0.0248 H   0  0  0  0  0  0  0  0  0  0  0  0
   -0.6101    1.0666   -0.4611 C   0  0  0  0  0  0  0  0  0  0  0  0
   -1.5153    0.9771   -1.0654 H   0  0  0  0  0  0  0  0  0  0  0  0
   -0.7165    1.9391    0.1853 H   0  0  0  0  0  0  0  0  0  0  0  0
    0.5835    1.2902   -1.4059 C   0  0  0  0  0  0  0  0  0  0  0  0
    0.3218    2.0338   -2.1584 H   0  0  0  0  0  0  0  0  0  0  0  0
    1.4281    1.6632   -0.8267 H   0  0  0  0  0  0  0  0  0  0  0  0
    1.0224    0.0185   -2.1317 C   0  0  0  0  0  0  0  0  0  0  0  0
    0.5283   -1.0742   -1.9253 O   0  0  0  0  0  0  0  0  0  0  0  0
    1.9776    0.1092   -3.0314 N   0  0  0  0  0  0  0  0  0  0  0  0
    2.2257   -0.7566   -3.4779 H   0  0  0  0  0  0  0  0  0  0  0  0
    2.4157    0.9831   -3.2417 H   0  0  0  0  0  0  0  0  0  0  0  0
   -0.0637    0.1284    1.8555 C   0  0  0  0  0  0  0  0  0  0  0  0
    1.0918   -0.0745    2.2236 O   0  0  0  0  0  0  0  0  0  0  0  0
   -1.0024    0.6217    2.6735 N   0  0  0  0  0  0  0  0  0  0  0  0
   -1.9213    0.7848    2.2938 H   0  0  0  0  0  0  0  0  0  0  0  0
   -0.7639    0.9676    4.0741 C   0  0  0  0  0  0  0  0  0  0  0  0
    0.0520    1.6916    4.1400 H   0  0  0  0  0  0  0  0  0  0  0  0
   -1.6626    1.3984    4.5182 H   0  0  0  0  0  0  0  0  0  0  0  0
   -0.4775    0.0737    4.6309 H   0  0  0  0  0  0  0  0  0  0  0  0
  5  6  2  0  0  0  0
  5  7  1  0  0  0  0
  2  3  1  0  0  0  0
  2  4  1  0  0  0  0
  2  5  1  0  0  0  0
  1  2  1  0  0  0  0
 22 23  2  0  0  0  0
 22 24  1  0  0  0  0
 19 20  1  0  0  0  0
 19 21  1  0  0  0  0
 17 18  2  0  0  0  0
 17 19  1  0  0  0  0
 14 15  1  0  0  0  0
 14 16  1  0  0  0  0
 14 17  1  0  0  0  0
 11 12  1  0  0  0  0
 11 13  1  0  0  0  0
 11 14  1  0  0  0  0
  9 10  1  0  0  0  0
  9 11  1  0  0  0  0
  9 22  1  0  0  0  0
  7  8  1  0  0  0  0
  7  9  1  0  0  0  0
 26 27  1  0  0  0  0
 26 28  1  0  0  0  0
 26 29  1  0  0  0  0
 24 25  1  0  0  0  0
 24 26  1  0  0  0  0
M  END
$$$$
default_name
  -OEChem-02102213163D

 29 28  0     1  0  0  0  0  0999 V2000
   -3.3998   -3.6239    1.3678 H   0  0  0  0  0  0  0  0  0  0  0  0
   -3.3608   -2.6749    0.8348 C   0  0  0  0  0  0  0  0  0  0  0  0
   -4.0988   -1.9909    1.2498 H   0  0  0  0  0  0  0  0  0  0  0  0
   -3.5618   -2.8419   -0.2222 H   0  0  0  0  0  0  0  0  0  0  0  0
   -1.9818   -2.0809    0.9918 C   0  0  0  0  0  0  0  0  0  0  0  0
   -1.1288   -2.6669    1.6468 O   0  0  0  0  0  0  0  0  0  0  0  0
   -1.7648   -0.9089    0.3998 N   0  0  0  0  0  0  0  0  0  0  0  0
   -2.5238   -0.4719   -0.1032 H   0  0  0  0  0  0  0  0  0  0  0  0
   -0.4848   -0.1959    0.4138 C   0  0  1  0  0  0  0  0  0  0  0  0
    0.2783   -0.8411   -0.0248 H   0  0  0  0  0  0  0  0  0  0  0  0
   -0.6101    1.0666   -0.4611 C   0  0  0  0  0  0  0  0  0  0  0  0
   -1.5153    0.9771   -1.0654 H   0  0  0  0  0  0  0  0  0  0  0  0
   -0.7165    1.9391    0.1853 H   0  0  0  0  0  0  0  0  0  0  0  0
    0.5835    1.2902   -1.4059 C   0  0  0  0  0  0  0  0  0  0  0  0
    0.4303    2.2030   -1.9813 H   0  0  0  0  0  0  0  0  0  0  0  0
    1.4897    1.4017   -0.8108 H   0  0  0  0  0  0  0  0  0  0  0  0
    0.7939    0.1407   -2.3914 C   0  0  0  0  0  0  0  0  0  0  0  0
    0.1331   -0.8809   -2.3788 O   0  0  0  0  0  0  0  0  0  0  0  0
    1.7317    0.2637   -3.3055 N   0  0  0  0  0  0  0  0  0  0  0  0
    1.8259   -0.5207   -3.9270 H   0  0  0  0  0  0  0  0  0  0  0  0
    2.3016    1.0833   -3.3621 H   0  0  0  0  0  0  0  0  0  0  0  0
   -0.0637    0.1284    1.8555 C   0  0  0  0  0  0  0  0  0  0  0  0
    1.0918   -0.0745    2.2236 O   0  0  0  0  0  0  0  0  0  0  0  0
   -1.0024    0.6217    2.6735 N   0  0  0  0  0  0  0  0  0  0  0  0
   -1.9213    0.7848    2.2938 H   0  0  0  0  0  0  0  0  0  0  0  0
   -0.7639    0.9676    4.0741 C   0  0  0  0  0  0  0  0  0  0  0  0
    0.0520    1.6916    4.1400 H   0  0  0  0  0  0  0  0  0  0  0  0
   -1.6626    1.3984    4.5182 H   0  0  0  0  0  0  0  0  0  0  0  0
   -0.4775    0.0737    4.6309 H   0  0  0  0  0  0  0  0  0  0  0  0
  5  6  2  0  0  0  0
  5  7  1  0  0  0  0
  2  3  1  0  0  0  0
  2  4  1  0  0  0  0
  2  5  1  0  0  0  0
  1  2  1  0  0  0  0
 22 23  2  0  0  0  0
 22 24  1  0  0  0  0
 19 20  1  0  0  0  0
 19 21  1  0  0  0  0
 17 18  2  0  0  0  0
 17 19  1  0  0  0  0
 14 15  1  0  0  0  0
 14 16  1  0  0  0  0
 14 17  1  0  0  0  0
 11 12  1  0  0  0  0
 11 13  1  0  0  0  0
 11 14  1  0  0  0  0
  9 10  1  0  0  0  0
  9 11  1  0  0  0  0
  9 22  1  0  0  0  0
  7  8  1  0  0  0  0
  7  9  1  0  0  0  0
 26 27  1  0  0  0  0
 26 28  1  0  0  0  0
 26 29  1  0  0  0  0
 24 25  1  0  0  0  0
 24 26  1  0  0  0  0
M  END
$$$$
default_name
  -OEChem-02102213163D

 29 28  0     1  0  0  0  0  0999 V2000
   -3.3998   -3.6239    1.3678 H   0  0  0  0  0  0  0  0  0  0  0  0
   -3.3608   -2.6749    0.8348 C   0  0  0  0  0  0  0  0  0  0  0  0
   -4.0988   -1.9909    1.2498 H   0  0  0  0  0  0  0  0  0  0  0  0
   -3.5618   -2.8419   -0.2222 H   0  0  0  0  0  0  0  0  0  0  0  0
   -1.9818   -2.0809    0.9918 C   0  0  0  0  0  0  0  0  0  0  0  0
   -1.1288   -2.6669    1.6468 O   0  0  0  0  0  0  0  0  0  0  0  0
   -1.7648   -0.9089    0.3998 N   0  0  0  0  0  0  0  0  0  0  0  0
   -2.5238   -0.4719   -0.1032 H   0  0  0  0  0  0  0  0  0  0  0  0
   -0.4848   -0.1959    0.4138 C   0  0  1  0  0  0  0  0  0  0  0  0
    0.2783   -0.8411   -0.0248 H   0  0  0  0  0  0  0  0  0  0  0  0
   -0.6101    1.0666   -0.4611 C   0  0  0  0  0  0  0  0  0  0  0  0
   -1.5153    0.9771   -1.0654 H   0  0  0  0  0  0  0  0  0  0  0  0
   -0.7165    1.9391    0.1853 H   0  0  0  0  0  0  0  0  0  0  0  0
    0.5835    1.2902   -1.4059 C   0  0  0  0  0  0  0  0  0  0  0  0
    0.5686    2.3135   -1.7803 H   0  0  0  0  0  0  0  0  0  0  0  0
    1.5083    1.1361   -0.8501 H   0  0  0  0  0  0  0  0  0  0  0  0
    0.5829    0.3473   -2.6091 C   0  0  0  0  0  0  0  0  0  0  0  0
   -0.2349   -0.5404   -2.7632 O   0  0  0  0  0  0  0  0  0  0  0  0
    1.5085    0.5070   -3.5300 N   0  0  0  0  0  0  0  0  0  0  0  0
    1.4604   -0.1391   -4.2985 H   0  0  0  0  0  0  0  0  0  0  0  0
    2.2028    1.2224   -3.4540 H   0  0  0  0  0  0  0  0  0  0  0  0
   -0.0637    0.1284    1.8555 C   0  0  0  0  0  0  0  0  0  0  0  0
    1.0918   -0.0745    2.2236 O   0  0  0  0  0  0  0  0  0  0  0  0
   -1.0024    0.6217    2.6735 N   0  0  0  0  0  0  0  0  0  0  0  0
   -1.9213    0.7848    2.2938 H   0  0  0  0  0  0  0  0  0  0  0  0
   -0.7639    0.9676    4.0741 C   0  0  0  0  0  0  0  0  0  0  0  0
    0.0520    1.6916    4.1400 H   0  0  0  0  0  0  0  0  0  0  0  0
   -1.6626    1.3984    4.5182 H   0  0  0  0  0  0  0  0  0  0  0  0
   -0.4775    0.0737    4.6309 H   0  0  0  0  0  0  0  0  0  0  0  0
  5  6  2  0  0  0  0
  5  7  1  0  0  0  0
  2  3  1  0  0  0  0
  2  4  1  0  0  0  0
  2  5  1  0  0  0  0
  1  2  1  0  0  0  0
 22 23  2  0  0  0  0
 22 24  1  0  0  0  0
 19 20  1  0  0  0  0
 19 21  1  0  0  0  0
 17 18  2  0  0  0  0
 17 19  1  0  0  0  0
 14 15  1  0  0  0  0
 14 16  1  0  0  0  0
 14 17  1  0  0  0  0
 11 12  1  0  0  0  0
 11 13  1  0  0  0  0
 11 14  1  0  0  0  0
  9 10  1  0  0  0  0
  9 11  1  0  0  0  0
  9 22  1  0  0  0  0
  7  8  1  0  0  0  0
  7  9  1  0  0  0  0
 26 27  1  0  0  0  0
 26 28  1  0  0  0  0
 26 29  1  0  0  0  0
 24 25  1  0  0  0  0
 24 26  1  0  0  0  0
M  END
$$$$
default_name
  -OEChem-02102213163D

 29 28  0     1  0  0  0  0  0999 V2000
   -3.3998   -3.6239    1.3678 H   0  0  0  0  0  0  0  0  0  0  0  0
   -3.3608   -2.6749    0.8348 C   0  0  0  0  0  0  0  0  0  0  0  0
   -4.0988   -1.9909    1.2498 H   0  0  0  0  0  0  0  0  0  0  0  0
   -3.5618   -2.8419   -0.2222 H   0  0  0  0  0  0  0  0  0  0  0  0
   -1.9818   -2.0809    0.9918 C   0  0  0  0  0  0  0  0  0  0  0  0
   -1.1288   -2.6669    1.6468 O   0  0  0  0  0  0  0  0  0  0  0  0
   -1.7648   -0.9089    0.3998 N   0  0  0  0  0  0  0  0  0  0  0  0
   -2.5238   -0.4719   -0.1032 H   0  0  0  0  0  0  0  0  0  0  0  0
   -0.4848   -0.1959    0.4138 C   0  0  1  0  0  0  0  0  0  0  0  0
    0.2783   -0.8411   -0.0248 H   0  0  0  0  0  0  0  0  0  0  0  0
   -0.6101    1.0666   -0.4611 C   0  0  0  0  0  0  0  0  0  0  0  0
   -1.5153    0.9771   -1.0654 H   0  0  0  0  0  0  0  0  0  0  0  0
   -0.7165    1.9391    0.1853 H   0  0  0  0  0  0  0  0  0  0  0  0
    0.5835    1.2902   -1.4059 C   0  0  0  0  0  0  0  0  0  0  0  0
    0.7274    2.3580   -1.5692 H   0  0  0  0  0  0  0  0  0  0  0  0
    1.4825    0.8845   -0.9422 H   0  0  0  0  0  0  0  0  0  0  0  0
    0.4037    0.6241   -2.7700 C   0  0  0  0  0  0  0  0  0  0  0  0
   -0.5508   -0.0757   -3.0523 O   0  0  0  0  0  0  0  0  0  0  0  0
    1.3231    0.8226   -3.6895 N   0  0  0  0  0  0  0  0  0  0  0  0
    1.1541    0.3621   -4.5670 H   0  0  0  0  0  0  0  0  0  0  0  0
    2.1261    1.3910   -3.5111 H   0  0  0  0  0  0  0  0  0  0  0  0
   -0.0637    0.1284    1.8555 C   0  0  0  0  0  0  0  0  0  0  0  0
    1.0918   -0.0745    2.2236 O   0  0  0  0  0  0  0  0  0  0  0  0
   -1.0024    0.6217    2.6735 N   0  0  0  0  0  0  0  0  0  0  0  0
   -1.9213    0.7848    2.2938 H   0  0  0  0  0  0  0  0  0  0  0  0
   -0.7639    0.9676    4.0741 C   0  0  0  0  0  0  0  0  0  0  0  0
    0.0520    1.6916    4.1400 H   0  0  0  0  0  0  0  0  0  0  0  0
   -1.6626    1.3984    4.5182 H   0  0  0  0  0  0  0  0  0  0  0  0
   -0.4775    0.0737    4.6309 H   0  0  0  0  0  0  0  0  0  0  0  0
  5  6  2  0  0  0  0
  5  7  1  0  0  0  0
  2  3  1  0  0  0  0
  2  4  1  0  0  0  0
  2  5  1  0  0  0  0
  1  2  1  0  0  0  0
 22 23  2  0  0  0  0
 22 24  1  0  0  0  0
 19 20  1  0  0  0  0
 19 21  1  0  0  0  0
 17 18  2  0  0  0  0
 17 19  1  0  0  0  0
 14 15  1  0  0  0  0
 14 16  1  0  0  0  0
 14 17  1  0  0  0  0
 11 12  1  0  0  0  0
 11 13  1  0  0  0  0
 11 14  1  0  0  0  0
  9 10  1  0  0  0  0
  9 11  1  0  0  0  0
  9 22  1  0  0  0  0
  7  8  1  0  0  0  0
  7  9  1  0  0  0  0
 26 27  1  0  0  0  0
 26 28  1  0  0  0  0
 26 29  1  0  0  0  0
 24 25  1  0  0  0  0
 24 26  1  0  0  0  0
M  END
$$$$
default_name
  -OEChem-02102213163D

 29 28  0     1  0  0  0  0  0999 V2000
   -3.3998   -3.6239    1.3678 H   0  0  0  0  0  0  0  0  0  0  0  0
   -3.3608   -2.6749    0.8348 C   0  0  0  0  0  0  0  0  0  0  0  0
   -4.0988   -1.9909    1.2498 H   0  0  0  0  0  0  0  0  0  0  0  0
   -3.5618   -2.8419   -0.2222 H   0  0  0  0  0  0  0  0  0  0  0  0
   -1.9818   -2.0809    0.9918 C   0  0  0  0  0  0  0  0  0  0  0  0
   -1.1288   -2.6669    1.6468 O   0  0  0  0  0  0  0  0  0  0  0  0
   -1.7648   -0.9089    0.3998 N   0  0  0  0  0  0  0  0  0  0  0  0
   -2.5238   -0.4719   -0.1032 H   0  0  0  0  0  0  0  0  0  0  0  0
   -0.4848   -0.1959    0.4138 C   0  0  1  0  0  0  0  0  0  0  0  0
    0.2783   -0.8411   -0.0248 H   0  0  0  0  0  0  0  0  0  0  0  0
   -0.6101    1.0666   -0.4611 C   0  0  0  0  0  0  0  0  0  0  0  0
   -1.5153    0.9771   -1.0654 H   0  0  0  0  0  0  0  0  0  0  0  0
   -0.7165    1.9391    0.1853 H   0  0  0  0  0  0  0  0  0  0  0  0
    0.5835    1.2902   -1.4059 C   0  0  0  0  0  0  0  0  0  0  0  0
    0.8958    2.3333   -1.3623 H   0  0  0  0  0  0  0  0  0  0  0  0
    1.4142    0.6641   -1.0806 H   0  0  0  0  0  0  0  0  0  0  0  0
    0.2686    0.9522   -2.8631 C   0  0  0  0  0  0  0  0  0  0  0  0
   -0.7930    0.4813   -3.2264 O   0  0  0  0  0  0  0  0  0  0  0  0
    1.1881    1.1889   -3.7734 N   0  0  0  0  0  0  0  0  0  0  0  0
    0.9277    0.9488   -4.7141 H   0  0  0  0  0  0  0  0  0  0  0  0
    2.0766    1.5774   -3.5295 H   0  0  0  0  0  0  0  0  0  0  0  0
   -0.0637    0.1284    1.8555 C   0  0  0  0  0  0  0  0  0  0  0  0
    1.0918   -0.0745    2.2236 O   0  0  0  0  0  0  0  0  0  0  0  0
   -1.0024    0.6217    2.6735 N   0  0  0  0  0  0  0  0  0  0  0  0
   -1.9213    0.7848    2.2938 H   0  0  0  0  0  0  0  0  0  0  0  0
   -0.7639    0.9676    4.0741 C   0  0  0  0  0  0  0  0  0  0  0  0
    0.0520    1.6916    4.1400 H   0  0  0  0  0  0  0  0  0  0  0  0
   -1.6626    1.3984    4.5182 H   0  0  0  0  0  0  0  0  0  0  0  0
   -0.4775    0.0737    4.6309 H   0  0  0  0  0  0  0  0  0  0  0  0
  5  6  2  0  0  0  0
  5  7  1  0  0  0  0
  2  3  1  0  0  0  0
  2  4  1  0  0  0  0
  2  5  1  0  0  0  0
  1  2  1  0  0  0  0
 22 23  2  0  0  0  0
 22 24  1  0  0  0  0
 19 20  1  0  0  0  0
 19 21  1  0  0  0  0
 17 18  2  0  0  0  0
 17 19  1  0  0  0  0
 14 15  1  0  0  0  0
 14 16  1  0  0  0  0
 14 17  1  0  0  0  0
 11 12  1  0  0  0  0
 11 13  1  0  0  0  0
 11 14  1  0  0  0  0
  9 10  1  0  0  0  0
  9 11  1  0  0  0  0
  9 22  1  0  0  0  0
  7  8  1  0  0  0  0
  7  9  1  0  0  0  0
 26 27  1  0  0  0  0
 26 28  1  0  0  0  0
 26 29  1  0  0  0  0
 24 25  1  0  0  0  0
 24 26  1  0  0  0  0
M  END
$$$$
default_name
  -OEChem-02102213163D

 29 28  0     1  0  0  0  0  0999 V2000
   -3.3998   -3.6239    1.3678 H   0  0  0  0  0  0  0  0  0  0  0  0
   -3.3608   -2.6749    0.8348 C   0  0  0  0  0  0  0  0  0  0  0  0
   -4.0988   -1.9909    1.2498 H   0  0  0  0  0  0  0  0  0  0  0  0
   -3.5618   -2.8419   -0.2222 H   0  0  0  0  0  0  0  0  0  0  0  0
   -1.9818   -2.0809    0.9918 C   0  0  0  0  0  0  0  0  0  0  0  0
   -1.1288   -2.6669    1.6468 O   0  0  0  0  0  0  0  0  0  0  0  0
   -1.7648   -0.9089    0.3998 N   0  0  0  0  0  0  0  0  0  0  0  0
   -2.5238   -0.4719   -0.1032 H   0  0  0  0  0  0  0  0  0  0  0  0
   -0.4848   -0.1959    0.4138 C   0  0  1  0  0  0  0  0  0  0  0  0
    0.2783   -0.8411   -0.0248 H   0  0  0  0  0  0  0  0  0  0  0  0
   -0.6101    1.0666   -0.4611 C   0  0  0  0  0  0  0  0  0  0  0  0
   -1.5153    0.9771   -1.0654 H   0  0  0  0  0  0  0  0  0  0  0  0
   -0.7165    1.9391    0.1853 H   0  0  0  0  0  0  0  0  0  0  0  0
    0.5835    1.2902   -1.4059 C   0  0  0  0  0  0  0  0  0  0  0  0
    1.0623    2.2412   -1.1738 H   0  0  0  0  0  0  0  0  0  0  0  0
    1.3080    0.4898   -1.2561 H   0  0  0  0  0  0  0  0  0  0  0  0
    0.1867    1.3093   -2.8820 C   0  0  0  0  0  0  0  0  0  0  0  0
   -0.9448    1.0928   -3.2736 O   0  0  0  0  0  0  0  0  0  0  0  0
    1.1128    1.5810   -3.7757 N   0  0  0  0  0  0  0  0  0  0  0  0
    0.7968    1.5811   -4.7299 H   0  0  0  0  0  0  0  0  0  0  0  0
    2.0577    1.7691   -3.5081 H   0  0  0  0  0  0  0  0  0  0  0  0
   -0.0637    0.1284    1.8555 C   0  0  0  0  0  0  0  0  0  0  0  0
    1.0918   -0.0745    2.2236 O   0  0  0  0  0  0  0  0  0  0  0  0
   -1.0024    0.6217    2.6735 N   0  0  0  0  0  0  0  0  0  0  0  0
   -1.9213    0.7848    2.2938 H   0  0  0  0  0  0  0  0  0  0  0  0
   -0.7639    0.9676    4.0741 C   0  0  0  0  0  0  0  0  0  0  0  0
    0.0520    1.6916    4.1400 H   0  0  0  0  0  0  0  0  0  0  0  0
   -1.6626    1.3984    4.5182 H   0  0  0  0  0  0  0  0  0  0  0  0
   -0.4775    0.0737    4.6309 H   0  0  0  0  0  0  0  0  0  0  0  0
  5  6  2  0  0  0  0
  5  7  1  0  0  0  0
  2  3  1  0  0  0  0
  2  4  1  0  0  0  0
  2  5  1  0  0  0  0
  1  2  1  0  0  0  0
 22 23  2  0  0  0  0
 22 24  1  0  0  0  0
 19 20  1  0  0  0  0
 19 21  1  0  0  0  0
 17 18  2  0  0  0  0
 17 19  1  0  0  0  0
 14 15  1  0  0  0  0
 14 16  1  0  0  0  0
 14 17  1  0  0  0  0
 11 12  1  0  0  0  0
 11 13  1  0  0  0  0
 11 14  1  0  0  0  0
  9 10  1  0  0  0  0
  9 11  1  0  0  0  0
  9 22  1  0  0  0  0
  7  8  1  0  0  0  0
  7  9  1  0  0  0  0
 26 27  1  0  0  0  0
 26 28  1  0  0  0  0
 26 29  1  0  0  0  0
 24 25  1  0  0  0  0
 24 26  1  0  0  0  0
M  END
$$$$
default_name
  -OEChem-02102213163D

 29 28  0     1  0  0  0  0  0999 V2000
   -3.3998   -3.6239    1.3678 H   0  0  0  0  0  0  0  0  0  0  0  0
   -3.3608   -2.6749    0.8348 C   0  0  0  0  0  0  0  0  0  0  0  0
   -4.0988   -1.9909    1.2498 H   0  0  0  0  0  0  0  0  0  0  0  0
   -3.5618   -2.8419   -0.2222 H   0  0  0  0  0  0  0  0  0  0  0  0
   -1.9818   -2.0809    0.9918 C   0  0  0  0  0  0  0  0  0  0  0  0
   -1.1288   -2.6669    1.6468 O   0  0  0  0  0  0  0  0  0  0  0  0
   -1.7648   -0.9089    0.3998 N   0  0  0  0  0  0  0  0  0  0  0  0
   -2.5238   -0.4719   -0.1032 H   0  0  0  0  0  0  0  0  0  0  0  0
   -0.4848   -0.1959    0.4138 C   0  0  1  0  0  0  0  0  0  0  0  0
    0.2783   -0.8411   -0.0248 H   0  0  0  0  0  0  0  0  0  0  0  0
   -0.6101    1.0666   -0.4611 C   0  0  0  0  0  0  0  0  0  0  0  0
   -1.5153    0.9771   -1.0654 H   0  0  0  0  0  0  0  0  0  0  0  0
   -0.7165    1.9391    0.1853 H   0  0  0  0  0  0  0  0  0  0  0  0
    0.5835    1.2902   -1.4059 C   0  0  0  0  0  0  0  0  0  0  0  0
    1.2156    2.0879   -1.0165 H   0  0  0  0  0  0  0  0  0  0  0  0
    1.1711    0.3736   -1.4565 H   0  0  0  0  0  0  0  0  0  0  0  0
    0.1636    1.6710   -2.8256 C   0  0  0  0  0  0  0  0  0  0  0  0
   -0.9962    1.7171   -3.1907 O   0  0  0  0  0  0  0  0  0  0  0  0
    1.1024    1.9722   -3.6964 N   0  0  0  0  0  0  0  0  0  0  0  0
    0.7702    2.2158   -4.6133 H   0  0  0  0  0  0  0  0  0  0  0  0
    2.0707    1.9529   -3.4481 H   0  0  0  0  0  0  0  0  0  0  0  0
   -0.0637    0.1284    1.8555 C   0  0  0  0  0  0  0  0  0  0  0  0
    1.0918   -0.0745    2.2236 O   0  0  0  0  0  0  0  0  0  0  0  0
   -1.0024    0.6217    2.6735 N   0  0  0  0  0  0  0  0  0  0  0  0
   -1.9213    0.7848    2.2938 H   0  0  0  0  0  0  0  0  0  0  0  0
   -0.7639    0.9676    4.0741 C   0  0  0  0  0  0  0  0  0  0  0  0
    0.0520    1.6916    4.1400 H   0  0  0  0  0  0  0  0  0  0  0  0
   -1.6626    1.3984    4.5182 H   0  0  0  0  0  0  0  0  0  0  0  0
   -0.4775    0.0737    4.6309 H   0  0  0  0  0  0  0  0  0  0  0  0
  5  6  2  0  0  0  0
  5  7  1  0  0  0  0
  2  3  1  0  0  0  0
  2  4  1  0  0  0  0
  2  5  1  0  0  0  0
  1  2  1  0  0  0  0
 22 23  2  0  0  0  0
 22 24  1  0  0  0  0
 19 20  1  0  0  0  0
 19 21  1  0  0  0  0
 17 18  2  0  0  0  0
 17 19  1  0  0  0  0
 14 15  1  0  0  0  0
 14 16  1  0  0  0  0
 14 17  1  0  0  0  0
 11 12  1  0  0  0  0
 11 13  1  0  0  0  0
 11 14  1  0  0  0  0
  9 10  1  0  0  0  0
  9 11  1  0  0  0  0
  9 22  1  0  0  0  0
  7  8  1  0  0  0  0
  7  9  1  0  0  0  0
 26 27  1  0  0  0  0
 26 28  1  0  0  0  0
 26 29  1  0  0  0  0
 24 25  1  0  0  0  0
 24 26  1  0  0  0  0
M  END
$$$$
default_name
  -OEChem-02102213163D

 29 28  0     1  0  0  0  0  0999 V2000
   -3.3998   -3.6239    1.3678 H   0  0  0  0  0  0  0  0  0  0  0  0
   -3.3608   -2.6749    0.8348 C   0  0  0  0  0  0  0  0  0  0  0  0
   -4.0988   -1.9909    1.2498 H   0  0  0  0  0  0  0  0  0  0  0  0
   -3.5618   -2.8419   -0.2222 H   0  0  0  0  0  0  0  0  0  0  0  0
   -1.9818   -2.0809    0.9918 C   0  0  0  0  0  0  0  0  0  0  0  0
   -1.1288   -2.6669    1.6468 O   0  0  0  0  0  0  0  0  0  0  0  0
   -1.7648   -0.9089    0.3998 N   0  0  0  0  0  0  0  0  0  0  0  0
   -2.5238   -0.4719   -0.1032 H   0  0  0  0  0  0  0  0  0  0  0  0
   -0.4848   -0.1959    0.4138 C   0  0  1  0  0  0  0  0  0  0  0  0
    0.2783   -0.8411   -0.0248 H   0  0  0  0  0  0  0  0  0  0  0  0
   -0.6101    1.0666   -0.4611 C   0  0  0  0  0  0  0  0  0  0  0  0
   -1.5153    0.9771   -1.0654 H   0  0  0  0  0  0  0  0  0  0  0  0
   -0.7165    1.9391    0.1853 H   0  0  0  0  0  0  0  0  0  0  0  0
    0.5835    1.2902   -1.4059 C   0  0  0  0  0  0  0  0  0  0  0  0
    1.3452    1.8839   -0.9010 H   0  0  0  0  0  0  0  0  0  0  0  0
    1.0128    0.3233   -1.6683 H   0  0  0  0  0  0  0  0  0  0  0  0
    0.2010    2.0128   -2.6975 C   0  0  0  0  0  0  0  0  0  0  0  0
   -0.9434    2.3116   -2.9834 O   0  0  0  0  0  0  0  0  0  0  0  0
    1.1574    2.3358   -3.5408 N   0  0  0  0  0  0  0  0  0  0  0  0
    0.8498    2.8097   -4.3723 H   0  0  0  0  0  0  0  0  0  0  0  0
    2.1148    2.1164   -3.3538 H   0  0  0  0  0  0  0  0  0  0  0  0
   -0.0637    0.1284    1.8555 C   0  0  0  0  0  0  0  0  0  0  0  0
    1.0918   -0.0745    2.2236 O   0  0  0  0  0  0  0  0  0  0  0  0
   -1.0024    0.6217    2.6735 N   0  0  0  0  0  0  0  0  0  0  0  0
   -1.9213    0.7848    2.2938 H   0  0  0  0  0  0  0  0  0  0  0  0
   -0.7639    0.9676    4.0741 C   0  0  0  0  0  0  0  0  0  0  0  0
    0.0520    1.6916    4.1400 H   0  0  0  0  0  0  0  0  0  0  0  0
   -1.6626    1.3984    4.5182 H   0  0  0  0  0  0  0  0  0  0  0  0
   -0.4775    0.0737    4.6309 H   0  0  0  0  0  0  0  0  0  0  0  0
  5  6  2  0  0  0  0
  5  7  1  0  0  0  0
  2  3  1  0  0  0  0
  2  4  1  0  0  0  0
  2  5  1  0  0  0  0
  1  2  1  0  0  0  0
 22 23  2  0  0  0  0
 22 24  1  0  0  0  0
 19 20  1  0  0  0  0
 19 21  1  0  0  0  0
 17 18  2  0  0  0  0
 17 19  1  0  0  0  0
 14 15  1  0  0  0  0
 14 16  1  0  0  0  0
 14 17  1  0  0  0  0
 11 12  1  0  0  0  0
 11 13  1  0  0  0  0
 11 14  1  0  0  0  0
  9 10  1  0  0  0  0
  9 11  1  0  0  0  0
  9 22  1  0  0  0  0
  7  8  1  0  0  0  0
  7  9  1  0  0  0  0
 26 27  1  0  0  0  0
 26 28  1  0  0  0  0
 26 29  1  0  0  0  0
 24 25  1  0  0  0  0
 24 26  1  0  0  0  0
M  END
$$$$
default_name
  -OEChem-02102213163D

 29 28  0     1  0  0  0  0  0999 V2000
   -3.3998   -3.6239    1.3678 H   0  0  0  0  0  0  0  0  0  0  0  0
   -3.3608   -2.6749    0.8348 C   0  0  0  0  0  0  0  0  0  0  0  0
   -4.0988   -1.9909    1.2498 H   0  0  0  0  0  0  0  0  0  0  0  0
   -3.5618   -2.8419   -0.2222 H   0  0  0  0  0  0  0  0  0  0  0  0
   -1.9818   -2.0809    0.9918 C   0  0  0  0  0  0  0  0  0  0  0  0
   -1.1288   -2.6669    1.6468 O   0  0  0  0  0  0  0  0  0  0  0  0
   -1.7648   -0.9089    0.3998 N   0  0  0  0  0  0  0  0  0  0  0  0
   -2.5238   -0.4719   -0.1032 H   0  0  0  0  0  0  0  0  0  0  0  0
   -0.4848   -0.1959    0.4138 C   0  0  1  0  0  0  0  0  0  0  0  0
    0.2783   -0.8411   -0.0248 H   0  0  0  0  0  0  0  0  0  0  0  0
   -0.6101    1.0666   -0.4611 C   0  0  0  0  0  0  0  0  0  0  0  0
   -1.5153    0.9771   -1.0654 H   0  0  0  0  0  0  0  0  0  0  0  0
   -0.7165    1.9391    0.1853 H   0  0  0  0  0  0  0  0  0  0  0  0
    0.5835    1.2902   -1.4059 C   0  0  0  0  0  0  0  0  0  0  0  0
    1.4423    1.6430   -0.8353 H   0  0  0  0  0  0  0  0  0  0  0  0
    0.8440    0.3425   -1.8771 H   0  0  0  0  0  0  0  0  0  0  0  0
    0.2962    2.3113   -2.5066 C   0  0  0  0  0  0  0  0  0  0  0  0
   -0.7901    2.8359   -2.6657 O   0  0  0  0  0  0  0  0  0  0  0  0
    1.2742    2.6471   -3.3196 N   0  0  0  0  0  0  0  0  0  0  0  0
    1.0301    3.3223   -4.0232 H   0  0  0  0  0  0  0  0  0  0  0  0
    2.1868    2.2483   -3.2315 H   0  0  0  0  0  0  0  0  0  0  0  0
   -0.0637    0.1284    1.8555 C   0  0  0  0  0  0  0  0  0  0  0  0
    1.0918   -0.0745    2.2236 O   0  0  0  0  0  0  0  0  0  0  0  0
   -1.0024    0.6217    2.6735 N   0  0  0  0  0  0  0  0  0  0  0  0
   -1.9213    0.7848    2.2938 H   0  0  0  0  0  0  0  0  0  0  0  0
   -0.7639    0.9676    4.0741 C   0  0  0  0  0  0  0  0  0  0  0  0
    0.0520    1.6916    4.1400 H   0  0  0  0  0  0  0  0  0  0  0  0
   -1.6626    1.3984    4.5182 H   0  0  0  0  0  0  0  0  0  0  0  0
   -0.4775    0.0737    4.6309 H   0  0  0  0  0  0  0  0  0  0  0  0
  5  6  2  0  0  0  0
  5  7  1  0  0  0  0
  2  3  1  0  0  0  0
  2  4  1  0  0  0  0
  2  5  1  0  0  0  0
  1  2  1  0  0  0  0
 22 23  2  0  0  0  0
 22 24  1  0  0  0  0
 19 20  1  0  0  0  0
 19 21  1  0  0  0  0
 17 18  2  0  0  0  0
 17 19  1  0  0  0  0
 14 15  1  0  0  0  0
 14 16  1  0  0  0  0
 14 17  1  0  0  0  0
 11 12  1  0  0  0  0
 11 13  1  0  0  0  0
 11 14  1  0  0  0  0
  9 10  1  0  0  0  0
  9 11  1  0  0  0  0
  9 22  1  0  0  0  0
  7  8  1  0  0  0  0
  7  9  1  0  0  0  0
 26 27  1  0  0  0  0
 26 28  1  0  0  0  0
 26 29  1  0  0  0  0
 24 25  1  0  0  0  0
 24 26  1  0  0  0  0
M  END
$$$$
default_name
  -OEChem-02102213163D

 29 28  0     1  0  0  0  0  0999 V2000
   -3.3998   -3.6239    1.3678 H   0  0  0  0  0  0  0  0  0  0  0  0
   -3.3608   -2.6749    0.8348 C   0  0  0  0  0  0  0  0  0  0  0  0
   -4.0988   -1.9909    1.2498 H   0  0  0  0  0  0  0  0  0  0  0  0
   -3.5618   -2.8419   -0.2222 H   0  0  0  0  0  0  0  0  0  0  0  0
   -1.9818   -2.0809    0.9918 C   0  0  0  0  0  0  0  0  0  0  0  0
   -1.1288   -2.6669    1.6468 O   0  0  0  0  0  0  0  0  0  0  0  0
   -1.7648   -0.9089    0.3998 N   0  0  0  0  0  0  0  0  0  0  0  0
   -2.5238   -0.4719   -0.1032 H   0  0  0  0  0  0  0  0  0  0  0  0
   -0.4848   -0.1959    0.4138 C   0  0  1  0  0  0  0  0  0  0  0  0
    0.2783   -0.8411   -0.0248 H   0  0  0  0  0  0  0  0  0  0  0  0
   -0.6101    1.0666   -0.4611 C   0  0  0  0  0  0  0  0  0  0  0  0
   -1.6267    1.1100   -0.8576 H   0  0  0  0  0  0  0  0  0  0  0  0
   -0.4486    1.9485    0.1606 H   0  0  0  0  0  0  0  0  0  0  0  0
    0.3736    1.1047   -1.6436 C   0  0  0  0  0  0  0  0  0  0  0  0
    1.3969    1.0615   -1.2713 H   0  0  0  0  0  0  0  0  0  0  0  0
    0.1971    0.2365   -2.2786 H   0  0  0  0  0  0  0  0  0  0  0  0
    0.2356    2.3630   -2.5004 C   0  0  0  0  0  0  0  0  0  0  0  0
   -0.6166    3.2108   -2.3119 O   0  0  0  0  0  0  0  0  0  0  0  0
    1.0857    2.5443   -3.4877 N   0  0  0  0  0  0  0  0  0  0  0  0
    0.9496    3.3878   -4.0172 H   0  0  0  0  0  0  0  0  0  0  0  0
    1.8069    1.8803   -3.6846 H   0  0  0  0  0  0  0  0  0  0  0  0
   -0.0637    0.1284    1.8555 C   0  0  0  0  0  0  0  0  0  0  0  0
    1.0918   -0.0745    2.2236 O   0  0  0  0  0  0  0  0  0  0  0  0
   -1.0024    0.6217    2.6735 N   0  0  0  0  0  0  0  0  0  0  0  0
   -1.9213    0.7848    2.2938 H   0  0  0  0  0  0  0  0  0  0  0  0
   -0.7639    0.9676    4.0741 C   0  0  0  0  0  0  0  0  0  0  0  0
    0.0520    1.6916    4.1400 H   0  0  0  0  0  0  0  0  0  0  0  0
   -1.6626    1.3984    4.5182 H   0  0  0  0  0  0  0  0  0  0  0  0
   -0.4775    0.0737    4.6309 H   0  0  0  0  0  0  0  0  0  0  0  0
  5  6  2  0  0  0  0
  5  7  1  0  0  0  0
  2  3  1  0  0  0  0
  2  4  1  0  0  0  0
  2  5  1  0  0  0  0
  1  2  1  0  0  0  0
 22 23  2  0  0  0  0
 22 24  1  0  0  0  0
 19 20  1  0  0  0  0
 19 21  1  0  0  0  0
 17 18  2  0  0  0  0
 17 19  1  0  0  0  0
 14 15  1  0  0  0  0
 14 16  1  0  0  0  0
 14 17  1  0  0  0  0
 11 12  1  0  0  0  0
 11 13  1  0  0  0  0
 11 14  1  0  0  0  0
  9 10  1  0  0  0  0
  9 11  1  0  0  0  0
  9 22  1  0  0  0  0
  7  8  1  0  0  0  0
  7  9  1  0  0  0  0
 26 27  1  0  0  0  0
 26 28  1  0  0  0  0
 26 29  1  0  0  0  0
 24 25  1  0  0  0  0
 24 26  1  0  0  0  0
M  END
$$$$
default_name
  -OEChem-02102213163D

 29 28  0     1  0  0  0  0  0999 V2000
   -3.3998   -3.6239    1.3678 H   0  0  0  0  0  0  0  0  0  0  0  0
   -3.3608   -2.6749    0.8348 C   0  0  0  0  0  0  0  0  0  0  0  0
   -4.0988   -1.9909    1.2498 H   0  0  0  0  0  0  0  0  0  0  0  0
   -3.5618   -2.8419   -0.2222 H   0  0  0  0  0  0  0  0  0  0  0  0
   -1.9818   -2.0809    0.9918 C   0  0  0  0  0  0  0  0  0  0  0  0
   -1.1288   -2.6669    1.6468 O   0  0  0  0  0  0  0  0  0  0  0  0
   -1.7648   -0.9089    0.3998 N   0  0  0  0  0  0  0  0  0  0  0  0
   -2.5238   -0.4719   -0.1032 H   0  0  0  0  0  0  0  0  0  0  0  0
   -0.4848   -0.1959    0.4138 C   0  0  1  0  0  0  0  0  0  0  0  0
    0.2783   -0.8411   -0.0248 H   0  0  0  0  0  0  0  0  0  0  0  0
   -0.6101    1.0666   -0.4611 C   0  0  0  0  0  0  0  0  0  0  0  0
   -1.6267    1.1100   -0.8576 H   0  0  0  0  0  0  0  0  0  0  0  0
   -0.4486    1.9485    0.1606 H   0  0  0  0  0  0  0  0  0  0  0  0
    0.3736    1.1047   -1.6436 C   0  0  0  0  0  0  0  0  0  0  0  0
    1.3638    0.7981   -1.3073 H   0  0  0  0  0  0  0  0  0  0  0  0
    0.0341    0.4066   -2.4087 H   0  0  0  0  0  0  0  0  0  0  0  0
    0.4983    2.4899   -2.2778 C   0  0  0  0  0  0  0  0  0  0  0  0
   -0.1697    3.4465   -1.9325 O   0  0  0  0  0  0  0  0  0  0  0  0
    1.3776    2.6604   -3.2412 N   0  0  0  0  0  0  0  0  0  0  0  0
    1.4179    3.5901   -3.6211 H   0  0  0  0  0  0  0  0  0  0  0  0
    1.9538    1.9086   -3.5614 H   0  0  0  0  0  0  0  0  0  0  0  0
   -0.0637    0.1284    1.8555 C   0  0  0  0  0  0  0  0  0  0  0  0
    1.0918   -0.0745    2.2236 O   0  0  0  0  0  0  0  0  0  0  0  0
   -1.0024    0.6217    2.6735 N   0  0  0  0  0  0  0  0  0  0  0  0
   -1.9213    0.7848    2.2938 H   0  0  0  0  0  0  0  0  0  0  0  0
   -0.7639    0.9676    4.0741 C   0  0  0  0  0  0  0  0  0  0  0  0
    0.0520    1.6916    4.1400 H   0  0  0  0  0  0  0  0  0  0  0  0
   -1.6626    1.3984    4.5182 H   0  0  0  0  0  0  0  0  0  0  0  0
   -0.4775    0.0737    4.6309 H   0  0  0  0  0  0  0  0  0  0  0  0
  5  6  2  0  0  0  0
  5  7  1  0  0  0  0
  2  3  1  0  0  0  0
  2  4  1  0  0  0  0
  2  5  1  0  0  0  0
  1  2  1  0  0  0  0
 22 23  2  0  0  0  0
 22 24  1  0  0  0  0
 19 20  1  0  0  0  0
 19 21  1  0  0  0  0
 17 18  2  0  0  0  0
 17 19  1  0  0  0  0
 14 15  1  0  0  0  0
 14 16  1  0  0  0  0
 14 17  1  0  0  0  0
 11 12  1  0  0  0  0
 11 13  1  0  0  0  0
 11 14  1  0  0  0  0
  9 10  1  0  0  0  0
  9 11  1  0  0  0  0
  9 22  1  0  0  0  0
  7  8  1  0  0  0  0
  7  9  1  0  0  0  0
 26 27  1  0  0  0  0
 26 28  1  0  0  0  0
 26 29  1  0  0  0  0
 24 25  1  0  0  0  0
 24 26  1  0  0  0  0
M  END
$$$$
default_name
  -OEChem-02102213163D

 29 28  0     1  0  0  0  0  0999 V2000
   -3.3998   -3.6239    1.3678 H   0  0  0  0  0  0  0  0  0  0  0  0
   -3.3608   -2.6749    0.8348 C   0  0  0  0  0  0  0  0  0  0  0  0
   -4.0988   -1.9909    1.2498 H   0  0  0  0  0  0  0  0  0  0  0  0
   -3.5618   -2.8419   -0.2222 H   0  0  0  0  0  0  0  0  0  0  0  0
   -1.9818   -2.0809    0.9918 C   0  0  0  0  0  0  0  0  0  0  0  0
   -1.1288   -2.6669    1.6468 O   0  0  0  0  0  0  0  0  0  0  0  0
   -1.7648   -0.9089    0.3998 N   0  0  0  0  0  0  0  0  0  0  0  0
   -2.5238   -0.4719   -0.1032 H   0  0  0  0  0  0  0  0  0  0  0  0
   -0.4848   -0.1959    0.4138 C   0  0  1  0  0  0  0  0  0  0  0  0
    0.2783   -0.8411   -0.0248 H   0  0  0  0  0  0  0  0  0  0  0  0
   -0.6101    1.0666   -0.4611 C   0  0  0  0  0  0  0  0  0  0  0  0
   -1.6267    1.1100   -0.8576 H   0  0  0  0  0  0  0  0  0  0  0  0
   -0.4486    1.9485    0.1606 H   0  0  0  0  0  0  0  0  0  0  0  0
    0.3736    1.1047   -1.6436 C   0  0  0  0  0  0  0  0  0  0  0  0
    1.2792    0.5562   -1.3854 H   0  0  0  0  0  0  0  0  0  0  0  0
   -0.0904    0.6248   -2.5053 H   0  0  0  0  0  0  0  0  0  0  0  0
    0.7786    2.5233   -2.0436 C   0  0  0  0  0  0  0  0  0  0  0  0
    0.3113    3.5225   -1.5299 O   0  0  0  0  0  0  0  0  0  0  0  0
    1.6841    2.6736   -2.9857 N   0  0  0  0  0  0  0  0  0  0  0  0
    1.9131    3.6268   -3.2080 H   0  0  0  0  0  0  0  0  0  0  0  0
    2.1022    1.8864   -3.4387 H   0  0  0  0  0  0  0  0  0  0  0  0
   -0.0637    0.1284    1.8555 C   0  0  0  0  0  0  0  0  0  0  0  0
    1.0918   -0.0745    2.2236 O   0  0  0  0  0  0  0  0  0  0  0  0
   -1.0024    0.6217    2.6735 N   0  0  0  0  0  0  0  0  0  0  0  0
   -1.9213    0.7848    2.2938 H   0  0  0  0  0  0  0  0  0  0  0  0
   -0.7639    0.9676    4.0741 C   0  0  0  0  0  0  0  0  0  0  0  0
    0.0520    1.6916    4.1400 H   0  0  0  0  0  0  0  0  0  0  0  0
   -1.6626    1.3984    4.5182 H   0  0  0  0  0  0  0  0  0  0  0  0
   -0.4775    0.0737    4.6309 H   0  0  0  0  0  0  0  0  0  0  0  0
  5  6  2  0  0  0  0
  5  7  1  0  0  0  0
  2  3  1  0  0  0  0
  2  4  1  0  0  0  0
  2  5  1  0  0  0  0
  1  2  1  0  0  0  0
 22 23  2  0  0  0  0
 22 24  1  0  0  0  0
 19 20  1  0  0  0  0
 19 21  1  0  0  0  0
 17 18  2  0  0  0  0
 17 19  1  0  0  0  0
 14 15  1  0  0  0  0
 14 16  1  0  0  0  0
 14 17  1  0  0  0  0
 11 12  1  0  0  0  0
 11 13  1  0  0  0  0
 11 14  1  0  0  0  0
  9 10  1  0  0  0  0
  9 11  1  0  0  0  0
  9 22  1  0  0  0  0
  7  8  1  0  0  0  0
  7  9  1  0  0  0  0
 26 27  1  0  0  0  0
 26 28  1  0  0  0  0
 26 29  1  0  0  0  0
 24 25  1  0  0  0  0
 24 26  1  0  0  0  0
M  END
$$$$
default_name
  -OEChem-02102213163D

 29 28  0     1  0  0  0  0  0999 V2000
   -3.3998   -3.6239    1.3678 H   0  0  0  0  0  0  0  0  0  0  0  0
   -3.3608   -2.6749    0.8348 C   0  0  0  0  0  0  0  0  0  0  0  0
   -4.0988   -1.9909    1.2498 H   0  0  0  0  0  0  0  0  0  0  0  0
   -3.5618   -2.8419   -0.2222 H   0  0  0  0  0  0  0  0  0  0  0  0
   -1.9818   -2.0809    0.9918 C   0  0  0  0  0  0  0  0  0  0  0  0
   -1.1288   -2.6669    1.6468 O   0  0  0  0  0  0  0  0  0  0  0  0
   -1.7648   -0.9089    0.3998 N   0  0  0  0  0  0  0  0  0  0  0  0
   -2.5238   -0.4719   -0.1032 H   0  0  0  0  0  0  0  0  0  0  0  0
   -0.4848   -0.1959    0.4138 C   0  0  1  0  0  0  0  0  0  0  0  0
    0.2783   -0.8411   -0.0248 H   0  0  0  0  0  0  0  0  0  0  0  0
   -0.6101    1.0666   -0.4611 C   0  0  0  0  0  0  0  0  0  0  0  0
   -1.6267    1.1100   -0.8576 H   0  0  0  0  0  0  0  0  0  0  0  0
   -0.4486    1.9485    0.1606 H   0  0  0  0  0  0  0  0  0  0  0  0
    0.3736    1.1047   -1.6436 C   0  0  0  0  0  0  0  0  0  0  0  0
    1.1489    0.3524   -1.5004 H   0  0  0  0  0  0  0  0  0  0  0  0
   -0.1678    0.8763   -2.5616 H   0  0  0  0  0  0  0  0  0  0  0  0
    1.0575    2.4611   -1.8135 C   0  0  0  0  0  0  0  0  0  0  0  0
    0.7936    3.4337   -1.1316 O   0  0  0  0  0  0  0  0  0  0  0  0
    1.9845    2.5832   -2.7387 N   0  0  0  0  0  0  0  0  0  0  0  0
    2.4013    3.4955   -2.8061 H   0  0  0  0  0  0  0  0  0  0  0  0
    2.2418    1.8151   -3.3248 H   0  0  0  0  0  0  0  0  0  0  0  0
   -0.0637    0.1284    1.8555 C   0  0  0  0  0  0  0  0  0  0  0  0
    1.0918   -0.0745    2.2236 O   0  0  0  0  0  0  0  0  0  0  0  0
   -1.0024    0.6217    2.6735 N   0  0  0  0  0  0  0  0  0  0  0  0
   -1.9213    0.7848    2.2938 H   0  0  0  0  0  0  0  0  0  0  0  0
   -0.7639    0.9676    4.0741 C   0  0  0  0  0  0  0  0  0  0  0  0
    0.0520    1.6916    4.1400 H   0  0  0  0  0  0  0  0  0  0  0  0
   -1.6626    1.3984    4.5182 H   0  0  0  0  0  0  0  0  0  0  0  0
   -0.4775    0.0737    4.6309 H   0  0  0  0  0  0  0  0  0  0  0  0
  5  6  2  0  0  0  0
  5  7  1  0  0  0  0
  2  3  1  0  0  0  0
  2  4  1  0  0  0  0
  2  5  1  0  0  0  0
  1  2  1  0  0  0  0
 22 23  2  0  0  0  0
 22 24  1  0  0  0  0
 19 20  1  0  0  0  0
 19 21  1  0  0  0  0
 17 18  2  0  0  0  0
 17 19  1  0  0  0  0
 14 15  1  0  0  0  0
 14 16  1  0  0  0  0
 14 17  1  0  0  0  0
 11 12  1  0  0  0  0
 11 13  1  0  0  0  0
 11 14  1  0  0  0  0
  9 10  1  0  0  0  0
  9 11  1  0  0  0  0
  9 22  1  0  0  0  0
  7  8  1  0  0  0  0
  7  9  1  0  0  0  0
 26 27  1  0  0  0  0
 26 28  1  0  0  0  0
 26 29  1  0  0  0  0
 24 25  1  0  0  0  0
 24 26  1  0  0  0  0
M  END
$$$$
default_name
  -OEChem-02102213163D

 29 28  0     1  0  0  0  0  0999 V2000
   -3.3998   -3.6239    1.3678 H   0  0  0  0  0  0  0  0  0  0  0  0
   -3.3608   -2.6749    0.8348 C   0  0  0  0  0  0  0  0  0  0  0  0
   -4.0988   -1.9909    1.2498 H   0  0  0  0  0  0  0  0  0  0  0  0
   -3.5618   -2.8419   -0.2222 H   0  0  0  0  0  0  0  0  0  0  0  0
   -1.9818   -2.0809    0.9918 C   0  0  0  0  0  0  0  0  0  0  0  0
   -1.1288   -2.6669    1.6468 O   0  0  0  0  0  0  0  0  0  0  0  0
   -1.7648   -0.9089    0.3998 N   0  0  0  0  0  0  0  0  0  0  0  0
   -2.5238   -0.4719   -0.1032 H   0  0  0  0  0  0  0  0  0  0  0  0
   -0.4848   -0.1959    0.4138 C   0  0  1  0  0  0  0  0  0  0  0  0
    0.2783   -0.8411   -0.0248 H   0  0  0  0  0  0  0  0  0  0  0  0
   -0.6101    1.0666   -0.4611 C   0  0  0  0  0  0  0  0  0  0  0  0
   -1.6267    1.1100   -0.8576 H   0  0  0  0  0  0  0  0  0  0  0  0
   -0.4486    1.9485    0.1606 H   0  0  0  0  0  0  0  0  0  0  0  0
    0.3736    1.1047   -1.6436 C   0  0  0  0  0  0  0  0  0  0  0  0
    0.9818    0.2004   -1.6443 H   0  0  0  0  0  0  0  0  0  0  0  0
   -0.1929    1.1440   -2.5739 H   0  0  0  0  0  0  0  0  0  0  0  0
    1.3160    2.3075   -1.6034 C   0  0  0  0  0  0  0  0  0  0  0  0
    1.2444    3.1860   -0.7645 O   0  0  0  0  0  0  0  0  0  0  0  0
    2.2583    2.3952   -2.5170 N   0  0  0  0  0  0  0  0  0  0  0  0
    2.8493    3.2049   -2.4427 H   0  0  0  0  0  0  0  0  0  0  0  0
    2.3633    1.6996   -3.2275 H   0  0  0  0  0  0  0  0  0  0  0  0
   -0.0637    0.1284    1.8555 C   0  0  0  0  0  0  0  0  0  0  0  0
    1.0918   -0.0745    2.2236 O   0  0  0  0  0  0  0  0  0  0  0  0
   -1.0024    0.6217    2.6735 N   0  0  0  0  0  0  0  0  0  0  0  0
   -1.9213    0.7848    2.2938 H   0  0  0  0  0  0  0  0  0  0  0  0
   -0.7639    0.9676    4.0741 C   0  0  0  0  0  0  0  0  0  0  0  0
    0.0520    1.6916    4.1400 H   0  0  0  0  0  0  0  0  0  0  0  0
   -1.6626    1.3984    4.5182 H   0  0  0  0  0  0  0  0  0  0  0  0
   -0.4775    0.0737    4.6309 H   0  0  0  0  0  0  0  0  0  0  0  0
  5  6  2  0  0  0  0
  5  7  1  0  0  0  0
  2  3  1  0  0  0  0
  2  4  1  0  0  0  0
  2  5  1  0  0  0  0
  1  2  1  0  0  0  0
 22 23  2  0  0  0  0
 22 24  1  0  0  0  0
 19 20  1  0  0  0  0
 19 21  1  0  0  0  0
 17 18  2  0  0  0  0
 17 19  1  0  0  0  0
 14 15  1  0  0  0  0
 14 16  1  0  0  0  0
 14 17  1  0  0  0  0
 11 12  1  0  0  0  0
 11 13  1  0  0  0  0
 11 14  1  0  0  0  0
  9 10  1  0  0  0  0
  9 11  1  0  0  0  0
  9 22  1  0  0  0  0
  7  8  1  0  0  0  0
  7  9  1  0  0  0  0
 26 27  1  0  0  0  0
 26 28  1  0  0  0  0
 26 29  1  0  0  0  0
 24 25  1  0  0  0  0
 24 26  1  0  0  0  0
M  END
$$$$
default_name
  -OEChem-02102213163D

 29 28  0     1  0  0  0  0  0999 V2000
   -3.3998   -3.6239    1.3678 H   0  0  0  0  0  0  0  0  0  0  0  0
   -3.3608   -2.6749    0.8348 C   0  0  0  0  0  0  0  0  0  0  0  0
   -4.0988   -1.9909    1.2498 H   0  0  0  0  0  0  0  0  0  0  0  0
   -3.5618   -2.8419   -0.2222 H   0  0  0  0  0  0  0  0  0  0  0  0
   -1.9818   -2.0809    0.9918 C   0  0  0  0  0  0  0  0  0  0  0  0
   -1.1288   -2.6669    1.6468 O   0  0  0  0  0  0  0  0  0  0  0  0
   -1.7648   -0.9089    0.3998 N   0  0  0  0  0  0  0  0  0  0  0  0
   -2.5238   -0.4719   -0.1032 H   0  0  0  0  0  0  0  0  0  0  0  0
   -0.4848   -0.1959    0.4138 C   0  0  1  0  0  0  0  0  0  0  0  0
    0.2783   -0.8411   -0.0248 H   0  0  0  0  0  0  0  0  0  0  0  0
   -0.6101    1.0666   -0.4611 C   0  0  0  0  0  0  0  0  0  0  0  0
   -1.6267    1.1100   -0.8576 H   0  0  0  0  0  0  0  0  0  0  0  0
   -0.4486    1.9485    0.1606 H   0  0  0  0  0  0  0  0  0  0  0  0
    0.3736    1.1047   -1.6436 C   0  0  0  0  0  0  0  0  0  0  0  0
    0.7892    0.1107   -1.8074 H   0  0  0  0  0  0  0  0  0  0  0  0
   -0.1641    1.4096   -2.5413 H   0  0  0  0  0  0  0  0  0  0  0  0
    1.5365    2.0729   -1.4275 C   0  0  0  0  0  0  0  0  0  0  0  0
    1.6329    2.7963   -0.4539 O   0  0  0  0  0  0  0  0  0  0  0  0
    2.4868    2.1225   -2.3357 N   0  0  0  0  0  0  0  0  0  0  0  0
    3.2266    2.7751   -2.1427 H   0  0  0  0  0  0  0  0  0  0  0  0
    2.4582    1.5477   -3.1534 H   0  0  0  0  0  0  0  0  0  0  0  0
   -0.0637    0.1284    1.8555 C   0  0  0  0  0  0  0  0  0  0  0  0
    1.0918   -0.0745    2.2236 O   0  0  0  0  0  0  0  0  0  0  0  0
   -1.0024    0.6217    2.6735 N   0  0  0  0  0  0  0  0  0  0  0  0
   -1.9213    0.7848    2.2938 H   0  0  0  0  0  0  0  0  0  0  0  0
   -0.7639    0.9676    4.0741 C   0  0  0  0  0  0  0  0  0  0  0  0
    0.0520    1.6916    4.1400 H   0  0  0  0  0  0  0  0  0  0  0  0
   -1.6626    1.3984    4.5182 H   0  0  0  0  0  0  0  0  0  0  0  0
   -0.4775    0.0737    4.6309 H   0  0  0  0  0  0  0  0  0  0  0  0
  5  6  2  0  0  0  0
  5  7  1  0  0  0  0
  2  3  1  0  0  0  0
  2  4  1  0  0  0  0
  2  5  1  0  0  0  0
  1  2  1  0  0  0  0
 22 23  2  0  0  0  0
 22 24  1  0  0  0  0
 19 20  1  0  0  0  0
 19 21  1  0  0  0  0
 17 18  2  0  0  0  0
 17 19  1  0  0  0  0
 14 15  1  0  0  0  0
 14 16  1  0  0  0  0
 14 17  1  0  0  0  0
 11 12  1  0  0  0  0
 11 13  1  0  0  0  0
 11 14  1  0  0  0  0
  9 10  1  0  0  0  0
  9 11  1  0  0  0  0
  9 22  1  0  0  0  0
  7  8  1  0  0  0  0
  7  9  1  0  0  0  0
 26 27  1  0  0  0  0
 26 28  1  0  0  0  0
 26 29  1  0  0  0  0
 24 25  1  0  0  0  0
 24 26  1  0  0  0  0
M  END
$$$$
default_name
  -OEChem-02102213163D

 29 28  0     1  0  0  0  0  0999 V2000
   -3.3998   -3.6239    1.3678 H   0  0  0  0  0  0  0  0  0  0  0  0
   -3.3608   -2.6749    0.8348 C   0  0  0  0  0  0  0  0  0  0  0  0
   -4.0988   -1.9909    1.2498 H   0  0  0  0  0  0  0  0  0  0  0  0
   -3.5618   -2.8419   -0.2222 H   0  0  0  0  0  0  0  0  0  0  0  0
   -1.9818   -2.0809    0.9918 C   0  0  0  0  0  0  0  0  0  0  0  0
   -1.1288   -2.6669    1.6468 O   0  0  0  0  0  0  0  0  0  0  0  0
   -1.7648   -0.9089    0.3998 N   0  0  0  0  0  0  0  0  0  0  0  0
   -2.5238   -0.4719   -0.1032 H   0  0  0  0  0  0  0  0  0  0  0  0
   -0.4848   -0.1959    0.4138 C   0  0  1  0  0  0  0  0  0  0  0  0
    0.2783   -0.8411   -0.0248 H   0  0  0  0  0  0  0  0  0  0  0  0
   -0.6101    1.0666   -0.4611 C   0  0  0  0  0  0  0  0  0  0  0  0
   -1.6267    1.1100   -0.8576 H   0  0  0  0  0  0  0  0  0  0  0  0
   -0.4486    1.9485    0.1606 H   0  0  0  0  0  0  0  0  0  0  0  0
    0.3736    1.1047   -1.6436 C   0  0  0  0  0  0  0  0  0  0  0  0
    0.5843    0.0893   -1.9786 H   0  0  0  0  0  0  0  0  0  0  0  0
   -0.0831    1.6550   -2.4661 H   0  0  0  0  0  0  0  0  0  0  0  0
    1.7040    1.7733   -1.2978 C   0  0  0  0  0  0  0  0  0  0  0  0
    1.9326    2.2913   -0.2208 O   0  0  0  0  0  0  0  0  0  0  0  0
    2.6543    1.7836   -2.2072 N   0  0  0  0  0  0  0  0  0  0  0  0
    3.5074    2.2351   -1.9264 H   0  0  0  0  0  0  0  0  0  0  0  0
    2.5202    1.3699   -3.1075 H   0  0  0  0  0  0  0  0  0  0  0  0
   -0.0637    0.1284    1.8555 C   0  0  0  0  0  0  0  0  0  0  0  0
    1.0918   -0.0745    2.2236 O   0  0  0  0  0  0  0  0  0  0  0  0
   -1.0024    0.6217    2.6735 N   0  0  0  0  0  0  0  0  0  0  0  0
   -1.9213    0.7848    2.2938 H   0  0  0  0  0  0  0  0  0  0  0  0
   -0.7639    0.9676    4.0741 C   0  0  0  0  0  0  0  0  0  0  0  0
    0.0520    1.6916    4.1400 H   0  0  0  0  0  0  0  0  0  0  0  0
   -1.6626    1.3984    4.5182 H   0  0  0  0  0  0  0  0  0  0  0  0
   -0.4775    0.0737    4.6309 H   0  0  0  0  0  0  0  0  0  0  0  0
  5  6  2  0  0  0  0
  5  7  1  0  0  0  0
  2  3  1  0  0  0  0
  2  4  1  0  0  0  0
  2  5  1  0  0  0  0
  1  2  1  0  0  0  0
 22 23  2  0  0  0  0
 22 24  1  0  0  0  0
 19 20  1  0  0  0  0
 19 21  1  0  0  0  0
 17 18  2  0  0  0  0
 17 19  1  0  0  0  0
 14 15  1  0  0  0  0
 14 16  1  0  0  0  0
 14 17  1  0  0  0  0
 11 12  1  0  0  0  0
 11 13  1  0  0  0  0
 11 14  1  0  0  0  0
  9 10  1  0  0  0  0
  9 11  1  0  0  0  0
  9 22  1  0  0  0  0
  7  8  1  0  0  0  0
  7  9  1  0  0  0  0
 26 27  1  0  0  0  0
 26 28  1  0  0  0  0
 26 29  1  0  0  0  0
 24 25  1  0  0  0  0
 24 26  1  0  0  0  0
M  END
$$$$
default_name
  -OEChem-02102213163D

 29 28  0     1  0  0  0  0  0999 V2000
   -3.3998   -3.6239    1.3678 H   0  0  0  0  0  0  0  0  0  0  0  0
   -3.3608   -2.6749    0.8348 C   0  0  0  0  0  0  0  0  0  0  0  0
   -4.0988   -1.9909    1.2498 H   0  0  0  0  0  0  0  0  0  0  0  0
   -3.5618   -2.8419   -0.2222 H   0  0  0  0  0  0  0  0  0  0  0  0
   -1.9818   -2.0809    0.9918 C   0  0  0  0  0  0  0  0  0  0  0  0
   -1.1288   -2.6669    1.6468 O   0  0  0  0  0  0  0  0  0  0  0  0
   -1.7648   -0.9089    0.3998 N   0  0  0  0  0  0  0  0  0  0  0  0
   -2.5238   -0.4719   -0.1032 H   0  0  0  0  0  0  0  0  0  0  0  0
   -0.4848   -0.1959    0.4138 C   0  0  1  0  0  0  0  0  0  0  0  0
    0.2783   -0.8411   -0.0248 H   0  0  0  0  0  0  0  0  0  0  0  0
   -0.6101    1.0666   -0.4611 C   0  0  0  0  0  0  0  0  0  0  0  0
   -1.6267    1.1100   -0.8576 H   0  0  0  0  0  0  0  0  0  0  0  0
   -0.4486    1.9485    0.1606 H   0  0  0  0  0  0  0  0  0  0  0  0
    0.3736    1.1047   -1.6436 C   0  0  0  0  0  0  0  0  0  0  0  0
    0.3810    0.1377   -2.1462 H   0  0  0  0  0  0  0  0  0  0  0  0
    0.0443    1.8635   -2.3534 H   0  0  0  0  0  0  0  0  0  0  0  0
    1.8070    1.4292   -1.2232 C   0  0  0  0  0  0  0  0  0  0  0  0
    2.1231    1.7053   -0.0811 O   0  0  0  0  0  0  0  0  0  0  0  0
    2.7496    1.4017   -2.1402 N   0  0  0  0  0  0  0  0  0  0  0  0
    3.6727    1.6220   -1.8086 H   0  0  0  0  0  0  0  0  0  0  0  0
    2.5450    1.1783   -3.0931 H   0  0  0  0  0  0  0  0  0  0  0  0
   -0.0637    0.1284    1.8555 C   0  0  0  0  0  0  0  0  0  0  0  0
    1.0918   -0.0745    2.2236 O   0  0  0  0  0  0  0  0  0  0  0  0
   -1.0024    0.6217    2.6735 N   0  0  0  0  0  0  0  0  0  0  0  0
   -1.9213    0.7848    2.2938 H   0  0  0  0  0  0  0  0  0  0  0  0
   -0.7639    0.9676    4.0741 C   0  0  0  0  0  0  0  0  0  0  0  0
    0.0520    1.6916    4.1400 H   0  0  0  0  0  0  0  0  0  0  0  0
   -1.6626    1.3984    4.5182 H   0  0  0  0  0  0  0  0  0  0  0  0
   -0.4775    0.0737    4.6309 H   0  0  0  0  0  0  0  0  0  0  0  0
  5  6  2  0  0  0  0
  5  7  1  0  0  0  0
  2  3  1  0  0  0  0
  2  4  1  0  0  0  0
  2  5  1  0  0  0  0
  1  2  1  0  0  0  0
 22 23  2  0  0  0  0
 22 24  1  0  0  0  0
 19 20  1  0  0  0  0
 19 21  1  0  0  0  0
 17 18  2  0  0  0  0
 17 19  1  0  0  0  0
 14 15  1  0  0  0  0
 14 16  1  0  0  0  0
 14 17  1  0  0  0  0
 11 12  1  0  0  0  0
 11 13  1  0  0  0  0
 11 14  1  0  0  0  0
  9 10  1  0  0  0  0
  9 11  1  0  0  0  0
  9 22  1  0  0  0  0
  7  8  1  0  0  0  0
  7  9  1  0  0  0  0
 26 27  1  0  0  0  0
 26 28  1  0  0  0  0
 26 29  1  0  0  0  0
 24 25  1  0  0  0  0
 24 26  1  0  0  0  0
M  END
$$$$
default_name
  -OEChem-02102213163D

 29 28  0     1  0  0  0  0  0999 V2000
   -3.3998   -3.6239    1.3678 H   0  0  0  0  0  0  0  0  0  0  0  0
   -3.3608   -2.6749    0.8348 C   0  0  0  0  0  0  0  0  0  0  0  0
   -4.0988   -1.9909    1.2498 H   0  0  0  0  0  0  0  0  0  0  0  0
   -3.5618   -2.8419   -0.2222 H   0  0  0  0  0  0  0  0  0  0  0  0
   -1.9818   -2.0809    0.9918 C   0  0  0  0  0  0  0  0  0  0  0  0
   -1.1288   -2.6669    1.6468 O   0  0  0  0  0  0  0  0  0  0  0  0
   -1.7648   -0.9089    0.3998 N   0  0  0  0  0  0  0  0  0  0  0  0
   -2.5238   -0.4719   -0.1032 H   0  0  0  0  0  0  0  0  0  0  0  0
   -0.4848   -0.1959    0.4138 C   0  0  1  0  0  0  0  0  0  0  0  0
    0.2783   -0.8411   -0.0248 H   0  0  0  0  0  0  0  0  0  0  0  0
   -0.6101    1.0666   -0.4611 C   0  0  0  0  0  0  0  0  0  0  0  0
   -1.6267    1.1100   -0.8576 H   0  0  0  0  0  0  0  0  0  0  0  0
   -0.4486    1.9485    0.1606 H   0  0  0  0  0  0  0  0  0  0  0  0
    0.3736    1.1047   -1.6436 C   0  0  0  0  0  0  0  0  0  0  0  0
    0.1932    0.2527   -2.2987 H   0  0  0  0  0  0  0  0  0  0  0  0
    0.2097    2.0209   -2.2108 H   0  0  0  0  0  0  0  0  0  0  0  0
    1.8385    1.0640   -1.2088 C   0  0  0  0  0  0  0  0  0  0  0  0
    2.1915    1.0782   -0.0444 O   0  0  0  0  0  0  0  0  0  0  0  0
    2.7661    1.0027   -2.1393 N   0  0  0  0  0  0  0  0  0  0  0  0
    3.7111    0.9773   -1.7974 H   0  0  0  0  0  0  0  0  0  0  0  0
    2.5309    0.9858   -3.1110 H   0  0  0  0  0  0  0  0  0  0  0  0
   -0.0637    0.1284    1.8555 C   0  0  0  0  0  0  0  0  0  0  0  0
    1.0918   -0.0745    2.2236 O   0  0  0  0  0  0  0  0  0  0  0  0
   -1.0024    0.6217    2.6735 N   0  0  0  0  0  0  0  0  0  0  0  0
   -1.9213    0.7848    2.2938 H   0  0  0  0  0  0  0  0  0  0  0  0
   -0.7639    0.9676    4.0741 C   0  0  0  0  0  0  0  0  0  0  0  0
    0.0520    1.6916    4.1400 H   0  0  0  0  0  0  0  0  0  0  0  0
   -1.6626    1.3984    4.5182 H   0  0  0  0  0  0  0  0  0  0  0  0
   -0.4775    0.0737    4.6309 H   0  0  0  0  0  0  0  0  0  0  0  0
  5  6  2  0  0  0  0
  5  7  1  0  0  0  0
  2  3  1  0  0  0  0
  2  4  1  0  0  0  0
  2  5  1  0  0  0  0
  1  2  1  0  0  0  0
 22 23  2  0  0  0  0
 22 24  1  0  0  0  0
 19 20  1  0  0  0  0
 19 21  1  0  0  0  0
 17 18  2  0  0  0  0
 17 19  1  0  0  0  0
 14 15  1  0  0  0  0
 14 16  1  0  0  0  0
 14 17  1  0  0  0  0
 11 12  1  0  0  0  0
 11 13  1  0  0  0  0
 11 14  1  0  0  0  0
  9 10  1  0  0  0  0
  9 11  1  0  0  0  0
  9 22  1  0  0  0  0
  7  8  1  0  0  0  0
  7  9  1  0  0  0  0
 26 27  1  0  0  0  0
 26 28  1  0  0  0  0
 26 29  1  0  0  0  0
 24 25  1  0  0  0  0
 24 26  1  0  0  0  0
M  END
$$$$
default_name
  -OEChem-02102213163D

 29 28  0     1  0  0  0  0  0999 V2000
   -3.3998   -3.6239    1.3678 H   0  0  0  0  0  0  0  0  0  0  0  0
   -3.3608   -2.6749    0.8348 C   0  0  0  0  0  0  0  0  0  0  0  0
   -4.0988   -1.9909    1.2498 H   0  0  0  0  0  0  0  0  0  0  0  0
   -3.5618   -2.8419   -0.2222 H   0  0  0  0  0  0  0  0  0  0  0  0
   -1.9818   -2.0809    0.9918 C   0  0  0  0  0  0  0  0  0  0  0  0
   -1.1288   -2.6669    1.6468 O   0  0  0  0  0  0  0  0  0  0  0  0
   -1.7648   -0.9089    0.3998 N   0  0  0  0  0  0  0  0  0  0  0  0
   -2.5238   -0.4719   -0.1032 H   0  0  0  0  0  0  0  0  0  0  0  0
   -0.4848   -0.1959    0.4138 C   0  0  1  0  0  0  0  0  0  0  0  0
    0.2783   -0.8411   -0.0248 H   0  0  0  0  0  0  0  0  0  0  0  0
   -0.6101    1.0666   -0.4611 C   0  0  0  0  0  0  0  0  0  0  0  0
   -1.6267    1.1100   -0.8576 H   0  0  0  0  0  0  0  0  0  0  0  0
   -0.4486    1.9485    0.1606 H   0  0  0  0  0  0  0  0  0  0  0  0
    0.3736    1.1047   -1.6436 C   0  0  0  0  0  0  0  0  0  0  0  0
    0.0337    0.4263   -2.4258 H   0  0  0  0  0  0  0  0  0  0  0  0
    0.4016    2.1164   -2.0480 H   0  0  0  0  0  0  0  0  0  0  0  0
    1.7963    0.7026   -1.2554 C   0  0  0  0  0  0  0  0  0  0  0  0
    2.1331    0.4528   -0.1131 O   0  0  0  0  0  0  0  0  0  0  0  0
    2.7027    0.6139   -2.2046 N   0  0  0  0  0  0  0  0  0  0  0  0
    3.6201    0.3452   -1.8935 H   0  0  0  0  0  0  0  0  0  0  0  0
    2.4790    0.8057   -3.1600 H   0  0  0  0  0  0  0  0  0  0  0  0
   -0.0637    0.1284    1.8555 C   0  0  0  0  0  0  0  0  0  0  0  0
    1.0918   -0.0745    2.2236 O   0  0  0  0  0  0  0  0  0  0  0  0
   -1.0024    0.6217    2.6735 N   0  0  0  0  0  0  0  0  0  0  0  0
   -1.9213    0.7848    2.2938 H   0  0  0  0  0  0  0  0  0  0  0  0
   -0.7639    0.9676    4.0741 C   0  0  0  0  0  0  0  0  0  0  0  0
    0.0520    1.6916    4.1400 H   0  0  0  0  0  0  0  0  0  0  0  0
   -1.6626    1.3984    4.5182 H   0  0  0  0  0  0  0  0  0  0  0  0
   -0.4775    0.0737    4.6309 H   0  0  0  0  0  0  0  0  0  0  0  0
  5  6  2  0  0  0  0
  5  7  1  0  0  0  0
  2  3  1  0  0  0  0
  2  4  1  0  0  0  0
  2  5  1  0  0  0  0
  1  2  1  0  0  0  0
 22 23  2  0  0  0  0
 22 24  1  0  0  0  0
 19 20  1  0  0  0  0
 19 21  1  0  0  0  0
 17 18  2  0  0  0  0
 17 19  1  0  0  0  0
 14 15  1  0  0  0  0
 14 16  1  0  0  0  0
 14 17  1  0  0  0  0
 11 12  1  0  0  0  0
 11 13  1  0  0  0  0
 11 14  1  0  0  0  0
  9 10  1  0  0  0  0
  9 11  1  0  0  0  0
  9 22  1  0  0  0  0
  7  8  1  0  0  0  0
  7  9  1  0  0  0  0
 26 27  1  0  0  0  0
 26 28  1  0  0  0  0
 26 29  1  0  0  0  0
 24 25  1  0  0  0  0
 24 26  1  0  0  0  0
M  END
$$$$
default_name
  -OEChem-02102213163D

 29 28  0     1  0  0  0  0  0999 V2000
   -3.3998   -3.6239    1.3678 H   0  0  0  0  0  0  0  0  0  0  0  0
   -3.3608   -2.6749    0.8348 C   0  0  0  0  0  0  0  0  0  0  0  0
   -4.0988   -1.9909    1.2498 H   0  0  0  0  0  0  0  0  0  0  0  0
   -3.5618   -2.8419   -0.2222 H   0  0  0  0  0  0  0  0  0  0  0  0
   -1.9818   -2.0809    0.9918 C   0  0  0  0  0  0  0  0  0  0  0  0
   -1.1288   -2.6669    1.6468 O   0  0  0  0  0  0  0  0  0  0  0  0
   -1.7648   -0.9089    0.3998 N   0  0  0  0  0  0  0  0  0  0  0  0
   -2.5238   -0.4719   -0.1032 H   0  0  0  0  0  0  0  0  0  0  0  0
   -0.4848   -0.1959    0.4138 C   0  0  1  0  0  0  0  0  0  0  0  0
    0.2783   -0.8411   -0.0248 H   0  0  0  0  0  0  0  0  0  0  0  0
   -0.6101    1.0666   -0.4611 C   0  0  0  0  0  0  0  0  0  0  0  0
   -1.6267    1.1100   -0.8576 H   0  0  0  0  0  0  0  0  0  0  0  0
   -0.4486    1.9485    0.1606 H   0  0  0  0  0  0  0  0  0  0  0  0
    0.3736    1.1047   -1.6436 C   0  0  0  0  0  0  0  0  0  0  0  0
   -0.0867    0.6468   -2.5189 H   0  0  0  0  0  0  0  0  0  0  0  0
    0.6070    2.1436   -1.8763 H   0  0  0  0  0  0  0  0  0  0  0  0
    1.6835    0.3695   -1.3600 C   0  0  0  0  0  0  0  0  0  0  0  0
    1.9518   -0.1282   -0.2826 O   0  0  0  0  0  0  0  0  0  0  0  0
    2.5637    0.2618   -2.3315 N   0  0  0  0  0  0  0  0  0  0  0  0
    3.4058   -0.2315   -2.0903 H   0  0  0  0  0  0  0  0  0  0  0  0
    2.3926    0.6501   -3.2368 H   0  0  0  0  0  0  0  0  0  0  0  0
   -0.0637    0.1284    1.8555 C   0  0  0  0  0  0  0  0  0  0  0  0
    1.0918   -0.0745    2.2236 O   0  0  0  0  0  0  0  0  0  0  0  0
   -1.0024    0.6217    2.6735 N   0  0  0  0  0  0  0  0  0  0  0  0
   -1.9213    0.7848    2.2938 H   0  0  0  0  0  0  0  0  0  0  0  0
   -0.7639    0.9676    4.0741 C   0  0  0  0  0  0  0  0  0  0  0  0
    0.0520    1.6916    4.1400 H   0  0  0  0  0  0  0  0  0  0  0  0
   -1.6626    1.3984    4.5182 H   0  0  0  0  0  0  0  0  0  0  0  0
   -0.4775    0.0737    4.6309 H   0  0  0  0  0  0  0  0  0  0  0  0
  5  6  2  0  0  0  0
  5  7  1  0  0  0  0
  2  3  1  0  0  0  0
  2  4  1  0  0  0  0
  2  5  1  0  0  0  0
  1  2  1  0  0  0  0
 22 23  2  0  0  0  0
 22 24  1  0  0  0  0
 19 20  1  0  0  0  0
 19 21  1  0  0  0  0
 17 18  2  0  0  0  0
 17 19  1  0  0  0  0
 14 15  1  0  0  0  0
 14 16  1  0  0  0  0
 14 17  1  0  0  0  0
 11 12  1  0  0  0  0
 11 13  1  0  0  0  0
 11 14  1  0  0  0  0
  9 10  1  0  0  0  0
  9 11  1  0  0  0  0
  9 22  1  0  0  0  0
  7  8  1  0  0  0  0
  7  9  1  0  0  0  0
 26 27  1  0  0  0  0
 26 28  1  0  0  0  0
 26 29  1  0  0  0  0
 24 25  1  0  0  0  0
 24 26  1  0  0  0  0
M  END
$$$$
default_name
  -OEChem-02102213163D

 29 28  0     1  0  0  0  0  0999 V2000
   -3.3998   -3.6239    1.3678 H   0  0  0  0  0  0  0  0  0  0  0  0
   -3.3608   -2.6749    0.8348 C   0  0  0  0  0  0  0  0  0  0  0  0
   -4.0988   -1.9909    1.2498 H   0  0  0  0  0  0  0  0  0  0  0  0
   -3.5618   -2.8419   -0.2222 H   0  0  0  0  0  0  0  0  0  0  0  0
   -1.9818   -2.0809    0.9918 C   0  0  0  0  0  0  0  0  0  0  0  0
   -1.1288   -2.6669    1.6468 O   0  0  0  0  0  0  0  0  0  0  0  0
   -1.7648   -0.9089    0.3998 N   0  0  0  0  0  0  0  0  0  0  0  0
   -2.5238   -0.4719   -0.1032 H   0  0  0  0  0  0  0  0  0  0  0  0
   -0.4848   -0.1959    0.4138 C   0  0  1  0  0  0  0  0  0  0  0  0
    0.2783   -0.8411   -0.0248 H   0  0  0  0  0  0  0  0  0  0  0  0
   -0.6101    1.0666   -0.4611 C   0  0  0  0  0  0  0  0  0  0  0  0
   -1.6267    1.1100   -0.8576 H   0  0  0  0  0  0  0  0  0  0  0  0
   -0.4486    1.9485    0.1606 H   0  0  0  0  0  0  0  0  0  0  0  0
    0.3736    1.1047   -1.6436 C   0  0  0  0  0  0  0  0  0  0  0  0
   -0.1597    0.8991   -2.5715 H   0  0  0  0  0  0  0  0  0  0  0  0
    0.8119    2.1006   -1.7072 H   0  0  0  0  0  0  0  0  0  0  0  0
    1.5075    0.0876   -1.5155 C   0  0  0  0  0  0  0  0  0  0  0  0
    1.6600   -0.6254   -0.5414 O   0  0  0  0  0  0  0  0  0  0  0  0
    2.3586   -0.0297   -2.5115 N   0  0  0  0  0  0  0  0  0  0  0  0
    3.0828   -0.7132   -2.3745 H   0  0  0  0  0  0  0  0  0  0  0  0
    2.2777    0.5298   -3.3363 H   0  0  0  0  0  0  0  0  0  0  0  0
   -0.0637    0.1284    1.8555 C   0  0  0  0  0  0  0  0  0  0  0  0
    1.0918   -0.0745    2.2236 O   0  0  0  0  0  0  0  0  0  0  0  0
   -1.0024    0.6217    2.6735 N   0  0  0  0  0  0  0  0  0  0  0  0
   -1.9213    0.7848    2.2938 H   0  0  0  0  0  0  0  0  0  0  0  0
   -0.7639    0.9676    4.0741 C   0  0  0  0  0  0  0  0  0  0  0  0
    0.0520    1.6916    4.1400 H   0  0  0  0  0  0  0  0  0  0  0  0
   -1.6626    1.3984    4.5182 H   0  0  0  0  0  0  0  0  0  0  0  0
   -0.4775    0.0737    4.6309 H   0  0  0  0  0  0  0  0  0  0  0  0
  5  6  2  0  0  0  0
  5  7  1  0  0  0  0
  2  3  1  0  0  0  0
  2  4  1  0  0  0  0
  2  5  1  0  0  0  0
  1  2  1  0  0  0  0
 22 23  2  0  0  0  0
 22 24  1  0  0  0  0
 19 20  1  0  0  0  0
 19 21  1  0  0  0  0
 17 18  2  0  0  0  0
 17 19  1  0  0  0  0
 14 15  1  0  0  0  0
 14 16  1  0  0  0  0
 14 17  1  0  0  0  0
 11 12  1  0  0  0  0
 11 13  1  0  0  0  0
 11 14  1  0  0  0  0
  9 10  1  0  0  0  0
  9 11  1  0  0  0  0
  9 22  1  0  0  0  0
  7  8  1  0  0  0  0
  7  9  1  0  0  0  0
 26 27  1  0  0  0  0
 26 28  1  0  0  0  0
 26 29  1  0  0  0  0
 24 25  1  0  0  0  0
 24 26  1  0  0  0  0
M  END
$$$$
default_name
  -OEChem-02102213163D

 29 28  0     1  0  0  0  0  0999 V2000
   -3.3998   -3.6239    1.3678 H   0  0  0  0  0  0  0  0  0  0  0  0
   -3.3608   -2.6749    0.8348 C   0  0  0  0  0  0  0  0  0  0  0  0
   -4.0988   -1.9909    1.2498 H   0  0  0  0  0  0  0  0  0  0  0  0
   -3.5618   -2.8419   -0.2222 H   0  0  0  0  0  0  0  0  0  0  0  0
   -1.9818   -2.0809    0.9918 C   0  0  0  0  0  0  0  0  0  0  0  0
   -1.1288   -2.6669    1.6468 O   0  0  0  0  0  0  0  0  0  0  0  0
   -1.7648   -0.9089    0.3998 N   0  0  0  0  0  0  0  0  0  0  0  0
   -2.5238   -0.4719   -0.1032 H   0  0  0  0  0  0  0  0  0  0  0  0
   -0.4848   -0.1959    0.4138 C   0  0  1  0  0  0  0  0  0  0  0  0
    0.2783   -0.8411   -0.0248 H   0  0  0  0  0  0  0  0  0  0  0  0
   -0.6101    1.0666   -0.4611 C   0  0  0  0  0  0  0  0  0  0  0  0
   -1.6267    1.1100   -0.8576 H   0  0  0  0  0  0  0  0  0  0  0  0
   -0.4486    1.9485    0.1606 H   0  0  0  0  0  0  0  0  0  0  0  0
    0.3736    1.1047   -1.6436 C   0  0  0  0  0  0  0  0  0  0  0  0
   -0.1804    1.1660   -2.5801 H   0  0  0  0  0  0  0  0  0  0  0  0
    1.0023    1.9903   -1.5523 H   0  0  0  0  0  0  0  0  0  0  0  0
    1.2805   -0.1240   -1.7111 C   0  0  0  0  0  0  0  0  0  0  0  0
    1.2776   -1.0048   -0.8717 O   0  0  0  0  0  0  0  0  0  0  0  0
    2.1014   -0.2406   -2.7323 N   0  0  0  0  0  0  0  0  0  0  0  0
    2.6732   -1.0673   -2.7266 H   0  0  0  0  0  0  0  0  0  0  0  0
    2.1422    0.4528   -3.4515 H   0  0  0  0  0  0  0  0  0  0  0  0
   -0.0637    0.1284    1.8555 C   0  0  0  0  0  0  0  0  0  0  0  0
    1.0918   -0.0745    2.2236 O   0  0  0  0  0  0  0  0  0  0  0  0
   -1.0024    0.6217    2.6735 N   0  0  0  0  0  0  0  0  0  0  0  0
   -1.9213    0.7848    2.2938 H   0  0  0  0  0  0  0  0  0  0  0  0
   -0.7639    0.9676    4.0741 C   0  0  0  0  0  0  0  0  0  0  0  0
    0.0520    1.6916    4.1400 H   0  0  0  0  0  0  0  0  0  0  0  0
   -1.6626    1.3984    4.5182 H   0  0  0  0  0  0  0  0  0  0  0  0
   -0.4775    0.0737    4.6309 H   0  0  0  0  0  0  0  0  0  0  0  0
  5  6  2  0  0  0  0
  5  7  1  0  0  0  0
  2  3  1  0  0  0  0
  2  4  1  0  0  0  0
  2  5  1  0  0  0  0
  1  2  1  0  0  0  0
 22 23  2  0  0  0  0
 22 24  1  0  0  0  0
 19 20  1  0  0  0  0
 19 21  1  0  0  0  0
 17 18  2  0  0  0  0
 17 19  1  0  0  0  0
 14 15  1  0  0  0  0
 14 16  1  0  0  0  0
 14 17  1  0  0  0  0
 11 12  1  0  0  0  0
 11 13  1  0  0  0  0
 11 14  1  0  0  0  0
  9 10  1  0  0  0  0
  9 11  1  0  0  0  0
  9 22  1  0  0  0  0
  7  8  1  0  0  0  0
  7  9  1  0  0  0  0
 26 27  1  0  0  0  0
 26 28  1  0  0  0  0
 26 29  1  0  0  0  0
 24 25  1  0  0  0  0
 24 26  1  0  0  0  0
M  END
$$$$
default_name
  -OEChem-02102213163D

 29 28  0     1  0  0  0  0  0999 V2000
   -3.3998   -3.6239    1.3678 H   0  0  0  0  0  0  0  0  0  0  0  0
   -3.3608   -2.6749    0.8348 C   0  0  0  0  0  0  0  0  0  0  0  0
   -4.0988   -1.9909    1.2498 H   0  0  0  0  0  0  0  0  0  0  0  0
   -3.5618   -2.8419   -0.2222 H   0  0  0  0  0  0  0  0  0  0  0  0
   -1.9818   -2.0809    0.9918 C   0  0  0  0  0  0  0  0  0  0  0  0
   -1.1288   -2.6669    1.6468 O   0  0  0  0  0  0  0  0  0  0  0  0
   -1.7648   -0.9089    0.3998 N   0  0  0  0  0  0  0  0  0  0  0  0
   -2.5238   -0.4719   -0.1032 H   0  0  0  0  0  0  0  0  0  0  0  0
   -0.4848   -0.1959    0.4138 C   0  0  1  0  0  0  0  0  0  0  0  0
    0.2783   -0.8411   -0.0248 H   0  0  0  0  0  0  0  0  0  0  0  0
   -0.6101    1.0666   -0.4611 C   0  0  0  0  0  0  0  0  0  0  0  0
   -1.6267    1.1100   -0.8576 H   0  0  0  0  0  0  0  0  0  0  0  0
   -0.4486    1.9485    0.1606 H   0  0  0  0  0  0  0  0  0  0  0  0
    0.3736    1.1047   -1.6436 C   0  0  0  0  0  0  0  0  0  0  0  0
   -0.1473    1.4294   -2.5441 H   0  0  0  0  0  0  0  0  0  0  0  0
    1.1654    1.8202   -1.4221 H   0  0  0  0  0  0  0  0  0  0  0  0
    1.0179   -0.2508   -1.9337 C   0  0  0  0  0  0  0  0  0  0  0  0
    0.8307   -1.2405   -1.2511 O   0  0  0  0  0  0  0  0  0  0  0  0
    1.8095   -0.3567   -2.9789 N   0  0  0  0  0  0  0  0  0  0  0  0
    2.2049   -1.2696   -3.1227 H   0  0  0  0  0  0  0  0  0  0  0  0
    1.9953    0.4245   -3.5746 H   0  0  0  0  0  0  0  0  0  0  0  0
   -0.0637    0.1284    1.8555 C   0  0  0  0  0  0  0  0  0  0  0  0
    1.0918   -0.0745    2.2236 O   0  0  0  0  0  0  0  0  0  0  0  0
   -1.0024    0.6217    2.6735 N   0  0  0  0  0  0  0  0  0  0  0  0
   -1.9213    0.7848    2.2938 H   0  0  0  0  0  0  0  0  0  0  0  0
   -0.7639    0.9676    4.0741 C   0  0  0  0  0  0  0  0  0  0  0  0
    0.0520    1.6916    4.1400 H   0  0  0  0  0  0  0  0  0  0  0  0
   -1.6626    1.3984    4.5182 H   0  0  0  0  0  0  0  0  0  0  0  0
   -0.4775    0.0737    4.6309 H   0  0  0  0  0  0  0  0  0  0  0  0
  5  6  2  0  0  0  0
  5  7  1  0  0  0  0
  2  3  1  0  0  0  0
  2  4  1  0  0  0  0
  2  5  1  0  0  0  0
  1  2  1  0  0  0  0
 22 23  2  0  0  0  0
 22 24  1  0  0  0  0
 19 20  1  0  0  0  0
 19 21  1  0  0  0  0
 17 18  2  0  0  0  0
 17 19  1  0  0  0  0
 14 15  1  0  0  0  0
 14 16  1  0  0  0  0
 14 17  1  0  0  0  0
 11 12  1  0  0  0  0
 11 13  1  0  0  0  0
 11 14  1  0  0  0  0
  9 10  1  0  0  0  0
  9 11  1  0  0  0  0
  9 22  1  0  0  0  0
  7  8  1  0  0  0  0
  7  9  1  0  0  0  0
 26 27  1  0  0  0  0
 26 28  1  0  0  0  0
 26 29  1  0  0  0  0
 24 25  1  0  0  0  0
 24 26  1  0  0  0  0
M  END
$$$$
default_name
  -OEChem-02102213163D

 29 28  0     1  0  0  0  0  0999 V2000
   -3.3998   -3.6239    1.3678 H   0  0  0  0  0  0  0  0  0  0  0  0
   -3.3608   -2.6749    0.8348 C   0  0  0  0  0  0  0  0  0  0  0  0
   -4.0988   -1.9909    1.2498 H   0  0  0  0  0  0  0  0  0  0  0  0
   -3.5618   -2.8419   -0.2222 H   0  0  0  0  0  0  0  0  0  0  0  0
   -1.9818   -2.0809    0.9918 C   0  0  0  0  0  0  0  0  0  0  0  0
   -1.1288   -2.6669    1.6468 O   0  0  0  0  0  0  0  0  0  0  0  0
   -1.7648   -0.9089    0.3998 N   0  0  0  0  0  0  0  0  0  0  0  0
   -2.5238   -0.4719   -0.1032 H   0  0  0  0  0  0  0  0  0  0  0  0
   -0.4848   -0.1959    0.4138 C   0  0  1  0  0  0  0  0  0  0  0  0
    0.2783   -0.8411   -0.0248 H   0  0  0  0  0  0  0  0  0  0  0  0
   -0.6101    1.0666   -0.4611 C   0  0  0  0  0  0  0  0  0  0  0  0
   -1.6267    1.1100   -0.8576 H   0  0  0  0  0  0  0  0  0  0  0  0
   -0.4486    1.9485    0.1606 H   0  0  0  0  0  0  0  0  0  0  0  0
    0.3736    1.1047   -1.6436 C   0  0  0  0  0  0  0  0  0  0  0  0
   -0.0627    1.6712   -2.4660 H   0  0  0  0  0  0  0  0  0  0  0  0
    1.2898    1.6020   -1.3256 H   0  0  0  0  0  0  0  0  0  0  0  0
    0.7376   -0.2843   -2.1680 C   0  0  0  0  0  0  0  0  0  0  0  0
    0.3497   -1.3165   -1.6537 O   0  0  0  0  0  0  0  0  0  0  0  0
    1.5029   -0.3700   -3.2343 N   0  0  0  0  0  0  0  0  0  0  0  0
    1.7098   -1.3063   -3.5358 H   0  0  0  0  0  0  0  0  0  0  0  0
    1.8469    0.4467   -3.6973 H   0  0  0  0  0  0  0  0  0  0  0  0
   -0.0637    0.1284    1.8555 C   0  0  0  0  0  0  0  0  0  0  0  0
    1.0918   -0.0745    2.2236 O   0  0  0  0  0  0  0  0  0  0  0  0
   -1.0024    0.6217    2.6735 N   0  0  0  0  0  0  0  0  0  0  0  0
   -1.9213    0.7848    2.2938 H   0  0  0  0  0  0  0  0  0  0  0  0
   -0.7639    0.9676    4.0741 C   0  0  0  0  0  0  0  0  0  0  0  0
    0.0520    1.6916    4.1400 H   0  0  0  0  0  0  0  0  0  0  0  0
   -1.6626    1.3984    4.5182 H   0  0  0  0  0  0  0  0  0  0  0  0
   -0.4775    0.0737    4.6309 H   0  0  0  0  0  0  0  0  0  0  0  0
  5  6  2  0  0  0  0
  5  7  1  0  0  0  0
  2  3  1  0  0  0  0
  2  4  1  0  0  0  0
  2  5  1  0  0  0  0
  1  2  1  0  0  0  0
 22 23  2  0  0  0  0
 22 24  1  0  0  0  0
 19 20  1  0  0  0  0
 19 21  1  0  0  0  0
 17 18  2  0  0  0  0
 17 19  1  0  0  0  0
 14 15  1  0  0  0  0
 14 16  1  0  0  0  0
 14 17  1  0  0  0  0
 11 12  1  0  0  0  0
 11 13  1  0  0  0  0
 11 14  1  0  0  0  0
  9 10  1  0  0  0  0
  9 11  1  0  0  0  0
  9 22  1  0  0  0  0
  7  8  1  0  0  0  0
  7  9  1  0  0  0  0
 26 27  1  0  0  0  0
 26 28  1  0  0  0  0
 26 29  1  0  0  0  0
 24 25  1  0  0  0  0
 24 26  1  0  0  0  0
M  END
$$$$
default_name
  -OEChem-02102213163D

 29 28  0     1  0  0  0  0  0999 V2000
   -3.3998   -3.6239    1.3678 H   0  0  0  0  0  0  0  0  0  0  0  0
   -3.3608   -2.6749    0.8348 C   0  0  0  0  0  0  0  0  0  0  0  0
   -4.0988   -1.9909    1.2498 H   0  0  0  0  0  0  0  0  0  0  0  0
   -3.5618   -2.8419   -0.2222 H   0  0  0  0  0  0  0  0  0  0  0  0
   -1.9818   -2.0809    0.9918 C   0  0  0  0  0  0  0  0  0  0  0  0
   -1.1288   -2.6669    1.6468 O   0  0  0  0  0  0  0  0  0  0  0  0
   -1.7648   -0.9089    0.3998 N   0  0  0  0  0  0  0  0  0  0  0  0
   -2.5238   -0.4719   -0.1032 H   0  0  0  0  0  0  0  0  0  0  0  0
   -0.4848   -0.1959    0.4138 C   0  0  1  0  0  0  0  0  0  0  0  0
    0.2783   -0.8411   -0.0248 H   0  0  0  0  0  0  0  0  0  0  0  0
   -0.6101    1.0666   -0.4611 C   0  0  0  0  0  0  0  0  0  0  0  0
   -1.6267    1.1100   -0.8576 H   0  0  0  0  0  0  0  0  0  0  0  0
   -0.4486    1.9485    0.1606 H   0  0  0  0  0  0  0  0  0  0  0  0
    0.3736    1.1047   -1.6436 C   0  0  0  0  0  0  0  0  0  0  0  0
    0.0676    1.8751   -2.3510 H   0  0  0  0  0  0  0  0  0  0  0  0
    1.3673    1.3505   -1.2693 H   0  0  0  0  0  0  0  0  0  0  0  0
    0.4586   -0.2221   -2.3980 C   0  0  0  0  0  0  0  0  0  0  0  0
   -0.1326   -1.2277   -2.0520 O   0  0  0  0  0  0  0  0  0  0  0  0
    1.2025   -0.2795   -3.4813 N   0  0  0  0  0  0  0  0  0  0  0  0
    1.2215   -1.1750   -3.9377 H   0  0  0  0  0  0  0  0  0  0  0  0
    1.7073    0.5180   -3.8112 H   0  0  0  0  0  0  0  0  0  0  0  0
   -0.0637    0.1284    1.8555 C   0  0  0  0  0  0  0  0  0  0  0  0
    1.0918   -0.0745    2.2236 O   0  0  0  0  0  0  0  0  0  0  0  0
   -1.0024    0.6217    2.6735 N   0  0  0  0  0  0  0  0  0  0  0  0
   -1.9213    0.7848    2.2938 H   0  0  0  0  0  0  0  0  0  0  0  0
   -0.7639    0.9676    4.0741 C   0  0  0  0  0  0  0  0  0  0  0  0
    0.0520    1.6916    4.1400 H   0  0  0  0  0  0  0  0  0  0  0  0
   -1.6626    1.3984    4.5182 H   0  0  0  0  0  0  0  0  0  0  0  0
   -0.4775    0.0737    4.6309 H   0  0  0  0  0  0  0  0  0  0  0  0
  5  6  2  0  0  0  0
  5  7  1  0  0  0  0
  2  3  1  0  0  0  0
  2  4  1  0  0  0  0
  2  5  1  0  0  0  0
  1  2  1  0  0  0  0
 22 23  2  0  0  0  0
 22 24  1  0  0  0  0
 19 20  1  0  0  0  0
 19 21  1  0  0  0  0
 17 18  2  0  0  0  0
 17 19  1  0  0  0  0
 14 15  1  0  0  0  0
 14 16  1  0  0  0  0
 14 17  1  0  0  0  0
 11 12  1  0  0  0  0
 11 13  1  0  0  0  0
 11 14  1  0  0  0  0
  9 10  1  0  0  0  0
  9 11  1  0  0  0  0
  9 22  1  0  0  0  0
  7  8  1  0  0  0  0
  7  9  1  0  0  0  0
 26 27  1  0  0  0  0
 26 28  1  0  0  0  0
 26 29  1  0  0  0  0
 24 25  1  0  0  0  0
 24 26  1  0  0  0  0
M  END
$$$$
default_name
  -OEChem-02102213163D

 29 28  0     1  0  0  0  0  0999 V2000
   -3.3998   -3.6239    1.3678 H   0  0  0  0  0  0  0  0  0  0  0  0
   -3.3608   -2.6749    0.8348 C   0  0  0  0  0  0  0  0  0  0  0  0
   -4.0988   -1.9909    1.2498 H   0  0  0  0  0  0  0  0  0  0  0  0
   -3.5618   -2.8419   -0.2222 H   0  0  0  0  0  0  0  0  0  0  0  0
   -1.9818   -2.0809    0.9918 C   0  0  0  0  0  0  0  0  0  0  0  0
   -1.1288   -2.6669    1.6468 O   0  0  0  0  0  0  0  0  0  0  0  0
   -1.7648   -0.9089    0.3998 N   0  0  0  0  0  0  0  0  0  0  0  0
   -2.5238   -0.4719   -0.1032 H   0  0  0  0  0  0  0  0  0  0  0  0
   -0.4848   -0.1959    0.4138 C   0  0  1  0  0  0  0  0  0  0  0  0
    0.2783   -0.8411   -0.0248 H   0  0  0  0  0  0  0  0  0  0  0  0
   -0.6101    1.0666   -0.4611 C   0  0  0  0  0  0  0  0  0  0  0  0
   -1.6267    1.1100   -0.8576 H   0  0  0  0  0  0  0  0  0  0  0  0
   -0.4486    1.9485    0.1606 H   0  0  0  0  0  0  0  0  0  0  0  0
    0.3736    1.1047   -1.6436 C   0  0  0  0  0  0  0  0  0  0  0  0
    0.2347    2.0271   -2.2071 H   0  0  0  0  0  0  0  0  0  0  0  0
    1.3924    1.0828   -1.2570 H   0  0  0  0  0  0  0  0  0  0  0  0
    0.2001   -0.0684   -2.6081 C   0  0  0  0  0  0  0  0  0  0  0  0
   -0.5834   -0.9800   -2.4191 O   0  0  0  0  0  0  0  0  0  0  0  0
    0.9288   -0.0915   -3.7030 N   0  0  0  0  0  0  0  0  0  0  0  0
    0.7735   -0.8844   -4.3011 H   0  0  0  0  0  0  0  0  0  0  0  0
    1.5858    0.6336   -3.9085 H   0  0  0  0  0  0  0  0  0  0  0  0
   -0.0637    0.1284    1.8555 C   0  0  0  0  0  0  0  0  0  0  0  0
    1.0918   -0.0745    2.2236 O   0  0  0  0  0  0  0  0  0  0  0  0
   -1.0024    0.6217    2.6735 N   0  0  0  0  0  0  0  0  0  0  0  0
   -1.9213    0.7848    2.2938 H   0  0  0  0  0  0  0  0  0  0  0  0
   -0.7639    0.9676    4.0741 C   0  0  0  0  0  0  0  0  0  0  0  0
    0.0520    1.6916    4.1400 H   0  0  0  0  0  0  0  0  0  0  0  0
   -1.6626    1.3984    4.5182 H   0  0  0  0  0  0  0  0  0  0  0  0
   -0.4775    0.0737    4.6309 H   0  0  0  0  0  0  0  0  0  0  0  0
  5  6  2  0  0  0  0
  5  7  1  0  0  0  0
  2  3  1  0  0  0  0
  2  4  1  0  0  0  0
  2  5  1  0  0  0  0
  1  2  1  0  0  0  0
 22 23  2  0  0  0  0
 22 24  1  0  0  0  0
 19 20  1  0  0  0  0
 19 21  1  0  0  0  0
 17 18  2  0  0  0  0
 17 19  1  0  0  0  0
 14 15  1  0  0  0  0
 14 16  1  0  0  0  0
 14 17  1  0  0  0  0
 11 12  1  0  0  0  0
 11 13  1  0  0  0  0
 11 14  1  0  0  0  0
  9 10  1  0  0  0  0
  9 11  1  0  0  0  0
  9 22  1  0  0  0  0
  7  8  1  0  0  0  0
  7  9  1  0  0  0  0
 26 27  1  0  0  0  0
 26 28  1  0  0  0  0
 26 29  1  0  0  0  0
 24 25  1  0  0  0  0
 24 26  1  0  0  0  0
M  END
$$$$
default_name
  -OEChem-02102213163D

 29 28  0     1  0  0  0  0  0999 V2000
   -3.3998   -3.6239    1.3678 H   0  0  0  0  0  0  0  0  0  0  0  0
   -3.3608   -2.6749    0.8348 C   0  0  0  0  0  0  0  0  0  0  0  0
   -4.0988   -1.9909    1.2498 H   0  0  0  0  0  0  0  0  0  0  0  0
   -3.5618   -2.8419   -0.2222 H   0  0  0  0  0  0  0  0  0  0  0  0
   -1.9818   -2.0809    0.9918 C   0  0  0  0  0  0  0  0  0  0  0  0
   -1.1288   -2.6669    1.6468 O   0  0  0  0  0  0  0  0  0  0  0  0
   -1.7648   -0.9089    0.3998 N   0  0  0  0  0  0  0  0  0  0  0  0
   -2.5238   -0.4719   -0.1032 H   0  0  0  0  0  0  0  0  0  0  0  0
   -0.4848   -0.1959    0.4138 C   0  0  1  0  0  0  0  0  0  0  0  0
    0.2783   -0.8411   -0.0248 H   0  0  0  0  0  0  0  0  0  0  0  0
   -0.6101    1.0666   -0.4611 C   0  0  0  0  0  0  0  0  0  0  0  0
   -1.6267    1.1100   -0.8576 H   0  0  0  0  0  0  0  0  0  0  0  0
   -0.4486    1.9485    0.1606 H   0  0  0  0  0  0  0  0  0  0  0  0
    0.3736    1.1047   -1.6436 C   0  0  0  0  0  0  0  0  0  0  0  0
    0.4273    2.1168   -2.0439 H   0  0  0  0  0  0  0  0  0  0  0  0
    1.3635    0.8172   -1.2895 H   0  0  0  0  0  0  0  0  0  0  0  0
   -0.0204    0.1662   -2.7840 C   0  0  0  0  0  0  0  0  0  0  0  0
   -0.9719   -0.5903   -2.7297 O   0  0  0  0  0  0  0  0  0  0  0  0
    0.7003    0.1812   -3.8843 N   0  0  0  0  0  0  0  0  0  0  0  0
    0.3962   -0.4545   -4.6012 H   0  0  0  0  0  0  0  0  0  0  0  0
    1.4909    0.7854   -3.9826 H   0  0  0  0  0  0  0  0  0  0  0  0
   -0.0637    0.1284    1.8555 C   0  0  0  0  0  0  0  0  0  0  0  0
    1.0918   -0.0745    2.2236 O   0  0  0  0  0  0  0  0  0  0  0  0
   -1.0024    0.6217    2.6735 N   0  0  0  0  0  0  0  0  0  0  0  0
   -1.9213    0.7848    2.2938 H   0  0  0  0  0  0  0  0  0  0  0  0
   -0.7639    0.9676    4.0741 C   0  0  0  0  0  0  0  0  0  0  0  0
    0.0520    1.6916    4.1400 H   0  0  0  0  0  0  0  0  0  0  0  0
   -1.6626    1.3984    4.5182 H   0  0  0  0  0  0  0  0  0  0  0  0
   -0.4775    0.0737    4.6309 H   0  0  0  0  0  0  0  0  0  0  0  0
  5  6  2  0  0  0  0
  5  7  1  0  0  0  0
  2  3  1  0  0  0  0
  2  4  1  0  0  0  0
  2  5  1  0  0  0  0
  1  2  1  0  0  0  0
 22 23  2  0  0  0  0
 22 24  1  0  0  0  0
 19 20  1  0  0  0  0
 19 21  1  0  0  0  0
 17 18  2  0  0  0  0
 17 19  1  0  0  0  0
 14 15  1  0  0  0  0
 14 16  1  0  0  0  0
 14 17  1  0  0  0  0
 11 12  1  0  0  0  0
 11 13  1  0  0  0  0
 11 14  1  0  0  0  0
  9 10  1  0  0  0  0
  9 11  1  0  0  0  0
  9 22  1  0  0  0  0
  7  8  1  0  0  0  0
  7  9  1  0  0  0  0
 26 27  1  0  0  0  0
 26 28  1  0  0  0  0
 26 29  1  0  0  0  0
 24 25  1  0  0  0  0
 24 26  1  0  0  0  0
M  END
$$$$
default_name
  -OEChem-02102213163D

 29 28  0     1  0  0  0  0  0999 V2000
   -3.3998   -3.6239    1.3678 H   0  0  0  0  0  0  0  0  0  0  0  0
   -3.3608   -2.6749    0.8348 C   0  0  0  0  0  0  0  0  0  0  0  0
   -4.0988   -1.9909    1.2498 H   0  0  0  0  0  0  0  0  0  0  0  0
   -3.5618   -2.8419   -0.2222 H   0  0  0  0  0  0  0  0  0  0  0  0
   -1.9818   -2.0809    0.9918 C   0  0  0  0  0  0  0  0  0  0  0  0
   -1.1288   -2.6669    1.6468 O   0  0  0  0  0  0  0  0  0  0  0  0
   -1.7648   -0.9089    0.3998 N   0  0  0  0  0  0  0  0  0  0  0  0
   -2.5238   -0.4719   -0.1032 H   0  0  0  0  0  0  0  0  0  0  0  0
   -0.4848   -0.1959    0.4138 C   0  0  1  0  0  0  0  0  0  0  0  0
    0.2783   -0.8411   -0.0248 H   0  0  0  0  0  0  0  0  0  0  0  0
   -0.6101    1.0666   -0.4611 C   0  0  0  0  0  0  0  0  0  0  0  0
   -1.6267    1.1100   -0.8576 H   0  0  0  0  0  0  0  0  0  0  0  0
   -0.4486    1.9485    0.1606 H   0  0  0  0  0  0  0  0  0  0  0  0
    0.3736    1.1047   -1.6436 C   0  0  0  0  0  0  0  0  0  0  0  0
    0.6323    2.1382   -1.8728 H   0  0  0  0  0  0  0  0  0  0  0  0
    1.2826    0.5718   -1.3648 H   0  0  0  0  0  0  0  0  0  0  0  0
   -0.1878    0.4657   -2.9137 C   0  0  0  0  0  0  0  0  0  0  0  0
   -1.2716   -0.0853   -2.9628 O   0  0  0  0  0  0  0  0  0  0  0  0
    0.5327    0.5201   -4.0128 N   0  0  0  0  0  0  0  0  0  0  0  0
    0.1154    0.0854   -4.8174 H   0  0  0  0  0  0  0  0  0  0  0  0
    1.4289    0.9632   -4.0285 H   0  0  0  0  0  0  0  0  0  0  0  0
   -0.0637    0.1284    1.8555 C   0  0  0  0  0  0  0  0  0  0  0  0
    1.0918   -0.0745    2.2236 O   0  0  0  0  0  0  0  0  0  0  0  0
   -1.0024    0.6217    2.6735 N   0  0  0  0  0  0  0  0  0  0  0  0
   -1.9213    0.7848    2.2938 H   0  0  0  0  0  0  0  0  0  0  0  0
   -0.7639    0.9676    4.0741 C   0  0  0  0  0  0  0  0  0  0  0  0
    0.0520    1.6916    4.1400 H   0  0  0  0  0  0  0  0  0  0  0  0
   -1.6626    1.3984    4.5182 H   0  0  0  0  0  0  0  0  0  0  0  0
   -0.4775    0.0737    4.6309 H   0  0  0  0  0  0  0  0  0  0  0  0
  5  6  2  0  0  0  0
  5  7  1  0  0  0  0
  2  3  1  0  0  0  0
  2  4  1  0  0  0  0
  2  5  1  0  0  0  0
  1  2  1  0  0  0  0
 22 23  2  0  0  0  0
 22 24  1  0  0  0  0
 19 20  1  0  0  0  0
 19 21  1  0  0  0  0
 17 18  2  0  0  0  0
 17 19  1  0  0  0  0
 14 15  1  0  0  0  0
 14 16  1  0  0  0  0
 14 17  1  0  0  0  0
 11 12  1  0  0  0  0
 11 13  1  0  0  0  0
 11 14  1  0  0  0  0
  9 10  1  0  0  0  0
  9 11  1  0  0  0  0
  9 22  1  0  0  0  0
  7  8  1  0  0  0  0
  7  9  1  0  0  0  0
 26 27  1  0  0  0  0
 26 28  1  0  0  0  0
 26 29  1  0  0  0  0
 24 25  1  0  0  0  0
 24 26  1  0  0  0  0
M  END
$$$$
default_name
  -OEChem-02102213163D

 29 28  0     1  0  0  0  0  0999 V2000
   -3.3998   -3.6239    1.3678 H   0  0  0  0  0  0  0  0  0  0  0  0
   -3.3608   -2.6749    0.8348 C   0  0  0  0  0  0  0  0  0  0  0  0
   -4.0988   -1.9909    1.2498 H   0  0  0  0  0  0  0  0  0  0  0  0
   -3.5618   -2.8419   -0.2222 H   0  0  0  0  0  0  0  0  0  0  0  0
   -1.9818   -2.0809    0.9918 C   0  0  0  0  0  0  0  0  0  0  0  0
   -1.1288   -2.6669    1.6468 O   0  0  0  0  0  0  0  0  0  0  0  0
   -1.7648   -0.9089    0.3998 N   0  0  0  0  0  0  0  0  0  0  0  0
   -2.5238   -0.4719   -0.1032 H   0  0  0  0  0  0  0  0  0  0  0  0
   -0.4848   -0.1959    0.4138 C   0  0  1  0  0  0  0  0  0  0  0  0
    0.2783   -0.8411   -0.0248 H   0  0  0  0  0  0  0  0  0  0  0  0
   -0.6101    1.0666   -0.4611 C   0  0  0  0  0  0  0  0  0  0  0  0
   -1.6267    1.1100   -0.8576 H   0  0  0  0  0  0  0  0  0  0  0  0
   -0.4486    1.9485    0.1606 H   0  0  0  0  0  0  0  0  0  0  0  0
    0.3736    1.1047   -1.6436 C   0  0  0  0  0  0  0  0  0  0  0  0
    0.8355    2.0898   -1.7052 H   0  0  0  0  0  0  0  0  0  0  0  0
    1.1551    0.3633   -1.4775 H   0  0  0  0  0  0  0  0  0  0  0  0
   -0.2908    0.8098   -2.9883 C   0  0  0  0  0  0  0  0  0  0  0  0
   -1.4621    0.5007   -3.1025 O   0  0  0  0  0  0  0  0  0  0  0  0
    0.4374    0.9020   -4.0798 N   0  0  0  0  0  0  0  0  0  0  0  0
   -0.0499    0.6985   -4.9352 H   0  0  0  0  0  0  0  0  0  0  0  0
    1.4041    1.1548   -4.0430 H   0  0  0  0  0  0  0  0  0  0  0  0
   -0.0637    0.1284    1.8555 C   0  0  0  0  0  0  0  0  0  0  0  0
    1.0918   -0.0745    2.2236 O   0  0  0  0  0  0  0  0  0  0  0  0
   -1.0024    0.6217    2.6735 N   0  0  0  0  0  0  0  0  0  0  0  0
   -1.9213    0.7848    2.2938 H   0  0  0  0  0  0  0  0  0  0  0  0
   -0.7639    0.9676    4.0741 C   0  0  0  0  0  0  0  0  0  0  0  0
    0.0520    1.6916    4.1400 H   0  0  0  0  0  0  0  0  0  0  0  0
   -1.6626    1.3984    4.5182 H   0  0  0  0  0  0  0  0  0  0  0  0
   -0.4775    0.0737    4.6309 H   0  0  0  0  0  0  0  0  0  0  0  0
  5  6  2  0  0  0  0
  5  7  1  0  0  0  0
  2  3  1  0  0  0  0
  2  4  1  0  0  0  0
  2  5  1  0  0  0  0
  1  2  1  0  0  0  0
 22 23  2  0  0  0  0
 22 24  1  0  0  0  0
 19 20  1  0  0  0  0
 19 21  1  0  0  0  0
 17 18  2  0  0  0  0
 17 19  1  0  0  0  0
 14 15  1  0  0  0  0
 14 16  1  0  0  0  0
 14 17  1  0  0  0  0
 11 12  1  0  0  0  0
 11 13  1  0  0  0  0
 11 14  1  0  0  0  0
  9 10  1  0  0  0  0
  9 11  1  0  0  0  0
  9 22  1  0  0  0  0
  7  8  1  0  0  0  0
  7  9  1  0  0  0  0
 26 27  1  0  0  0  0
 26 28  1  0  0  0  0
 26 29  1  0  0  0  0
 24 25  1  0  0  0  0
 24 26  1  0  0  0  0
M  END
$$$$
default_name
  -OEChem-02102213163D

 29 28  0     1  0  0  0  0  0999 V2000
   -3.3998   -3.6239    1.3678 H   0  0  0  0  0  0  0  0  0  0  0  0
   -3.3608   -2.6749    0.8348 C   0  0  0  0  0  0  0  0  0  0  0  0
   -4.0988   -1.9909    1.2498 H   0  0  0  0  0  0  0  0  0  0  0  0
   -3.5618   -2.8419   -0.2222 H   0  0  0  0  0  0  0  0  0  0  0  0
   -1.9818   -2.0809    0.9918 C   0  0  0  0  0  0  0  0  0  0  0  0
   -1.1288   -2.6669    1.6468 O   0  0  0  0  0  0  0  0  0  0  0  0
   -1.7648   -0.9089    0.3998 N   0  0  0  0  0  0  0  0  0  0  0  0
   -2.5238   -0.4719   -0.1032 H   0  0  0  0  0  0  0  0  0  0  0  0
   -0.4848   -0.1959    0.4138 C   0  0  1  0  0  0  0  0  0  0  0  0
    0.2783   -0.8411   -0.0248 H   0  0  0  0  0  0  0  0  0  0  0  0
   -0.6101    1.0666   -0.4611 C   0  0  0  0  0  0  0  0  0  0  0  0
   -1.6267    1.1100   -0.8576 H   0  0  0  0  0  0  0  0  0  0  0  0
   -0.4486    1.9485    0.1606 H   0  0  0  0  0  0  0  0  0  0  0  0
    0.3736    1.1047   -1.6436 C   0  0  0  0  0  0  0  0  0  0  0  0
    1.0234    1.9748   -1.5527 H   0  0  0  0  0  0  0  0  0  0  0  0
    0.9898    0.2059   -1.6201 H   0  0  0  0  0  0  0  0  0  0  0  0
   -0.3223    1.1751   -3.0028 C   0  0  0  0  0  0  0  0  0  0  0  0
   -1.5305    1.1278   -3.1392 O   0  0  0  0  0  0  0  0  0  0  0  0
    0.4209    1.3009   -4.0807 N   0  0  0  0  0  0  0  0  0  0  0  0
   -0.0883    1.3432   -4.9464 H   0  0  0  0  0  0  0  0  0  0  0  0
    1.4181    1.3473   -4.0251 H   0  0  0  0  0  0  0  0  0  0  0  0
   -0.0637    0.1284    1.8555 C   0  0  0  0  0  0  0  0  0  0  0  0
    1.0918   -0.0745    2.2236 O   0  0  0  0  0  0  0  0  0  0  0  0
   -1.0024    0.6217    2.6735 N   0  0  0  0  0  0  0  0  0  0  0  0
   -1.9213    0.7848    2.2938 H   0  0  0  0  0  0  0  0  0  0  0  0
   -0.7639    0.9676    4.0741 C   0  0  0  0  0  0  0  0  0  0  0  0
    0.0520    1.6916    4.1400 H   0  0  0  0  0  0  0  0  0  0  0  0
   -1.6626    1.3984    4.5182 H   0  0  0  0  0  0  0  0  0  0  0  0
   -0.4775    0.0737    4.6309 H   0  0  0  0  0  0  0  0  0  0  0  0
  5  6  2  0  0  0  0
  5  7  1  0  0  0  0
  2  3  1  0  0  0  0
  2  4  1  0  0  0  0
  2  5  1  0  0  0  0
  1  2  1  0  0  0  0
 22 23  2  0  0  0  0
 22 24  1  0  0  0  0
 19 20  1  0  0  0  0
 19 21  1  0  0  0  0
 17 18  2  0  0  0  0
 17 19  1  0  0  0  0
 14 15  1  0  0  0  0
 14 16  1  0  0  0  0
 14 17  1  0  0  0  0
 11 12  1  0  0  0  0
 11 13  1  0  0  0  0
 11 14  1  0  0  0  0
  9 10  1  0  0  0  0
  9 11  1  0  0  0  0
  9 22  1  0  0  0  0
  7  8  1  0  0  0  0
  7  9  1  0  0  0  0
 26 27  1  0  0  0  0
 26 28  1  0  0  0  0
 26 29  1  0  0  0  0
 24 25  1  0  0  0  0
 24 26  1  0  0  0  0
M  END
$$$$
default_name
  -OEChem-02102213163D

 29 28  0     1  0  0  0  0  0999 V2000
   -3.3998   -3.6239    1.3678 H   0  0  0  0  0  0  0  0  0  0  0  0
   -3.3608   -2.6749    0.8348 C   0  0  0  0  0  0  0  0  0  0  0  0
   -4.0988   -1.9909    1.2498 H   0  0  0  0  0  0  0  0  0  0  0  0
   -3.5618   -2.8419   -0.2222 H   0  0  0  0  0  0  0  0  0  0  0  0
   -1.9818   -2.0809    0.9918 C   0  0  0  0  0  0  0  0  0  0  0  0
   -1.1288   -2.6669    1.6468 O   0  0  0  0  0  0  0  0  0  0  0  0
   -1.7648   -0.9089    0.3998 N   0  0  0  0  0  0  0  0  0  0  0  0
   -2.5238   -0.4719   -0.1032 H   0  0  0  0  0  0  0  0  0  0  0  0
   -0.4848   -0.1959    0.4138 C   0  0  1  0  0  0  0  0  0  0  0  0
    0.2783   -0.8411   -0.0248 H   0  0  0  0  0  0  0  0  0  0  0  0
   -0.6101    1.0666   -0.4611 C   0  0  0  0  0  0  0  0  0  0  0  0
   -1.6267    1.1100   -0.8576 H   0  0  0  0  0  0  0  0  0  0  0  0
   -0.4486    1.9485    0.1606 H   0  0  0  0  0  0  0  0  0  0  0  0
    0.3736    1.1047   -1.6436 C   0  0  0  0  0  0  0  0  0  0  0  0
    1.1829    1.8012   -1.4255 H   0  0  0  0  0  0  0  0  0  0  0  0
    0.7979    0.1104   -1.7828 H   0  0  0  0  0  0  0  0  0  0  0  0
   -0.2802    1.5365   -2.9561 C   0  0  0  0  0  0  0  0  0  0  0  0
   -1.4721    1.7532   -3.0705 O   0  0  0  0  0  0  0  0  0  0  0  0
    0.4843    1.6897   -4.0155 N   0  0  0  0  0  0  0  0  0  0  0  0
    0.0028    1.9753   -4.8503 H   0  0  0  0  0  0  0  0  0  0  0  0
    1.4701    1.5275   -3.9760 H   0  0  0  0  0  0  0  0  0  0  0  0
   -0.0637    0.1284    1.8555 C   0  0  0  0  0  0  0  0  0  0  0  0
    1.0918   -0.0745    2.2236 O   0  0  0  0  0  0  0  0  0  0  0  0
   -1.0024    0.6217    2.6735 N   0  0  0  0  0  0  0  0  0  0  0  0
   -1.9213    0.7848    2.2938 H   0  0  0  0  0  0  0  0  0  0  0  0
   -0.7639    0.9676    4.0741 C   0  0  0  0  0  0  0  0  0  0  0  0
    0.0520    1.6916    4.1400 H   0  0  0  0  0  0  0  0  0  0  0  0
   -1.6626    1.3984    4.5182 H   0  0  0  0  0  0  0  0  0  0  0  0
   -0.4775    0.0737    4.6309 H   0  0  0  0  0  0  0  0  0  0  0  0
  5  6  2  0  0  0  0
  5  7  1  0  0  0  0
  2  3  1  0  0  0  0
  2  4  1  0  0  0  0
  2  5  1  0  0  0  0
  1  2  1  0  0  0  0
 22 23  2  0  0  0  0
 22 24  1  0  0  0  0
 19 20  1  0  0  0  0
 19 21  1  0  0  0  0
 17 18  2  0  0  0  0
 17 19  1  0  0  0  0
 14 15  1  0  0  0  0
 14 16  1  0  0  0  0
 14 17  1  0  0  0  0
 11 12  1  0  0  0  0
 11 13  1  0  0  0  0
 11 14  1  0  0  0  0
  9 10  1  0  0  0  0
  9 11  1  0  0  0  0
  9 22  1  0  0  0  0
  7  8  1  0  0  0  0
  7  9  1  0  0  0  0
 26 27  1  0  0  0  0
 26 28  1  0  0  0  0
 26 29  1  0  0  0  0
 24 25  1  0  0  0  0
 24 26  1  0  0  0  0
M  END
$$$$
default_name
  -OEChem-02102213163D

 29 28  0     1  0  0  0  0  0999 V2000
   -3.3998   -3.6239    1.3678 H   0  0  0  0  0  0  0  0  0  0  0  0
   -3.3608   -2.6749    0.8348 C   0  0  0  0  0  0  0  0  0  0  0  0
   -4.0988   -1.9909    1.2498 H   0  0  0  0  0  0  0  0  0  0  0  0
   -3.5618   -2.8419   -0.2222 H   0  0  0  0  0  0  0  0  0  0  0  0
   -1.9818   -2.0809    0.9918 C   0  0  0  0  0  0  0  0  0  0  0  0
   -1.1288   -2.6669    1.6468 O   0  0  0  0  0  0  0  0  0  0  0  0
   -1.7648   -0.9089    0.3998 N   0  0  0  0  0  0  0  0  0  0  0  0
   -2.5238   -0.4719   -0.1032 H   0  0  0  0  0  0  0  0  0  0  0  0
   -0.4848   -0.1959    0.4138 C   0  0  1  0  0  0  0  0  0  0  0  0
    0.2783   -0.8411   -0.0248 H   0  0  0  0  0  0  0  0  0  0  0  0
   -0.6101    1.0666   -0.4611 C   0  0  0  0  0  0  0  0  0  0  0  0
   -1.6267    1.1100   -0.8576 H   0  0  0  0  0  0  0  0  0  0  0  0
   -0.4486    1.9485    0.1606 H   0  0  0  0  0  0  0  0  0  0  0  0
    0.3736    1.1047   -1.6436 C   0  0  0  0  0  0  0  0  0  0  0  0
    1.3032    1.5807   -1.3325 H   0  0  0  0  0  0  0  0  0  0  0  0
    0.5925    0.0832   -1.9546 H   0  0  0  0  0  0  0  0  0  0  0  0
   -0.1673    1.8695   -2.8515 C   0  0  0  0  0  0  0  0  0  0  0  0
   -1.2908    2.3342   -2.9010 O   0  0  0  0  0  0  0  0  0  0  0  0
    0.6233    2.0419   -3.8885 N   0  0  0  0  0  0  0  0  0  0  0  0
    0.2171    2.5520   -4.6535 H   0  0  0  0  0  0  0  0  0  0  0  0
    1.5565    1.6830   -3.8992 H   0  0  0  0  0  0  0  0  0  0  0  0
   -0.0637    0.1284    1.8555 C   0  0  0  0  0  0  0  0  0  0  0  0
    1.0918   -0.0745    2.2236 O   0  0  0  0  0  0  0  0  0  0  0  0
   -1.0024    0.6217    2.6735 N   0  0  0  0  0  0  0  0  0  0  0  0
   -1.9213    0.7848    2.2938 H   0  0  0  0  0  0  0  0  0  0  0  0
   -0.7639    0.9676    4.0741 C   0  0  0  0  0  0  0  0  0  0  0  0
    0.0520    1.6916    4.1400 H   0  0  0  0  0  0  0  0  0  0  0  0
   -1.6626    1.3984    4.5182 H   0  0  0  0  0  0  0  0  0  0  0  0
   -0.4775    0.0737    4.6309 H   0  0  0  0  0  0  0  0  0  0  0  0
  5  6  2  0  0  0  0
  5  7  1  0  0  0  0
  2  3  1  0  0  0  0
  2  4  1  0  0  0  0
  2  5  1  0  0  0  0
  1  2  1  0  0  0  0
 22 23  2  0  0  0  0
 22 24  1  0  0  0  0
 19 20  1  0  0  0  0
 19 21  1  0  0  0  0
 17 18  2  0  0  0  0
 17 19  1  0  0  0  0
 14 15  1  0  0  0  0
 14 16  1  0  0  0  0
 14 17  1  0  0  0  0
 11 12  1  0  0  0  0
 11 13  1  0  0  0  0
 11 14  1  0  0  0  0
  9 10  1  0  0  0  0
  9 11  1  0  0  0  0
  9 22  1  0  0  0  0
  7  8  1  0  0  0  0
  7  9  1  0  0  0  0
 26 27  1  0  0  0  0
 26 28  1  0  0  0  0
 26 29  1  0  0  0  0
 24 25  1  0  0  0  0
 24 26  1  0  0  0  0
M  END
$$$$
default_name
  -OEChem-02102213163D

 29 28  0     1  0  0  0  0  0999 V2000
   -3.3998   -3.6239    1.3678 H   0  0  0  0  0  0  0  0  0  0  0  0
   -3.3608   -2.6749    0.8348 C   0  0  0  0  0  0  0  0  0  0  0  0
   -4.0988   -1.9909    1.2498 H   0  0  0  0  0  0  0  0  0  0  0  0
   -3.5618   -2.8419   -0.2222 H   0  0  0  0  0  0  0  0  0  0  0  0
   -1.9818   -2.0809    0.9918 C   0  0  0  0  0  0  0  0  0  0  0  0
   -1.1288   -2.6669    1.6468 O   0  0  0  0  0  0  0  0  0  0  0  0
   -1.7648   -0.9089    0.3998 N   0  0  0  0  0  0  0  0  0  0  0  0
   -2.5238   -0.4719   -0.1032 H   0  0  0  0  0  0  0  0  0  0  0  0
   -0.4848   -0.1959    0.4138 C   0  0  1  0  0  0  0  0  0  0  0  0
    0.2783   -0.8411   -0.0248 H   0  0  0  0  0  0  0  0  0  0  0  0
   -0.6101    1.0666   -0.4611 C   0  0  0  0  0  0  0  0  0  0  0  0
   -1.6267    1.1100   -0.8576 H   0  0  0  0  0  0  0  0  0  0  0  0
   -0.4486    1.9485    0.1606 H   0  0  0  0  0  0  0  0  0  0  0  0
    0.3736    1.1047   -1.6436 C   0  0  0  0  0  0  0  0  0  0  0  0
    1.3762    1.3284   -1.2799 H   0  0  0  0  0  0  0  0  0  0  0  0
    0.3876    0.1262   -2.1237 H   0  0  0  0  0  0  0  0  0  0  0  0
    0.0086    2.1514   -2.6961 C   0  0  0  0  0  0  0  0  0  0  0  0
   -0.9990    2.8314   -2.6422 O   0  0  0  0  0  0  0  0  0  0  0  0
    0.8284    2.3333   -3.7085 N   0  0  0  0  0  0  0  0  0  0  0  0
    0.5400    3.0337   -4.3694 H   0  0  0  0  0  0  0  0  0  0  0  0
    1.6713    1.8034   -3.7998 H   0  0  0  0  0  0  0  0  0  0  0  0
   -0.0637    0.1284    1.8555 C   0  0  0  0  0  0  0  0  0  0  0  0
    1.0918   -0.0745    2.2236 O   0  0  0  0  0  0  0  0  0  0  0  0
   -1.0024    0.6217    2.6735 N   0  0  0  0  0  0  0  0  0  0  0  0
   -1.9213    0.7848    2.2938 H   0  0  0  0  0  0  0  0  0  0  0  0
   -0.7639    0.9676    4.0741 C   0  0  0  0  0  0  0  0  0  0  0  0
    0.0520    1.6916    4.1400 H   0  0  0  0  0  0  0  0  0  0  0  0
   -1.6626    1.3984    4.5182 H   0  0  0  0  0  0  0  0  0  0  0  0
   -0.4775    0.0737    4.6309 H   0  0  0  0  0  0  0  0  0  0  0  0
  5  6  2  0  0  0  0
  5  7  1  0  0  0  0
  2  3  1  0  0  0  0
  2  4  1  0  0  0  0
  2  5  1  0  0  0  0
  1  2  1  0  0  0  0
 22 23  2  0  0  0  0
 22 24  1  0  0  0  0
 19 20  1  0  0  0  0
 19 21  1  0  0  0  0
 17 18  2  0  0  0  0
 17 19  1  0  0  0  0
 14 15  1  0  0  0  0
 14 16  1  0  0  0  0
 14 17  1  0  0  0  0
 11 12  1  0  0  0  0
 11 13  1  0  0  0  0
 11 14  1  0  0  0  0
  9 10  1  0  0  0  0
  9 11  1  0  0  0  0
  9 22  1  0  0  0  0
  7  8  1  0  0  0  0
  7  9  1  0  0  0  0
 26 27  1  0  0  0  0
 26 28  1  0  0  0  0
 26 29  1  0  0  0  0
 24 25  1  0  0  0  0
 24 26  1  0  0  0  0
M  END
$$$$
default_name
  -OEChem-02102213163D

 29 28  0     1  0  0  0  0  0999 V2000
   -3.3998   -3.6239    1.3678 H   0  0  0  0  0  0  0  0  0  0  0  0
   -3.3608   -2.6749    0.8348 C   0  0  0  0  0  0  0  0  0  0  0  0
   -4.0988   -1.9909    1.2498 H   0  0  0  0  0  0  0  0  0  0  0  0
   -3.5618   -2.8419   -0.2222 H   0  0  0  0  0  0  0  0  0  0  0  0
   -1.9818   -2.0809    0.9918 C   0  0  0  0  0  0  0  0  0  0  0  0
   -1.1288   -2.6669    1.6468 O   0  0  0  0  0  0  0  0  0  0  0  0
   -1.7648   -0.9089    0.3998 N   0  0  0  0  0  0  0  0  0  0  0  0
   -2.5238   -0.4719   -0.1032 H   0  0  0  0  0  0  0  0  0  0  0  0
   -0.4848   -0.1959    0.4138 C   0  0  1  0  0  0  0  0  0  0  0  0
    0.2783   -0.8411   -0.0248 H   0  0  0  0  0  0  0  0  0  0  0  0
   -0.6101    1.0666   -0.4611 C   0  0  0  0  0  0  0  0  0  0  0  0
   -1.6707    1.2591   -0.6361 H   0  0  0  0  0  0  0  0  0  0  0  0
   -0.1937    1.9178    0.0797 H   0  0  0  0  0  0  0  0  0  0  0  0
    0.0932    0.9513   -1.8247 C   0  0  0  0  0  0  0  0  0  0  0  0
    1.1552    0.7579   -1.6748 H   0  0  0  0  0  0  0  0  0  0  0  0
   -0.3385    0.1159   -2.3759 H   0  0  0  0  0  0  0  0  0  0  0  0
   -0.0411    2.2117   -2.6791 C   0  0  0  0  0  0  0  0  0  0  0  0
   -0.7016    3.1781   -2.3470 O   0  0  0  0  0  0  0  0  0  0  0  0
    0.5956    2.2590   -3.8292 N   0  0  0  0  0  0  0  0  0  0  0  0
    0.4730    3.1106   -4.3490 H   0  0  0  0  0  0  0  0  0  0  0  0
    1.1542    1.4938   -4.1488 H   0  0  0  0  0  0  0  0  0  0  0  0
   -0.0637    0.1284    1.8555 C   0  0  0  0  0  0  0  0  0  0  0  0
    1.0918   -0.0745    2.2236 O   0  0  0  0  0  0  0  0  0  0  0  0
   -1.0024    0.6217    2.6735 N   0  0  0  0  0  0  0  0  0  0  0  0
   -1.9213    0.7848    2.2938 H   0  0  0  0  0  0  0  0  0  0  0  0
   -0.7639    0.9676    4.0741 C   0  0  0  0  0  0  0  0  0  0  0  0
    0.0520    1.6916    4.1400 H   0  0  0  0  0  0  0  0  0  0  0  0
   -1.6626    1.3984    4.5182 H   0  0  0  0  0  0  0  0  0  0  0  0
   -0.4775    0.0737    4.6309 H   0  0  0  0  0  0  0  0  0  0  0  0
  5  6  2  0  0  0  0
  5  7  1  0  0  0  0
  2  3  1  0  0  0  0
  2  4  1  0  0  0  0
  2  5  1  0  0  0  0
  1  2  1  0  0  0  0
 22 23  2  0  0  0  0
 22 24  1  0  0  0  0
 19 20  1  0  0  0  0
 19 21  1  0  0  0  0
 17 18  2  0  0  0  0
 17 19  1  0  0  0  0
 14 15  1  0  0  0  0
 14 16  1  0  0  0  0
 14 17  1  0  0  0  0
 11 12  1  0  0  0  0
 11 13  1  0  0  0  0
 11 14  1  0  0  0  0
  9 10  1  0  0  0  0
  9 11  1  0  0  0  0
  9 22  1  0  0  0  0
  7  8  1  0  0  0  0
  7  9  1  0  0  0  0
 26 27  1  0  0  0  0
 26 28  1  0  0  0  0
 26 29  1  0  0  0  0
 24 25  1  0  0  0  0
 24 26  1  0  0  0  0
M  END
$$$$
default_name
  -OEChem-02102213163D

 29 28  0     1  0  0  0  0  0999 V2000
   -3.3998   -3.6239    1.3678 H   0  0  0  0  0  0  0  0  0  0  0  0
   -3.3608   -2.6749    0.8348 C   0  0  0  0  0  0  0  0  0  0  0  0
   -4.0988   -1.9909    1.2498 H   0  0  0  0  0  0  0  0  0  0  0  0
   -3.5618   -2.8419   -0.2222 H   0  0  0  0  0  0  0  0  0  0  0  0
   -1.9818   -2.0809    0.9918 C   0  0  0  0  0  0  0  0  0  0  0  0
   -1.1288   -2.6669    1.6468 O   0  0  0  0  0  0  0  0  0  0  0  0
   -1.7648   -0.9089    0.3998 N   0  0  0  0  0  0  0  0  0  0  0  0
   -2.5238   -0.4719   -0.1032 H   0  0  0  0  0  0  0  0  0  0  0  0
   -0.4848   -0.1959    0.4138 C   0  0  1  0  0  0  0  0  0  0  0  0
    0.2783   -0.8411   -0.0248 H   0  0  0  0  0  0  0  0  0  0  0  0
   -0.6101    1.0666   -0.4611 C   0  0  0  0  0  0  0  0  0  0  0  0
   -1.6707    1.2591   -0.6361 H   0  0  0  0  0  0  0  0  0  0  0  0
   -0.1937    1.9178    0.0797 H   0  0  0  0  0  0  0  0  0  0  0  0
    0.0932    0.9513   -1.8247 C   0  0  0  0  0  0  0  0  0  0  0  0
    1.0774    0.5022   -1.6933 H   0  0  0  0  0  0  0  0  0  0  0  0
   -0.4992    0.3077   -2.4750 H   0  0  0  0  0  0  0  0  0  0  0  0
    0.2786    2.2991   -2.5217 C   0  0  0  0  0  0  0  0  0  0  0  0
   -0.1547    3.3465   -2.0791 O   0  0  0  0  0  0  0  0  0  0  0  0
    0.9470    2.3315   -3.6541 N   0  0  0  0  0  0  0  0  0  0  0  0
    1.0393    3.2428   -4.0681 H   0  0  0  0  0  0  0  0  0  0  0  0
    1.3266    1.5005   -4.0605 H   0  0  0  0  0  0  0  0  0  0  0  0
   -0.0637    0.1284    1.8555 C   0  0  0  0  0  0  0  0  0  0  0  0
    1.0918   -0.0745    2.2236 O   0  0  0  0  0  0  0  0  0  0  0  0
   -1.0024    0.6217    2.6735 N   0  0  0  0  0  0  0  0  0  0  0  0
   -1.9213    0.7848    2.2938 H   0  0  0  0  0  0  0  0  0  0  0  0
   -0.7639    0.9676    4.0741 C   0  0  0  0  0  0  0  0  0  0  0  0
    0.0520    1.6916    4.1400 H   0  0  0  0  0  0  0  0  0  0  0  0
   -1.6626    1.3984    4.5182 H   0  0  0  0  0  0  0  0  0  0  0  0
   -0.4775    0.0737    4.6309 H   0  0  0  0  0  0  0  0  0  0  0  0
  5  6  2  0  0  0  0
  5  7  1  0  0  0  0
  2  3  1  0  0  0  0
  2  4  1  0  0  0  0
  2  5  1  0  0  0  0
  1  2  1  0  0  0  0
 22 23  2  0  0  0  0
 22 24  1  0  0  0  0
 19 20  1  0  0  0  0
 19 21  1  0  0  0  0
 17 18  2  0  0  0  0
 17 19  1  0  0  0  0
 14 15  1  0  0  0  0
 14 16  1  0  0  0  0
 14 17  1  0  0  0  0
 11 12  1  0  0  0  0
 11 13  1  0  0  0  0
 11 14  1  0  0  0  0
  9 10  1  0  0  0  0
  9 11  1  0  0  0  0
  9 22  1  0  0  0  0
  7  8  1  0  0  0  0
  7  9  1  0  0  0  0
 26 27  1  0  0  0  0
 26 28  1  0  0  0  0
 26 29  1  0  0  0  0
 24 25  1  0  0  0  0
 24 26  1  0  0  0  0
M  END
$$$$
default_name
  -OEChem-02102213163D

 29 28  0     1  0  0  0  0  0999 V2000
   -3.3998   -3.6239    1.3678 H   0  0  0  0  0  0  0  0  0  0  0  0
   -3.3608   -2.6749    0.8348 C   0  0  0  0  0  0  0  0  0  0  0  0
   -4.0988   -1.9909    1.2498 H   0  0  0  0  0  0  0  0  0  0  0  0
   -3.5618   -2.8419   -0.2222 H   0  0  0  0  0  0  0  0  0  0  0  0
   -1.9818   -2.0809    0.9918 C   0  0  0  0  0  0  0  0  0  0  0  0
   -1.1288   -2.6669    1.6468 O   0  0  0  0  0  0  0  0  0  0  0  0
   -1.7648   -0.9089    0.3998 N   0  0  0  0  0  0  0  0  0  0  0  0
   -2.5238   -0.4719   -0.1032 H   0  0  0  0  0  0  0  0  0  0  0  0
   -0.4848   -0.1959    0.4138 C   0  0  1  0  0  0  0  0  0  0  0  0
    0.2783   -0.8411   -0.0248 H   0  0  0  0  0  0  0  0  0  0  0  0
   -0.6101    1.0666   -0.4611 C   0  0  0  0  0  0  0  0  0  0  0  0
   -1.6707    1.2591   -0.6361 H   0  0  0  0  0  0  0  0  0  0  0  0
   -0.1937    1.9178    0.0797 H   0  0  0  0  0  0  0  0  0  0  0  0
    0.0932    0.9513   -1.8247 C   0  0  0  0  0  0  0  0  0  0  0  0
    0.9440    0.2753   -1.7429 H   0  0  0  0  0  0  0  0  0  0  0  0
   -0.6085    0.5415   -2.5511 H   0  0  0  0  0  0  0  0  0  0  0  0
    0.6043    2.2916   -2.3530 C   0  0  0  0  0  0  0  0  0  0  0  0
    0.4071    3.3520   -1.7898 O   0  0  0  0  0  0  0  0  0  0  0  0
    1.2997    2.3002   -3.4695 N   0  0  0  0  0  0  0  0  0  0  0  0
    1.6113    3.2074   -3.7701 H   0  0  0  0  0  0  0  0  0  0  0  0
    1.4929    1.4570   -3.9710 H   0  0  0  0  0  0  0  0  0  0  0  0
   -0.0637    0.1284    1.8555 C   0  0  0  0  0  0  0  0  0  0  0  0
    1.0918   -0.0745    2.2236 O   0  0  0  0  0  0  0  0  0  0  0  0
   -1.0024    0.6217    2.6735 N   0  0  0  0  0  0  0  0  0  0  0  0
   -1.9213    0.7848    2.2938 H   0  0  0  0  0  0  0  0  0  0  0  0
   -0.7639    0.9676    4.0741 C   0  0  0  0  0  0  0  0  0  0  0  0
    0.0520    1.6916    4.1400 H   0  0  0  0  0  0  0  0  0  0  0  0
   -1.6626    1.3984    4.5182 H   0  0  0  0  0  0  0  0  0  0  0  0
   -0.4775    0.0737    4.6309 H   0  0  0  0  0  0  0  0  0  0  0  0
  5  6  2  0  0  0  0
  5  7  1  0  0  0  0
  2  3  1  0  0  0  0
  2  4  1  0  0  0  0
  2  5  1  0  0  0  0
  1  2  1  0  0  0  0
 22 23  2  0  0  0  0
 22 24  1  0  0  0  0
 19 20  1  0  0  0  0
 19 21  1  0  0  0  0
 17 18  2  0  0  0  0
 17 19  1  0  0  0  0
 14 15  1  0  0  0  0
 14 16  1  0  0  0  0
 14 17  1  0  0  0  0
 11 12  1  0  0  0  0
 11 13  1  0  0  0  0
 11 14  1  0  0  0  0
  9 10  1  0  0  0  0
  9 11  1  0  0  0  0
  9 22  1  0  0  0  0
  7  8  1  0  0  0  0
  7  9  1  0  0  0  0
 26 27  1  0  0  0  0
 26 28  1  0  0  0  0
 26 29  1  0  0  0  0
 24 25  1  0  0  0  0
 24 26  1  0  0  0  0
M  END
$$$$
default_name
  -OEChem-02102213163D

 29 28  0     1  0  0  0  0  0999 V2000
   -3.3998   -3.6239    1.3678 H   0  0  0  0  0  0  0  0  0  0  0  0
   -3.3608   -2.6749    0.8348 C   0  0  0  0  0  0  0  0  0  0  0  0
   -4.0988   -1.9909    1.2498 H   0  0  0  0  0  0  0  0  0  0  0  0
   -3.5618   -2.8419   -0.2222 H   0  0  0  0  0  0  0  0  0  0  0  0
   -1.9818   -2.0809    0.9918 C   0  0  0  0  0  0  0  0  0  0  0  0
   -1.1288   -2.6669    1.6468 O   0  0  0  0  0  0  0  0  0  0  0  0
   -1.7648   -0.9089    0.3998 N   0  0  0  0  0  0  0  0  0  0  0  0
   -2.5238   -0.4719   -0.1032 H   0  0  0  0  0  0  0  0  0  0  0  0
   -0.4848   -0.1959    0.4138 C   0  0  1  0  0  0  0  0  0  0  0  0
    0.2783   -0.8411   -0.0248 H   0  0  0  0  0  0  0  0  0  0  0  0
   -0.6101    1.0666   -0.4611 C   0  0  0  0  0  0  0  0  0  0  0  0
   -1.6707    1.2591   -0.6361 H   0  0  0  0  0  0  0  0  0  0  0  0
   -0.1937    1.9178    0.0797 H   0  0  0  0  0  0  0  0  0  0  0  0
    0.0932    0.9513   -1.8247 C   0  0  0  0  0  0  0  0  0  0  0  0
    0.7641    0.0925   -1.8202 H   0  0  0  0  0  0  0  0  0  0  0  0
   -0.6590    0.8015   -2.5992 H   0  0  0  0  0  0  0  0  0  0  0  0
    0.9139    2.1896   -2.1847 C   0  0  0  0  0  0  0  0  0  0  0  0
    0.9453    3.1942   -1.4989 O   0  0  0  0  0  0  0  0  0  0  0  0
    1.6296    2.1672   -3.2881 N   0  0  0  0  0  0  0  0  0  0  0  0
    2.1498    3.0067   -3.4753 H   0  0  0  0  0  0  0  0  0  0  0  0
    1.6419    1.3663   -3.8865 H   0  0  0  0  0  0  0  0  0  0  0  0
   -0.0637    0.1284    1.8555 C   0  0  0  0  0  0  0  0  0  0  0  0
    1.0918   -0.0745    2.2236 O   0  0  0  0  0  0  0  0  0  0  0  0
   -1.0024    0.6217    2.6735 N   0  0  0  0  0  0  0  0  0  0  0  0
   -1.9213    0.7848    2.2938 H   0  0  0  0  0  0  0  0  0  0  0  0
   -0.7639    0.9676    4.0741 C   0  0  0  0  0  0  0  0  0  0  0  0
    0.0520    1.6916    4.1400 H   0  0  0  0  0  0  0  0  0  0  0  0
   -1.6626    1.3984    4.5182 H   0  0  0  0  0  0  0  0  0  0  0  0
   -0.4775    0.0737    4.6309 H   0  0  0  0  0  0  0  0  0  0  0  0
  5  6  2  0  0  0  0
  5  7  1  0  0  0  0
  2  3  1  0  0  0  0
  2  4  1  0  0  0  0
  2  5  1  0  0  0  0
  1  2  1  0  0  0  0
 22 23  2  0  0  0  0
 22 24  1  0  0  0  0
 19 20  1  0  0  0  0
 19 21  1  0  0  0  0
 17 18  2  0  0  0  0
 17 19  1  0  0  0  0
 14 15  1  0  0  0  0
 14 16  1  0  0  0  0
 14 17  1  0  0  0  0
 11 12  1  0  0  0  0
 11 13  1  0  0  0  0
 11 14  1  0  0  0  0
  9 10  1  0  0  0  0
  9 11  1  0  0  0  0
  9 22  1  0  0  0  0
  7  8  1  0  0  0  0
  7  9  1  0  0  0  0
 26 27  1  0  0  0  0
 26 28  1  0  0  0  0
 26 29  1  0  0  0  0
 24 25  1  0  0  0  0
 24 26  1  0  0  0  0
M  END
$$$$
default_name
  -OEChem-02102213163D

 29 28  0     1  0  0  0  0  0999 V2000
   -3.3998   -3.6239    1.3678 H   0  0  0  0  0  0  0  0  0  0  0  0
   -3.3608   -2.6749    0.8348 C   0  0  0  0  0  0  0  0  0  0  0  0
   -4.0988   -1.9909    1.2498 H   0  0  0  0  0  0  0  0  0  0  0  0
   -3.5618   -2.8419   -0.2222 H   0  0  0  0  0  0  0  0  0  0  0  0
   -1.9818   -2.0809    0.9918 C   0  0  0  0  0  0  0  0  0  0  0  0
   -1.1288   -2.6669    1.6468 O   0  0  0  0  0  0  0  0  0  0  0  0
   -1.7648   -0.9089    0.3998 N   0  0  0  0  0  0  0  0  0  0  0  0
   -2.5238   -0.4719   -0.1032 H   0  0  0  0  0  0  0  0  0  0  0  0
   -0.4848   -0.1959    0.4138 C   0  0  1  0  0  0  0  0  0  0  0  0
    0.2783   -0.8411   -0.0248 H   0  0  0  0  0  0  0  0  0  0  0  0
   -0.6101    1.0666   -0.4611 C   0  0  0  0  0  0  0  0  0  0  0  0
   -1.6707    1.2591   -0.6361 H   0  0  0  0  0  0  0  0  0  0  0  0
   -0.1937    1.9178    0.0797 H   0  0  0  0  0  0  0  0  0  0  0  0
    0.0932    0.9513   -1.8247 C   0  0  0  0  0  0  0  0  0  0  0  0
    0.5499   -0.0336   -1.9201 H   0  0  0  0  0  0  0  0  0  0  0  0
   -0.6472    1.0699   -2.6158 H   0  0  0  0  0  0  0  0  0  0  0  0
    1.1863    2.0002   -2.0282 C   0  0  0  0  0  0  0  0  0  0  0  0
    1.4234    2.8840   -1.2260 O   0  0  0  0  0  0  0  0  0  0  0  0
    1.9142    1.9416   -3.1222 N   0  0  0  0  0  0  0  0  0  0  0  0
    2.6182    2.6545   -3.2039 H   0  0  0  0  0  0  0  0  0  0  0  0
    1.7633    1.2344   -3.8127 H   0  0  0  0  0  0  0  0  0  0  0  0
   -0.0637    0.1284    1.8555 C   0  0  0  0  0  0  0  0  0  0  0  0
    1.0918   -0.0745    2.2236 O   0  0  0  0  0  0  0  0  0  0  0  0
   -1.0024    0.6217    2.6735 N   0  0  0  0  0  0  0  0  0  0  0  0
   -1.9213    0.7848    2.2938 H   0  0  0  0  0  0  0  0  0  0  0  0
   -0.7639    0.9676    4.0741 C   0  0  0  0  0  0  0  0  0  0  0  0
    0.0520    1.6916    4.1400 H   0  0  0  0  0  0  0  0  0  0  0  0
   -1.6626    1.3984    4.5182 H   0  0  0  0  0  0  0  0  0  0  0  0
   -0.4775    0.0737    4.6309 H   0  0  0  0  0  0  0  0  0  0  0  0
  5  6  2  0  0  0  0
  5  7  1  0  0  0  0
  2  3  1  0  0  0  0
  2  4  1  0  0  0  0
  2  5  1  0  0  0  0
  1  2  1  0  0  0  0
 22 23  2  0  0  0  0
 22 24  1  0  0  0  0
 19 20  1  0  0  0  0
 19 21  1  0  0  0  0
 17 18  2  0  0  0  0
 17 19  1  0  0  0  0
 14 15  1  0  0  0  0
 14 16  1  0  0  0  0
 14 17  1  0  0  0  0
 11 12  1  0  0  0  0
 11 13  1  0  0  0  0
 11 14  1  0  0  0  0
  9 10  1  0  0  0  0
  9 11  1  0  0  0  0
  9 22  1  0  0  0  0
  7  8  1  0  0  0  0
  7  9  1  0  0  0  0
 26 27  1  0  0  0  0
 26 28  1  0  0  0  0
 26 29  1  0  0  0  0
 24 25  1  0  0  0  0
 24 26  1  0  0  0  0
M  END
$$$$
default_name
  -OEChem-02102213163D

 29 28  0     1  0  0  0  0  0999 V2000
   -3.3998   -3.6239    1.3678 H   0  0  0  0  0  0  0  0  0  0  0  0
   -3.3608   -2.6749    0.8348 C   0  0  0  0  0  0  0  0  0  0  0  0
   -4.0988   -1.9909    1.2498 H   0  0  0  0  0  0  0  0  0  0  0  0
   -3.5618   -2.8419   -0.2222 H   0  0  0  0  0  0  0  0  0  0  0  0
   -1.9818   -2.0809    0.9918 C   0  0  0  0  0  0  0  0  0  0  0  0
   -1.1288   -2.6669    1.6468 O   0  0  0  0  0  0  0  0  0  0  0  0
   -1.7648   -0.9089    0.3998 N   0  0  0  0  0  0  0  0  0  0  0  0
   -2.5238   -0.4719   -0.1032 H   0  0  0  0  0  0  0  0  0  0  0  0
   -0.4848   -0.1959    0.4138 C   0  0  1  0  0  0  0  0  0  0  0  0
    0.2783   -0.8411   -0.0248 H   0  0  0  0  0  0  0  0  0  0  0  0
   -0.6101    1.0666   -0.4611 C   0  0  0  0  0  0  0  0  0  0  0  0
   -1.6707    1.2591   -0.6361 H   0  0  0  0  0  0  0  0  0  0  0  0
   -0.1937    1.9178    0.0797 H   0  0  0  0  0  0  0  0  0  0  0  0
    0.0932    0.9513   -1.8247 C   0  0  0  0  0  0  0  0  0  0  0  0
    0.3160   -0.0944   -2.0356 H   0  0  0  0  0  0  0  0  0  0  0  0
   -0.5739    1.3283   -2.5998 H   0  0  0  0  0  0  0  0  0  0  0  0
    1.4030    1.7363   -1.8941 C   0  0  0  0  0  0  0  0  0  0  0  0
    1.8087    2.4423   -0.9899 O   0  0  0  0  0  0  0  0  0  0  0  0
    2.1342    1.6388   -2.9831 N   0  0  0  0  0  0  0  0  0  0  0  0
    2.9846    2.1747   -2.9744 H   0  0  0  0  0  0  0  0  0  0  0  0
    1.8489    1.0705   -3.7547 H   0  0  0  0  0  0  0  0  0  0  0  0
   -0.0637    0.1284    1.8555 C   0  0  0  0  0  0  0  0  0  0  0  0
    1.0918   -0.0745    2.2236 O   0  0  0  0  0  0  0  0  0  0  0  0
   -1.0024    0.6217    2.6735 N   0  0  0  0  0  0  0  0  0  0  0  0
   -1.9213    0.7848    2.2938 H   0  0  0  0  0  0  0  0  0  0  0  0
   -0.7639    0.9676    4.0741 C   0  0  0  0  0  0  0  0  0  0  0  0
    0.0520    1.6916    4.1400 H   0  0  0  0  0  0  0  0  0  0  0  0
   -1.6626    1.3984    4.5182 H   0  0  0  0  0  0  0  0  0  0  0  0
   -0.4775    0.0737    4.6309 H   0  0  0  0  0  0  0  0  0  0  0  0
  5  6  2  0  0  0  0
  5  7  1  0  0  0  0
  2  3  1  0  0  0  0
  2  4  1  0  0  0  0
  2  5  1  0  0  0  0
  1  2  1  0  0  0  0
 22 23  2  0  0  0  0
 22 24  1  0  0  0  0
 19 20  1  0  0  0  0
 19 21  1  0  0  0  0
 17 18  2  0  0  0  0
 17 19  1  0  0  0  0
 14 15  1  0  0  0  0
 14 16  1  0  0  0  0
 14 17  1  0  0  0  0
 11 12  1  0  0  0  0
 11 13  1  0  0  0  0
 11 14  1  0  0  0  0
  9 10  1  0  0  0  0
  9 11  1  0  0  0  0
  9 22  1  0  0  0  0
  7  8  1  0  0  0  0
  7  9  1  0  0  0  0
 26 27  1  0  0  0  0
 26 28  1  0  0  0  0
 26 29  1  0  0  0  0
 24 25  1  0  0  0  0
 24 26  1  0  0  0  0
M  END
$$$$
default_name
  -OEChem-02102213163D

 29 28  0     1  0  0  0  0  0999 V2000
   -3.3998   -3.6239    1.3678 H   0  0  0  0  0  0  0  0  0  0  0  0
   -3.3608   -2.6749    0.8348 C   0  0  0  0  0  0  0  0  0  0  0  0
   -4.0988   -1.9909    1.2498 H   0  0  0  0  0  0  0  0  0  0  0  0
   -3.5618   -2.8419   -0.2222 H   0  0  0  0  0  0  0  0  0  0  0  0
   -1.9818   -2.0809    0.9918 C   0  0  0  0  0  0  0  0  0  0  0  0
   -1.1288   -2.6669    1.6468 O   0  0  0  0  0  0  0  0  0  0  0  0
   -1.7648   -0.9089    0.3998 N   0  0  0  0  0  0  0  0  0  0  0  0
   -2.5238   -0.4719   -0.1032 H   0  0  0  0  0  0  0  0  0  0  0  0
   -0.4848   -0.1959    0.4138 C   0  0  1  0  0  0  0  0  0  0  0  0
    0.2783   -0.8411   -0.0248 H   0  0  0  0  0  0  0  0  0  0  0  0
   -0.6101    1.0666   -0.4611 C   0  0  0  0  0  0  0  0  0  0  0  0
   -1.6707    1.2591   -0.6361 H   0  0  0  0  0  0  0  0  0  0  0  0
   -0.1937    1.9178    0.0797 H   0  0  0  0  0  0  0  0  0  0  0  0
    0.0932    0.9513   -1.8247 C   0  0  0  0  0  0  0  0  0  0  0  0
    0.0783   -0.0859   -2.1589 H   0  0  0  0  0  0  0  0  0  0  0  0
   -0.4441    1.5593   -2.5524 H   0  0  0  0  0  0  0  0  0  0  0  0
    1.5491    1.4158   -1.7916 C   0  0  0  0  0  0  0  0  0  0  0  0
    2.0750    1.8995   -0.8067 O   0  0  0  0  0  0  0  0  0  0  0  0
    2.2746    1.2794   -2.8804 N   0  0  0  0  0  0  0  0  0  0  0  0
    3.2241    1.6001   -2.8023 H   0  0  0  0  0  0  0  0  0  0  0  0
    1.8928    0.8857   -3.7164 H   0  0  0  0  0  0  0  0  0  0  0  0
   -0.0637    0.1284    1.8555 C   0  0  0  0  0  0  0  0  0  0  0  0
    1.0918   -0.0745    2.2236 O   0  0  0  0  0  0  0  0  0  0  0  0
   -1.0024    0.6217    2.6735 N   0  0  0  0  0  0  0  0  0  0  0  0
   -1.9213    0.7848    2.2938 H   0  0  0  0  0  0  0  0  0  0  0  0
   -0.7639    0.9676    4.0741 C   0  0  0  0  0  0  0  0  0  0  0  0
    0.0520    1.6916    4.1400 H   0  0  0  0  0  0  0  0  0  0  0  0
   -1.6626    1.3984    4.5182 H   0  0  0  0  0  0  0  0  0  0  0  0
   -0.4775    0.0737    4.6309 H   0  0  0  0  0  0  0  0  0  0  0  0
  5  6  2  0  0  0  0
  5  7  1  0  0  0  0
  2  3  1  0  0  0  0
  2  4  1  0  0  0  0
  2  5  1  0  0  0  0
  1  2  1  0  0  0  0
 22 23  2  0  0  0  0
 22 24  1  0  0  0  0
 19 20  1  0  0  0  0
 19 21  1  0  0  0  0
 17 18  2  0  0  0  0
 17 19  1  0  0  0  0
 14 15  1  0  0  0  0
 14 16  1  0  0  0  0
 14 17  1  0  0  0  0
 11 12  1  0  0  0  0
 11 13  1  0  0  0  0
 11 14  1  0  0  0  0
  9 10  1  0  0  0  0
  9 11  1  0  0  0  0
  9 22  1  0  0  0  0
  7  8  1  0  0  0  0
  7  9  1  0  0  0  0
 26 27  1  0  0  0  0
 26 28  1  0  0  0  0
 26 29  1  0  0  0  0
 24 25  1  0  0  0  0
 24 26  1  0  0  0  0
M  END
$$$$
default_name
  -OEChem-02102213163D

 29 28  0     1  0  0  0  0  0999 V2000
   -3.3998   -3.6239    1.3678 H   0  0  0  0  0  0  0  0  0  0  0  0
   -3.3608   -2.6749    0.8348 C   0  0  0  0  0  0  0  0  0  0  0  0
   -4.0988   -1.9909    1.2498 H   0  0  0  0  0  0  0  0  0  0  0  0
   -3.5618   -2.8419   -0.2222 H   0  0  0  0  0  0  0  0  0  0  0  0
   -1.9818   -2.0809    0.9918 C   0  0  0  0  0  0  0  0  0  0  0  0
   -1.1288   -2.6669    1.6468 O   0  0  0  0  0  0  0  0  0  0  0  0
   -1.7648   -0.9089    0.3998 N   0  0  0  0  0  0  0  0  0  0  0  0
   -2.5238   -0.4719   -0.1032 H   0  0  0  0  0  0  0  0  0  0  0  0
   -0.4848   -0.1959    0.4138 C   0  0  1  0  0  0  0  0  0  0  0  0
    0.2783   -0.8411   -0.0248 H   0  0  0  0  0  0  0  0  0  0  0  0
   -0.6101    1.0666   -0.4611 C   0  0  0  0  0  0  0  0  0  0  0  0
   -1.6707    1.2591   -0.6361 H   0  0  0  0  0  0  0  0  0  0  0  0
   -0.1937    1.9178    0.0797 H   0  0  0  0  0  0  0  0  0  0  0  0
    0.0932    0.9513   -1.8247 C   0  0  0  0  0  0  0  0  0  0  0  0
   -0.1469   -0.0085   -2.2816 H   0  0  0  0  0  0  0  0  0  0  0  0
   -0.2667    1.7470   -2.4768 H   0  0  0  0  0  0  0  0  0  0  0  0
    1.6148    1.0606   -1.7277 C   0  0  0  0  0  0  0  0  0  0  0  0
    2.2041    1.2923   -0.6887 O   0  0  0  0  0  0  0  0  0  0  0  0
    2.3257    0.8879   -2.8209 N   0  0  0  0  0  0  0  0  0  0  0  0
    3.3202    0.9697   -2.6994 H   0  0  0  0  0  0  0  0  0  0  0  0
    1.8922    0.6926   -3.7004 H   0  0  0  0  0  0  0  0  0  0  0  0
   -0.0637    0.1284    1.8555 C   0  0  0  0  0  0  0  0  0  0  0  0
    1.0918   -0.0745    2.2236 O   0  0  0  0  0  0  0  0  0  0  0  0
   -1.0024    0.6217    2.6735 N   0  0  0  0  0  0  0  0  0  0  0  0
   -1.9213    0.7848    2.2938 H   0  0  0  0  0  0  0  0  0  0  0  0
   -0.7639    0.9676    4.0741 C   0  0  0  0  0  0  0  0  0  0  0  0
    0.0520    1.6916    4.1400 H   0  0  0  0  0  0  0  0  0  0  0  0
   -1.6626    1.3984    4.5182 H   0  0  0  0  0  0  0  0  0  0  0  0
   -0.4775    0.0737    4.6309 H   0  0  0  0  0  0  0  0  0  0  0  0
  5  6  2  0  0  0  0
  5  7  1  0  0  0  0
  2  3  1  0  0  0  0
  2  4  1  0  0  0  0
  2  5  1  0  0  0  0
  1  2  1  0  0  0  0
 22 23  2  0  0  0  0
 22 24  1  0  0  0  0
 19 20  1  0  0  0  0
 19 21  1  0  0  0  0
 17 18  2  0  0  0  0
 17 19  1  0  0  0  0
 14 15  1  0  0  0  0
 14 16  1  0  0  0  0
 14 17  1  0  0  0  0
 11 12  1  0  0  0  0
 11 13  1  0  0  0  0
 11 14  1  0  0  0  0
  9 10  1  0  0  0  0
  9 11  1  0  0  0  0
  9 22  1  0  0  0  0
  7  8  1  0  0  0  0
  7  9  1  0  0  0  0
 26 27  1  0  0  0  0
 26 28  1  0  0  0  0
 26 29  1  0  0  0  0
 24 25  1  0  0  0  0
 24 26  1  0  0  0  0
M  END
$$$$
default_name
  -OEChem-02102213163D

 29 28  0     1  0  0  0  0  0999 V2000
   -3.3998   -3.6239    1.3678 H   0  0  0  0  0  0  0  0  0  0  0  0
   -3.3608   -2.6749    0.8348 C   0  0  0  0  0  0  0  0  0  0  0  0
   -4.0988   -1.9909    1.2498 H   0  0  0  0  0  0  0  0  0  0  0  0
   -3.5618   -2.8419   -0.2222 H   0  0  0  0  0  0  0  0  0  0  0  0
   -1.9818   -2.0809    0.9918 C   0  0  0  0  0  0  0  0  0  0  0  0
   -1.1288   -2.6669    1.6468 O   0  0  0  0  0  0  0  0  0  0  0  0
   -1.7648   -0.9089    0.3998 N   0  0  0  0  0  0  0  0  0  0  0  0
   -2.5238   -0.4719   -0.1032 H   0  0  0  0  0  0  0  0  0  0  0  0
   -0.4848   -0.1959    0.4138 C   0  0  1  0  0  0  0  0  0  0  0  0
    0.2783   -0.8411   -0.0248 H   0  0  0  0  0  0  0  0  0  0  0  0
   -0.6101    1.0666   -0.4611 C   0  0  0  0  0  0  0  0  0  0  0  0
   -1.6707    1.2591   -0.6361 H   0  0  0  0  0  0  0  0  0  0  0  0
   -0.1937    1.9178    0.0797 H   0  0  0  0  0  0  0  0  0  0  0  0
    0.0932    0.9513   -1.8247 C   0  0  0  0  0  0  0  0  0  0  0  0
   -0.3443    0.1323   -2.3953 H   0  0  0  0  0  0  0  0  0  0  0  0
   -0.0538    1.8787   -2.3781 H   0  0  0  0  0  0  0  0  0  0  0  0
    1.5955    0.6948   -1.7067 C   0  0  0  0  0  0  0  0  0  0  0  0
    2.1873    0.6622   -0.6441 O   0  0  0  0  0  0  0  0  0  0  0  0
    2.2841    0.4909   -2.8087 N   0  0  0  0  0  0  0  0  0  0  0  0
    3.2665    0.3267   -2.6727 H   0  0  0  0  0  0  0  0  0  0  0  0
    1.8469    0.5043   -3.7078 H   0  0  0  0  0  0  0  0  0  0  0  0
   -0.0637    0.1284    1.8555 C   0  0  0  0  0  0  0  0  0  0  0  0
    1.0918   -0.0745    2.2236 O   0  0  0  0  0  0  0  0  0  0  0  0
   -1.0024    0.6217    2.6735 N   0  0  0  0  0  0  0  0  0  0  0  0
   -1.9213    0.7848    2.2938 H   0  0  0  0  0  0  0  0  0  0  0  0
   -0.7639    0.9676    4.0741 C   0  0  0  0  0  0  0  0  0  0  0  0
    0.0520    1.6916    4.1400 H   0  0  0  0  0  0  0  0  0  0  0  0
   -1.6626    1.3984    4.5182 H   0  0  0  0  0  0  0  0  0  0  0  0
   -0.4775    0.0737    4.6309 H   0  0  0  0  0  0  0  0  0  0  0  0
  5  6  2  0  0  0  0
  5  7  1  0  0  0  0
  2  3  1  0  0  0  0
  2  4  1  0  0  0  0
  2  5  1  0  0  0  0
  1  2  1  0  0  0  0
 22 23  2  0  0  0  0
 22 24  1  0  0  0  0
 19 20  1  0  0  0  0
 19 21  1  0  0  0  0
 17 18  2  0  0  0  0
 17 19  1  0  0  0  0
 14 15  1  0  0  0  0
 14 16  1  0  0  0  0
 14 17  1  0  0  0  0
 11 12  1  0  0  0  0
 11 13  1  0  0  0  0
 11 14  1  0  0  0  0
  9 10  1  0  0  0  0
  9 11  1  0  0  0  0
  9 22  1  0  0  0  0
  7  8  1  0  0  0  0
  7  9  1  0  0  0  0
 26 27  1  0  0  0  0
 26 28  1  0  0  0  0
 26 29  1  0  0  0  0
 24 25  1  0  0  0  0
 24 26  1  0  0  0  0
M  END
$$$$
default_name
  -OEChem-02102213163D

 29 28  0     1  0  0  0  0  0999 V2000
   -3.3998   -3.6239    1.3678 H   0  0  0  0  0  0  0  0  0  0  0  0
   -3.3608   -2.6749    0.8348 C   0  0  0  0  0  0  0  0  0  0  0  0
   -4.0988   -1.9909    1.2498 H   0  0  0  0  0  0  0  0  0  0  0  0
   -3.5618   -2.8419   -0.2222 H   0  0  0  0  0  0  0  0  0  0  0  0
   -1.9818   -2.0809    0.9918 C   0  0  0  0  0  0  0  0  0  0  0  0
   -1.1288   -2.6669    1.6468 O   0  0  0  0  0  0  0  0  0  0  0  0
   -1.7648   -0.9089    0.3998 N   0  0  0  0  0  0  0  0  0  0  0  0
   -2.5238   -0.4719   -0.1032 H   0  0  0  0  0  0  0  0  0  0  0  0
   -0.4848   -0.1959    0.4138 C   0  0  1  0  0  0  0  0  0  0  0  0
    0.2783   -0.8411   -0.0248 H   0  0  0  0  0  0  0  0  0  0  0  0
   -0.6101    1.0666   -0.4611 C   0  0  0  0  0  0  0  0  0  0  0  0
   -1.6707    1.2591   -0.6361 H   0  0  0  0  0  0  0  0  0  0  0  0
   -0.1937    1.9178    0.0797 H   0  0  0  0  0  0  0  0  0  0  0  0
    0.0932    0.9513   -1.8247 C   0  0  0  0  0  0  0  0  0  0  0  0
   -0.5004    0.3272   -2.4923 H   0  0  0  0  0  0  0  0  0  0  0  0
    0.1802    1.9454   -2.2631 H   0  0  0  0  0  0  0  0  0  0  0  0
    1.4926    0.3435   -1.7301 C   0  0  0  0  0  0  0  0  0  0  0  0
    2.0257    0.0522   -0.6758 O   0  0  0  0  0  0  0  0  0  0  0  0
    2.1527    0.1156   -2.8448 N   0  0  0  0  0  0  0  0  0  0  0  0
    3.0665   -0.2853   -2.7241 H   0  0  0  0  0  0  0  0  0  0  0  0
    1.7601    0.3336   -3.7382 H   0  0  0  0  0  0  0  0  0  0  0  0
   -0.0637    0.1284    1.8555 C   0  0  0  0  0  0  0  0  0  0  0  0
    1.0918   -0.0745    2.2236 O   0  0  0  0  0  0  0  0  0  0  0  0
   -1.0024    0.6217    2.6735 N   0  0  0  0  0  0  0  0  0  0  0  0
   -1.9213    0.7848    2.2938 H   0  0  0  0  0  0  0  0  0  0  0  0
   -0.7639    0.9676    4.0741 C   0  0  0  0  0  0  0  0  0  0  0  0
    0.0520    1.6916    4.1400 H   0  0  0  0  0  0  0  0  0  0  0  0
   -1.6626    1.3984    4.5182 H   0  0  0  0  0  0  0  0  0  0  0  0
   -0.4775    0.0737    4.6309 H   0  0  0  0  0  0  0  0  0  0  0  0
  5  6  2  0  0  0  0
  5  7  1  0  0  0  0
  2  3  1  0  0  0  0
  2  4  1  0  0  0  0
  2  5  1  0  0  0  0
  1  2  1  0  0  0  0
 22 23  2  0  0  0  0
 22 24  1  0  0  0  0
 19 20  1  0  0  0  0
 19 21  1  0  0  0  0
 17 18  2  0  0  0  0
 17 19  1  0  0  0  0
 14 15  1  0  0  0  0
 14 16  1  0  0  0  0
 14 17  1  0  0  0  0
 11 12  1  0  0  0  0
 11 13  1  0  0  0  0
 11 14  1  0  0  0  0
  9 10  1  0  0  0  0
  9 11  1  0  0  0  0
  9 22  1  0  0  0  0
  7  8  1  0  0  0  0
  7  9  1  0  0  0  0
 26 27  1  0  0  0  0
 26 28  1  0  0  0  0
 26 29  1  0  0  0  0
 24 25  1  0  0  0  0
 24 26  1  0  0  0  0
M  END
$$$$
default_name
  -OEChem-02102213163D

 29 28  0     1  0  0  0  0  0999 V2000
   -3.3998   -3.6239    1.3678 H   0  0  0  0  0  0  0  0  0  0  0  0
   -3.3608   -2.6749    0.8348 C   0  0  0  0  0  0  0  0  0  0  0  0
   -4.0988   -1.9909    1.2498 H   0  0  0  0  0  0  0  0  0  0  0  0
   -3.5618   -2.8419   -0.2222 H   0  0  0  0  0  0  0  0  0  0  0  0
   -1.9818   -2.0809    0.9918 C   0  0  0  0  0  0  0  0  0  0  0  0
   -1.1288   -2.6669    1.6468 O   0  0  0  0  0  0  0  0  0  0  0  0
   -1.7648   -0.9089    0.3998 N   0  0  0  0  0  0  0  0  0  0  0  0
   -2.5238   -0.4719   -0.1032 H   0  0  0  0  0  0  0  0  0  0  0  0
   -0.4848   -0.1959    0.4138 C   0  0  1  0  0  0  0  0  0  0  0  0
    0.2783   -0.8411   -0.0248 H   0  0  0  0  0  0  0  0  0  0  0  0
   -0.6101    1.0666   -0.4611 C   0  0  0  0  0  0  0  0  0  0  0  0
   -1.6707    1.2591   -0.6361 H   0  0  0  0  0  0  0  0  0  0  0  0
   -0.1937    1.9178    0.0797 H   0  0  0  0  0  0  0  0  0  0  0  0
    0.0932    0.9513   -1.8247 C   0  0  0  0  0  0  0  0  0  0  0  0
   -0.6047    0.5627   -2.5660 H   0  0  0  0  0  0  0  0  0  0  0  0
    0.4193    1.9426   -2.1395 H   0  0  0  0  0  0  0  0  0  0  0  0
    1.3130    0.0305   -1.7963 C   0  0  0  0  0  0  0  0  0  0  0  0
    1.7303   -0.4962   -0.7818 O   0  0  0  0  0  0  0  0  0  0  0  0
    1.9403   -0.2125   -2.9266 N   0  0  0  0  0  0  0  0  0  0  0  0
    2.7340   -0.8246   -2.8500 H   0  0  0  0  0  0  0  0  0  0  0  0
    1.6378    0.1923   -3.7893 H   0  0  0  0  0  0  0  0  0  0  0  0
   -0.0637    0.1284    1.8555 C   0  0  0  0  0  0  0  0  0  0  0  0
    1.0918   -0.0745    2.2236 O   0  0  0  0  0  0  0  0  0  0  0  0
   -1.0024    0.6217    2.6735 N   0  0  0  0  0  0  0  0  0  0  0  0
   -1.9213    0.7848    2.2938 H   0  0  0  0  0  0  0  0  0  0  0  0
   -0.7639    0.9676    4.0741 C   0  0  0  0  0  0  0  0  0  0  0  0
    0.0520    1.6916    4.1400 H   0  0  0  0  0  0  0  0  0  0  0  0
   -1.6626    1.3984    4.5182 H   0  0  0  0  0  0  0  0  0  0  0  0
   -0.4775    0.0737    4.6309 H   0  0  0  0  0  0  0  0  0  0  0  0
  5  6  2  0  0  0  0
  5  7  1  0  0  0  0
  2  3  1  0  0  0  0
  2  4  1  0  0  0  0
  2  5  1  0  0  0  0
  1  2  1  0  0  0  0
 22 23  2  0  0  0  0
 22 24  1  0  0  0  0
 19 20  1  0  0  0  0
 19 21  1  0  0  0  0
 17 18  2  0  0  0  0
 17 19  1  0  0  0  0
 14 15  1  0  0  0  0
 14 16  1  0  0  0  0
 14 17  1  0  0  0  0
 11 12  1  0  0  0  0
 11 13  1  0  0  0  0
 11 14  1  0  0  0  0
  9 10  1  0  0  0  0
  9 11  1  0  0  0  0
  9 22  1  0  0  0  0
  7  8  1  0  0  0  0
  7  9  1  0  0  0  0
 26 27  1  0  0  0  0
 26 28  1  0  0  0  0
 26 29  1  0  0  0  0
 24 25  1  0  0  0  0
 24 26  1  0  0  0  0
M  END
$$$$
default_name
  -OEChem-02102213163D

 29 28  0     1  0  0  0  0  0999 V2000
   -3.3998   -3.6239    1.3678 H   0  0  0  0  0  0  0  0  0  0  0  0
   -3.3608   -2.6749    0.8348 C   0  0  0  0  0  0  0  0  0  0  0  0
   -4.0988   -1.9909    1.2498 H   0  0  0  0  0  0  0  0  0  0  0  0
   -3.5618   -2.8419   -0.2222 H   0  0  0  0  0  0  0  0  0  0  0  0
   -1.9818   -2.0809    0.9918 C   0  0  0  0  0  0  0  0  0  0  0  0
   -1.1288   -2.6669    1.6468 O   0  0  0  0  0  0  0  0  0  0  0  0
   -1.7648   -0.9089    0.3998 N   0  0  0  0  0  0  0  0  0  0  0  0
   -2.5238   -0.4719   -0.1032 H   0  0  0  0  0  0  0  0  0  0  0  0
   -0.4848   -0.1959    0.4138 C   0  0  1  0  0  0  0  0  0  0  0  0
    0.2783   -0.8411   -0.0248 H   0  0  0  0  0  0  0  0  0  0  0  0
   -0.6101    1.0666   -0.4611 C   0  0  0  0  0  0  0  0  0  0  0  0
   -1.6707    1.2591   -0.6361 H   0  0  0  0  0  0  0  0  0  0  0  0
   -0.1937    1.9178    0.0797 H   0  0  0  0  0  0  0  0  0  0  0  0
    0.0932    0.9513   -1.8247 C   0  0  0  0  0  0  0  0  0  0  0  0
   -0.6500    0.8227   -2.6114 H   0  0  0  0  0  0  0  0  0  0  0  0
    0.6471    1.8703   -2.0159 H   0  0  0  0  0  0  0  0  0  0  0  0
    1.0690   -0.2229   -1.9007 C   0  0  0  0  0  0  0  0  0  0  0  0
    1.3212   -0.9456   -0.9548 O   0  0  0  0  0  0  0  0  0  0  0  0
    1.6616   -0.4710   -3.0485 N   0  0  0  0  0  0  0  0  0  0  0  0
    2.2916   -1.2542   -3.0418 H   0  0  0  0  0  0  0  0  0  0  0  0
    1.4882    0.0899   -3.8578 H   0  0  0  0  0  0  0  0  0  0  0  0
   -0.0637    0.1284    1.8555 C   0  0  0  0  0  0  0  0  0  0  0  0
    1.0918   -0.0745    2.2236 O   0  0  0  0  0  0  0  0  0  0  0  0
   -1.0024    0.6217    2.6735 N   0  0  0  0  0  0  0  0  0  0  0  0
   -1.9213    0.7848    2.2938 H   0  0  0  0  0  0  0  0  0  0  0  0
   -0.7639    0.9676    4.0741 C   0  0  0  0  0  0  0  0  0  0  0  0
    0.0520    1.6916    4.1400 H   0  0  0  0  0  0  0  0  0  0  0  0
   -1.6626    1.3984    4.5182 H   0  0  0  0  0  0  0  0  0  0  0  0
   -0.4775    0.0737    4.6309 H   0  0  0  0  0  0  0  0  0  0  0  0
  5  6  2  0  0  0  0
  5  7  1  0  0  0  0
  2  3  1  0  0  0  0
  2  4  1  0  0  0  0
  2  5  1  0  0  0  0
  1  2  1  0  0  0  0
 22 23  2  0  0  0  0
 22 24  1  0  0  0  0
 19 20  1  0  0  0  0
 19 21  1  0  0  0  0
 17 18  2  0  0  0  0
 17 19  1  0  0  0  0
 14 15  1  0  0  0  0
 14 16  1  0  0  0  0
 14 17  1  0  0  0  0
 11 12  1  0  0  0  0
 11 13  1  0  0  0  0
 11 14  1  0  0  0  0
  9 10  1  0  0  0  0
  9 11  1  0  0  0  0
  9 22  1  0  0  0  0
  7  8  1  0  0  0  0
  7  9  1  0  0  0  0
 26 27  1  0  0  0  0
 26 28  1  0  0  0  0
 26 29  1  0  0  0  0
 24 25  1  0  0  0  0
 24 26  1  0  0  0  0
M  END
$$$$
default_name
  -OEChem-02102213163D

 29 28  0     1  0  0  0  0  0999 V2000
   -3.3998   -3.6239    1.3678 H   0  0  0  0  0  0  0  0  0  0  0  0
   -3.3608   -2.6749    0.8348 C   0  0  0  0  0  0  0  0  0  0  0  0
   -4.0988   -1.9909    1.2498 H   0  0  0  0  0  0  0  0  0  0  0  0
   -3.5618   -2.8419   -0.2222 H   0  0  0  0  0  0  0  0  0  0  0  0
   -1.9818   -2.0809    0.9918 C   0  0  0  0  0  0  0  0  0  0  0  0
   -1.1288   -2.6669    1.6468 O   0  0  0  0  0  0  0  0  0  0  0  0
   -1.7648   -0.9089    0.3998 N   0  0  0  0  0  0  0  0  0  0  0  0
   -2.5238   -0.4719   -0.1032 H   0  0  0  0  0  0  0  0  0  0  0  0
   -0.4848   -0.1959    0.4138 C   0  0  1  0  0  0  0  0  0  0  0  0
    0.2783   -0.8411   -0.0248 H   0  0  0  0  0  0  0  0  0  0  0  0
   -0.6101    1.0666   -0.4611 C   0  0  0  0  0  0  0  0  0  0  0  0
   -1.6707    1.2591   -0.6361 H   0  0  0  0  0  0  0  0  0  0  0  0
   -0.1937    1.9178    0.0797 H   0  0  0  0  0  0  0  0  0  0  0  0
    0.0932    0.9513   -1.8247 C   0  0  0  0  0  0  0  0  0  0  0  0
   -0.6332    1.0897   -2.6253 H   0  0  0  0  0  0  0  0  0  0  0  0
    0.8483    1.7337   -1.9005 H   0  0  0  0  0  0  0  0  0  0  0  0
    0.7773   -0.3992   -2.0362 C   0  0  0  0  0  0  0  0  0  0  0  0
    0.8264   -1.2654   -1.1830 O   0  0  0  0  0  0  0  0  0  0  0  0
    1.3353   -0.6424   -3.2023 N   0  0  0  0  0  0  0  0  0  0  0  0
    1.7695   -1.5451   -3.2865 H   0  0  0  0  0  0  0  0  0  0  0  0
    1.3215    0.0334   -3.9390 H   0  0  0  0  0  0  0  0  0  0  0  0
   -0.0637    0.1284    1.8555 C   0  0  0  0  0  0  0  0  0  0  0  0
    1.0918   -0.0745    2.2236 O   0  0  0  0  0  0  0  0  0  0  0  0
   -1.0024    0.6217    2.6735 N   0  0  0  0  0  0  0  0  0  0  0  0
   -1.9213    0.7848    2.2938 H   0  0  0  0  0  0  0  0  0  0  0  0
   -0.7639    0.9676    4.0741 C   0  0  0  0  0  0  0  0  0  0  0  0
    0.0520    1.6916    4.1400 H   0  0  0  0  0  0  0  0  0  0  0  0
   -1.6626    1.3984    4.5182 H   0  0  0  0  0  0  0  0  0  0  0  0
   -0.4775    0.0737    4.6309 H   0  0  0  0  0  0  0  0  0  0  0  0
  5  6  2  0  0  0  0
  5  7  1  0  0  0  0
  2  3  1  0  0  0  0
  2  4  1  0  0  0  0
  2  5  1  0  0  0  0
  1  2  1  0  0  0  0
 22 23  2  0  0  0  0
 22 24  1  0  0  0  0
 19 20  1  0  0  0  0
 19 21  1  0  0  0  0
 17 18  2  0  0  0  0
 17 19  1  0  0  0  0
 14 15  1  0  0  0  0
 14 16  1  0  0  0  0
 14 17  1  0  0  0  0
 11 12  1  0  0  0  0
 11 13  1  0  0  0  0
 11 14  1  0  0  0  0
  9 10  1  0  0  0  0
  9 11  1  0  0  0  0
  9 22  1  0  0  0  0
  7  8  1  0  0  0  0
  7  9  1  0  0  0  0
 26 27  1  0  0  0  0
 26 28  1  0  0  0  0
 26 29  1  0  0  0  0
 24 25  1  0  0  0  0
 24 26  1  0  0  0  0
M  END
$$$$
default_name
  -OEChem-02102213163D

 29 28  0     1  0  0  0  0  0999 V2000
   -3.3998   -3.6239    1.3678 H   0  0  0  0  0  0  0  0  0  0  0  0
   -3.3608   -2.6749    0.8348 C   0  0  0  0  0  0  0  0  0  0  0  0
   -4.0988   -1.9909    1.2498 H   0  0  0  0  0  0  0  0  0  0  0  0
   -3.5618   -2.8419   -0.2222 H   0  0  0  0  0  0  0  0  0  0  0  0
   -1.9818   -2.0809    0.9918 C   0  0  0  0  0  0  0  0  0  0  0  0
   -1.1288   -2.6669    1.6468 O   0  0  0  0  0  0  0  0  0  0  0  0
   -1.7648   -0.9089    0.3998 N   0  0  0  0  0  0  0  0  0  0  0  0
   -2.5238   -0.4719   -0.1032 H   0  0  0  0  0  0  0  0  0  0  0  0
   -0.4848   -0.1959    0.4138 C   0  0  1  0  0  0  0  0  0  0  0  0
    0.2783   -0.8411   -0.0248 H   0  0  0  0  0  0  0  0  0  0  0  0
   -0.6101    1.0666   -0.4611 C   0  0  0  0  0  0  0  0  0  0  0  0
   -1.6707    1.2591   -0.6361 H   0  0  0  0  0  0  0  0  0  0  0  0
   -0.1937    1.9178    0.0797 H   0  0  0  0  0  0  0  0  0  0  0  0
    0.0932    0.9513   -1.8247 C   0  0  0  0  0  0  0  0  0  0  0  0
   -0.5554    1.3454   -2.6068 H   0  0  0  0  0  0  0  0  0  0  0  0
    1.0090    1.5419   -1.8014 H   0  0  0  0  0  0  0  0  0  0  0  0
    0.4577   -0.4866   -2.1937 C   0  0  0  0  0  0  0  0  0  0  0  0
    0.2795   -1.4338   -1.4509 O   0  0  0  0  0  0  0  0  0  0  0  0
    0.9839   -0.7149   -3.3774 N   0  0  0  0  0  0  0  0  0  0  0  0
    1.2031   -1.6773   -3.5675 H   0  0  0  0  0  0  0  0  0  0  0  0
    1.1491    0.0267   -4.0274 H   0  0  0  0  0  0  0  0  0  0  0  0
   -0.0637    0.1284    1.8555 C   0  0  0  0  0  0  0  0  0  0  0  0
    1.0918   -0.0745    2.2236 O   0  0  0  0  0  0  0  0  0  0  0  0
   -1.0024    0.6217    2.6735 N   0  0  0  0  0  0  0  0  0  0  0  0
   -1.9213    0.7848    2.2938 H   0  0  0  0  0  0  0  0  0  0  0  0
   -0.7639    0.9676    4.0741 C   0  0  0  0  0  0  0  0  0  0  0  0
    0.0520    1.6916    4.1400 H   0  0  0  0  0  0  0  0  0  0  0  0
   -1.6626    1.3984    4.5182 H   0  0  0  0  0  0  0  0  0  0  0  0
   -0.4775    0.0737    4.6309 H   0  0  0  0  0  0  0  0  0  0  0  0
  5  6  2  0  0  0  0
  5  7  1  0  0  0  0
  2  3  1  0  0  0  0
  2  4  1  0  0  0  0
  2  5  1  0  0  0  0
  1  2  1  0  0  0  0
 22 23  2  0  0  0  0
 22 24  1  0  0  0  0
 19 20  1  0  0  0  0
 19 21  1  0  0  0  0
 17 18  2  0  0  0  0
 17 19  1  0  0  0  0
 14 15  1  0  0  0  0
 14 16  1  0  0  0  0
 14 17  1  0  0  0  0
 11 12  1  0  0  0  0
 11 13  1  0  0  0  0
 11 14  1  0  0  0  0
  9 10  1  0  0  0  0
  9 11  1  0  0  0  0
  9 22  1  0  0  0  0
  7  8  1  0  0  0  0
  7  9  1  0  0  0  0
 26 27  1  0  0  0  0
 26 28  1  0  0  0  0
 26 29  1  0  0  0  0
 24 25  1  0  0  0  0
 24 26  1  0  0  0  0
M  END
$$$$
default_name
  -OEChem-02102213163D

 29 28  0     1  0  0  0  0  0999 V2000
   -3.3998   -3.6239    1.3678 H   0  0  0  0  0  0  0  0  0  0  0  0
   -3.3608   -2.6749    0.8348 C   0  0  0  0  0  0  0  0  0  0  0  0
   -4.0988   -1.9909    1.2498 H   0  0  0  0  0  0  0  0  0  0  0  0
   -3.5618   -2.8419   -0.2222 H   0  0  0  0  0  0  0  0  0  0  0  0
   -1.9818   -2.0809    0.9918 C   0  0  0  0  0  0  0  0  0  0  0  0
   -1.1288   -2.6669    1.6468 O   0  0  0  0  0  0  0  0  0  0  0  0
   -1.7648   -0.9089    0.3998 N   0  0  0  0  0  0  0  0  0  0  0  0
   -2.5238   -0.4719   -0.1032 H   0  0  0  0  0  0  0  0  0  0  0  0
   -0.4848   -0.1959    0.4138 C   0  0  1  0  0  0  0  0  0  0  0  0
    0.2783   -0.8411   -0.0248 H   0  0  0  0  0  0  0  0  0  0  0  0
   -0.6101    1.0666   -0.4611 C   0  0  0  0  0  0  0  0  0  0  0  0
   -1.6707    1.2591   -0.6361 H   0  0  0  0  0  0  0  0  0  0  0  0
   -0.1937    1.9178    0.0797 H   0  0  0  0  0  0  0  0  0  0  0  0
    0.0932    0.9513   -1.8247 C   0  0  0  0  0  0  0  0  0  0  0  0
   -0.4220    1.5723   -2.5572 H   0  0  0  0  0  0  0  0  0  0  0  0
    1.1183    1.3080   -1.7253 H   0  0  0  0  0  0  0  0  0  0  0  0
    0.1319   -0.4791   -2.3623 C   0  0  0  0  0  0  0  0  0  0  0  0
   -0.2823   -1.4393   -1.7402 O   0  0  0  0  0  0  0  0  0  0  0  0
    0.6312   -0.6836   -3.5620 N   0  0  0  0  0  0  0  0  0  0  0  0
    0.6312   -1.6419   -3.8655 H   0  0  0  0  0  0  0  0  0  0  0  0
    0.9828    0.0702   -4.1168 H   0  0  0  0  0  0  0  0  0  0  0  0
   -0.0637    0.1284    1.8555 C   0  0  0  0  0  0  0  0  0  0  0  0
    1.0918   -0.0745    2.2236 O   0  0  0  0  0  0  0  0  0  0  0  0
   -1.0024    0.6217    2.6735 N   0  0  0  0  0  0  0  0  0  0  0  0
   -1.9213    0.7848    2.2938 H   0  0  0  0  0  0  0  0  0  0  0  0
   -0.7639    0.9676    4.0741 C   0  0  0  0  0  0  0  0  0  0  0  0
    0.0520    1.6916    4.1400 H   0  0  0  0  0  0  0  0  0  0  0  0
   -1.6626    1.3984    4.5182 H   0  0  0  0  0  0  0  0  0  0  0  0
   -0.4775    0.0737    4.6309 H   0  0  0  0  0  0  0  0  0  0  0  0
  5  6  2  0  0  0  0
  5  7  1  0  0  0  0
  2  3  1  0  0  0  0
  2  4  1  0  0  0  0
  2  5  1  0  0  0  0
  1  2  1  0  0  0  0
 22 23  2  0  0  0  0
 22 24  1  0  0  0  0
 19 20  1  0  0  0  0
 19 21  1  0  0  0  0
 17 18  2  0  0  0  0
 17 19  1  0  0  0  0
 14 15  1  0  0  0  0
 14 16  1  0  0  0  0
 14 17  1  0  0  0  0
 11 12  1  0  0  0  0
 11 13  1  0  0  0  0
 11 14  1  0  0  0  0
  9 10  1  0  0  0  0
  9 11  1  0  0  0  0
  9 22  1  0  0  0  0
  7  8  1  0  0  0  0
  7  9  1  0  0  0  0
 26 27  1  0  0  0  0
 26 28  1  0  0  0  0
 26 29  1  0  0  0  0
 24 25  1  0  0  0  0
 24 26  1  0  0  0  0
M  END
$$$$
default_name
  -OEChem-02102213163D

 29 28  0     1  0  0  0  0  0999 V2000
   -3.3998   -3.6239    1.3678 H   0  0  0  0  0  0  0  0  0  0  0  0
   -3.3608   -2.6749    0.8348 C   0  0  0  0  0  0  0  0  0  0  0  0
   -4.0988   -1.9909    1.2498 H   0  0  0  0  0  0  0  0  0  0  0  0
   -3.5618   -2.8419   -0.2222 H   0  0  0  0  0  0  0  0  0  0  0  0
   -1.9818   -2.0809    0.9918 C   0  0  0  0  0  0  0  0  0  0  0  0
   -1.1288   -2.6669    1.6468 O   0  0  0  0  0  0  0  0  0  0  0  0
   -1.7648   -0.9089    0.3998 N   0  0  0  0  0  0  0  0  0  0  0  0
   -2.5238   -0.4719   -0.1032 H   0  0  0  0  0  0  0  0  0  0  0  0
   -0.4848   -0.1959    0.4138 C   0  0  1  0  0  0  0  0  0  0  0  0
    0.2783   -0.8411   -0.0248 H   0  0  0  0  0  0  0  0  0  0  0  0
   -0.6101    1.0666   -0.4611 C   0  0  0  0  0  0  0  0  0  0  0  0
   -1.6707    1.2591   -0.6361 H   0  0  0  0  0  0  0  0  0  0  0  0
   -0.1937    1.9178    0.0797 H   0  0  0  0  0  0  0  0  0  0  0  0
    0.0932    0.9513   -1.8247 C   0  0  0  0  0  0  0  0  0  0  0  0
   -0.2421    1.7551   -2.4798 H   0  0  0  0  0  0  0  0  0  0  0  0
    1.1688    1.0481   -1.6772 H   0  0  0  0  0  0  0  0  0  0  0  0
   -0.1777   -0.3772   -2.5307 C   0  0  0  0  0  0  0  0  0  0  0  0
   -0.8205   -1.2815   -2.0311 O   0  0  0  0  0  0  0  0  0  0  0  0
    0.3013   -0.5506   -3.7434 N   0  0  0  0  0  0  0  0  0  0  0  0
    0.0927   -1.4412   -4.1602 H   0  0  0  0  0  0  0  0  0  0  0  0
    0.8339    0.1610   -4.2013 H   0  0  0  0  0  0  0  0  0  0  0  0
   -0.0637    0.1284    1.8555 C   0  0  0  0  0  0  0  0  0  0  0  0
    1.0918   -0.0745    2.2236 O   0  0  0  0  0  0  0  0  0  0  0  0
   -1.0024    0.6217    2.6735 N   0  0  0  0  0  0  0  0  0  0  0  0
   -1.9213    0.7848    2.2938 H   0  0  0  0  0  0  0  0  0  0  0  0
   -0.7639    0.9676    4.0741 C   0  0  0  0  0  0  0  0  0  0  0  0
    0.0520    1.6916    4.1400 H   0  0  0  0  0  0  0  0  0  0  0  0
   -1.6626    1.3984    4.5182 H   0  0  0  0  0  0  0  0  0  0  0  0
   -0.4775    0.0737    4.6309 H   0  0  0  0  0  0  0  0  0  0  0  0
  5  6  2  0  0  0  0
  5  7  1  0  0  0  0
  2  3  1  0  0  0  0
  2  4  1  0  0  0  0
  2  5  1  0  0  0  0
  1  2  1  0  0  0  0
 22 23  2  0  0  0  0
 22 24  1  0  0  0  0
 19 20  1  0  0  0  0
 19 21  1  0  0  0  0
 17 18  2  0  0  0  0
 17 19  1  0  0  0  0
 14 15  1  0  0  0  0
 14 16  1  0  0  0  0
 14 17  1  0  0  0  0
 11 12  1  0  0  0  0
 11 13  1  0  0  0  0
 11 14  1  0  0  0  0
  9 10  1  0  0  0  0
  9 11  1  0  0  0  0
  9 22  1  0  0  0  0
  7  8  1  0  0  0  0
  7  9  1  0  0  0  0
 26 27  1  0  0  0  0
 26 28  1  0  0  0  0
 26 29  1  0  0  0  0
 24 25  1  0  0  0  0
 24 26  1  0  0  0  0
M  END
$$$$
default_name
  -OEChem-02102213163D

 29 28  0     1  0  0  0  0  0999 V2000
   -3.3998   -3.6239    1.3678 H   0  0  0  0  0  0  0  0  0  0  0  0
   -3.3608   -2.6749    0.8348 C   0  0  0  0  0  0  0  0  0  0  0  0
   -4.0988   -1.9909    1.2498 H   0  0  0  0  0  0  0  0  0  0  0  0
   -3.5618   -2.8419   -0.2222 H   0  0  0  0  0  0  0  0  0  0  0  0
   -1.9818   -2.0809    0.9918 C   0  0  0  0  0  0  0  0  0  0  0  0
   -1.1288   -2.6669    1.6468 O   0  0  0  0  0  0  0  0  0  0  0  0
   -1.7648   -0.9089    0.3998 N   0  0  0  0  0  0  0  0  0  0  0  0
   -2.5238   -0.4719   -0.1032 H   0  0  0  0  0  0  0  0  0  0  0  0
   -0.4848   -0.1959    0.4138 C   0  0  1  0  0  0  0  0  0  0  0  0
    0.2783   -0.8411   -0.0248 H   0  0  0  0  0  0  0  0  0  0  0  0
   -0.6101    1.0666   -0.4611 C   0  0  0  0  0  0  0  0  0  0  0  0
   -1.6707    1.2591   -0.6361 H   0  0  0  0  0  0  0  0  0  0  0  0
   -0.1937    1.9178    0.0797 H   0  0  0  0  0  0  0  0  0  0  0  0
    0.0932    0.9513   -1.8247 C   0  0  0  0  0  0  0  0  0  0  0  0
   -0.0279    1.8812   -2.3800 H   0  0  0  0  0  0  0  0  0  0  0  0
    1.1570    0.7797   -1.6606 H   0  0  0  0  0  0  0  0  0  0  0  0
   -0.4501   -0.1878   -2.6872 C   0  0  0  0  0  0  0  0  0  0  0  0
   -1.2986   -0.9713   -2.3040 O   0  0  0  0  0  0  0  0  0  0  0  0
    0.0166   -0.3250   -3.9093 N   0  0  0  0  0  0  0  0  0  0  0  0
   -0.3758   -1.0890   -4.4316 H   0  0  0  0  0  0  0  0  0  0  0  0
    0.7125    0.2928   -4.2751 H   0  0  0  0  0  0  0  0  0  0  0  0
   -0.0637    0.1284    1.8555 C   0  0  0  0  0  0  0  0  0  0  0  0
    1.0918   -0.0745    2.2236 O   0  0  0  0  0  0  0  0  0  0  0  0
   -1.0024    0.6217    2.6735 N   0  0  0  0  0  0  0  0  0  0  0  0
   -1.9213    0.7848    2.2938 H   0  0  0  0  0  0  0  0  0  0  0  0
   -0.7639    0.9676    4.0741 C   0  0  0  0  0  0  0  0  0  0  0  0
    0.0520    1.6916    4.1400 H   0  0  0  0  0  0  0  0  0  0  0  0
   -1.6626    1.3984    4.5182 H   0  0  0  0  0  0  0  0  0  0  0  0
   -0.4775    0.0737    4.6309 H   0  0  0  0  0  0  0  0  0  0  0  0
  5  6  2  0  0  0  0
  5  7  1  0  0  0  0
  2  3  1  0  0  0  0
  2  4  1  0  0  0  0
  2  5  1  0  0  0  0
  1  2  1  0  0  0  0
 22 23  2  0  0  0  0
 22 24  1  0  0  0  0
 19 20  1  0  0  0  0
 19 21  1  0  0  0  0
 17 18  2  0  0  0  0
 17 19  1  0  0  0  0
 14 15  1  0  0  0  0
 14 16  1  0  0  0  0
 14 17  1  0  0  0  0
 11 12  1  0  0  0  0
 11 13  1  0  0  0  0
 11 14  1  0  0  0  0
  9 10  1  0  0  0  0
  9 11  1  0  0  0  0
  9 22  1  0  0  0  0
  7  8  1  0  0  0  0
  7  9  1  0  0  0  0
 26 27  1  0  0  0  0
 26 28  1  0  0  0  0
 26 29  1  0  0  0  0
 24 25  1  0  0  0  0
 24 26  1  0  0  0  0
M  END
$$$$
default_name
  -OEChem-02102213163D

 29 28  0     1  0  0  0  0  0999 V2000
   -3.3998   -3.6239    1.3678 H   0  0  0  0  0  0  0  0  0  0  0  0
   -3.3608   -2.6749    0.8348 C   0  0  0  0  0  0  0  0  0  0  0  0
   -4.0988   -1.9909    1.2498 H   0  0  0  0  0  0  0  0  0  0  0  0
   -3.5618   -2.8419   -0.2222 H   0  0  0  0  0  0  0  0  0  0  0  0
   -1.9818   -2.0809    0.9918 C   0  0  0  0  0  0  0  0  0  0  0  0
   -1.1288   -2.6669    1.6468 O   0  0  0  0  0  0  0  0  0  0  0  0
   -1.7648   -0.9089    0.3998 N   0  0  0  0  0  0  0  0  0  0  0  0
   -2.5238   -0.4719   -0.1032 H   0  0  0  0  0  0  0  0  0  0  0  0
   -0.4848   -0.1959    0.4138 C   0  0  1  0  0  0  0  0  0  0  0  0
    0.2783   -0.8411   -0.0248 H   0  0  0  0  0  0  0  0  0  0  0  0
   -0.6101    1.0666   -0.4611 C   0  0  0  0  0  0  0  0  0  0  0  0
   -1.6707    1.2591   -0.6361 H   0  0  0  0  0  0  0  0  0  0  0  0
   -0.1937    1.9178    0.0797 H   0  0  0  0  0  0  0  0  0  0  0  0
    0.0932    0.9513   -1.8247 C   0  0  0  0  0  0  0  0  0  0  0  0
    0.2060    1.9420   -2.2645 H   0  0  0  0  0  0  0  0  0  0  0  0
    1.0837    0.5212   -1.6766 H   0  0  0  0  0  0  0  0  0  0  0  0
   -0.6668    0.0762   -2.8213 C   0  0  0  0  0  0  0  0  0  0  0  0
   -1.6839   -0.5296   -2.5401 O   0  0  0  0  0  0  0  0  0  0  0  0
   -0.2033   -0.0222   -4.0484 N   0  0  0  0  0  0  0  0  0  0  0  0
   -0.7422   -0.6092   -4.6612 H   0  0  0  0  0  0  0  0  0  0  0  0
    0.6269    0.4567   -4.3331 H   0  0  0  0  0  0  0  0  0  0  0  0
   -0.0637    0.1284    1.8555 C   0  0  0  0  0  0  0  0  0  0  0  0
    1.0918   -0.0745    2.2236 O   0  0  0  0  0  0  0  0  0  0  0  0
   -1.0024    0.6217    2.6735 N   0  0  0  0  0  0  0  0  0  0  0  0
   -1.9213    0.7848    2.2938 H   0  0  0  0  0  0  0  0  0  0  0  0
   -0.7639    0.9676    4.0741 C   0  0  0  0  0  0  0  0  0  0  0  0
    0.0520    1.6916    4.1400 H   0  0  0  0  0  0  0  0  0  0  0  0
   -1.6626    1.3984    4.5182 H   0  0  0  0  0  0  0  0  0  0  0  0
   -0.4775    0.0737    4.6309 H   0  0  0  0  0  0  0  0  0  0  0  0
  5  6  2  0  0  0  0
  5  7  1  0  0  0  0
  2  3  1  0  0  0  0
  2  4  1  0  0  0  0
  2  5  1  0  0  0  0
  1  2  1  0  0  0  0
 22 23  2  0  0  0  0
 22 24  1  0  0  0  0
 19 20  1  0  0  0  0
 19 21  1  0  0  0  0
 17 18  2  0  0  0  0
 17 19  1  0  0  0  0
 14 15  1  0  0  0  0
 14 16  1  0  0  0  0
 14 17  1  0  0  0  0
 11 12  1  0  0  0  0
 11 13  1  0  0  0  0
 11 14  1  0  0  0  0
  9 10  1  0  0  0  0
  9 11  1  0  0  0  0
  9 22  1  0  0  0  0
  7  8  1  0  0  0  0
  7  9  1  0  0  0  0
 26 27  1  0  0  0  0
 26 28  1  0  0  0  0
 26 29  1  0  0  0  0
 24 25  1  0  0  0  0
 24 26  1  0  0  0  0
M  END
$$$$
default_name
  -OEChem-02102213163D

 29 28  0     1  0  0  0  0  0999 V2000
   -3.3998   -3.6239    1.3678 H   0  0  0  0  0  0  0  0  0  0  0  0
   -3.3608   -2.6749    0.8348 C   0  0  0  0  0  0  0  0  0  0  0  0
   -4.0988   -1.9909    1.2498 H   0  0  0  0  0  0  0  0  0  0  0  0
   -3.5618   -2.8419   -0.2222 H   0  0  0  0  0  0  0  0  0  0  0  0
   -1.9818   -2.0809    0.9918 C   0  0  0  0  0  0  0  0  0  0  0  0
   -1.1288   -2.6669    1.6468 O   0  0  0  0  0  0  0  0  0  0  0  0
   -1.7648   -0.9089    0.3998 N   0  0  0  0  0  0  0  0  0  0  0  0
   -2.5238   -0.4719   -0.1032 H   0  0  0  0  0  0  0  0  0  0  0  0
   -0.4848   -0.1959    0.4138 C   0  0  1  0  0  0  0  0  0  0  0  0
    0.2783   -0.8411   -0.0248 H   0  0  0  0  0  0  0  0  0  0  0  0
   -0.6101    1.0666   -0.4611 C   0  0  0  0  0  0  0  0  0  0  0  0
   -1.6707    1.2591   -0.6361 H   0  0  0  0  0  0  0  0  0  0  0  0
   -0.1937    1.9178    0.0797 H   0  0  0  0  0  0  0  0  0  0  0  0
    0.0932    0.9513   -1.8247 C   0  0  0  0  0  0  0  0  0  0  0  0
    0.4437    1.9335   -2.1412 H   0  0  0  0  0  0  0  0  0  0  0  0
    0.9539    0.2903   -1.7240 H   0  0  0  0  0  0  0  0  0  0  0  0
   -0.8129    0.3967   -2.9238 C   0  0  0  0  0  0  0  0  0  0  0  0
   -1.9502    0.0133   -2.7233 O   0  0  0  0  0  0  0  0  0  0  0  0
   -0.3437    0.3372   -4.1512 N   0  0  0  0  0  0  0  0  0  0  0  0
   -0.9816   -0.0346   -4.8333 H   0  0  0  0  0  0  0  0  0  0  0  0
    0.5829    0.6415   -4.3714 H   0  0  0  0  0  0  0  0  0  0  0  0
   -0.0637    0.1284    1.8555 C   0  0  0  0  0  0  0  0  0  0  0  0
    1.0918   -0.0745    2.2236 O   0  0  0  0  0  0  0  0  0  0  0  0
   -1.0024    0.6217    2.6735 N   0  0  0  0  0  0  0  0  0  0  0  0
   -1.9213    0.7848    2.2938 H   0  0  0  0  0  0  0  0  0  0  0  0
   -0.7639    0.9676    4.0741 C   0  0  0  0  0  0  0  0  0  0  0  0
    0.0520    1.6916    4.1400 H   0  0  0  0  0  0  0  0  0  0  0  0
   -1.6626    1.3984    4.5182 H   0  0  0  0  0  0  0  0  0  0  0  0
   -0.4775    0.0737    4.6309 H   0  0  0  0  0  0  0  0  0  0  0  0
  5  6  2  0  0  0  0
  5  7  1  0  0  0  0
  2  3  1  0  0  0  0
  2  4  1  0  0  0  0
  2  5  1  0  0  0  0
  1  2  1  0  0  0  0
 22 23  2  0  0  0  0
 22 24  1  0  0  0  0
 19 20  1  0  0  0  0
 19 21  1  0  0  0  0
 17 18  2  0  0  0  0
 17 19  1  0  0  0  0
 14 15  1  0  0  0  0
 14 16  1  0  0  0  0
 14 17  1  0  0  0  0
 11 12  1  0  0  0  0
 11 13  1  0  0  0  0
 11 14  1  0  0  0  0
  9 10  1  0  0  0  0
  9 11  1  0  0  0  0
  9 22  1  0  0  0  0
  7  8  1  0  0  0  0
  7  9  1  0  0  0  0
 26 27  1  0  0  0  0
 26 28  1  0  0  0  0
 26 29  1  0  0  0  0
 24 25  1  0  0  0  0
 24 26  1  0  0  0  0
M  END
$$$$
default_name
  -OEChem-02102213163D

 29 28  0     1  0  0  0  0  0999 V2000
   -3.3998   -3.6239    1.3678 H   0  0  0  0  0  0  0  0  0  0  0  0
   -3.3608   -2.6749    0.8348 C   0  0  0  0  0  0  0  0  0  0  0  0
   -4.0988   -1.9909    1.2498 H   0  0  0  0  0  0  0  0  0  0  0  0
   -3.5618   -2.8419   -0.2222 H   0  0  0  0  0  0  0  0  0  0  0  0
   -1.9818   -2.0809    0.9918 C   0  0  0  0  0  0  0  0  0  0  0  0
   -1.1288   -2.6669    1.6468 O   0  0  0  0  0  0  0  0  0  0  0  0
   -1.7648   -0.9089    0.3998 N   0  0  0  0  0  0  0  0  0  0  0  0
   -2.5238   -0.4719   -0.1032 H   0  0  0  0  0  0  0  0  0  0  0  0
   -0.4848   -0.1959    0.4138 C   0  0  1  0  0  0  0  0  0  0  0  0
    0.2783   -0.8411   -0.0248 H   0  0  0  0  0  0  0  0  0  0  0  0
   -0.6101    1.0666   -0.4611 C   0  0  0  0  0  0  0  0  0  0  0  0
   -1.6707    1.2591   -0.6361 H   0  0  0  0  0  0  0  0  0  0  0  0
   -0.1937    1.9178    0.0797 H   0  0  0  0  0  0  0  0  0  0  0  0
    0.0932    0.9513   -1.8247 C   0  0  0  0  0  0  0  0  0  0  0  0
    0.6689    1.8561   -2.0185 H   0  0  0  0  0  0  0  0  0  0  0  0
    0.7765    0.1025   -1.7996 H   0  0  0  0  0  0  0  0  0  0  0  0
   -0.8786    0.7519   -2.9877 C   0  0  0  0  0  0  0  0  0  0  0  0
   -2.0793    0.6204   -2.8413 O   0  0  0  0  0  0  0  0  0  0  0  0
   -0.3948    0.7287   -4.2107 N   0  0  0  0  0  0  0  0  0  0  0  0
   -1.0777    0.5958   -4.9362 H   0  0  0  0  0  0  0  0  0  0  0  0
    0.5836    0.8347   -4.3874 H   0  0  0  0  0  0  0  0  0  0  0  0
   -0.0637    0.1284    1.8555 C   0  0  0  0  0  0  0  0  0  0  0  0
    1.0918   -0.0745    2.2236 O   0  0  0  0  0  0  0  0  0  0  0  0
   -1.0024    0.6217    2.6735 N   0  0  0  0  0  0  0  0  0  0  0  0
   -1.9213    0.7848    2.2938 H   0  0  0  0  0  0  0  0  0  0  0  0
   -0.7639    0.9676    4.0741 C   0  0  0  0  0  0  0  0  0  0  0  0
    0.0520    1.6916    4.1400 H   0  0  0  0  0  0  0  0  0  0  0  0
   -1.6626    1.3984    4.5182 H   0  0  0  0  0  0  0  0  0  0  0  0
   -0.4775    0.0737    4.6309 H   0  0  0  0  0  0  0  0  0  0  0  0
  5  6  2  0  0  0  0
  5  7  1  0  0  0  0
  2  3  1  0  0  0  0
  2  4  1  0  0  0  0
  2  5  1  0  0  0  0
  1  2  1  0  0  0  0
 22 23  2  0  0  0  0
 22 24  1  0  0  0  0
 19 20  1  0  0  0  0
 19 21  1  0  0  0  0
 17 18  2  0  0  0  0
 17 19  1  0  0  0  0
 14 15  1  0  0  0  0
 14 16  1  0  0  0  0
 14 17  1  0  0  0  0
 11 12  1  0  0  0  0
 11 13  1  0  0  0  0
 11 14  1  0  0  0  0
  9 10  1  0  0  0  0
  9 11  1  0  0  0  0
  9 22  1  0  0  0  0
  7  8  1  0  0  0  0
  7  9  1  0  0  0  0
 26 27  1  0  0  0  0
 26 28  1  0  0  0  0
 26 29  1  0  0  0  0
 24 25  1  0  0  0  0
 24 26  1  0  0  0  0
M  END
$$$$
default_name
  -OEChem-02102213163D

 29 28  0     1  0  0  0  0  0999 V2000
   -3.3998   -3.6239    1.3678 H   0  0  0  0  0  0  0  0  0  0  0  0
   -3.3608   -2.6749    0.8348 C   0  0  0  0  0  0  0  0  0  0  0  0
   -4.0988   -1.9909    1.2498 H   0  0  0  0  0  0  0  0  0  0  0  0
   -3.5618   -2.8419   -0.2222 H   0  0  0  0  0  0  0  0  0  0  0  0
   -1.9818   -2.0809    0.9918 C   0  0  0  0  0  0  0  0  0  0  0  0
   -1.1288   -2.6669    1.6468 O   0  0  0  0  0  0  0  0  0  0  0  0
   -1.7648   -0.9089    0.3998 N   0  0  0  0  0  0  0  0  0  0  0  0
   -2.5238   -0.4719   -0.1032 H   0  0  0  0  0  0  0  0  0  0  0  0
   -0.4848   -0.1959    0.4138 C   0  0  1  0  0  0  0  0  0  0  0  0
    0.2783   -0.8411   -0.0248 H   0  0  0  0  0  0  0  0  0  0  0  0
   -0.6101    1.0666   -0.4611 C   0  0  0  0  0  0  0  0  0  0  0  0
   -1.6707    1.2591   -0.6361 H   0  0  0  0  0  0  0  0  0  0  0  0
   -0.1937    1.9178    0.0797 H   0  0  0  0  0  0  0  0  0  0  0  0
    0.0932    0.9513   -1.8247 C   0  0  0  0  0  0  0  0  0  0  0  0
    0.8663    1.7152   -1.9048 H   0  0  0  0  0  0  0  0  0  0  0  0
    0.5636   -0.0292   -1.8983 H   0  0  0  0  0  0  0  0  0  0  0  0
   -0.8593    1.1177   -3.0087 C   0  0  0  0  0  0  0  0  0  0  0  0
   -2.0625    1.2505   -2.8859 O   0  0  0  0  0  0  0  0  0  0  0  0
   -0.3532    1.1256   -4.2228 N   0  0  0  0  0  0  0  0  0  0  0  0
   -1.0240    1.2388   -4.9629 H   0  0  0  0  0  0  0  0  0  0  0  0
    0.6288    1.0230   -4.3800 H   0  0  0  0  0  0  0  0  0  0  0  0
   -0.0637    0.1284    1.8555 C   0  0  0  0  0  0  0  0  0  0  0  0
    1.0918   -0.0745    2.2236 O   0  0  0  0  0  0  0  0  0  0  0  0
   -1.0024    0.6217    2.6735 N   0  0  0  0  0  0  0  0  0  0  0  0
   -1.9213    0.7848    2.2938 H   0  0  0  0  0  0  0  0  0  0  0  0
   -0.7639    0.9676    4.0741 C   0  0  0  0  0  0  0  0  0  0  0  0
    0.0520    1.6916    4.1400 H   0  0  0  0  0  0  0  0  0  0  0  0
   -1.6626    1.3984    4.5182 H   0  0  0  0  0  0  0  0  0  0  0  0
   -0.4775    0.0737    4.6309 H   0  0  0  0  0  0  0  0  0  0  0  0
  5  6  2  0  0  0  0
  5  7  1  0  0  0  0
  2  3  1  0  0  0  0
  2  4  1  0  0  0  0
  2  5  1  0  0  0  0
  1  2  1  0  0  0  0
 22 23  2  0  0  0  0
 22 24  1  0  0  0  0
 19 20  1  0  0  0  0
 19 21  1  0  0  0  0
 17 18  2  0  0  0  0
 17 19  1  0  0  0  0
 14 15  1  0  0  0  0
 14 16  1  0  0  0  0
 14 17  1  0  0  0  0
 11 12  1  0  0  0  0
 11 13  1  0  0  0  0
 11 14  1  0  0  0  0
  9 10  1  0  0  0  0
  9 11  1  0  0  0  0
  9 22  1  0  0  0  0
  7  8  1  0  0  0  0
  7  9  1  0  0  0  0
 26 27  1  0  0  0  0
 26 28  1  0  0  0  0
 26 29  1  0  0  0  0
 24 25  1  0  0  0  0
 24 26  1  0  0  0  0
M  END
$$$$
default_name
  -OEChem-02102213163D

 29 28  0     1  0  0  0  0  0999 V2000
   -3.3998   -3.6239    1.3678 H   0  0  0  0  0  0  0  0  0  0  0  0
   -3.3608   -2.6749    0.8348 C   0  0  0  0  0  0  0  0  0  0  0  0
   -4.0988   -1.9909    1.2498 H   0  0  0  0  0  0  0  0  0  0  0  0
   -3.5618   -2.8419   -0.2222 H   0  0  0  0  0  0  0  0  0  0  0  0
   -1.9818   -2.0809    0.9918 C   0  0  0  0  0  0  0  0  0  0  0  0
   -1.1288   -2.6669    1.6468 O   0  0  0  0  0  0  0  0  0  0  0  0
   -1.7648   -0.9089    0.3998 N   0  0  0  0  0  0  0  0  0  0  0  0
   -2.5238   -0.4719   -0.1032 H   0  0  0  0  0  0  0  0  0  0  0  0
   -0.4848   -0.1959    0.4138 C   0  0  1  0  0  0  0  0  0  0  0  0
    0.2783   -0.8411   -0.0248 H   0  0  0  0  0  0  0  0  0  0  0  0
   -0.6101    1.0666   -0.4611 C   0  0  0  0  0  0  0  0  0  0  0  0
   -1.6707    1.2591   -0.6361 H   0  0  0  0  0  0  0  0  0  0  0  0
   -0.1937    1.9178    0.0797 H   0  0  0  0  0  0  0  0  0  0  0  0
    0.0932    0.9513   -1.8247 C   0  0  0  0  0  0  0  0  0  0  0  0
    1.0224    1.5204   -1.8077 H   0  0  0  0  0  0  0  0  0  0  0  0
    0.3296   -0.0958   -2.0134 H   0  0  0  0  0  0  0  0  0  0  0  0
   -0.7563    1.4690   -2.9853 C   0  0  0  0  0  0  0  0  0  0  0  0
   -1.9009    1.8605   -2.8541 O   0  0  0  0  0  0  0  0  0  0  0  0
   -0.2218    1.5009   -4.1867 N   0  0  0  0  0  0  0  0  0  0  0  0
   -0.8241    1.8508   -4.9115 H   0  0  0  0  0  0  0  0  0  0  0  0
    0.7156    1.1936   -4.3497 H   0  0  0  0  0  0  0  0  0  0  0  0
   -0.0637    0.1284    1.8555 C   0  0  0  0  0  0  0  0  0  0  0  0
    1.0918   -0.0745    2.2236 O   0  0  0  0  0  0  0  0  0  0  0  0
   -1.0024    0.6217    2.6735 N   0  0  0  0  0  0  0  0  0  0  0  0
   -1.9213    0.7848    2.2938 H   0  0  0  0  0  0  0  0  0  0  0  0
   -0.7639    0.9676    4.0741 C   0  0  0  0  0  0  0  0  0  0  0  0
    0.0520    1.6916    4.1400 H   0  0  0  0  0  0  0  0  0  0  0  0
   -1.6626    1.3984    4.5182 H   0  0  0  0  0  0  0  0  0  0  0  0
   -0.4775    0.0737    4.6309 H   0  0  0  0  0  0  0  0  0  0  0  0
  5  6  2  0  0  0  0
  5  7  1  0  0  0  0
  2  3  1  0  0  0  0
  2  4  1  0  0  0  0
  2  5  1  0  0  0  0
  1  2  1  0  0  0  0
 22 23  2  0  0  0  0
 22 24  1  0  0  0  0
 19 20  1  0  0  0  0
 19 21  1  0  0  0  0
 17 18  2  0  0  0  0
 17 19  1  0  0  0  0
 14 15  1  0  0  0  0
 14 16  1  0  0  0  0
 14 17  1  0  0  0  0
 11 12  1  0  0  0  0
 11 13  1  0  0  0  0
 11 14  1  0  0  0  0
  9 10  1  0  0  0  0
  9 11  1  0  0  0  0
  9 22  1  0  0  0  0
  7  8  1  0  0  0  0
  7  9  1  0  0  0  0
 26 27  1  0  0  0  0
 26 28  1  0  0  0  0
 26 29  1  0  0  0  0
 24 25  1  0  0  0  0
 24 26  1  0  0  0  0
M  END
$$$$
default_name
  -OEChem-02102213163D

 29 28  0     1  0  0  0  0  0999 V2000
   -3.3998   -3.6239    1.3678 H   0  0  0  0  0  0  0  0  0  0  0  0
   -3.3608   -2.6749    0.8348 C   0  0  0  0  0  0  0  0  0  0  0  0
   -4.0988   -1.9909    1.2498 H   0  0  0  0  0  0  0  0  0  0  0  0
   -3.5618   -2.8419   -0.2222 H   0  0  0  0  0  0  0  0  0  0  0  0
   -1.9818   -2.0809    0.9918 C   0  0  0  0  0  0  0  0  0  0  0  0
   -1.1288   -2.6669    1.6468 O   0  0  0  0  0  0  0  0  0  0  0  0
   -1.7648   -0.9089    0.3998 N   0  0  0  0  0  0  0  0  0  0  0  0
   -2.5238   -0.4719   -0.1032 H   0  0  0  0  0  0  0  0  0  0  0  0
   -0.4848   -0.1959    0.4138 C   0  0  1  0  0  0  0  0  0  0  0  0
    0.2783   -0.8411   -0.0248 H   0  0  0  0  0  0  0  0  0  0  0  0
   -0.6101    1.0666   -0.4611 C   0  0  0  0  0  0  0  0  0  0  0  0
   -1.6707    1.2591   -0.6361 H   0  0  0  0  0  0  0  0  0  0  0  0
   -0.1937    1.9178    0.0797 H   0  0  0  0  0  0  0  0  0  0  0  0
    0.0932    0.9513   -1.8247 C   0  0  0  0  0  0  0  0  0  0  0  0
    1.1267    1.2849   -1.7340 H   0  0  0  0  0  0  0  0  0  0  0  0
    0.0905   -0.0930   -2.1369 H   0  0  0  0  0  0  0  0  0  0  0  0
   -0.5768    1.7820   -2.9191 C   0  0  0  0  0  0  0  0  0  0  0  0
   -1.6055    2.4089   -2.7482 O   0  0  0  0  0  0  0  0  0  0  0  0
   -0.0095    1.8290   -4.1049 N   0  0  0  0  0  0  0  0  0  0  0  0
   -0.4916    2.3901   -4.7856 H   0  0  0  0  0  0  0  0  0  0  0  0
    0.8379    1.3349   -4.2985 H   0  0  0  0  0  0  0  0  0  0  0  0
   -0.0637    0.1284    1.8555 C   0  0  0  0  0  0  0  0  0  0  0  0
    1.0918   -0.0745    2.2236 O   0  0  0  0  0  0  0  0  0  0  0  0
   -1.0024    0.6217    2.6735 N   0  0  0  0  0  0  0  0  0  0  0  0
   -1.9213    0.7848    2.2938 H   0  0  0  0  0  0  0  0  0  0  0  0
   -0.7639    0.9676    4.0741 C   0  0  0  0  0  0  0  0  0  0  0  0
    0.0520    1.6916    4.1400 H   0  0  0  0  0  0  0  0  0  0  0  0
   -1.6626    1.3984    4.5182 H   0  0  0  0  0  0  0  0  0  0  0  0
   -0.4775    0.0737    4.6309 H   0  0  0  0  0  0  0  0  0  0  0  0
  5  6  2  0  0  0  0
  5  7  1  0  0  0  0
  2  3  1  0  0  0  0
  2  4  1  0  0  0  0
  2  5  1  0  0  0  0
  1  2  1  0  0  0  0
 22 23  2  0  0  0  0
 22 24  1  0  0  0  0
 19 20  1  0  0  0  0
 19 21  1  0  0  0  0
 17 18  2  0  0  0  0
 17 19  1  0  0  0  0
 14 15  1  0  0  0  0
 14 16  1  0  0  0  0
 14 17  1  0  0  0  0
 11 12  1  0  0  0  0
 11 13  1  0  0  0  0
 11 14  1  0  0  0  0
  9 10  1  0  0  0  0
  9 11  1  0  0  0  0
  9 22  1  0  0  0  0
  7  8  1  0  0  0  0
  7  9  1  0  0  0  0
 26 27  1  0  0  0  0
 26 28  1  0  0  0  0
 26 29  1  0  0  0  0
 24 25  1  0  0  0  0
 24 26  1  0  0  0  0
M  END
$$$$
default_name
  -OEChem-02102213163D

 29 28  0     1  0  0  0  0  0999 V2000
   -3.3998   -3.6239    1.3678 H   0  0  0  0  0  0  0  0  0  0  0  0
   -3.3608   -2.6749    0.8348 C   0  0  0  0  0  0  0  0  0  0  0  0
   -4.0988   -1.9909    1.2498 H   0  0  0  0  0  0  0  0  0  0  0  0
   -3.5618   -2.8419   -0.2222 H   0  0  0  0  0  0  0  0  0  0  0  0
   -1.9818   -2.0809    0.9918 C   0  0  0  0  0  0  0  0  0  0  0  0
   -1.1288   -2.6669    1.6468 O   0  0  0  0  0  0  0  0  0  0  0  0
   -1.7648   -0.9089    0.3998 N   0  0  0  0  0  0  0  0  0  0  0  0
   -2.5238   -0.4719   -0.1032 H   0  0  0  0  0  0  0  0  0  0  0  0
   -0.4848   -0.1959    0.4138 C   0  0  1  0  0  0  0  0  0  0  0  0
    0.2783   -0.8411   -0.0248 H   0  0  0  0  0  0  0  0  0  0  0  0
   -0.6101    1.0666   -0.4611 C   0  0  0  0  0  0  0  0  0  0  0  0
   -1.6707    1.2591   -0.6361 H   0  0  0  0  0  0  0  0  0  0  0  0
   -0.1937    1.9178    0.0797 H   0  0  0  0  0  0  0  0  0  0  0  0
    0.0932    0.9513   -1.8247 C   0  0  0  0  0  0  0  0  0  0  0  0
    1.1720    1.0248   -1.6887 H   0  0  0  0  0  0  0  0  0  0  0  0
   -0.1373   -0.0207   -2.2606 H   0  0  0  0  0  0  0  0  0  0  0  0
   -0.3328    2.0353   -2.8147 C   0  0  0  0  0  0  0  0  0  0  0  0
   -1.1964    2.8583   -2.5752 O   0  0  0  0  0  0  0  0  0  0  0  0
    0.2693    2.0876   -3.9830 N   0  0  0  0  0  0  0  0  0  0  0  0
   -0.0492    2.8197   -4.5937 H   0  0  0  0  0  0  0  0  0  0  0  0
    0.9875    1.4373   -4.2300 H   0  0  0  0  0  0  0  0  0  0  0  0
   -0.0637    0.1284    1.8555 C   0  0  0  0  0  0  0  0  0  0  0  0
    1.0918   -0.0745    2.2236 O   0  0  0  0  0  0  0  0  0  0  0  0
   -1.0024    0.6217    2.6735 N   0  0  0  0  0  0  0  0  0  0  0  0
   -1.9213    0.7848    2.2938 H   0  0  0  0  0  0  0  0  0  0  0  0
   -0.7639    0.9676    4.0741 C   0  0  0  0  0  0  0  0  0  0  0  0
    0.0520    1.6916    4.1400 H   0  0  0  0  0  0  0  0  0  0  0  0
   -1.6626    1.3984    4.5182 H   0  0  0  0  0  0  0  0  0  0  0  0
   -0.4775    0.0737    4.6309 H   0  0  0  0  0  0  0  0  0  0  0  0
  5  6  2  0  0  0  0
  5  7  1  0  0  0  0
  2  3  1  0  0  0  0
  2  4  1  0  0  0  0
  2  5  1  0  0  0  0
  1  2  1  0  0  0  0
 22 23  2  0  0  0  0
 22 24  1  0  0  0  0
 19 20  1  0  0  0  0
 19 21  1  0  0  0  0
 17 18  2  0  0  0  0
 17 19  1  0  0  0  0
 14 15  1  0  0  0  0
 14 16  1  0  0  0  0
 14 17  1  0  0  0  0
 11 12  1  0  0  0  0
 11 13  1  0  0  0  0
 11 14  1  0  0  0  0
  9 10  1  0  0  0  0
  9 11  1  0  0  0  0
  9 22  1  0  0  0  0
  7  8  1  0  0  0  0
  7  9  1  0  0  0  0
 26 27  1  0  0  0  0
 26 28  1  0  0  0  0
 26 29  1  0  0  0  0
 24 25  1  0  0  0  0
 24 26  1  0  0  0  0
M  END
$$$$
default_name
  -OEChem-02102213163D

 29 28  0     1  0  0  0  0  0999 V2000
   -3.3998   -3.6239    1.3678 H   0  0  0  0  0  0  0  0  0  0  0  0
   -3.3608   -2.6749    0.8348 C   0  0  0  0  0  0  0  0  0  0  0  0
   -4.0988   -1.9909    1.2498 H   0  0  0  0  0  0  0  0  0  0  0  0
   -3.5618   -2.8419   -0.2222 H   0  0  0  0  0  0  0  0  0  0  0  0
   -1.9818   -2.0809    0.9918 C   0  0  0  0  0  0  0  0  0  0  0  0
   -1.1288   -2.6669    1.6468 O   0  0  0  0  0  0  0  0  0  0  0  0
   -1.7648   -0.9089    0.3998 N   0  0  0  0  0  0  0  0  0  0  0  0
   -2.5238   -0.4719   -0.1032 H   0  0  0  0  0  0  0  0  0  0  0  0
   -0.4848   -0.1959    0.4138 C   0  0  1  0  0  0  0  0  0  0  0  0
    0.2783   -0.8411   -0.0248 H   0  0  0  0  0  0  0  0  0  0  0  0
   -0.6101    1.0666   -0.4611 C   0  0  0  0  0  0  0  0  0  0  0  0
   -1.6443    1.4143   -0.4160 H   0  0  0  0  0  0  0  0  0  0  0  0
    0.0309    1.8489   -0.0519 H   0  0  0  0  0  0  0  0  0  0  0  0
   -0.2386    0.8406   -1.9370 C   0  0  0  0  0  0  0  0  0  0  0  0
    0.7915    0.4916   -2.0069 H   0  0  0  0  0  0  0  0  0  0  0  0
   -0.8942    0.0761   -2.3537 H   0  0  0  0  0  0  0  0  0  0  0  0
   -0.3685    2.1024   -2.7899 C   0  0  0  0  0  0  0  0  0  0  0  0
   -0.7959    3.1582   -2.3621 O   0  0  0  0  0  0  0  0  0  0  0  0
    0.0078    2.0481   -4.0492 N   0  0  0  0  0  0  0  0  0  0  0  0
   -0.0985    2.9058   -4.5626 H   0  0  0  0  0  0  0  0  0  0  0  0
    0.3686    1.2065   -4.4507 H   0  0  0  0  0  0  0  0  0  0  0  0
   -0.0637    0.1284    1.8555 C   0  0  0  0  0  0  0  0  0  0  0  0
    1.0918   -0.0745    2.2236 O   0  0  0  0  0  0  0  0  0  0  0  0
   -1.0024    0.6217    2.6735 N   0  0  0  0  0  0  0  0  0  0  0  0
   -1.9213    0.7848    2.2938 H   0  0  0  0  0  0  0  0  0  0  0  0
   -0.7639    0.9676    4.0741 C   0  0  0  0  0  0  0  0  0  0  0  0
    0.0520    1.6916    4.1400 H   0  0  0  0  0  0  0  0  0  0  0  0
   -1.6626    1.3984    4.5182 H   0  0  0  0  0  0  0  0  0  0  0  0
   -0.4775    0.0737    4.6309 H   0  0  0  0  0  0  0  0  0  0  0  0
  5  6  2  0  0  0  0
  5  7  1  0  0  0  0
  2  3  1  0  0  0  0
  2  4  1  0  0  0  0
  2  5  1  0  0  0  0
  1  2  1  0  0  0  0
 22 23  2  0  0  0  0
 22 24  1  0  0  0  0
 19 20  1  0  0  0  0
 19 21  1  0  0  0  0
 17 18  2  0  0  0  0
 17 19  1  0  0  0  0
 14 15  1  0  0  0  0
 14 16  1  0  0  0  0
 14 17  1  0  0  0  0
 11 12  1  0  0  0  0
 11 13  1  0  0  0  0
 11 14  1  0  0  0  0
  9 10  1  0  0  0  0
  9 11  1  0  0  0  0
  9 22  1  0  0  0  0
  7  8  1  0  0  0  0
  7  9  1  0  0  0  0
 26 27  1  0  0  0  0
 26 28  1  0  0  0  0
 26 29  1  0  0  0  0
 24 25  1  0  0  0  0
 24 26  1  0  0  0  0
M  END
$$$$
default_name
  -OEChem-02102213163D

 29 28  0     1  0  0  0  0  0999 V2000
   -3.3998   -3.6239    1.3678 H   0  0  0  0  0  0  0  0  0  0  0  0
   -3.3608   -2.6749    0.8348 C   0  0  0  0  0  0  0  0  0  0  0  0
   -4.0988   -1.9909    1.2498 H   0  0  0  0  0  0  0  0  0  0  0  0
   -3.5618   -2.8419   -0.2222 H   0  0  0  0  0  0  0  0  0  0  0  0
   -1.9818   -2.0809    0.9918 C   0  0  0  0  0  0  0  0  0  0  0  0
   -1.1288   -2.6669    1.6468 O   0  0  0  0  0  0  0  0  0  0  0  0
   -1.7648   -0.9089    0.3998 N   0  0  0  0  0  0  0  0  0  0  0  0
   -2.5238   -0.4719   -0.1032 H   0  0  0  0  0  0  0  0  0  0  0  0
   -0.4848   -0.1959    0.4138 C   0  0  1  0  0  0  0  0  0  0  0  0
    0.2783   -0.8411   -0.0248 H   0  0  0  0  0  0  0  0  0  0  0  0
   -0.6101    1.0666   -0.4611 C   0  0  0  0  0  0  0  0  0  0  0  0
   -1.6443    1.4143   -0.4160 H   0  0  0  0  0  0  0  0  0  0  0  0
    0.0309    1.8489   -0.0519 H   0  0  0  0  0  0  0  0  0  0  0  0
   -0.2386    0.8406   -1.9370 C   0  0  0  0  0  0  0  0  0  0  0  0
    0.6754    0.2503   -1.9991 H   0  0  0  0  0  0  0  0  0  0  0  0
   -1.0429    0.2892   -2.4238 H   0  0  0  0  0  0  0  0  0  0  0  0
   -0.0134    2.1419   -2.7066 C   0  0  0  0  0  0  0  0  0  0  0  0
   -0.1859    3.2445   -2.2217 O   0  0  0  0  0  0  0  0  0  0  0  0
    0.3952    2.0683   -3.9547 N   0  0  0  0  0  0  0  0  0  0  0  0
    0.5278    2.9535   -4.4122 H   0  0  0  0  0  0  0  0  0  0  0  0
    0.5550    1.1879   -4.4010 H   0  0  0  0  0  0  0  0  0  0  0  0
   -0.0637    0.1284    1.8555 C   0  0  0  0  0  0  0  0  0  0  0  0
    1.0918   -0.0745    2.2236 O   0  0  0  0  0  0  0  0  0  0  0  0
   -1.0024    0.6217    2.6735 N   0  0  0  0  0  0  0  0  0  0  0  0
   -1.9213    0.7848    2.2938 H   0  0  0  0  0  0  0  0  0  0  0  0
   -0.7639    0.9676    4.0741 C   0  0  0  0  0  0  0  0  0  0  0  0
    0.0520    1.6916    4.1400 H   0  0  0  0  0  0  0  0  0  0  0  0
   -1.6626    1.3984    4.5182 H   0  0  0  0  0  0  0  0  0  0  0  0
   -0.4775    0.0737    4.6309 H   0  0  0  0  0  0  0  0  0  0  0  0
  5  6  2  0  0  0  0
  5  7  1  0  0  0  0
  2  3  1  0  0  0  0
  2  4  1  0  0  0  0
  2  5  1  0  0  0  0
  1  2  1  0  0  0  0
 22 23  2  0  0  0  0
 22 24  1  0  0  0  0
 19 20  1  0  0  0  0
 19 21  1  0  0  0  0
 17 18  2  0  0  0  0
 17 19  1  0  0  0  0
 14 15  1  0  0  0  0
 14 16  1  0  0  0  0
 14 17  1  0  0  0  0
 11 12  1  0  0  0  0
 11 13  1  0  0  0  0
 11 14  1  0  0  0  0
  9 10  1  0  0  0  0
  9 11  1  0  0  0  0
  9 22  1  0  0  0  0
  7  8  1  0  0  0  0
  7  9  1  0  0  0  0
 26 27  1  0  0  0  0
 26 28  1  0  0  0  0
 26 29  1  0  0  0  0
 24 25  1  0  0  0  0
 24 26  1  0  0  0  0
M  END
$$$$
default_name
  -OEChem-02102213163D

 29 28  0     1  0  0  0  0  0999 V2000
   -3.3998   -3.6239    1.3678 H   0  0  0  0  0  0  0  0  0  0  0  0
   -3.3608   -2.6749    0.8348 C   0  0  0  0  0  0  0  0  0  0  0  0
   -4.0988   -1.9909    1.2498 H   0  0  0  0  0  0  0  0  0  0  0  0
   -3.5618   -2.8419   -0.2222 H   0  0  0  0  0  0  0  0  0  0  0  0
   -1.9818   -2.0809    0.9918 C   0  0  0  0  0  0  0  0  0  0  0  0
   -1.1288   -2.6669    1.6468 O   0  0  0  0  0  0  0  0  0  0  0  0
   -1.7648   -0.9089    0.3998 N   0  0  0  0  0  0  0  0  0  0  0  0
   -2.5238   -0.4719   -0.1032 H   0  0  0  0  0  0  0  0  0  0  0  0
   -0.4848   -0.1959    0.4138 C   0  0  1  0  0  0  0  0  0  0  0  0
    0.2783   -0.8411   -0.0248 H   0  0  0  0  0  0  0  0  0  0  0  0
   -0.6101    1.0666   -0.4611 C   0  0  0  0  0  0  0  0  0  0  0  0
   -1.6443    1.4143   -0.4160 H   0  0  0  0  0  0  0  0  0  0  0  0
    0.0309    1.8489   -0.0519 H   0  0  0  0  0  0  0  0  0  0  0  0
   -0.2386    0.8406   -1.9370 C   0  0  0  0  0  0  0  0  0  0  0  0
    0.5032    0.0456   -2.0111 H   0  0  0  0  0  0  0  0  0  0  0  0
   -1.1310    0.5363   -2.4838 H   0  0  0  0  0  0  0  0  0  0  0  0
    0.3362    2.0868   -2.6101 C   0  0  0  0  0  0  0  0  0  0  0  0
    0.4194    3.1677   -2.0576 O   0  0  0  0  0  0  0  0  0  0  0  0
    0.7709    1.9857   -3.8475 N   0  0  0  0  0  0  0  0  0  0  0  0
    1.1389    2.8347   -4.2402 H   0  0  0  0  0  0  0  0  0  0  0  0
    0.7285    1.1206   -4.3470 H   0  0  0  0  0  0  0  0  0  0  0  0
   -0.0637    0.1284    1.8555 C   0  0  0  0  0  0  0  0  0  0  0  0
    1.0918   -0.0745    2.2236 O   0  0  0  0  0  0  0  0  0  0  0  0
   -1.0024    0.6217    2.6735 N   0  0  0  0  0  0  0  0  0  0  0  0
   -1.9213    0.7848    2.2938 H   0  0  0  0  0  0  0  0  0  0  0  0
   -0.7639    0.9676    4.0741 C   0  0  0  0  0  0  0  0  0  0  0  0
    0.0520    1.6916    4.1400 H   0  0  0  0  0  0  0  0  0  0  0  0
   -1.6626    1.3984    4.5182 H   0  0  0  0  0  0  0  0  0  0  0  0
   -0.4775    0.0737    4.6309 H   0  0  0  0  0  0  0  0  0  0  0  0
  5  6  2  0  0  0  0
  5  7  1  0  0  0  0
  2  3  1  0  0  0  0
  2  4  1  0  0  0  0
  2  5  1  0  0  0  0
  1  2  1  0  0  0  0
 22 23  2  0  0  0  0
 22 24  1  0  0  0  0
 19 20  1  0  0  0  0
 19 21  1  0  0  0  0
 17 18  2  0  0  0  0
 17 19  1  0  0  0  0
 14 15  1  0  0  0  0
 14 16  1  0  0  0  0
 14 17  1  0  0  0  0
 11 12  1  0  0  0  0
 11 13  1  0  0  0  0
 11 14  1  0  0  0  0
  9 10  1  0  0  0  0
  9 11  1  0  0  0  0
  9 22  1  0  0  0  0
  7  8  1  0  0  0  0
  7  9  1  0  0  0  0
 26 27  1  0  0  0  0
 26 28  1  0  0  0  0
 26 29  1  0  0  0  0
 24 25  1  0  0  0  0
 24 26  1  0  0  0  0
M  END
$$$$
default_name
  -OEChem-02102213163D

 29 28  0     1  0  0  0  0  0999 V2000
   -3.3998   -3.6239    1.3678 H   0  0  0  0  0  0  0  0  0  0  0  0
   -3.3608   -2.6749    0.8348 C   0  0  0  0  0  0  0  0  0  0  0  0
   -4.0988   -1.9909    1.2498 H   0  0  0  0  0  0  0  0  0  0  0  0
   -3.5618   -2.8419   -0.2222 H   0  0  0  0  0  0  0  0  0  0  0  0
   -1.9818   -2.0809    0.9918 C   0  0  0  0  0  0  0  0  0  0  0  0
   -1.1288   -2.6669    1.6468 O   0  0  0  0  0  0  0  0  0  0  0  0
   -1.7648   -0.9089    0.3998 N   0  0  0  0  0  0  0  0  0  0  0  0
   -2.5238   -0.4719   -0.1032 H   0  0  0  0  0  0  0  0  0  0  0  0
   -0.4848   -0.1959    0.4138 C   0  0  1  0  0  0  0  0  0  0  0  0
    0.2783   -0.8411   -0.0248 H   0  0  0  0  0  0  0  0  0  0  0  0
   -0.6101    1.0666   -0.4611 C   0  0  0  0  0  0  0  0  0  0  0  0
   -1.6443    1.4143   -0.4160 H   0  0  0  0  0  0  0  0  0  0  0  0
    0.0309    1.8489   -0.0519 H   0  0  0  0  0  0  0  0  0  0  0  0
   -0.2386    0.8406   -1.9370 C   0  0  0  0  0  0  0  0  0  0  0  0
    0.2864   -0.1087   -2.0421 H   0  0  0  0  0  0  0  0  0  0  0  0
   -1.1524    0.8006   -2.5297 H   0  0  0  0  0  0  0  0  0  0  0  0
    0.6566    1.9407   -2.5071 C   0  0  0  0  0  0  0  0  0  0  0  0
    0.9787    2.9329   -1.8808 O   0  0  0  0  0  0  0  0  0  0  0  0
    1.1091    1.8060   -3.7348 N   0  0  0  0  0  0  0  0  0  0  0  0
    1.6932    2.5575   -4.0582 H   0  0  0  0  0  0  0  0  0  0  0  0
    0.8773    1.0091   -4.2924 H   0  0  0  0  0  0  0  0  0  0  0  0
   -0.0637    0.1284    1.8555 C   0  0  0  0  0  0  0  0  0  0  0  0
    1.0918   -0.0745    2.2236 O   0  0  0  0  0  0  0  0  0  0  0  0
   -1.0024    0.6217    2.6735 N   0  0  0  0  0  0  0  0  0  0  0  0
   -1.9213    0.7848    2.2938 H   0  0  0  0  0  0  0  0  0  0  0  0
   -0.7639    0.9676    4.0741 C   0  0  0  0  0  0  0  0  0  0  0  0
    0.0520    1.6916    4.1400 H   0  0  0  0  0  0  0  0  0  0  0  0
   -1.6626    1.3984    4.5182 H   0  0  0  0  0  0  0  0  0  0  0  0
   -0.4775    0.0737    4.6309 H   0  0  0  0  0  0  0  0  0  0  0  0
  5  6  2  0  0  0  0
  5  7  1  0  0  0  0
  2  3  1  0  0  0  0
  2  4  1  0  0  0  0
  2  5  1  0  0  0  0
  1  2  1  0  0  0  0
 22 23  2  0  0  0  0
 22 24  1  0  0  0  0
 19 20  1  0  0  0  0
 19 21  1  0  0  0  0
 17 18  2  0  0  0  0
 17 19  1  0  0  0  0
 14 15  1  0  0  0  0
 14 16  1  0  0  0  0
 14 17  1  0  0  0  0
 11 12  1  0  0  0  0
 11 13  1  0  0  0  0
 11 14  1  0  0  0  0
  9 10  1  0  0  0  0
  9 11  1  0  0  0  0
  9 22  1  0  0  0  0
  7  8  1  0  0  0  0
  7  9  1  0  0  0  0
 26 27  1  0  0  0  0
 26 28  1  0  0  0  0
 26 29  1  0  0  0  0
 24 25  1  0  0  0  0
 24 26  1  0  0  0  0
M  END
$$$$
default_name
  -OEChem-02102213163D

 29 28  0     1  0  0  0  0  0999 V2000
   -3.3998   -3.6239    1.3678 H   0  0  0  0  0  0  0  0  0  0  0  0
   -3.3608   -2.6749    0.8348 C   0  0  0  0  0  0  0  0  0  0  0  0
   -4.0988   -1.9909    1.2498 H   0  0  0  0  0  0  0  0  0  0  0  0
   -3.5618   -2.8419   -0.2222 H   0  0  0  0  0  0  0  0  0  0  0  0
   -1.9818   -2.0809    0.9918 C   0  0  0  0  0  0  0  0  0  0  0  0
   -1.1288   -2.6669    1.6468 O   0  0  0  0  0  0  0  0  0  0  0  0
   -1.7648   -0.9089    0.3998 N   0  0  0  0  0  0  0  0  0  0  0  0
   -2.5238   -0.4719   -0.1032 H   0  0  0  0  0  0  0  0  0  0  0  0
   -0.4848   -0.1959    0.4138 C   0  0  1  0  0  0  0  0  0  0  0  0
    0.2783   -0.8411   -0.0248 H   0  0  0  0  0  0  0  0  0  0  0  0
   -0.6101    1.0666   -0.4611 C   0  0  0  0  0  0  0  0  0  0  0  0
   -1.6443    1.4143   -0.4160 H   0  0  0  0  0  0  0  0  0  0  0  0
    0.0309    1.8489   -0.0519 H   0  0  0  0  0  0  0  0  0  0  0  0
   -0.2386    0.8406   -1.9370 C   0  0  0  0  0  0  0  0  0  0  0  0
    0.0398   -0.2019   -2.0899 H   0  0  0  0  0  0  0  0  0  0  0  0
   -1.1057    1.0641   -2.5583 H   0  0  0  0  0  0  0  0  0  0  0  0
    0.9258    1.7136   -2.4045 C   0  0  0  0  0  0  0  0  0  0  0  0
    1.4540    2.5562   -1.7034 O   0  0  0  0  0  0  0  0  0  0  0  0
    1.3869    1.5413   -3.6243 N   0  0  0  0  0  0  0  0  0  0  0  0
    2.1528    2.1407   -3.8786 H   0  0  0  0  0  0  0  0  0  0  0  0
    0.9913    0.8610   -4.2410 H   0  0  0  0  0  0  0  0  0  0  0  0
   -0.0637    0.1284    1.8555 C   0  0  0  0  0  0  0  0  0  0  0  0
    1.0918   -0.0745    2.2236 O   0  0  0  0  0  0  0  0  0  0  0  0
   -1.0024    0.6217    2.6735 N   0  0  0  0  0  0  0  0  0  0  0  0
   -1.9213    0.7848    2.2938 H   0  0  0  0  0  0  0  0  0  0  0  0
   -0.7639    0.9676    4.0741 C   0  0  0  0  0  0  0  0  0  0  0  0
    0.0520    1.6916    4.1400 H   0  0  0  0  0  0  0  0  0  0  0  0
   -1.6626    1.3984    4.5182 H   0  0  0  0  0  0  0  0  0  0  0  0
   -0.4775    0.0737    4.6309 H   0  0  0  0  0  0  0  0  0  0  0  0
  5  6  2  0  0  0  0
  5  7  1  0  0  0  0
  2  3  1  0  0  0  0
  2  4  1  0  0  0  0
  2  5  1  0  0  0  0
  1  2  1  0  0  0  0
 22 23  2  0  0  0  0
 22 24  1  0  0  0  0
 19 20  1  0  0  0  0
 19 21  1  0  0  0  0
 17 18  2  0  0  0  0
 17 19  1  0  0  0  0
 14 15  1  0  0  0  0
 14 16  1  0  0  0  0
 14 17  1  0  0  0  0
 11 12  1  0  0  0  0
 11 13  1  0  0  0  0
 11 14  1  0  0  0  0
  9 10  1  0  0  0  0
  9 11  1  0  0  0  0
  9 22  1  0  0  0  0
  7  8  1  0  0  0  0
  7  9  1  0  0  0  0
 26 27  1  0  0  0  0
 26 28  1  0  0  0  0
 26 29  1  0  0  0  0
 24 25  1  0  0  0  0
 24 26  1  0  0  0  0
M  END
$$$$
default_name
  -OEChem-02102213163D

 29 28  0     1  0  0  0  0  0999 V2000
   -3.3998   -3.6239    1.3678 H   0  0  0  0  0  0  0  0  0  0  0  0
   -3.3608   -2.6749    0.8348 C   0  0  0  0  0  0  0  0  0  0  0  0
   -4.0988   -1.9909    1.2498 H   0  0  0  0  0  0  0  0  0  0  0  0
   -3.5618   -2.8419   -0.2222 H   0  0  0  0  0  0  0  0  0  0  0  0
   -1.9818   -2.0809    0.9918 C   0  0  0  0  0  0  0  0  0  0  0  0
   -1.1288   -2.6669    1.6468 O   0  0  0  0  0  0  0  0  0  0  0  0
   -1.7648   -0.9089    0.3998 N   0  0  0  0  0  0  0  0  0  0  0  0
   -2.5238   -0.4719   -0.1032 H   0  0  0  0  0  0  0  0  0  0  0  0
   -0.4848   -0.1959    0.4138 C   0  0  1  0  0  0  0  0  0  0  0  0
    0.2783   -0.8411   -0.0248 H   0  0  0  0  0  0  0  0  0  0  0  0
   -0.6101    1.0666   -0.4611 C   0  0  0  0  0  0  0  0  0  0  0  0
   -1.6443    1.4143   -0.4160 H   0  0  0  0  0  0  0  0  0  0  0  0
    0.0309    1.8489   -0.0519 H   0  0  0  0  0  0  0  0  0  0  0  0
   -0.2386    0.8406   -1.9370 C   0  0  0  0  0  0  0  0  0  0  0  0
   -0.2196   -0.2278   -2.1513 H   0  0  0  0  0  0  0  0  0  0  0  0
   -0.9941    1.3089   -2.5677 H   0  0  0  0  0  0  0  0  0  0  0  0
    1.1256    1.4210   -2.3094 C   0  0  0  0  0  0  0  0  0  0  0  0
    1.8129    2.0633   -1.5375 O   0  0  0  0  0  0  0  0  0  0  0  0
    1.5854    1.2098   -3.5236 N   0  0  0  0  0  0  0  0  0  0  0  0
    2.4864    1.6129   -3.7137 H   0  0  0  0  0  0  0  0  0  0  0  0
    1.0627    0.6864   -4.1963 H   0  0  0  0  0  0  0  0  0  0  0  0
   -0.0637    0.1284    1.8555 C   0  0  0  0  0  0  0  0  0  0  0  0
    1.0918   -0.0745    2.2236 O   0  0  0  0  0  0  0  0  0  0  0  0
   -1.0024    0.6217    2.6735 N   0  0  0  0  0  0  0  0  0  0  0  0
   -1.9213    0.7848    2.2938 H   0  0  0  0  0  0  0  0  0  0  0  0
   -0.7639    0.9676    4.0741 C   0  0  0  0  0  0  0  0  0  0  0  0
    0.0520    1.6916    4.1400 H   0  0  0  0  0  0  0  0  0  0  0  0
   -1.6626    1.3984    4.5182 H   0  0  0  0  0  0  0  0  0  0  0  0
   -0.4775    0.0737    4.6309 H   0  0  0  0  0  0  0  0  0  0  0  0
  5  6  2  0  0  0  0
  5  7  1  0  0  0  0
  2  3  1  0  0  0  0
  2  4  1  0  0  0  0
  2  5  1  0  0  0  0
  1  2  1  0  0  0  0
 22 23  2  0  0  0  0
 22 24  1  0  0  0  0
 19 20  1  0  0  0  0
 19 21  1  0  0  0  0
 17 18  2  0  0  0  0
 17 19  1  0  0  0  0
 14 15  1  0  0  0  0
 14 16  1  0  0  0  0
 14 17  1  0  0  0  0
 11 12  1  0  0  0  0
 11 13  1  0  0  0  0
 11 14  1  0  0  0  0
  9 10  1  0  0  0  0
  9 11  1  0  0  0  0
  9 22  1  0  0  0  0
  7  8  1  0  0  0  0
  7  9  1  0  0  0  0
 26 27  1  0  0  0  0
 26 28  1  0  0  0  0
 26 29  1  0  0  0  0
 24 25  1  0  0  0  0
 24 26  1  0  0  0  0
M  END
$$$$
default_name
  -OEChem-02102213163D

 29 28  0     1  0  0  0  0  0999 V2000
   -3.3998   -3.6239    1.3678 H   0  0  0  0  0  0  0  0  0  0  0  0
   -3.3608   -2.6749    0.8348 C   0  0  0  0  0  0  0  0  0  0  0  0
   -4.0988   -1.9909    1.2498 H   0  0  0  0  0  0  0  0  0  0  0  0
   -3.5618   -2.8419   -0.2222 H   0  0  0  0  0  0  0  0  0  0  0  0
   -1.9818   -2.0809    0.9918 C   0  0  0  0  0  0  0  0  0  0  0  0
   -1.1288   -2.6669    1.6468 O   0  0  0  0  0  0  0  0  0  0  0  0
   -1.7648   -0.9089    0.3998 N   0  0  0  0  0  0  0  0  0  0  0  0
   -2.5238   -0.4719   -0.1032 H   0  0  0  0  0  0  0  0  0  0  0  0
   -0.4848   -0.1959    0.4138 C   0  0  1  0  0  0  0  0  0  0  0  0
    0.2783   -0.8411   -0.0248 H   0  0  0  0  0  0  0  0  0  0  0  0
   -0.6101    1.0666   -0.4611 C   0  0  0  0  0  0  0  0  0  0  0  0
   -1.6443    1.4143   -0.4160 H   0  0  0  0  0  0  0  0  0  0  0  0
    0.0309    1.8489   -0.0519 H   0  0  0  0  0  0  0  0  0  0  0  0
   -0.2386    0.8406   -1.9370 C   0  0  0  0  0  0  0  0  0  0  0  0
   -0.4743   -0.1845   -2.2220 H   0  0  0  0  0  0  0  0  0  0  0  0
   -0.8252    1.5181   -2.5573 H   0  0  0  0  0  0  0  0  0  0  0  0
    1.2424    1.0828   -2.2282 C   0  0  0  0  0  0  0  0  0  0  0  0
    2.0308    1.4877   -1.3945 O   0  0  0  0  0  0  0  0  0  0  0  0
    1.6910    0.8340   -3.4394 N   0  0  0  0  0  0  0  0  0  0  0  0
    2.6714    1.0098   -3.5748 H   0  0  0  0  0  0  0  0  0  0  0  0
    1.0866    0.4973   -4.1613 H   0  0  0  0  0  0  0  0  0  0  0  0
   -0.0637    0.1284    1.8555 C   0  0  0  0  0  0  0  0  0  0  0  0
    1.0918   -0.0745    2.2236 O   0  0  0  0  0  0  0  0  0  0  0  0
   -1.0024    0.6217    2.6735 N   0  0  0  0  0  0  0  0  0  0  0  0
   -1.9213    0.7848    2.2938 H   0  0  0  0  0  0  0  0  0  0  0  0
   -0.7639    0.9676    4.0741 C   0  0  0  0  0  0  0  0  0  0  0  0
    0.0520    1.6916    4.1400 H   0  0  0  0  0  0  0  0  0  0  0  0
   -1.6626    1.3984    4.5182 H   0  0  0  0  0  0  0  0  0  0  0  0
   -0.4775    0.0737    4.6309 H   0  0  0  0  0  0  0  0  0  0  0  0
  5  6  2  0  0  0  0
  5  7  1  0  0  0  0
  2  3  1  0  0  0  0
  2  4  1  0  0  0  0
  2  5  1  0  0  0  0
  1  2  1  0  0  0  0
 22 23  2  0  0  0  0
 22 24  1  0  0  0  0
 19 20  1  0  0  0  0
 19 21  1  0  0  0  0
 17 18  2  0  0  0  0
 17 19  1  0  0  0  0
 14 15  1  0  0  0  0
 14 16  1  0  0  0  0
 14 17  1  0  0  0  0
 11 12  1  0  0  0  0
 11 13  1  0  0  0  0
 11 14  1  0  0  0  0
  9 10  1  0  0  0  0
  9 11  1  0  0  0  0
  9 22  1  0  0  0  0
  7  8  1  0  0  0  0
  7  9  1  0  0  0  0
 26 27  1  0  0  0  0
 26 28  1  0  0  0  0
 26 29  1  0  0  0  0
 24 25  1  0  0  0  0
 24 26  1  0  0  0  0
M  END
$$$$
default_name
  -OEChem-02102213163D

 29 28  0     1  0  0  0  0  0999 V2000
   -3.3998   -3.6239    1.3678 H   0  0  0  0  0  0  0  0  0  0  0  0
   -3.3608   -2.6749    0.8348 C   0  0  0  0  0  0  0  0  0  0  0  0
   -4.0988   -1.9909    1.2498 H   0  0  0  0  0  0  0  0  0  0  0  0
   -3.5618   -2.8419   -0.2222 H   0  0  0  0  0  0  0  0  0  0  0  0
   -1.9818   -2.0809    0.9918 C   0  0  0  0  0  0  0  0  0  0  0  0
   -1.1288   -2.6669    1.6468 O   0  0  0  0  0  0  0  0  0  0  0  0
   -1.7648   -0.9089    0.3998 N   0  0  0  0  0  0  0  0  0  0  0  0
   -2.5238   -0.4719   -0.1032 H   0  0  0  0  0  0  0  0  0  0  0  0
   -0.4848   -0.1959    0.4138 C   0  0  1  0  0  0  0  0  0  0  0  0
    0.2783   -0.8411   -0.0248 H   0  0  0  0  0  0  0  0  0  0  0  0
   -0.6101    1.0666   -0.4611 C   0  0  0  0  0  0  0  0  0  0  0  0
   -1.6443    1.4143   -0.4160 H   0  0  0  0  0  0  0  0  0  0  0  0
    0.0309    1.8489   -0.0519 H   0  0  0  0  0  0  0  0  0  0  0  0
   -0.2386    0.8406   -1.9370 C   0  0  0  0  0  0  0  0  0  0  0  0
   -0.7069   -0.0751   -2.2973 H   0  0  0  0  0  0  0  0  0  0  0  0
   -0.6105    1.6777   -2.5276 H   0  0  0  0  0  0  0  0  0  0  0  0
    1.2681    0.7221   -2.1665 C   0  0  0  0  0  0  0  0  0  0  0  0
    2.0929    0.8687   -1.2841 O   0  0  0  0  0  0  0  0  0  0  0  0
    1.6964    0.4396   -3.3776 N   0  0  0  0  0  0  0  0  0  0  0  0
    2.6950    0.3728   -3.4713 H   0  0  0  0  0  0  0  0  0  0  0  0
    1.0614    0.3065   -4.1384 H   0  0  0  0  0  0  0  0  0  0  0  0
   -0.0637    0.1284    1.8555 C   0  0  0  0  0  0  0  0  0  0  0  0
    1.0918   -0.0745    2.2236 O   0  0  0  0  0  0  0  0  0  0  0  0
   -1.0024    0.6217    2.6735 N   0  0  0  0  0  0  0  0  0  0  0  0
   -1.9213    0.7848    2.2938 H   0  0  0  0  0  0  0  0  0  0  0  0
   -0.7639    0.9676    4.0741 C   0  0  0  0  0  0  0  0  0  0  0  0
    0.0520    1.6916    4.1400 H   0  0  0  0  0  0  0  0  0  0  0  0
   -1.6626    1.3984    4.5182 H   0  0  0  0  0  0  0  0  0  0  0  0
   -0.4775    0.0737    4.6309 H   0  0  0  0  0  0  0  0  0  0  0  0
  5  6  2  0  0  0  0
  5  7  1  0  0  0  0
  2  3  1  0  0  0  0
  2  4  1  0  0  0  0
  2  5  1  0  0  0  0
  1  2  1  0  0  0  0
 22 23  2  0  0  0  0
 22 24  1  0  0  0  0
 19 20  1  0  0  0  0
 19 21  1  0  0  0  0
 17 18  2  0  0  0  0
 17 19  1  0  0  0  0
 14 15  1  0  0  0  0
 14 16  1  0  0  0  0
 14 17  1  0  0  0  0
 11 12  1  0  0  0  0
 11 13  1  0  0  0  0
 11 14  1  0  0  0  0
  9 10  1  0  0  0  0
  9 11  1  0  0  0  0
  9 22  1  0  0  0  0
  7  8  1  0  0  0  0
  7  9  1  0  0  0  0
 26 27  1  0  0  0  0
 26 28  1  0  0  0  0
 26 29  1  0  0  0  0
 24 25  1  0  0  0  0
 24 26  1  0  0  0  0
M  END
$$$$
default_name
  -OEChem-02102213163D

 29 28  0     1  0  0  0  0  0999 V2000
   -3.3998   -3.6239    1.3678 H   0  0  0  0  0  0  0  0  0  0  0  0
   -3.3608   -2.6749    0.8348 C   0  0  0  0  0  0  0  0  0  0  0  0
   -4.0988   -1.9909    1.2498 H   0  0  0  0  0  0  0  0  0  0  0  0
   -3.5618   -2.8419   -0.2222 H   0  0  0  0  0  0  0  0  0  0  0  0
   -1.9818   -2.0809    0.9918 C   0  0  0  0  0  0  0  0  0  0  0  0
   -1.1288   -2.6669    1.6468 O   0  0  0  0  0  0  0  0  0  0  0  0
   -1.7648   -0.9089    0.3998 N   0  0  0  0  0  0  0  0  0  0  0  0
   -2.5238   -0.4719   -0.1032 H   0  0  0  0  0  0  0  0  0  0  0  0
   -0.4848   -0.1959    0.4138 C   0  0  1  0  0  0  0  0  0  0  0  0
    0.2783   -0.8411   -0.0248 H   0  0  0  0  0  0  0  0  0  0  0  0
   -0.6101    1.0666   -0.4611 C   0  0  0  0  0  0  0  0  0  0  0  0
   -1.6443    1.4143   -0.4160 H   0  0  0  0  0  0  0  0  0  0  0  0
    0.0309    1.8489   -0.0519 H   0  0  0  0  0  0  0  0  0  0  0  0
   -0.2386    0.8406   -1.9370 C   0  0  0  0  0  0  0  0  0  0  0  0
   -0.9016    0.0931   -2.3721 H   0  0  0  0  0  0  0  0  0  0  0  0
   -0.3646    1.7766   -2.4809 H   0  0  0  0  0  0  0  0  0  0  0  0
    1.2010    0.3634   -2.1284 C   0  0  0  0  0  0  0  0  0  0  0  0
    1.9951    0.2484   -1.2137 O   0  0  0  0  0  0  0  0  0  0  0  0
    1.6014    0.0533   -3.3424 N   0  0  0  0  0  0  0  0  0  0  0  0
    2.5558   -0.2550   -3.4102 H   0  0  0  0  0  0  0  0  0  0  0  0
    0.9889    0.1271   -4.1292 H   0  0  0  0  0  0  0  0  0  0  0  0
   -0.0637    0.1284    1.8555 C   0  0  0  0  0  0  0  0  0  0  0  0
    1.0918   -0.0745    2.2236 O   0  0  0  0  0  0  0  0  0  0  0  0
   -1.0024    0.6217    2.6735 N   0  0  0  0  0  0  0  0  0  0  0  0
   -1.9213    0.7848    2.2938 H   0  0  0  0  0  0  0  0  0  0  0  0
   -0.7639    0.9676    4.0741 C   0  0  0  0  0  0  0  0  0  0  0  0
    0.0520    1.6916    4.1400 H   0  0  0  0  0  0  0  0  0  0  0  0
   -1.6626    1.3984    4.5182 H   0  0  0  0  0  0  0  0  0  0  0  0
   -0.4775    0.0737    4.6309 H   0  0  0  0  0  0  0  0  0  0  0  0
  5  6  2  0  0  0  0
  5  7  1  0  0  0  0
  2  3  1  0  0  0  0
  2  4  1  0  0  0  0
  2  5  1  0  0  0  0
  1  2  1  0  0  0  0
 22 23  2  0  0  0  0
 22 24  1  0  0  0  0
 19 20  1  0  0  0  0
 19 21  1  0  0  0  0
 17 18  2  0  0  0  0
 17 19  1  0  0  0  0
 14 15  1  0  0  0  0
 14 16  1  0  0  0  0
 14 17  1  0  0  0  0
 11 12  1  0  0  0  0
 11 13  1  0  0  0  0
 11 14  1  0  0  0  0
  9 10  1  0  0  0  0
  9 11  1  0  0  0  0
  9 22  1  0  0  0  0
  7  8  1  0  0  0  0
  7  9  1  0  0  0  0
 26 27  1  0  0  0  0
 26 28  1  0  0  0  0
 26 29  1  0  0  0  0
 24 25  1  0  0  0  0
 24 26  1  0  0  0  0
M  END
$$$$
default_name
  -OEChem-02102213163D

 29 28  0     1  0  0  0  0  0999 V2000
   -3.3998   -3.6239    1.3678 H   0  0  0  0  0  0  0  0  0  0  0  0
   -3.3608   -2.6749    0.8348 C   0  0  0  0  0  0  0  0  0  0  0  0
   -4.0988   -1.9909    1.2498 H   0  0  0  0  0  0  0  0  0  0  0  0
   -3.5618   -2.8419   -0.2222 H   0  0  0  0  0  0  0  0  0  0  0  0
   -1.9818   -2.0809    0.9918 C   0  0  0  0  0  0  0  0  0  0  0  0
   -1.1288   -2.6669    1.6468 O   0  0  0  0  0  0  0  0  0  0  0  0
   -1.7648   -0.9089    0.3998 N   0  0  0  0  0  0  0  0  0  0  0  0
   -2.5238   -0.4719   -0.1032 H   0  0  0  0  0  0  0  0  0  0  0  0
   -0.4848   -0.1959    0.4138 C   0  0  1  0  0  0  0  0  0  0  0  0
    0.2783   -0.8411   -0.0248 H   0  0  0  0  0  0  0  0  0  0  0  0
   -0.6101    1.0666   -0.4611 C   0  0  0  0  0  0  0  0  0  0  0  0
   -1.6443    1.4143   -0.4160 H   0  0  0  0  0  0  0  0  0  0  0  0
    0.0309    1.8489   -0.0519 H   0  0  0  0  0  0  0  0  0  0  0  0
   -0.2386    0.8406   -1.9370 C   0  0  0  0  0  0  0  0  0  0  0  0
   -1.0450    0.3085   -2.4412 H   0  0  0  0  0  0  0  0  0  0  0  0
   -0.1043    1.8083   -2.4202 H   0  0  0  0  0  0  0  0  0  0  0  0
    1.0457    0.0312   -2.1166 C   0  0  0  0  0  0  0  0  0  0  0  0
    1.7439   -0.3308   -1.1882 O   0  0  0  0  0  0  0  0  0  0  0  0
    1.4124   -0.2983   -3.3361 N   0  0  0  0  0  0  0  0  0  0  0  0
    2.2631   -0.8305   -3.3957 H   0  0  0  0  0  0  0  0  0  0  0  0
    0.8739   -0.0289   -4.1343 H   0  0  0  0  0  0  0  0  0  0  0  0
   -0.0637    0.1284    1.8555 C   0  0  0  0  0  0  0  0  0  0  0  0
    1.0918   -0.0745    2.2236 O   0  0  0  0  0  0  0  0  0  0  0  0
   -1.0024    0.6217    2.6735 N   0  0  0  0  0  0  0  0  0  0  0  0
   -1.9213    0.7848    2.2938 H   0  0  0  0  0  0  0  0  0  0  0  0
   -0.7639    0.9676    4.0741 C   0  0  0  0  0  0  0  0  0  0  0  0
    0.0520    1.6916    4.1400 H   0  0  0  0  0  0  0  0  0  0  0  0
   -1.6626    1.3984    4.5182 H   0  0  0  0  0  0  0  0  0  0  0  0
   -0.4775    0.0737    4.6309 H   0  0  0  0  0  0  0  0  0  0  0  0
  5  6  2  0  0  0  0
  5  7  1  0  0  0  0
  2  3  1  0  0  0  0
  2  4  1  0  0  0  0
  2  5  1  0  0  0  0
  1  2  1  0  0  0  0
 22 23  2  0  0  0  0
 22 24  1  0  0  0  0
 19 20  1  0  0  0  0
 19 21  1  0  0  0  0
 17 18  2  0  0  0  0
 17 19  1  0  0  0  0
 14 15  1  0  0  0  0
 14 16  1  0  0  0  0
 14 17  1  0  0  0  0
 11 12  1  0  0  0  0
 11 13  1  0  0  0  0
 11 14  1  0  0  0  0
  9 10  1  0  0  0  0
  9 11  1  0  0  0  0
  9 22  1  0  0  0  0
  7  8  1  0  0  0  0
  7  9  1  0  0  0  0
 26 27  1  0  0  0  0
 26 28  1  0  0  0  0
 26 29  1  0  0  0  0
 24 25  1  0  0  0  0
 24 26  1  0  0  0  0
M  END
$$$$
default_name
  -OEChem-02102213163D

 29 28  0     1  0  0  0  0  0999 V2000
   -3.3998   -3.6239    1.3678 H   0  0  0  0  0  0  0  0  0  0  0  0
   -3.3608   -2.6749    0.8348 C   0  0  0  0  0  0  0  0  0  0  0  0
   -4.0988   -1.9909    1.2498 H   0  0  0  0  0  0  0  0  0  0  0  0
   -3.5618   -2.8419   -0.2222 H   0  0  0  0  0  0  0  0  0  0  0  0
   -1.9818   -2.0809    0.9918 C   0  0  0  0  0  0  0  0  0  0  0  0
   -1.1288   -2.6669    1.6468 O   0  0  0  0  0  0  0  0  0  0  0  0
   -1.7648   -0.9089    0.3998 N   0  0  0  0  0  0  0  0  0  0  0  0
   -2.5238   -0.4719   -0.1032 H   0  0  0  0  0  0  0  0  0  0  0  0
   -0.4848   -0.1959    0.4138 C   0  0  1  0  0  0  0  0  0  0  0  0
    0.2783   -0.8411   -0.0248 H   0  0  0  0  0  0  0  0  0  0  0  0
   -0.6101    1.0666   -0.4611 C   0  0  0  0  0  0  0  0  0  0  0  0
   -1.6443    1.4143   -0.4160 H   0  0  0  0  0  0  0  0  0  0  0  0
    0.0309    1.8489   -0.0519 H   0  0  0  0  0  0  0  0  0  0  0  0
   -0.2386    0.8406   -1.9370 C   0  0  0  0  0  0  0  0  0  0  0  0
   -1.1274    0.5565   -2.4999 H   0  0  0  0  0  0  0  0  0  0  0  0
    0.1526    1.7704   -2.3497 H   0  0  0  0  0  0  0  0  0  0  0  0
    0.8128   -0.2518   -2.1319 C   0  0  0  0  0  0  0  0  0  0  0  0
    1.3565   -0.8295   -1.2093 O   0  0  0  0  0  0  0  0  0  0  0  0
    1.1424   -0.5915   -3.3592 N   0  0  0  0  0  0  0  0  0  0  0  0
    1.8370   -1.3148   -3.4288 H   0  0  0  0  0  0  0  0  0  0  0  0
    0.7243   -0.1506   -4.1533 H   0  0  0  0  0  0  0  0  0  0  0  0
   -0.0637    0.1284    1.8555 C   0  0  0  0  0  0  0  0  0  0  0  0
    1.0918   -0.0745    2.2236 O   0  0  0  0  0  0  0  0  0  0  0  0
   -1.0024    0.6217    2.6735 N   0  0  0  0  0  0  0  0  0  0  0  0
   -1.9213    0.7848    2.2938 H   0  0  0  0  0  0  0  0  0  0  0  0
   -0.7639    0.9676    4.0741 C   0  0  0  0  0  0  0  0  0  0  0  0
    0.0520    1.6916    4.1400 H   0  0  0  0  0  0  0  0  0  0  0  0
   -1.6626    1.3984    4.5182 H   0  0  0  0  0  0  0  0  0  0  0  0
   -0.4775    0.0737    4.6309 H   0  0  0  0  0  0  0  0  0  0  0  0
  5  6  2  0  0  0  0
  5  7  1  0  0  0  0
  2  3  1  0  0  0  0
  2  4  1  0  0  0  0
  2  5  1  0  0  0  0
  1  2  1  0  0  0  0
 22 23  2  0  0  0  0
 22 24  1  0  0  0  0
 19 20  1  0  0  0  0
 19 21  1  0  0  0  0
 17 18  2  0  0  0  0
 17 19  1  0  0  0  0
 14 15  1  0  0  0  0
 14 16  1  0  0  0  0
 14 17  1  0  0  0  0
 11 12  1  0  0  0  0
 11 13  1  0  0  0  0
 11 14  1  0  0  0  0
  9 10  1  0  0  0  0
  9 11  1  0  0  0  0
  9 22  1  0  0  0  0
  7  8  1  0  0  0  0
  7  9  1  0  0  0  0
 26 27  1  0  0  0  0
 26 28  1  0  0  0  0
 26 29  1  0  0  0  0
 24 25  1  0  0  0  0
 24 26  1  0  0  0  0
M  END
$$$$
default_name
  -OEChem-02102213163D

 29 28  0     1  0  0  0  0  0999 V2000
   -3.3998   -3.6239    1.3678 H   0  0  0  0  0  0  0  0  0  0  0  0
   -3.3608   -2.6749    0.8348 C   0  0  0  0  0  0  0  0  0  0  0  0
   -4.0988   -1.9909    1.2498 H   0  0  0  0  0  0  0  0  0  0  0  0
   -3.5618   -2.8419   -0.2222 H   0  0  0  0  0  0  0  0  0  0  0  0
   -1.9818   -2.0809    0.9918 C   0  0  0  0  0  0  0  0  0  0  0  0
   -1.1288   -2.6669    1.6468 O   0  0  0  0  0  0  0  0  0  0  0  0
   -1.7648   -0.9089    0.3998 N   0  0  0  0  0  0  0  0  0  0  0  0
   -2.5238   -0.4719   -0.1032 H   0  0  0  0  0  0  0  0  0  0  0  0
   -0.4848   -0.1959    0.4138 C   0  0  1  0  0  0  0  0  0  0  0  0
    0.2783   -0.8411   -0.0248 H   0  0  0  0  0  0  0  0  0  0  0  0
   -0.6101    1.0666   -0.4611 C   0  0  0  0  0  0  0  0  0  0  0  0
   -1.6443    1.4143   -0.4160 H   0  0  0  0  0  0  0  0  0  0  0  0
    0.0309    1.8489   -0.0519 H   0  0  0  0  0  0  0  0  0  0  0  0
   -0.2386    0.8406   -1.9370 C   0  0  0  0  0  0  0  0  0  0  0  0
   -1.1432    0.8202   -2.5443 H   0  0  0  0  0  0  0  0  0  0  0  0
    0.3887    1.6656   -2.2742 H   0  0  0  0  0  0  0  0  0  0  0  0
    0.5181   -0.4664   -2.1732 C   0  0  0  0  0  0  0  0  0  0  0  0
    0.8593   -1.2137   -1.2756 O   0  0  0  0  0  0  0  0  0  0  0  0
    0.8096   -0.8062   -3.4101 N   0  0  0  0  0  0  0  0  0  0  0  0
    1.3064   -1.6746   -3.5073 H   0  0  0  0  0  0  0  0  0  0  0  0
    0.5503   -0.2299   -4.1849 H   0  0  0  0  0  0  0  0  0  0  0  0
   -0.0637    0.1284    1.8555 C   0  0  0  0  0  0  0  0  0  0  0  0
    1.0918   -0.0745    2.2236 O   0  0  0  0  0  0  0  0  0  0  0  0
   -1.0024    0.6217    2.6735 N   0  0  0  0  0  0  0  0  0  0  0  0
   -1.9213    0.7848    2.2938 H   0  0  0  0  0  0  0  0  0  0  0  0
   -0.7639    0.9676    4.0741 C   0  0  0  0  0  0  0  0  0  0  0  0
    0.0520    1.6916    4.1400 H   0  0  0  0  0  0  0  0  0  0  0  0
   -1.6626    1.3984    4.5182 H   0  0  0  0  0  0  0  0  0  0  0  0
   -0.4775    0.0737    4.6309 H   0  0  0  0  0  0  0  0  0  0  0  0
  5  6  2  0  0  0  0
  5  7  1  0  0  0  0
  2  3  1  0  0  0  0
  2  4  1  0  0  0  0
  2  5  1  0  0  0  0
  1  2  1  0  0  0  0
 22 23  2  0  0  0  0
 22 24  1  0  0  0  0
 19 20  1  0  0  0  0
 19 21  1  0  0  0  0
 17 18  2  0  0  0  0
 17 19  1  0  0  0  0
 14 15  1  0  0  0  0
 14 16  1  0  0  0  0
 14 17  1  0  0  0  0
 11 12  1  0  0  0  0
 11 13  1  0  0  0  0
 11 14  1  0  0  0  0
  9 10  1  0  0  0  0
  9 11  1  0  0  0  0
  9 22  1  0  0  0  0
  7  8  1  0  0  0  0
  7  9  1  0  0  0  0
 26 27  1  0  0  0  0
 26 28  1  0  0  0  0
 26 29  1  0  0  0  0
 24 25  1  0  0  0  0
 24 26  1  0  0  0  0
M  END
$$$$
default_name
  -OEChem-02102213163D

 29 28  0     1  0  0  0  0  0999 V2000
   -3.3998   -3.6239    1.3678 H   0  0  0  0  0  0  0  0  0  0  0  0
   -3.3608   -2.6749    0.8348 C   0  0  0  0  0  0  0  0  0  0  0  0
   -4.0988   -1.9909    1.2498 H   0  0  0  0  0  0  0  0  0  0  0  0
   -3.5618   -2.8419   -0.2222 H   0  0  0  0  0  0  0  0  0  0  0  0
   -1.9818   -2.0809    0.9918 C   0  0  0  0  0  0  0  0  0  0  0  0
   -1.1288   -2.6669    1.6468 O   0  0  0  0  0  0  0  0  0  0  0  0
   -1.7648   -0.9089    0.3998 N   0  0  0  0  0  0  0  0  0  0  0  0
   -2.5238   -0.4719   -0.1032 H   0  0  0  0  0  0  0  0  0  0  0  0
   -0.4848   -0.1959    0.4138 C   0  0  1  0  0  0  0  0  0  0  0  0
    0.2783   -0.8411   -0.0248 H   0  0  0  0  0  0  0  0  0  0  0  0
   -0.6101    1.0666   -0.4611 C   0  0  0  0  0  0  0  0  0  0  0  0
   -1.6443    1.4143   -0.4160 H   0  0  0  0  0  0  0  0  0  0  0  0
    0.0309    1.8489   -0.0519 H   0  0  0  0  0  0  0  0  0  0  0  0
   -0.2386    0.8406   -1.9370 C   0  0  0  0  0  0  0  0  0  0  0  0
   -1.0913    1.0816   -2.5713 H   0  0  0  0  0  0  0  0  0  0  0  0
    0.5879    1.5011   -2.1989 H   0  0  0  0  0  0  0  0  0  0  0  0
    0.1818   -0.5980   -2.2378 C   0  0  0  0  0  0  0  0  0  0  0  0
    0.2862   -1.4573   -1.3826 O   0  0  0  0  0  0  0  0  0  0  0  0
    0.4367   -0.9278   -3.4854 N   0  0  0  0  0  0  0  0  0  0  0  0
    0.7076   -1.8856   -3.6257 H   0  0  0  0  0  0  0  0  0  0  0  0
    0.3638   -0.2613   -4.2271 H   0  0  0  0  0  0  0  0  0  0  0  0
   -0.0637    0.1284    1.8555 C   0  0  0  0  0  0  0  0  0  0  0  0
    1.0918   -0.0745    2.2236 O   0  0  0  0  0  0  0  0  0  0  0  0
   -1.0024    0.6217    2.6735 N   0  0  0  0  0  0  0  0  0  0  0  0
   -1.9213    0.7848    2.2938 H   0  0  0  0  0  0  0  0  0  0  0  0
   -0.7639    0.9676    4.0741 C   0  0  0  0  0  0  0  0  0  0  0  0
    0.0520    1.6916    4.1400 H   0  0  0  0  0  0  0  0  0  0  0  0
   -1.6626    1.3984    4.5182 H   0  0  0  0  0  0  0  0  0  0  0  0
   -0.4775    0.0737    4.6309 H   0  0  0  0  0  0  0  0  0  0  0  0
  5  6  2  0  0  0  0
  5  7  1  0  0  0  0
  2  3  1  0  0  0  0
  2  4  1  0  0  0  0
  2  5  1  0  0  0  0
  1  2  1  0  0  0  0
 22 23  2  0  0  0  0
 22 24  1  0  0  0  0
 19 20  1  0  0  0  0
 19 21  1  0  0  0  0
 17 18  2  0  0  0  0
 17 19  1  0  0  0  0
 14 15  1  0  0  0  0
 14 16  1  0  0  0  0
 14 17  1  0  0  0  0
 11 12  1  0  0  0  0
 11 13  1  0  0  0  0
 11 14  1  0  0  0  0
  9 10  1  0  0  0  0
  9 11  1  0  0  0  0
  9 22  1  0  0  0  0
  7  8  1  0  0  0  0
  7  9  1  0  0  0  0
 26 27  1  0  0  0  0
 26 28  1  0  0  0  0
 26 29  1  0  0  0  0
 24 25  1  0  0  0  0
 24 26  1  0  0  0  0
M  END
$$$$
default_name
  -OEChem-02102213163D

 29 28  0     1  0  0  0  0  0999 V2000
   -3.3998   -3.6239    1.3678 H   0  0  0  0  0  0  0  0  0  0  0  0
   -3.3608   -2.6749    0.8348 C   0  0  0  0  0  0  0  0  0  0  0  0
   -4.0988   -1.9909    1.2498 H   0  0  0  0  0  0  0  0  0  0  0  0
   -3.5618   -2.8419   -0.2222 H   0  0  0  0  0  0  0  0  0  0  0  0
   -1.9818   -2.0809    0.9918 C   0  0  0  0  0  0  0  0  0  0  0  0
   -1.1288   -2.6669    1.6468 O   0  0  0  0  0  0  0  0  0  0  0  0
   -1.7648   -0.9089    0.3998 N   0  0  0  0  0  0  0  0  0  0  0  0
   -2.5238   -0.4719   -0.1032 H   0  0  0  0  0  0  0  0  0  0  0  0
   -0.4848   -0.1959    0.4138 C   0  0  1  0  0  0  0  0  0  0  0  0
    0.2783   -0.8411   -0.0248 H   0  0  0  0  0  0  0  0  0  0  0  0
   -0.6101    1.0666   -0.4611 C   0  0  0  0  0  0  0  0  0  0  0  0
   -1.6443    1.4143   -0.4160 H   0  0  0  0  0  0  0  0  0  0  0  0
    0.0309    1.8489   -0.0519 H   0  0  0  0  0  0  0  0  0  0  0  0
   -0.2386    0.8406   -1.9370 C   0  0  0  0  0  0  0  0  0  0  0  0
   -0.9753    1.3229   -2.5790 H   0  0  0  0  0  0  0  0  0  0  0  0
    0.7366    1.2880   -2.1288 H   0  0  0  0  0  0  0  0  0  0  0  0
   -0.1733   -0.6376   -2.3211 C   0  0  0  0  0  0  0  0  0  0  0  0
   -0.3238   -1.5436   -1.5230 O   0  0  0  0  0  0  0  0  0  0  0  0
    0.0493   -0.9479   -3.5798 N   0  0  0  0  0  0  0  0  0  0  0  0
    0.0813   -1.9333   -3.7761 H   0  0  0  0  0  0  0  0  0  0  0  0
    0.1774   -0.2427   -4.2769 H   0  0  0  0  0  0  0  0  0  0  0  0
   -0.0637    0.1284    1.8555 C   0  0  0  0  0  0  0  0  0  0  0  0
    1.0918   -0.0745    2.2236 O   0  0  0  0  0  0  0  0  0  0  0  0
   -1.0024    0.6217    2.6735 N   0  0  0  0  0  0  0  0  0  0  0  0
   -1.9213    0.7848    2.2938 H   0  0  0  0  0  0  0  0  0  0  0  0
   -0.7639    0.9676    4.0741 C   0  0  0  0  0  0  0  0  0  0  0  0
    0.0520    1.6916    4.1400 H   0  0  0  0  0  0  0  0  0  0  0  0
   -1.6626    1.3984    4.5182 H   0  0  0  0  0  0  0  0  0  0  0  0
   -0.4775    0.0737    4.6309 H   0  0  0  0  0  0  0  0  0  0  0  0
  5  6  2  0  0  0  0
  5  7  1  0  0  0  0
  2  3  1  0  0  0  0
  2  4  1  0  0  0  0
  2  5  1  0  0  0  0
  1  2  1  0  0  0  0
 22 23  2  0  0  0  0
 22 24  1  0  0  0  0
 19 20  1  0  0  0  0
 19 21  1  0  0  0  0
 17 18  2  0  0  0  0
 17 19  1  0  0  0  0
 14 15  1  0  0  0  0
 14 16  1  0  0  0  0
 14 17  1  0  0  0  0
 11 12  1  0  0  0  0
 11 13  1  0  0  0  0
 11 14  1  0  0  0  0
  9 10  1  0  0  0  0
  9 11  1  0  0  0  0
  9 22  1  0  0  0  0
  7  8  1  0  0  0  0
  7  9  1  0  0  0  0
 26 27  1  0  0  0  0
 26 28  1  0  0  0  0
 26 29  1  0  0  0  0
 24 25  1  0  0  0  0
 24 26  1  0  0  0  0
M  END
$$$$
default_name
  -OEChem-02102213163D

 29 28  0     1  0  0  0  0  0999 V2000
   -3.3998   -3.6239    1.3678 H   0  0  0  0  0  0  0  0  0  0  0  0
   -3.3608   -2.6749    0.8348 C   0  0  0  0  0  0  0  0  0  0  0  0
   -4.0988   -1.9909    1.2498 H   0  0  0  0  0  0  0  0  0  0  0  0
   -3.5618   -2.8419   -0.2222 H   0  0  0  0  0  0  0  0  0  0  0  0
   -1.9818   -2.0809    0.9918 C   0  0  0  0  0  0  0  0  0  0  0  0
   -1.1288   -2.6669    1.6468 O   0  0  0  0  0  0  0  0  0  0  0  0
   -1.7648   -0.9089    0.3998 N   0  0  0  0  0  0  0  0  0  0  0  0
   -2.5238   -0.4719   -0.1032 H   0  0  0  0  0  0  0  0  0  0  0  0
   -0.4848   -0.1959    0.4138 C   0  0  1  0  0  0  0  0  0  0  0  0
    0.2783   -0.8411   -0.0248 H   0  0  0  0  0  0  0  0  0  0  0  0
   -0.6101    1.0666   -0.4611 C   0  0  0  0  0  0  0  0  0  0  0  0
   -1.6443    1.4143   -0.4160 H   0  0  0  0  0  0  0  0  0  0  0  0
    0.0309    1.8489   -0.0519 H   0  0  0  0  0  0  0  0  0  0  0  0
   -0.2386    0.8406   -1.9370 C   0  0  0  0  0  0  0  0  0  0  0  0
   -0.8030    1.5277   -2.5670 H   0  0  0  0  0  0  0  0  0  0  0  0
    0.8247    1.0409   -2.0687 H   0  0  0  0  0  0  0  0  0  0  0  0
   -0.5229   -0.5824   -2.4176 C   0  0  0  0  0  0  0  0  0  0  0  0
   -0.9291   -1.4668   -1.6872 O   0  0  0  0  0  0  0  0  0  0  0  0
   -0.3263   -0.8653   -3.6870 N   0  0  0  0  0  0  0  0  0  0  0  0
   -0.5298   -1.8145   -3.9482 H   0  0  0  0  0  0  0  0  0  0  0  0
    0.0039   -0.1753   -4.3309 H   0  0  0  0  0  0  0  0  0  0  0  0
   -0.0637    0.1284    1.8555 C   0  0  0  0  0  0  0  0  0  0  0  0
    1.0918   -0.0745    2.2236 O   0  0  0  0  0  0  0  0  0  0  0  0
   -1.0024    0.6217    2.6735 N   0  0  0  0  0  0  0  0  0  0  0  0
   -1.9213    0.7848    2.2938 H   0  0  0  0  0  0  0  0  0  0  0  0
   -0.7639    0.9676    4.0741 C   0  0  0  0  0  0  0  0  0  0  0  0
    0.0520    1.6916    4.1400 H   0  0  0  0  0  0  0  0  0  0  0  0
   -1.6626    1.3984    4.5182 H   0  0  0  0  0  0  0  0  0  0  0  0
   -0.4775    0.0737    4.6309 H   0  0  0  0  0  0  0  0  0  0  0  0
  5  6  2  0  0  0  0
  5  7  1  0  0  0  0
  2  3  1  0  0  0  0
  2  4  1  0  0  0  0
  2  5  1  0  0  0  0
  1  2  1  0  0  0  0
 22 23  2  0  0  0  0
 22 24  1  0  0  0  0
 19 20  1  0  0  0  0
 19 21  1  0  0  0  0
 17 18  2  0  0  0  0
 17 19  1  0  0  0  0
 14 15  1  0  0  0  0
 14 16  1  0  0  0  0
 14 17  1  0  0  0  0
 11 12  1  0  0  0  0
 11 13  1  0  0  0  0
 11 14  1  0  0  0  0
  9 10  1  0  0  0  0
  9 11  1  0  0  0  0
  9 22  1  0  0  0  0
  7  8  1  0  0  0  0
  7  9  1  0  0  0  0
 26 27  1  0  0  0  0
 26 28  1  0  0  0  0
 26 29  1  0  0  0  0
 24 25  1  0  0  0  0
 24 26  1  0  0  0  0
M  END
$$$$
default_name
  -OEChem-02102213163D

 29 28  0     1  0  0  0  0  0999 V2000
   -3.3998   -3.6239    1.3678 H   0  0  0  0  0  0  0  0  0  0  0  0
   -3.3608   -2.6749    0.8348 C   0  0  0  0  0  0  0  0  0  0  0  0
   -4.0988   -1.9909    1.2498 H   0  0  0  0  0  0  0  0  0  0  0  0
   -3.5618   -2.8419   -0.2222 H   0  0  0  0  0  0  0  0  0  0  0  0
   -1.9818   -2.0809    0.9918 C   0  0  0  0  0  0  0  0  0  0  0  0
   -1.1288   -2.6669    1.6468 O   0  0  0  0  0  0  0  0  0  0  0  0
   -1.7648   -0.9089    0.3998 N   0  0  0  0  0  0  0  0  0  0  0  0
   -2.5238   -0.4719   -0.1032 H   0  0  0  0  0  0  0  0  0  0  0  0
   -0.4848   -0.1959    0.4138 C   0  0  1  0  0  0  0  0  0  0  0  0
    0.2783   -0.8411   -0.0248 H   0  0  0  0  0  0  0  0  0  0  0  0
   -0.6101    1.0666   -0.4611 C   0  0  0  0  0  0  0  0  0  0  0  0
   -1.6443    1.4143   -0.4160 H   0  0  0  0  0  0  0  0  0  0  0  0
    0.0309    1.8489   -0.0519 H   0  0  0  0  0  0  0  0  0  0  0  0
   -0.2386    0.8406   -1.9370 C   0  0  0  0  0  0  0  0  0  0  0  0
   -0.5862    1.6819   -2.5361 H   0  0  0  0  0  0  0  0  0  0  0  0
    0.8461    0.7765   -2.0229 H   0  0  0  0  0  0  0  0  0  0  0  0
   -0.8432   -0.4363   -2.5206 C   0  0  0  0  0  0  0  0  0  0  0  0
   -1.4884   -1.2320   -1.8640 O   0  0  0  0  0  0  0  0  0  0  0  0
   -0.6646   -0.6856   -3.7997 N   0  0  0  0  0  0  0  0  0  0  0  0
   -1.0840   -1.5373   -4.1302 H   0  0  0  0  0  0  0  0  0  0  0  0
   -0.1449   -0.0638   -4.3854 H   0  0  0  0  0  0  0  0  0  0  0  0
   -0.0637    0.1284    1.8555 C   0  0  0  0  0  0  0  0  0  0  0  0
    1.0918   -0.0745    2.2236 O   0  0  0  0  0  0  0  0  0  0  0  0
   -1.0024    0.6217    2.6735 N   0  0  0  0  0  0  0  0  0  0  0  0
   -1.9213    0.7848    2.2938 H   0  0  0  0  0  0  0  0  0  0  0  0
   -0.7639    0.9676    4.0741 C   0  0  0  0  0  0  0  0  0  0  0  0
    0.0520    1.6916    4.1400 H   0  0  0  0  0  0  0  0  0  0  0  0
   -1.6626    1.3984    4.5182 H   0  0  0  0  0  0  0  0  0  0  0  0
   -0.4775    0.0737    4.6309 H   0  0  0  0  0  0  0  0  0  0  0  0
  5  6  2  0  0  0  0
  5  7  1  0  0  0  0
  2  3  1  0  0  0  0
  2  4  1  0  0  0  0
  2  5  1  0  0  0  0
  1  2  1  0  0  0  0
 22 23  2  0  0  0  0
 22 24  1  0  0  0  0
 19 20  1  0  0  0  0
 19 21  1  0  0  0  0
 17 18  2  0  0  0  0
 17 19  1  0  0  0  0
 14 15  1  0  0  0  0
 14 16  1  0  0  0  0
 14 17  1  0  0  0  0
 11 12  1  0  0  0  0
 11 13  1  0  0  0  0
 11 14  1  0  0  0  0
  9 10  1  0  0  0  0
  9 11  1  0  0  0  0
  9 22  1  0  0  0  0
  7  8  1  0  0  0  0
  7  9  1  0  0  0  0
 26 27  1  0  0  0  0
 26 28  1  0  0  0  0
 26 29  1  0  0  0  0
 24 25  1  0  0  0  0
 24 26  1  0  0  0  0
M  END
$$$$
default_name
  -OEChem-02102213163D

 29 28  0     1  0  0  0  0  0999 V2000
   -3.3998   -3.6239    1.3678 H   0  0  0  0  0  0  0  0  0  0  0  0
   -3.3608   -2.6749    0.8348 C   0  0  0  0  0  0  0  0  0  0  0  0
   -4.0988   -1.9909    1.2498 H   0  0  0  0  0  0  0  0  0  0  0  0
   -3.5618   -2.8419   -0.2222 H   0  0  0  0  0  0  0  0  0  0  0  0
   -1.9818   -2.0809    0.9918 C   0  0  0  0  0  0  0  0  0  0  0  0
   -1.1288   -2.6669    1.6468 O   0  0  0  0  0  0  0  0  0  0  0  0
   -1.7648   -0.9089    0.3998 N   0  0  0  0  0  0  0  0  0  0  0  0
   -2.5238   -0.4719   -0.1032 H   0  0  0  0  0  0  0  0  0  0  0  0
   -0.4848   -0.1959    0.4138 C   0  0  1  0  0  0  0  0  0  0  0  0
    0.2783   -0.8411   -0.0248 H   0  0  0  0  0  0  0  0  0  0  0  0
   -0.6101    1.0666   -0.4611 C   0  0  0  0  0  0  0  0  0  0  0  0
   -1.6443    1.4143   -0.4160 H   0  0  0  0  0  0  0  0  0  0  0  0
    0.0309    1.8489   -0.0519 H   0  0  0  0  0  0  0  0  0  0  0  0
   -0.2386    0.8406   -1.9370 C   0  0  0  0  0  0  0  0  0  0  0  0
   -0.3396    1.7752   -2.4883 H   0  0  0  0  0  0  0  0  0  0  0  0
    0.7994    0.5130   -1.9943 H   0  0  0  0  0  0  0  0  0  0  0  0
   -1.1125   -0.2092   -2.6232 C   0  0  0  0  0  0  0  0  0  0  0  0
   -1.9637   -0.8553   -2.0413 O   0  0  0  0  0  0  0  0  0  0  0  0
   -0.9424   -0.4209   -3.9102 N   0  0  0  0  0  0  0  0  0  0  0  0
   -1.5436   -1.1205   -4.3097 H   0  0  0  0  0  0  0  0  0  0  0  0
   -0.2589    0.0843   -4.4368 H   0  0  0  0  0  0  0  0  0  0  0  0
   -0.0637    0.1284    1.8555 C   0  0  0  0  0  0  0  0  0  0  0  0
    1.0918   -0.0745    2.2236 O   0  0  0  0  0  0  0  0  0  0  0  0
   -1.0024    0.6217    2.6735 N   0  0  0  0  0  0  0  0  0  0  0  0
   -1.9213    0.7848    2.2938 H   0  0  0  0  0  0  0  0  0  0  0  0
   -0.7639    0.9676    4.0741 C   0  0  0  0  0  0  0  0  0  0  0  0
    0.0520    1.6916    4.1400 H   0  0  0  0  0  0  0  0  0  0  0  0
   -1.6626    1.3984    4.5182 H   0  0  0  0  0  0  0  0  0  0  0  0
   -0.4775    0.0737    4.6309 H   0  0  0  0  0  0  0  0  0  0  0  0
  5  6  2  0  0  0  0
  5  7  1  0  0  0  0
  2  3  1  0  0  0  0
  2  4  1  0  0  0  0
  2  5  1  0  0  0  0
  1  2  1  0  0  0  0
 22 23  2  0  0  0  0
 22 24  1  0  0  0  0
 19 20  1  0  0  0  0
 19 21  1  0  0  0  0
 17 18  2  0  0  0  0
 17 19  1  0  0  0  0
 14 15  1  0  0  0  0
 14 16  1  0  0  0  0
 14 17  1  0  0  0  0
 11 12  1  0  0  0  0
 11 13  1  0  0  0  0
 11 14  1  0  0  0  0
  9 10  1  0  0  0  0
  9 11  1  0  0  0  0
  9 22  1  0  0  0  0
  7  8  1  0  0  0  0
  7  9  1  0  0  0  0
 26 27  1  0  0  0  0
 26 28  1  0  0  0  0
 26 29  1  0  0  0  0
 24 25  1  0  0  0  0
 24 26  1  0  0  0  0
M  END
$$$$
default_name
  -OEChem-02102213163D

 29 28  0     1  0  0  0  0  0999 V2000
   -3.3998   -3.6239    1.3678 H   0  0  0  0  0  0  0  0  0  0  0  0
   -3.3608   -2.6749    0.8348 C   0  0  0  0  0  0  0  0  0  0  0  0
   -4.0988   -1.9909    1.2498 H   0  0  0  0  0  0  0  0  0  0  0  0
   -3.5618   -2.8419   -0.2222 H   0  0  0  0  0  0  0  0  0  0  0  0
   -1.9818   -2.0809    0.9918 C   0  0  0  0  0  0  0  0  0  0  0  0
   -1.1288   -2.6669    1.6468 O   0  0  0  0  0  0  0  0  0  0  0  0
   -1.7648   -0.9089    0.3998 N   0  0  0  0  0  0  0  0  0  0  0  0
   -2.5238   -0.4719   -0.1032 H   0  0  0  0  0  0  0  0  0  0  0  0
   -0.4848   -0.1959    0.4138 C   0  0  1  0  0  0  0  0  0  0  0  0
    0.2783   -0.8411   -0.0248 H   0  0  0  0  0  0  0  0  0  0  0  0
   -0.6101    1.0666   -0.4611 C   0  0  0  0  0  0  0  0  0  0  0  0
   -1.6443    1.4143   -0.4160 H   0  0  0  0  0  0  0  0  0  0  0  0
    0.0309    1.8489   -0.0519 H   0  0  0  0  0  0  0  0  0  0  0  0
   -0.2386    0.8406   -1.9370 C   0  0  0  0  0  0  0  0  0  0  0  0
   -0.0802    1.8010   -2.4269 H   0  0  0  0  0  0  0  0  0  0  0  0
    0.6878    0.2683   -1.9849 H   0  0  0  0  0  0  0  0  0  0  0  0
   -1.3123    0.0834   -2.7183 C   0  0  0  0  0  0  0  0  0  0  0  0
   -2.3225   -0.3624   -2.2072 O   0  0  0  0  0  0  0  0  0  0  0  0
   -1.1409   -0.0894   -4.0110 N   0  0  0  0  0  0  0  0  0  0  0  0
   -1.8773   -0.5926   -4.4746 H   0  0  0  0  0  0  0  0  0  0  0  0
   -0.3303    0.2588   -4.4815 H   0  0  0  0  0  0  0  0  0  0  0  0
   -0.0637    0.1284    1.8555 C   0  0  0  0  0  0  0  0  0  0  0  0
    1.0918   -0.0745    2.2236 O   0  0  0  0  0  0  0  0  0  0  0  0
   -1.0024    0.6217    2.6735 N   0  0  0  0  0  0  0  0  0  0  0  0
   -1.9213    0.7848    2.2938 H   0  0  0  0  0  0  0  0  0  0  0  0
   -0.7639    0.9676    4.0741 C   0  0  0  0  0  0  0  0  0  0  0  0
    0.0520    1.6916    4.1400 H   0  0  0  0  0  0  0  0  0  0  0  0
   -1.6626    1.3984    4.5182 H   0  0  0  0  0  0  0  0  0  0  0  0
   -0.4775    0.0737    4.6309 H   0  0  0  0  0  0  0  0  0  0  0  0
  5  6  2  0  0  0  0
  5  7  1  0  0  0  0
  2  3  1  0  0  0  0
  2  4  1  0  0  0  0
  2  5  1  0  0  0  0
  1  2  1  0  0  0  0
 22 23  2  0  0  0  0
 22 24  1  0  0  0  0
 19 20  1  0  0  0  0
 19 21  1  0  0  0  0
 17 18  2  0  0  0  0
 17 19  1  0  0  0  0
 14 15  1  0  0  0  0
 14 16  1  0  0  0  0
 14 17  1  0  0  0  0
 11 12  1  0  0  0  0
 11 13  1  0  0  0  0
 11 14  1  0  0  0  0
  9 10  1  0  0  0  0
  9 11  1  0  0  0  0
  9 22  1  0  0  0  0
  7  8  1  0  0  0  0
  7  9  1  0  0  0  0
 26 27  1  0  0  0  0
 26 28  1  0  0  0  0
 26 29  1  0  0  0  0
 24 25  1  0  0  0  0
 24 26  1  0  0  0  0
M  END
$$$$
default_name
  -OEChem-02102213163D

 29 28  0     1  0  0  0  0  0999 V2000
   -3.3998   -3.6239    1.3678 H   0  0  0  0  0  0  0  0  0  0  0  0
   -3.3608   -2.6749    0.8348 C   0  0  0  0  0  0  0  0  0  0  0  0
   -4.0988   -1.9909    1.2498 H   0  0  0  0  0  0  0  0  0  0  0  0
   -3.5618   -2.8419   -0.2222 H   0  0  0  0  0  0  0  0  0  0  0  0
   -1.9818   -2.0809    0.9918 C   0  0  0  0  0  0  0  0  0  0  0  0
   -1.1288   -2.6669    1.6468 O   0  0  0  0  0  0  0  0  0  0  0  0
   -1.7648   -0.9089    0.3998 N   0  0  0  0  0  0  0  0  0  0  0  0
   -2.5238   -0.4719   -0.1032 H   0  0  0  0  0  0  0  0  0  0  0  0
   -0.4848   -0.1959    0.4138 C   0  0  1  0  0  0  0  0  0  0  0  0
    0.2783   -0.8411   -0.0248 H   0  0  0  0  0  0  0  0  0  0  0  0
   -0.6101    1.0666   -0.4611 C   0  0  0  0  0  0  0  0  0  0  0  0
   -1.6443    1.4143   -0.4160 H   0  0  0  0  0  0  0  0  0  0  0  0
    0.0309    1.8489   -0.0519 H   0  0  0  0  0  0  0  0  0  0  0  0
   -0.2386    0.8406   -1.9370 C   0  0  0  0  0  0  0  0  0  0  0  0
    0.1745    1.7578   -2.3562 H   0  0  0  0  0  0  0  0  0  0  0  0
    0.5189    0.0590   -1.9953 H   0  0  0  0  0  0  0  0  0  0  0  0
   -1.4290    0.4216   -2.7995 C   0  0  0  0  0  0  0  0  0  0  0  0
   -2.5404    0.2132   -2.3502 O   0  0  0  0  0  0  0  0  0  0  0  0
   -1.2464    0.2864   -4.0951 N   0  0  0  0  0  0  0  0  0  0  0  0
   -2.0623    0.0104   -4.6135 H   0  0  0  0  0  0  0  0  0  0  0  0
   -0.3542    0.4479   -4.5165 H   0  0  0  0  0  0  0  0  0  0  0  0
   -0.0637    0.1284    1.8555 C   0  0  0  0  0  0  0  0  0  0  0  0
    1.0918   -0.0745    2.2236 O   0  0  0  0  0  0  0  0  0  0  0  0
   -1.0024    0.6217    2.6735 N   0  0  0  0  0  0  0  0  0  0  0  0
   -1.9213    0.7848    2.2938 H   0  0  0  0  0  0  0  0  0  0  0  0
   -0.7639    0.9676    4.0741 C   0  0  0  0  0  0  0  0  0  0  0  0
    0.0520    1.6916    4.1400 H   0  0  0  0  0  0  0  0  0  0  0  0
   -1.6626    1.3984    4.5182 H   0  0  0  0  0  0  0  0  0  0  0  0
   -0.4775    0.0737    4.6309 H   0  0  0  0  0  0  0  0  0  0  0  0
  5  6  2  0  0  0  0
  5  7  1  0  0  0  0
  2  3  1  0  0  0  0
  2  4  1  0  0  0  0
  2  5  1  0  0  0  0
  1  2  1  0  0  0  0
 22 23  2  0  0  0  0
 22 24  1  0  0  0  0
 19 20  1  0  0  0  0
 19 21  1  0  0  0  0
 17 18  2  0  0  0  0
 17 19  1  0  0  0  0
 14 15  1  0  0  0  0
 14 16  1  0  0  0  0
 14 17  1  0  0  0  0
 11 12  1  0  0  0  0
 11 13  1  0  0  0  0
 11 14  1  0  0  0  0
  9 10  1  0  0  0  0
  9 11  1  0  0  0  0
  9 22  1  0  0  0  0
  7  8  1  0  0  0  0
  7  9  1  0  0  0  0
 26 27  1  0  0  0  0
 26 28  1  0  0  0  0
 26 29  1  0  0  0  0
 24 25  1  0  0  0  0
 24 26  1  0  0  0  0
M  END
$$$$
default_name
  -OEChem-02102213163D

 29 28  0     1  0  0  0  0  0999 V2000
   -3.3998   -3.6239    1.3678 H   0  0  0  0  0  0  0  0  0  0  0  0
   -3.3608   -2.6749    0.8348 C   0  0  0  0  0  0  0  0  0  0  0  0
   -4.0988   -1.9909    1.2498 H   0  0  0  0  0  0  0  0  0  0  0  0
   -3.5618   -2.8419   -0.2222 H   0  0  0  0  0  0  0  0  0  0  0  0
   -1.9818   -2.0809    0.9918 C   0  0  0  0  0  0  0  0  0  0  0  0
   -1.1288   -2.6669    1.6468 O   0  0  0  0  0  0  0  0  0  0  0  0
   -1.7648   -0.9089    0.3998 N   0  0  0  0  0  0  0  0  0  0  0  0
   -2.5238   -0.4719   -0.1032 H   0  0  0  0  0  0  0  0  0  0  0  0
   -0.4848   -0.1959    0.4138 C   0  0  1  0  0  0  0  0  0  0  0  0
    0.2783   -0.8411   -0.0248 H   0  0  0  0  0  0  0  0  0  0  0  0
   -0.6101    1.0666   -0.4611 C   0  0  0  0  0  0  0  0  0  0  0  0
   -1.6443    1.4143   -0.4160 H   0  0  0  0  0  0  0  0  0  0  0  0
    0.0309    1.8489   -0.0519 H   0  0  0  0  0  0  0  0  0  0  0  0
   -0.2386    0.8406   -1.9370 C   0  0  0  0  0  0  0  0  0  0  0  0
    0.4071    1.6483   -2.2808 H   0  0  0  0  0  0  0  0  0  0  0  0
    0.3042   -0.1005   -2.0249 H   0  0  0  0  0  0  0  0  0  0  0  0
   -1.4547    0.7823   -2.8612 C   0  0  0  0  0  0  0  0  0  0  0  0
   -2.6026    0.8322   -2.4607 O   0  0  0  0  0  0  0  0  0  0  0  0
   -1.2519    0.6808   -4.1569 N   0  0  0  0  0  0  0  0  0  0  0  0
   -2.0859    0.6475   -4.7171 H   0  0  0  0  0  0  0  0  0  0  0  0
   -0.3291    0.6387   -4.5394 H   0  0  0  0  0  0  0  0  0  0  0  0
   -0.0637    0.1284    1.8555 C   0  0  0  0  0  0  0  0  0  0  0  0
    1.0918   -0.0745    2.2236 O   0  0  0  0  0  0  0  0  0  0  0  0
   -1.0024    0.6217    2.6735 N   0  0  0  0  0  0  0  0  0  0  0  0
   -1.9213    0.7848    2.2938 H   0  0  0  0  0  0  0  0  0  0  0  0
   -0.7639    0.9676    4.0741 C   0  0  0  0  0  0  0  0  0  0  0  0
    0.0520    1.6916    4.1400 H   0  0  0  0  0  0  0  0  0  0  0  0
   -1.6626    1.3984    4.5182 H   0  0  0  0  0  0  0  0  0  0  0  0
   -0.4775    0.0737    4.6309 H   0  0  0  0  0  0  0  0  0  0  0  0
  5  6  2  0  0  0  0
  5  7  1  0  0  0  0
  2  3  1  0  0  0  0
  2  4  1  0  0  0  0
  2  5  1  0  0  0  0
  1  2  1  0  0  0  0
 22 23  2  0  0  0  0
 22 24  1  0  0  0  0
 19 20  1  0  0  0  0
 19 21  1  0  0  0  0
 17 18  2  0  0  0  0
 17 19  1  0  0  0  0
 14 15  1  0  0  0  0
 14 16  1  0  0  0  0
 14 17  1  0  0  0  0
 11 12  1  0  0  0  0
 11 13  1  0  0  0  0
 11 14  1  0  0  0  0
  9 10  1  0  0  0  0
  9 11  1  0  0  0  0
  9 22  1  0  0  0  0
  7  8  1  0  0  0  0
  7  9  1  0  0  0  0
 26 27  1  0  0  0  0
 26 28  1  0  0  0  0
 26 29  1  0  0  0  0
 24 25  1  0  0  0  0
 24 26  1  0  0  0  0
M  END
$$$$
default_name
  -OEChem-02102213163D

 29 28  0     1  0  0  0  0  0999 V2000
   -3.3998   -3.6239    1.3678 H   0  0  0  0  0  0  0  0  0  0  0  0
   -3.3608   -2.6749    0.8348 C   0  0  0  0  0  0  0  0  0  0  0  0
   -4.0988   -1.9909    1.2498 H   0  0  0  0  0  0  0  0  0  0  0  0
   -3.5618   -2.8419   -0.2222 H   0  0  0  0  0  0  0  0  0  0  0  0
   -1.9818   -2.0809    0.9918 C   0  0  0  0  0  0  0  0  0  0  0  0
   -1.1288   -2.6669    1.6468 O   0  0  0  0  0  0  0  0  0  0  0  0
   -1.7648   -0.9089    0.3998 N   0  0  0  0  0  0  0  0  0  0  0  0
   -2.5238   -0.4719   -0.1032 H   0  0  0  0  0  0  0  0  0  0  0  0
   -0.4848   -0.1959    0.4138 C   0  0  1  0  0  0  0  0  0  0  0  0
    0.2783   -0.8411   -0.0248 H   0  0  0  0  0  0  0  0  0  0  0  0
   -0.6101    1.0666   -0.4611 C   0  0  0  0  0  0  0  0  0  0  0  0
   -1.6443    1.4143   -0.4160 H   0  0  0  0  0  0  0  0  0  0  0  0
    0.0309    1.8489   -0.0519 H   0  0  0  0  0  0  0  0  0  0  0  0
   -0.2386    0.8406   -1.9370 C   0  0  0  0  0  0  0  0  0  0  0  0
    0.6018    1.4802   -2.2061 H   0  0  0  0  0  0  0  0  0  0  0  0
    0.0584   -0.1995   -2.0717 H   0  0  0  0  0  0  0  0  0  0  0  0
   -1.3876    1.1410   -2.8993 C   0  0  0  0  0  0  0  0  0  0  0  0
   -2.5047    1.4525   -2.5310 O   0  0  0  0  0  0  0  0  0  0  0  0
   -1.1569    1.0670   -4.1922 N   0  0  0  0  0  0  0  0  0  0  0  0
   -1.9467    1.2752   -4.7782 H   0  0  0  0  0  0  0  0  0  0  0  0
   -0.2565    0.8182   -4.5486 H   0  0  0  0  0  0  0  0  0  0  0  0
   -0.0637    0.1284    1.8555 C   0  0  0  0  0  0  0  0  0  0  0  0
    1.0918   -0.0745    2.2236 O   0  0  0  0  0  0  0  0  0  0  0  0
   -1.0024    0.6217    2.6735 N   0  0  0  0  0  0  0  0  0  0  0  0
   -1.9213    0.7848    2.2938 H   0  0  0  0  0  0  0  0  0  0  0  0
   -0.7639    0.9676    4.0741 C   0  0  0  0  0  0  0  0  0  0  0  0
    0.0520    1.6916    4.1400 H   0  0  0  0  0  0  0  0  0  0  0  0
   -1.6626    1.3984    4.5182 H   0  0  0  0  0  0  0  0  0  0  0  0
   -0.4775    0.0737    4.6309 H   0  0  0  0  0  0  0  0  0  0  0  0
  5  6  2  0  0  0  0
  5  7  1  0  0  0  0
  2  3  1  0  0  0  0
  2  4  1  0  0  0  0
  2  5  1  0  0  0  0
  1  2  1  0  0  0  0
 22 23  2  0  0  0  0
 22 24  1  0  0  0  0
 19 20  1  0  0  0  0
 19 21  1  0  0  0  0
 17 18  2  0  0  0  0
 17 19  1  0  0  0  0
 14 15  1  0  0  0  0
 14 16  1  0  0  0  0
 14 17  1  0  0  0  0
 11 12  1  0  0  0  0
 11 13  1  0  0  0  0
 11 14  1  0  0  0  0
  9 10  1  0  0  0  0
  9 11  1  0  0  0  0
  9 22  1  0  0  0  0
  7  8  1  0  0  0  0
  7  9  1  0  0  0  0
 26 27  1  0  0  0  0
 26 28  1  0  0  0  0
 26 29  1  0  0  0  0
 24 25  1  0  0  0  0
 24 26  1  0  0  0  0
M  END
$$$$
default_name
  -OEChem-02102213163D

 29 28  0     1  0  0  0  0  0999 V2000
   -3.3998   -3.6239    1.3678 H   0  0  0  0  0  0  0  0  0  0  0  0
   -3.3608   -2.6749    0.8348 C   0  0  0  0  0  0  0  0  0  0  0  0
   -4.0988   -1.9909    1.2498 H   0  0  0  0  0  0  0  0  0  0  0  0
   -3.5618   -2.8419   -0.2222 H   0  0  0  0  0  0  0  0  0  0  0  0
   -1.9818   -2.0809    0.9918 C   0  0  0  0  0  0  0  0  0  0  0  0
   -1.1288   -2.6669    1.6468 O   0  0  0  0  0  0  0  0  0  0  0  0
   -1.7648   -0.9089    0.3998 N   0  0  0  0  0  0  0  0  0  0  0  0
   -2.5238   -0.4719   -0.1032 H   0  0  0  0  0  0  0  0  0  0  0  0
   -0.4848   -0.1959    0.4138 C   0  0  1  0  0  0  0  0  0  0  0  0
    0.2783   -0.8411   -0.0248 H   0  0  0  0  0  0  0  0  0  0  0  0
   -0.6101    1.0666   -0.4611 C   0  0  0  0  0  0  0  0  0  0  0  0
   -1.6443    1.4143   -0.4160 H   0  0  0  0  0  0  0  0  0  0  0  0
    0.0309    1.8489   -0.0519 H   0  0  0  0  0  0  0  0  0  0  0  0
   -0.2386    0.8406   -1.9370 C   0  0  0  0  0  0  0  0  0  0  0  0
    0.7452    1.2647   -2.1370 H   0  0  0  0  0  0  0  0  0  0  0  0
   -0.2019   -0.2311   -2.1324 H   0  0  0  0  0  0  0  0  0  0  0  0
   -1.2323    1.4732   -2.9111 C   0  0  0  0  0  0  0  0  0  0  0  0
   -2.2536    2.0317   -2.5565 O   0  0  0  0  0  0  0  0  0  0  0  0
   -0.9679    1.4187   -4.1984 N   0  0  0  0  0  0  0  0  0  0  0  0
   -1.6540    1.8508   -4.7926 H   0  0  0  0  0  0  0  0  0  0  0  0
   -0.1415    0.9741   -4.5436 H   0  0  0  0  0  0  0  0  0  0  0  0
   -0.0637    0.1284    1.8555 C   0  0  0  0  0  0  0  0  0  0  0  0
    1.0918   -0.0745    2.2236 O   0  0  0  0  0  0  0  0  0  0  0  0
   -1.0024    0.6217    2.6735 N   0  0  0  0  0  0  0  0  0  0  0  0
   -1.9213    0.7848    2.2938 H   0  0  0  0  0  0  0  0  0  0  0  0
   -0.7639    0.9676    4.0741 C   0  0  0  0  0  0  0  0  0  0  0  0
    0.0520    1.6916    4.1400 H   0  0  0  0  0  0  0  0  0  0  0  0
   -1.6626    1.3984    4.5182 H   0  0  0  0  0  0  0  0  0  0  0  0
   -0.4775    0.0737    4.6309 H   0  0  0  0  0  0  0  0  0  0  0  0
  5  6  2  0  0  0  0
  5  7  1  0  0  0  0
  2  3  1  0  0  0  0
  2  4  1  0  0  0  0
  2  5  1  0  0  0  0
  1  2  1  0  0  0  0
 22 23  2  0  0  0  0
 22 24  1  0  0  0  0
 19 20  1  0  0  0  0
 19 21  1  0  0  0  0
 17 18  2  0  0  0  0
 17 19  1  0  0  0  0
 14 15  1  0  0  0  0
 14 16  1  0  0  0  0
 14 17  1  0  0  0  0
 11 12  1  0  0  0  0
 11 13  1  0  0  0  0
 11 14  1  0  0  0  0
  9 10  1  0  0  0  0
  9 11  1  0  0  0  0
  9 22  1  0  0  0  0
  7  8  1  0  0  0  0
  7  9  1  0  0  0  0
 26 27  1  0  0  0  0
 26 28  1  0  0  0  0
 26 29  1  0  0  0  0
 24 25  1  0  0  0  0
 24 26  1  0  0  0  0
M  END
$$$$
default_name
  -OEChem-02102213163D

 29 28  0     1  0  0  0  0  0999 V2000
   -3.3998   -3.6239    1.3678 H   0  0  0  0  0  0  0  0  0  0  0  0
   -3.3608   -2.6749    0.8348 C   0  0  0  0  0  0  0  0  0  0  0  0
   -4.0988   -1.9909    1.2498 H   0  0  0  0  0  0  0  0  0  0  0  0
   -3.5618   -2.8419   -0.2222 H   0  0  0  0  0  0  0  0  0  0  0  0
   -1.9818   -2.0809    0.9918 C   0  0  0  0  0  0  0  0  0  0  0  0
   -1.1288   -2.6669    1.6468 O   0  0  0  0  0  0  0  0  0  0  0  0
   -1.7648   -0.9089    0.3998 N   0  0  0  0  0  0  0  0  0  0  0  0
   -2.5238   -0.4719   -0.1032 H   0  0  0  0  0  0  0  0  0  0  0  0
   -0.4848   -0.1959    0.4138 C   0  0  1  0  0  0  0  0  0  0  0  0
    0.2783   -0.8411   -0.0248 H   0  0  0  0  0  0  0  0  0  0  0  0
   -0.6101    1.0666   -0.4611 C   0  0  0  0  0  0  0  0  0  0  0  0
   -1.6443    1.4143   -0.4160 H   0  0  0  0  0  0  0  0  0  0  0  0
    0.0309    1.8489   -0.0519 H   0  0  0  0  0  0  0  0  0  0  0  0
   -0.2386    0.8406   -1.9370 C   0  0  0  0  0  0  0  0  0  0  0  0
    0.8276    1.0167   -2.0782 H   0  0  0  0  0  0  0  0  0  0  0  0
   -0.4589   -0.1933   -2.2029 H   0  0  0  0  0  0  0  0  0  0  0  0
   -0.9994    1.7562   -2.8958 C   0  0  0  0  0  0  0  0  0  0  0  0
   -1.8662    2.5304   -2.5354 O   0  0  0  0  0  0  0  0  0  0  0  0
   -0.6978    1.7119   -4.1753 N   0  0  0  0  0  0  0  0  0  0  0  0
   -1.2279    2.3350   -4.7595 H   0  0  0  0  0  0  0  0  0  0  0  0
    0.0081    1.0959   -4.5246 H   0  0  0  0  0  0  0  0  0  0  0  0
   -0.0637    0.1284    1.8555 C   0  0  0  0  0  0  0  0  0  0  0  0
    1.0918   -0.0745    2.2236 O   0  0  0  0  0  0  0  0  0  0  0  0
   -1.0024    0.6217    2.6735 N   0  0  0  0  0  0  0  0  0  0  0  0
   -1.9213    0.7848    2.2938 H   0  0  0  0  0  0  0  0  0  0  0  0
   -0.7639    0.9676    4.0741 C   0  0  0  0  0  0  0  0  0  0  0  0
    0.0520    1.6916    4.1400 H   0  0  0  0  0  0  0  0  0  0  0  0
   -1.6626    1.3984    4.5182 H   0  0  0  0  0  0  0  0  0  0  0  0
   -0.4775    0.0737    4.6309 H   0  0  0  0  0  0  0  0  0  0  0  0
  5  6  2  0  0  0  0
  5  7  1  0  0  0  0
  2  3  1  0  0  0  0
  2  4  1  0  0  0  0
  2  5  1  0  0  0  0
  1  2  1  0  0  0  0
 22 23  2  0  0  0  0
 22 24  1  0  0  0  0
 19 20  1  0  0  0  0
 19 21  1  0  0  0  0
 17 18  2  0  0  0  0
 17 19  1  0  0  0  0
 14 15  1  0  0  0  0
 14 16  1  0  0  0  0
 14 17  1  0  0  0  0
 11 12  1  0  0  0  0
 11 13  1  0  0  0  0
 11 14  1  0  0  0  0
  9 10  1  0  0  0  0
  9 11  1  0  0  0  0
  9 22  1  0  0  0  0
  7  8  1  0  0  0  0
  7  9  1  0  0  0  0
 26 27  1  0  0  0  0
 26 28  1  0  0  0  0
 26 29  1  0  0  0  0
 24 25  1  0  0  0  0
 24 26  1  0  0  0  0
M  END
$$$$
default_name
  -OEChem-02102213163D

 29 28  0     1  0  0  0  0  0999 V2000
   -3.3998   -3.6239    1.3678 H   0  0  0  0  0  0  0  0  0  0  0  0
   -3.3608   -2.6749    0.8348 C   0  0  0  0  0  0  0  0  0  0  0  0
   -4.0988   -1.9909    1.2498 H   0  0  0  0  0  0  0  0  0  0  0  0
   -3.5618   -2.8419   -0.2222 H   0  0  0  0  0  0  0  0  0  0  0  0
   -1.9818   -2.0809    0.9918 C   0  0  0  0  0  0  0  0  0  0  0  0
   -1.1288   -2.6669    1.6468 O   0  0  0  0  0  0  0  0  0  0  0  0
   -1.7648   -0.9089    0.3998 N   0  0  0  0  0  0  0  0  0  0  0  0
   -2.5238   -0.4719   -0.1032 H   0  0  0  0  0  0  0  0  0  0  0  0
   -0.4848   -0.1959    0.4138 C   0  0  1  0  0  0  0  0  0  0  0  0
    0.2783   -0.8411   -0.0248 H   0  0  0  0  0  0  0  0  0  0  0  0
   -0.6101    1.0666   -0.4611 C   0  0  0  0  0  0  0  0  0  0  0  0
   -1.6443    1.4143   -0.4160 H   0  0  0  0  0  0  0  0  0  0  0  0
    0.0309    1.8489   -0.0519 H   0  0  0  0  0  0  0  0  0  0  0  0
   -0.2386    0.8406   -1.9370 C   0  0  0  0  0  0  0  0  0  0  0  0
    0.8434    0.7530   -2.0339 H   0  0  0  0  0  0  0  0  0  0  0  0
   -0.6950   -0.0885   -2.2784 H   0  0  0  0  0  0  0  0  0  0  0  0
   -0.7048    1.9708   -2.8545 C   0  0  0  0  0  0  0  0  0  0  0  0
   -1.3690    2.9147   -2.4691 O   0  0  0  0  0  0  0  0  0  0  0  0
   -0.3650    1.9266   -4.1244 N   0  0  0  0  0  0  0  0  0  0  0  0
   -0.6973    2.6949   -4.6811 H   0  0  0  0  0  0  0  0  0  0  0  0
    0.1820    1.1751   -4.4929 H   0  0  0  0  0  0  0  0  0  0  0  0
   -0.0637    0.1284    1.8555 C   0  0  0  0  0  0  0  0  0  0  0  0
    1.0918   -0.0745    2.2236 O   0  0  0  0  0  0  0  0  0  0  0  0
   -1.0024    0.6217    2.6735 N   0  0  0  0  0  0  0  0  0  0  0  0
   -1.9213    0.7848    2.2938 H   0  0  0  0  0  0  0  0  0  0  0  0
   -0.7639    0.9676    4.0741 C   0  0  0  0  0  0  0  0  0  0  0  0
    0.0520    1.6916    4.1400 H   0  0  0  0  0  0  0  0  0  0  0  0
   -1.6626    1.3984    4.5182 H   0  0  0  0  0  0  0  0  0  0  0  0
   -0.4775    0.0737    4.6309 H   0  0  0  0  0  0  0  0  0  0  0  0
  5  6  2  0  0  0  0
  5  7  1  0  0  0  0
  2  3  1  0  0  0  0
  2  4  1  0  0  0  0
  2  5  1  0  0  0  0
  1  2  1  0  0  0  0
 22 23  2  0  0  0  0
 22 24  1  0  0  0  0
 19 20  1  0  0  0  0
 19 21  1  0  0  0  0
 17 18  2  0  0  0  0
 17 19  1  0  0  0  0
 14 15  1  0  0  0  0
 14 16  1  0  0  0  0
 14 17  1  0  0  0  0
 11 12  1  0  0  0  0
 11 13  1  0  0  0  0
 11 14  1  0  0  0  0
  9 10  1  0  0  0  0
  9 11  1  0  0  0  0
  9 22  1  0  0  0  0
  7  8  1  0  0  0  0
  7  9  1  0  0  0  0
 26 27  1  0  0  0  0
 26 28  1  0  0  0  0
 26 29  1  0  0  0  0
 24 25  1  0  0  0  0
 24 26  1  0  0  0  0
M  END
$$$$
default_name
  -OEChem-02102213163D

 29 28  0     1  0  0  0  0  0999 V2000
   -3.3998   -3.6239    1.3678 H   0  0  0  0  0  0  0  0  0  0  0  0
   -3.3608   -2.6749    0.8348 C   0  0  0  0  0  0  0  0  0  0  0  0
   -4.0988   -1.9909    1.2498 H   0  0  0  0  0  0  0  0  0  0  0  0
   -3.5618   -2.8419   -0.2222 H   0  0  0  0  0  0  0  0  0  0  0  0
   -1.9818   -2.0809    0.9918 C   0  0  0  0  0  0  0  0  0  0  0  0
   -1.1288   -2.6669    1.6468 O   0  0  0  0  0  0  0  0  0  0  0  0
   -1.7648   -0.9089    0.3998 N   0  0  0  0  0  0  0  0  0  0  0  0
   -2.5238   -0.4719   -0.1032 H   0  0  0  0  0  0  0  0  0  0  0  0
   -0.4848   -0.1959    0.4138 C   0  0  1  0  0  0  0  0  0  0  0  0
    0.2783   -0.8411   -0.0248 H   0  0  0  0  0  0  0  0  0  0  0  0
   -0.6101    1.0666   -0.4611 C   0  0  0  0  0  0  0  0  0  0  0  0
   -1.5494    1.5649   -0.2122 H   0  0  0  0  0  0  0  0  0  0  0  0
    0.2097    1.7467   -0.2251 H   0  0  0  0  0  0  0  0  0  0  0  0
   -0.5991    0.7800   -1.9727 C   0  0  0  0  0  0  0  0  0  0  0  0
    0.3307    0.2809   -2.2449 H   0  0  0  0  0  0  0  0  0  0  0  0
   -1.4322    0.1197   -2.2137 H   0  0  0  0  0  0  0  0  0  0  0  0
   -0.7243    2.0426   -2.8253 C   0  0  0  0  0  0  0  0  0  0  0  0
   -0.8931    3.1526   -2.3563 O   0  0  0  0  0  0  0  0  0  0  0  0
   -0.6376    1.9263   -4.1326 N   0  0  0  0  0  0  0  0  0  0  0  0
   -0.7258    2.7875   -4.6434 H   0  0  0  0  0  0  0  0  0  0  0  0
   -0.4965    1.0382   -4.5697 H   0  0  0  0  0  0  0  0  0  0  0  0
   -0.0637    0.1284    1.8555 C   0  0  0  0  0  0  0  0  0  0  0  0
    1.0918   -0.0745    2.2236 O   0  0  0  0  0  0  0  0  0  0  0  0
   -1.0024    0.6217    2.6735 N   0  0  0  0  0  0  0  0  0  0  0  0
   -1.9213    0.7848    2.2938 H   0  0  0  0  0  0  0  0  0  0  0  0
   -0.7639    0.9676    4.0741 C   0  0  0  0  0  0  0  0  0  0  0  0
    0.0520    1.6916    4.1400 H   0  0  0  0  0  0  0  0  0  0  0  0
   -1.6626    1.3984    4.5182 H   0  0  0  0  0  0  0  0  0  0  0  0
   -0.4775    0.0737    4.6309 H   0  0  0  0  0  0  0  0  0  0  0  0
  5  6  2  0  0  0  0
  5  7  1  0  0  0  0
  2  3  1  0  0  0  0
  2  4  1  0  0  0  0
  2  5  1  0  0  0  0
  1  2  1  0  0  0  0
 22 23  2  0  0  0  0
 22 24  1  0  0  0  0
 19 20  1  0  0  0  0
 19 21  1  0  0  0  0
 17 18  2  0  0  0  0
 17 19  1  0  0  0  0
 14 15  1  0  0  0  0
 14 16  1  0  0  0  0
 14 17  1  0  0  0  0
 11 12  1  0  0  0  0
 11 13  1  0  0  0  0
 11 14  1  0  0  0  0
  9 10  1  0  0  0  0
  9 11  1  0  0  0  0
  9 22  1  0  0  0  0
  7  8  1  0  0  0  0
  7  9  1  0  0  0  0
 26 27  1  0  0  0  0
 26 28  1  0  0  0  0
 26 29  1  0  0  0  0
 24 25  1  0  0  0  0
 24 26  1  0  0  0  0
M  END
$$$$
default_name
  -OEChem-02102213163D

 29 28  0     1  0  0  0  0  0999 V2000
   -3.3998   -3.6239    1.3678 H   0  0  0  0  0  0  0  0  0  0  0  0
   -3.3608   -2.6749    0.8348 C   0  0  0  0  0  0  0  0  0  0  0  0
   -4.0988   -1.9909    1.2498 H   0  0  0  0  0  0  0  0  0  0  0  0
   -3.5618   -2.8419   -0.2222 H   0  0  0  0  0  0  0  0  0  0  0  0
   -1.9818   -2.0809    0.9918 C   0  0  0  0  0  0  0  0  0  0  0  0
   -1.1288   -2.6669    1.6468 O   0  0  0  0  0  0  0  0  0  0  0  0
   -1.7648   -0.9089    0.3998 N   0  0  0  0  0  0  0  0  0  0  0  0
   -2.5238   -0.4719   -0.1032 H   0  0  0  0  0  0  0  0  0  0  0  0
   -0.4848   -0.1959    0.4138 C   0  0  1  0  0  0  0  0  0  0  0  0
    0.2783   -0.8411   -0.0248 H   0  0  0  0  0  0  0  0  0  0  0  0
   -0.6101    1.0666   -0.4611 C   0  0  0  0  0  0  0  0  0  0  0  0
   -1.5494    1.5649   -0.2122 H   0  0  0  0  0  0  0  0  0  0  0  0
    0.2097    1.7467   -0.2251 H   0  0  0  0  0  0  0  0  0  0  0  0
   -0.5991    0.7800   -1.9727 C   0  0  0  0  0  0  0  0  0  0  0  0
    0.1853    0.0596   -2.2041 H   0  0  0  0  0  0  0  0  0  0  0  0
   -1.5600    0.3522   -2.2587 H   0  0  0  0  0  0  0  0  0  0  0  0
   -0.3577    2.0291   -2.8200 C   0  0  0  0  0  0  0  0  0  0  0  0
   -0.2613    3.1476   -2.3507 O   0  0  0  0  0  0  0  0  0  0  0  0
   -0.2402    1.8889   -4.1226 N   0  0  0  0  0  0  0  0  0  0  0  0
   -0.0817    2.7420   -4.6301 H   0  0  0  0  0  0  0  0  0  0  0  0
   -0.3085    0.9922   -4.5597 H   0  0  0  0  0  0  0  0  0  0  0  0
   -0.0637    0.1284    1.8555 C   0  0  0  0  0  0  0  0  0  0  0  0
    1.0918   -0.0745    2.2236 O   0  0  0  0  0  0  0  0  0  0  0  0
   -1.0024    0.6217    2.6735 N   0  0  0  0  0  0  0  0  0  0  0  0
   -1.9213    0.7848    2.2938 H   0  0  0  0  0  0  0  0  0  0  0  0
   -0.7639    0.9676    4.0741 C   0  0  0  0  0  0  0  0  0  0  0  0
    0.0520    1.6916    4.1400 H   0  0  0  0  0  0  0  0  0  0  0  0
   -1.6626    1.3984    4.5182 H   0  0  0  0  0  0  0  0  0  0  0  0
   -0.4775    0.0737    4.6309 H   0  0  0  0  0  0  0  0  0  0  0  0
  5  6  2  0  0  0  0
  5  7  1  0  0  0  0
  2  3  1  0  0  0  0
  2  4  1  0  0  0  0
  2  5  1  0  0  0  0
  1  2  1  0  0  0  0
 22 23  2  0  0  0  0
 22 24  1  0  0  0  0
 19 20  1  0  0  0  0
 19 21  1  0  0  0  0
 17 18  2  0  0  0  0
 17 19  1  0  0  0  0
 14 15  1  0  0  0  0
 14 16  1  0  0  0  0
 14 17  1  0  0  0  0
 11 12  1  0  0  0  0
 11 13  1  0  0  0  0
 11 14  1  0  0  0  0
  9 10  1  0  0  0  0
  9 11  1  0  0  0  0
  9 22  1  0  0  0  0
  7  8  1  0  0  0  0
  7  9  1  0  0  0  0
 26 27  1  0  0  0  0
 26 28  1  0  0  0  0
 26 29  1  0  0  0  0
 24 25  1  0  0  0  0
 24 26  1  0  0  0  0
M  END
$$$$
default_name
  -OEChem-02102213163D

 29 28  0     1  0  0  0  0  0999 V2000
   -3.3998   -3.6239    1.3678 H   0  0  0  0  0  0  0  0  0  0  0  0
   -3.3608   -2.6749    0.8348 C   0  0  0  0  0  0  0  0  0  0  0  0
   -4.0988   -1.9909    1.2498 H   0  0  0  0  0  0  0  0  0  0  0  0
   -3.5618   -2.8419   -0.2222 H   0  0  0  0  0  0  0  0  0  0  0  0
   -1.9818   -2.0809    0.9918 C   0  0  0  0  0  0  0  0  0  0  0  0
   -1.1288   -2.6669    1.6468 O   0  0  0  0  0  0  0  0  0  0  0  0
   -1.7648   -0.9089    0.3998 N   0  0  0  0  0  0  0  0  0  0  0  0
   -2.5238   -0.4719   -0.1032 H   0  0  0  0  0  0  0  0  0  0  0  0
   -0.4848   -0.1959    0.4138 C   0  0  1  0  0  0  0  0  0  0  0  0
    0.2783   -0.8411   -0.0248 H   0  0  0  0  0  0  0  0  0  0  0  0
   -0.6101    1.0666   -0.4611 C   0  0  0  0  0  0  0  0  0  0  0  0
   -1.5494    1.5649   -0.2122 H   0  0  0  0  0  0  0  0  0  0  0  0
    0.2097    1.7467   -0.2251 H   0  0  0  0  0  0  0  0  0  0  0  0
   -0.5991    0.7800   -1.9727 C   0  0  0  0  0  0  0  0  0  0  0  0
   -0.0133   -0.1172   -2.1720 H   0  0  0  0  0  0  0  0  0  0  0  0
   -1.6221    0.6094   -2.3080 H   0  0  0  0  0  0  0  0  0  0  0  0
   -0.0073    1.9230   -2.7973 C   0  0  0  0  0  0  0  0  0  0  0  0
    0.3475    2.9822   -2.3149 O   0  0  0  0  0  0  0  0  0  0  0  0
    0.1337    1.7517   -4.0939 N   0  0  0  0  0  0  0  0  0  0  0  0
    0.5283    2.5343   -4.5863 H   0  0  0  0  0  0  0  0  0  0  0  0
   -0.1391    0.9000   -4.5409 H   0  0  0  0  0  0  0  0  0  0  0  0
   -0.0637    0.1284    1.8555 C   0  0  0  0  0  0  0  0  0  0  0  0
    1.0918   -0.0745    2.2236 O   0  0  0  0  0  0  0  0  0  0  0  0
   -1.0024    0.6217    2.6735 N   0  0  0  0  0  0  0  0  0  0  0  0
   -1.9213    0.7848    2.2938 H   0  0  0  0  0  0  0  0  0  0  0  0
   -0.7639    0.9676    4.0741 C   0  0  0  0  0  0  0  0  0  0  0  0
    0.0520    1.6916    4.1400 H   0  0  0  0  0  0  0  0  0  0  0  0
   -1.6626    1.3984    4.5182 H   0  0  0  0  0  0  0  0  0  0  0  0
   -0.4775    0.0737    4.6309 H   0  0  0  0  0  0  0  0  0  0  0  0
  5  6  2  0  0  0  0
  5  7  1  0  0  0  0
  2  3  1  0  0  0  0
  2  4  1  0  0  0  0
  2  5  1  0  0  0  0
  1  2  1  0  0  0  0
 22 23  2  0  0  0  0
 22 24  1  0  0  0  0
 19 20  1  0  0  0  0
 19 21  1  0  0  0  0
 17 18  2  0  0  0  0
 17 19  1  0  0  0  0
 14 15  1  0  0  0  0
 14 16  1  0  0  0  0
 14 17  1  0  0  0  0
 11 12  1  0  0  0  0
 11 13  1  0  0  0  0
 11 14  1  0  0  0  0
  9 10  1  0  0  0  0
  9 11  1  0  0  0  0
  9 22  1  0  0  0  0
  7  8  1  0  0  0  0
  7  9  1  0  0  0  0
 26 27  1  0  0  0  0
 26 28  1  0  0  0  0
 26 29  1  0  0  0  0
 24 25  1  0  0  0  0
 24 26  1  0  0  0  0
M  END
$$$$
default_name
  -OEChem-02102213163D

 29 28  0     1  0  0  0  0  0999 V2000
   -3.3998   -3.6239    1.3678 H   0  0  0  0  0  0  0  0  0  0  0  0
   -3.3608   -2.6749    0.8348 C   0  0  0  0  0  0  0  0  0  0  0  0
   -4.0988   -1.9909    1.2498 H   0  0  0  0  0  0  0  0  0  0  0  0
   -3.5618   -2.8419   -0.2222 H   0  0  0  0  0  0  0  0  0  0  0  0
   -1.9818   -2.0809    0.9918 C   0  0  0  0  0  0  0  0  0  0  0  0
   -1.1288   -2.6669    1.6468 O   0  0  0  0  0  0  0  0  0  0  0  0
   -1.7648   -0.9089    0.3998 N   0  0  0  0  0  0  0  0  0  0  0  0
   -2.5238   -0.4719   -0.1032 H   0  0  0  0  0  0  0  0  0  0  0  0
   -0.4848   -0.1959    0.4138 C   0  0  1  0  0  0  0  0  0  0  0  0
    0.2783   -0.8411   -0.0248 H   0  0  0  0  0  0  0  0  0  0  0  0
   -0.6101    1.0666   -0.4611 C   0  0  0  0  0  0  0  0  0  0  0  0
   -1.5494    1.5649   -0.2122 H   0  0  0  0  0  0  0  0  0  0  0  0
    0.2097    1.7467   -0.2251 H   0  0  0  0  0  0  0  0  0  0  0  0
   -0.5991    0.7800   -1.9727 C   0  0  0  0  0  0  0  0  0  0  0  0
   -0.2517   -0.2375   -2.1509 H   0  0  0  0  0  0  0  0  0  0  0  0
   -1.6144    0.8737   -2.3580 H   0  0  0  0  0  0  0  0  0  0  0  0
    0.3031    1.7312   -2.7587 C   0  0  0  0  0  0  0  0  0  0  0  0
    0.8917    2.6675   -2.2512 O   0  0  0  0  0  0  0  0  0  0  0  0
    0.4586    1.5241   -4.0483 N   0  0  0  0  0  0  0  0  0  0  0  0
    1.0625    2.1784   -4.5149 H   0  0  0  0  0  0  0  0  0  0  0  0
    0.0002    0.7678   -4.5148 H   0  0  0  0  0  0  0  0  0  0  0  0
   -0.0637    0.1284    1.8555 C   0  0  0  0  0  0  0  0  0  0  0  0
    1.0918   -0.0745    2.2236 O   0  0  0  0  0  0  0  0  0  0  0  0
   -1.0024    0.6217    2.6735 N   0  0  0  0  0  0  0  0  0  0  0  0
   -1.9213    0.7848    2.2938 H   0  0  0  0  0  0  0  0  0  0  0  0
   -0.7639    0.9676    4.0741 C   0  0  0  0  0  0  0  0  0  0  0  0
    0.0520    1.6916    4.1400 H   0  0  0  0  0  0  0  0  0  0  0  0
   -1.6626    1.3984    4.5182 H   0  0  0  0  0  0  0  0  0  0  0  0
   -0.4775    0.0737    4.6309 H   0  0  0  0  0  0  0  0  0  0  0  0
  5  6  2  0  0  0  0
  5  7  1  0  0  0  0
  2  3  1  0  0  0  0
  2  4  1  0  0  0  0
  2  5  1  0  0  0  0
  1  2  1  0  0  0  0
 22 23  2  0  0  0  0
 22 24  1  0  0  0  0
 19 20  1  0  0  0  0
 19 21  1  0  0  0  0
 17 18  2  0  0  0  0
 17 19  1  0  0  0  0
 14 15  1  0  0  0  0
 14 16  1  0  0  0  0
 14 17  1  0  0  0  0
 11 12  1  0  0  0  0
 11 13  1  0  0  0  0
 11 14  1  0  0  0  0
  9 10  1  0  0  0  0
  9 11  1  0  0  0  0
  9 22  1  0  0  0  0
  7  8  1  0  0  0  0
  7  9  1  0  0  0  0
 26 27  1  0  0  0  0
 26 28  1  0  0  0  0
 26 29  1  0  0  0  0
 24 25  1  0  0  0  0
 24 26  1  0  0  0  0
M  END
$$$$
default_name
  -OEChem-02102213163D

 29 28  0     1  0  0  0  0  0999 V2000
   -3.3998   -3.6239    1.3678 H   0  0  0  0  0  0  0  0  0  0  0  0
   -3.3608   -2.6749    0.8348 C   0  0  0  0  0  0  0  0  0  0  0  0
   -4.0988   -1.9909    1.2498 H   0  0  0  0  0  0  0  0  0  0  0  0
   -3.5618   -2.8419   -0.2222 H   0  0  0  0  0  0  0  0  0  0  0  0
   -1.9818   -2.0809    0.9918 C   0  0  0  0  0  0  0  0  0  0  0  0
   -1.1288   -2.6669    1.6468 O   0  0  0  0  0  0  0  0  0  0  0  0
   -1.7648   -0.9089    0.3998 N   0  0  0  0  0  0  0  0  0  0  0  0
   -2.5238   -0.4719   -0.1032 H   0  0  0  0  0  0  0  0  0  0  0  0
   -0.4848   -0.1959    0.4138 C   0  0  1  0  0  0  0  0  0  0  0  0
    0.2783   -0.8411   -0.0248 H   0  0  0  0  0  0  0  0  0  0  0  0
   -0.6101    1.0666   -0.4611 C   0  0  0  0  0  0  0  0  0  0  0  0
   -1.5494    1.5649   -0.2122 H   0  0  0  0  0  0  0  0  0  0  0  0
    0.2097    1.7467   -0.2251 H   0  0  0  0  0  0  0  0  0  0  0  0
   -0.5991    0.7800   -1.9727 C   0  0  0  0  0  0  0  0  0  0  0  0
   -0.5136   -0.2932   -2.1423 H   0  0  0  0  0  0  0  0  0  0  0  0
   -1.5373    1.1272   -2.4055 H   0  0  0  0  0  0  0  0  0  0  0  0
    0.5523    1.4670   -2.7068 C   0  0  0  0  0  0  0  0  0  0  0  0
    1.3343    2.2251   -2.1641 O   0  0  0  0  0  0  0  0  0  0  0  0
    0.7123    1.2215   -3.9891 N   0  0  0  0  0  0  0  0  0  0  0  0
    1.4846    1.6987   -4.4208 H   0  0  0  0  0  0  0  0  0  0  0  0
    0.0999    0.6047   -4.4832 H   0  0  0  0  0  0  0  0  0  0  0  0
   -0.0637    0.1284    1.8555 C   0  0  0  0  0  0  0  0  0  0  0  0
    1.0918   -0.0745    2.2236 O   0  0  0  0  0  0  0  0  0  0  0  0
   -1.0024    0.6217    2.6735 N   0  0  0  0  0  0  0  0  0  0  0  0
   -1.9213    0.7848    2.2938 H   0  0  0  0  0  0  0  0  0  0  0  0
   -0.7639    0.9676    4.0741 C   0  0  0  0  0  0  0  0  0  0  0  0
    0.0520    1.6916    4.1400 H   0  0  0  0  0  0  0  0  0  0  0  0
   -1.6626    1.3984    4.5182 H   0  0  0  0  0  0  0  0  0  0  0  0
   -0.4775    0.0737    4.6309 H   0  0  0  0  0  0  0  0  0  0  0  0
  5  6  2  0  0  0  0
  5  7  1  0  0  0  0
  2  3  1  0  0  0  0
  2  4  1  0  0  0  0
  2  5  1  0  0  0  0
  1  2  1  0  0  0  0
 22 23  2  0  0  0  0
 22 24  1  0  0  0  0
 19 20  1  0  0  0  0
 19 21  1  0  0  0  0
 17 18  2  0  0  0  0
 17 19  1  0  0  0  0
 14 15  1  0  0  0  0
 14 16  1  0  0  0  0
 14 17  1  0  0  0  0
 11 12  1  0  0  0  0
 11 13  1  0  0  0  0
 11 14  1  0  0  0  0
  9 10  1  0  0  0  0
  9 11  1  0  0  0  0
  9 22  1  0  0  0  0
  7  8  1  0  0  0  0
  7  9  1  0  0  0  0
 26 27  1  0  0  0  0
 26 28  1  0  0  0  0
 26 29  1  0  0  0  0
 24 25  1  0  0  0  0
 24 26  1  0  0  0  0
M  END
$$$$
default_name
  -OEChem-02102213163D

 29 28  0     1  0  0  0  0  0999 V2000
   -3.3998   -3.6239    1.3678 H   0  0  0  0  0  0  0  0  0  0  0  0
   -3.3608   -2.6749    0.8348 C   0  0  0  0  0  0  0  0  0  0  0  0
   -4.0988   -1.9909    1.2498 H   0  0  0  0  0  0  0  0  0  0  0  0
   -3.5618   -2.8419   -0.2222 H   0  0  0  0  0  0  0  0  0  0  0  0
   -1.9818   -2.0809    0.9918 C   0  0  0  0  0  0  0  0  0  0  0  0
   -1.1288   -2.6669    1.6468 O   0  0  0  0  0  0  0  0  0  0  0  0
   -1.7648   -0.9089    0.3998 N   0  0  0  0  0  0  0  0  0  0  0  0
   -2.5238   -0.4719   -0.1032 H   0  0  0  0  0  0  0  0  0  0  0  0
   -0.4848   -0.1959    0.4138 C   0  0  1  0  0  0  0  0  0  0  0  0
    0.2783   -0.8411   -0.0248 H   0  0  0  0  0  0  0  0  0  0  0  0
   -0.6101    1.0666   -0.4611 C   0  0  0  0  0  0  0  0  0  0  0  0
   -1.5494    1.5649   -0.2122 H   0  0  0  0  0  0  0  0  0  0  0  0
    0.2097    1.7467   -0.2251 H   0  0  0  0  0  0  0  0  0  0  0  0
   -0.5991    0.7800   -1.9727 C   0  0  0  0  0  0  0  0  0  0  0  0
   -0.7811   -0.2804   -2.1466 H   0  0  0  0  0  0  0  0  0  0  0  0
   -1.3961    1.3525   -2.4472 H   0  0  0  0  0  0  0  0  0  0  0  0
    0.7233    1.1484   -2.6451 C   0  0  0  0  0  0  0  0  0  0  0  0
    1.6451    1.6850   -2.0594 O   0  0  0  0  0  0  0  0  0  0  0  0
    0.8776    0.8647   -3.9202 N   0  0  0  0  0  0  0  0  0  0  0  0
    1.7658    1.1278   -4.3105 H   0  0  0  0  0  0  0  0  0  0  0  0
    0.1532    0.4217   -4.4481 H   0  0  0  0  0  0  0  0  0  0  0  0
   -0.0637    0.1284    1.8555 C   0  0  0  0  0  0  0  0  0  0  0  0
    1.0918   -0.0745    2.2236 O   0  0  0  0  0  0  0  0  0  0  0  0
   -1.0024    0.6217    2.6735 N   0  0  0  0  0  0  0  0  0  0  0  0
   -1.9213    0.7848    2.2938 H   0  0  0  0  0  0  0  0  0  0  0  0
   -0.7639    0.9676    4.0741 C   0  0  0  0  0  0  0  0  0  0  0  0
    0.0520    1.6916    4.1400 H   0  0  0  0  0  0  0  0  0  0  0  0
   -1.6626    1.3984    4.5182 H   0  0  0  0  0  0  0  0  0  0  0  0
   -0.4775    0.0737    4.6309 H   0  0  0  0  0  0  0  0  0  0  0  0
  5  6  2  0  0  0  0
  5  7  1  0  0  0  0
  2  3  1  0  0  0  0
  2  4  1  0  0  0  0
  2  5  1  0  0  0  0
  1  2  1  0  0  0  0
 22 23  2  0  0  0  0
 22 24  1  0  0  0  0
 19 20  1  0  0  0  0
 19 21  1  0  0  0  0
 17 18  2  0  0  0  0
 17 19  1  0  0  0  0
 14 15  1  0  0  0  0
 14 16  1  0  0  0  0
 14 17  1  0  0  0  0
 11 12  1  0  0  0  0
 11 13  1  0  0  0  0
 11 14  1  0  0  0  0
  9 10  1  0  0  0  0
  9 11  1  0  0  0  0
  9 22  1  0  0  0  0
  7  8  1  0  0  0  0
  7  9  1  0  0  0  0
 26 27  1  0  0  0  0
 26 28  1  0  0  0  0
 26 29  1  0  0  0  0
 24 25  1  0  0  0  0
 24 26  1  0  0  0  0
M  END
$$$$
default_name
  -OEChem-02102213163D

 29 28  0     1  0  0  0  0  0999 V2000
   -3.3998   -3.6239    1.3678 H   0  0  0  0  0  0  0  0  0  0  0  0
   -3.3608   -2.6749    0.8348 C   0  0  0  0  0  0  0  0  0  0  0  0
   -4.0988   -1.9909    1.2498 H   0  0  0  0  0  0  0  0  0  0  0  0
   -3.5618   -2.8419   -0.2222 H   0  0  0  0  0  0  0  0  0  0  0  0
   -1.9818   -2.0809    0.9918 C   0  0  0  0  0  0  0  0  0  0  0  0
   -1.1288   -2.6669    1.6468 O   0  0  0  0  0  0  0  0  0  0  0  0
   -1.7648   -0.9089    0.3998 N   0  0  0  0  0  0  0  0  0  0  0  0
   -2.5238   -0.4719   -0.1032 H   0  0  0  0  0  0  0  0  0  0  0  0
   -0.4848   -0.1959    0.4138 C   0  0  1  0  0  0  0  0  0  0  0  0
    0.2783   -0.8411   -0.0248 H   0  0  0  0  0  0  0  0  0  0  0  0
   -0.6101    1.0666   -0.4611 C   0  0  0  0  0  0  0  0  0  0  0  0
   -1.5494    1.5649   -0.2122 H   0  0  0  0  0  0  0  0  0  0  0  0
    0.2097    1.7467   -0.2251 H   0  0  0  0  0  0  0  0  0  0  0  0
   -0.5991    0.7800   -1.9727 C   0  0  0  0  0  0  0  0  0  0  0  0
   -1.0361   -0.2000   -2.1638 H   0  0  0  0  0  0  0  0  0  0  0  0
   -1.2004    1.5342   -2.4803 H   0  0  0  0  0  0  0  0  0  0  0  0
    0.8045    0.7970   -2.5779 C   0  0  0  0  0  0  0  0  0  0  0  0
    1.8029    1.0841   -1.9443 O   0  0  0  0  0  0  0  0  0  0  0  0
    0.9432    0.4778   -3.8464 N   0  0  0  0  0  0  0  0  0  0  0  0
    1.8870    0.5047   -4.1914 H   0  0  0  0  0  0  0  0  0  0  0  0
    0.1564    0.2313   -4.4119 H   0  0  0  0  0  0  0  0  0  0  0  0
   -0.0637    0.1284    1.8555 C   0  0  0  0  0  0  0  0  0  0  0  0
    1.0918   -0.0745    2.2236 O   0  0  0  0  0  0  0  0  0  0  0  0
   -1.0024    0.6217    2.6735 N   0  0  0  0  0  0  0  0  0  0  0  0
   -1.9213    0.7848    2.2938 H   0  0  0  0  0  0  0  0  0  0  0  0
   -0.7639    0.9676    4.0741 C   0  0  0  0  0  0  0  0  0  0  0  0
    0.0520    1.6916    4.1400 H   0  0  0  0  0  0  0  0  0  0  0  0
   -1.6626    1.3984    4.5182 H   0  0  0  0  0  0  0  0  0  0  0  0
   -0.4775    0.0737    4.6309 H   0  0  0  0  0  0  0  0  0  0  0  0
  5  6  2  0  0  0  0
  5  7  1  0  0  0  0
  2  3  1  0  0  0  0
  2  4  1  0  0  0  0
  2  5  1  0  0  0  0
  1  2  1  0  0  0  0
 22 23  2  0  0  0  0
 22 24  1  0  0  0  0
 19 20  1  0  0  0  0
 19 21  1  0  0  0  0
 17 18  2  0  0  0  0
 17 19  1  0  0  0  0
 14 15  1  0  0  0  0
 14 16  1  0  0  0  0
 14 17  1  0  0  0  0
 11 12  1  0  0  0  0
 11 13  1  0  0  0  0
 11 14  1  0  0  0  0
  9 10  1  0  0  0  0
  9 11  1  0  0  0  0
  9 22  1  0  0  0  0
  7  8  1  0  0  0  0
  7  9  1  0  0  0  0
 26 27  1  0  0  0  0
 26 28  1  0  0  0  0
 26 29  1  0  0  0  0
 24 25  1  0  0  0  0
 24 26  1  0  0  0  0
M  END
$$$$
default_name
  -OEChem-02102213163D

 29 28  0     1  0  0  0  0  0999 V2000
   -3.3998   -3.6239    1.3678 H   0  0  0  0  0  0  0  0  0  0  0  0
   -3.3608   -2.6749    0.8348 C   0  0  0  0  0  0  0  0  0  0  0  0
   -4.0988   -1.9909    1.2498 H   0  0  0  0  0  0  0  0  0  0  0  0
   -3.5618   -2.8419   -0.2222 H   0  0  0  0  0  0  0  0  0  0  0  0
   -1.9818   -2.0809    0.9918 C   0  0  0  0  0  0  0  0  0  0  0  0
   -1.1288   -2.6669    1.6468 O   0  0  0  0  0  0  0  0  0  0  0  0
   -1.7648   -0.9089    0.3998 N   0  0  0  0  0  0  0  0  0  0  0  0
   -2.5238   -0.4719   -0.1032 H   0  0  0  0  0  0  0  0  0  0  0  0
   -0.4848   -0.1959    0.4138 C   0  0  1  0  0  0  0  0  0  0  0  0
    0.2783   -0.8411   -0.0248 H   0  0  0  0  0  0  0  0  0  0  0  0
   -0.6101    1.0666   -0.4611 C   0  0  0  0  0  0  0  0  0  0  0  0
   -1.5494    1.5649   -0.2122 H   0  0  0  0  0  0  0  0  0  0  0  0
    0.2097    1.7467   -0.2251 H   0  0  0  0  0  0  0  0  0  0  0  0
   -0.5991    0.7800   -1.9727 C   0  0  0  0  0  0  0  0  0  0  0  0
   -1.2610   -0.0574   -2.1924 H   0  0  0  0  0  0  0  0  0  0  0  0
   -0.9635    1.6601   -2.5024 H   0  0  0  0  0  0  0  0  0  0  0  0
    0.7904    0.4368   -2.5097 C   0  0  0  0  0  0  0  0  0  0  0  0
    1.7970    0.4633   -1.8266 O   0  0  0  0  0  0  0  0  0  0  0  0
    0.9047    0.0873   -3.7726 N   0  0  0  0  0  0  0  0  0  0  0  0
    1.8398   -0.1283   -4.0717 H   0  0  0  0  0  0  0  0  0  0  0  0
    0.1094    0.0465   -4.3773 H   0  0  0  0  0  0  0  0  0  0  0  0
   -0.0637    0.1284    1.8555 C   0  0  0  0  0  0  0  0  0  0  0  0
    1.0918   -0.0745    2.2236 O   0  0  0  0  0  0  0  0  0  0  0  0
   -1.0024    0.6217    2.6735 N   0  0  0  0  0  0  0  0  0  0  0  0
   -1.9213    0.7848    2.2938 H   0  0  0  0  0  0  0  0  0  0  0  0
   -0.7639    0.9676    4.0741 C   0  0  0  0  0  0  0  0  0  0  0  0
    0.0520    1.6916    4.1400 H   0  0  0  0  0  0  0  0  0  0  0  0
   -1.6626    1.3984    4.5182 H   0  0  0  0  0  0  0  0  0  0  0  0
   -0.4775    0.0737    4.6309 H   0  0  0  0  0  0  0  0  0  0  0  0
  5  6  2  0  0  0  0
  5  7  1  0  0  0  0
  2  3  1  0  0  0  0
  2  4  1  0  0  0  0
  2  5  1  0  0  0  0
  1  2  1  0  0  0  0
 22 23  2  0  0  0  0
 22 24  1  0  0  0  0
 19 20  1  0  0  0  0
 19 21  1  0  0  0  0
 17 18  2  0  0  0  0
 17 19  1  0  0  0  0
 14 15  1  0  0  0  0
 14 16  1  0  0  0  0
 14 17  1  0  0  0  0
 11 12  1  0  0  0  0
 11 13  1  0  0  0  0
 11 14  1  0  0  0  0
  9 10  1  0  0  0  0
  9 11  1  0  0  0  0
  9 22  1  0  0  0  0
  7  8  1  0  0  0  0
  7  9  1  0  0  0  0
 26 27  1  0  0  0  0
 26 28  1  0  0  0  0
 26 29  1  0  0  0  0
 24 25  1  0  0  0  0
 24 26  1  0  0  0  0
M  END
$$$$
default_name
  -OEChem-02102213163D

 29 28  0     1  0  0  0  0  0999 V2000
   -3.3998   -3.6239    1.3678 H   0  0  0  0  0  0  0  0  0  0  0  0
   -3.3608   -2.6749    0.8348 C   0  0  0  0  0  0  0  0  0  0  0  0
   -4.0988   -1.9909    1.2498 H   0  0  0  0  0  0  0  0  0  0  0  0
   -3.5618   -2.8419   -0.2222 H   0  0  0  0  0  0  0  0  0  0  0  0
   -1.9818   -2.0809    0.9918 C   0  0  0  0  0  0  0  0  0  0  0  0
   -1.1288   -2.6669    1.6468 O   0  0  0  0  0  0  0  0  0  0  0  0
   -1.7648   -0.9089    0.3998 N   0  0  0  0  0  0  0  0  0  0  0  0
   -2.5238   -0.4719   -0.1032 H   0  0  0  0  0  0  0  0  0  0  0  0
   -0.4848   -0.1959    0.4138 C   0  0  1  0  0  0  0  0  0  0  0  0
    0.2783   -0.8411   -0.0248 H   0  0  0  0  0  0  0  0  0  0  0  0
   -0.6101    1.0666   -0.4611 C   0  0  0  0  0  0  0  0  0  0  0  0
   -1.5494    1.5649   -0.2122 H   0  0  0  0  0  0  0  0  0  0  0  0
    0.2097    1.7467   -0.2251 H   0  0  0  0  0  0  0  0  0  0  0  0
   -0.5991    0.7800   -1.9727 C   0  0  0  0  0  0  0  0  0  0  0  0
   -1.4407    0.1375   -2.2307 H   0  0  0  0  0  0  0  0  0  0  0  0
   -0.7017    1.7215   -2.5121 H   0  0  0  0  0  0  0  0  0  0  0  0
    0.6818    0.0924   -2.4451 C   0  0  0  0  0  0  0  0  0  0  0  0
    1.6278   -0.1350   -1.7144 O   0  0  0  0  0  0  0  0  0  0  0  0
    0.7645   -0.2803   -3.7039 N   0  0  0  0  0  0  0  0  0  0  0  0
    1.6275   -0.7279   -3.9596 H   0  0  0  0  0  0  0  0  0  0  0  0
    0.0153   -0.1201   -4.3463 H   0  0  0  0  0  0  0  0  0  0  0  0
   -0.0637    0.1284    1.8555 C   0  0  0  0  0  0  0  0  0  0  0  0
    1.0918   -0.0745    2.2236 O   0  0  0  0  0  0  0  0  0  0  0  0
   -1.0024    0.6217    2.6735 N   0  0  0  0  0  0  0  0  0  0  0  0
   -1.9213    0.7848    2.2938 H   0  0  0  0  0  0  0  0  0  0  0  0
   -0.7639    0.9676    4.0741 C   0  0  0  0  0  0  0  0  0  0  0  0
    0.0520    1.6916    4.1400 H   0  0  0  0  0  0  0  0  0  0  0  0
   -1.6626    1.3984    4.5182 H   0  0  0  0  0  0  0  0  0  0  0  0
   -0.4775    0.0737    4.6309 H   0  0  0  0  0  0  0  0  0  0  0  0
  5  6  2  0  0  0  0
  5  7  1  0  0  0  0
  2  3  1  0  0  0  0
  2  4  1  0  0  0  0
  2  5  1  0  0  0  0
  1  2  1  0  0  0  0
 22 23  2  0  0  0  0
 22 24  1  0  0  0  0
 19 20  1  0  0  0  0
 19 21  1  0  0  0  0
 17 18  2  0  0  0  0
 17 19  1  0  0  0  0
 14 15  1  0  0  0  0
 14 16  1  0  0  0  0
 14 17  1  0  0  0  0
 11 12  1  0  0  0  0
 11 13  1  0  0  0  0
 11 14  1  0  0  0  0
  9 10  1  0  0  0  0
  9 11  1  0  0  0  0
  9 22  1  0  0  0  0
  7  8  1  0  0  0  0
  7  9  1  0  0  0  0
 26 27  1  0  0  0  0
 26 28  1  0  0  0  0
 26 29  1  0  0  0  0
 24 25  1  0  0  0  0
 24 26  1  0  0  0  0
M  END
$$$$
default_name
  -OEChem-02102213163D

 29 28  0     1  0  0  0  0  0999 V2000
   -3.3998   -3.6239    1.3678 H   0  0  0  0  0  0  0  0  0  0  0  0
   -3.3608   -2.6749    0.8348 C   0  0  0  0  0  0  0  0  0  0  0  0
   -4.0988   -1.9909    1.2498 H   0  0  0  0  0  0  0  0  0  0  0  0
   -3.5618   -2.8419   -0.2222 H   0  0  0  0  0  0  0  0  0  0  0  0
   -1.9818   -2.0809    0.9918 C   0  0  0  0  0  0  0  0  0  0  0  0
   -1.1288   -2.6669    1.6468 O   0  0  0  0  0  0  0  0  0  0  0  0
   -1.7648   -0.9089    0.3998 N   0  0  0  0  0  0  0  0  0  0  0  0
   -2.5238   -0.4719   -0.1032 H   0  0  0  0  0  0  0  0  0  0  0  0
   -0.4848   -0.1959    0.4138 C   0  0  1  0  0  0  0  0  0  0  0  0
    0.2783   -0.8411   -0.0248 H   0  0  0  0  0  0  0  0  0  0  0  0
   -0.6101    1.0666   -0.4611 C   0  0  0  0  0  0  0  0  0  0  0  0
   -1.5494    1.5649   -0.2122 H   0  0  0  0  0  0  0  0  0  0  0  0
    0.2097    1.7467   -0.2251 H   0  0  0  0  0  0  0  0  0  0  0  0
   -0.5991    0.7800   -1.9727 C   0  0  0  0  0  0  0  0  0  0  0  0
   -1.5629    0.3716   -2.2760 H   0  0  0  0  0  0  0  0  0  0  0  0
   -0.4326    1.7143   -2.5088 H   0  0  0  0  0  0  0  0  0  0  0  0
    0.4863   -0.2128   -2.3887 C   0  0  0  0  0  0  0  0  0  0  0  0
    1.3068   -0.6701   -1.6152 O   0  0  0  0  0  0  0  0  0  0  0  0
    0.5324   -0.5998   -3.6450 N   0  0  0  0  0  0  0  0  0  0  0  0
    1.2646   -1.2533   -3.8626 H   0  0  0  0  0  0  0  0  0  0  0  0
   -0.1194   -0.2571   -4.3213 H   0  0  0  0  0  0  0  0  0  0  0  0
   -0.0637    0.1284    1.8555 C   0  0  0  0  0  0  0  0  0  0  0  0
    1.0918   -0.0745    2.2236 O   0  0  0  0  0  0  0  0  0  0  0  0
   -1.0024    0.6217    2.6735 N   0  0  0  0  0  0  0  0  0  0  0  0
   -1.9213    0.7848    2.2938 H   0  0  0  0  0  0  0  0  0  0  0  0
   -0.7639    0.9676    4.0741 C   0  0  0  0  0  0  0  0  0  0  0  0
    0.0520    1.6916    4.1400 H   0  0  0  0  0  0  0  0  0  0  0  0
   -1.6626    1.3984    4.5182 H   0  0  0  0  0  0  0  0  0  0  0  0
   -0.4775    0.0737    4.6309 H   0  0  0  0  0  0  0  0  0  0  0  0
  5  6  2  0  0  0  0
  5  7  1  0  0  0  0
  2  3  1  0  0  0  0
  2  4  1  0  0  0  0
  2  5  1  0  0  0  0
  1  2  1  0  0  0  0
 22 23  2  0  0  0  0
 22 24  1  0  0  0  0
 19 20  1  0  0  0  0
 19 21  1  0  0  0  0
 17 18  2  0  0  0  0
 17 19  1  0  0  0  0
 14 15  1  0  0  0  0
 14 16  1  0  0  0  0
 14 17  1  0  0  0  0
 11 12  1  0  0  0  0
 11 13  1  0  0  0  0
 11 14  1  0  0  0  0
  9 10  1  0  0  0  0
  9 11  1  0  0  0  0
  9 22  1  0  0  0  0
  7  8  1  0  0  0  0
  7  9  1  0  0  0  0
 26 27  1  0  0  0  0
 26 28  1  0  0  0  0
 26 29  1  0  0  0  0
 24 25  1  0  0  0  0
 24 26  1  0  0  0  0
M  END
$$$$
default_name
  -OEChem-02102213163D

 29 28  0     1  0  0  0  0  0999 V2000
   -3.3998   -3.6239    1.3678 H   0  0  0  0  0  0  0  0  0  0  0  0
   -3.3608   -2.6749    0.8348 C   0  0  0  0  0  0  0  0  0  0  0  0
   -4.0988   -1.9909    1.2498 H   0  0  0  0  0  0  0  0  0  0  0  0
   -3.5618   -2.8419   -0.2222 H   0  0  0  0  0  0  0  0  0  0  0  0
   -1.9818   -2.0809    0.9918 C   0  0  0  0  0  0  0  0  0  0  0  0
   -1.1288   -2.6669    1.6468 O   0  0  0  0  0  0  0  0  0  0  0  0
   -1.7648   -0.9089    0.3998 N   0  0  0  0  0  0  0  0  0  0  0  0
   -2.5238   -0.4719   -0.1032 H   0  0  0  0  0  0  0  0  0  0  0  0
   -0.4848   -0.1959    0.4138 C   0  0  1  0  0  0  0  0  0  0  0  0
    0.2783   -0.8411   -0.0248 H   0  0  0  0  0  0  0  0  0  0  0  0
   -0.6101    1.0666   -0.4611 C   0  0  0  0  0  0  0  0  0  0  0  0
   -1.5494    1.5649   -0.2122 H   0  0  0  0  0  0  0  0  0  0  0  0
    0.2097    1.7467   -0.2251 H   0  0  0  0  0  0  0  0  0  0  0  0
   -0.5991    0.7800   -1.9727 C   0  0  0  0  0  0  0  0  0  0  0  0
   -1.6192    0.6288   -2.3252 H   0  0  0  0  0  0  0  0  0  0  0  0
   -0.1748    1.6389   -2.4926 H   0  0  0  0  0  0  0  0  0  0  0  0
    0.2170   -0.4580   -2.3442 C   0  0  0  0  0  0  0  0  0  0  0  0
    0.8558   -1.1056   -1.5360 O   0  0  0  0  0  0  0  0  0  0  0  0
    0.2241   -0.8495   -3.5999 N   0  0  0  0  0  0  0  0  0  0  0  0
    0.7758   -1.6687   -3.7874 H   0  0  0  0  0  0  0  0  0  0  0  0
   -0.2856   -0.3553   -4.3039 H   0  0  0  0  0  0  0  0  0  0  0  0
   -0.0637    0.1284    1.8555 C   0  0  0  0  0  0  0  0  0  0  0  0
    1.0918   -0.0745    2.2236 O   0  0  0  0  0  0  0  0  0  0  0  0
   -1.0024    0.6217    2.6735 N   0  0  0  0  0  0  0  0  0  0  0  0
   -1.9213    0.7848    2.2938 H   0  0  0  0  0  0  0  0  0  0  0  0
   -0.7639    0.9676    4.0741 C   0  0  0  0  0  0  0  0  0  0  0  0
    0.0520    1.6916    4.1400 H   0  0  0  0  0  0  0  0  0  0  0  0
   -1.6626    1.3984    4.5182 H   0  0  0  0  0  0  0  0  0  0  0  0
   -0.4775    0.0737    4.6309 H   0  0  0  0  0  0  0  0  0  0  0  0
  5  6  2  0  0  0  0
  5  7  1  0  0  0  0
  2  3  1  0  0  0  0
  2  4  1  0  0  0  0
  2  5  1  0  0  0  0
  1  2  1  0  0  0  0
 22 23  2  0  0  0  0
 22 24  1  0  0  0  0
 19 20  1  0  0  0  0
 19 21  1  0  0  0  0
 17 18  2  0  0  0  0
 17 19  1  0  0  0  0
 14 15  1  0  0  0  0
 14 16  1  0  0  0  0
 14 17  1  0  0  0  0
 11 12  1  0  0  0  0
 11 13  1  0  0  0  0
 11 14  1  0  0  0  0
  9 10  1  0  0  0  0
  9 11  1  0  0  0  0
  9 22  1  0  0  0  0
  7  8  1  0  0  0  0
  7  9  1  0  0  0  0
 26 27  1  0  0  0  0
 26 28  1  0  0  0  0
 26 29  1  0  0  0  0
 24 25  1  0  0  0  0
 24 26  1  0  0  0  0
M  END
$$$$
default_name
  -OEChem-02102213163D

 29 28  0     1  0  0  0  0  0999 V2000
   -3.3998   -3.6239    1.3678 H   0  0  0  0  0  0  0  0  0  0  0  0
   -3.3608   -2.6749    0.8348 C   0  0  0  0  0  0  0  0  0  0  0  0
   -4.0988   -1.9909    1.2498 H   0  0  0  0  0  0  0  0  0  0  0  0
   -3.5618   -2.8419   -0.2222 H   0  0  0  0  0  0  0  0  0  0  0  0
   -1.9818   -2.0809    0.9918 C   0  0  0  0  0  0  0  0  0  0  0  0
   -1.1288   -2.6669    1.6468 O   0  0  0  0  0  0  0  0  0  0  0  0
   -1.7648   -0.9089    0.3998 N   0  0  0  0  0  0  0  0  0  0  0  0
   -2.5238   -0.4719   -0.1032 H   0  0  0  0  0  0  0  0  0  0  0  0
   -0.4848   -0.1959    0.4138 C   0  0  1  0  0  0  0  0  0  0  0  0
    0.2783   -0.8411   -0.0248 H   0  0  0  0  0  0  0  0  0  0  0  0
   -0.6101    1.0666   -0.4611 C   0  0  0  0  0  0  0  0  0  0  0  0
   -1.5494    1.5649   -0.2122 H   0  0  0  0  0  0  0  0  0  0  0  0
    0.2097    1.7467   -0.2251 H   0  0  0  0  0  0  0  0  0  0  0  0
   -0.5991    0.7800   -1.9727 C   0  0  0  0  0  0  0  0  0  0  0  0
   -1.6058    0.8916   -2.3749 H   0  0  0  0  0  0  0  0  0  0  0  0
    0.0543    1.5004   -2.4647 H   0  0  0  0  0  0  0  0  0  0  0  0
   -0.1075   -0.6265   -2.3146 C   0  0  0  0  0  0  0  0  0  0  0  0
    0.3057   -1.4117   -1.4819 O   0  0  0  0  0  0  0  0  0  0  0  0
   -0.1393   -1.0124   -3.5717 N   0  0  0  0  0  0  0  0  0  0  0  0
    0.1944   -1.9457   -3.7391 H   0  0  0  0  0  0  0  0  0  0  0  0
   -0.4719   -0.4079   -4.2953 H   0  0  0  0  0  0  0  0  0  0  0  0
   -0.0637    0.1284    1.8555 C   0  0  0  0  0  0  0  0  0  0  0  0
    1.0918   -0.0745    2.2236 O   0  0  0  0  0  0  0  0  0  0  0  0
   -1.0024    0.6217    2.6735 N   0  0  0  0  0  0  0  0  0  0  0  0
   -1.9213    0.7848    2.2938 H   0  0  0  0  0  0  0  0  0  0  0  0
   -0.7639    0.9676    4.0741 C   0  0  0  0  0  0  0  0  0  0  0  0
    0.0520    1.6916    4.1400 H   0  0  0  0  0  0  0  0  0  0  0  0
   -1.6626    1.3984    4.5182 H   0  0  0  0  0  0  0  0  0  0  0  0
   -0.4775    0.0737    4.6309 H   0  0  0  0  0  0  0  0  0  0  0  0
  5  6  2  0  0  0  0
  5  7  1  0  0  0  0
  2  3  1  0  0  0  0
  2  4  1  0  0  0  0
  2  5  1  0  0  0  0
  1  2  1  0  0  0  0
 22 23  2  0  0  0  0
 22 24  1  0  0  0  0
 19 20  1  0  0  0  0
 19 21  1  0  0  0  0
 17 18  2  0  0  0  0
 17 19  1  0  0  0  0
 14 15  1  0  0  0  0
 14 16  1  0  0  0  0
 14 17  1  0  0  0  0
 11 12  1  0  0  0  0
 11 13  1  0  0  0  0
 11 14  1  0  0  0  0
  9 10  1  0  0  0  0
  9 11  1  0  0  0  0
  9 22  1  0  0  0  0
  7  8  1  0  0  0  0
  7  9  1  0  0  0  0
 26 27  1  0  0  0  0
 26 28  1  0  0  0  0
 26 29  1  0  0  0  0
 24 25  1  0  0  0  0
 24 26  1  0  0  0  0
M  END
$$$$
default_name
  -OEChem-02102213163D

 29 28  0     1  0  0  0  0  0999 V2000
   -3.3998   -3.6239    1.3678 H   0  0  0  0  0  0  0  0  0  0  0  0
   -3.3608   -2.6749    0.8348 C   0  0  0  0  0  0  0  0  0  0  0  0
   -4.0988   -1.9909    1.2498 H   0  0  0  0  0  0  0  0  0  0  0  0
   -3.5618   -2.8419   -0.2222 H   0  0  0  0  0  0  0  0  0  0  0  0
   -1.9818   -2.0809    0.9918 C   0  0  0  0  0  0  0  0  0  0  0  0
   -1.1288   -2.6669    1.6468 O   0  0  0  0  0  0  0  0  0  0  0  0
   -1.7648   -0.9089    0.3998 N   0  0  0  0  0  0  0  0  0  0  0  0
   -2.5238   -0.4719   -0.1032 H   0  0  0  0  0  0  0  0  0  0  0  0
   -0.4848   -0.1959    0.4138 C   0  0  1  0  0  0  0  0  0  0  0  0
    0.2783   -0.8411   -0.0248 H   0  0  0  0  0  0  0  0  0  0  0  0
   -0.6101    1.0666   -0.4611 C   0  0  0  0  0  0  0  0  0  0  0  0
   -1.5494    1.5649   -0.2122 H   0  0  0  0  0  0  0  0  0  0  0  0
    0.2097    1.7467   -0.2251 H   0  0  0  0  0  0  0  0  0  0  0  0
   -0.5991    0.7800   -1.9727 C   0  0  0  0  0  0  0  0  0  0  0  0
   -1.5236    1.1422   -2.4219 H   0  0  0  0  0  0  0  0  0  0  0  0
    0.2391    1.3084   -2.4269 H   0  0  0  0  0  0  0  0  0  0  0  0
   -0.4653   -0.7068   -2.3020 C   0  0  0  0  0  0  0  0  0  0  0  0
   -0.3061   -1.5676   -1.4569 O   0  0  0  0  0  0  0  0  0  0  0  0
   -0.5332   -1.0774   -3.5622 N   0  0  0  0  0  0  0  0  0  0  0  0
   -0.4400   -2.0656   -3.7210 H   0  0  0  0  0  0  0  0  0  0  0  0
   -0.6657   -0.4113   -4.2961 H   0  0  0  0  0  0  0  0  0  0  0  0
   -0.0637    0.1284    1.8555 C   0  0  0  0  0  0  0  0  0  0  0  0
    1.0918   -0.0745    2.2236 O   0  0  0  0  0  0  0  0  0  0  0  0
   -1.0024    0.6217    2.6735 N   0  0  0  0  0  0  0  0  0  0  0  0
   -1.9213    0.7848    2.2938 H   0  0  0  0  0  0  0  0  0  0  0  0
   -0.7639    0.9676    4.0741 C   0  0  0  0  0  0  0  0  0  0  0  0
    0.0520    1.6916    4.1400 H   0  0  0  0  0  0  0  0  0  0  0  0
   -1.6626    1.3984    4.5182 H   0  0  0  0  0  0  0  0  0  0  0  0
   -0.4775    0.0737    4.6309 H   0  0  0  0  0  0  0  0  0  0  0  0
  5  6  2  0  0  0  0
  5  7  1  0  0  0  0
  2  3  1  0  0  0  0
  2  4  1  0  0  0  0
  2  5  1  0  0  0  0
  1  2  1  0  0  0  0
 22 23  2  0  0  0  0
 22 24  1  0  0  0  0
 19 20  1  0  0  0  0
 19 21  1  0  0  0  0
 17 18  2  0  0  0  0
 17 19  1  0  0  0  0
 14 15  1  0  0  0  0
 14 16  1  0  0  0  0
 14 17  1  0  0  0  0
 11 12  1  0  0  0  0
 11 13  1  0  0  0  0
 11 14  1  0  0  0  0
  9 10  1  0  0  0  0
  9 11  1  0  0  0  0
  9 22  1  0  0  0  0
  7  8  1  0  0  0  0
  7  9  1  0  0  0  0
 26 27  1  0  0  0  0
 26 28  1  0  0  0  0
 26 29  1  0  0  0  0
 24 25  1  0  0  0  0
 24 26  1  0  0  0  0
M  END
$$$$
default_name
  -OEChem-02102213163D

 29 28  0     1  0  0  0  0  0999 V2000
   -3.3998   -3.6239    1.3678 H   0  0  0  0  0  0  0  0  0  0  0  0
   -3.3608   -2.6749    0.8348 C   0  0  0  0  0  0  0  0  0  0  0  0
   -4.0988   -1.9909    1.2498 H   0  0  0  0  0  0  0  0  0  0  0  0
   -3.5618   -2.8419   -0.2222 H   0  0  0  0  0  0  0  0  0  0  0  0
   -1.9818   -2.0809    0.9918 C   0  0  0  0  0  0  0  0  0  0  0  0
   -1.1288   -2.6669    1.6468 O   0  0  0  0  0  0  0  0  0  0  0  0
   -1.7648   -0.9089    0.3998 N   0  0  0  0  0  0  0  0  0  0  0  0
   -2.5238   -0.4719   -0.1032 H   0  0  0  0  0  0  0  0  0  0  0  0
   -0.4848   -0.1959    0.4138 C   0  0  1  0  0  0  0  0  0  0  0  0
    0.2783   -0.8411   -0.0248 H   0  0  0  0  0  0  0  0  0  0  0  0
   -0.6101    1.0666   -0.4611 C   0  0  0  0  0  0  0  0  0  0  0  0
   -1.5494    1.5649   -0.2122 H   0  0  0  0  0  0  0  0  0  0  0  0
    0.2097    1.7467   -0.2251 H   0  0  0  0  0  0  0  0  0  0  0  0
   -0.5991    0.7800   -1.9727 C   0  0  0  0  0  0  0  0  0  0  0  0
   -1.3782    1.3635   -2.4627 H   0  0  0  0  0  0  0  0  0  0  0  0
    0.3669    1.0759   -2.3819 H   0  0  0  0  0  0  0  0  0  0  0  0
   -0.8319   -0.6933   -2.3072 C   0  0  0  0  0  0  0  0  0  0  0  0
   -0.9379   -1.5626   -1.4624 O   0  0  0  0  0  0  0  0  0  0  0  0
   -0.9306   -1.0400   -3.5722 N   0  0  0  0  0  0  0  0  0  0  0  0
   -1.0842   -2.0201   -3.7344 H   0  0  0  0  0  0  0  0  0  0  0  0
   -0.8537   -0.3654   -4.3062 H   0  0  0  0  0  0  0  0  0  0  0  0
   -0.0637    0.1284    1.8555 C   0  0  0  0  0  0  0  0  0  0  0  0
    1.0918   -0.0745    2.2236 O   0  0  0  0  0  0  0  0  0  0  0  0
   -1.0024    0.6217    2.6735 N   0  0  0  0  0  0  0  0  0  0  0  0
   -1.9213    0.7848    2.2938 H   0  0  0  0  0  0  0  0  0  0  0  0
   -0.7639    0.9676    4.0741 C   0  0  0  0  0  0  0  0  0  0  0  0
    0.0520    1.6916    4.1400 H   0  0  0  0  0  0  0  0  0  0  0  0
   -1.6626    1.3984    4.5182 H   0  0  0  0  0  0  0  0  0  0  0  0
   -0.4775    0.0737    4.6309 H   0  0  0  0  0  0  0  0  0  0  0  0
  5  6  2  0  0  0  0
  5  7  1  0  0  0  0
  2  3  1  0  0  0  0
  2  4  1  0  0  0  0
  2  5  1  0  0  0  0
  1  2  1  0  0  0  0
 22 23  2  0  0  0  0
 22 24  1  0  0  0  0
 19 20  1  0  0  0  0
 19 21  1  0  0  0  0
 17 18  2  0  0  0  0
 17 19  1  0  0  0  0
 14 15  1  0  0  0  0
 14 16  1  0  0  0  0
 14 17  1  0  0  0  0
 11 12  1  0  0  0  0
 11 13  1  0  0  0  0
 11 14  1  0  0  0  0
  9 10  1  0  0  0  0
  9 11  1  0  0  0  0
  9 22  1  0  0  0  0
  7  8  1  0  0  0  0
  7  9  1  0  0  0  0
 26 27  1  0  0  0  0
 26 28  1  0  0  0  0
 26 29  1  0  0  0  0
 24 25  1  0  0  0  0
 24 26  1  0  0  0  0
M  END
$$$$
default_name
  -OEChem-02102213163D

 29 28  0     1  0  0  0  0  0999 V2000
   -3.3998   -3.6239    1.3678 H   0  0  0  0  0  0  0  0  0  0  0  0
   -3.3608   -2.6749    0.8348 C   0  0  0  0  0  0  0  0  0  0  0  0
   -4.0988   -1.9909    1.2498 H   0  0  0  0  0  0  0  0  0  0  0  0
   -3.5618   -2.8419   -0.2222 H   0  0  0  0  0  0  0  0  0  0  0  0
   -1.9818   -2.0809    0.9918 C   0  0  0  0  0  0  0  0  0  0  0  0
   -1.1288   -2.6669    1.6468 O   0  0  0  0  0  0  0  0  0  0  0  0
   -1.7648   -0.9089    0.3998 N   0  0  0  0  0  0  0  0  0  0  0  0
   -2.5238   -0.4719   -0.1032 H   0  0  0  0  0  0  0  0  0  0  0  0
   -0.4848   -0.1959    0.4138 C   0  0  1  0  0  0  0  0  0  0  0  0
    0.2783   -0.8411   -0.0248 H   0  0  0  0  0  0  0  0  0  0  0  0
   -0.6101    1.0666   -0.4611 C   0  0  0  0  0  0  0  0  0  0  0  0
   -1.5494    1.5649   -0.2122 H   0  0  0  0  0  0  0  0  0  0  0  0
    0.2097    1.7467   -0.2251 H   0  0  0  0  0  0  0  0  0  0  0  0
   -0.5991    0.7800   -1.9727 C   0  0  0  0  0  0  0  0  0  0  0  0
   -1.1796    1.5403   -2.4948 H   0  0  0  0  0  0  0  0  0  0  0  0
    0.4290    0.8187   -2.3326 H   0  0  0  0  0  0  0  0  0  0  0  0
   -1.1823   -0.5871   -2.3299 C   0  0  0  0  0  0  0  0  0  0  0  0
   -1.5466   -1.3972   -1.4982 O   0  0  0  0  0  0  0  0  0  0  0  0
   -1.3045   -0.9028   -3.6010 N   0  0  0  0  0  0  0  0  0  0  0  0
   -1.6941   -1.8124   -3.7782 H   0  0  0  0  0  0  0  0  0  0  0  0
   -1.0231   -0.2732   -4.3249 H   0  0  0  0  0  0  0  0  0  0  0  0
   -0.0637    0.1284    1.8555 C   0  0  0  0  0  0  0  0  0  0  0  0
    1.0918   -0.0745    2.2236 O   0  0  0  0  0  0  0  0  0  0  0  0
   -1.0024    0.6217    2.6735 N   0  0  0  0  0  0  0  0  0  0  0  0
   -1.9213    0.7848    2.2938 H   0  0  0  0  0  0  0  0  0  0  0  0
   -0.7639    0.9676    4.0741 C   0  0  0  0  0  0  0  0  0  0  0  0
    0.0520    1.6916    4.1400 H   0  0  0  0  0  0  0  0  0  0  0  0
   -1.6626    1.3984    4.5182 H   0  0  0  0  0  0  0  0  0  0  0  0
   -0.4775    0.0737    4.6309 H   0  0  0  0  0  0  0  0  0  0  0  0
  5  6  2  0  0  0  0
  5  7  1  0  0  0  0
  2  3  1  0  0  0  0
  2  4  1  0  0  0  0
  2  5  1  0  0  0  0
  1  2  1  0  0  0  0
 22 23  2  0  0  0  0
 22 24  1  0  0  0  0
 19 20  1  0  0  0  0
 19 21  1  0  0  0  0
 17 18  2  0  0  0  0
 17 19  1  0  0  0  0
 14 15  1  0  0  0  0
 14 16  1  0  0  0  0
 14 17  1  0  0  0  0
 11 12  1  0  0  0  0
 11 13  1  0  0  0  0
 11 14  1  0  0  0  0
  9 10  1  0  0  0  0
  9 11  1  0  0  0  0
  9 22  1  0  0  0  0
  7  8  1  0  0  0  0
  7  9  1  0  0  0  0
 26 27  1  0  0  0  0
 26 28  1  0  0  0  0
 26 29  1  0  0  0  0
 24 25  1  0  0  0  0
 24 26  1  0  0  0  0
M  END
$$$$
default_name
  -OEChem-02102213163D

 29 28  0     1  0  0  0  0  0999 V2000
   -3.3998   -3.6239    1.3678 H   0  0  0  0  0  0  0  0  0  0  0  0
   -3.3608   -2.6749    0.8348 C   0  0  0  0  0  0  0  0  0  0  0  0
   -4.0988   -1.9909    1.2498 H   0  0  0  0  0  0  0  0  0  0  0  0
   -3.5618   -2.8419   -0.2222 H   0  0  0  0  0  0  0  0  0  0  0  0
   -1.9818   -2.0809    0.9918 C   0  0  0  0  0  0  0  0  0  0  0  0
   -1.1288   -2.6669    1.6468 O   0  0  0  0  0  0  0  0  0  0  0  0
   -1.7648   -0.9089    0.3998 N   0  0  0  0  0  0  0  0  0  0  0  0
   -2.5238   -0.4719   -0.1032 H   0  0  0  0  0  0  0  0  0  0  0  0
   -0.4848   -0.1959    0.4138 C   0  0  1  0  0  0  0  0  0  0  0  0
    0.2783   -0.8411   -0.0248 H   0  0  0  0  0  0  0  0  0  0  0  0
   -0.6101    1.0666   -0.4611 C   0  0  0  0  0  0  0  0  0  0  0  0
   -1.5494    1.5649   -0.2122 H   0  0  0  0  0  0  0  0  0  0  0  0
    0.2097    1.7467   -0.2251 H   0  0  0  0  0  0  0  0  0  0  0  0
   -0.5991    0.7800   -1.9727 C   0  0  0  0  0  0  0  0  0  0  0  0
   -0.9412    1.6606   -2.5159 H   0  0  0  0  0  0  0  0  0  0  0  0
    0.4213    0.5544   -2.2826 H   0  0  0  0  0  0  0  0  0  0  0  0
   -1.4927   -0.3954   -2.3685 C   0  0  0  0  0  0  0  0  0  0  0  0
   -2.0908   -1.0825   -1.5619 O   0  0  0  0  0  0  0  0  0  0  0  0
   -1.6294   -0.6752   -3.6465 N   0  0  0  0  0  0  0  0  0  0  0  0
   -2.2284   -1.4565   -3.8496 H   0  0  0  0  0  0  0  0  0  0  0  0
   -1.1624   -0.1410   -4.3510 H   0  0  0  0  0  0  0  0  0  0  0  0
   -0.0637    0.1284    1.8555 C   0  0  0  0  0  0  0  0  0  0  0  0
    1.0918   -0.0745    2.2236 O   0  0  0  0  0  0  0  0  0  0  0  0
   -1.0024    0.6217    2.6735 N   0  0  0  0  0  0  0  0  0  0  0  0
   -1.9213    0.7848    2.2938 H   0  0  0  0  0  0  0  0  0  0  0  0
   -0.7639    0.9676    4.0741 C   0  0  0  0  0  0  0  0  0  0  0  0
    0.0520    1.6916    4.1400 H   0  0  0  0  0  0  0  0  0  0  0  0
   -1.6626    1.3984    4.5182 H   0  0  0  0  0  0  0  0  0  0  0  0
   -0.4775    0.0737    4.6309 H   0  0  0  0  0  0  0  0  0  0  0  0
  5  6  2  0  0  0  0
  5  7  1  0  0  0  0
  2  3  1  0  0  0  0
  2  4  1  0  0  0  0
  2  5  1  0  0  0  0
  1  2  1  0  0  0  0
 22 23  2  0  0  0  0
 22 24  1  0  0  0  0
 19 20  1  0  0  0  0
 19 21  1  0  0  0  0
 17 18  2  0  0  0  0
 17 19  1  0  0  0  0
 14 15  1  0  0  0  0
 14 16  1  0  0  0  0
 14 17  1  0  0  0  0
 11 12  1  0  0  0  0
 11 13  1  0  0  0  0
 11 14  1  0  0  0  0
  9 10  1  0  0  0  0
  9 11  1  0  0  0  0
  9 22  1  0  0  0  0
  7  8  1  0  0  0  0
  7  9  1  0  0  0  0
 26 27  1  0  0  0  0
 26 28  1  0  0  0  0
 26 29  1  0  0  0  0
 24 25  1  0  0  0  0
 24 26  1  0  0  0  0
M  END
$$$$
default_name
  -OEChem-02102213163D

 29 28  0     1  0  0  0  0  0999 V2000
   -3.3998   -3.6239    1.3678 H   0  0  0  0  0  0  0  0  0  0  0  0
   -3.3608   -2.6749    0.8348 C   0  0  0  0  0  0  0  0  0  0  0  0
   -4.0988   -1.9909    1.2498 H   0  0  0  0  0  0  0  0  0  0  0  0
   -3.5618   -2.8419   -0.2222 H   0  0  0  0  0  0  0  0  0  0  0  0
   -1.9818   -2.0809    0.9918 C   0  0  0  0  0  0  0  0  0  0  0  0
   -1.1288   -2.6669    1.6468 O   0  0  0  0  0  0  0  0  0  0  0  0
   -1.7648   -0.9089    0.3998 N   0  0  0  0  0  0  0  0  0  0  0  0
   -2.5238   -0.4719   -0.1032 H   0  0  0  0  0  0  0  0  0  0  0  0
   -0.4848   -0.1959    0.4138 C   0  0  1  0  0  0  0  0  0  0  0  0
    0.2783   -0.8411   -0.0248 H   0  0  0  0  0  0  0  0  0  0  0  0
   -0.6101    1.0666   -0.4611 C   0  0  0  0  0  0  0  0  0  0  0  0
   -1.5494    1.5649   -0.2122 H   0  0  0  0  0  0  0  0  0  0  0  0
    0.2097    1.7467   -0.2251 H   0  0  0  0  0  0  0  0  0  0  0  0
   -0.5991    0.7800   -1.9727 C   0  0  0  0  0  0  0  0  0  0  0  0
   -0.6793    1.7163   -2.5245 H   0  0  0  0  0  0  0  0  0  0  0  0
    0.3442    0.3009   -2.2351 H   0  0  0  0  0  0  0  0  0  0  0  0
   -1.7419   -0.1312   -2.4205 C   0  0  0  0  0  0  0  0  0  0  0  0
   -2.5334   -0.6401   -1.6490 O   0  0  0  0  0  0  0  0  0  0  0  0
   -1.8831   -0.3727   -3.7057 N   0  0  0  0  0  0  0  0  0  0  0  0
   -2.6505   -0.9768   -3.9437 H   0  0  0  0  0  0  0  0  0  0  0  0
   -1.2621    0.0222   -4.3827 H   0  0  0  0  0  0  0  0  0  0  0  0
   -0.0637    0.1284    1.8555 C   0  0  0  0  0  0  0  0  0  0  0  0
    1.0918   -0.0745    2.2236 O   0  0  0  0  0  0  0  0  0  0  0  0
   -1.0024    0.6217    2.6735 N   0  0  0  0  0  0  0  0  0  0  0  0
   -1.9213    0.7848    2.2938 H   0  0  0  0  0  0  0  0  0  0  0  0
   -0.7639    0.9676    4.0741 C   0  0  0  0  0  0  0  0  0  0  0  0
    0.0520    1.6916    4.1400 H   0  0  0  0  0  0  0  0  0  0  0  0
   -1.6626    1.3984    4.5182 H   0  0  0  0  0  0  0  0  0  0  0  0
   -0.4775    0.0737    4.6309 H   0  0  0  0  0  0  0  0  0  0  0  0
  5  6  2  0  0  0  0
  5  7  1  0  0  0  0
  2  3  1  0  0  0  0
  2  4  1  0  0  0  0
  2  5  1  0  0  0  0
  1  2  1  0  0  0  0
 22 23  2  0  0  0  0
 22 24  1  0  0  0  0
 19 20  1  0  0  0  0
 19 21  1  0  0  0  0
 17 18  2  0  0  0  0
 17 19  1  0  0  0  0
 14 15  1  0  0  0  0
 14 16  1  0  0  0  0
 14 17  1  0  0  0  0
 11 12  1  0  0  0  0
 11 13  1  0  0  0  0
 11 14  1  0  0  0  0
  9 10  1  0  0  0  0
  9 11  1  0  0  0  0
  9 22  1  0  0  0  0
  7  8  1  0  0  0  0
  7  9  1  0  0  0  0
 26 27  1  0  0  0  0
 26 28  1  0  0  0  0
 26 29  1  0  0  0  0
 24 25  1  0  0  0  0
 24 26  1  0  0  0  0
M  END
$$$$
default_name
  -OEChem-02102213163D

 29 28  0     1  0  0  0  0  0999 V2000
   -3.3998   -3.6239    1.3678 H   0  0  0  0  0  0  0  0  0  0  0  0
   -3.3608   -2.6749    0.8348 C   0  0  0  0  0  0  0  0  0  0  0  0
   -4.0988   -1.9909    1.2498 H   0  0  0  0  0  0  0  0  0  0  0  0
   -3.5618   -2.8419   -0.2222 H   0  0  0  0  0  0  0  0  0  0  0  0
   -1.9818   -2.0809    0.9918 C   0  0  0  0  0  0  0  0  0  0  0  0
   -1.1288   -2.6669    1.6468 O   0  0  0  0  0  0  0  0  0  0  0  0
   -1.7648   -0.9089    0.3998 N   0  0  0  0  0  0  0  0  0  0  0  0
   -2.5238   -0.4719   -0.1032 H   0  0  0  0  0  0  0  0  0  0  0  0
   -0.4848   -0.1959    0.4138 C   0  0  1  0  0  0  0  0  0  0  0  0
    0.2783   -0.8411   -0.0248 H   0  0  0  0  0  0  0  0  0  0  0  0
   -0.6101    1.0666   -0.4611 C   0  0  0  0  0  0  0  0  0  0  0  0
   -1.5494    1.5649   -0.2122 H   0  0  0  0  0  0  0  0  0  0  0  0
    0.2097    1.7467   -0.2251 H   0  0  0  0  0  0  0  0  0  0  0  0
   -0.5991    0.7800   -1.9727 C   0  0  0  0  0  0  0  0  0  0  0  0
   -0.4118    1.7035   -2.5202 H   0  0  0  0  0  0  0  0  0  0  0  0
    0.2029    0.0756   -2.1934 H   0  0  0  0  0  0  0  0  0  0  0  0
   -1.9129    0.1874   -2.4821 C   0  0  0  0  0  0  0  0  0  0  0  0
   -2.8442   -0.1000   -1.7537 O   0  0  0  0  0  0  0  0  0  0  0  0
   -2.0484   -0.0158   -3.7746 N   0  0  0  0  0  0  0  0  0  0  0  0
   -2.9317   -0.4059   -4.0540 H   0  0  0  0  0  0  0  0  0  0  0  0
   -1.3154    0.2052   -4.4178 H   0  0  0  0  0  0  0  0  0  0  0  0
   -0.0637    0.1284    1.8555 C   0  0  0  0  0  0  0  0  0  0  0  0
    1.0918   -0.0745    2.2236 O   0  0  0  0  0  0  0  0  0  0  0  0
   -1.0024    0.6217    2.6735 N   0  0  0  0  0  0  0  0  0  0  0  0
   -1.9213    0.7848    2.2938 H   0  0  0  0  0  0  0  0  0  0  0  0
   -0.7639    0.9676    4.0741 C   0  0  0  0  0  0  0  0  0  0  0  0
    0.0520    1.6916    4.1400 H   0  0  0  0  0  0  0  0  0  0  0  0
   -1.6626    1.3984    4.5182 H   0  0  0  0  0  0  0  0  0  0  0  0
   -0.4775    0.0737    4.6309 H   0  0  0  0  0  0  0  0  0  0  0  0
  5  6  2  0  0  0  0
  5  7  1  0  0  0  0
  2  3  1  0  0  0  0
  2  4  1  0  0  0  0
  2  5  1  0  0  0  0
  1  2  1  0  0  0  0
 22 23  2  0  0  0  0
 22 24  1  0  0  0  0
 19 20  1  0  0  0  0
 19 21  1  0  0  0  0
 17 18  2  0  0  0  0
 17 19  1  0  0  0  0
 14 15  1  0  0  0  0
 14 16  1  0  0  0  0
 14 17  1  0  0  0  0
 11 12  1  0  0  0  0
 11 13  1  0  0  0  0
 11 14  1  0  0  0  0
  9 10  1  0  0  0  0
  9 11  1  0  0  0  0
  9 22  1  0  0  0  0
  7  8  1  0  0  0  0
  7  9  1  0  0  0  0
 26 27  1  0  0  0  0
 26 28  1  0  0  0  0
 26 29  1  0  0  0  0
 24 25  1  0  0  0  0
 24 26  1  0  0  0  0
M  END
$$$$
default_name
  -OEChem-02102213163D

 29 28  0     1  0  0  0  0  0999 V2000
   -3.3998   -3.6239    1.3678 H   0  0  0  0  0  0  0  0  0  0  0  0
   -3.3608   -2.6749    0.8348 C   0  0  0  0  0  0  0  0  0  0  0  0
   -4.0988   -1.9909    1.2498 H   0  0  0  0  0  0  0  0  0  0  0  0
   -3.5618   -2.8419   -0.2222 H   0  0  0  0  0  0  0  0  0  0  0  0
   -1.9818   -2.0809    0.9918 C   0  0  0  0  0  0  0  0  0  0  0  0
   -1.1288   -2.6669    1.6468 O   0  0  0  0  0  0  0  0  0  0  0  0
   -1.7648   -0.9089    0.3998 N   0  0  0  0  0  0  0  0  0  0  0  0
   -2.5238   -0.4719   -0.1032 H   0  0  0  0  0  0  0  0  0  0  0  0
   -0.4848   -0.1959    0.4138 C   0  0  1  0  0  0  0  0  0  0  0  0
    0.2783   -0.8411   -0.0248 H   0  0  0  0  0  0  0  0  0  0  0  0
   -0.6101    1.0666   -0.4611 C   0  0  0  0  0  0  0  0  0  0  0  0
   -1.5494    1.5649   -0.2122 H   0  0  0  0  0  0  0  0  0  0  0  0
    0.2097    1.7467   -0.2251 H   0  0  0  0  0  0  0  0  0  0  0  0
   -0.5991    0.7800   -1.9727 C   0  0  0  0  0  0  0  0  0  0  0  0
   -0.1569    1.6231   -2.5030 H   0  0  0  0  0  0  0  0  0  0  0  0
    0.0073   -0.1061   -2.1603 H   0  0  0  0  0  0  0  0  0  0  0  0
   -1.9941    0.5388   -2.5494 C   0  0  0  0  0  0  0  0  0  0  0  0
   -3.0021    0.5009   -1.8688 O   0  0  0  0  0  0  0  0  0  0  0  0
   -2.1140    0.3711   -3.8485 N   0  0  0  0  0  0  0  0  0  0  0  0
   -3.0529    0.2172   -4.1730 H   0  0  0  0  0  0  0  0  0  0  0  0
   -1.3186    0.3955   -4.4539 H   0  0  0  0  0  0  0  0  0  0  0  0
   -0.0637    0.1284    1.8555 C   0  0  0  0  0  0  0  0  0  0  0  0
    1.0918   -0.0745    2.2236 O   0  0  0  0  0  0  0  0  0  0  0  0
   -1.0024    0.6217    2.6735 N   0  0  0  0  0  0  0  0  0  0  0  0
   -1.9213    0.7848    2.2938 H   0  0  0  0  0  0  0  0  0  0  0  0
   -0.7639    0.9676    4.0741 C   0  0  0  0  0  0  0  0  0  0  0  0
    0.0520    1.6916    4.1400 H   0  0  0  0  0  0  0  0  0  0  0  0
   -1.6626    1.3984    4.5182 H   0  0  0  0  0  0  0  0  0  0  0  0
   -0.4775    0.0737    4.6309 H   0  0  0  0  0  0  0  0  0  0  0  0
  5  6  2  0  0  0  0
  5  7  1  0  0  0  0
  2  3  1  0  0  0  0
  2  4  1  0  0  0  0
  2  5  1  0  0  0  0
  1  2  1  0  0  0  0
 22 23  2  0  0  0  0
 22 24  1  0  0  0  0
 19 20  1  0  0  0  0
 19 21  1  0  0  0  0
 17 18  2  0  0  0  0
 17 19  1  0  0  0  0
 14 15  1  0  0  0  0
 14 16  1  0  0  0  0
 14 17  1  0  0  0  0
 11 12  1  0  0  0  0
 11 13  1  0  0  0  0
 11 14  1  0  0  0  0
  9 10  1  0  0  0  0
  9 11  1  0  0  0  0
  9 22  1  0  0  0  0
  7  8  1  0  0  0  0
  7  9  1  0  0  0  0
 26 27  1  0  0  0  0
 26 28  1  0  0  0  0
 26 29  1  0  0  0  0
 24 25  1  0  0  0  0
 24 26  1  0  0  0  0
M  END
$$$$
default_name
  -OEChem-02102213163D

 29 28  0     1  0  0  0  0  0999 V2000
   -3.3998   -3.6239    1.3678 H   0  0  0  0  0  0  0  0  0  0  0  0
   -3.3608   -2.6749    0.8348 C   0  0  0  0  0  0  0  0  0  0  0  0
   -4.0988   -1.9909    1.2498 H   0  0  0  0  0  0  0  0  0  0  0  0
   -3.5618   -2.8419   -0.2222 H   0  0  0  0  0  0  0  0  0  0  0  0
   -1.9818   -2.0809    0.9918 C   0  0  0  0  0  0  0  0  0  0  0  0
   -1.1288   -2.6669    1.6468 O   0  0  0  0  0  0  0  0  0  0  0  0
   -1.7648   -0.9089    0.3998 N   0  0  0  0  0  0  0  0  0  0  0  0
   -2.5238   -0.4719   -0.1032 H   0  0  0  0  0  0  0  0  0  0  0  0
   -0.4848   -0.1959    0.4138 C   0  0  1  0  0  0  0  0  0  0  0  0
    0.2783   -0.8411   -0.0248 H   0  0  0  0  0  0  0  0  0  0  0  0
   -0.6101    1.0666   -0.4611 C   0  0  0  0  0  0  0  0  0  0  0  0
   -1.5494    1.5649   -0.2122 H   0  0  0  0  0  0  0  0  0  0  0  0
    0.2097    1.7467   -0.2251 H   0  0  0  0  0  0  0  0  0  0  0  0
   -0.5991    0.7800   -1.9727 C   0  0  0  0  0  0  0  0  0  0  0  0
    0.0681    1.4806   -2.4744 H   0  0  0  0  0  0  0  0  0  0  0  0
   -0.2296   -0.2320   -2.1382 H   0  0  0  0  0  0  0  0  0  0  0  0
   -1.9799    0.8990   -2.6176 C   0  0  0  0  0  0  0  0  0  0  0  0
   -2.9962    1.1217   -1.9865 O   0  0  0  0  0  0  0  0  0  0  0  0
   -2.0754    0.7616   -3.9223 N   0  0  0  0  0  0  0  0  0  0  0  0
   -3.0057    0.8502   -4.2927 H   0  0  0  0  0  0  0  0  0  0  0  0
   -1.2716    0.5803   -4.4886 H   0  0  0  0  0  0  0  0  0  0  0  0
   -0.0637    0.1284    1.8555 C   0  0  0  0  0  0  0  0  0  0  0  0
    1.0918   -0.0745    2.2236 O   0  0  0  0  0  0  0  0  0  0  0  0
   -1.0024    0.6217    2.6735 N   0  0  0  0  0  0  0  0  0  0  0  0
   -1.9213    0.7848    2.2938 H   0  0  0  0  0  0  0  0  0  0  0  0
   -0.7639    0.9676    4.0741 C   0  0  0  0  0  0  0  0  0  0  0  0
    0.0520    1.6916    4.1400 H   0  0  0  0  0  0  0  0  0  0  0  0
   -1.6626    1.3984    4.5182 H   0  0  0  0  0  0  0  0  0  0  0  0
   -0.4775    0.0737    4.6309 H   0  0  0  0  0  0  0  0  0  0  0  0
  5  6  2  0  0  0  0
  5  7  1  0  0  0  0
  2  3  1  0  0  0  0
  2  4  1  0  0  0  0
  2  5  1  0  0  0  0
  1  2  1  0  0  0  0
 22 23  2  0  0  0  0
 22 24  1  0  0  0  0
 19 20  1  0  0  0  0
 19 21  1  0  0  0  0
 17 18  2  0  0  0  0
 17 19  1  0  0  0  0
 14 15  1  0  0  0  0
 14 16  1  0  0  0  0
 14 17  1  0  0  0  0
 11 12  1  0  0  0  0
 11 13  1  0  0  0  0
 11 14  1  0  0  0  0
  9 10  1  0  0  0  0
  9 11  1  0  0  0  0
  9 22  1  0  0  0  0
  7  8  1  0  0  0  0
  7  9  1  0  0  0  0
 26 27  1  0  0  0  0
 26 28  1  0  0  0  0
 26 29  1  0  0  0  0
 24 25  1  0  0  0  0
 24 26  1  0  0  0  0
M  END
$$$$
default_name
  -OEChem-02102213163D

 29 28  0     1  0  0  0  0  0999 V2000
   -3.3998   -3.6239    1.3678 H   0  0  0  0  0  0  0  0  0  0  0  0
   -3.3608   -2.6749    0.8348 C   0  0  0  0  0  0  0  0  0  0  0  0
   -4.0988   -1.9909    1.2498 H   0  0  0  0  0  0  0  0  0  0  0  0
   -3.5618   -2.8419   -0.2222 H   0  0  0  0  0  0  0  0  0  0  0  0
   -1.9818   -2.0809    0.9918 C   0  0  0  0  0  0  0  0  0  0  0  0
   -1.1288   -2.6669    1.6468 O   0  0  0  0  0  0  0  0  0  0  0  0
   -1.7648   -0.9089    0.3998 N   0  0  0  0  0  0  0  0  0  0  0  0
   -2.5238   -0.4719   -0.1032 H   0  0  0  0  0  0  0  0  0  0  0  0
   -0.4848   -0.1959    0.4138 C   0  0  1  0  0  0  0  0  0  0  0  0
    0.2783   -0.8411   -0.0248 H   0  0  0  0  0  0  0  0  0  0  0  0
   -0.6101    1.0666   -0.4611 C   0  0  0  0  0  0  0  0  0  0  0  0
   -1.5494    1.5649   -0.2122 H   0  0  0  0  0  0  0  0  0  0  0  0
    0.2097    1.7467   -0.2251 H   0  0  0  0  0  0  0  0  0  0  0  0
   -0.5991    0.7800   -1.9727 C   0  0  0  0  0  0  0  0  0  0  0  0
    0.2478    1.2856   -2.4361 H   0  0  0  0  0  0  0  0  0  0  0  0
   -0.4914   -0.2934   -2.1285 H   0  0  0  0  0  0  0  0  0  0  0  0
   -1.8714    1.2434   -2.6821 C   0  0  0  0  0  0  0  0  0  0  0  0
   -2.8269    1.7200   -2.0987 O   0  0  0  0  0  0  0  0  0  0  0  0
   -1.9353    1.1292   -3.9909 N   0  0  0  0  0  0  0  0  0  0  0  0
   -2.7934    1.4498   -4.4049 H   0  0  0  0  0  0  0  0  0  0  0  0
   -1.1775    0.7469   -4.5195 H   0  0  0  0  0  0  0  0  0  0  0  0
   -0.0637    0.1284    1.8555 C   0  0  0  0  0  0  0  0  0  0  0  0
    1.0918   -0.0745    2.2236 O   0  0  0  0  0  0  0  0  0  0  0  0
   -1.0024    0.6217    2.6735 N   0  0  0  0  0  0  0  0  0  0  0  0
   -1.9213    0.7848    2.2938 H   0  0  0  0  0  0  0  0  0  0  0  0
   -0.7639    0.9676    4.0741 C   0  0  0  0  0  0  0  0  0  0  0  0
    0.0520    1.6916    4.1400 H   0  0  0  0  0  0  0  0  0  0  0  0
   -1.6626    1.3984    4.5182 H   0  0  0  0  0  0  0  0  0  0  0  0
   -0.4775    0.0737    4.6309 H   0  0  0  0  0  0  0  0  0  0  0  0
  5  6  2  0  0  0  0
  5  7  1  0  0  0  0
  2  3  1  0  0  0  0
  2  4  1  0  0  0  0
  2  5  1  0  0  0  0
  1  2  1  0  0  0  0
 22 23  2  0  0  0  0
 22 24  1  0  0  0  0
 19 20  1  0  0  0  0
 19 21  1  0  0  0  0
 17 18  2  0  0  0  0
 17 19  1  0  0  0  0
 14 15  1  0  0  0  0
 14 16  1  0  0  0  0
 14 17  1  0  0  0  0
 11 12  1  0  0  0  0
 11 13  1  0  0  0  0
 11 14  1  0  0  0  0
  9 10  1  0  0  0  0
  9 11  1  0  0  0  0
  9 22  1  0  0  0  0
  7  8  1  0  0  0  0
  7  9  1  0  0  0  0
 26 27  1  0  0  0  0
 26 28  1  0  0  0  0
 26 29  1  0  0  0  0
 24 25  1  0  0  0  0
 24 26  1  0  0  0  0
M  END
$$$$
default_name
  -OEChem-02102213163D

 29 28  0     1  0  0  0  0  0999 V2000
   -3.3998   -3.6239    1.3678 H   0  0  0  0  0  0  0  0  0  0  0  0
   -3.3608   -2.6749    0.8348 C   0  0  0  0  0  0  0  0  0  0  0  0
   -4.0988   -1.9909    1.2498 H   0  0  0  0  0  0  0  0  0  0  0  0
   -3.5618   -2.8419   -0.2222 H   0  0  0  0  0  0  0  0  0  0  0  0
   -1.9818   -2.0809    0.9918 C   0  0  0  0  0  0  0  0  0  0  0  0
   -1.1288   -2.6669    1.6468 O   0  0  0  0  0  0  0  0  0  0  0  0
   -1.7648   -0.9089    0.3998 N   0  0  0  0  0  0  0  0  0  0  0  0
   -2.5238   -0.4719   -0.1032 H   0  0  0  0  0  0  0  0  0  0  0  0
   -0.4848   -0.1959    0.4138 C   0  0  1  0  0  0  0  0  0  0  0  0
    0.2783   -0.8411   -0.0248 H   0  0  0  0  0  0  0  0  0  0  0  0
   -0.6101    1.0666   -0.4611 C   0  0  0  0  0  0  0  0  0  0  0  0
   -1.5494    1.5649   -0.2122 H   0  0  0  0  0  0  0  0  0  0  0  0
    0.2097    1.7467   -0.2251 H   0  0  0  0  0  0  0  0  0  0  0  0
   -0.5991    0.7800   -1.9727 C   0  0  0  0  0  0  0  0  0  0  0  0
    0.3700    1.0516   -2.3908 H   0  0  0  0  0  0  0  0  0  0  0  0
   -0.7605   -0.2862   -2.1318 H   0  0  0  0  0  0  0  0  0  0  0  0
   -1.6758    1.5487   -2.7385 C   0  0  0  0  0  0  0  0  0  0  0  0
   -2.5059    2.2551   -2.1979 O   0  0  0  0  0  0  0  0  0  0  0  0
   -1.7032    1.4487   -4.0498 N   0  0  0  0  0  0  0  0  0  0  0  0
   -2.4305    1.9752   -4.5019 H   0  0  0  0  0  0  0  0  0  0  0  0
   -1.0428    0.8840   -4.5445 H   0  0  0  0  0  0  0  0  0  0  0  0
   -0.0637    0.1284    1.8555 C   0  0  0  0  0  0  0  0  0  0  0  0
    1.0918   -0.0745    2.2236 O   0  0  0  0  0  0  0  0  0  0  0  0
   -1.0024    0.6217    2.6735 N   0  0  0  0  0  0  0  0  0  0  0  0
   -1.9213    0.7848    2.2938 H   0  0  0  0  0  0  0  0  0  0  0  0
   -0.7639    0.9676    4.0741 C   0  0  0  0  0  0  0  0  0  0  0  0
    0.0520    1.6916    4.1400 H   0  0  0  0  0  0  0  0  0  0  0  0
   -1.6626    1.3984    4.5182 H   0  0  0  0  0  0  0  0  0  0  0  0
   -0.4775    0.0737    4.6309 H   0  0  0  0  0  0  0  0  0  0  0  0
  5  6  2  0  0  0  0
  5  7  1  0  0  0  0
  2  3  1  0  0  0  0
  2  4  1  0  0  0  0
  2  5  1  0  0  0  0
  1  2  1  0  0  0  0
 22 23  2  0  0  0  0
 22 24  1  0  0  0  0
 19 20  1  0  0  0  0
 19 21  1  0  0  0  0
 17 18  2  0  0  0  0
 17 19  1  0  0  0  0
 14 15  1  0  0  0  0
 14 16  1  0  0  0  0
 14 17  1  0  0  0  0
 11 12  1  0  0  0  0
 11 13  1  0  0  0  0
 11 14  1  0  0  0  0
  9 10  1  0  0  0  0
  9 11  1  0  0  0  0
  9 22  1  0  0  0  0
  7  8  1  0  0  0  0
  7  9  1  0  0  0  0
 26 27  1  0  0  0  0
 26 28  1  0  0  0  0
 26 29  1  0  0  0  0
 24 25  1  0  0  0  0
 24 26  1  0  0  0  0
M  END
$$$$
default_name
  -OEChem-02102213163D

 29 28  0     1  0  0  0  0  0999 V2000
   -3.3998   -3.6239    1.3678 H   0  0  0  0  0  0  0  0  0  0  0  0
   -3.3608   -2.6749    0.8348 C   0  0  0  0  0  0  0  0  0  0  0  0
   -4.0988   -1.9909    1.2498 H   0  0  0  0  0  0  0  0  0  0  0  0
   -3.5618   -2.8419   -0.2222 H   0  0  0  0  0  0  0  0  0  0  0  0
   -1.9818   -2.0809    0.9918 C   0  0  0  0  0  0  0  0  0  0  0  0
   -1.1288   -2.6669    1.6468 O   0  0  0  0  0  0  0  0  0  0  0  0
   -1.7648   -0.9089    0.3998 N   0  0  0  0  0  0  0  0  0  0  0  0
   -2.5238   -0.4719   -0.1032 H   0  0  0  0  0  0  0  0  0  0  0  0
   -0.4848   -0.1959    0.4138 C   0  0  1  0  0  0  0  0  0  0  0  0
    0.2783   -0.8411   -0.0248 H   0  0  0  0  0  0  0  0  0  0  0  0
   -0.6101    1.0666   -0.4611 C   0  0  0  0  0  0  0  0  0  0  0  0
   -1.5494    1.5649   -0.2122 H   0  0  0  0  0  0  0  0  0  0  0  0
    0.2097    1.7467   -0.2251 H   0  0  0  0  0  0  0  0  0  0  0  0
   -0.5991    0.7800   -1.9727 C   0  0  0  0  0  0  0  0  0  0  0  0
    0.4263    0.7943   -2.3416 H   0  0  0  0  0  0  0  0  0  0  0  0
   -1.0183   -0.2108   -2.1480 H   0  0  0  0  0  0  0  0  0  0  0  0
   -1.4066    1.7939   -2.7831 C   0  0  0  0  0  0  0  0  0  0  0  0
   -2.0550    2.6906   -2.2772 O   0  0  0  0  0  0  0  0  0  0  0  0
   -1.3949    1.6984   -4.0949 N   0  0  0  0  0  0  0  0  0  0  0  0
   -1.9417    2.3906   -4.5771 H   0  0  0  0  0  0  0  0  0  0  0  0
   -0.8766    0.9821   -4.5619 H   0  0  0  0  0  0  0  0  0  0  0  0
   -0.0637    0.1284    1.8555 C   0  0  0  0  0  0  0  0  0  0  0  0
    1.0918   -0.0745    2.2236 O   0  0  0  0  0  0  0  0  0  0  0  0
   -1.0024    0.6217    2.6735 N   0  0  0  0  0  0  0  0  0  0  0  0
   -1.9213    0.7848    2.2938 H   0  0  0  0  0  0  0  0  0  0  0  0
   -0.7639    0.9676    4.0741 C   0  0  0  0  0  0  0  0  0  0  0  0
    0.0520    1.6916    4.1400 H   0  0  0  0  0  0  0  0  0  0  0  0
   -1.6626    1.3984    4.5182 H   0  0  0  0  0  0  0  0  0  0  0  0
   -0.4775    0.0737    4.6309 H   0  0  0  0  0  0  0  0  0  0  0  0
  5  6  2  0  0  0  0
  5  7  1  0  0  0  0
  2  3  1  0  0  0  0
  2  4  1  0  0  0  0
  2  5  1  0  0  0  0
  1  2  1  0  0  0  0
 22 23  2  0  0  0  0
 22 24  1  0  0  0  0
 19 20  1  0  0  0  0
 19 21  1  0  0  0  0
 17 18  2  0  0  0  0
 17 19  1  0  0  0  0
 14 15  1  0  0  0  0
 14 16  1  0  0  0  0
 14 17  1  0  0  0  0
 11 12  1  0  0  0  0
 11 13  1  0  0  0  0
 11 14  1  0  0  0  0
  9 10  1  0  0  0  0
  9 11  1  0  0  0  0
  9 22  1  0  0  0  0
  7  8  1  0  0  0  0
  7  9  1  0  0  0  0
 26 27  1  0  0  0  0
 26 28  1  0  0  0  0
 26 29  1  0  0  0  0
 24 25  1  0  0  0  0
 24 26  1  0  0  0  0
M  END
$$$$
default_name
  -OEChem-02102213163D

 29 28  0     1  0  0  0  0  0999 V2000
   -3.3998   -3.6239    1.3678 H   0  0  0  0  0  0  0  0  0  0  0  0
   -3.3608   -2.6749    0.8348 C   0  0  0  0  0  0  0  0  0  0  0  0
   -4.0988   -1.9909    1.2498 H   0  0  0  0  0  0  0  0  0  0  0  0
   -3.5618   -2.8419   -0.2222 H   0  0  0  0  0  0  0  0  0  0  0  0
   -1.9818   -2.0809    0.9918 C   0  0  0  0  0  0  0  0  0  0  0  0
   -1.1288   -2.6669    1.6468 O   0  0  0  0  0  0  0  0  0  0  0  0
   -1.7648   -0.9089    0.3998 N   0  0  0  0  0  0  0  0  0  0  0  0
   -2.5238   -0.4719   -0.1032 H   0  0  0  0  0  0  0  0  0  0  0  0
   -0.4848   -0.1959    0.4138 C   0  0  1  0  0  0  0  0  0  0  0  0
    0.2783   -0.8411   -0.0248 H   0  0  0  0  0  0  0  0  0  0  0  0
   -0.6101    1.0666   -0.4611 C   0  0  0  0  0  0  0  0  0  0  0  0
   -1.5494    1.5649   -0.2122 H   0  0  0  0  0  0  0  0  0  0  0  0
    0.2097    1.7467   -0.2251 H   0  0  0  0  0  0  0  0  0  0  0  0
   -0.5991    0.7800   -1.9727 C   0  0  0  0  0  0  0  0  0  0  0  0
    0.4129    0.5315   -2.2919 H   0  0  0  0  0  0  0  0  0  0  0  0
   -1.2474   -0.0723   -2.1759 H   0  0  0  0  0  0  0  0  0  0  0  0
   -1.0820    1.9623   -2.8126 C   0  0  0  0  0  0  0  0  0  0  0  0
   -1.5049    2.9967   -2.3312 O   0  0  0  0  0  0  0  0  0  0  0  0
   -1.0314    1.8613   -4.1232 N   0  0  0  0  0  0  0  0  0  0  0  0
   -1.3602    2.6676   -4.6254 H   0  0  0  0  0  0  0  0  0  0  0  0
   -0.6903    1.0347   -4.5705 H   0  0  0  0  0  0  0  0  0  0  0  0
   -0.0637    0.1284    1.8555 C   0  0  0  0  0  0  0  0  0  0  0  0
    1.0918   -0.0745    2.2236 O   0  0  0  0  0  0  0  0  0  0  0  0
   -1.0024    0.6217    2.6735 N   0  0  0  0  0  0  0  0  0  0  0  0
   -1.9213    0.7848    2.2938 H   0  0  0  0  0  0  0  0  0  0  0  0
   -0.7639    0.9676    4.0741 C   0  0  0  0  0  0  0  0  0  0  0  0
    0.0520    1.6916    4.1400 H   0  0  0  0  0  0  0  0  0  0  0  0
   -1.6626    1.3984    4.5182 H   0  0  0  0  0  0  0  0  0  0  0  0
   -0.4775    0.0737    4.6309 H   0  0  0  0  0  0  0  0  0  0  0  0
  5  6  2  0  0  0  0
  5  7  1  0  0  0  0
  2  3  1  0  0  0  0
  2  4  1  0  0  0  0
  2  5  1  0  0  0  0
  1  2  1  0  0  0  0
 22 23  2  0  0  0  0
 22 24  1  0  0  0  0
 19 20  1  0  0  0  0
 19 21  1  0  0  0  0
 17 18  2  0  0  0  0
 17 19  1  0  0  0  0
 14 15  1  0  0  0  0
 14 16  1  0  0  0  0
 14 17  1  0  0  0  0
 11 12  1  0  0  0  0
 11 13  1  0  0  0  0
 11 14  1  0  0  0  0
  9 10  1  0  0  0  0
  9 11  1  0  0  0  0
  9 22  1  0  0  0  0
  7  8  1  0  0  0  0
  7  9  1  0  0  0  0
 26 27  1  0  0  0  0
 26 28  1  0  0  0  0
 26 29  1  0  0  0  0
 24 25  1  0  0  0  0
 24 26  1  0  0  0  0
M  END
$$$$
default_name
  -OEChem-02102213163D

 29 28  0     1  0  0  0  0  0999 V2000
   -3.3998   -3.6239    1.3678 H   0  0  0  0  0  0  0  0  0  0  0  0
   -3.3608   -2.6749    0.8348 C   0  0  0  0  0  0  0  0  0  0  0  0
   -4.0988   -1.9909    1.2498 H   0  0  0  0  0  0  0  0  0  0  0  0
   -3.5618   -2.8419   -0.2222 H   0  0  0  0  0  0  0  0  0  0  0  0
   -1.9818   -2.0809    0.9918 C   0  0  0  0  0  0  0  0  0  0  0  0
   -1.1288   -2.6669    1.6468 O   0  0  0  0  0  0  0  0  0  0  0  0
   -1.7648   -0.9089    0.3998 N   0  0  0  0  0  0  0  0  0  0  0  0
   -2.5238   -0.4719   -0.1032 H   0  0  0  0  0  0  0  0  0  0  0  0
   -0.4848   -0.1959    0.4138 C   0  0  1  0  0  0  0  0  0  0  0  0
    0.2783   -0.8411   -0.0248 H   0  0  0  0  0  0  0  0  0  0  0  0
   -0.6101    1.0666   -0.4611 C   0  0  0  0  0  0  0  0  0  0  0  0
   -1.3924    1.7008   -0.0387 H   0  0  0  0  0  0  0  0  0  0  0  0
    0.3308    1.6179   -0.4282 H   0  0  0  0  0  0  0  0  0  0  0  0
   -0.9638    0.7736   -1.9296 C   0  0  0  0  0  0  0  0  0  0  0  0
   -0.1959    0.1400   -2.3728 H   0  0  0  0  0  0  0  0  0  0  0  0
   -1.9157    0.2438   -1.9653 H   0  0  0  0  0  0  0  0  0  0  0  0
   -1.0842    2.0363   -2.7827 C   0  0  0  0  0  0  0  0  0  0  0  0
   -0.9866    3.1615   -2.3299 O   0  0  0  0  0  0  0  0  0  0  0  0
   -1.2966    1.9016   -4.0738 N   0  0  0  0  0  0  0  0  0  0  0  0
   -1.3663    2.7637   -4.5860 H   0  0  0  0  0  0  0  0  0  0  0  0
   -1.3821    1.0001   -4.4977 H   0  0  0  0  0  0  0  0  0  0  0  0
   -0.0637    0.1284    1.8555 C   0  0  0  0  0  0  0  0  0  0  0  0
    1.0918   -0.0745    2.2236 O   0  0  0  0  0  0  0  0  0  0  0  0
   -1.0024    0.6217    2.6735 N   0  0  0  0  0  0  0  0  0  0  0  0
   -1.9213    0.7848    2.2938 H   0  0  0  0  0  0  0  0  0  0  0  0
   -0.7639    0.9676    4.0741 C   0  0  0  0  0  0  0  0  0  0  0  0
    0.0520    1.6916    4.1400 H   0  0  0  0  0  0  0  0  0  0  0  0
   -1.6626    1.3984    4.5182 H   0  0  0  0  0  0  0  0  0  0  0  0
   -0.4775    0.0737    4.6309 H   0  0  0  0  0  0  0  0  0  0  0  0
  5  6  2  0  0  0  0
  5  7  1  0  0  0  0
  2  3  1  0  0  0  0
  2  4  1  0  0  0  0
  2  5  1  0  0  0  0
  1  2  1  0  0  0  0
 22 23  2  0  0  0  0
 22 24  1  0  0  0  0
 19 20  1  0  0  0  0
 19 21  1  0  0  0  0
 17 18  2  0  0  0  0
 17 19  1  0  0  0  0
 14 15  1  0  0  0  0
 14 16  1  0  0  0  0
 14 17  1  0  0  0  0
 11 12  1  0  0  0  0
 11 13  1  0  0  0  0
 11 14  1  0  0  0  0
  9 10  1  0  0  0  0
  9 11  1  0  0  0  0
  9 22  1  0  0  0  0
  7  8  1  0  0  0  0
  7  9  1  0  0  0  0
 26 27  1  0  0  0  0
 26 28  1  0  0  0  0
 26 29  1  0  0  0  0
 24 25  1  0  0  0  0
 24 26  1  0  0  0  0
M  END
$$$$
default_name
  -OEChem-02102213163D

 29 28  0     1  0  0  0  0  0999 V2000
   -3.3998   -3.6239    1.3678 H   0  0  0  0  0  0  0  0  0  0  0  0
   -3.3608   -2.6749    0.8348 C   0  0  0  0  0  0  0  0  0  0  0  0
   -4.0988   -1.9909    1.2498 H   0  0  0  0  0  0  0  0  0  0  0  0
   -3.5618   -2.8419   -0.2222 H   0  0  0  0  0  0  0  0  0  0  0  0
   -1.9818   -2.0809    0.9918 C   0  0  0  0  0  0  0  0  0  0  0  0
   -1.1288   -2.6669    1.6468 O   0  0  0  0  0  0  0  0  0  0  0  0
   -1.7648   -0.9089    0.3998 N   0  0  0  0  0  0  0  0  0  0  0  0
   -2.5238   -0.4719   -0.1032 H   0  0  0  0  0  0  0  0  0  0  0  0
   -0.4848   -0.1959    0.4138 C   0  0  1  0  0  0  0  0  0  0  0  0
    0.2783   -0.8411   -0.0248 H   0  0  0  0  0  0  0  0  0  0  0  0
   -0.6101    1.0666   -0.4611 C   0  0  0  0  0  0  0  0  0  0  0  0
   -1.3924    1.7008   -0.0387 H   0  0  0  0  0  0  0  0  0  0  0  0
    0.3308    1.6179   -0.4282 H   0  0  0  0  0  0  0  0  0  0  0  0
   -0.9638    0.7736   -1.9296 C   0  0  0  0  0  0  0  0  0  0  0  0
   -0.3596   -0.0568   -2.2940 H   0  0  0  0  0  0  0  0  0  0  0  0
   -2.0151    0.4926   -1.9910 H   0  0  0  0  0  0  0  0  0  0  0  0
   -0.7309    1.9684   -2.8542 C   0  0  0  0  0  0  0  0  0  0  0  0
   -0.3757    3.0624   -2.4573 O   0  0  0  0  0  0  0  0  0  0  0  0
   -0.9159    1.8054   -4.1463 N   0  0  0  0  0  0  0  0  0  0  0  0
   -0.7477    2.6227   -4.7069 H   0  0  0  0  0  0  0  0  0  0  0  0
   -1.2049    0.9267   -4.5257 H   0  0  0  0  0  0  0  0  0  0  0  0
   -0.0637    0.1284    1.8555 C   0  0  0  0  0  0  0  0  0  0  0  0
    1.0918   -0.0745    2.2236 O   0  0  0  0  0  0  0  0  0  0  0  0
   -1.0024    0.6217    2.6735 N   0  0  0  0  0  0  0  0  0  0  0  0
   -1.9213    0.7848    2.2938 H   0  0  0  0  0  0  0  0  0  0  0  0
   -0.7639    0.9676    4.0741 C   0  0  0  0  0  0  0  0  0  0  0  0
    0.0520    1.6916    4.1400 H   0  0  0  0  0  0  0  0  0  0  0  0
   -1.6626    1.3984    4.5182 H   0  0  0  0  0  0  0  0  0  0  0  0
   -0.4775    0.0737    4.6309 H   0  0  0  0  0  0  0  0  0  0  0  0
  5  6  2  0  0  0  0
  5  7  1  0  0  0  0
  2  3  1  0  0  0  0
  2  4  1  0  0  0  0
  2  5  1  0  0  0  0
  1  2  1  0  0  0  0
 22 23  2  0  0  0  0
 22 24  1  0  0  0  0
 19 20  1  0  0  0  0
 19 21  1  0  0  0  0
 17 18  2  0  0  0  0
 17 19  1  0  0  0  0
 14 15  1  0  0  0  0
 14 16  1  0  0  0  0
 14 17  1  0  0  0  0
 11 12  1  0  0  0  0
 11 13  1  0  0  0  0
 11 14  1  0  0  0  0
  9 10  1  0  0  0  0
  9 11  1  0  0  0  0
  9 22  1  0  0  0  0
  7  8  1  0  0  0  0
  7  9  1  0  0  0  0
 26 27  1  0  0  0  0
 26 28  1  0  0  0  0
 26 29  1  0  0  0  0
 24 25  1  0  0  0  0
 24 26  1  0  0  0  0
M  END
$$$$
default_name
  -OEChem-02102213163D

 29 28  0     1  0  0  0  0  0999 V2000
   -3.3998   -3.6239    1.3678 H   0  0  0  0  0  0  0  0  0  0  0  0
   -3.3608   -2.6749    0.8348 C   0  0  0  0  0  0  0  0  0  0  0  0
   -4.0988   -1.9909    1.2498 H   0  0  0  0  0  0  0  0  0  0  0  0
   -3.5618   -2.8419   -0.2222 H   0  0  0  0  0  0  0  0  0  0  0  0
   -1.9818   -2.0809    0.9918 C   0  0  0  0  0  0  0  0  0  0  0  0
   -1.1288   -2.6669    1.6468 O   0  0  0  0  0  0  0  0  0  0  0  0
   -1.7648   -0.9089    0.3998 N   0  0  0  0  0  0  0  0  0  0  0  0
   -2.5238   -0.4719   -0.1032 H   0  0  0  0  0  0  0  0  0  0  0  0
   -0.4848   -0.1959    0.4138 C   0  0  1  0  0  0  0  0  0  0  0  0
    0.2783   -0.8411   -0.0248 H   0  0  0  0  0  0  0  0  0  0  0  0
   -0.6101    1.0666   -0.4611 C   0  0  0  0  0  0  0  0  0  0  0  0
   -1.3924    1.7008   -0.0387 H   0  0  0  0  0  0  0  0  0  0  0  0
    0.3308    1.6179   -0.4282 H   0  0  0  0  0  0  0  0  0  0  0  0
   -0.9638    0.7736   -1.9296 C   0  0  0  0  0  0  0  0  0  0  0  0
   -0.5702   -0.2019   -2.2144 H   0  0  0  0  0  0  0  0  0  0  0  0
   -2.0485    0.7559   -2.0355 H   0  0  0  0  0  0  0  0  0  0  0  0
   -0.4028    1.8112   -2.9019 C   0  0  0  0  0  0  0  0  0  0  0  0
    0.1962    2.8082   -2.5443 O   0  0  0  0  0  0  0  0  0  0  0  0
   -0.5683    1.6141   -4.1918 N   0  0  0  0  0  0  0  0  0  0  0  0
   -0.1791    2.3265   -4.7847 H   0  0  0  0  0  0  0  0  0  0  0  0
   -1.0506    0.8103   -4.5397 H   0  0  0  0  0  0  0  0  0  0  0  0
   -0.0637    0.1284    1.8555 C   0  0  0  0  0  0  0  0  0  0  0  0
    1.0918   -0.0745    2.2236 O   0  0  0  0  0  0  0  0  0  0  0  0
   -1.0024    0.6217    2.6735 N   0  0  0  0  0  0  0  0  0  0  0  0
   -1.9213    0.7848    2.2938 H   0  0  0  0  0  0  0  0  0  0  0  0
   -0.7639    0.9676    4.0741 C   0  0  0  0  0  0  0  0  0  0  0  0
    0.0520    1.6916    4.1400 H   0  0  0  0  0  0  0  0  0  0  0  0
   -1.6626    1.3984    4.5182 H   0  0  0  0  0  0  0  0  0  0  0  0
   -0.4775    0.0737    4.6309 H   0  0  0  0  0  0  0  0  0  0  0  0
  5  6  2  0  0  0  0
  5  7  1  0  0  0  0
  2  3  1  0  0  0  0
  2  4  1  0  0  0  0
  2  5  1  0  0  0  0
  1  2  1  0  0  0  0
 22 23  2  0  0  0  0
 22 24  1  0  0  0  0
 19 20  1  0  0  0  0
 19 21  1  0  0  0  0
 17 18  2  0  0  0  0
 17 19  1  0  0  0  0
 14 15  1  0  0  0  0
 14 16  1  0  0  0  0
 14 17  1  0  0  0  0
 11 12  1  0  0  0  0
 11 13  1  0  0  0  0
 11 14  1  0  0  0  0
  9 10  1  0  0  0  0
  9 11  1  0  0  0  0
  9 22  1  0  0  0  0
  7  8  1  0  0  0  0
  7  9  1  0  0  0  0
 26 27  1  0  0  0  0
 26 28  1  0  0  0  0
 26 29  1  0  0  0  0
 24 25  1  0  0  0  0
 24 26  1  0  0  0  0
M  END
$$$$
default_name
  -OEChem-02102213163D

 29 28  0     1  0  0  0  0  0999 V2000
   -3.3998   -3.6239    1.3678 H   0  0  0  0  0  0  0  0  0  0  0  0
   -3.3608   -2.6749    0.8348 C   0  0  0  0  0  0  0  0  0  0  0  0
   -4.0988   -1.9909    1.2498 H   0  0  0  0  0  0  0  0  0  0  0  0
   -3.5618   -2.8419   -0.2222 H   0  0  0  0  0  0  0  0  0  0  0  0
   -1.9818   -2.0809    0.9918 C   0  0  0  0  0  0  0  0  0  0  0  0
   -1.1288   -2.6669    1.6468 O   0  0  0  0  0  0  0  0  0  0  0  0
   -1.7648   -0.9089    0.3998 N   0  0  0  0  0  0  0  0  0  0  0  0
   -2.5238   -0.4719   -0.1032 H   0  0  0  0  0  0  0  0  0  0  0  0
   -0.4848   -0.1959    0.4138 C   0  0  1  0  0  0  0  0  0  0  0  0
    0.2783   -0.8411   -0.0248 H   0  0  0  0  0  0  0  0  0  0  0  0
   -0.6101    1.0666   -0.4611 C   0  0  0  0  0  0  0  0  0  0  0  0
   -1.3924    1.7008   -0.0387 H   0  0  0  0  0  0  0  0  0  0  0  0
    0.3308    1.6179   -0.4282 H   0  0  0  0  0  0  0  0  0  0  0  0
   -0.9638    0.7736   -1.9296 C   0  0  0  0  0  0  0  0  0  0  0  0
   -0.8134   -0.2852   -2.1392 H   0  0  0  0  0  0  0  0  0  0  0  0
   -2.0135    1.0158   -2.0958 H   0  0  0  0  0  0  0  0  0  0  0  0
   -0.1224    1.5755   -2.9224 C   0  0  0  0  0  0  0  0  0  0  0  0
    0.6901    2.4162   -2.5850 O   0  0  0  0  0  0  0  0  0  0  0  0
   -0.2776    1.3408   -4.2073 N   0  0  0  0  0  0  0  0  0  0  0  0
    0.3008    1.8953   -4.8143 H   0  0  0  0  0  0  0  0  0  0  0  0
   -0.9295    0.6590   -4.5387 H   0  0  0  0  0  0  0  0  0  0  0  0
   -0.0637    0.1284    1.8555 C   0  0  0  0  0  0  0  0  0  0  0  0
    1.0918   -0.0745    2.2236 O   0  0  0  0  0  0  0  0  0  0  0  0
   -1.0024    0.6217    2.6735 N   0  0  0  0  0  0  0  0  0  0  0  0
   -1.9213    0.7848    2.2938 H   0  0  0  0  0  0  0  0  0  0  0  0
   -0.7639    0.9676    4.0741 C   0  0  0  0  0  0  0  0  0  0  0  0
    0.0520    1.6916    4.1400 H   0  0  0  0  0  0  0  0  0  0  0  0
   -1.6626    1.3984    4.5182 H   0  0  0  0  0  0  0  0  0  0  0  0
   -0.4775    0.0737    4.6309 H   0  0  0  0  0  0  0  0  0  0  0  0
  5  6  2  0  0  0  0
  5  7  1  0  0  0  0
  2  3  1  0  0  0  0
  2  4  1  0  0  0  0
  2  5  1  0  0  0  0
  1  2  1  0  0  0  0
 22 23  2  0  0  0  0
 22 24  1  0  0  0  0
 19 20  1  0  0  0  0
 19 21  1  0  0  0  0
 17 18  2  0  0  0  0
 17 19  1  0  0  0  0
 14 15  1  0  0  0  0
 14 16  1  0  0  0  0
 14 17  1  0  0  0  0
 11 12  1  0  0  0  0
 11 13  1  0  0  0  0
 11 14  1  0  0  0  0
  9 10  1  0  0  0  0
  9 11  1  0  0  0  0
  9 22  1  0  0  0  0
  7  8  1  0  0  0  0
  7  9  1  0  0  0  0
 26 27  1  0  0  0  0
 26 28  1  0  0  0  0
 26 29  1  0  0  0  0
 24 25  1  0  0  0  0
 24 26  1  0  0  0  0
M  END
$$$$
default_name
  -OEChem-02102213163D

 29 28  0     1  0  0  0  0  0999 V2000
   -3.3998   -3.6239    1.3678 H   0  0  0  0  0  0  0  0  0  0  0  0
   -3.3608   -2.6749    0.8348 C   0  0  0  0  0  0  0  0  0  0  0  0
   -4.0988   -1.9909    1.2498 H   0  0  0  0  0  0  0  0  0  0  0  0
   -3.5618   -2.8419   -0.2222 H   0  0  0  0  0  0  0  0  0  0  0  0
   -1.9818   -2.0809    0.9918 C   0  0  0  0  0  0  0  0  0  0  0  0
   -1.1288   -2.6669    1.6468 O   0  0  0  0  0  0  0  0  0  0  0  0
   -1.7648   -0.9089    0.3998 N   0  0  0  0  0  0  0  0  0  0  0  0
   -2.5238   -0.4719   -0.1032 H   0  0  0  0  0  0  0  0  0  0  0  0
   -0.4848   -0.1959    0.4138 C   0  0  1  0  0  0  0  0  0  0  0  0
    0.2783   -0.8411   -0.0248 H   0  0  0  0  0  0  0  0  0  0  0  0
   -0.6101    1.0666   -0.4611 C   0  0  0  0  0  0  0  0  0  0  0  0
   -1.3924    1.7008   -0.0387 H   0  0  0  0  0  0  0  0  0  0  0  0
    0.3308    1.6179   -0.4282 H   0  0  0  0  0  0  0  0  0  0  0  0
   -0.9638    0.7736   -1.9296 C   0  0  0  0  0  0  0  0  0  0  0  0
   -1.0727   -0.3011   -2.0736 H   0  0  0  0  0  0  0  0  0  0  0  0
   -1.9125    1.2547   -2.1677 H   0  0  0  0  0  0  0  0  0  0  0  0
    0.0912    1.2774   -2.9143 C   0  0  0  0  0  0  0  0  0  0  0  0
    1.0723    1.9131   -2.5767 O   0  0  0  0  0  0  0  0  0  0  0  0
   -0.0636    1.0041   -4.1917 N   0  0  0  0  0  0  0  0  0  0  0  0
    0.6594    1.3584   -4.7935 H   0  0  0  0  0  0  0  0  0  0  0  0
   -0.8501    0.4829   -4.5227 H   0  0  0  0  0  0  0  0  0  0  0  0
   -0.0637    0.1284    1.8555 C   0  0  0  0  0  0  0  0  0  0  0  0
    1.0918   -0.0745    2.2236 O   0  0  0  0  0  0  0  0  0  0  0  0
   -1.0024    0.6217    2.6735 N   0  0  0  0  0  0  0  0  0  0  0  0
   -1.9213    0.7848    2.2938 H   0  0  0  0  0  0  0  0  0  0  0  0
   -0.7639    0.9676    4.0741 C   0  0  0  0  0  0  0  0  0  0  0  0
    0.0520    1.6916    4.1400 H   0  0  0  0  0  0  0  0  0  0  0  0
   -1.6626    1.3984    4.5182 H   0  0  0  0  0  0  0  0  0  0  0  0
   -0.4775    0.0737    4.6309 H   0  0  0  0  0  0  0  0  0  0  0  0
  5  6  2  0  0  0  0
  5  7  1  0  0  0  0
  2  3  1  0  0  0  0
  2  4  1  0  0  0  0
  2  5  1  0  0  0  0
  1  2  1  0  0  0  0
 22 23  2  0  0  0  0
 22 24  1  0  0  0  0
 19 20  1  0  0  0  0
 19 21  1  0  0  0  0
 17 18  2  0  0  0  0
 17 19  1  0  0  0  0
 14 15  1  0  0  0  0
 14 16  1  0  0  0  0
 14 17  1  0  0  0  0
 11 12  1  0  0  0  0
 11 13  1  0  0  0  0
 11 14  1  0  0  0  0
  9 10  1  0  0  0  0
  9 11  1  0  0  0  0
  9 22  1  0  0  0  0
  7  8  1  0  0  0  0
  7  9  1  0  0  0  0
 26 27  1  0  0  0  0
 26 28  1  0  0  0  0
 26 29  1  0  0  0  0
 24 25  1  0  0  0  0
 24 26  1  0  0  0  0
M  END
$$$$
default_name
  -OEChem-02102213163D

 29 28  0     1  0  0  0  0  0999 V2000
   -3.3998   -3.6239    1.3678 H   0  0  0  0  0  0  0  0  0  0  0  0
   -3.3608   -2.6749    0.8348 C   0  0  0  0  0  0  0  0  0  0  0  0
   -4.0988   -1.9909    1.2498 H   0  0  0  0  0  0  0  0  0  0  0  0
   -3.5618   -2.8419   -0.2222 H   0  0  0  0  0  0  0  0  0  0  0  0
   -1.9818   -2.0809    0.9918 C   0  0  0  0  0  0  0  0  0  0  0  0
   -1.1288   -2.6669    1.6468 O   0  0  0  0  0  0  0  0  0  0  0  0
   -1.7648   -0.9089    0.3998 N   0  0  0  0  0  0  0  0  0  0  0  0
   -2.5238   -0.4719   -0.1032 H   0  0  0  0  0  0  0  0  0  0  0  0
   -0.4848   -0.1959    0.4138 C   0  0  1  0  0  0  0  0  0  0  0  0
    0.2783   -0.8411   -0.0248 H   0  0  0  0  0  0  0  0  0  0  0  0
   -0.6101    1.0666   -0.4611 C   0  0  0  0  0  0  0  0  0  0  0  0
   -1.3924    1.7008   -0.0387 H   0  0  0  0  0  0  0  0  0  0  0  0
    0.3308    1.6179   -0.4282 H   0  0  0  0  0  0  0  0  0  0  0  0
   -0.9638    0.7736   -1.9296 C   0  0  0  0  0  0  0  0  0  0  0  0
   -1.3302   -0.2485   -2.0220 H   0  0  0  0  0  0  0  0  0  0  0  0
   -1.7523    1.4562   -2.2465 H   0  0  0  0  0  0  0  0  0  0  0  0
    0.2235    0.9371   -2.8783 C   0  0  0  0  0  0  0  0  0  0  0  0
    1.3168    1.3333   -2.5199 O   0  0  0  0  0  0  0  0  0  0  0  0
    0.0592    0.6269   -4.1460 N   0  0  0  0  0  0  0  0  0  0  0  0
    0.8720    0.7526   -4.7239 H   0  0  0  0  0  0  0  0  0  0  0  0
   -0.8176    0.2942   -4.4929 H   0  0  0  0  0  0  0  0  0  0  0  0
   -0.0637    0.1284    1.8555 C   0  0  0  0  0  0  0  0  0  0  0  0
    1.0918   -0.0745    2.2236 O   0  0  0  0  0  0  0  0  0  0  0  0
   -1.0024    0.6217    2.6735 N   0  0  0  0  0  0  0  0  0  0  0  0
   -1.9213    0.7848    2.2938 H   0  0  0  0  0  0  0  0  0  0  0  0
   -0.7639    0.9676    4.0741 C   0  0  0  0  0  0  0  0  0  0  0  0
    0.0520    1.6916    4.1400 H   0  0  0  0  0  0  0  0  0  0  0  0
   -1.6626    1.3984    4.5182 H   0  0  0  0  0  0  0  0  0  0  0  0
   -0.4775    0.0737    4.6309 H   0  0  0  0  0  0  0  0  0  0  0  0
  5  6  2  0  0  0  0
  5  7  1  0  0  0  0
  2  3  1  0  0  0  0
  2  4  1  0  0  0  0
  2  5  1  0  0  0  0
  1  2  1  0  0  0  0
 22 23  2  0  0  0  0
 22 24  1  0  0  0  0
 19 20  1  0  0  0  0
 19 21  1  0  0  0  0
 17 18  2  0  0  0  0
 17 19  1  0  0  0  0
 14 15  1  0  0  0  0
 14 16  1  0  0  0  0
 14 17  1  0  0  0  0
 11 12  1  0  0  0  0
 11 13  1  0  0  0  0
 11 14  1  0  0  0  0
  9 10  1  0  0  0  0
  9 11  1  0  0  0  0
  9 22  1  0  0  0  0
  7  8  1  0  0  0  0
  7  9  1  0  0  0  0
 26 27  1  0  0  0  0
 26 28  1  0  0  0  0
 26 29  1  0  0  0  0
 24 25  1  0  0  0  0
 24 26  1  0  0  0  0
M  END
$$$$
default_name
  -OEChem-02102213163D

 29 28  0     1  0  0  0  0  0999 V2000
   -3.3998   -3.6239    1.3678 H   0  0  0  0  0  0  0  0  0  0  0  0
   -3.3608   -2.6749    0.8348 C   0  0  0  0  0  0  0  0  0  0  0  0
   -4.0988   -1.9909    1.2498 H   0  0  0  0  0  0  0  0  0  0  0  0
   -3.5618   -2.8419   -0.2222 H   0  0  0  0  0  0  0  0  0  0  0  0
   -1.9818   -2.0809    0.9918 C   0  0  0  0  0  0  0  0  0  0  0  0
   -1.1288   -2.6669    1.6468 O   0  0  0  0  0  0  0  0  0  0  0  0
   -1.7648   -0.9089    0.3998 N   0  0  0  0  0  0  0  0  0  0  0  0
   -2.5238   -0.4719   -0.1032 H   0  0  0  0  0  0  0  0  0  0  0  0
   -0.4848   -0.1959    0.4138 C   0  0  1  0  0  0  0  0  0  0  0  0
    0.2783   -0.8411   -0.0248 H   0  0  0  0  0  0  0  0  0  0  0  0
   -0.6101    1.0666   -0.4611 C   0  0  0  0  0  0  0  0  0  0  0  0
   -1.3924    1.7008   -0.0387 H   0  0  0  0  0  0  0  0  0  0  0  0
    0.3308    1.6179   -0.4282 H   0  0  0  0  0  0  0  0  0  0  0  0
   -0.9638    0.7736   -1.9296 C   0  0  0  0  0  0  0  0  0  0  0  0
   -1.5686   -0.1311   -1.9881 H   0  0  0  0  0  0  0  0  0  0  0  0
   -1.5440    1.6065   -2.3267 H   0  0  0  0  0  0  0  0  0  0  0  0
    0.2655    0.5779   -2.8168 C   0  0  0  0  0  0  0  0  0  0  0  0
    1.4069    0.7162   -2.4185 O   0  0  0  0  0  0  0  0  0  0  0  0
    0.0824    0.2350   -4.0734 N   0  0  0  0  0  0  0  0  0  0  0  0
    0.9244    0.1189   -4.6101 H   0  0  0  0  0  0  0  0  0  0  0  0
   -0.8343    0.1057   -4.4512 H   0  0  0  0  0  0  0  0  0  0  0  0
   -0.0637    0.1284    1.8555 C   0  0  0  0  0  0  0  0  0  0  0  0
    1.0918   -0.0745    2.2236 O   0  0  0  0  0  0  0  0  0  0  0  0
   -1.0024    0.6217    2.6735 N   0  0  0  0  0  0  0  0  0  0  0  0
   -1.9213    0.7848    2.2938 H   0  0  0  0  0  0  0  0  0  0  0  0
   -0.7639    0.9676    4.0741 C   0  0  0  0  0  0  0  0  0  0  0  0
    0.0520    1.6916    4.1400 H   0  0  0  0  0  0  0  0  0  0  0  0
   -1.6626    1.3984    4.5182 H   0  0  0  0  0  0  0  0  0  0  0  0
   -0.4775    0.0737    4.6309 H   0  0  0  0  0  0  0  0  0  0  0  0
  5  6  2  0  0  0  0
  5  7  1  0  0  0  0
  2  3  1  0  0  0  0
  2  4  1  0  0  0  0
  2  5  1  0  0  0  0
  1  2  1  0  0  0  0
 22 23  2  0  0  0  0
 22 24  1  0  0  0  0
 19 20  1  0  0  0  0
 19 21  1  0  0  0  0
 17 18  2  0  0  0  0
 17 19  1  0  0  0  0
 14 15  1  0  0  0  0
 14 16  1  0  0  0  0
 14 17  1  0  0  0  0
 11 12  1  0  0  0  0
 11 13  1  0  0  0  0
 11 14  1  0  0  0  0
  9 10  1  0  0  0  0
  9 11  1  0  0  0  0
  9 22  1  0  0  0  0
  7  8  1  0  0  0  0
  7  9  1  0  0  0  0
 26 27  1  0  0  0  0
 26 28  1  0  0  0  0
 26 29  1  0  0  0  0
 24 25  1  0  0  0  0
 24 26  1  0  0  0  0
M  END
$$$$
default_name
  -OEChem-02102213163D

 29 28  0     1  0  0  0  0  0999 V2000
   -3.3998   -3.6239    1.3678 H   0  0  0  0  0  0  0  0  0  0  0  0
   -3.3608   -2.6749    0.8348 C   0  0  0  0  0  0  0  0  0  0  0  0
   -4.0988   -1.9909    1.2498 H   0  0  0  0  0  0  0  0  0  0  0  0
   -3.5618   -2.8419   -0.2222 H   0  0  0  0  0  0  0  0  0  0  0  0
   -1.9818   -2.0809    0.9918 C   0  0  0  0  0  0  0  0  0  0  0  0
   -1.1288   -2.6669    1.6468 O   0  0  0  0  0  0  0  0  0  0  0  0
   -1.7648   -0.9089    0.3998 N   0  0  0  0  0  0  0  0  0  0  0  0
   -2.5238   -0.4719   -0.1032 H   0  0  0  0  0  0  0  0  0  0  0  0
   -0.4848   -0.1959    0.4138 C   0  0  1  0  0  0  0  0  0  0  0  0
    0.2783   -0.8411   -0.0248 H   0  0  0  0  0  0  0  0  0  0  0  0
   -0.6101    1.0666   -0.4611 C   0  0  0  0  0  0  0  0  0  0  0  0
   -1.3924    1.7008   -0.0387 H   0  0  0  0  0  0  0  0  0  0  0  0
    0.3308    1.6179   -0.4282 H   0  0  0  0  0  0  0  0  0  0  0  0
   -0.9638    0.7736   -1.9296 C   0  0  0  0  0  0  0  0  0  0  0  0
   -1.7714    0.0433   -1.9740 H   0  0  0  0  0  0  0  0  0  0  0  0
   -1.3017    1.6956   -2.4028 H   0  0  0  0  0  0  0  0  0  0  0  0
    0.2143    0.2242   -2.7339 C   0  0  0  0  0  0  0  0  0  0  0  0
    1.3366    0.1038   -2.2794 O   0  0  0  0  0  0  0  0  0  0  0  0
    0.0044   -0.1450   -3.9788 N   0  0  0  0  0  0  0  0  0  0  0  0
    0.8128   -0.4992   -4.4599 H   0  0  0  0  0  0  0  0  0  0  0  0
   -0.8990   -0.0698   -4.4006 H   0  0  0  0  0  0  0  0  0  0  0  0
   -0.0637    0.1284    1.8555 C   0  0  0  0  0  0  0  0  0  0  0  0
    1.0918   -0.0745    2.2236 O   0  0  0  0  0  0  0  0  0  0  0  0
   -1.0024    0.6217    2.6735 N   0  0  0  0  0  0  0  0  0  0  0  0
   -1.9213    0.7848    2.2938 H   0  0  0  0  0  0  0  0  0  0  0  0
   -0.7639    0.9676    4.0741 C   0  0  0  0  0  0  0  0  0  0  0  0
    0.0520    1.6916    4.1400 H   0  0  0  0  0  0  0  0  0  0  0  0
   -1.6626    1.3984    4.5182 H   0  0  0  0  0  0  0  0  0  0  0  0
   -0.4775    0.0737    4.6309 H   0  0  0  0  0  0  0  0  0  0  0  0
  5  6  2  0  0  0  0
  5  7  1  0  0  0  0
  2  3  1  0  0  0  0
  2  4  1  0  0  0  0
  2  5  1  0  0  0  0
  1  2  1  0  0  0  0
 22 23  2  0  0  0  0
 22 24  1  0  0  0  0
 19 20  1  0  0  0  0
 19 21  1  0  0  0  0
 17 18  2  0  0  0  0
 17 19  1  0  0  0  0
 14 15  1  0  0  0  0
 14 16  1  0  0  0  0
 14 17  1  0  0  0  0
 11 12  1  0  0  0  0
 11 13  1  0  0  0  0
 11 14  1  0  0  0  0
  9 10  1  0  0  0  0
  9 11  1  0  0  0  0
  9 22  1  0  0  0  0
  7  8  1  0  0  0  0
  7  9  1  0  0  0  0
 26 27  1  0  0  0  0
 26 28  1  0  0  0  0
 26 29  1  0  0  0  0
 24 25  1  0  0  0  0
 24 26  1  0  0  0  0
M  END
$$$$
default_name
  -OEChem-02102213163D

 29 28  0     1  0  0  0  0  0999 V2000
   -3.3998   -3.6239    1.3678 H   0  0  0  0  0  0  0  0  0  0  0  0
   -3.3608   -2.6749    0.8348 C   0  0  0  0  0  0  0  0  0  0  0  0
   -4.0988   -1.9909    1.2498 H   0  0  0  0  0  0  0  0  0  0  0  0
   -3.5618   -2.8419   -0.2222 H   0  0  0  0  0  0  0  0  0  0  0  0
   -1.9818   -2.0809    0.9918 C   0  0  0  0  0  0  0  0  0  0  0  0
   -1.1288   -2.6669    1.6468 O   0  0  0  0  0  0  0  0  0  0  0  0
   -1.7648   -0.9089    0.3998 N   0  0  0  0  0  0  0  0  0  0  0  0
   -2.5238   -0.4719   -0.1032 H   0  0  0  0  0  0  0  0  0  0  0  0
   -0.4848   -0.1959    0.4138 C   0  0  1  0  0  0  0  0  0  0  0  0
    0.2783   -0.8411   -0.0248 H   0  0  0  0  0  0  0  0  0  0  0  0
   -0.6101    1.0666   -0.4611 C   0  0  0  0  0  0  0  0  0  0  0  0
   -1.3924    1.7008   -0.0387 H   0  0  0  0  0  0  0  0  0  0  0  0
    0.3308    1.6179   -0.4282 H   0  0  0  0  0  0  0  0  0  0  0  0
   -0.9638    0.7736   -1.9296 C   0  0  0  0  0  0  0  0  0  0  0  0
   -1.9250    0.2626   -1.9808 H   0  0  0  0  0  0  0  0  0  0  0  0
   -1.0419    1.7172   -2.4697 H   0  0  0  0  0  0  0  0  0  0  0  0
    0.0734   -0.0998   -2.6353 C   0  0  0  0  0  0  0  0  0  0  0  0
    1.1105   -0.4620   -2.1121 O   0  0  0  0  0  0  0  0  0  0  0  0
   -0.1695   -0.4872   -3.8686 N   0  0  0  0  0  0  0  0  0  0  0  0
    0.5449   -1.0598   -4.2835 H   0  0  0  0  0  0  0  0  0  0  0  0
   -1.0074   -0.2204   -4.3445 H   0  0  0  0  0  0  0  0  0  0  0  0
   -0.0637    0.1284    1.8555 C   0  0  0  0  0  0  0  0  0  0  0  0
    1.0918   -0.0745    2.2236 O   0  0  0  0  0  0  0  0  0  0  0  0
   -1.0024    0.6217    2.6735 N   0  0  0  0  0  0  0  0  0  0  0  0
   -1.9213    0.7848    2.2938 H   0  0  0  0  0  0  0  0  0  0  0  0
   -0.7639    0.9676    4.0741 C   0  0  0  0  0  0  0  0  0  0  0  0
    0.0520    1.6916    4.1400 H   0  0  0  0  0  0  0  0  0  0  0  0
   -1.6626    1.3984    4.5182 H   0  0  0  0  0  0  0  0  0  0  0  0
   -0.4775    0.0737    4.6309 H   0  0  0  0  0  0  0  0  0  0  0  0
  5  6  2  0  0  0  0
  5  7  1  0  0  0  0
  2  3  1  0  0  0  0
  2  4  1  0  0  0  0
  2  5  1  0  0  0  0
  1  2  1  0  0  0  0
 22 23  2  0  0  0  0
 22 24  1  0  0  0  0
 19 20  1  0  0  0  0
 19 21  1  0  0  0  0
 17 18  2  0  0  0  0
 17 19  1  0  0  0  0
 14 15  1  0  0  0  0
 14 16  1  0  0  0  0
 14 17  1  0  0  0  0
 11 12  1  0  0  0  0
 11 13  1  0  0  0  0
 11 14  1  0  0  0  0
  9 10  1  0  0  0  0
  9 11  1  0  0  0  0
  9 22  1  0  0  0  0
  7  8  1  0  0  0  0
  7  9  1  0  0  0  0
 26 27  1  0  0  0  0
 26 28  1  0  0  0  0
 26 29  1  0  0  0  0
 24 25  1  0  0  0  0
 24 26  1  0  0  0  0
M  END
$$$$
default_name
  -OEChem-02102213163D

 29 28  0     1  0  0  0  0  0999 V2000
   -3.3998   -3.6239    1.3678 H   0  0  0  0  0  0  0  0  0  0  0  0
   -3.3608   -2.6749    0.8348 C   0  0  0  0  0  0  0  0  0  0  0  0
   -4.0988   -1.9909    1.2498 H   0  0  0  0  0  0  0  0  0  0  0  0
   -3.5618   -2.8419   -0.2222 H   0  0  0  0  0  0  0  0  0  0  0  0
   -1.9818   -2.0809    0.9918 C   0  0  0  0  0  0  0  0  0  0  0  0
   -1.1288   -2.6669    1.6468 O   0  0  0  0  0  0  0  0  0  0  0  0
   -1.7648   -0.9089    0.3998 N   0  0  0  0  0  0  0  0  0  0  0  0
   -2.5238   -0.4719   -0.1032 H   0  0  0  0  0  0  0  0  0  0  0  0
   -0.4848   -0.1959    0.4138 C   0  0  1  0  0  0  0  0  0  0  0  0
    0.2783   -0.8411   -0.0248 H   0  0  0  0  0  0  0  0  0  0  0  0
   -0.6101    1.0666   -0.4611 C   0  0  0  0  0  0  0  0  0  0  0  0
   -1.3924    1.7008   -0.0387 H   0  0  0  0  0  0  0  0  0  0  0  0
    0.3308    1.6179   -0.4282 H   0  0  0  0  0  0  0  0  0  0  0  0
   -0.9638    0.7736   -1.9296 C   0  0  0  0  0  0  0  0  0  0  0  0
   -2.0189    0.5120   -2.0079 H   0  0  0  0  0  0  0  0  0  0  0  0
   -0.7824    1.6699   -2.5228 H   0  0  0  0  0  0  0  0  0  0  0  0
   -0.1477   -0.3721   -2.5277 C   0  0  0  0  0  0  0  0  0  0  0  0
    0.7441   -0.9427   -1.9279 O   0  0  0  0  0  0  0  0  0  0  0  0
   -0.4274   -0.7682   -3.7504 N   0  0  0  0  0  0  0  0  0  0  0  0
    0.1390   -1.5247   -4.0930 H   0  0  0  0  0  0  0  0  0  0  0  0
   -1.1521   -0.3356   -4.2866 H   0  0  0  0  0  0  0  0  0  0  0  0
   -0.0637    0.1284    1.8555 C   0  0  0  0  0  0  0  0  0  0  0  0
    1.0918   -0.0745    2.2236 O   0  0  0  0  0  0  0  0  0  0  0  0
   -1.0024    0.6217    2.6735 N   0  0  0  0  0  0  0  0  0  0  0  0
   -1.9213    0.7848    2.2938 H   0  0  0  0  0  0  0  0  0  0  0  0
   -0.7639    0.9676    4.0741 C   0  0  0  0  0  0  0  0  0  0  0  0
    0.0520    1.6916    4.1400 H   0  0  0  0  0  0  0  0  0  0  0  0
   -1.6626    1.3984    4.5182 H   0  0  0  0  0  0  0  0  0  0  0  0
   -0.4775    0.0737    4.6309 H   0  0  0  0  0  0  0  0  0  0  0  0
  5  6  2  0  0  0  0
  5  7  1  0  0  0  0
  2  3  1  0  0  0  0
  2  4  1  0  0  0  0
  2  5  1  0  0  0  0
  1  2  1  0  0  0  0
 22 23  2  0  0  0  0
 22 24  1  0  0  0  0
 19 20  1  0  0  0  0
 19 21  1  0  0  0  0
 17 18  2  0  0  0  0
 17 19  1  0  0  0  0
 14 15  1  0  0  0  0
 14 16  1  0  0  0  0
 14 17  1  0  0  0  0
 11 12  1  0  0  0  0
 11 13  1  0  0  0  0
 11 14  1  0  0  0  0
  9 10  1  0  0  0  0
  9 11  1  0  0  0  0
  9 22  1  0  0  0  0
  7  8  1  0  0  0  0
  7  9  1  0  0  0  0
 26 27  1  0  0  0  0
 26 28  1  0  0  0  0
 26 29  1  0  0  0  0
 24 25  1  0  0  0  0
 24 26  1  0  0  0  0
M  END
$$$$
default_name
  -OEChem-02102213163D

 29 28  0     1  0  0  0  0  0999 V2000
   -3.3998   -3.6239    1.3678 H   0  0  0  0  0  0  0  0  0  0  0  0
   -3.3608   -2.6749    0.8348 C   0  0  0  0  0  0  0  0  0  0  0  0
   -4.0988   -1.9909    1.2498 H   0  0  0  0  0  0  0  0  0  0  0  0
   -3.5618   -2.8419   -0.2222 H   0  0  0  0  0  0  0  0  0  0  0  0
   -1.9818   -2.0809    0.9918 C   0  0  0  0  0  0  0  0  0  0  0  0
   -1.1288   -2.6669    1.6468 O   0  0  0  0  0  0  0  0  0  0  0  0
   -1.7648   -0.9089    0.3998 N   0  0  0  0  0  0  0  0  0  0  0  0
   -2.5238   -0.4719   -0.1032 H   0  0  0  0  0  0  0  0  0  0  0  0
   -0.4848   -0.1959    0.4138 C   0  0  1  0  0  0  0  0  0  0  0  0
    0.2783   -0.8411   -0.0248 H   0  0  0  0  0  0  0  0  0  0  0  0
   -0.6101    1.0666   -0.4611 C   0  0  0  0  0  0  0  0  0  0  0  0
   -1.3924    1.7008   -0.0387 H   0  0  0  0  0  0  0  0  0  0  0  0
    0.3308    1.6179   -0.4282 H   0  0  0  0  0  0  0  0  0  0  0  0
   -0.9638    0.7736   -1.9296 C   0  0  0  0  0  0  0  0  0  0  0  0
   -2.0465    0.7745   -2.0536 H   0  0  0  0  0  0  0  0  0  0  0  0
   -0.5407    1.5569   -2.5584 H   0  0  0  0  0  0  0  0  0  0  0  0
   -0.4338   -0.5742   -2.4185 C   0  0  0  0  0  0  0  0  0  0  0  0
    0.2624   -1.3056   -1.7395 O   0  0  0  0  0  0  0  0  0  0  0  0
   -0.7517   -0.9689   -3.6323 N   0  0  0  0  0  0  0  0  0  0  0  0
   -0.3773   -1.8621   -3.9013 H   0  0  0  0  0  0  0  0  0  0  0  0
   -1.3231   -0.4078   -4.2310 H   0  0  0  0  0  0  0  0  0  0  0  0
   -0.0637    0.1284    1.8555 C   0  0  0  0  0  0  0  0  0  0  0  0
    1.0918   -0.0745    2.2236 O   0  0  0  0  0  0  0  0  0  0  0  0
   -1.0024    0.6217    2.6735 N   0  0  0  0  0  0  0  0  0  0  0  0
   -1.9213    0.7848    2.2938 H   0  0  0  0  0  0  0  0  0  0  0  0
   -0.7639    0.9676    4.0741 C   0  0  0  0  0  0  0  0  0  0  0  0
    0.0520    1.6916    4.1400 H   0  0  0  0  0  0  0  0  0  0  0  0
   -1.6626    1.3984    4.5182 H   0  0  0  0  0  0  0  0  0  0  0  0
   -0.4775    0.0737    4.6309 H   0  0  0  0  0  0  0  0  0  0  0  0
  5  6  2  0  0  0  0
  5  7  1  0  0  0  0
  2  3  1  0  0  0  0
  2  4  1  0  0  0  0
  2  5  1  0  0  0  0
  1  2  1  0  0  0  0
 22 23  2  0  0  0  0
 22 24  1  0  0  0  0
 19 20  1  0  0  0  0
 19 21  1  0  0  0  0
 17 18  2  0  0  0  0
 17 19  1  0  0  0  0
 14 15  1  0  0  0  0
 14 16  1  0  0  0  0
 14 17  1  0  0  0  0
 11 12  1  0  0  0  0
 11 13  1  0  0  0  0
 11 14  1  0  0  0  0
  9 10  1  0  0  0  0
  9 11  1  0  0  0  0
  9 22  1  0  0  0  0
  7  8  1  0  0  0  0
  7  9  1  0  0  0  0
 26 27  1  0  0  0  0
 26 28  1  0  0  0  0
 26 29  1  0  0  0  0
 24 25  1  0  0  0  0
 24 26  1  0  0  0  0
M  END
$$$$
default_name
  -OEChem-02102213163D

 29 28  0     1  0  0  0  0  0999 V2000
   -3.3998   -3.6239    1.3678 H   0  0  0  0  0  0  0  0  0  0  0  0
   -3.3608   -2.6749    0.8348 C   0  0  0  0  0  0  0  0  0  0  0  0
   -4.0988   -1.9909    1.2498 H   0  0  0  0  0  0  0  0  0  0  0  0
   -3.5618   -2.8419   -0.2222 H   0  0  0  0  0  0  0  0  0  0  0  0
   -1.9818   -2.0809    0.9918 C   0  0  0  0  0  0  0  0  0  0  0  0
   -1.1288   -2.6669    1.6468 O   0  0  0  0  0  0  0  0  0  0  0  0
   -1.7648   -0.9089    0.3998 N   0  0  0  0  0  0  0  0  0  0  0  0
   -2.5238   -0.4719   -0.1032 H   0  0  0  0  0  0  0  0  0  0  0  0
   -0.4848   -0.1959    0.4138 C   0  0  1  0  0  0  0  0  0  0  0  0
    0.2783   -0.8411   -0.0248 H   0  0  0  0  0  0  0  0  0  0  0  0
   -0.6101    1.0666   -0.4611 C   0  0  0  0  0  0  0  0  0  0  0  0
   -1.3924    1.7008   -0.0387 H   0  0  0  0  0  0  0  0  0  0  0  0
    0.3308    1.6179   -0.4282 H   0  0  0  0  0  0  0  0  0  0  0  0
   -0.9638    0.7736   -1.9296 C   0  0  0  0  0  0  0  0  0  0  0  0
   -2.0062    1.0322   -2.1147 H   0  0  0  0  0  0  0  0  0  0  0  0
   -0.3334    1.3860   -2.5742 H   0  0  0  0  0  0  0  0  0  0  0  0
   -0.7654   -0.6922   -2.3151 C   0  0  0  0  0  0  0  0  0  0  0  0
   -0.3018   -1.5259   -1.5597 O   0  0  0  0  0  0  0  0  0  0  0  0
   -1.1204   -1.0756   -3.5222 N   0  0  0  0  0  0  0  0  0  0  0  0
   -0.9688   -2.0491   -3.7216 H   0  0  0  0  0  0  0  0  0  0  0  0
   -1.5089   -0.4320   -4.1815 H   0  0  0  0  0  0  0  0  0  0  0  0
   -0.0637    0.1284    1.8555 C   0  0  0  0  0  0  0  0  0  0  0  0
    1.0918   -0.0745    2.2236 O   0  0  0  0  0  0  0  0  0  0  0  0
   -1.0024    0.6217    2.6735 N   0  0  0  0  0  0  0  0  0  0  0  0
   -1.9213    0.7848    2.2938 H   0  0  0  0  0  0  0  0  0  0  0  0
   -0.7639    0.9676    4.0741 C   0  0  0  0  0  0  0  0  0  0  0  0
    0.0520    1.6916    4.1400 H   0  0  0  0  0  0  0  0  0  0  0  0
   -1.6626    1.3984    4.5182 H   0  0  0  0  0  0  0  0  0  0  0  0
   -0.4775    0.0737    4.6309 H   0  0  0  0  0  0  0  0  0  0  0  0
  5  6  2  0  0  0  0
  5  7  1  0  0  0  0
  2  3  1  0  0  0  0
  2  4  1  0  0  0  0
  2  5  1  0  0  0  0
  1  2  1  0  0  0  0
 22 23  2  0  0  0  0
 22 24  1  0  0  0  0
 19 20  1  0  0  0  0
 19 21  1  0  0  0  0
 17 18  2  0  0  0  0
 17 19  1  0  0  0  0
 14 15  1  0  0  0  0
 14 16  1  0  0  0  0
 14 17  1  0  0  0  0
 11 12  1  0  0  0  0
 11 13  1  0  0  0  0
 11 14  1  0  0  0  0
  9 10  1  0  0  0  0
  9 11  1  0  0  0  0
  9 22  1  0  0  0  0
  7  8  1  0  0  0  0
  7  9  1  0  0  0  0
 26 27  1  0  0  0  0
 26 28  1  0  0  0  0
 26 29  1  0  0  0  0
 24 25  1  0  0  0  0
 24 26  1  0  0  0  0
M  END
$$$$
default_name
  -OEChem-02102213163D

 29 28  0     1  0  0  0  0  0999 V2000
   -3.3998   -3.6239    1.3678 H   0  0  0  0  0  0  0  0  0  0  0  0
   -3.3608   -2.6749    0.8348 C   0  0  0  0  0  0  0  0  0  0  0  0
   -4.0988   -1.9909    1.2498 H   0  0  0  0  0  0  0  0  0  0  0  0
   -3.5618   -2.8419   -0.2222 H   0  0  0  0  0  0  0  0  0  0  0  0
   -1.9818   -2.0809    0.9918 C   0  0  0  0  0  0  0  0  0  0  0  0
   -1.1288   -2.6669    1.6468 O   0  0  0  0  0  0  0  0  0  0  0  0
   -1.7648   -0.9089    0.3998 N   0  0  0  0  0  0  0  0  0  0  0  0
   -2.5238   -0.4719   -0.1032 H   0  0  0  0  0  0  0  0  0  0  0  0
   -0.4848   -0.1959    0.4138 C   0  0  1  0  0  0  0  0  0  0  0  0
    0.2783   -0.8411   -0.0248 H   0  0  0  0  0  0  0  0  0  0  0  0
   -0.6101    1.0666   -0.4611 C   0  0  0  0  0  0  0  0  0  0  0  0
   -1.3924    1.7008   -0.0387 H   0  0  0  0  0  0  0  0  0  0  0  0
    0.3308    1.6179   -0.4282 H   0  0  0  0  0  0  0  0  0  0  0  0
   -0.9638    0.7736   -1.9296 C   0  0  0  0  0  0  0  0  0  0  0  0
   -1.9006    1.2675   -2.1871 H   0  0  0  0  0  0  0  0  0  0  0  0
   -0.1746    1.1688   -2.5691 H   0  0  0  0  0  0  0  0  0  0  0  0
   -1.1199   -0.7181   -2.2245 C   0  0  0  0  0  0  0  0  0  0  0  0
   -0.9101   -1.5886   -1.4006 O   0  0  0  0  0  0  0  0  0  0  0  0
   -1.5083   -1.0810   -3.4277 N   0  0  0  0  0  0  0  0  0  0  0  0
   -1.5952   -2.0729   -3.5659 H   0  0  0  0  0  0  0  0  0  0  0  0
   -1.6968   -0.4065   -4.1413 H   0  0  0  0  0  0  0  0  0  0  0  0
   -0.0637    0.1284    1.8555 C   0  0  0  0  0  0  0  0  0  0  0  0
    1.0918   -0.0745    2.2236 O   0  0  0  0  0  0  0  0  0  0  0  0
   -1.0024    0.6217    2.6735 N   0  0  0  0  0  0  0  0  0  0  0  0
   -1.9213    0.7848    2.2938 H   0  0  0  0  0  0  0  0  0  0  0  0
   -0.7639    0.9676    4.0741 C   0  0  0  0  0  0  0  0  0  0  0  0
    0.0520    1.6916    4.1400 H   0  0  0  0  0  0  0  0  0  0  0  0
   -1.6626    1.3984    4.5182 H   0  0  0  0  0  0  0  0  0  0  0  0
   -0.4775    0.0737    4.6309 H   0  0  0  0  0  0  0  0  0  0  0  0
  5  6  2  0  0  0  0
  5  7  1  0  0  0  0
  2  3  1  0  0  0  0
  2  4  1  0  0  0  0
  2  5  1  0  0  0  0
  1  2  1  0  0  0  0
 22 23  2  0  0  0  0
 22 24  1  0  0  0  0
 19 20  1  0  0  0  0
 19 21  1  0  0  0  0
 17 18  2  0  0  0  0
 17 19  1  0  0  0  0
 14 15  1  0  0  0  0
 14 16  1  0  0  0  0
 14 17  1  0  0  0  0
 11 12  1  0  0  0  0
 11 13  1  0  0  0  0
 11 14  1  0  0  0  0
  9 10  1  0  0  0  0
  9 11  1  0  0  0  0
  9 22  1  0  0  0  0
  7  8  1  0  0  0  0
  7  9  1  0  0  0  0
 26 27  1  0  0  0  0
 26 28  1  0  0  0  0
 26 29  1  0  0  0  0
 24 25  1  0  0  0  0
 24 26  1  0  0  0  0
M  END
$$$$
default_name
  -OEChem-02102213163D

 29 28  0     1  0  0  0  0  0999 V2000
   -3.3998   -3.6239    1.3678 H   0  0  0  0  0  0  0  0  0  0  0  0
   -3.3608   -2.6749    0.8348 C   0  0  0  0  0  0  0  0  0  0  0  0
   -4.0988   -1.9909    1.2498 H   0  0  0  0  0  0  0  0  0  0  0  0
   -3.5618   -2.8419   -0.2222 H   0  0  0  0  0  0  0  0  0  0  0  0
   -1.9818   -2.0809    0.9918 C   0  0  0  0  0  0  0  0  0  0  0  0
   -1.1288   -2.6669    1.6468 O   0  0  0  0  0  0  0  0  0  0  0  0
   -1.7648   -0.9089    0.3998 N   0  0  0  0  0  0  0  0  0  0  0  0
   -2.5238   -0.4719   -0.1032 H   0  0  0  0  0  0  0  0  0  0  0  0
   -0.4848   -0.1959    0.4138 C   0  0  1  0  0  0  0  0  0  0  0  0
    0.2783   -0.8411   -0.0248 H   0  0  0  0  0  0  0  0  0  0  0  0
   -0.6101    1.0666   -0.4611 C   0  0  0  0  0  0  0  0  0  0  0  0
   -1.3924    1.7008   -0.0387 H   0  0  0  0  0  0  0  0  0  0  0  0
    0.3308    1.6179   -0.4282 H   0  0  0  0  0  0  0  0  0  0  0  0
   -0.9638    0.7736   -1.9296 C   0  0  0  0  0  0  0  0  0  0  0  0
   -1.7368    1.4643   -2.2658 H   0  0  0  0  0  0  0  0  0  0  0  0
   -0.0752    0.9200   -2.5435 H   0  0  0  0  0  0  0  0  0  0  0  0
   -1.4733   -0.6502   -2.1530 C   0  0  0  0  0  0  0  0  0  0  0  0
   -1.5210   -1.4895   -1.2733 O   0  0  0  0  0  0  0  0  0  0  0  0
   -1.8890   -0.9848   -3.3552 N   0  0  0  0  0  0  0  0  0  0  0  0
   -2.2138   -1.9319   -3.4451 H   0  0  0  0  0  0  0  0  0  0  0  0
   -1.8739   -0.3330   -4.1133 H   0  0  0  0  0  0  0  0  0  0  0  0
   -0.0637    0.1284    1.8555 C   0  0  0  0  0  0  0  0  0  0  0  0
    1.0918   -0.0745    2.2236 O   0  0  0  0  0  0  0  0  0  0  0  0
   -1.0024    0.6217    2.6735 N   0  0  0  0  0  0  0  0  0  0  0  0
   -1.9213    0.7848    2.2938 H   0  0  0  0  0  0  0  0  0  0  0  0
   -0.7639    0.9676    4.0741 C   0  0  0  0  0  0  0  0  0  0  0  0
    0.0520    1.6916    4.1400 H   0  0  0  0  0  0  0  0  0  0  0  0
   -1.6626    1.3984    4.5182 H   0  0  0  0  0  0  0  0  0  0  0  0
   -0.4775    0.0737    4.6309 H   0  0  0  0  0  0  0  0  0  0  0  0
  5  6  2  0  0  0  0
  5  7  1  0  0  0  0
  2  3  1  0  0  0  0
  2  4  1  0  0  0  0
  2  5  1  0  0  0  0
  1  2  1  0  0  0  0
 22 23  2  0  0  0  0
 22 24  1  0  0  0  0
 19 20  1  0  0  0  0
 19 21  1  0  0  0  0
 17 18  2  0  0  0  0
 17 19  1  0  0  0  0
 14 15  1  0  0  0  0
 14 16  1  0  0  0  0
 14 17  1  0  0  0  0
 11 12  1  0  0  0  0
 11 13  1  0  0  0  0
 11 14  1  0  0  0  0
  9 10  1  0  0  0  0
  9 11  1  0  0  0  0
  9 22  1  0  0  0  0
  7  8  1  0  0  0  0
  7  9  1  0  0  0  0
 26 27  1  0  0  0  0
 26 28  1  0  0  0  0
 26 29  1  0  0  0  0
 24 25  1  0  0  0  0
 24 26  1  0  0  0  0
M  END
$$$$
default_name
  -OEChem-02102213163D

 29 28  0     1  0  0  0  0  0999 V2000
   -3.3998   -3.6239    1.3678 H   0  0  0  0  0  0  0  0  0  0  0  0
   -3.3608   -2.6749    0.8348 C   0  0  0  0  0  0  0  0  0  0  0  0
   -4.0988   -1.9909    1.2498 H   0  0  0  0  0  0  0  0  0  0  0  0
   -3.5618   -2.8419   -0.2222 H   0  0  0  0  0  0  0  0  0  0  0  0
   -1.9818   -2.0809    0.9918 C   0  0  0  0  0  0  0  0  0  0  0  0
   -1.1288   -2.6669    1.6468 O   0  0  0  0  0  0  0  0  0  0  0  0
   -1.7648   -0.9089    0.3998 N   0  0  0  0  0  0  0  0  0  0  0  0
   -2.5238   -0.4719   -0.1032 H   0  0  0  0  0  0  0  0  0  0  0  0
   -0.4848   -0.1959    0.4138 C   0  0  1  0  0  0  0  0  0  0  0  0
    0.2783   -0.8411   -0.0248 H   0  0  0  0  0  0  0  0  0  0  0  0
   -0.6101    1.0666   -0.4611 C   0  0  0  0  0  0  0  0  0  0  0  0
   -1.3924    1.7008   -0.0387 H   0  0  0  0  0  0  0  0  0  0  0  0
    0.3308    1.6179   -0.4282 H   0  0  0  0  0  0  0  0  0  0  0  0
   -0.9638    0.7736   -1.9296 C   0  0  0  0  0  0  0  0  0  0  0  0
   -1.5262    1.6094   -2.3455 H   0  0  0  0  0  0  0  0  0  0  0  0
   -0.0418    0.6567   -2.4990 H   0  0  0  0  0  0  0  0  0  0  0  0
   -1.8013   -0.4930   -2.1053 C   0  0  0  0  0  0  0  0  0  0  0  0
   -2.0929   -1.2353   -1.1863 O   0  0  0  0  0  0  0  0  0  0  0  0
   -2.2366   -0.7935   -3.3097 N   0  0  0  0  0  0  0  0  0  0  0  0
   -2.7825   -1.6357   -3.3672 H   0  0  0  0  0  0  0  0  0  0  0  0
   -2.0283   -0.2167   -4.0993 H   0  0  0  0  0  0  0  0  0  0  0  0
   -0.0637    0.1284    1.8555 C   0  0  0  0  0  0  0  0  0  0  0  0
    1.0918   -0.0745    2.2236 O   0  0  0  0  0  0  0  0  0  0  0  0
   -1.0024    0.6217    2.6735 N   0  0  0  0  0  0  0  0  0  0  0  0
   -1.9213    0.7848    2.2938 H   0  0  0  0  0  0  0  0  0  0  0  0
   -0.7639    0.9676    4.0741 C   0  0  0  0  0  0  0  0  0  0  0  0
    0.0520    1.6916    4.1400 H   0  0  0  0  0  0  0  0  0  0  0  0
   -1.6626    1.3984    4.5182 H   0  0  0  0  0  0  0  0  0  0  0  0
   -0.4775    0.0737    4.6309 H   0  0  0  0  0  0  0  0  0  0  0  0
  5  6  2  0  0  0  0
  5  7  1  0  0  0  0
  2  3  1  0  0  0  0
  2  4  1  0  0  0  0
  2  5  1  0  0  0  0
  1  2  1  0  0  0  0
 22 23  2  0  0  0  0
 22 24  1  0  0  0  0
 19 20  1  0  0  0  0
 19 21  1  0  0  0  0
 17 18  2  0  0  0  0
 17 19  1  0  0  0  0
 14 15  1  0  0  0  0
 14 16  1  0  0  0  0
 14 17  1  0  0  0  0
 11 12  1  0  0  0  0
 11 13  1  0  0  0  0
 11 14  1  0  0  0  0
  9 10  1  0  0  0  0
  9 11  1  0  0  0  0
  9 22  1  0  0  0  0
  7  8  1  0  0  0  0
  7  9  1  0  0  0  0
 26 27  1  0  0  0  0
 26 28  1  0  0  0  0
 26 29  1  0  0  0  0
 24 25  1  0  0  0  0
 24 26  1  0  0  0  0
M  END
$$$$
default_name
  -OEChem-02102213163D

 29 28  0     1  0  0  0  0  0999 V2000
   -3.3998   -3.6239    1.3678 H   0  0  0  0  0  0  0  0  0  0  0  0
   -3.3608   -2.6749    0.8348 C   0  0  0  0  0  0  0  0  0  0  0  0
   -4.0988   -1.9909    1.2498 H   0  0  0  0  0  0  0  0  0  0  0  0
   -3.5618   -2.8419   -0.2222 H   0  0  0  0  0  0  0  0  0  0  0  0
   -1.9818   -2.0809    0.9918 C   0  0  0  0  0  0  0  0  0  0  0  0
   -1.1288   -2.6669    1.6468 O   0  0  0  0  0  0  0  0  0  0  0  0
   -1.7648   -0.9089    0.3998 N   0  0  0  0  0  0  0  0  0  0  0  0
   -2.5238   -0.4719   -0.1032 H   0  0  0  0  0  0  0  0  0  0  0  0
   -0.4848   -0.1959    0.4138 C   0  0  1  0  0  0  0  0  0  0  0  0
    0.2783   -0.8411   -0.0248 H   0  0  0  0  0  0  0  0  0  0  0  0
   -0.6101    1.0666   -0.4611 C   0  0  0  0  0  0  0  0  0  0  0  0
   -1.3924    1.7008   -0.0387 H   0  0  0  0  0  0  0  0  0  0  0  0
    0.3308    1.6179   -0.4282 H   0  0  0  0  0  0  0  0  0  0  0  0
   -0.9638    0.7736   -1.9296 C   0  0  0  0  0  0  0  0  0  0  0  0
   -1.2830    1.6927   -2.4207 H   0  0  0  0  0  0  0  0  0  0  0  0
   -0.0768    0.3967   -2.4387 H   0  0  0  0  0  0  0  0  0  0  0  0
   -2.0817   -0.2573   -2.0848 C   0  0  0  0  0  0  0  0  0  0  0  0
   -2.5867   -0.8432   -1.1455 O   0  0  0  0  0  0  0  0  0  0  0  0
   -2.5272   -0.5202   -3.2942 N   0  0  0  0  0  0  0  0  0  0  0  0
   -3.2624   -1.2044   -3.3377 H   0  0  0  0  0  0  0  0  0  0  0  0
   -2.1493   -0.0653   -4.1004 H   0  0  0  0  0  0  0  0  0  0  0  0
   -0.0637    0.1284    1.8555 C   0  0  0  0  0  0  0  0  0  0  0  0
    1.0918   -0.0745    2.2236 O   0  0  0  0  0  0  0  0  0  0  0  0
   -1.0024    0.6217    2.6735 N   0  0  0  0  0  0  0  0  0  0  0  0
   -1.9213    0.7848    2.2938 H   0  0  0  0  0  0  0  0  0  0  0  0
   -0.7639    0.9676    4.0741 C   0  0  0  0  0  0  0  0  0  0  0  0
    0.0520    1.6916    4.1400 H   0  0  0  0  0  0  0  0  0  0  0  0
   -1.6626    1.3984    4.5182 H   0  0  0  0  0  0  0  0  0  0  0  0
   -0.4775    0.0737    4.6309 H   0  0  0  0  0  0  0  0  0  0  0  0
  5  6  2  0  0  0  0
  5  7  1  0  0  0  0
  2  3  1  0  0  0  0
  2  4  1  0  0  0  0
  2  5  1  0  0  0  0
  1  2  1  0  0  0  0
 22 23  2  0  0  0  0
 22 24  1  0  0  0  0
 19 20  1  0  0  0  0
 19 21  1  0  0  0  0
 17 18  2  0  0  0  0
 17 19  1  0  0  0  0
 14 15  1  0  0  0  0
 14 16  1  0  0  0  0
 14 17  1  0  0  0  0
 11 12  1  0  0  0  0
 11 13  1  0  0  0  0
 11 14  1  0  0  0  0
  9 10  1  0  0  0  0
  9 11  1  0  0  0  0
  9 22  1  0  0  0  0
  7  8  1  0  0  0  0
  7  9  1  0  0  0  0
 26 27  1  0  0  0  0
 26 28  1  0  0  0  0
 26 29  1  0  0  0  0
 24 25  1  0  0  0  0
 24 26  1  0  0  0  0
M  END
$$$$
default_name
  -OEChem-02102213163D

 29 28  0     1  0  0  0  0  0999 V2000
   -3.3998   -3.6239    1.3678 H   0  0  0  0  0  0  0  0  0  0  0  0
   -3.3608   -2.6749    0.8348 C   0  0  0  0  0  0  0  0  0  0  0  0
   -4.0988   -1.9909    1.2498 H   0  0  0  0  0  0  0  0  0  0  0  0
   -3.5618   -2.8419   -0.2222 H   0  0  0  0  0  0  0  0  0  0  0  0
   -1.9818   -2.0809    0.9918 C   0  0  0  0  0  0  0  0  0  0  0  0
   -1.1288   -2.6669    1.6468 O   0  0  0  0  0  0  0  0  0  0  0  0
   -1.7648   -0.9089    0.3998 N   0  0  0  0  0  0  0  0  0  0  0  0
   -2.5238   -0.4719   -0.1032 H   0  0  0  0  0  0  0  0  0  0  0  0
   -0.4848   -0.1959    0.4138 C   0  0  1  0  0  0  0  0  0  0  0  0
    0.2783   -0.8411   -0.0248 H   0  0  0  0  0  0  0  0  0  0  0  0
   -0.6101    1.0666   -0.4611 C   0  0  0  0  0  0  0  0  0  0  0  0
   -1.3924    1.7008   -0.0387 H   0  0  0  0  0  0  0  0  0  0  0  0
    0.3308    1.6179   -0.4282 H   0  0  0  0  0  0  0  0  0  0  0  0
   -0.9638    0.7736   -1.9296 C   0  0  0  0  0  0  0  0  0  0  0  0
   -1.0238    1.7086   -2.4863 H   0  0  0  0  0  0  0  0  0  0  0  0
   -0.1778    0.1579   -2.3667 H   0  0  0  0  0  0  0  0  0  0  0  0
   -2.2954    0.0408   -2.0928 C   0  0  0  0  0  0  0  0  0  0  0  0
   -2.9690   -0.3402   -1.1539 O   0  0  0  0  0  0  0  0  0  0  0  0
   -2.7413   -0.1835   -3.3098 N   0  0  0  0  0  0  0  0  0  0  0  0
   -3.6209   -0.6676   -3.3584 H   0  0  0  0  0  0  0  0  0  0  0  0
   -2.2288    0.1107   -4.1163 H   0  0  0  0  0  0  0  0  0  0  0  0
   -0.0637    0.1284    1.8555 C   0  0  0  0  0  0  0  0  0  0  0  0
    1.0918   -0.0745    2.2236 O   0  0  0  0  0  0  0  0  0  0  0  0
   -1.0024    0.6217    2.6735 N   0  0  0  0  0  0  0  0  0  0  0  0
   -1.9213    0.7848    2.2938 H   0  0  0  0  0  0  0  0  0  0  0  0
   -0.7639    0.9676    4.0741 C   0  0  0  0  0  0  0  0  0  0  0  0
    0.0520    1.6916    4.1400 H   0  0  0  0  0  0  0  0  0  0  0  0
   -1.6626    1.3984    4.5182 H   0  0  0  0  0  0  0  0  0  0  0  0
   -0.4775    0.0737    4.6309 H   0  0  0  0  0  0  0  0  0  0  0  0
  5  6  2  0  0  0  0
  5  7  1  0  0  0  0
  2  3  1  0  0  0  0
  2  4  1  0  0  0  0
  2  5  1  0  0  0  0
  1  2  1  0  0  0  0
 22 23  2  0  0  0  0
 22 24  1  0  0  0  0
 19 20  1  0  0  0  0
 19 21  1  0  0  0  0
 17 18  2  0  0  0  0
 17 19  1  0  0  0  0
 14 15  1  0  0  0  0
 14 16  1  0  0  0  0
 14 17  1  0  0  0  0
 11 12  1  0  0  0  0
 11 13  1  0  0  0  0
 11 14  1  0  0  0  0
  9 10  1  0  0  0  0
  9 11  1  0  0  0  0
  9 22  1  0  0  0  0
  7  8  1  0  0  0  0
  7  9  1  0  0  0  0
 26 27  1  0  0  0  0
 26 28  1  0  0  0  0
 26 29  1  0  0  0  0
 24 25  1  0  0  0  0
 24 26  1  0  0  0  0
M  END
$$$$
default_name
  -OEChem-02102213163D

 29 28  0     1  0  0  0  0  0999 V2000
   -3.3998   -3.6239    1.3678 H   0  0  0  0  0  0  0  0  0  0  0  0
   -3.3608   -2.6749    0.8348 C   0  0  0  0  0  0  0  0  0  0  0  0
   -4.0988   -1.9909    1.2498 H   0  0  0  0  0  0  0  0  0  0  0  0
   -3.5618   -2.8419   -0.2222 H   0  0  0  0  0  0  0  0  0  0  0  0
   -1.9818   -2.0809    0.9918 C   0  0  0  0  0  0  0  0  0  0  0  0
   -1.1288   -2.6669    1.6468 O   0  0  0  0  0  0  0  0  0  0  0  0
   -1.7648   -0.9089    0.3998 N   0  0  0  0  0  0  0  0  0  0  0  0
   -2.5238   -0.4719   -0.1032 H   0  0  0  0  0  0  0  0  0  0  0  0
   -0.4848   -0.1959    0.4138 C   0  0  1  0  0  0  0  0  0  0  0  0
    0.2783   -0.8411   -0.0248 H   0  0  0  0  0  0  0  0  0  0  0  0
   -0.6101    1.0666   -0.4611 C   0  0  0  0  0  0  0  0  0  0  0  0
   -1.3924    1.7008   -0.0387 H   0  0  0  0  0  0  0  0  0  0  0  0
    0.3308    1.6179   -0.4282 H   0  0  0  0  0  0  0  0  0  0  0  0
   -0.9638    0.7736   -1.9296 C   0  0  0  0  0  0  0  0  0  0  0  0
   -0.7662    1.6560   -2.5379 H   0  0  0  0  0  0  0  0  0  0  0  0
   -0.3379   -0.0436   -2.2879 H   0  0  0  0  0  0  0  0  0  0  0  0
   -2.4277    0.3811   -2.1288 C   0  0  0  0  0  0  0  0  0  0  0  0
   -3.2135    0.2397   -1.2106 O   0  0  0  0  0  0  0  0  0  0  0  0
   -2.8641    0.1937   -3.3555 N   0  0  0  0  0  0  0  0  0  0  0  0
   -3.8336   -0.0617   -3.4281 H   0  0  0  0  0  0  0  0  0  0  0  0
   -2.2613    0.2994   -4.1462 H   0  0  0  0  0  0  0  0  0  0  0  0
   -0.0637    0.1284    1.8555 C   0  0  0  0  0  0  0  0  0  0  0  0
    1.0918   -0.0745    2.2236 O   0  0  0  0  0  0  0  0  0  0  0  0
   -1.0024    0.6217    2.6735 N   0  0  0  0  0  0  0  0  0  0  0  0
   -1.9213    0.7848    2.2938 H   0  0  0  0  0  0  0  0  0  0  0  0
   -0.7639    0.9676    4.0741 C   0  0  0  0  0  0  0  0  0  0  0  0
    0.0520    1.6916    4.1400 H   0  0  0  0  0  0  0  0  0  0  0  0
   -1.6626    1.3984    4.5182 H   0  0  0  0  0  0  0  0  0  0  0  0
   -0.4775    0.0737    4.6309 H   0  0  0  0  0  0  0  0  0  0  0  0
  5  6  2  0  0  0  0
  5  7  1  0  0  0  0
  2  3  1  0  0  0  0
  2  4  1  0  0  0  0
  2  5  1  0  0  0  0
  1  2  1  0  0  0  0
 22 23  2  0  0  0  0
 22 24  1  0  0  0  0
 19 20  1  0  0  0  0
 19 21  1  0  0  0  0
 17 18  2  0  0  0  0
 17 19  1  0  0  0  0
 14 15  1  0  0  0  0
 14 16  1  0  0  0  0
 14 17  1  0  0  0  0
 11 12  1  0  0  0  0
 11 13  1  0  0  0  0
 11 14  1  0  0  0  0
  9 10  1  0  0  0  0
  9 11  1  0  0  0  0
  9 22  1  0  0  0  0
  7  8  1  0  0  0  0
  7  9  1  0  0  0  0
 26 27  1  0  0  0  0
 26 28  1  0  0  0  0
 26 29  1  0  0  0  0
 24 25  1  0  0  0  0
 24 26  1  0  0  0  0
M  END
$$$$
default_name
  -OEChem-02102213163D

 29 28  0     1  0  0  0  0  0999 V2000
   -3.3998   -3.6239    1.3678 H   0  0  0  0  0  0  0  0  0  0  0  0
   -3.3608   -2.6749    0.8348 C   0  0  0  0  0  0  0  0  0  0  0  0
   -4.0988   -1.9909    1.2498 H   0  0  0  0  0  0  0  0  0  0  0  0
   -3.5618   -2.8419   -0.2222 H   0  0  0  0  0  0  0  0  0  0  0  0
   -1.9818   -2.0809    0.9918 C   0  0  0  0  0  0  0  0  0  0  0  0
   -1.1288   -2.6669    1.6468 O   0  0  0  0  0  0  0  0  0  0  0  0
   -1.7648   -0.9089    0.3998 N   0  0  0  0  0  0  0  0  0  0  0  0
   -2.5238   -0.4719   -0.1032 H   0  0  0  0  0  0  0  0  0  0  0  0
   -0.4848   -0.1959    0.4138 C   0  0  1  0  0  0  0  0  0  0  0  0
    0.2783   -0.8411   -0.0248 H   0  0  0  0  0  0  0  0  0  0  0  0
   -0.6101    1.0666   -0.4611 C   0  0  0  0  0  0  0  0  0  0  0  0
   -1.3924    1.7008   -0.0387 H   0  0  0  0  0  0  0  0  0  0  0  0
    0.3308    1.6179   -0.4282 H   0  0  0  0  0  0  0  0  0  0  0  0
   -0.9638    0.7736   -1.9296 C   0  0  0  0  0  0  0  0  0  0  0  0
   -0.5279    1.5386   -2.5718 H   0  0  0  0  0  0  0  0  0  0  0  0
   -0.5463   -0.1940   -2.2078 H   0  0  0  0  0  0  0  0  0  0  0  0
   -2.4697    0.7403   -2.1904 C   0  0  0  0  0  0  0  0  0  0  0  0
   -3.3036    0.8568   -1.3121 O   0  0  0  0  0  0  0  0  0  0  0  0
   -2.8873    0.5856   -3.4281 N   0  0  0  0  0  0  0  0  0  0  0  0
   -3.8859    0.5719   -3.5419 H   0  0  0  0  0  0  0  0  0  0  0  0
   -2.2446    0.4880   -4.1878 H   0  0  0  0  0  0  0  0  0  0  0  0
   -0.0637    0.1284    1.8555 C   0  0  0  0  0  0  0  0  0  0  0  0
    1.0918   -0.0745    2.2236 O   0  0  0  0  0  0  0  0  0  0  0  0
   -1.0024    0.6217    2.6735 N   0  0  0  0  0  0  0  0  0  0  0  0
   -1.9213    0.7848    2.2938 H   0  0  0  0  0  0  0  0  0  0  0  0
   -0.7639    0.9676    4.0741 C   0  0  0  0  0  0  0  0  0  0  0  0
    0.0520    1.6916    4.1400 H   0  0  0  0  0  0  0  0  0  0  0  0
   -1.6626    1.3984    4.5182 H   0  0  0  0  0  0  0  0  0  0  0  0
   -0.4775    0.0737    4.6309 H   0  0  0  0  0  0  0  0  0  0  0  0
  5  6  2  0  0  0  0
  5  7  1  0  0  0  0
  2  3  1  0  0  0  0
  2  4  1  0  0  0  0
  2  5  1  0  0  0  0
  1  2  1  0  0  0  0
 22 23  2  0  0  0  0
 22 24  1  0  0  0  0
 19 20  1  0  0  0  0
 19 21  1  0  0  0  0
 17 18  2  0  0  0  0
 17 19  1  0  0  0  0
 14 15  1  0  0  0  0
 14 16  1  0  0  0  0
 14 17  1  0  0  0  0
 11 12  1  0  0  0  0
 11 13  1  0  0  0  0
 11 14  1  0  0  0  0
  9 10  1  0  0  0  0
  9 11  1  0  0  0  0
  9 22  1  0  0  0  0
  7  8  1  0  0  0  0
  7  9  1  0  0  0  0
 26 27  1  0  0  0  0
 26 28  1  0  0  0  0
 26 29  1  0  0  0  0
 24 25  1  0  0  0  0
 24 26  1  0  0  0  0
M  END
$$$$
default_name
  -OEChem-02102213163D

 29 28  0     1  0  0  0  0  0999 V2000
   -3.3998   -3.6239    1.3678 H   0  0  0  0  0  0  0  0  0  0  0  0
   -3.3608   -2.6749    0.8348 C   0  0  0  0  0  0  0  0  0  0  0  0
   -4.0988   -1.9909    1.2498 H   0  0  0  0  0  0  0  0  0  0  0  0
   -3.5618   -2.8419   -0.2222 H   0  0  0  0  0  0  0  0  0  0  0  0
   -1.9818   -2.0809    0.9918 C   0  0  0  0  0  0  0  0  0  0  0  0
   -1.1288   -2.6669    1.6468 O   0  0  0  0  0  0  0  0  0  0  0  0
   -1.7648   -0.9089    0.3998 N   0  0  0  0  0  0  0  0  0  0  0  0
   -2.5238   -0.4719   -0.1032 H   0  0  0  0  0  0  0  0  0  0  0  0
   -0.4848   -0.1959    0.4138 C   0  0  1  0  0  0  0  0  0  0  0  0
    0.2783   -0.8411   -0.0248 H   0  0  0  0  0  0  0  0  0  0  0  0
   -0.6101    1.0666   -0.4611 C   0  0  0  0  0  0  0  0  0  0  0  0
   -1.3924    1.7008   -0.0387 H   0  0  0  0  0  0  0  0  0  0  0  0
    0.3308    1.6179   -0.4282 H   0  0  0  0  0  0  0  0  0  0  0  0
   -0.9638    0.7736   -1.9296 C   0  0  0  0  0  0  0  0  0  0  0  0
   -0.3250    1.3642   -2.5859 H   0  0  0  0  0  0  0  0  0  0  0  0
   -0.7886   -0.2830   -2.1316 H   0  0  0  0  0  0  0  0  0  0  0  0
   -2.4184    1.0940   -2.2733 C   0  0  0  0  0  0  0  0  0  0  0  0
   -3.2333    1.4691   -1.4512 O   0  0  0  0  0  0  0  0  0  0  0  0
   -2.8093    0.9656   -3.5227 N   0  0  0  0  0  0  0  0  0  0  0  0
   -3.7744    1.1900   -3.6921 H   0  0  0  0  0  0  0  0  0  0  0  0
   -2.1799    0.6635   -4.2384 H   0  0  0  0  0  0  0  0  0  0  0  0
   -0.0637    0.1284    1.8555 C   0  0  0  0  0  0  0  0  0  0  0  0
    1.0918   -0.0745    2.2236 O   0  0  0  0  0  0  0  0  0  0  0  0
   -1.0024    0.6217    2.6735 N   0  0  0  0  0  0  0  0  0  0  0  0
   -1.9213    0.7848    2.2938 H   0  0  0  0  0  0  0  0  0  0  0  0
   -0.7639    0.9676    4.0741 C   0  0  0  0  0  0  0  0  0  0  0  0
    0.0520    1.6916    4.1400 H   0  0  0  0  0  0  0  0  0  0  0  0
   -1.6626    1.3984    4.5182 H   0  0  0  0  0  0  0  0  0  0  0  0
   -0.4775    0.0737    4.6309 H   0  0  0  0  0  0  0  0  0  0  0  0
  5  6  2  0  0  0  0
  5  7  1  0  0  0  0
  2  3  1  0  0  0  0
  2  4  1  0  0  0  0
  2  5  1  0  0  0  0
  1  2  1  0  0  0  0
 22 23  2  0  0  0  0
 22 24  1  0  0  0  0
 19 20  1  0  0  0  0
 19 21  1  0  0  0  0
 17 18  2  0  0  0  0
 17 19  1  0  0  0  0
 14 15  1  0  0  0  0
 14 16  1  0  0  0  0
 14 17  1  0  0  0  0
 11 12  1  0  0  0  0
 11 13  1  0  0  0  0
 11 14  1  0  0  0  0
  9 10  1  0  0  0  0
  9 11  1  0  0  0  0
  9 22  1  0  0  0  0
  7  8  1  0  0  0  0
  7  9  1  0  0  0  0
 26 27  1  0  0  0  0
 26 28  1  0  0  0  0
 26 29  1  0  0  0  0
 24 25  1  0  0  0  0
 24 26  1  0  0  0  0
M  END
$$$$
default_name
  -OEChem-02102213163D

 29 28  0     1  0  0  0  0  0999 V2000
   -3.3998   -3.6239    1.3678 H   0  0  0  0  0  0  0  0  0  0  0  0
   -3.3608   -2.6749    0.8348 C   0  0  0  0  0  0  0  0  0  0  0  0
   -4.0988   -1.9909    1.2498 H   0  0  0  0  0  0  0  0  0  0  0  0
   -3.5618   -2.8419   -0.2222 H   0  0  0  0  0  0  0  0  0  0  0  0
   -1.9818   -2.0809    0.9918 C   0  0  0  0  0  0  0  0  0  0  0  0
   -1.1288   -2.6669    1.6468 O   0  0  0  0  0  0  0  0  0  0  0  0
   -1.7648   -0.9089    0.3998 N   0  0  0  0  0  0  0  0  0  0  0  0
   -2.5238   -0.4719   -0.1032 H   0  0  0  0  0  0  0  0  0  0  0  0
   -0.4848   -0.1959    0.4138 C   0  0  1  0  0  0  0  0  0  0  0  0
    0.2783   -0.8411   -0.0248 H   0  0  0  0  0  0  0  0  0  0  0  0
   -0.6101    1.0666   -0.4611 C   0  0  0  0  0  0  0  0  0  0  0  0
   -1.3924    1.7008   -0.0387 H   0  0  0  0  0  0  0  0  0  0  0  0
    0.3308    1.6179   -0.4282 H   0  0  0  0  0  0  0  0  0  0  0  0
   -0.9638    0.7736   -1.9296 C   0  0  0  0  0  0  0  0  0  0  0  0
   -0.1714    1.1449   -2.5791 H   0  0  0  0  0  0  0  0  0  0  0  0
   -1.0484   -0.3046   -2.0648 H   0  0  0  0  0  0  0  0  0  0  0  0
   -2.2775    1.4181   -2.3719 C   0  0  0  0  0  0  0  0  0  0  0  0
   -3.0072    2.0349   -1.6185 O   0  0  0  0  0  0  0  0  0  0  0  0
   -2.6354    1.3078   -3.6328 N   0  0  0  0  0  0  0  0  0  0  0  0
   -3.5065    1.7507   -3.8685 H   0  0  0  0  0  0  0  0  0  0  0  0
   -2.0715    0.8140   -4.2946 H   0  0  0  0  0  0  0  0  0  0  0  0
   -0.0637    0.1284    1.8555 C   0  0  0  0  0  0  0  0  0  0  0  0
    1.0918   -0.0745    2.2236 O   0  0  0  0  0  0  0  0  0  0  0  0
   -1.0024    0.6217    2.6735 N   0  0  0  0  0  0  0  0  0  0  0  0
   -1.9213    0.7848    2.2938 H   0  0  0  0  0  0  0  0  0  0  0  0
   -0.7639    0.9676    4.0741 C   0  0  0  0  0  0  0  0  0  0  0  0
    0.0520    1.6916    4.1400 H   0  0  0  0  0  0  0  0  0  0  0  0
   -1.6626    1.3984    4.5182 H   0  0  0  0  0  0  0  0  0  0  0  0
   -0.4775    0.0737    4.6309 H   0  0  0  0  0  0  0  0  0  0  0  0
  5  6  2  0  0  0  0
  5  7  1  0  0  0  0
  2  3  1  0  0  0  0
  2  4  1  0  0  0  0
  2  5  1  0  0  0  0
  1  2  1  0  0  0  0
 22 23  2  0  0  0  0
 22 24  1  0  0  0  0
 19 20  1  0  0  0  0
 19 21  1  0  0  0  0
 17 18  2  0  0  0  0
 17 19  1  0  0  0  0
 14 15  1  0  0  0  0
 14 16  1  0  0  0  0
 14 17  1  0  0  0  0
 11 12  1  0  0  0  0
 11 13  1  0  0  0  0
 11 14  1  0  0  0  0
  9 10  1  0  0  0  0
  9 11  1  0  0  0  0
  9 22  1  0  0  0  0
  7  8  1  0  0  0  0
  7  9  1  0  0  0  0
 26 27  1  0  0  0  0
 26 28  1  0  0  0  0
 26 29  1  0  0  0  0
 24 25  1  0  0  0  0
 24 26  1  0  0  0  0
M  END
$$$$
default_name
  -OEChem-02102213163D

 29 28  0     1  0  0  0  0  0999 V2000
   -3.3998   -3.6239    1.3678 H   0  0  0  0  0  0  0  0  0  0  0  0
   -3.3608   -2.6749    0.8348 C   0  0  0  0  0  0  0  0  0  0  0  0
   -4.0988   -1.9909    1.2498 H   0  0  0  0  0  0  0  0  0  0  0  0
   -3.5618   -2.8419   -0.2222 H   0  0  0  0  0  0  0  0  0  0  0  0
   -1.9818   -2.0809    0.9918 C   0  0  0  0  0  0  0  0  0  0  0  0
   -1.1288   -2.6669    1.6468 O   0  0  0  0  0  0  0  0  0  0  0  0
   -1.7648   -0.9089    0.3998 N   0  0  0  0  0  0  0  0  0  0  0  0
   -2.5238   -0.4719   -0.1032 H   0  0  0  0  0  0  0  0  0  0  0  0
   -0.4848   -0.1959    0.4138 C   0  0  1  0  0  0  0  0  0  0  0  0
    0.2783   -0.8411   -0.0248 H   0  0  0  0  0  0  0  0  0  0  0  0
   -0.6101    1.0666   -0.4611 C   0  0  0  0  0  0  0  0  0  0  0  0
   -1.3924    1.7008   -0.0387 H   0  0  0  0  0  0  0  0  0  0  0  0
    0.3308    1.6179   -0.4282 H   0  0  0  0  0  0  0  0  0  0  0  0
   -0.9638    0.7736   -1.9296 C   0  0  0  0  0  0  0  0  0  0  0  0
   -0.0776    0.8954   -2.5520 H   0  0  0  0  0  0  0  0  0  0  0  0
   -1.3079   -0.2573   -2.0117 H   0  0  0  0  0  0  0  0  0  0  0  0
   -2.0565    1.6904   -2.4795 C   0  0  0  0  0  0  0  0  0  0  0  0
   -2.6408    2.5156   -1.8027 O   0  0  0  0  0  0  0  0  0  0  0  0
   -2.3775    1.5888   -3.7510 N   0  0  0  0  0  0  0  0  0  0  0  0
   -3.1006    2.2155   -4.0590 H   0  0  0  0  0  0  0  0  0  0  0  0
   -1.9268    0.9293   -4.3524 H   0  0  0  0  0  0  0  0  0  0  0  0
   -0.0637    0.1284    1.8555 C   0  0  0  0  0  0  0  0  0  0  0  0
    1.0918   -0.0745    2.2236 O   0  0  0  0  0  0  0  0  0  0  0  0
   -1.0024    0.6217    2.6735 N   0  0  0  0  0  0  0  0  0  0  0  0
   -1.9213    0.7848    2.2938 H   0  0  0  0  0  0  0  0  0  0  0  0
   -0.7639    0.9676    4.0741 C   0  0  0  0  0  0  0  0  0  0  0  0
    0.0520    1.6916    4.1400 H   0  0  0  0  0  0  0  0  0  0  0  0
   -1.6626    1.3984    4.5182 H   0  0  0  0  0  0  0  0  0  0  0  0
   -0.4775    0.0737    4.6309 H   0  0  0  0  0  0  0  0  0  0  0  0
  5  6  2  0  0  0  0
  5  7  1  0  0  0  0
  2  3  1  0  0  0  0
  2  4  1  0  0  0  0
  2  5  1  0  0  0  0
  1  2  1  0  0  0  0
 22 23  2  0  0  0  0
 22 24  1  0  0  0  0
 19 20  1  0  0  0  0
 19 21  1  0  0  0  0
 17 18  2  0  0  0  0
 17 19  1  0  0  0  0
 14 15  1  0  0  0  0
 14 16  1  0  0  0  0
 14 17  1  0  0  0  0
 11 12  1  0  0  0  0
 11 13  1  0  0  0  0
 11 14  1  0  0  0  0
  9 10  1  0  0  0  0
  9 11  1  0  0  0  0
  9 22  1  0  0  0  0
  7  8  1  0  0  0  0
  7  9  1  0  0  0  0
 26 27  1  0  0  0  0
 26 28  1  0  0  0  0
 26 29  1  0  0  0  0
 24 25  1  0  0  0  0
 24 26  1  0  0  0  0
M  END
$$$$
default_name
  -OEChem-02102213163D

 29 28  0     1  0  0  0  0  0999 V2000
   -3.3998   -3.6239    1.3678 H   0  0  0  0  0  0  0  0  0  0  0  0
   -3.3608   -2.6749    0.8348 C   0  0  0  0  0  0  0  0  0  0  0  0
   -4.0988   -1.9909    1.2498 H   0  0  0  0  0  0  0  0  0  0  0  0
   -3.5618   -2.8419   -0.2222 H   0  0  0  0  0  0  0  0  0  0  0  0
   -1.9818   -2.0809    0.9918 C   0  0  0  0  0  0  0  0  0  0  0  0
   -1.1288   -2.6669    1.6468 O   0  0  0  0  0  0  0  0  0  0  0  0
   -1.7648   -0.9089    0.3998 N   0  0  0  0  0  0  0  0  0  0  0  0
   -2.5238   -0.4719   -0.1032 H   0  0  0  0  0  0  0  0  0  0  0  0
   -0.4848   -0.1959    0.4138 C   0  0  1  0  0  0  0  0  0  0  0  0
    0.2783   -0.8411   -0.0248 H   0  0  0  0  0  0  0  0  0  0  0  0
   -0.6101    1.0666   -0.4611 C   0  0  0  0  0  0  0  0  0  0  0  0
   -1.3924    1.7008   -0.0387 H   0  0  0  0  0  0  0  0  0  0  0  0
    0.3308    1.6179   -0.4282 H   0  0  0  0  0  0  0  0  0  0  0  0
   -0.9638    0.7736   -1.9296 C   0  0  0  0  0  0  0  0  0  0  0  0
   -0.0499    0.6330   -2.5063 H   0  0  0  0  0  0  0  0  0  0  0  0
   -1.5496   -0.1444   -1.9760 H   0  0  0  0  0  0  0  0  0  0  0  0
   -1.7704    1.8924   -2.5887 C   0  0  0  0  0  0  0  0  0  0  0  0
   -2.1591    2.8785   -1.9911 O   0  0  0  0  0  0  0  0  0  0  0  0
   -2.0531    1.7895   -3.8692 N   0  0  0  0  0  0  0  0  0  0  0  0
   -2.5843    2.5529   -4.2506 H   0  0  0  0  0  0  0  0  0  0  0  0
   -1.7558    1.0015   -4.4080 H   0  0  0  0  0  0  0  0  0  0  0  0
   -0.0637    0.1284    1.8555 C   0  0  0  0  0  0  0  0  0  0  0  0
    1.0918   -0.0745    2.2236 O   0  0  0  0  0  0  0  0  0  0  0  0
   -1.0024    0.6217    2.6735 N   0  0  0  0  0  0  0  0  0  0  0  0
   -1.9213    0.7848    2.2938 H   0  0  0  0  0  0  0  0  0  0  0  0
   -0.7639    0.9676    4.0741 C   0  0  0  0  0  0  0  0  0  0  0  0
    0.0520    1.6916    4.1400 H   0  0  0  0  0  0  0  0  0  0  0  0
   -1.6626    1.3984    4.5182 H   0  0  0  0  0  0  0  0  0  0  0  0
   -0.4775    0.0737    4.6309 H   0  0  0  0  0  0  0  0  0  0  0  0
  5  6  2  0  0  0  0
  5  7  1  0  0  0  0
  2  3  1  0  0  0  0
  2  4  1  0  0  0  0
  2  5  1  0  0  0  0
  1  2  1  0  0  0  0
 22 23  2  0  0  0  0
 22 24  1  0  0  0  0
 19 20  1  0  0  0  0
 19 21  1  0  0  0  0
 17 18  2  0  0  0  0
 17 19  1  0  0  0  0
 14 15  1  0  0  0  0
 14 16  1  0  0  0  0
 14 17  1  0  0  0  0
 11 12  1  0  0  0  0
 11 13  1  0  0  0  0
 11 14  1  0  0  0  0
  9 10  1  0  0  0  0
  9 11  1  0  0  0  0
  9 22  1  0  0  0  0
  7  8  1  0  0  0  0
  7  9  1  0  0  0  0
 26 27  1  0  0  0  0
 26 28  1  0  0  0  0
 26 29  1  0  0  0  0
 24 25  1  0  0  0  0
 24 26  1  0  0  0  0
M  END
$$$$
default_name
  -OEChem-02102213163D

 29 28  0     1  0  0  0  0  0999 V2000
   -3.3998   -3.6239    1.3678 H   0  0  0  0  0  0  0  0  0  0  0  0
   -3.3608   -2.6749    0.8348 C   0  0  0  0  0  0  0  0  0  0  0  0
   -4.0988   -1.9909    1.2498 H   0  0  0  0  0  0  0  0  0  0  0  0
   -3.5618   -2.8419   -0.2222 H   0  0  0  0  0  0  0  0  0  0  0  0
   -1.9818   -2.0809    0.9918 C   0  0  0  0  0  0  0  0  0  0  0  0
   -1.1288   -2.6669    1.6468 O   0  0  0  0  0  0  0  0  0  0  0  0
   -1.7648   -0.9089    0.3998 N   0  0  0  0  0  0  0  0  0  0  0  0
   -2.5238   -0.4719   -0.1032 H   0  0  0  0  0  0  0  0  0  0  0  0
   -0.4848   -0.1959    0.4138 C   0  0  1  0  0  0  0  0  0  0  0  0
    0.2783   -0.8411   -0.0248 H   0  0  0  0  0  0  0  0  0  0  0  0
   -0.6101    1.0666   -0.4611 C   0  0  0  0  0  0  0  0  0  0  0  0
   -1.3924    1.7008   -0.0387 H   0  0  0  0  0  0  0  0  0  0  0  0
    0.3308    1.6179   -0.4282 H   0  0  0  0  0  0  0  0  0  0  0  0
   -0.9638    0.7736   -1.9296 C   0  0  0  0  0  0  0  0  0  0  0  0
   -0.0902    0.3753   -2.4451 H   0  0  0  0  0  0  0  0  0  0  0  0
   -1.7569    0.0266   -1.9602 H   0  0  0  0  0  0  0  0  0  0  0  0
   -1.4388    2.0104   -2.6921 C   0  0  0  0  0  0  0  0  0  0  0  0
   -1.5949    3.0988   -2.1709 O   0  0  0  0  0  0  0  0  0  0  0  0
   -1.6845    1.8962   -3.9793 N   0  0  0  0  0  0  0  0  0  0  0  0
   -1.9927    2.7399   -4.4304 H   0  0  0  0  0  0  0  0  0  0  0  0
   -1.5700    1.0256   -4.4576 H   0  0  0  0  0  0  0  0  0  0  0  0
   -0.0637    0.1284    1.8555 C   0  0  0  0  0  0  0  0  0  0  0  0
    1.0918   -0.0745    2.2236 O   0  0  0  0  0  0  0  0  0  0  0  0
   -1.0024    0.6217    2.6735 N   0  0  0  0  0  0  0  0  0  0  0  0
   -1.9213    0.7848    2.2938 H   0  0  0  0  0  0  0  0  0  0  0  0
   -0.7639    0.9676    4.0741 C   0  0  0  0  0  0  0  0  0  0  0  0
    0.0520    1.6916    4.1400 H   0  0  0  0  0  0  0  0  0  0  0  0
   -1.6626    1.3984    4.5182 H   0  0  0  0  0  0  0  0  0  0  0  0
   -0.4775    0.0737    4.6309 H   0  0  0  0  0  0  0  0  0  0  0  0
  5  6  2  0  0  0  0
  5  7  1  0  0  0  0
  2  3  1  0  0  0  0
  2  4  1  0  0  0  0
  2  5  1  0  0  0  0
  1  2  1  0  0  0  0
 22 23  2  0  0  0  0
 22 24  1  0  0  0  0
 19 20  1  0  0  0  0
 19 21  1  0  0  0  0
 17 18  2  0  0  0  0
 17 19  1  0  0  0  0
 14 15  1  0  0  0  0
 14 16  1  0  0  0  0
 14 17  1  0  0  0  0
 11 12  1  0  0  0  0
 11 13  1  0  0  0  0
 11 14  1  0  0  0  0
  9 10  1  0  0  0  0
  9 11  1  0  0  0  0
  9 22  1  0  0  0  0
  7  8  1  0  0  0  0
  7  9  1  0  0  0  0
 26 27  1  0  0  0  0
 26 28  1  0  0  0  0
 26 29  1  0  0  0  0
 24 25  1  0  0  0  0
 24 26  1  0  0  0  0
M  END
$$$$
default_name
  -OEChem-02102213163D

 29 28  0     1  0  0  0  0  0999 V2000
   -3.3998   -3.6239    1.3678 H   0  0  0  0  0  0  0  0  0  0  0  0
   -3.3608   -2.6749    0.8348 C   0  0  0  0  0  0  0  0  0  0  0  0
   -4.0988   -1.9909    1.2498 H   0  0  0  0  0  0  0  0  0  0  0  0
   -3.5618   -2.8419   -0.2222 H   0  0  0  0  0  0  0  0  0  0  0  0
   -1.9818   -2.0809    0.9918 C   0  0  0  0  0  0  0  0  0  0  0  0
   -1.1288   -2.6669    1.6468 O   0  0  0  0  0  0  0  0  0  0  0  0
   -1.7648   -0.9089    0.3998 N   0  0  0  0  0  0  0  0  0  0  0  0
   -2.5238   -0.4719   -0.1032 H   0  0  0  0  0  0  0  0  0  0  0  0
   -0.4848   -0.1959    0.4138 C   0  0  1  0  0  0  0  0  0  0  0  0
    0.2783   -0.8411   -0.0248 H   0  0  0  0  0  0  0  0  0  0  0  0
   -0.6101    1.0666   -0.4611 C   0  0  0  0  0  0  0  0  0  0  0  0
   -1.1839    1.8126    0.0928 H   0  0  0  0  0  0  0  0  0  0  0  0
    0.3857    1.4716   -0.6473 H   0  0  0  0  0  0  0  0  0  0  0  0
   -1.3079    0.8220   -1.8104 C   0  0  0  0  0  0  0  0  0  0  0  0
   -0.7523    0.0786   -2.3816 H   0  0  0  0  0  0  0  0  0  0  0  0
   -2.3118    0.4400   -1.6254 H   0  0  0  0  0  0  0  0  0  0  0  0
   -1.4238    2.0841   -2.6651 C   0  0  0  0  0  0  0  0  0  0  0  0
   -1.0700    3.1845   -2.2849 O   0  0  0  0  0  0  0  0  0  0  0  0
   -1.9242    1.9758   -3.8767 N   0  0  0  0  0  0  0  0  0  0  0  0
   -1.9764    2.8360   -4.3942 H   0  0  0  0  0  0  0  0  0  0  0  0
   -2.2278    1.0950   -4.2396 H   0  0  0  0  0  0  0  0  0  0  0  0
   -0.0637    0.1284    1.8555 C   0  0  0  0  0  0  0  0  0  0  0  0
    1.0918   -0.0745    2.2236 O   0  0  0  0  0  0  0  0  0  0  0  0
   -1.0024    0.6217    2.6735 N   0  0  0  0  0  0  0  0  0  0  0  0
   -1.9213    0.7848    2.2938 H   0  0  0  0  0  0  0  0  0  0  0  0
   -0.7639    0.9676    4.0741 C   0  0  0  0  0  0  0  0  0  0  0  0
    0.0520    1.6916    4.1400 H   0  0  0  0  0  0  0  0  0  0  0  0
   -1.6626    1.3984    4.5182 H   0  0  0  0  0  0  0  0  0  0  0  0
   -0.4775    0.0737    4.6309 H   0  0  0  0  0  0  0  0  0  0  0  0
  5  6  2  0  0  0  0
  5  7  1  0  0  0  0
  2  3  1  0  0  0  0
  2  4  1  0  0  0  0
  2  5  1  0  0  0  0
  1  2  1  0  0  0  0
 22 23  2  0  0  0  0
 22 24  1  0  0  0  0
 19 20  1  0  0  0  0
 19 21  1  0  0  0  0
 17 18  2  0  0  0  0
 17 19  1  0  0  0  0
 14 15  1  0  0  0  0
 14 16  1  0  0  0  0
 14 17  1  0  0  0  0
 11 12  1  0  0  0  0
 11 13  1  0  0  0  0
 11 14  1  0  0  0  0
  9 10  1  0  0  0  0
  9 11  1  0  0  0  0
  9 22  1  0  0  0  0
  7  8  1  0  0  0  0
  7  9  1  0  0  0  0
 26 27  1  0  0  0  0
 26 28  1  0  0  0  0
 26 29  1  0  0  0  0
 24 25  1  0  0  0  0
 24 26  1  0  0  0  0
M  END
$$$$
default_name
  -OEChem-02102213163D

 29 28  0     1  0  0  0  0  0999 V2000
   -3.3998   -3.6239    1.3678 H   0  0  0  0  0  0  0  0  0  0  0  0
   -3.3608   -2.6749    0.8348 C   0  0  0  0  0  0  0  0  0  0  0  0
   -4.0988   -1.9909    1.2498 H   0  0  0  0  0  0  0  0  0  0  0  0
   -3.5618   -2.8419   -0.2222 H   0  0  0  0  0  0  0  0  0  0  0  0
   -1.9818   -2.0809    0.9918 C   0  0  0  0  0  0  0  0  0  0  0  0
   -1.1288   -2.6669    1.6468 O   0  0  0  0  0  0  0  0  0  0  0  0
   -1.7648   -0.9089    0.3998 N   0  0  0  0  0  0  0  0  0  0  0  0
   -2.5238   -0.4719   -0.1032 H   0  0  0  0  0  0  0  0  0  0  0  0
   -0.4848   -0.1959    0.4138 C   0  0  1  0  0  0  0  0  0  0  0  0
    0.2783   -0.8411   -0.0248 H   0  0  0  0  0  0  0  0  0  0  0  0
   -0.6101    1.0666   -0.4611 C   0  0  0  0  0  0  0  0  0  0  0  0
   -1.1839    1.8126    0.0928 H   0  0  0  0  0  0  0  0  0  0  0  0
    0.3857    1.4716   -0.6473 H   0  0  0  0  0  0  0  0  0  0  0  0
   -1.3079    0.8220   -1.8104 C   0  0  0  0  0  0  0  0  0  0  0  0
   -0.9221   -0.0912   -2.2630 H   0  0  0  0  0  0  0  0  0  0  0  0
   -2.3774    0.7006   -1.6388 H   0  0  0  0  0  0  0  0  0  0  0  0
   -1.1075    1.9638   -2.8068 C   0  0  0  0  0  0  0  0  0  0  0  0
   -0.5213    2.9947   -2.5342 O   0  0  0  0  0  0  0  0  0  0  0  0
   -1.5858    1.8235   -4.0241 N   0  0  0  0  0  0  0  0  0  0  0  0
   -1.4249    2.6036   -4.6373 H   0  0  0  0  0  0  0  0  0  0  0  0
   -2.0733    0.9958   -4.3015 H   0  0  0  0  0  0  0  0  0  0  0  0
   -0.0637    0.1284    1.8555 C   0  0  0  0  0  0  0  0  0  0  0  0
    1.0918   -0.0745    2.2236 O   0  0  0  0  0  0  0  0  0  0  0  0
   -1.0024    0.6217    2.6735 N   0  0  0  0  0  0  0  0  0  0  0  0
   -1.9213    0.7848    2.2938 H   0  0  0  0  0  0  0  0  0  0  0  0
   -0.7639    0.9676    4.0741 C   0  0  0  0  0  0  0  0  0  0  0  0
    0.0520    1.6916    4.1400 H   0  0  0  0  0  0  0  0  0  0  0  0
   -1.6626    1.3984    4.5182 H   0  0  0  0  0  0  0  0  0  0  0  0
   -0.4775    0.0737    4.6309 H   0  0  0  0  0  0  0  0  0  0  0  0
  5  6  2  0  0  0  0
  5  7  1  0  0  0  0
  2  3  1  0  0  0  0
  2  4  1  0  0  0  0
  2  5  1  0  0  0  0
  1  2  1  0  0  0  0
 22 23  2  0  0  0  0
 22 24  1  0  0  0  0
 19 20  1  0  0  0  0
 19 21  1  0  0  0  0
 17 18  2  0  0  0  0
 17 19  1  0  0  0  0
 14 15  1  0  0  0  0
 14 16  1  0  0  0  0
 14 17  1  0  0  0  0
 11 12  1  0  0  0  0
 11 13  1  0  0  0  0
 11 14  1  0  0  0  0
  9 10  1  0  0  0  0
  9 11  1  0  0  0  0
  9 22  1  0  0  0  0
  7  8  1  0  0  0  0
  7  9  1  0  0  0  0
 26 27  1  0  0  0  0
 26 28  1  0  0  0  0
 26 29  1  0  0  0  0
 24 25  1  0  0  0  0
 24 26  1  0  0  0  0
M  END
$$$$
default_name
  -OEChem-02102213163D

 29 28  0     1  0  0  0  0  0999 V2000
   -3.3998   -3.6239    1.3678 H   0  0  0  0  0  0  0  0  0  0  0  0
   -3.3608   -2.6749    0.8348 C   0  0  0  0  0  0  0  0  0  0  0  0
   -4.0988   -1.9909    1.2498 H   0  0  0  0  0  0  0  0  0  0  0  0
   -3.5618   -2.8419   -0.2222 H   0  0  0  0  0  0  0  0  0  0  0  0
   -1.9818   -2.0809    0.9918 C   0  0  0  0  0  0  0  0  0  0  0  0
   -1.1288   -2.6669    1.6468 O   0  0  0  0  0  0  0  0  0  0  0  0
   -1.7648   -0.9089    0.3998 N   0  0  0  0  0  0  0  0  0  0  0  0
   -2.5238   -0.4719   -0.1032 H   0  0  0  0  0  0  0  0  0  0  0  0
   -0.4848   -0.1959    0.4138 C   0  0  1  0  0  0  0  0  0  0  0  0
    0.2783   -0.8411   -0.0248 H   0  0  0  0  0  0  0  0  0  0  0  0
   -0.6101    1.0666   -0.4611 C   0  0  0  0  0  0  0  0  0  0  0  0
   -1.1839    1.8126    0.0928 H   0  0  0  0  0  0  0  0  0  0  0  0
    0.3857    1.4716   -0.6473 H   0  0  0  0  0  0  0  0  0  0  0  0
   -1.3079    0.8220   -1.8104 C   0  0  0  0  0  0  0  0  0  0  0  0
   -1.1296   -0.2027   -2.1355 H   0  0  0  0  0  0  0  0  0  0  0  0
   -2.3810    0.9658   -1.6849 H   0  0  0  0  0  0  0  0  0  0  0  0
   -0.8235    1.7592   -2.9166 C   0  0  0  0  0  0  0  0  0  0  0  0
   -0.0242    2.6575   -2.7302 O   0  0  0  0  0  0  0  0  0  0  0  0
   -1.2874    1.5823   -4.1347 N   0  0  0  0  0  0  0  0  0  0  0  0
   -0.9350    2.2255   -4.8221 H   0  0  0  0  0  0  0  0  0  0  0  0
   -1.9440    0.8577   -4.3434 H   0  0  0  0  0  0  0  0  0  0  0  0
   -0.0637    0.1284    1.8555 C   0  0  0  0  0  0  0  0  0  0  0  0
    1.0918   -0.0745    2.2236 O   0  0  0  0  0  0  0  0  0  0  0  0
   -1.0024    0.6217    2.6735 N   0  0  0  0  0  0  0  0  0  0  0  0
   -1.9213    0.7848    2.2938 H   0  0  0  0  0  0  0  0  0  0  0  0
   -0.7639    0.9676    4.0741 C   0  0  0  0  0  0  0  0  0  0  0  0
    0.0520    1.6916    4.1400 H   0  0  0  0  0  0  0  0  0  0  0  0
   -1.6626    1.3984    4.5182 H   0  0  0  0  0  0  0  0  0  0  0  0
   -0.4775    0.0737    4.6309 H   0  0  0  0  0  0  0  0  0  0  0  0
  5  6  2  0  0  0  0
  5  7  1  0  0  0  0
  2  3  1  0  0  0  0
  2  4  1  0  0  0  0
  2  5  1  0  0  0  0
  1  2  1  0  0  0  0
 22 23  2  0  0  0  0
 22 24  1  0  0  0  0
 19 20  1  0  0  0  0
 19 21  1  0  0  0  0
 17 18  2  0  0  0  0
 17 19  1  0  0  0  0
 14 15  1  0  0  0  0
 14 16  1  0  0  0  0
 14 17  1  0  0  0  0
 11 12  1  0  0  0  0
 11 13  1  0  0  0  0
 11 14  1  0  0  0  0
  9 10  1  0  0  0  0
  9 11  1  0  0  0  0
  9 22  1  0  0  0  0
  7  8  1  0  0  0  0
  7  9  1  0  0  0  0
 26 27  1  0  0  0  0
 26 28  1  0  0  0  0
 26 29  1  0  0  0  0
 24 25  1  0  0  0  0
 24 26  1  0  0  0  0
M  END
$$$$
default_name
  -OEChem-02102213163D

 29 28  0     1  0  0  0  0  0999 V2000
   -3.3998   -3.6239    1.3678 H   0  0  0  0  0  0  0  0  0  0  0  0
   -3.3608   -2.6749    0.8348 C   0  0  0  0  0  0  0  0  0  0  0  0
   -4.0988   -1.9909    1.2498 H   0  0  0  0  0  0  0  0  0  0  0  0
   -3.5618   -2.8419   -0.2222 H   0  0  0  0  0  0  0  0  0  0  0  0
   -1.9818   -2.0809    0.9918 C   0  0  0  0  0  0  0  0  0  0  0  0
   -1.1288   -2.6669    1.6468 O   0  0  0  0  0  0  0  0  0  0  0  0
   -1.7648   -0.9089    0.3998 N   0  0  0  0  0  0  0  0  0  0  0  0
   -2.5238   -0.4719   -0.1032 H   0  0  0  0  0  0  0  0  0  0  0  0
   -0.4848   -0.1959    0.4138 C   0  0  1  0  0  0  0  0  0  0  0  0
    0.2783   -0.8411   -0.0248 H   0  0  0  0  0  0  0  0  0  0  0  0
   -0.6101    1.0666   -0.4611 C   0  0  0  0  0  0  0  0  0  0  0  0
   -1.1839    1.8126    0.0928 H   0  0  0  0  0  0  0  0  0  0  0  0
    0.3857    1.4716   -0.6473 H   0  0  0  0  0  0  0  0  0  0  0  0
   -1.3079    0.8220   -1.8104 C   0  0  0  0  0  0  0  0  0  0  0  0
   -1.3606   -0.2484   -2.0078 H   0  0  0  0  0  0  0  0  0  0  0  0
   -2.3225    1.2173   -1.7608 H   0  0  0  0  0  0  0  0  0  0  0  0
   -0.5910    1.4843   -2.9870 C   0  0  0  0  0  0  0  0  0  0  0  0
    0.3876    2.1960   -2.8594 O   0  0  0  0  0  0  0  0  0  0  0  0
   -1.0494    1.2686   -4.2009 N   0  0  0  0  0  0  0  0  0  0  0  0
   -0.5400    1.7274   -4.9361 H   0  0  0  0  0  0  0  0  0  0  0  0
   -1.8487    0.6899   -4.3622 H   0  0  0  0  0  0  0  0  0  0  0  0
   -0.0637    0.1284    1.8555 C   0  0  0  0  0  0  0  0  0  0  0  0
    1.0918   -0.0745    2.2236 O   0  0  0  0  0  0  0  0  0  0  0  0
   -1.0024    0.6217    2.6735 N   0  0  0  0  0  0  0  0  0  0  0  0
   -1.9213    0.7848    2.2938 H   0  0  0  0  0  0  0  0  0  0  0  0
   -0.7639    0.9676    4.0741 C   0  0  0  0  0  0  0  0  0  0  0  0
    0.0520    1.6916    4.1400 H   0  0  0  0  0  0  0  0  0  0  0  0
   -1.6626    1.3984    4.5182 H   0  0  0  0  0  0  0  0  0  0  0  0
   -0.4775    0.0737    4.6309 H   0  0  0  0  0  0  0  0  0  0  0  0
  5  6  2  0  0  0  0
  5  7  1  0  0  0  0
  2  3  1  0  0  0  0
  2  4  1  0  0  0  0
  2  5  1  0  0  0  0
  1  2  1  0  0  0  0
 22 23  2  0  0  0  0
 22 24  1  0  0  0  0
 19 20  1  0  0  0  0
 19 21  1  0  0  0  0
 17 18  2  0  0  0  0
 17 19  1  0  0  0  0
 14 15  1  0  0  0  0
 14 16  1  0  0  0  0
 14 17  1  0  0  0  0
 11 12  1  0  0  0  0
 11 13  1  0  0  0  0
 11 14  1  0  0  0  0
  9 10  1  0  0  0  0
  9 11  1  0  0  0  0
  9 22  1  0  0  0  0
  7  8  1  0  0  0  0
  7  9  1  0  0  0  0
 26 27  1  0  0  0  0
 26 28  1  0  0  0  0
 26 29  1  0  0  0  0
 24 25  1  0  0  0  0
 24 26  1  0  0  0  0
M  END
$$$$
default_name
  -OEChem-02102213163D

 29 28  0     1  0  0  0  0  0999 V2000
   -3.3998   -3.6239    1.3678 H   0  0  0  0  0  0  0  0  0  0  0  0
   -3.3608   -2.6749    0.8348 C   0  0  0  0  0  0  0  0  0  0  0  0
   -4.0988   -1.9909    1.2498 H   0  0  0  0  0  0  0  0  0  0  0  0
   -3.5618   -2.8419   -0.2222 H   0  0  0  0  0  0  0  0  0  0  0  0
   -1.9818   -2.0809    0.9918 C   0  0  0  0  0  0  0  0  0  0  0  0
   -1.1288   -2.6669    1.6468 O   0  0  0  0  0  0  0  0  0  0  0  0
   -1.7648   -0.9089    0.3998 N   0  0  0  0  0  0  0  0  0  0  0  0
   -2.5238   -0.4719   -0.1032 H   0  0  0  0  0  0  0  0  0  0  0  0
   -0.4848   -0.1959    0.4138 C   0  0  1  0  0  0  0  0  0  0  0  0
    0.2783   -0.8411   -0.0248 H   0  0  0  0  0  0  0  0  0  0  0  0
   -0.6101    1.0666   -0.4611 C   0  0  0  0  0  0  0  0  0  0  0  0
   -1.1839    1.8126    0.0928 H   0  0  0  0  0  0  0  0  0  0  0  0
    0.3857    1.4716   -0.6473 H   0  0  0  0  0  0  0  0  0  0  0  0
   -1.3079    0.8220   -1.8104 C   0  0  0  0  0  0  0  0  0  0  0  0
   -1.5993   -0.2252   -1.8885 H   0  0  0  0  0  0  0  0  0  0  0  0
   -2.2057    1.4380   -1.8612 H   0  0  0  0  0  0  0  0  0  0  0  0
   -0.4261    1.1576   -3.0131 C   0  0  0  0  0  0  0  0  0  0  0  0
    0.6859    1.6416   -2.9132 O   0  0  0  0  0  0  0  0  0  0  0  0
   -0.8880    0.9038   -4.2182 N   0  0  0  0  0  0  0  0  0  0  0  0
   -0.2668    1.1432   -4.9714 H   0  0  0  0  0  0  0  0  0  0  0  0
   -1.7939    0.5041   -4.3569 H   0  0  0  0  0  0  0  0  0  0  0  0
   -0.0637    0.1284    1.8555 C   0  0  0  0  0  0  0  0  0  0  0  0
    1.0918   -0.0745    2.2236 O   0  0  0  0  0  0  0  0  0  0  0  0
   -1.0024    0.6217    2.6735 N   0  0  0  0  0  0  0  0  0  0  0  0
   -1.9213    0.7848    2.2938 H   0  0  0  0  0  0  0  0  0  0  0  0
   -0.7639    0.9676    4.0741 C   0  0  0  0  0  0  0  0  0  0  0  0
    0.0520    1.6916    4.1400 H   0  0  0  0  0  0  0  0  0  0  0  0
   -1.6626    1.3984    4.5182 H   0  0  0  0  0  0  0  0  0  0  0  0
   -0.4775    0.0737    4.6309 H   0  0  0  0  0  0  0  0  0  0  0  0
  5  6  2  0  0  0  0
  5  7  1  0  0  0  0
  2  3  1  0  0  0  0
  2  4  1  0  0  0  0
  2  5  1  0  0  0  0
  1  2  1  0  0  0  0
 22 23  2  0  0  0  0
 22 24  1  0  0  0  0
 19 20  1  0  0  0  0
 19 21  1  0  0  0  0
 17 18  2  0  0  0  0
 17 19  1  0  0  0  0
 14 15  1  0  0  0  0
 14 16  1  0  0  0  0
 14 17  1  0  0  0  0
 11 12  1  0  0  0  0
 11 13  1  0  0  0  0
 11 14  1  0  0  0  0
  9 10  1  0  0  0  0
  9 11  1  0  0  0  0
  9 22  1  0  0  0  0
  7  8  1  0  0  0  0
  7  9  1  0  0  0  0
 26 27  1  0  0  0  0
 26 28  1  0  0  0  0
 26 29  1  0  0  0  0
 24 25  1  0  0  0  0
 24 26  1  0  0  0  0
M  END
$$$$
default_name
  -OEChem-02102213163D

 29 28  0     1  0  0  0  0  0999 V2000
   -3.3998   -3.6239    1.3678 H   0  0  0  0  0  0  0  0  0  0  0  0
   -3.3608   -2.6749    0.8348 C   0  0  0  0  0  0  0  0  0  0  0  0
   -4.0988   -1.9909    1.2498 H   0  0  0  0  0  0  0  0  0  0  0  0
   -3.5618   -2.8419   -0.2222 H   0  0  0  0  0  0  0  0  0  0  0  0
   -1.9818   -2.0809    0.9918 C   0  0  0  0  0  0  0  0  0  0  0  0
   -1.1288   -2.6669    1.6468 O   0  0  0  0  0  0  0  0  0  0  0  0
   -1.7648   -0.9089    0.3998 N   0  0  0  0  0  0  0  0  0  0  0  0
   -2.5238   -0.4719   -0.1032 H   0  0  0  0  0  0  0  0  0  0  0  0
   -0.4848   -0.1959    0.4138 C   0  0  1  0  0  0  0  0  0  0  0  0
    0.2783   -0.8411   -0.0248 H   0  0  0  0  0  0  0  0  0  0  0  0
   -0.6101    1.0666   -0.4611 C   0  0  0  0  0  0  0  0  0  0  0  0
   -1.1839    1.8126    0.0928 H   0  0  0  0  0  0  0  0  0  0  0  0
    0.3857    1.4716   -0.6473 H   0  0  0  0  0  0  0  0  0  0  0  0
   -1.3079    0.8220   -1.8104 C   0  0  0  0  0  0  0  0  0  0  0  0
   -1.8295   -0.1345   -1.7859 H   0  0  0  0  0  0  0  0  0  0  0  0
   -2.0387    1.6129   -1.9793 H   0  0  0  0  0  0  0  0  0  0  0  0
   -0.3397    0.8016   -2.9932 C   0  0  0  0  0  0  0  0  0  0  0  0
    0.8504    1.0321   -2.8878 O   0  0  0  0  0  0  0  0  0  0  0  0
   -0.8142    0.5128   -4.1855 N   0  0  0  0  0  0  0  0  0  0  0  0
   -0.1341    0.5127   -4.9258 H   0  0  0  0  0  0  0  0  0  0  0  0
   -1.7835    0.3128   -4.3276 H   0  0  0  0  0  0  0  0  0  0  0  0
   -0.0637    0.1284    1.8555 C   0  0  0  0  0  0  0  0  0  0  0  0
    1.0918   -0.0745    2.2236 O   0  0  0  0  0  0  0  0  0  0  0  0
   -1.0024    0.6217    2.6735 N   0  0  0  0  0  0  0  0  0  0  0  0
   -1.9213    0.7848    2.2938 H   0  0  0  0  0  0  0  0  0  0  0  0
   -0.7639    0.9676    4.0741 C   0  0  0  0  0  0  0  0  0  0  0  0
    0.0520    1.6916    4.1400 H   0  0  0  0  0  0  0  0  0  0  0  0
   -1.6626    1.3984    4.5182 H   0  0  0  0  0  0  0  0  0  0  0  0
   -0.4775    0.0737    4.6309 H   0  0  0  0  0  0  0  0  0  0  0  0
  5  6  2  0  0  0  0
  5  7  1  0  0  0  0
  2  3  1  0  0  0  0
  2  4  1  0  0  0  0
  2  5  1  0  0  0  0
  1  2  1  0  0  0  0
 22 23  2  0  0  0  0
 22 24  1  0  0  0  0
 19 20  1  0  0  0  0
 19 21  1  0  0  0  0
 17 18  2  0  0  0  0
 17 19  1  0  0  0  0
 14 15  1  0  0  0  0
 14 16  1  0  0  0  0
 14 17  1  0  0  0  0
 11 12  1  0  0  0  0
 11 13  1  0  0  0  0
 11 14  1  0  0  0  0
  9 10  1  0  0  0  0
  9 11  1  0  0  0  0
  9 22  1  0  0  0  0
  7  8  1  0  0  0  0
  7  9  1  0  0  0  0
 26 27  1  0  0  0  0
 26 28  1  0  0  0  0
 26 29  1  0  0  0  0
 24 25  1  0  0  0  0
 24 26  1  0  0  0  0
M  END
$$$$
default_name
  -OEChem-02102213163D

 29 28  0     1  0  0  0  0  0999 V2000
   -3.3998   -3.6239    1.3678 H   0  0  0  0  0  0  0  0  0  0  0  0
   -3.3608   -2.6749    0.8348 C   0  0  0  0  0  0  0  0  0  0  0  0
   -4.0988   -1.9909    1.2498 H   0  0  0  0  0  0  0  0  0  0  0  0
   -3.5618   -2.8419   -0.2222 H   0  0  0  0  0  0  0  0  0  0  0  0
   -1.9818   -2.0809    0.9918 C   0  0  0  0  0  0  0  0  0  0  0  0
   -1.1288   -2.6669    1.6468 O   0  0  0  0  0  0  0  0  0  0  0  0
   -1.7648   -0.9089    0.3998 N   0  0  0  0  0  0  0  0  0  0  0  0
   -2.5238   -0.4719   -0.1032 H   0  0  0  0  0  0  0  0  0  0  0  0
   -0.4848   -0.1959    0.4138 C   0  0  1  0  0  0  0  0  0  0  0  0
    0.2783   -0.8411   -0.0248 H   0  0  0  0  0  0  0  0  0  0  0  0
   -0.6101    1.0666   -0.4611 C   0  0  0  0  0  0  0  0  0  0  0  0
   -1.1839    1.8126    0.0928 H   0  0  0  0  0  0  0  0  0  0  0  0
    0.3857    1.4716   -0.6473 H   0  0  0  0  0  0  0  0  0  0  0  0
   -1.3079    0.8220   -1.8104 C   0  0  0  0  0  0  0  0  0  0  0  0
   -2.0355    0.0174   -1.7069 H   0  0  0  0  0  0  0  0  0  0  0  0
   -1.8328    1.7301   -2.1070 H   0  0  0  0  0  0  0  0  0  0  0  0
   -0.3380    0.4405   -2.9286 C   0  0  0  0  0  0  0  0  0  0  0  0
    0.8699    0.4089   -2.7849 O   0  0  0  0  0  0  0  0  0  0  0  0
   -0.8330    0.1222   -4.1050 N   0  0  0  0  0  0  0  0  0  0  0  0
   -0.1509   -0.1210   -4.8022 H   0  0  0  0  0  0  0  0  0  0  0  0
   -1.8180    0.1291   -4.2764 H   0  0  0  0  0  0  0  0  0  0  0  0
   -0.0637    0.1284    1.8555 C   0  0  0  0  0  0  0  0  0  0  0  0
    1.0918   -0.0745    2.2236 O   0  0  0  0  0  0  0  0  0  0  0  0
   -1.0024    0.6217    2.6735 N   0  0  0  0  0  0  0  0  0  0  0  0
   -1.9213    0.7848    2.2938 H   0  0  0  0  0  0  0  0  0  0  0  0
   -0.7639    0.9676    4.0741 C   0  0  0  0  0  0  0  0  0  0  0  0
    0.0520    1.6916    4.1400 H   0  0  0  0  0  0  0  0  0  0  0  0
   -1.6626    1.3984    4.5182 H   0  0  0  0  0  0  0  0  0  0  0  0
   -0.4775    0.0737    4.6309 H   0  0  0  0  0  0  0  0  0  0  0  0
  5  6  2  0  0  0  0
  5  7  1  0  0  0  0
  2  3  1  0  0  0  0
  2  4  1  0  0  0  0
  2  5  1  0  0  0  0
  1  2  1  0  0  0  0
 22 23  2  0  0  0  0
 22 24  1  0  0  0  0
 19 20  1  0  0  0  0
 19 21  1  0  0  0  0
 17 18  2  0  0  0  0
 17 19  1  0  0  0  0
 14 15  1  0  0  0  0
 14 16  1  0  0  0  0
 14 17  1  0  0  0  0
 11 12  1  0  0  0  0
 11 13  1  0  0  0  0
 11 14  1  0  0  0  0
  9 10  1  0  0  0  0
  9 11  1  0  0  0  0
  9 22  1  0  0  0  0
  7  8  1  0  0  0  0
  7  9  1  0  0  0  0
 26 27  1  0  0  0  0
 26 28  1  0  0  0  0
 26 29  1  0  0  0  0
 24 25  1  0  0  0  0
 24 26  1  0  0  0  0
M  END
$$$$
default_name
  -OEChem-02102213163D

 29 28  0     1  0  0  0  0  0999 V2000
   -3.3998   -3.6239    1.3678 H   0  0  0  0  0  0  0  0  0  0  0  0
   -3.3608   -2.6749    0.8348 C   0  0  0  0  0  0  0  0  0  0  0  0
   -4.0988   -1.9909    1.2498 H   0  0  0  0  0  0  0  0  0  0  0  0
   -3.5618   -2.8419   -0.2222 H   0  0  0  0  0  0  0  0  0  0  0  0
   -1.9818   -2.0809    0.9918 C   0  0  0  0  0  0  0  0  0  0  0  0
   -1.1288   -2.6669    1.6468 O   0  0  0  0  0  0  0  0  0  0  0  0
   -1.7648   -0.9089    0.3998 N   0  0  0  0  0  0  0  0  0  0  0  0
   -2.5238   -0.4719   -0.1032 H   0  0  0  0  0  0  0  0  0  0  0  0
   -0.4848   -0.1959    0.4138 C   0  0  1  0  0  0  0  0  0  0  0  0
    0.2783   -0.8411   -0.0248 H   0  0  0  0  0  0  0  0  0  0  0  0
   -0.6101    1.0666   -0.4611 C   0  0  0  0  0  0  0  0  0  0  0  0
   -1.1839    1.8126    0.0928 H   0  0  0  0  0  0  0  0  0  0  0  0
    0.3857    1.4716   -0.6473 H   0  0  0  0  0  0  0  0  0  0  0  0
   -1.3079    0.8220   -1.8104 C   0  0  0  0  0  0  0  0  0  0  0  0
   -2.2033    0.2201   -1.6569 H   0  0  0  0  0  0  0  0  0  0  0  0
   -1.6021    1.7816   -2.2356 H   0  0  0  0  0  0  0  0  0  0  0  0
   -0.4209    0.0988   -2.8238 C   0  0  0  0  0  0  0  0  0  0  0  0
    0.7430   -0.1853   -2.6116 O   0  0  0  0  0  0  0  0  0  0  0  0
   -0.9431   -0.2415   -3.9821 N   0  0  0  0  0  0  0  0  0  0  0  0
   -0.3160   -0.7148   -4.6092 H   0  0  0  0  0  0  0  0  0  0  0  0
   -1.8951   -0.0345   -4.2069 H   0  0  0  0  0  0  0  0  0  0  0  0
   -0.0637    0.1284    1.8555 C   0  0  0  0  0  0  0  0  0  0  0  0
    1.0918   -0.0745    2.2236 O   0  0  0  0  0  0  0  0  0  0  0  0
   -1.0024    0.6217    2.6735 N   0  0  0  0  0  0  0  0  0  0  0  0
   -1.9213    0.7848    2.2938 H   0  0  0  0  0  0  0  0  0  0  0  0
   -0.7639    0.9676    4.0741 C   0  0  0  0  0  0  0  0  0  0  0  0
    0.0520    1.6916    4.1400 H   0  0  0  0  0  0  0  0  0  0  0  0
   -1.6626    1.3984    4.5182 H   0  0  0  0  0  0  0  0  0  0  0  0
   -0.4775    0.0737    4.6309 H   0  0  0  0  0  0  0  0  0  0  0  0
  5  6  2  0  0  0  0
  5  7  1  0  0  0  0
  2  3  1  0  0  0  0
  2  4  1  0  0  0  0
  2  5  1  0  0  0  0
  1  2  1  0  0  0  0
 22 23  2  0  0  0  0
 22 24  1  0  0  0  0
 19 20  1  0  0  0  0
 19 21  1  0  0  0  0
 17 18  2  0  0  0  0
 17 19  1  0  0  0  0
 14 15  1  0  0  0  0
 14 16  1  0  0  0  0
 14 17  1  0  0  0  0
 11 12  1  0  0  0  0
 11 13  1  0  0  0  0
 11 14  1  0  0  0  0
  9 10  1  0  0  0  0
  9 11  1  0  0  0  0
  9 22  1  0  0  0  0
  7  8  1  0  0  0  0
  7  9  1  0  0  0  0
 26 27  1  0  0  0  0
 26 28  1  0  0  0  0
 26 29  1  0  0  0  0
 24 25  1  0  0  0  0
 24 26  1  0  0  0  0
M  END
$$$$
default_name
  -OEChem-02102213163D

 29 28  0     1  0  0  0  0  0999 V2000
   -3.3998   -3.6239    1.3678 H   0  0  0  0  0  0  0  0  0  0  0  0
   -3.3608   -2.6749    0.8348 C   0  0  0  0  0  0  0  0  0  0  0  0
   -4.0988   -1.9909    1.2498 H   0  0  0  0  0  0  0  0  0  0  0  0
   -3.5618   -2.8419   -0.2222 H   0  0  0  0  0  0  0  0  0  0  0  0
   -1.9818   -2.0809    0.9918 C   0  0  0  0  0  0  0  0  0  0  0  0
   -1.1288   -2.6669    1.6468 O   0  0  0  0  0  0  0  0  0  0  0  0
   -1.7648   -0.9089    0.3998 N   0  0  0  0  0  0  0  0  0  0  0  0
   -2.5238   -0.4719   -0.1032 H   0  0  0  0  0  0  0  0  0  0  0  0
   -0.4848   -0.1959    0.4138 C   0  0  1  0  0  0  0  0  0  0  0  0
    0.2783   -0.8411   -0.0248 H   0  0  0  0  0  0  0  0  0  0  0  0
   -0.6101    1.0666   -0.4611 C   0  0  0  0  0  0  0  0  0  0  0  0
   -1.1839    1.8126    0.0928 H   0  0  0  0  0  0  0  0  0  0  0  0
    0.3857    1.4716   -0.6473 H   0  0  0  0  0  0  0  0  0  0  0  0
   -1.3079    0.8220   -1.8104 C   0  0  0  0  0  0  0  0  0  0  0  0
   -2.3214    0.4599   -1.6393 H   0  0  0  0  0  0  0  0  0  0  0  0
   -1.3623    1.7638   -2.3564 H   0  0  0  0  0  0  0  0  0  0  0  0
   -0.5829   -0.2000   -2.6859 C   0  0  0  0  0  0  0  0  0  0  0  0
    0.4785   -0.7102   -2.3797 O   0  0  0  0  0  0  0  0  0  0  0  0
   -1.1370   -0.5533   -3.8253 N   0  0  0  0  0  0  0  0  0  0  0  0
   -0.6183   -1.2283   -4.3598 H   0  0  0  0  0  0  0  0  0  0  0  0
   -2.0096   -0.1669   -4.1237 H   0  0  0  0  0  0  0  0  0  0  0  0
   -0.0637    0.1284    1.8555 C   0  0  0  0  0  0  0  0  0  0  0  0
    1.0918   -0.0745    2.2236 O   0  0  0  0  0  0  0  0  0  0  0  0
   -1.0024    0.6217    2.6735 N   0  0  0  0  0  0  0  0  0  0  0  0
   -1.9213    0.7848    2.2938 H   0  0  0  0  0  0  0  0  0  0  0  0
   -0.7639    0.9676    4.0741 C   0  0  0  0  0  0  0  0  0  0  0  0
    0.0520    1.6916    4.1400 H   0  0  0  0  0  0  0  0  0  0  0  0
   -1.6626    1.3984    4.5182 H   0  0  0  0  0  0  0  0  0  0  0  0
   -0.4775    0.0737    4.6309 H   0  0  0  0  0  0  0  0  0  0  0  0
  5  6  2  0  0  0  0
  5  7  1  0  0  0  0
  2  3  1  0  0  0  0
  2  4  1  0  0  0  0
  2  5  1  0  0  0  0
  1  2  1  0  0  0  0
 22 23  2  0  0  0  0
 22 24  1  0  0  0  0
 19 20  1  0  0  0  0
 19 21  1  0  0  0  0
 17 18  2  0  0  0  0
 17 19  1  0  0  0  0
 14 15  1  0  0  0  0
 14 16  1  0  0  0  0
 14 17  1  0  0  0  0
 11 12  1  0  0  0  0
 11 13  1  0  0  0  0
 11 14  1  0  0  0  0
  9 10  1  0  0  0  0
  9 11  1  0  0  0  0
  9 22  1  0  0  0  0
  7  8  1  0  0  0  0
  7  9  1  0  0  0  0
 26 27  1  0  0  0  0
 26 28  1  0  0  0  0
 26 29  1  0  0  0  0
 24 25  1  0  0  0  0
 24 26  1  0  0  0  0
M  END
$$$$
default_name
  -OEChem-02102213163D

 29 28  0     1  0  0  0  0  0999 V2000
   -3.3998   -3.6239    1.3678 H   0  0  0  0  0  0  0  0  0  0  0  0
   -3.3608   -2.6749    0.8348 C   0  0  0  0  0  0  0  0  0  0  0  0
   -4.0988   -1.9909    1.2498 H   0  0  0  0  0  0  0  0  0  0  0  0
   -3.5618   -2.8419   -0.2222 H   0  0  0  0  0  0  0  0  0  0  0  0
   -1.9818   -2.0809    0.9918 C   0  0  0  0  0  0  0  0  0  0  0  0
   -1.1288   -2.6669    1.6468 O   0  0  0  0  0  0  0  0  0  0  0  0
   -1.7648   -0.9089    0.3998 N   0  0  0  0  0  0  0  0  0  0  0  0
   -2.5238   -0.4719   -0.1032 H   0  0  0  0  0  0  0  0  0  0  0  0
   -0.4848   -0.1959    0.4138 C   0  0  1  0  0  0  0  0  0  0  0  0
    0.2783   -0.8411   -0.0248 H   0  0  0  0  0  0  0  0  0  0  0  0
   -0.6101    1.0666   -0.4611 C   0  0  0  0  0  0  0  0  0  0  0  0
   -1.1839    1.8126    0.0928 H   0  0  0  0  0  0  0  0  0  0  0  0
    0.3857    1.4716   -0.6473 H   0  0  0  0  0  0  0  0  0  0  0  0
   -1.3079    0.8220   -1.8104 C   0  0  0  0  0  0  0  0  0  0  0  0
   -2.3818    0.7204   -1.6553 H   0  0  0  0  0  0  0  0  0  0  0  0
   -1.1296    1.6781   -2.4612 H   0  0  0  0  0  0  0  0  0  0  0  0
   -0.8129   -0.4358   -2.5242 C   0  0  0  0  0  0  0  0  0  0  0  0
    0.0943   -1.1299   -2.1049 O   0  0  0  0  0  0  0  0  0  0  0  0
   -1.4016   -0.7920   -3.6452 N   0  0  0  0  0  0  0  0  0  0  0  0
   -1.0370   -1.6264   -4.0712 H   0  0  0  0  0  0  0  0  0  0  0  0
   -2.1537   -0.2590   -4.0325 H   0  0  0  0  0  0  0  0  0  0  0  0
   -0.0637    0.1284    1.8555 C   0  0  0  0  0  0  0  0  0  0  0  0
    1.0918   -0.0745    2.2236 O   0  0  0  0  0  0  0  0  0  0  0  0
   -1.0024    0.6217    2.6735 N   0  0  0  0  0  0  0  0  0  0  0  0
   -1.9213    0.7848    2.2938 H   0  0  0  0  0  0  0  0  0  0  0  0
   -0.7639    0.9676    4.0741 C   0  0  0  0  0  0  0  0  0  0  0  0
    0.0520    1.6916    4.1400 H   0  0  0  0  0  0  0  0  0  0  0  0
   -1.6626    1.3984    4.5182 H   0  0  0  0  0  0  0  0  0  0  0  0
   -0.4775    0.0737    4.6309 H   0  0  0  0  0  0  0  0  0  0  0  0
  5  6  2  0  0  0  0
  5  7  1  0  0  0  0
  2  3  1  0  0  0  0
  2  4  1  0  0  0  0
  2  5  1  0  0  0  0
  1  2  1  0  0  0  0
 22 23  2  0  0  0  0
 22 24  1  0  0  0  0
 19 20  1  0  0  0  0
 19 21  1  0  0  0  0
 17 18  2  0  0  0  0
 17 19  1  0  0  0  0
 14 15  1  0  0  0  0
 14 16  1  0  0  0  0
 14 17  1  0  0  0  0
 11 12  1  0  0  0  0
 11 13  1  0  0  0  0
 11 14  1  0  0  0  0
  9 10  1  0  0  0  0
  9 11  1  0  0  0  0
  9 22  1  0  0  0  0
  7  8  1  0  0  0  0
  7  9  1  0  0  0  0
 26 27  1  0  0  0  0
 26 28  1  0  0  0  0
 26 29  1  0  0  0  0
 24 25  1  0  0  0  0
 24 26  1  0  0  0  0
M  END
$$$$
default_name
  -OEChem-02102213163D

 29 28  0     1  0  0  0  0  0999 V2000
   -3.3998   -3.6239    1.3678 H   0  0  0  0  0  0  0  0  0  0  0  0
   -3.3608   -2.6749    0.8348 C   0  0  0  0  0  0  0  0  0  0  0  0
   -4.0988   -1.9909    1.2498 H   0  0  0  0  0  0  0  0  0  0  0  0
   -3.5618   -2.8419   -0.2222 H   0  0  0  0  0  0  0  0  0  0  0  0
   -1.9818   -2.0809    0.9918 C   0  0  0  0  0  0  0  0  0  0  0  0
   -1.1288   -2.6669    1.6468 O   0  0  0  0  0  0  0  0  0  0  0  0
   -1.7648   -0.9089    0.3998 N   0  0  0  0  0  0  0  0  0  0  0  0
   -2.5238   -0.4719   -0.1032 H   0  0  0  0  0  0  0  0  0  0  0  0
   -0.4848   -0.1959    0.4138 C   0  0  1  0  0  0  0  0  0  0  0  0
    0.2783   -0.8411   -0.0248 H   0  0  0  0  0  0  0  0  0  0  0  0
   -0.6101    1.0666   -0.4611 C   0  0  0  0  0  0  0  0  0  0  0  0
   -1.1839    1.8126    0.0928 H   0  0  0  0  0  0  0  0  0  0  0  0
    0.3857    1.4716   -0.6473 H   0  0  0  0  0  0  0  0  0  0  0  0
   -1.3079    0.8220   -1.8104 C   0  0  0  0  0  0  0  0  0  0  0  0
   -2.3803    0.9838   -1.7038 H   0  0  0  0  0  0  0  0  0  0  0  0
   -0.9201    1.5301   -2.5427 H   0  0  0  0  0  0  0  0  0  0  0  0
   -1.0952   -0.5923   -2.3498 C   0  0  0  0  0  0  0  0  0  0  0  0
   -0.3833   -1.4158   -1.8061 O   0  0  0  0  0  0  0  0  0  0  0  0
   -1.7188   -0.9414   -3.4541 N   0  0  0  0  0  0  0  0  0  0  0  0
   -1.5437   -1.8820   -3.7628 H   0  0  0  0  0  0  0  0  0  0  0  0
   -2.3175   -0.3046   -3.9395 H   0  0  0  0  0  0  0  0  0  0  0  0
   -0.0637    0.1284    1.8555 C   0  0  0  0  0  0  0  0  0  0  0  0
    1.0918   -0.0745    2.2236 O   0  0  0  0  0  0  0  0  0  0  0  0
   -1.0024    0.6217    2.6735 N   0  0  0  0  0  0  0  0  0  0  0  0
   -1.9213    0.7848    2.2938 H   0  0  0  0  0  0  0  0  0  0  0  0
   -0.7639    0.9676    4.0741 C   0  0  0  0  0  0  0  0  0  0  0  0
    0.0520    1.6916    4.1400 H   0  0  0  0  0  0  0  0  0  0  0  0
   -1.6626    1.3984    4.5182 H   0  0  0  0  0  0  0  0  0  0  0  0
   -0.4775    0.0737    4.6309 H   0  0  0  0  0  0  0  0  0  0  0  0
  5  6  2  0  0  0  0
  5  7  1  0  0  0  0
  2  3  1  0  0  0  0
  2  4  1  0  0  0  0
  2  5  1  0  0  0  0
  1  2  1  0  0  0  0
 22 23  2  0  0  0  0
 22 24  1  0  0  0  0
 19 20  1  0  0  0  0
 19 21  1  0  0  0  0
 17 18  2  0  0  0  0
 17 19  1  0  0  0  0
 14 15  1  0  0  0  0
 14 16  1  0  0  0  0
 14 17  1  0  0  0  0
 11 12  1  0  0  0  0
 11 13  1  0  0  0  0
 11 14  1  0  0  0  0
  9 10  1  0  0  0  0
  9 11  1  0  0  0  0
  9 22  1  0  0  0  0
  7  8  1  0  0  0  0
  7  9  1  0  0  0  0
 26 27  1  0  0  0  0
 26 28  1  0  0  0  0
 26 29  1  0  0  0  0
 24 25  1  0  0  0  0
 24 26  1  0  0  0  0
M  END
$$$$
default_name
  -OEChem-02102213163D

 29 28  0     1  0  0  0  0  0999 V2000
   -3.3998   -3.6239    1.3678 H   0  0  0  0  0  0  0  0  0  0  0  0
   -3.3608   -2.6749    0.8348 C   0  0  0  0  0  0  0  0  0  0  0  0
   -4.0988   -1.9909    1.2498 H   0  0  0  0  0  0  0  0  0  0  0  0
   -3.5618   -2.8419   -0.2222 H   0  0  0  0  0  0  0  0  0  0  0  0
   -1.9818   -2.0809    0.9918 C   0  0  0  0  0  0  0  0  0  0  0  0
   -1.1288   -2.6669    1.6468 O   0  0  0  0  0  0  0  0  0  0  0  0
   -1.7648   -0.9089    0.3998 N   0  0  0  0  0  0  0  0  0  0  0  0
   -2.5238   -0.4719   -0.1032 H   0  0  0  0  0  0  0  0  0  0  0  0
   -0.4848   -0.1959    0.4138 C   0  0  1  0  0  0  0  0  0  0  0  0
    0.2783   -0.8411   -0.0248 H   0  0  0  0  0  0  0  0  0  0  0  0
   -0.6101    1.0666   -0.4611 C   0  0  0  0  0  0  0  0  0  0  0  0
   -1.1839    1.8126    0.0928 H   0  0  0  0  0  0  0  0  0  0  0  0
    0.3857    1.4716   -0.6473 H   0  0  0  0  0  0  0  0  0  0  0  0
   -1.3079    0.8220   -1.8104 C   0  0  0  0  0  0  0  0  0  0  0  0
   -2.3171    1.2322   -1.7815 H   0  0  0  0  0  0  0  0  0  0  0  0
   -0.7479    1.3301   -2.5955 H   0  0  0  0  0  0  0  0  0  0  0  0
   -1.4106   -0.6590   -2.1747 C   0  0  0  0  0  0  0  0  0  0  0  0
   -0.9219   -1.5486   -1.5035 O   0  0  0  0  0  0  0  0  0  0  0  0
   -2.0669   -0.9914   -3.2651 N   0  0  0  0  0  0  0  0  0  0  0  0
   -2.1038   -1.9776   -3.4558 H   0  0  0  0  0  0  0  0  0  0  0  0
   -2.4900   -0.3005   -3.8511 H   0  0  0  0  0  0  0  0  0  0  0  0
   -0.0637    0.1284    1.8555 C   0  0  0  0  0  0  0  0  0  0  0  0
    1.0918   -0.0745    2.2236 O   0  0  0  0  0  0  0  0  0  0  0  0
   -1.0024    0.6217    2.6735 N   0  0  0  0  0  0  0  0  0  0  0  0
   -1.9213    0.7848    2.2938 H   0  0  0  0  0  0  0  0  0  0  0  0
   -0.7639    0.9676    4.0741 C   0  0  0  0  0  0  0  0  0  0  0  0
    0.0520    1.6916    4.1400 H   0  0  0  0  0  0  0  0  0  0  0  0
   -1.6626    1.3984    4.5182 H   0  0  0  0  0  0  0  0  0  0  0  0
   -0.4775    0.0737    4.6309 H   0  0  0  0  0  0  0  0  0  0  0  0
  5  6  2  0  0  0  0
  5  7  1  0  0  0  0
  2  3  1  0  0  0  0
  2  4  1  0  0  0  0
  2  5  1  0  0  0  0
  1  2  1  0  0  0  0
 22 23  2  0  0  0  0
 22 24  1  0  0  0  0
 19 20  1  0  0  0  0
 19 21  1  0  0  0  0
 17 18  2  0  0  0  0
 17 19  1  0  0  0  0
 14 15  1  0  0  0  0
 14 16  1  0  0  0  0
 14 17  1  0  0  0  0
 11 12  1  0  0  0  0
 11 13  1  0  0  0  0
 11 14  1  0  0  0  0
  9 10  1  0  0  0  0
  9 11  1  0  0  0  0
  9 22  1  0  0  0  0
  7  8  1  0  0  0  0
  7  9  1  0  0  0  0
 26 27  1  0  0  0  0
 26 28  1  0  0  0  0
 26 29  1  0  0  0  0
 24 25  1  0  0  0  0
 24 26  1  0  0  0  0
M  END
$$$$
default_name
  -OEChem-02102213163D

 29 28  0     1  0  0  0  0  0999 V2000
   -3.3998   -3.6239    1.3678 H   0  0  0  0  0  0  0  0  0  0  0  0
   -3.3608   -2.6749    0.8348 C   0  0  0  0  0  0  0  0  0  0  0  0
   -4.0988   -1.9909    1.2498 H   0  0  0  0  0  0  0  0  0  0  0  0
   -3.5618   -2.8419   -0.2222 H   0  0  0  0  0  0  0  0  0  0  0  0
   -1.9818   -2.0809    0.9918 C   0  0  0  0  0  0  0  0  0  0  0  0
   -1.1288   -2.6669    1.6468 O   0  0  0  0  0  0  0  0  0  0  0  0
   -1.7648   -0.9089    0.3998 N   0  0  0  0  0  0  0  0  0  0  0  0
   -2.5238   -0.4719   -0.1032 H   0  0  0  0  0  0  0  0  0  0  0  0
   -0.4848   -0.1959    0.4138 C   0  0  1  0  0  0  0  0  0  0  0  0
    0.2783   -0.8411   -0.0248 H   0  0  0  0  0  0  0  0  0  0  0  0
   -0.6101    1.0666   -0.4611 C   0  0  0  0  0  0  0  0  0  0  0  0
   -1.1839    1.8126    0.0928 H   0  0  0  0  0  0  0  0  0  0  0  0
    0.3857    1.4716   -0.6473 H   0  0  0  0  0  0  0  0  0  0  0  0
   -1.3079    0.8220   -1.8104 C   0  0  0  0  0  0  0  0  0  0  0  0
   -2.1965    1.4487   -1.8831 H   0  0  0  0  0  0  0  0  0  0  0  0
   -0.6249    1.0917   -2.6159 H   0  0  0  0  0  0  0  0  0  0  0  0
   -1.7375   -0.6312   -2.0106 C   0  0  0  0  0  0  0  0  0  0  0  0
   -1.4847   -1.5190   -1.2178 O   0  0  0  0  0  0  0  0  0  0  0  0
   -2.4223   -0.9384   -3.0909 N   0  0  0  0  0  0  0  0  0  0  0  0
   -2.6792   -1.9069   -3.1711 H   0  0  0  0  0  0  0  0  0  0  0  0
   -2.6592   -0.2470   -3.7733 H   0  0  0  0  0  0  0  0  0  0  0  0
   -0.0637    0.1284    1.8555 C   0  0  0  0  0  0  0  0  0  0  0  0
    1.0918   -0.0745    2.2236 O   0  0  0  0  0  0  0  0  0  0  0  0
   -1.0024    0.6217    2.6735 N   0  0  0  0  0  0  0  0  0  0  0  0
   -1.9213    0.7848    2.2938 H   0  0  0  0  0  0  0  0  0  0  0  0
   -0.7639    0.9676    4.0741 C   0  0  0  0  0  0  0  0  0  0  0  0
    0.0520    1.6916    4.1400 H   0  0  0  0  0  0  0  0  0  0  0  0
   -1.6626    1.3984    4.5182 H   0  0  0  0  0  0  0  0  0  0  0  0
   -0.4775    0.0737    4.6309 H   0  0  0  0  0  0  0  0  0  0  0  0
  5  6  2  0  0  0  0
  5  7  1  0  0  0  0
  2  3  1  0  0  0  0
  2  4  1  0  0  0  0
  2  5  1  0  0  0  0
  1  2  1  0  0  0  0
 22 23  2  0  0  0  0
 22 24  1  0  0  0  0
 19 20  1  0  0  0  0
 19 21  1  0  0  0  0
 17 18  2  0  0  0  0
 17 19  1  0  0  0  0
 14 15  1  0  0  0  0
 14 16  1  0  0  0  0
 14 17  1  0  0  0  0
 11 12  1  0  0  0  0
 11 13  1  0  0  0  0
 11 14  1  0  0  0  0
  9 10  1  0  0  0  0
  9 11  1  0  0  0  0
  9 22  1  0  0  0  0
  7  8  1  0  0  0  0
  7  9  1  0  0  0  0
 26 27  1  0  0  0  0
 26 28  1  0  0  0  0
 26 29  1  0  0  0  0
 24 25  1  0  0  0  0
 24 26  1  0  0  0  0
M  END
$$$$
default_name
  -OEChem-02102213163D

 29 28  0     1  0  0  0  0  0999 V2000
   -3.3998   -3.6239    1.3678 H   0  0  0  0  0  0  0  0  0  0  0  0
   -3.3608   -2.6749    0.8348 C   0  0  0  0  0  0  0  0  0  0  0  0
   -4.0988   -1.9909    1.2498 H   0  0  0  0  0  0  0  0  0  0  0  0
   -3.5618   -2.8419   -0.2222 H   0  0  0  0  0  0  0  0  0  0  0  0
   -1.9818   -2.0809    0.9918 C   0  0  0  0  0  0  0  0  0  0  0  0
   -1.1288   -2.6669    1.6468 O   0  0  0  0  0  0  0  0  0  0  0  0
   -1.7648   -0.9089    0.3998 N   0  0  0  0  0  0  0  0  0  0  0  0
   -2.5238   -0.4719   -0.1032 H   0  0  0  0  0  0  0  0  0  0  0  0
   -0.4848   -0.1959    0.4138 C   0  0  1  0  0  0  0  0  0  0  0  0
    0.2783   -0.8411   -0.0248 H   0  0  0  0  0  0  0  0  0  0  0  0
   -0.6101    1.0666   -0.4611 C   0  0  0  0  0  0  0  0  0  0  0  0
   -1.1839    1.8126    0.0928 H   0  0  0  0  0  0  0  0  0  0  0  0
    0.3857    1.4716   -0.6473 H   0  0  0  0  0  0  0  0  0  0  0  0
   -1.3079    0.8220   -1.8104 C   0  0  0  0  0  0  0  0  0  0  0  0
   -2.0267    1.6186   -2.0017 H   0  0  0  0  0  0  0  0  0  0  0  0
   -0.5593    0.8310   -2.6026 H   0  0  0  0  0  0  0  0  0  0  0  0
   -2.0538   -0.5110   -1.8689 C   0  0  0  0  0  0  0  0  0  0  0  0
   -2.0334   -1.3292   -0.9685 O   0  0  0  0  0  0  0  0  0  0  0  0
   -2.7607   -0.7861   -2.9435 N   0  0  0  0  0  0  0  0  0  0  0  0
   -3.2307   -1.6745   -2.9280 H   0  0  0  0  0  0  0  0  0  0  0  0
   -2.8137   -0.1478   -3.7113 H   0  0  0  0  0  0  0  0  0  0  0  0
   -0.0637    0.1284    1.8555 C   0  0  0  0  0  0  0  0  0  0  0  0
    1.0918   -0.0745    2.2236 O   0  0  0  0  0  0  0  0  0  0  0  0
   -1.0024    0.6217    2.6735 N   0  0  0  0  0  0  0  0  0  0  0  0
   -1.9213    0.7848    2.2938 H   0  0  0  0  0  0  0  0  0  0  0  0
   -0.7639    0.9676    4.0741 C   0  0  0  0  0  0  0  0  0  0  0  0
    0.0520    1.6916    4.1400 H   0  0  0  0  0  0  0  0  0  0  0  0
   -1.6626    1.3984    4.5182 H   0  0  0  0  0  0  0  0  0  0  0  0
   -0.4775    0.0737    4.6309 H   0  0  0  0  0  0  0  0  0  0  0  0
  5  6  2  0  0  0  0
  5  7  1  0  0  0  0
  2  3  1  0  0  0  0
  2  4  1  0  0  0  0
  2  5  1  0  0  0  0
  1  2  1  0  0  0  0
 22 23  2  0  0  0  0
 22 24  1  0  0  0  0
 19 20  1  0  0  0  0
 19 21  1  0  0  0  0
 17 18  2  0  0  0  0
 17 19  1  0  0  0  0
 14 15  1  0  0  0  0
 14 16  1  0  0  0  0
 14 17  1  0  0  0  0
 11 12  1  0  0  0  0
 11 13  1  0  0  0  0
 11 14  1  0  0  0  0
  9 10  1  0  0  0  0
  9 11  1  0  0  0  0
  9 22  1  0  0  0  0
  7  8  1  0  0  0  0
  7  9  1  0  0  0  0
 26 27  1  0  0  0  0
 26 28  1  0  0  0  0
 26 29  1  0  0  0  0
 24 25  1  0  0  0  0
 24 26  1  0  0  0  0
M  END
$$$$
default_name
  -OEChem-02102213163D

 29 28  0     1  0  0  0  0  0999 V2000
   -3.3998   -3.6239    1.3678 H   0  0  0  0  0  0  0  0  0  0  0  0
   -3.3608   -2.6749    0.8348 C   0  0  0  0  0  0  0  0  0  0  0  0
   -4.0988   -1.9909    1.2498 H   0  0  0  0  0  0  0  0  0  0  0  0
   -3.5618   -2.8419   -0.2222 H   0  0  0  0  0  0  0  0  0  0  0  0
   -1.9818   -2.0809    0.9918 C   0  0  0  0  0  0  0  0  0  0  0  0
   -1.1288   -2.6669    1.6468 O   0  0  0  0  0  0  0  0  0  0  0  0
   -1.7648   -0.9089    0.3998 N   0  0  0  0  0  0  0  0  0  0  0  0
   -2.5238   -0.4719   -0.1032 H   0  0  0  0  0  0  0  0  0  0  0  0
   -0.4848   -0.1959    0.4138 C   0  0  1  0  0  0  0  0  0  0  0  0
    0.2783   -0.8411   -0.0248 H   0  0  0  0  0  0  0  0  0  0  0  0
   -0.6101    1.0666   -0.4611 C   0  0  0  0  0  0  0  0  0  0  0  0
   -1.1839    1.8126    0.0928 H   0  0  0  0  0  0  0  0  0  0  0  0
    0.3857    1.4716   -0.6473 H   0  0  0  0  0  0  0  0  0  0  0  0
   -1.3079    0.8220   -1.8104 C   0  0  0  0  0  0  0  0  0  0  0  0
   -1.8192    1.7301   -2.1292 H   0  0  0  0  0  0  0  0  0  0  0  0
   -0.5556    0.5659   -2.5564 H   0  0  0  0  0  0  0  0  0  0  0  0
   -2.3378   -0.3064   -1.7591 C   0  0  0  0  0  0  0  0  0  0  0  0
   -2.5306   -0.9920   -0.7725 O   0  0  0  0  0  0  0  0  0  0  0  0
   -3.0591   -0.5449   -2.8329 N   0  0  0  0  0  0  0  0  0  0  0  0
   -3.7206   -1.2964   -2.7432 H   0  0  0  0  0  0  0  0  0  0  0  0
   -2.9431   -0.0097   -3.6695 H   0  0  0  0  0  0  0  0  0  0  0  0
   -0.0637    0.1284    1.8555 C   0  0  0  0  0  0  0  0  0  0  0  0
    1.0918   -0.0745    2.2236 O   0  0  0  0  0  0  0  0  0  0  0  0
   -1.0024    0.6217    2.6735 N   0  0  0  0  0  0  0  0  0  0  0  0
   -1.9213    0.7848    2.2938 H   0  0  0  0  0  0  0  0  0  0  0  0
   -0.7639    0.9676    4.0741 C   0  0  0  0  0  0  0  0  0  0  0  0
    0.0520    1.6916    4.1400 H   0  0  0  0  0  0  0  0  0  0  0  0
   -1.6626    1.3984    4.5182 H   0  0  0  0  0  0  0  0  0  0  0  0
   -0.4775    0.0737    4.6309 H   0  0  0  0  0  0  0  0  0  0  0  0
  5  6  2  0  0  0  0
  5  7  1  0  0  0  0
  2  3  1  0  0  0  0
  2  4  1  0  0  0  0
  2  5  1  0  0  0  0
  1  2  1  0  0  0  0
 22 23  2  0  0  0  0
 22 24  1  0  0  0  0
 19 20  1  0  0  0  0
 19 21  1  0  0  0  0
 17 18  2  0  0  0  0
 17 19  1  0  0  0  0
 14 15  1  0  0  0  0
 14 16  1  0  0  0  0
 14 17  1  0  0  0  0
 11 12  1  0  0  0  0
 11 13  1  0  0  0  0
 11 14  1  0  0  0  0
  9 10  1  0  0  0  0
  9 11  1  0  0  0  0
  9 22  1  0  0  0  0
  7  8  1  0  0  0  0
  7  9  1  0  0  0  0
 26 27  1  0  0  0  0
 26 28  1  0  0  0  0
 26 29  1  0  0  0  0
 24 25  1  0  0  0  0
 24 26  1  0  0  0  0
M  END
$$$$
default_name
  -OEChem-02102213163D

 29 28  0     1  0  0  0  0  0999 V2000
   -3.3998   -3.6239    1.3678 H   0  0  0  0  0  0  0  0  0  0  0  0
   -3.3608   -2.6749    0.8348 C   0  0  0  0  0  0  0  0  0  0  0  0
   -4.0988   -1.9909    1.2498 H   0  0  0  0  0  0  0  0  0  0  0  0
   -3.5618   -2.8419   -0.2222 H   0  0  0  0  0  0  0  0  0  0  0  0
   -1.9818   -2.0809    0.9918 C   0  0  0  0  0  0  0  0  0  0  0  0
   -1.1288   -2.6669    1.6468 O   0  0  0  0  0  0  0  0  0  0  0  0
   -1.7648   -0.9089    0.3998 N   0  0  0  0  0  0  0  0  0  0  0  0
   -2.5238   -0.4719   -0.1032 H   0  0  0  0  0  0  0  0  0  0  0  0
   -0.4848   -0.1959    0.4138 C   0  0  1  0  0  0  0  0  0  0  0  0
    0.2783   -0.8411   -0.0248 H   0  0  0  0  0  0  0  0  0  0  0  0
   -0.6101    1.0666   -0.4611 C   0  0  0  0  0  0  0  0  0  0  0  0
   -1.1839    1.8126    0.0928 H   0  0  0  0  0  0  0  0  0  0  0  0
    0.3857    1.4716   -0.6473 H   0  0  0  0  0  0  0  0  0  0  0  0
   -1.3079    0.8220   -1.8104 C   0  0  0  0  0  0  0  0  0  0  0  0
   -1.5882    1.7758   -2.2569 H   0  0  0  0  0  0  0  0  0  0  0  0
   -0.6142    0.3144   -2.4805 H   0  0  0  0  0  0  0  0  0  0  0  0
   -2.5703   -0.0314   -1.6887 C   0  0  0  0  0  0  0  0  0  0  0  0
   -2.9423   -0.5305   -0.6433 O   0  0  0  0  0  0  0  0  0  0  0  0
   -3.2971   -0.2312   -2.7667 N   0  0  0  0  0  0  0  0  0  0  0  0
   -4.1156   -0.7983   -2.6292 H   0  0  0  0  0  0  0  0  0  0  0  0
   -3.0383    0.1580   -3.6506 H   0  0  0  0  0  0  0  0  0  0  0  0
   -0.0637    0.1284    1.8555 C   0  0  0  0  0  0  0  0  0  0  0  0
    1.0918   -0.0745    2.2236 O   0  0  0  0  0  0  0  0  0  0  0  0
   -1.0024    0.6217    2.6735 N   0  0  0  0  0  0  0  0  0  0  0  0
   -1.9213    0.7848    2.2938 H   0  0  0  0  0  0  0  0  0  0  0  0
   -0.7639    0.9676    4.0741 C   0  0  0  0  0  0  0  0  0  0  0  0
    0.0520    1.6916    4.1400 H   0  0  0  0  0  0  0  0  0  0  0  0
   -1.6626    1.3984    4.5182 H   0  0  0  0  0  0  0  0  0  0  0  0
   -0.4775    0.0737    4.6309 H   0  0  0  0  0  0  0  0  0  0  0  0
  5  6  2  0  0  0  0
  5  7  1  0  0  0  0
  2  3  1  0  0  0  0
  2  4  1  0  0  0  0
  2  5  1  0  0  0  0
  1  2  1  0  0  0  0
 22 23  2  0  0  0  0
 22 24  1  0  0  0  0
 19 20  1  0  0  0  0
 19 21  1  0  0  0  0
 17 18  2  0  0  0  0
 17 19  1  0  0  0  0
 14 15  1  0  0  0  0
 14 16  1  0  0  0  0
 14 17  1  0  0  0  0
 11 12  1  0  0  0  0
 11 13  1  0  0  0  0
 11 14  1  0  0  0  0
  9 10  1  0  0  0  0
  9 11  1  0  0  0  0
  9 22  1  0  0  0  0
  7  8  1  0  0  0  0
  7  9  1  0  0  0  0
 26 27  1  0  0  0  0
 26 28  1  0  0  0  0
 26 29  1  0  0  0  0
 24 25  1  0  0  0  0
 24 26  1  0  0  0  0
M  END
$$$$
default_name
  -OEChem-02102213163D

 29 28  0     1  0  0  0  0  0999 V2000
   -3.3998   -3.6239    1.3678 H   0  0  0  0  0  0  0  0  0  0  0  0
   -3.3608   -2.6749    0.8348 C   0  0  0  0  0  0  0  0  0  0  0  0
   -4.0988   -1.9909    1.2498 H   0  0  0  0  0  0  0  0  0  0  0  0
   -3.5618   -2.8419   -0.2222 H   0  0  0  0  0  0  0  0  0  0  0  0
   -1.9818   -2.0809    0.9918 C   0  0  0  0  0  0  0  0  0  0  0  0
   -1.1288   -2.6669    1.6468 O   0  0  0  0  0  0  0  0  0  0  0  0
   -1.7648   -0.9089    0.3998 N   0  0  0  0  0  0  0  0  0  0  0  0
   -2.5238   -0.4719   -0.1032 H   0  0  0  0  0  0  0  0  0  0  0  0
   -0.4848   -0.1959    0.4138 C   0  0  1  0  0  0  0  0  0  0  0  0
    0.2783   -0.8411   -0.0248 H   0  0  0  0  0  0  0  0  0  0  0  0
   -0.6101    1.0666   -0.4611 C   0  0  0  0  0  0  0  0  0  0  0  0
   -1.1839    1.8126    0.0928 H   0  0  0  0  0  0  0  0  0  0  0  0
    0.3857    1.4716   -0.6473 H   0  0  0  0  0  0  0  0  0  0  0  0
   -1.3079    0.8220   -1.8104 C   0  0  0  0  0  0  0  0  0  0  0  0
   -1.3495    1.7526   -2.3762 H   0  0  0  0  0  0  0  0  0  0  0  0
   -0.7310    0.0936   -2.3801 H   0  0  0  0  0  0  0  0  0  0  0  0
   -2.7352    0.2953   -1.6626 C   0  0  0  0  0  0  0  0  0  0  0  0
   -3.2406    0.0239   -0.5895 O   0  0  0  0  0  0  0  0  0  0  0  0
   -3.4585    0.1336   -2.7494 N   0  0  0  0  0  0  0  0  0  0  0  0
   -4.3888   -0.2141   -2.5939 H   0  0  0  0  0  0  0  0  0  0  0  0
   -3.0931    0.3439   -3.6560 H   0  0  0  0  0  0  0  0  0  0  0  0
   -0.0637    0.1284    1.8555 C   0  0  0  0  0  0  0  0  0  0  0  0
    1.0918   -0.0745    2.2236 O   0  0  0  0  0  0  0  0  0  0  0  0
   -1.0024    0.6217    2.6735 N   0  0  0  0  0  0  0  0  0  0  0  0
   -1.9213    0.7848    2.2938 H   0  0  0  0  0  0  0  0  0  0  0  0
   -0.7639    0.9676    4.0741 C   0  0  0  0  0  0  0  0  0  0  0  0
    0.0520    1.6916    4.1400 H   0  0  0  0  0  0  0  0  0  0  0  0
   -1.6626    1.3984    4.5182 H   0  0  0  0  0  0  0  0  0  0  0  0
   -0.4775    0.0737    4.6309 H   0  0  0  0  0  0  0  0  0  0  0  0
  5  6  2  0  0  0  0
  5  7  1  0  0  0  0
  2  3  1  0  0  0  0
  2  4  1  0  0  0  0
  2  5  1  0  0  0  0
  1  2  1  0  0  0  0
 22 23  2  0  0  0  0
 22 24  1  0  0  0  0
 19 20  1  0  0  0  0
 19 21  1  0  0  0  0
 17 18  2  0  0  0  0
 17 19  1  0  0  0  0
 14 15  1  0  0  0  0
 14 16  1  0  0  0  0
 14 17  1  0  0  0  0
 11 12  1  0  0  0  0
 11 13  1  0  0  0  0
 11 14  1  0  0  0  0
  9 10  1  0  0  0  0
  9 11  1  0  0  0  0
  9 22  1  0  0  0  0
  7  8  1  0  0  0  0
  7  9  1  0  0  0  0
 26 27  1  0  0  0  0
 26 28  1  0  0  0  0
 26 29  1  0  0  0  0
 24 25  1  0  0  0  0
 24 26  1  0  0  0  0
M  END
$$$$
default_name
  -OEChem-02102213163D

 29 28  0     1  0  0  0  0  0999 V2000
   -3.3998   -3.6239    1.3678 H   0  0  0  0  0  0  0  0  0  0  0  0
   -3.3608   -2.6749    0.8348 C   0  0  0  0  0  0  0  0  0  0  0  0
   -4.0988   -1.9909    1.2498 H   0  0  0  0  0  0  0  0  0  0  0  0
   -3.5618   -2.8419   -0.2222 H   0  0  0  0  0  0  0  0  0  0  0  0
   -1.9818   -2.0809    0.9918 C   0  0  0  0  0  0  0  0  0  0  0  0
   -1.1288   -2.6669    1.6468 O   0  0  0  0  0  0  0  0  0  0  0  0
   -1.7648   -0.9089    0.3998 N   0  0  0  0  0  0  0  0  0  0  0  0
   -2.5238   -0.4719   -0.1032 H   0  0  0  0  0  0  0  0  0  0  0  0
   -0.4848   -0.1959    0.4138 C   0  0  1  0  0  0  0  0  0  0  0  0
    0.2783   -0.8411   -0.0248 H   0  0  0  0  0  0  0  0  0  0  0  0
   -0.6101    1.0666   -0.4611 C   0  0  0  0  0  0  0  0  0  0  0  0
   -1.1839    1.8126    0.0928 H   0  0  0  0  0  0  0  0  0  0  0  0
    0.3857    1.4716   -0.6473 H   0  0  0  0  0  0  0  0  0  0  0  0
   -1.3079    0.8220   -1.8104 C   0  0  0  0  0  0  0  0  0  0  0  0
   -1.1193    1.6619   -2.4788 H   0  0  0  0  0  0  0  0  0  0  0  0
   -0.8980   -0.0813   -2.2621 H   0  0  0  0  0  0  0  0  0  0  0  0
   -2.8216    0.6513   -1.6825 C   0  0  0  0  0  0  0  0  0  0  0  0
   -3.4051    0.6334   -0.6149 O   0  0  0  0  0  0  0  0  0  0  0  0
   -3.5323    0.5247   -2.7821 N   0  0  0  0  0  0  0  0  0  0  0  0
   -4.5215    0.4164   -2.6395 H   0  0  0  0  0  0  0  0  0  0  0  0
   -3.1035    0.5352   -3.6853 H   0  0  0  0  0  0  0  0  0  0  0  0
   -0.0637    0.1284    1.8555 C   0  0  0  0  0  0  0  0  0  0  0  0
    1.0918   -0.0745    2.2236 O   0  0  0  0  0  0  0  0  0  0  0  0
   -1.0024    0.6217    2.6735 N   0  0  0  0  0  0  0  0  0  0  0  0
   -1.9213    0.7848    2.2938 H   0  0  0  0  0  0  0  0  0  0  0  0
   -0.7639    0.9676    4.0741 C   0  0  0  0  0  0  0  0  0  0  0  0
    0.0520    1.6916    4.1400 H   0  0  0  0  0  0  0  0  0  0  0  0
   -1.6626    1.3984    4.5182 H   0  0  0  0  0  0  0  0  0  0  0  0
   -0.4775    0.0737    4.6309 H   0  0  0  0  0  0  0  0  0  0  0  0
  5  6  2  0  0  0  0
  5  7  1  0  0  0  0
  2  3  1  0  0  0  0
  2  4  1  0  0  0  0
  2  5  1  0  0  0  0
  1  2  1  0  0  0  0
 22 23  2  0  0  0  0
 22 24  1  0  0  0  0
 19 20  1  0  0  0  0
 19 21  1  0  0  0  0
 17 18  2  0  0  0  0
 17 19  1  0  0  0  0
 14 15  1  0  0  0  0
 14 16  1  0  0  0  0
 14 17  1  0  0  0  0
 11 12  1  0  0  0  0
 11 13  1  0  0  0  0
 11 14  1  0  0  0  0
  9 10  1  0  0  0  0
  9 11  1  0  0  0  0
  9 22  1  0  0  0  0
  7  8  1  0  0  0  0
  7  9  1  0  0  0  0
 26 27  1  0  0  0  0
 26 28  1  0  0  0  0
 26 29  1  0  0  0  0
 24 25  1  0  0  0  0
 24 26  1  0  0  0  0
M  END
$$$$
default_name
  -OEChem-02102213163D

 29 28  0     1  0  0  0  0  0999 V2000
   -3.3998   -3.6239    1.3678 H   0  0  0  0  0  0  0  0  0  0  0  0
   -3.3608   -2.6749    0.8348 C   0  0  0  0  0  0  0  0  0  0  0  0
   -4.0988   -1.9909    1.2498 H   0  0  0  0  0  0  0  0  0  0  0  0
   -3.5618   -2.8419   -0.2222 H   0  0  0  0  0  0  0  0  0  0  0  0
   -1.9818   -2.0809    0.9918 C   0  0  0  0  0  0  0  0  0  0  0  0
   -1.1288   -2.6669    1.6468 O   0  0  0  0  0  0  0  0  0  0  0  0
   -1.7648   -0.9089    0.3998 N   0  0  0  0  0  0  0  0  0  0  0  0
   -2.5238   -0.4719   -0.1032 H   0  0  0  0  0  0  0  0  0  0  0  0
   -0.4848   -0.1959    0.4138 C   0  0  1  0  0  0  0  0  0  0  0  0
    0.2783   -0.8411   -0.0248 H   0  0  0  0  0  0  0  0  0  0  0  0
   -0.6101    1.0666   -0.4611 C   0  0  0  0  0  0  0  0  0  0  0  0
   -1.1839    1.8126    0.0928 H   0  0  0  0  0  0  0  0  0  0  0  0
    0.3857    1.4716   -0.6473 H   0  0  0  0  0  0  0  0  0  0  0  0
   -1.3079    0.8220   -1.8104 C   0  0  0  0  0  0  0  0  0  0  0  0
   -0.9132    1.5100   -2.5578 H   0  0  0  0  0  0  0  0  0  0  0  0
   -1.1039   -0.1985   -2.1343 H   0  0  0  0  0  0  0  0  0  0  0  0
   -2.8233    1.0124   -1.7471 C   0  0  0  0  0  0  0  0  0  0  0  0
   -3.4246    1.2566   -0.7178 O   0  0  0  0  0  0  0  0  0  0  0  0
   -3.5135    0.9153   -2.8626 N   0  0  0  0  0  0  0  0  0  0  0  0
   -4.5047    1.0501   -2.7631 H   0  0  0  0  0  0  0  0  0  0  0  0
   -3.0690    0.7189   -3.7364 H   0  0  0  0  0  0  0  0  0  0  0  0
   -0.0637    0.1284    1.8555 C   0  0  0  0  0  0  0  0  0  0  0  0
    1.0918   -0.0745    2.2236 O   0  0  0  0  0  0  0  0  0  0  0  0
   -1.0024    0.6217    2.6735 N   0  0  0  0  0  0  0  0  0  0  0  0
   -1.9213    0.7848    2.2938 H   0  0  0  0  0  0  0  0  0  0  0  0
   -0.7639    0.9676    4.0741 C   0  0  0  0  0  0  0  0  0  0  0  0
    0.0520    1.6916    4.1400 H   0  0  0  0  0  0  0  0  0  0  0  0
   -1.6626    1.3984    4.5182 H   0  0  0  0  0  0  0  0  0  0  0  0
   -0.4775    0.0737    4.6309 H   0  0  0  0  0  0  0  0  0  0  0  0
  5  6  2  0  0  0  0
  5  7  1  0  0  0  0
  2  3  1  0  0  0  0
  2  4  1  0  0  0  0
  2  5  1  0  0  0  0
  1  2  1  0  0  0  0
 22 23  2  0  0  0  0
 22 24  1  0  0  0  0
 19 20  1  0  0  0  0
 19 21  1  0  0  0  0
 17 18  2  0  0  0  0
 17 19  1  0  0  0  0
 14 15  1  0  0  0  0
 14 16  1  0  0  0  0
 14 17  1  0  0  0  0
 11 12  1  0  0  0  0
 11 13  1  0  0  0  0
 11 14  1  0  0  0  0
  9 10  1  0  0  0  0
  9 11  1  0  0  0  0
  9 22  1  0  0  0  0
  7  8  1  0  0  0  0
  7  9  1  0  0  0  0
 26 27  1  0  0  0  0
 26 28  1  0  0  0  0
 26 29  1  0  0  0  0
 24 25  1  0  0  0  0
 24 26  1  0  0  0  0
M  END
$$$$
default_name
  -OEChem-02102213163D

 29 28  0     1  0  0  0  0  0999 V2000
   -3.3998   -3.6239    1.3678 H   0  0  0  0  0  0  0  0  0  0  0  0
   -3.3608   -2.6749    0.8348 C   0  0  0  0  0  0  0  0  0  0  0  0
   -4.0988   -1.9909    1.2498 H   0  0  0  0  0  0  0  0  0  0  0  0
   -3.5618   -2.8419   -0.2222 H   0  0  0  0  0  0  0  0  0  0  0  0
   -1.9818   -2.0809    0.9918 C   0  0  0  0  0  0  0  0  0  0  0  0
   -1.1288   -2.6669    1.6468 O   0  0  0  0  0  0  0  0  0  0  0  0
   -1.7648   -0.9089    0.3998 N   0  0  0  0  0  0  0  0  0  0  0  0
   -2.5238   -0.4719   -0.1032 H   0  0  0  0  0  0  0  0  0  0  0  0
   -0.4848   -0.1959    0.4138 C   0  0  1  0  0  0  0  0  0  0  0  0
    0.2783   -0.8411   -0.0248 H   0  0  0  0  0  0  0  0  0  0  0  0
   -0.6101    1.0666   -0.4611 C   0  0  0  0  0  0  0  0  0  0  0  0
   -1.1839    1.8126    0.0928 H   0  0  0  0  0  0  0  0  0  0  0  0
    0.3857    1.4716   -0.6473 H   0  0  0  0  0  0  0  0  0  0  0  0
   -1.3079    0.8220   -1.8104 C   0  0  0  0  0  0  0  0  0  0  0  0
   -0.7455    1.3073   -2.6078 H   0  0  0  0  0  0  0  0  0  0  0  0
   -1.3346   -0.2499   -2.0057 H   0  0  0  0  0  0  0  0  0  0  0  0
   -2.7404    1.3540   -1.8519 C   0  0  0  0  0  0  0  0  0  0  0  0
   -3.2977    1.8508   -0.8911 O   0  0  0  0  0  0  0  0  0  0  0  0
   -3.4034    1.2789   -2.9855 N   0  0  0  0  0  0  0  0  0  0  0  0
   -4.3396    1.6439   -2.9561 H   0  0  0  0  0  0  0  0  0  0  0  0
   -2.9919    0.8825   -3.8060 H   0  0  0  0  0  0  0  0  0  0  0  0
   -0.0637    0.1284    1.8555 C   0  0  0  0  0  0  0  0  0  0  0  0
    1.0918   -0.0745    2.2236 O   0  0  0  0  0  0  0  0  0  0  0  0
   -1.0024    0.6217    2.6735 N   0  0  0  0  0  0  0  0  0  0  0  0
   -1.9213    0.7848    2.2938 H   0  0  0  0  0  0  0  0  0  0  0  0
   -0.7639    0.9676    4.0741 C   0  0  0  0  0  0  0  0  0  0  0  0
    0.0520    1.6916    4.1400 H   0  0  0  0  0  0  0  0  0  0  0  0
   -1.6626    1.3984    4.5182 H   0  0  0  0  0  0  0  0  0  0  0  0
   -0.4775    0.0737    4.6309 H   0  0  0  0  0  0  0  0  0  0  0  0
  5  6  2  0  0  0  0
  5  7  1  0  0  0  0
  2  3  1  0  0  0  0
  2  4  1  0  0  0  0
  2  5  1  0  0  0  0
  1  2  1  0  0  0  0
 22 23  2  0  0  0  0
 22 24  1  0  0  0  0
 19 20  1  0  0  0  0
 19 21  1  0  0  0  0
 17 18  2  0  0  0  0
 17 19  1  0  0  0  0
 14 15  1  0  0  0  0
 14 16  1  0  0  0  0
 14 17  1  0  0  0  0
 11 12  1  0  0  0  0
 11 13  1  0  0  0  0
 11 14  1  0  0  0  0
  9 10  1  0  0  0  0
  9 11  1  0  0  0  0
  9 22  1  0  0  0  0
  7  8  1  0  0  0  0
  7  9  1  0  0  0  0
 26 27  1  0  0  0  0
 26 28  1  0  0  0  0
 26 29  1  0  0  0  0
 24 25  1  0  0  0  0
 24 26  1  0  0  0  0
M  END
$$$$
default_name
  -OEChem-02102213163D

 29 28  0     1  0  0  0  0  0999 V2000
   -3.3998   -3.6239    1.3678 H   0  0  0  0  0  0  0  0  0  0  0  0
   -3.3608   -2.6749    0.8348 C   0  0  0  0  0  0  0  0  0  0  0  0
   -4.0988   -1.9909    1.2498 H   0  0  0  0  0  0  0  0  0  0  0  0
   -3.5618   -2.8419   -0.2222 H   0  0  0  0  0  0  0  0  0  0  0  0
   -1.9818   -2.0809    0.9918 C   0  0  0  0  0  0  0  0  0  0  0  0
   -1.1288   -2.6669    1.6468 O   0  0  0  0  0  0  0  0  0  0  0  0
   -1.7648   -0.9089    0.3998 N   0  0  0  0  0  0  0  0  0  0  0  0
   -2.5238   -0.4719   -0.1032 H   0  0  0  0  0  0  0  0  0  0  0  0
   -0.4848   -0.1959    0.4138 C   0  0  1  0  0  0  0  0  0  0  0  0
    0.2783   -0.8411   -0.0248 H   0  0  0  0  0  0  0  0  0  0  0  0
   -0.6101    1.0666   -0.4611 C   0  0  0  0  0  0  0  0  0  0  0  0
   -1.1839    1.8126    0.0928 H   0  0  0  0  0  0  0  0  0  0  0  0
    0.3857    1.4716   -0.6473 H   0  0  0  0  0  0  0  0  0  0  0  0
   -1.3079    0.8220   -1.8104 C   0  0  0  0  0  0  0  0  0  0  0  0
   -0.6274    1.0675   -2.6254 H   0  0  0  0  0  0  0  0  0  0  0  0
   -1.5744   -0.2322   -1.8849 H   0  0  0  0  0  0  0  0  0  0  0  0
   -2.5784    1.6529   -1.9898 C   0  0  0  0  0  0  0  0  0  0  0  0
   -3.0332    2.3757   -1.1230 O   0  0  0  0  0  0  0  0  0  0  0  0
   -3.2094    1.5907   -3.1423 N   0  0  0  0  0  0  0  0  0  0  0  0
   -4.0373    2.1574   -3.2055 H   0  0  0  0  0  0  0  0  0  0  0  0
   -2.8774    1.0149   -3.8892 H   0  0  0  0  0  0  0  0  0  0  0  0
   -0.0637    0.1284    1.8555 C   0  0  0  0  0  0  0  0  0  0  0  0
    1.0918   -0.0745    2.2236 O   0  0  0  0  0  0  0  0  0  0  0  0
   -1.0024    0.6217    2.6735 N   0  0  0  0  0  0  0  0  0  0  0  0
   -1.9213    0.7848    2.2938 H   0  0  0  0  0  0  0  0  0  0  0  0
   -0.7639    0.9676    4.0741 C   0  0  0  0  0  0  0  0  0  0  0  0
    0.0520    1.6916    4.1400 H   0  0  0  0  0  0  0  0  0  0  0  0
   -1.6626    1.3984    4.5182 H   0  0  0  0  0  0  0  0  0  0  0  0
   -0.4775    0.0737    4.6309 H   0  0  0  0  0  0  0  0  0  0  0  0
  5  6  2  0  0  0  0
  5  7  1  0  0  0  0
  2  3  1  0  0  0  0
  2  4  1  0  0  0  0
  2  5  1  0  0  0  0
  1  2  1  0  0  0  0
 22 23  2  0  0  0  0
 22 24  1  0  0  0  0
 19 20  1  0  0  0  0
 19 21  1  0  0  0  0
 17 18  2  0  0  0  0
 17 19  1  0  0  0  0
 14 15  1  0  0  0  0
 14 16  1  0  0  0  0
 14 17  1  0  0  0  0
 11 12  1  0  0  0  0
 11 13  1  0  0  0  0
 11 14  1  0  0  0  0
  9 10  1  0  0  0  0
  9 11  1  0  0  0  0
  9 22  1  0  0  0  0
  7  8  1  0  0  0  0
  7  9  1  0  0  0  0
 26 27  1  0  0  0  0
 26 28  1  0  0  0  0
 26 29  1  0  0  0  0
 24 25  1  0  0  0  0
 24 26  1  0  0  0  0
M  END
$$$$
default_name
  -OEChem-02102213163D

 29 28  0     1  0  0  0  0  0999 V2000
   -3.3998   -3.6239    1.3678 H   0  0  0  0  0  0  0  0  0  0  0  0
   -3.3608   -2.6749    0.8348 C   0  0  0  0  0  0  0  0  0  0  0  0
   -4.0988   -1.9909    1.2498 H   0  0  0  0  0  0  0  0  0  0  0  0
   -3.5618   -2.8419   -0.2222 H   0  0  0  0  0  0  0  0  0  0  0  0
   -1.9818   -2.0809    0.9918 C   0  0  0  0  0  0  0  0  0  0  0  0
   -1.1288   -2.6669    1.6468 O   0  0  0  0  0  0  0  0  0  0  0  0
   -1.7648   -0.9089    0.3998 N   0  0  0  0  0  0  0  0  0  0  0  0
   -2.5238   -0.4719   -0.1032 H   0  0  0  0  0  0  0  0  0  0  0  0
   -0.4848   -0.1959    0.4138 C   0  0  1  0  0  0  0  0  0  0  0  0
    0.2783   -0.8411   -0.0248 H   0  0  0  0  0  0  0  0  0  0  0  0
   -0.6101    1.0666   -0.4611 C   0  0  0  0  0  0  0  0  0  0  0  0
   -1.1839    1.8126    0.0928 H   0  0  0  0  0  0  0  0  0  0  0  0
    0.3857    1.4716   -0.6473 H   0  0  0  0  0  0  0  0  0  0  0  0
   -1.3079    0.8220   -1.8104 C   0  0  0  0  0  0  0  0  0  0  0  0
   -0.5670    0.8070   -2.6094 H   0  0  0  0  0  0  0  0  0  0  0  0
   -1.8070   -0.1464   -1.7802 H   0  0  0  0  0  0  0  0  0  0  0  0
   -2.3484    1.8887   -2.1515 C   0  0  0  0  0  0  0  0  0  0  0  0
   -2.6490    2.7954   -1.3978 O   0  0  0  0  0  0  0  0  0  0  0  0
   -2.9449    1.8295   -3.3224 N   0  0  0  0  0  0  0  0  0  0  0  0
   -3.6186    2.5555   -3.4942 H   0  0  0  0  0  0  0  0  0  0  0  0
   -2.7333    1.1070   -3.9804 H   0  0  0  0  0  0  0  0  0  0  0  0
   -0.0637    0.1284    1.8555 C   0  0  0  0  0  0  0  0  0  0  0  0
    1.0918   -0.0745    2.2236 O   0  0  0  0  0  0  0  0  0  0  0  0
   -1.0024    0.6217    2.6735 N   0  0  0  0  0  0  0  0  0  0  0  0
   -1.9213    0.7848    2.2938 H   0  0  0  0  0  0  0  0  0  0  0  0
   -0.7639    0.9676    4.0741 C   0  0  0  0  0  0  0  0  0  0  0  0
    0.0520    1.6916    4.1400 H   0  0  0  0  0  0  0  0  0  0  0  0
   -1.6626    1.3984    4.5182 H   0  0  0  0  0  0  0  0  0  0  0  0
   -0.4775    0.0737    4.6309 H   0  0  0  0  0  0  0  0  0  0  0  0
  5  6  2  0  0  0  0
  5  7  1  0  0  0  0
  2  3  1  0  0  0  0
  2  4  1  0  0  0  0
  2  5  1  0  0  0  0
  1  2  1  0  0  0  0
 22 23  2  0  0  0  0
 22 24  1  0  0  0  0
 19 20  1  0  0  0  0
 19 21  1  0  0  0  0
 17 18  2  0  0  0  0
 17 19  1  0  0  0  0
 14 15  1  0  0  0  0
 14 16  1  0  0  0  0
 14 17  1  0  0  0  0
 11 12  1  0  0  0  0
 11 13  1  0  0  0  0
 11 14  1  0  0  0  0
  9 10  1  0  0  0  0
  9 11  1  0  0  0  0
  9 22  1  0  0  0  0
  7  8  1  0  0  0  0
  7  9  1  0  0  0  0
 26 27  1  0  0  0  0
 26 28  1  0  0  0  0
 26 29  1  0  0  0  0
 24 25  1  0  0  0  0
 24 26  1  0  0  0  0
M  END
$$$$
default_name
  -OEChem-02102213163D

 29 28  0     1  0  0  0  0  0999 V2000
   -3.3998   -3.6239    1.3678 H   0  0  0  0  0  0  0  0  0  0  0  0
   -3.3608   -2.6749    0.8348 C   0  0  0  0  0  0  0  0  0  0  0  0
   -4.0988   -1.9909    1.2498 H   0  0  0  0  0  0  0  0  0  0  0  0
   -3.5618   -2.8419   -0.2222 H   0  0  0  0  0  0  0  0  0  0  0  0
   -1.9818   -2.0809    0.9918 C   0  0  0  0  0  0  0  0  0  0  0  0
   -1.1288   -2.6669    1.6468 O   0  0  0  0  0  0  0  0  0  0  0  0
   -1.7648   -0.9089    0.3998 N   0  0  0  0  0  0  0  0  0  0  0  0
   -2.5238   -0.4719   -0.1032 H   0  0  0  0  0  0  0  0  0  0  0  0
   -0.4848   -0.1959    0.4138 C   0  0  1  0  0  0  0  0  0  0  0  0
    0.2783   -0.8411   -0.0248 H   0  0  0  0  0  0  0  0  0  0  0  0
   -0.6101    1.0666   -0.4611 C   0  0  0  0  0  0  0  0  0  0  0  0
   -1.1839    1.8126    0.0928 H   0  0  0  0  0  0  0  0  0  0  0  0
    0.3857    1.4716   -0.6473 H   0  0  0  0  0  0  0  0  0  0  0  0
   -1.3079    0.8220   -1.8104 C   0  0  0  0  0  0  0  0  0  0  0  0
   -0.5684    0.5436   -2.5609 H   0  0  0  0  0  0  0  0  0  0  0  0
   -2.0166    0.0015   -1.6986 H   0  0  0  0  0  0  0  0  0  0  0  0
   -2.0661    2.0452   -2.3258 C   0  0  0  0  0  0  0  0  0  0  0  0
   -2.1714    3.0813   -1.6966 O   0  0  0  0  0  0  0  0  0  0  0  0
   -2.6277    1.9789   -3.5135 N   0  0  0  0  0  0  0  0  0  0  0  0
   -3.1119    2.8111   -3.8025 H   0  0  0  0  0  0  0  0  0  0  0  0
   -2.5695    1.1526   -4.0733 H   0  0  0  0  0  0  0  0  0  0  0  0
   -0.0637    0.1284    1.8555 C   0  0  0  0  0  0  0  0  0  0  0  0
    1.0918   -0.0745    2.2236 O   0  0  0  0  0  0  0  0  0  0  0  0
   -1.0024    0.6217    2.6735 N   0  0  0  0  0  0  0  0  0  0  0  0
   -1.9213    0.7848    2.2938 H   0  0  0  0  0  0  0  0  0  0  0  0
   -0.7639    0.9676    4.0741 C   0  0  0  0  0  0  0  0  0  0  0  0
    0.0520    1.6916    4.1400 H   0  0  0  0  0  0  0  0  0  0  0  0
   -1.6626    1.3984    4.5182 H   0  0  0  0  0  0  0  0  0  0  0  0
   -0.4775    0.0737    4.6309 H   0  0  0  0  0  0  0  0  0  0  0  0
  5  6  2  0  0  0  0
  5  7  1  0  0  0  0
  2  3  1  0  0  0  0
  2  4  1  0  0  0  0
  2  5  1  0  0  0  0
  1  2  1  0  0  0  0
 22 23  2  0  0  0  0
 22 24  1  0  0  0  0
 19 20  1  0  0  0  0
 19 21  1  0  0  0  0
 17 18  2  0  0  0  0
 17 19  1  0  0  0  0
 14 15  1  0  0  0  0
 14 16  1  0  0  0  0
 14 17  1  0  0  0  0
 11 12  1  0  0  0  0
 11 13  1  0  0  0  0
 11 14  1  0  0  0  0
  9 10  1  0  0  0  0
  9 11  1  0  0  0  0
  9 22  1  0  0  0  0
  7  8  1  0  0  0  0
  7  9  1  0  0  0  0
 26 27  1  0  0  0  0
 26 28  1  0  0  0  0
 26 29  1  0  0  0  0
 24 25  1  0  0  0  0
 24 26  1  0  0  0  0
M  END
$$$$
default_name
  -OEChem-02102213163D

 29 28  0     1  0  0  0  0  0999 V2000
   -3.3998   -3.6239    1.3678 H   0  0  0  0  0  0  0  0  0  0  0  0
   -3.3608   -2.6749    0.8348 C   0  0  0  0  0  0  0  0  0  0  0  0
   -4.0988   -1.9909    1.2498 H   0  0  0  0  0  0  0  0  0  0  0  0
   -3.5618   -2.8419   -0.2222 H   0  0  0  0  0  0  0  0  0  0  0  0
   -1.9818   -2.0809    0.9918 C   0  0  0  0  0  0  0  0  0  0  0  0
   -1.1288   -2.6669    1.6468 O   0  0  0  0  0  0  0  0  0  0  0  0
   -1.7648   -0.9089    0.3998 N   0  0  0  0  0  0  0  0  0  0  0  0
   -2.5238   -0.4719   -0.1032 H   0  0  0  0  0  0  0  0  0  0  0  0
   -0.4848   -0.1959    0.4138 C   0  0  1  0  0  0  0  0  0  0  0  0
    0.2783   -0.8411   -0.0248 H   0  0  0  0  0  0  0  0  0  0  0  0
   -0.6101    1.0666   -0.4611 C   0  0  0  0  0  0  0  0  0  0  0  0
   -1.1839    1.8126    0.0928 H   0  0  0  0  0  0  0  0  0  0  0  0
    0.3857    1.4716   -0.6473 H   0  0  0  0  0  0  0  0  0  0  0  0
   -1.3079    0.8220   -1.8104 C   0  0  0  0  0  0  0  0  0  0  0  0
   -0.6316    0.2951   -2.4832 H   0  0  0  0  0  0  0  0  0  0  0  0
   -2.1887    0.2015   -1.6458 H   0  0  0  0  0  0  0  0  0  0  0  0
   -1.7507    2.1119   -2.5010 C   0  0  0  0  0  0  0  0  0  0  0  0
   -1.6328    3.2141   -1.9992 O   0  0  0  0  0  0  0  0  0  0  0  0
   -2.2796    2.0288   -3.7025 N   0  0  0  0  0  0  0  0  0  0  0  0
   -2.5518    2.9067   -4.1095 H   0  0  0  0  0  0  0  0  0  0  0  0
   -2.3971    1.1485   -4.1618 H   0  0  0  0  0  0  0  0  0  0  0  0
   -0.0637    0.1284    1.8555 C   0  0  0  0  0  0  0  0  0  0  0  0
    1.0918   -0.0745    2.2236 O   0  0  0  0  0  0  0  0  0  0  0  0
   -1.0024    0.6217    2.6735 N   0  0  0  0  0  0  0  0  0  0  0  0
   -1.9213    0.7848    2.2938 H   0  0  0  0  0  0  0  0  0  0  0  0
   -0.7639    0.9676    4.0741 C   0  0  0  0  0  0  0  0  0  0  0  0
    0.0520    1.6916    4.1400 H   0  0  0  0  0  0  0  0  0  0  0  0
   -1.6626    1.3984    4.5182 H   0  0  0  0  0  0  0  0  0  0  0  0
   -0.4775    0.0737    4.6309 H   0  0  0  0  0  0  0  0  0  0  0  0
  5  6  2  0  0  0  0
  5  7  1  0  0  0  0
  2  3  1  0  0  0  0
  2  4  1  0  0  0  0
  2  5  1  0  0  0  0
  1  2  1  0  0  0  0
 22 23  2  0  0  0  0
 22 24  1  0  0  0  0
 19 20  1  0  0  0  0
 19 21  1  0  0  0  0
 17 18  2  0  0  0  0
 17 19  1  0  0  0  0
 14 15  1  0  0  0  0
 14 16  1  0  0  0  0
 14 17  1  0  0  0  0
 11 12  1  0  0  0  0
 11 13  1  0  0  0  0
 11 14  1  0  0  0  0
  9 10  1  0  0  0  0
  9 11  1  0  0  0  0
  9 22  1  0  0  0  0
  7  8  1  0  0  0  0
  7  9  1  0  0  0  0
 26 27  1  0  0  0  0
 26 28  1  0  0  0  0
 26 29  1  0  0  0  0
 24 25  1  0  0  0  0
 24 26  1  0  0  0  0
M  END
$$$$
default_name
  -OEChem-02102213163D

 29 28  0     1  0  0  0  0  0999 V2000
   -3.3998   -3.6239    1.3678 H   0  0  0  0  0  0  0  0  0  0  0  0
   -3.3608   -2.6749    0.8348 C   0  0  0  0  0  0  0  0  0  0  0  0
   -4.0988   -1.9909    1.2498 H   0  0  0  0  0  0  0  0  0  0  0  0
   -3.5618   -2.8419   -0.2222 H   0  0  0  0  0  0  0  0  0  0  0  0
   -1.9818   -2.0809    0.9918 C   0  0  0  0  0  0  0  0  0  0  0  0
   -1.1288   -2.6669    1.6468 O   0  0  0  0  0  0  0  0  0  0  0  0
   -1.7648   -0.9089    0.3998 N   0  0  0  0  0  0  0  0  0  0  0  0
   -2.5238   -0.4719   -0.1032 H   0  0  0  0  0  0  0  0  0  0  0  0
   -0.4848   -0.1959    0.4138 C   0  0  1  0  0  0  0  0  0  0  0  0
    0.2783   -0.8411   -0.0248 H   0  0  0  0  0  0  0  0  0  0  0  0
   -0.6101    1.0666   -0.4611 C   0  0  0  0  0  0  0  0  0  0  0  0
   -0.9383    1.8927    0.1732 H   0  0  0  0  0  0  0  0  0  0  0  0
    0.3708    1.3175   -0.8676 H   0  0  0  0  0  0  0  0  0  0  0  0
   -1.6079    0.9219   -1.6234 C   0  0  0  0  0  0  0  0  0  0  0  0
   -1.3006    0.1009   -2.2709 H   0  0  0  0  0  0  0  0  0  0  0  0
   -2.5936    0.6948   -1.2173 H   0  0  0  0  0  0  0  0  0  0  0  0
   -1.7198    2.1826   -2.4805 C   0  0  0  0  0  0  0  0  0  0  0  0
   -1.1376    3.2199   -2.2241 O   0  0  0  0  0  0  0  0  0  0  0  0
   -2.4778    2.1439   -3.5548 N   0  0  0  0  0  0  0  0  0  0  0  0
   -2.5143    2.9995   -4.0812 H   0  0  0  0  0  0  0  0  0  0  0  0
   -2.9761    1.3163   -3.8129 H   0  0  0  0  0  0  0  0  0  0  0  0
   -0.0637    0.1284    1.8555 C   0  0  0  0  0  0  0  0  0  0  0  0
    1.0918   -0.0745    2.2236 O   0  0  0  0  0  0  0  0  0  0  0  0
   -1.0024    0.6217    2.6735 N   0  0  0  0  0  0  0  0  0  0  0  0
   -1.9213    0.7848    2.2938 H   0  0  0  0  0  0  0  0  0  0  0  0
   -0.7639    0.9676    4.0741 C   0  0  0  0  0  0  0  0  0  0  0  0
    0.0520    1.6916    4.1400 H   0  0  0  0  0  0  0  0  0  0  0  0
   -1.6626    1.3984    4.5182 H   0  0  0  0  0  0  0  0  0  0  0  0
   -0.4775    0.0737    4.6309 H   0  0  0  0  0  0  0  0  0  0  0  0
  5  6  2  0  0  0  0
  5  7  1  0  0  0  0
  2  3  1  0  0  0  0
  2  4  1  0  0  0  0
  2  5  1  0  0  0  0
  1  2  1  0  0  0  0
 22 23  2  0  0  0  0
 22 24  1  0  0  0  0
 19 20  1  0  0  0  0
 19 21  1  0  0  0  0
 17 18  2  0  0  0  0
 17 19  1  0  0  0  0
 14 15  1  0  0  0  0
 14 16  1  0  0  0  0
 14 17  1  0  0  0  0
 11 12  1  0  0  0  0
 11 13  1  0  0  0  0
 11 14  1  0  0  0  0
  9 10  1  0  0  0  0
  9 11  1  0  0  0  0
  9 22  1  0  0  0  0
  7  8  1  0  0  0  0
  7  9  1  0  0  0  0
 26 27  1  0  0  0  0
 26 28  1  0  0  0  0
 26 29  1  0  0  0  0
 24 25  1  0  0  0  0
 24 26  1  0  0  0  0
M  END
$$$$
default_name
  -OEChem-02102213163D

 29 28  0     1  0  0  0  0  0999 V2000
   -3.3998   -3.6239    1.3678 H   0  0  0  0  0  0  0  0  0  0  0  0
   -3.3608   -2.6749    0.8348 C   0  0  0  0  0  0  0  0  0  0  0  0
   -4.0988   -1.9909    1.2498 H   0  0  0  0  0  0  0  0  0  0  0  0
   -3.5618   -2.8419   -0.2222 H   0  0  0  0  0  0  0  0  0  0  0  0
   -1.9818   -2.0809    0.9918 C   0  0  0  0  0  0  0  0  0  0  0  0
   -1.1288   -2.6669    1.6468 O   0  0  0  0  0  0  0  0  0  0  0  0
   -1.7648   -0.9089    0.3998 N   0  0  0  0  0  0  0  0  0  0  0  0
   -2.5238   -0.4719   -0.1032 H   0  0  0  0  0  0  0  0  0  0  0  0
   -0.4848   -0.1959    0.4138 C   0  0  1  0  0  0  0  0  0  0  0  0
    0.2783   -0.8411   -0.0248 H   0  0  0  0  0  0  0  0  0  0  0  0
   -0.6101    1.0666   -0.4611 C   0  0  0  0  0  0  0  0  0  0  0  0
   -0.9383    1.8927    0.1732 H   0  0  0  0  0  0  0  0  0  0  0  0
    0.3708    1.3175   -0.8676 H   0  0  0  0  0  0  0  0  0  0  0  0
   -1.6079    0.9219   -1.6234 C   0  0  0  0  0  0  0  0  0  0  0  0
   -1.4639   -0.0411   -2.1130 H   0  0  0  0  0  0  0  0  0  0  0  0
   -2.6221    0.9623   -1.2261 H   0  0  0  0  0  0  0  0  0  0  0  0
   -1.4619    2.0158   -2.6811 C   0  0  0  0  0  0  0  0  0  0  0  0
   -0.6882    2.9490   -2.5762 O   0  0  0  0  0  0  0  0  0  0  0  0
   -2.2044    1.9420   -3.7644 N   0  0  0  0  0  0  0  0  0  0  0  0
   -2.0670    2.6862   -4.4261 H   0  0  0  0  0  0  0  0  0  0  0  0
   -2.8543    1.1949   -3.9023 H   0  0  0  0  0  0  0  0  0  0  0  0
   -0.0637    0.1284    1.8555 C   0  0  0  0  0  0  0  0  0  0  0  0
    1.0918   -0.0745    2.2236 O   0  0  0  0  0  0  0  0  0  0  0  0
   -1.0024    0.6217    2.6735 N   0  0  0  0  0  0  0  0  0  0  0  0
   -1.9213    0.7848    2.2938 H   0  0  0  0  0  0  0  0  0  0  0  0
   -0.7639    0.9676    4.0741 C   0  0  0  0  0  0  0  0  0  0  0  0
    0.0520    1.6916    4.1400 H   0  0  0  0  0  0  0  0  0  0  0  0
   -1.6626    1.3984    4.5182 H   0  0  0  0  0  0  0  0  0  0  0  0
   -0.4775    0.0737    4.6309 H   0  0  0  0  0  0  0  0  0  0  0  0
  5  6  2  0  0  0  0
  5  7  1  0  0  0  0
  2  3  1  0  0  0  0
  2  4  1  0  0  0  0
  2  5  1  0  0  0  0
  1  2  1  0  0  0  0
 22 23  2  0  0  0  0
 22 24  1  0  0  0  0
 19 20  1  0  0  0  0
 19 21  1  0  0  0  0
 17 18  2  0  0  0  0
 17 19  1  0  0  0  0
 14 15  1  0  0  0  0
 14 16  1  0  0  0  0
 14 17  1  0  0  0  0
 11 12  1  0  0  0  0
 11 13  1  0  0  0  0
 11 14  1  0  0  0  0
  9 10  1  0  0  0  0
  9 11  1  0  0  0  0
  9 22  1  0  0  0  0
  7  8  1  0  0  0  0
  7  9  1  0  0  0  0
 26 27  1  0  0  0  0
 26 28  1  0  0  0  0
 26 29  1  0  0  0  0
 24 25  1  0  0  0  0
 24 26  1  0  0  0  0
M  END
$$$$
default_name
  -OEChem-02102213163D

 29 28  0     1  0  0  0  0  0999 V2000
   -3.3998   -3.6239    1.3678 H   0  0  0  0  0  0  0  0  0  0  0  0
   -3.3608   -2.6749    0.8348 C   0  0  0  0  0  0  0  0  0  0  0  0
   -4.0988   -1.9909    1.2498 H   0  0  0  0  0  0  0  0  0  0  0  0
   -3.5618   -2.8419   -0.2222 H   0  0  0  0  0  0  0  0  0  0  0  0
   -1.9818   -2.0809    0.9918 C   0  0  0  0  0  0  0  0  0  0  0  0
   -1.1288   -2.6669    1.6468 O   0  0  0  0  0  0  0  0  0  0  0  0
   -1.7648   -0.9089    0.3998 N   0  0  0  0  0  0  0  0  0  0  0  0
   -2.5238   -0.4719   -0.1032 H   0  0  0  0  0  0  0  0  0  0  0  0
   -0.4848   -0.1959    0.4138 C   0  0  1  0  0  0  0  0  0  0  0  0
    0.2783   -0.8411   -0.0248 H   0  0  0  0  0  0  0  0  0  0  0  0
   -0.6101    1.0666   -0.4611 C   0  0  0  0  0  0  0  0  0  0  0  0
   -0.9383    1.8927    0.1732 H   0  0  0  0  0  0  0  0  0  0  0  0
    0.3708    1.3175   -0.8676 H   0  0  0  0  0  0  0  0  0  0  0  0
   -1.6079    0.9219   -1.6234 C   0  0  0  0  0  0  0  0  0  0  0  0
   -1.6533   -0.1197   -1.9407 H   0  0  0  0  0  0  0  0  0  0  0  0
   -2.5971    1.2247   -1.2802 H   0  0  0  0  0  0  0  0  0  0  0  0
   -1.2406    1.7705   -2.8406 C   0  0  0  0  0  0  0  0  0  0  0  0
   -0.2985    2.5404   -2.8598 O   0  0  0  0  0  0  0  0  0  0  0  0
   -1.9746    1.6584   -3.9263 N   0  0  0  0  0  0  0  0  0  0  0  0
   -1.6879    2.2383   -4.6958 H   0  0  0  0  0  0  0  0  0  0  0  0
   -2.7583    1.0388   -3.9653 H   0  0  0  0  0  0  0  0  0  0  0  0
   -0.0637    0.1284    1.8555 C   0  0  0  0  0  0  0  0  0  0  0  0
    1.0918   -0.0745    2.2236 O   0  0  0  0  0  0  0  0  0  0  0  0
   -1.0024    0.6217    2.6735 N   0  0  0  0  0  0  0  0  0  0  0  0
   -1.9213    0.7848    2.2938 H   0  0  0  0  0  0  0  0  0  0  0  0
   -0.7639    0.9676    4.0741 C   0  0  0  0  0  0  0  0  0  0  0  0
    0.0520    1.6916    4.1400 H   0  0  0  0  0  0  0  0  0  0  0  0
   -1.6626    1.3984    4.5182 H   0  0  0  0  0  0  0  0  0  0  0  0
   -0.4775    0.0737    4.6309 H   0  0  0  0  0  0  0  0  0  0  0  0
  5  6  2  0  0  0  0
  5  7  1  0  0  0  0
  2  3  1  0  0  0  0
  2  4  1  0  0  0  0
  2  5  1  0  0  0  0
  1  2  1  0  0  0  0
 22 23  2  0  0  0  0
 22 24  1  0  0  0  0
 19 20  1  0  0  0  0
 19 21  1  0  0  0  0
 17 18  2  0  0  0  0
 17 19  1  0  0  0  0
 14 15  1  0  0  0  0
 14 16  1  0  0  0  0
 14 17  1  0  0  0  0
 11 12  1  0  0  0  0
 11 13  1  0  0  0  0
 11 14  1  0  0  0  0
  9 10  1  0  0  0  0
  9 11  1  0  0  0  0
  9 22  1  0  0  0  0
  7  8  1  0  0  0  0
  7  9  1  0  0  0  0
 26 27  1  0  0  0  0
 26 28  1  0  0  0  0
 26 29  1  0  0  0  0
 24 25  1  0  0  0  0
 24 26  1  0  0  0  0
M  END
$$$$
default_name
  -OEChem-02102213163D

 29 28  0     1  0  0  0  0  0999 V2000
   -3.3998   -3.6239    1.3678 H   0  0  0  0  0  0  0  0  0  0  0  0
   -3.3608   -2.6749    0.8348 C   0  0  0  0  0  0  0  0  0  0  0  0
   -4.0988   -1.9909    1.2498 H   0  0  0  0  0  0  0  0  0  0  0  0
   -3.5618   -2.8419   -0.2222 H   0  0  0  0  0  0  0  0  0  0  0  0
   -1.9818   -2.0809    0.9918 C   0  0  0  0  0  0  0  0  0  0  0  0
   -1.1288   -2.6669    1.6468 O   0  0  0  0  0  0  0  0  0  0  0  0
   -1.7648   -0.9089    0.3998 N   0  0  0  0  0  0  0  0  0  0  0  0
   -2.5238   -0.4719   -0.1032 H   0  0  0  0  0  0  0  0  0  0  0  0
   -0.4848   -0.1959    0.4138 C   0  0  1  0  0  0  0  0  0  0  0  0
    0.2783   -0.8411   -0.0248 H   0  0  0  0  0  0  0  0  0  0  0  0
   -0.6101    1.0666   -0.4611 C   0  0  0  0  0  0  0  0  0  0  0  0
   -0.9383    1.8927    0.1732 H   0  0  0  0  0  0  0  0  0  0  0  0
    0.3708    1.3175   -0.8676 H   0  0  0  0  0  0  0  0  0  0  0  0
   -1.6079    0.9219   -1.6234 C   0  0  0  0  0  0  0  0  0  0  0  0
   -1.8558   -0.1298   -1.7656 H   0  0  0  0  0  0  0  0  0  0  0  0
   -2.5204    1.4643   -1.3760 H   0  0  0  0  0  0  0  0  0  0  0  0
   -1.0708    1.4636   -2.9481 C   0  0  0  0  0  0  0  0  0  0  0  0
    0.0049    2.0220   -3.0557 O   0  0  0  0  0  0  0  0  0  0  0  0
   -1.8042    1.3124   -4.0295 N   0  0  0  0  0  0  0  0  0  0  0  0
   -1.4027    1.6862   -4.8719 H   0  0  0  0  0  0  0  0  0  0  0  0
   -2.6945    0.8586   -3.9976 H   0  0  0  0  0  0  0  0  0  0  0  0
   -0.0637    0.1284    1.8555 C   0  0  0  0  0  0  0  0  0  0  0  0
    1.0918   -0.0745    2.2236 O   0  0  0  0  0  0  0  0  0  0  0  0
   -1.0024    0.6217    2.6735 N   0  0  0  0  0  0  0  0  0  0  0  0
   -1.9213    0.7848    2.2938 H   0  0  0  0  0  0  0  0  0  0  0  0
   -0.7639    0.9676    4.0741 C   0  0  0  0  0  0  0  0  0  0  0  0
    0.0520    1.6916    4.1400 H   0  0  0  0  0  0  0  0  0  0  0  0
   -1.6626    1.3984    4.5182 H   0  0  0  0  0  0  0  0  0  0  0  0
   -0.4775    0.0737    4.6309 H   0  0  0  0  0  0  0  0  0  0  0  0
  5  6  2  0  0  0  0
  5  7  1  0  0  0  0
  2  3  1  0  0  0  0
  2  4  1  0  0  0  0
  2  5  1  0  0  0  0
  1  2  1  0  0  0  0
 22 23  2  0  0  0  0
 22 24  1  0  0  0  0
 19 20  1  0  0  0  0
 19 21  1  0  0  0  0
 17 18  2  0  0  0  0
 17 19  1  0  0  0  0
 14 15  1  0  0  0  0
 14 16  1  0  0  0  0
 14 17  1  0  0  0  0
 11 12  1  0  0  0  0
 11 13  1  0  0  0  0
 11 14  1  0  0  0  0
  9 10  1  0  0  0  0
  9 11  1  0  0  0  0
  9 22  1  0  0  0  0
  7  8  1  0  0  0  0
  7  9  1  0  0  0  0
 26 27  1  0  0  0  0
 26 28  1  0  0  0  0
 26 29  1  0  0  0  0
 24 25  1  0  0  0  0
 24 26  1  0  0  0  0
M  END
$$$$
default_name
  -OEChem-02102213163D

 29 28  0     1  0  0  0  0  0999 V2000
   -3.3998   -3.6239    1.3678 H   0  0  0  0  0  0  0  0  0  0  0  0
   -3.3608   -2.6749    0.8348 C   0  0  0  0  0  0  0  0  0  0  0  0
   -4.0988   -1.9909    1.2498 H   0  0  0  0  0  0  0  0  0  0  0  0
   -3.5618   -2.8419   -0.2222 H   0  0  0  0  0  0  0  0  0  0  0  0
   -1.9818   -2.0809    0.9918 C   0  0  0  0  0  0  0  0  0  0  0  0
   -1.1288   -2.6669    1.6468 O   0  0  0  0  0  0  0  0  0  0  0  0
   -1.7648   -0.9089    0.3998 N   0  0  0  0  0  0  0  0  0  0  0  0
   -2.5238   -0.4719   -0.1032 H   0  0  0  0  0  0  0  0  0  0  0  0
   -0.4848   -0.1959    0.4138 C   0  0  1  0  0  0  0  0  0  0  0  0
    0.2783   -0.8411   -0.0248 H   0  0  0  0  0  0  0  0  0  0  0  0
   -0.6101    1.0666   -0.4611 C   0  0  0  0  0  0  0  0  0  0  0  0
   -0.9383    1.8927    0.1732 H   0  0  0  0  0  0  0  0  0  0  0  0
    0.3708    1.3175   -0.8676 H   0  0  0  0  0  0  0  0  0  0  0  0
   -1.6079    0.9219   -1.6234 C   0  0  0  0  0  0  0  0  0  0  0  0
   -2.0576   -0.0706   -1.5997 H   0  0  0  0  0  0  0  0  0  0  0  0
   -2.3971    1.6646   -1.5068 H   0  0  0  0  0  0  0  0  0  0  0  0
   -0.9642    1.1158   -2.9962 C   0  0  0  0  0  0  0  0  0  0  0  0
    0.2014    1.4290   -3.1505 O   0  0  0  0  0  0  0  0  0  0  0  0
   -1.7047    0.9275   -4.0670 N   0  0  0  0  0  0  0  0  0  0  0  0
   -1.2308    1.0676   -4.9424 H   0  0  0  0  0  0  0  0  0  0  0  0
   -2.6674    0.6667   -3.9970 H   0  0  0  0  0  0  0  0  0  0  0  0
   -0.0637    0.1284    1.8555 C   0  0  0  0  0  0  0  0  0  0  0  0
    1.0918   -0.0745    2.2236 O   0  0  0  0  0  0  0  0  0  0  0  0
   -1.0024    0.6217    2.6735 N   0  0  0  0  0  0  0  0  0  0  0  0
   -1.9213    0.7848    2.2938 H   0  0  0  0  0  0  0  0  0  0  0  0
   -0.7639    0.9676    4.0741 C   0  0  0  0  0  0  0  0  0  0  0  0
    0.0520    1.6916    4.1400 H   0  0  0  0  0  0  0  0  0  0  0  0
   -1.6626    1.3984    4.5182 H   0  0  0  0  0  0  0  0  0  0  0  0
   -0.4775    0.0737    4.6309 H   0  0  0  0  0  0  0  0  0  0  0  0
  5  6  2  0  0  0  0
  5  7  1  0  0  0  0
  2  3  1  0  0  0  0
  2  4  1  0  0  0  0
  2  5  1  0  0  0  0
  1  2  1  0  0  0  0
 22 23  2  0  0  0  0
 22 24  1  0  0  0  0
 19 20  1  0  0  0  0
 19 21  1  0  0  0  0
 17 18  2  0  0  0  0
 17 19  1  0  0  0  0
 14 15  1  0  0  0  0
 14 16  1  0  0  0  0
 14 17  1  0  0  0  0
 11 12  1  0  0  0  0
 11 13  1  0  0  0  0
 11 14  1  0  0  0  0
  9 10  1  0  0  0  0
  9 11  1  0  0  0  0
  9 22  1  0  0  0  0
  7  8  1  0  0  0  0
  7  9  1  0  0  0  0
 26 27  1  0  0  0  0
 26 28  1  0  0  0  0
 26 29  1  0  0  0  0
 24 25  1  0  0  0  0
 24 26  1  0  0  0  0
M  END
$$$$
default_name
  -OEChem-02102213163D

 29 28  0     1  0  0  0  0  0999 V2000
   -3.3998   -3.6239    1.3678 H   0  0  0  0  0  0  0  0  0  0  0  0
   -3.3608   -2.6749    0.8348 C   0  0  0  0  0  0  0  0  0  0  0  0
   -4.0988   -1.9909    1.2498 H   0  0  0  0  0  0  0  0  0  0  0  0
   -3.5618   -2.8419   -0.2222 H   0  0  0  0  0  0  0  0  0  0  0  0
   -1.9818   -2.0809    0.9918 C   0  0  0  0  0  0  0  0  0  0  0  0
   -1.1288   -2.6669    1.6468 O   0  0  0  0  0  0  0  0  0  0  0  0
   -1.7648   -0.9089    0.3998 N   0  0  0  0  0  0  0  0  0  0  0  0
   -2.5238   -0.4719   -0.1032 H   0  0  0  0  0  0  0  0  0  0  0  0
   -0.4848   -0.1959    0.4138 C   0  0  1  0  0  0  0  0  0  0  0  0
    0.2783   -0.8411   -0.0248 H   0  0  0  0  0  0  0  0  0  0  0  0
   -0.6101    1.0666   -0.4611 C   0  0  0  0  0  0  0  0  0  0  0  0
   -0.9383    1.8927    0.1732 H   0  0  0  0  0  0  0  0  0  0  0  0
    0.3708    1.3175   -0.8676 H   0  0  0  0  0  0  0  0  0  0  0  0
   -1.6079    0.9219   -1.6234 C   0  0  0  0  0  0  0  0  0  0  0  0
   -2.2450    0.0540   -1.4544 H   0  0  0  0  0  0  0  0  0  0  0  0
   -2.2356    1.8120   -1.6637 H   0  0  0  0  0  0  0  0  0  0  0  0
   -0.9281    0.7510   -2.9818 C   0  0  0  0  0  0  0  0  0  0  0  0
    0.2776    0.8019   -3.1378 O   0  0  0  0  0  0  0  0  0  0  0  0
   -1.6829    0.5300   -4.0361 N   0  0  0  0  0  0  0  0  0  0  0  0
   -1.1840    0.4246   -4.9024 H   0  0  0  0  0  0  0  0  0  0  0  0
   -2.6787    0.4762   -3.9635 H   0  0  0  0  0  0  0  0  0  0  0  0
   -0.0637    0.1284    1.8555 C   0  0  0  0  0  0  0  0  0  0  0  0
    1.0918   -0.0745    2.2236 O   0  0  0  0  0  0  0  0  0  0  0  0
   -1.0024    0.6217    2.6735 N   0  0  0  0  0  0  0  0  0  0  0  0
   -1.9213    0.7848    2.2938 H   0  0  0  0  0  0  0  0  0  0  0  0
   -0.7639    0.9676    4.0741 C   0  0  0  0  0  0  0  0  0  0  0  0
    0.0520    1.6916    4.1400 H   0  0  0  0  0  0  0  0  0  0  0  0
   -1.6626    1.3984    4.5182 H   0  0  0  0  0  0  0  0  0  0  0  0
   -0.4775    0.0737    4.6309 H   0  0  0  0  0  0  0  0  0  0  0  0
  5  6  2  0  0  0  0
  5  7  1  0  0  0  0
  2  3  1  0  0  0  0
  2  4  1  0  0  0  0
  2  5  1  0  0  0  0
  1  2  1  0  0  0  0
 22 23  2  0  0  0  0
 22 24  1  0  0  0  0
 19 20  1  0  0  0  0
 19 21  1  0  0  0  0
 17 18  2  0  0  0  0
 17 19  1  0  0  0  0
 14 15  1  0  0  0  0
 14 16  1  0  0  0  0
 14 17  1  0  0  0  0
 11 12  1  0  0  0  0
 11 13  1  0  0  0  0
 11 14  1  0  0  0  0
  9 10  1  0  0  0  0
  9 11  1  0  0  0  0
  9 22  1  0  0  0  0
  7  8  1  0  0  0  0
  7  9  1  0  0  0  0
 26 27  1  0  0  0  0
 26 28  1  0  0  0  0
 26 29  1  0  0  0  0
 24 25  1  0  0  0  0
 24 26  1  0  0  0  0
M  END
$$$$
default_name
  -OEChem-02102213163D

 29 28  0     1  0  0  0  0  0999 V2000
   -3.3998   -3.6239    1.3678 H   0  0  0  0  0  0  0  0  0  0  0  0
   -3.3608   -2.6749    0.8348 C   0  0  0  0  0  0  0  0  0  0  0  0
   -4.0988   -1.9909    1.2498 H   0  0  0  0  0  0  0  0  0  0  0  0
   -3.5618   -2.8419   -0.2222 H   0  0  0  0  0  0  0  0  0  0  0  0
   -1.9818   -2.0809    0.9918 C   0  0  0  0  0  0  0  0  0  0  0  0
   -1.1288   -2.6669    1.6468 O   0  0  0  0  0  0  0  0  0  0  0  0
   -1.7648   -0.9089    0.3998 N   0  0  0  0  0  0  0  0  0  0  0  0
   -2.5238   -0.4719   -0.1032 H   0  0  0  0  0  0  0  0  0  0  0  0
   -0.4848   -0.1959    0.4138 C   0  0  1  0  0  0  0  0  0  0  0  0
    0.2783   -0.8411   -0.0248 H   0  0  0  0  0  0  0  0  0  0  0  0
   -0.6101    1.0666   -0.4611 C   0  0  0  0  0  0  0  0  0  0  0  0
   -0.9383    1.8927    0.1732 H   0  0  0  0  0  0  0  0  0  0  0  0
    0.3708    1.3175   -0.8676 H   0  0  0  0  0  0  0  0  0  0  0  0
   -1.6079    0.9219   -1.6234 C   0  0  0  0  0  0  0  0  0  0  0  0
   -2.4052    0.2353   -1.3394 H   0  0  0  0  0  0  0  0  0  0  0  0
   -2.0470    1.8965   -1.8361 H   0  0  0  0  0  0  0  0  0  0  0  0
   -0.9649    0.3940   -2.9058 C   0  0  0  0  0  0  0  0  0  0  0  0
    0.2282    0.1834   -3.0184 O   0  0  0  0  0  0  0  0  0  0  0  0
   -1.7404    0.1470   -3.9391 N   0  0  0  0  0  0  0  0  0  0  0  0
   -1.2655   -0.1988   -4.7548 H   0  0  0  0  0  0  0  0  0  0  0  0
   -2.7277    0.2999   -3.8995 H   0  0  0  0  0  0  0  0  0  0  0  0
   -0.0637    0.1284    1.8555 C   0  0  0  0  0  0  0  0  0  0  0  0
    1.0918   -0.0745    2.2236 O   0  0  0  0  0  0  0  0  0  0  0  0
   -1.0024    0.6217    2.6735 N   0  0  0  0  0  0  0  0  0  0  0  0
   -1.9213    0.7848    2.2938 H   0  0  0  0  0  0  0  0  0  0  0  0
   -0.7639    0.9676    4.0741 C   0  0  0  0  0  0  0  0  0  0  0  0
    0.0520    1.6916    4.1400 H   0  0  0  0  0  0  0  0  0  0  0  0
   -1.6626    1.3984    4.5182 H   0  0  0  0  0  0  0  0  0  0  0  0
   -0.4775    0.0737    4.6309 H   0  0  0  0  0  0  0  0  0  0  0  0
  5  6  2  0  0  0  0
  5  7  1  0  0  0  0
  2  3  1  0  0  0  0
  2  4  1  0  0  0  0
  2  5  1  0  0  0  0
  1  2  1  0  0  0  0
 22 23  2  0  0  0  0
 22 24  1  0  0  0  0
 19 20  1  0  0  0  0
 19 21  1  0  0  0  0
 17 18  2  0  0  0  0
 17 19  1  0  0  0  0
 14 15  1  0  0  0  0
 14 16  1  0  0  0  0
 14 17  1  0  0  0  0
 11 12  1  0  0  0  0
 11 13  1  0  0  0  0
 11 14  1  0  0  0  0
  9 10  1  0  0  0  0
  9 11  1  0  0  0  0
  9 22  1  0  0  0  0
  7  8  1  0  0  0  0
  7  9  1  0  0  0  0
 26 27  1  0  0  0  0
 26 28  1  0  0  0  0
 26 29  1  0  0  0  0
 24 25  1  0  0  0  0
 24 26  1  0  0  0  0
M  END
$$$$
default_name
  -OEChem-02102213163D

 29 28  0     1  0  0  0  0  0999 V2000
   -3.3998   -3.6239    1.3678 H   0  0  0  0  0  0  0  0  0  0  0  0
   -3.3608   -2.6749    0.8348 C   0  0  0  0  0  0  0  0  0  0  0  0
   -4.0988   -1.9909    1.2498 H   0  0  0  0  0  0  0  0  0  0  0  0
   -3.5618   -2.8419   -0.2222 H   0  0  0  0  0  0  0  0  0  0  0  0
   -1.9818   -2.0809    0.9918 C   0  0  0  0  0  0  0  0  0  0  0  0
   -1.1288   -2.6669    1.6468 O   0  0  0  0  0  0  0  0  0  0  0  0
   -1.7648   -0.9089    0.3998 N   0  0  0  0  0  0  0  0  0  0  0  0
   -2.5238   -0.4719   -0.1032 H   0  0  0  0  0  0  0  0  0  0  0  0
   -0.4848   -0.1959    0.4138 C   0  0  1  0  0  0  0  0  0  0  0  0
    0.2783   -0.8411   -0.0248 H   0  0  0  0  0  0  0  0  0  0  0  0
   -0.6101    1.0666   -0.4611 C   0  0  0  0  0  0  0  0  0  0  0  0
   -0.9383    1.8927    0.1732 H   0  0  0  0  0  0  0  0  0  0  0  0
    0.3708    1.3175   -0.8676 H   0  0  0  0  0  0  0  0  0  0  0  0
   -1.6079    0.9219   -1.6234 C   0  0  0  0  0  0  0  0  0  0  0  0
   -2.5273    0.4611   -1.2627 H   0  0  0  0  0  0  0  0  0  0  0  0
   -1.8441    1.9123   -2.0123 H   0  0  0  0  0  0  0  0  0  0  0  0
   -1.0720    0.0691   -2.7733 C   0  0  0  0  0  0  0  0  0  0  0  0
    0.0568   -0.3844   -2.8005 O   0  0  0  0  0  0  0  0  0  0  0  0
   -1.8731   -0.1955   -3.7825 N   0  0  0  0  0  0  0  0  0  0  0  0
   -1.4697   -0.7604   -4.5096 H   0  0  0  0  0  0  0  0  0  0  0  0
   -2.8110    0.1500   -3.8093 H   0  0  0  0  0  0  0  0  0  0  0  0
   -0.0637    0.1284    1.8555 C   0  0  0  0  0  0  0  0  0  0  0  0
    1.0918   -0.0745    2.2236 O   0  0  0  0  0  0  0  0  0  0  0  0
   -1.0024    0.6217    2.6735 N   0  0  0  0  0  0  0  0  0  0  0  0
   -1.9213    0.7848    2.2938 H   0  0  0  0  0  0  0  0  0  0  0  0
   -0.7639    0.9676    4.0741 C   0  0  0  0  0  0  0  0  0  0  0  0
    0.0520    1.6916    4.1400 H   0  0  0  0  0  0  0  0  0  0  0  0
   -1.6626    1.3984    4.5182 H   0  0  0  0  0  0  0  0  0  0  0  0
   -0.4775    0.0737    4.6309 H   0  0  0  0  0  0  0  0  0  0  0  0
  5  6  2  0  0  0  0
  5  7  1  0  0  0  0
  2  3  1  0  0  0  0
  2  4  1  0  0  0  0
  2  5  1  0  0  0  0
  1  2  1  0  0  0  0
 22 23  2  0  0  0  0
 22 24  1  0  0  0  0
 19 20  1  0  0  0  0
 19 21  1  0  0  0  0
 17 18  2  0  0  0  0
 17 19  1  0  0  0  0
 14 15  1  0  0  0  0
 14 16  1  0  0  0  0
 14 17  1  0  0  0  0
 11 12  1  0  0  0  0
 11 13  1  0  0  0  0
 11 14  1  0  0  0  0
  9 10  1  0  0  0  0
  9 11  1  0  0  0  0
  9 22  1  0  0  0  0
  7  8  1  0  0  0  0
  7  9  1  0  0  0  0
 26 27  1  0  0  0  0
 26 28  1  0  0  0  0
 26 29  1  0  0  0  0
 24 25  1  0  0  0  0
 24 26  1  0  0  0  0
M  END
$$$$
default_name
  -OEChem-02102213163D

 29 28  0     1  0  0  0  0  0999 V2000
   -3.3998   -3.6239    1.3678 H   0  0  0  0  0  0  0  0  0  0  0  0
   -3.3608   -2.6749    0.8348 C   0  0  0  0  0  0  0  0  0  0  0  0
   -4.0988   -1.9909    1.2498 H   0  0  0  0  0  0  0  0  0  0  0  0
   -3.5618   -2.8419   -0.2222 H   0  0  0  0  0  0  0  0  0  0  0  0
   -1.9818   -2.0809    0.9918 C   0  0  0  0  0  0  0  0  0  0  0  0
   -1.1288   -2.6669    1.6468 O   0  0  0  0  0  0  0  0  0  0  0  0
   -1.7648   -0.9089    0.3998 N   0  0  0  0  0  0  0  0  0  0  0  0
   -2.5238   -0.4719   -0.1032 H   0  0  0  0  0  0  0  0  0  0  0  0
   -0.4848   -0.1959    0.4138 C   0  0  1  0  0  0  0  0  0  0  0  0
    0.2783   -0.8411   -0.0248 H   0  0  0  0  0  0  0  0  0  0  0  0
   -0.6101    1.0666   -0.4611 C   0  0  0  0  0  0  0  0  0  0  0  0
   -0.9383    1.8927    0.1732 H   0  0  0  0  0  0  0  0  0  0  0  0
    0.3708    1.3175   -0.8676 H   0  0  0  0  0  0  0  0  0  0  0  0
   -1.6079    0.9219   -1.6234 C   0  0  0  0  0  0  0  0  0  0  0  0
   -2.6029    0.7159   -1.2295 H   0  0  0  0  0  0  0  0  0  0  0  0
   -1.6408    1.8583   -2.1801 H   0  0  0  0  0  0  0  0  0  0  0  0
   -1.2423   -0.2015   -2.5935 C   0  0  0  0  0  0  0  0  0  0  0  0
   -0.2252   -0.8627   -2.4989 O   0  0  0  0  0  0  0  0  0  0  0  0
   -2.0721   -0.4740   -3.5770 N   0  0  0  0  0  0  0  0  0  0  0  0
   -1.7827   -1.2217   -4.1834 H   0  0  0  0  0  0  0  0  0  0  0  0
   -2.9230    0.0366   -3.6990 H   0  0  0  0  0  0  0  0  0  0  0  0
   -0.0637    0.1284    1.8555 C   0  0  0  0  0  0  0  0  0  0  0  0
    1.0918   -0.0745    2.2236 O   0  0  0  0  0  0  0  0  0  0  0  0
   -1.0024    0.6217    2.6735 N   0  0  0  0  0  0  0  0  0  0  0  0
   -1.9213    0.7848    2.2938 H   0  0  0  0  0  0  0  0  0  0  0  0
   -0.7639    0.9676    4.0741 C   0  0  0  0  0  0  0  0  0  0  0  0
    0.0520    1.6916    4.1400 H   0  0  0  0  0  0  0  0  0  0  0  0
   -1.6626    1.3984    4.5182 H   0  0  0  0  0  0  0  0  0  0  0  0
   -0.4775    0.0737    4.6309 H   0  0  0  0  0  0  0  0  0  0  0  0
  5  6  2  0  0  0  0
  5  7  1  0  0  0  0
  2  3  1  0  0  0  0
  2  4  1  0  0  0  0
  2  5  1  0  0  0  0
  1  2  1  0  0  0  0
 22 23  2  0  0  0  0
 22 24  1  0  0  0  0
 19 20  1  0  0  0  0
 19 21  1  0  0  0  0
 17 18  2  0  0  0  0
 17 19  1  0  0  0  0
 14 15  1  0  0  0  0
 14 16  1  0  0  0  0
 14 17  1  0  0  0  0
 11 12  1  0  0  0  0
 11 13  1  0  0  0  0
 11 14  1  0  0  0  0
  9 10  1  0  0  0  0
  9 11  1  0  0  0  0
  9 22  1  0  0  0  0
  7  8  1  0  0  0  0
  7  9  1  0  0  0  0
 26 27  1  0  0  0  0
 26 28  1  0  0  0  0
 26 29  1  0  0  0  0
 24 25  1  0  0  0  0
 24 26  1  0  0  0  0
M  END
$$$$
default_name
  -OEChem-02102213163D

 29 28  0     1  0  0  0  0  0999 V2000
   -3.3998   -3.6239    1.3678 H   0  0  0  0  0  0  0  0  0  0  0  0
   -3.3608   -2.6749    0.8348 C   0  0  0  0  0  0  0  0  0  0  0  0
   -4.0988   -1.9909    1.2498 H   0  0  0  0  0  0  0  0  0  0  0  0
   -3.5618   -2.8419   -0.2222 H   0  0  0  0  0  0  0  0  0  0  0  0
   -1.9818   -2.0809    0.9918 C   0  0  0  0  0  0  0  0  0  0  0  0
   -1.1288   -2.6669    1.6468 O   0  0  0  0  0  0  0  0  0  0  0  0
   -1.7648   -0.9089    0.3998 N   0  0  0  0  0  0  0  0  0  0  0  0
   -2.5238   -0.4719   -0.1032 H   0  0  0  0  0  0  0  0  0  0  0  0
   -0.4848   -0.1959    0.4138 C   0  0  1  0  0  0  0  0  0  0  0  0
    0.2783   -0.8411   -0.0248 H   0  0  0  0  0  0  0  0  0  0  0  0
   -0.6101    1.0666   -0.4611 C   0  0  0  0  0  0  0  0  0  0  0  0
   -0.9383    1.8927    0.1732 H   0  0  0  0  0  0  0  0  0  0  0  0
    0.3708    1.3175   -0.8676 H   0  0  0  0  0  0  0  0  0  0  0  0
   -1.6079    0.9219   -1.6234 C   0  0  0  0  0  0  0  0  0  0  0  0
   -2.6270    0.9824   -1.2420 H   0  0  0  0  0  0  0  0  0  0  0  0
   -1.4508    1.7383   -2.3282 H   0  0  0  0  0  0  0  0  0  0  0  0
   -1.4640   -0.3994   -2.3784 C   0  0  0  0  0  0  0  0  0  0  0  0
   -0.5984   -1.2189   -2.1342 O   0  0  0  0  0  0  0  0  0  0  0  0
   -2.3238   -0.6697   -3.3365 N   0  0  0  0  0  0  0  0  0  0  0  0
   -2.1832   -1.5513   -3.7986 H   0  0  0  0  0  0  0  0  0  0  0  0
   -3.0561   -0.0325   -3.5762 H   0  0  0  0  0  0  0  0  0  0  0  0
   -0.0637    0.1284    1.8555 C   0  0  0  0  0  0  0  0  0  0  0  0
    1.0918   -0.0745    2.2236 O   0  0  0  0  0  0  0  0  0  0  0  0
   -1.0024    0.6217    2.6735 N   0  0  0  0  0  0  0  0  0  0  0  0
   -1.9213    0.7848    2.2938 H   0  0  0  0  0  0  0  0  0  0  0  0
   -0.7639    0.9676    4.0741 C   0  0  0  0  0  0  0  0  0  0  0  0
    0.0520    1.6916    4.1400 H   0  0  0  0  0  0  0  0  0  0  0  0
   -1.6626    1.3984    4.5182 H   0  0  0  0  0  0  0  0  0  0  0  0
   -0.4775    0.0737    4.6309 H   0  0  0  0  0  0  0  0  0  0  0  0
  5  6  2  0  0  0  0
  5  7  1  0  0  0  0
  2  3  1  0  0  0  0
  2  4  1  0  0  0  0
  2  5  1  0  0  0  0
  1  2  1  0  0  0  0
 22 23  2  0  0  0  0
 22 24  1  0  0  0  0
 19 20  1  0  0  0  0
 19 21  1  0  0  0  0
 17 18  2  0  0  0  0
 17 19  1  0  0  0  0
 14 15  1  0  0  0  0
 14 16  1  0  0  0  0
 14 17  1  0  0  0  0
 11 12  1  0  0  0  0
 11 13  1  0  0  0  0
 11 14  1  0  0  0  0
  9 10  1  0  0  0  0
  9 11  1  0  0  0  0
  9 22  1  0  0  0  0
  7  8  1  0  0  0  0
  7  9  1  0  0  0  0
 26 27  1  0  0  0  0
 26 28  1  0  0  0  0
 26 29  1  0  0  0  0
 24 25  1  0  0  0  0
 24 26  1  0  0  0  0
M  END
$$$$
default_name
  -OEChem-02102213163D

 29 28  0     1  0  0  0  0  0999 V2000
   -3.3998   -3.6239    1.3678 H   0  0  0  0  0  0  0  0  0  0  0  0
   -3.3608   -2.6749    0.8348 C   0  0  0  0  0  0  0  0  0  0  0  0
   -4.0988   -1.9909    1.2498 H   0  0  0  0  0  0  0  0  0  0  0  0
   -3.5618   -2.8419   -0.2222 H   0  0  0  0  0  0  0  0  0  0  0  0
   -1.9818   -2.0809    0.9918 C   0  0  0  0  0  0  0  0  0  0  0  0
   -1.1288   -2.6669    1.6468 O   0  0  0  0  0  0  0  0  0  0  0  0
   -1.7648   -0.9089    0.3998 N   0  0  0  0  0  0  0  0  0  0  0  0
   -2.5238   -0.4719   -0.1032 H   0  0  0  0  0  0  0  0  0  0  0  0
   -0.4848   -0.1959    0.4138 C   0  0  1  0  0  0  0  0  0  0  0  0
    0.2783   -0.8411   -0.0248 H   0  0  0  0  0  0  0  0  0  0  0  0
   -0.6101    1.0666   -0.4611 C   0  0  0  0  0  0  0  0  0  0  0  0
   -0.9383    1.8927    0.1732 H   0  0  0  0  0  0  0  0  0  0  0  0
    0.3708    1.3175   -0.8676 H   0  0  0  0  0  0  0  0  0  0  0  0
   -1.6079    0.9219   -1.6234 C   0  0  0  0  0  0  0  0  0  0  0  0
   -2.5978    1.2424   -1.2995 H   0  0  0  0  0  0  0  0  0  0  0  0
   -1.2872    1.5603   -2.4465 H   0  0  0  0  0  0  0  0  0  0  0  0
   -1.7222   -0.5112   -2.1429 C   0  0  0  0  0  0  0  0  0  0  0  0
   -1.0374   -1.4289   -1.7311 O   0  0  0  0  0  0  0  0  0  0  0  0
   -2.6110   -0.7691   -3.0776 N   0  0  0  0  0  0  0  0  0  0  0  0
   -2.6439   -1.7268   -3.3813 H   0  0  0  0  0  0  0  0  0  0  0  0
   -3.2011   -0.0526   -3.4492 H   0  0  0  0  0  0  0  0  0  0  0  0
   -0.0637    0.1284    1.8555 C   0  0  0  0  0  0  0  0  0  0  0  0
    1.0918   -0.0745    2.2236 O   0  0  0  0  0  0  0  0  0  0  0  0
   -1.0024    0.6217    2.6735 N   0  0  0  0  0  0  0  0  0  0  0  0
   -1.9213    0.7848    2.2938 H   0  0  0  0  0  0  0  0  0  0  0  0
   -0.7639    0.9676    4.0741 C   0  0  0  0  0  0  0  0  0  0  0  0
    0.0520    1.6916    4.1400 H   0  0  0  0  0  0  0  0  0  0  0  0
   -1.6626    1.3984    4.5182 H   0  0  0  0  0  0  0  0  0  0  0  0
   -0.4775    0.0737    4.6309 H   0  0  0  0  0  0  0  0  0  0  0  0
  5  6  2  0  0  0  0
  5  7  1  0  0  0  0
  2  3  1  0  0  0  0
  2  4  1  0  0  0  0
  2  5  1  0  0  0  0
  1  2  1  0  0  0  0
 22 23  2  0  0  0  0
 22 24  1  0  0  0  0
 19 20  1  0  0  0  0
 19 21  1  0  0  0  0
 17 18  2  0  0  0  0
 17 19  1  0  0  0  0
 14 15  1  0  0  0  0
 14 16  1  0  0  0  0
 14 17  1  0  0  0  0
 11 12  1  0  0  0  0
 11 13  1  0  0  0  0
 11 14  1  0  0  0  0
  9 10  1  0  0  0  0
  9 11  1  0  0  0  0
  9 22  1  0  0  0  0
  7  8  1  0  0  0  0
  7  9  1  0  0  0  0
 26 27  1  0  0  0  0
 26 28  1  0  0  0  0
 26 29  1  0  0  0  0
 24 25  1  0  0  0  0
 24 26  1  0  0  0  0
M  END
$$$$
default_name
  -OEChem-02102213163D

 29 28  0     1  0  0  0  0  0999 V2000
   -3.3998   -3.6239    1.3678 H   0  0  0  0  0  0  0  0  0  0  0  0
   -3.3608   -2.6749    0.8348 C   0  0  0  0  0  0  0  0  0  0  0  0
   -4.0988   -1.9909    1.2498 H   0  0  0  0  0  0  0  0  0  0  0  0
   -3.5618   -2.8419   -0.2222 H   0  0  0  0  0  0  0  0  0  0  0  0
   -1.9818   -2.0809    0.9918 C   0  0  0  0  0  0  0  0  0  0  0  0
   -1.1288   -2.6669    1.6468 O   0  0  0  0  0  0  0  0  0  0  0  0
   -1.7648   -0.9089    0.3998 N   0  0  0  0  0  0  0  0  0  0  0  0
   -2.5238   -0.4719   -0.1032 H   0  0  0  0  0  0  0  0  0  0  0  0
   -0.4848   -0.1959    0.4138 C   0  0  1  0  0  0  0  0  0  0  0  0
    0.2783   -0.8411   -0.0248 H   0  0  0  0  0  0  0  0  0  0  0  0
   -0.6101    1.0666   -0.4611 C   0  0  0  0  0  0  0  0  0  0  0  0
   -0.9383    1.8927    0.1732 H   0  0  0  0  0  0  0  0  0  0  0  0
    0.3708    1.3175   -0.8676 H   0  0  0  0  0  0  0  0  0  0  0  0
   -1.6079    0.9219   -1.6234 C   0  0  0  0  0  0  0  0  0  0  0  0
   -2.5174    1.4782   -1.3978 H   0  0  0  0  0  0  0  0  0  0  0  0
   -1.1611    1.3366   -2.5269 H   0  0  0  0  0  0  0  0  0  0  0  0
   -1.9991   -0.5292   -1.9030 C   0  0  0  0  0  0  0  0  0  0  0  0
   -1.5123   -1.4782   -1.3173 O   0  0  0  0  0  0  0  0  0  0  0  0
   -2.9142   -0.7656   -2.8178 N   0  0  0  0  0  0  0  0  0  0  0  0
   -3.1333   -1.7363   -2.9599 H   0  0  0  0  0  0  0  0  0  0  0  0
   -3.3482   -0.0224   -3.3267 H   0  0  0  0  0  0  0  0  0  0  0  0
   -0.0637    0.1284    1.8555 C   0  0  0  0  0  0  0  0  0  0  0  0
    1.0918   -0.0745    2.2236 O   0  0  0  0  0  0  0  0  0  0  0  0
   -1.0024    0.6217    2.6735 N   0  0  0  0  0  0  0  0  0  0  0  0
   -1.9213    0.7848    2.2938 H   0  0  0  0  0  0  0  0  0  0  0  0
   -0.7639    0.9676    4.0741 C   0  0  0  0  0  0  0  0  0  0  0  0
    0.0520    1.6916    4.1400 H   0  0  0  0  0  0  0  0  0  0  0  0
   -1.6626    1.3984    4.5182 H   0  0  0  0  0  0  0  0  0  0  0  0
   -0.4775    0.0737    4.6309 H   0  0  0  0  0  0  0  0  0  0  0  0
  5  6  2  0  0  0  0
  5  7  1  0  0  0  0
  2  3  1  0  0  0  0
  2  4  1  0  0  0  0
  2  5  1  0  0  0  0
  1  2  1  0  0  0  0
 22 23  2  0  0  0  0
 22 24  1  0  0  0  0
 19 20  1  0  0  0  0
 19 21  1  0  0  0  0
 17 18  2  0  0  0  0
 17 19  1  0  0  0  0
 14 15  1  0  0  0  0
 14 16  1  0  0  0  0
 14 17  1  0  0  0  0
 11 12  1  0  0  0  0
 11 13  1  0  0  0  0
 11 14  1  0  0  0  0
  9 10  1  0  0  0  0
  9 11  1  0  0  0  0
  9 22  1  0  0  0  0
  7  8  1  0  0  0  0
  7  9  1  0  0  0  0
 26 27  1  0  0  0  0
 26 28  1  0  0  0  0
 26 29  1  0  0  0  0
 24 25  1  0  0  0  0
 24 26  1  0  0  0  0
M  END
$$$$
default_name
  -OEChem-02102213163D

 29 28  0     1  0  0  0  0  0999 V2000
   -3.3998   -3.6239    1.3678 H   0  0  0  0  0  0  0  0  0  0  0  0
   -3.3608   -2.6749    0.8348 C   0  0  0  0  0  0  0  0  0  0  0  0
   -4.0988   -1.9909    1.2498 H   0  0  0  0  0  0  0  0  0  0  0  0
   -3.5618   -2.8419   -0.2222 H   0  0  0  0  0  0  0  0  0  0  0  0
   -1.9818   -2.0809    0.9918 C   0  0  0  0  0  0  0  0  0  0  0  0
   -1.1288   -2.6669    1.6468 O   0  0  0  0  0  0  0  0  0  0  0  0
   -1.7648   -0.9089    0.3998 N   0  0  0  0  0  0  0  0  0  0  0  0
   -2.5238   -0.4719   -0.1032 H   0  0  0  0  0  0  0  0  0  0  0  0
   -0.4848   -0.1959    0.4138 C   0  0  1  0  0  0  0  0  0  0  0  0
    0.2783   -0.8411   -0.0248 H   0  0  0  0  0  0  0  0  0  0  0  0
   -0.6101    1.0666   -0.4611 C   0  0  0  0  0  0  0  0  0  0  0  0
   -0.9383    1.8927    0.1732 H   0  0  0  0  0  0  0  0  0  0  0  0
    0.3708    1.3175   -0.8676 H   0  0  0  0  0  0  0  0  0  0  0  0
   -1.6079    0.9219   -1.6234 C   0  0  0  0  0  0  0  0  0  0  0  0
   -2.3913    1.6737   -1.5305 H   0  0  0  0  0  0  0  0  0  0  0  0
   -1.0810    1.0823   -2.5640 H   0  0  0  0  0  0  0  0  0  0  0  0
   -2.2759   -0.4521   -1.6749 C   0  0  0  0  0  0  0  0  0  0  0  0
   -1.9908   -1.3635   -0.9209 O   0  0  0  0  0  0  0  0  0  0  0  0
   -3.2127   -0.6592   -2.5748 N   0  0  0  0  0  0  0  0  0  0  0  0
   -3.6182   -1.5790   -2.5633 H   0  0  0  0  0  0  0  0  0  0  0  0
   -3.4874    0.0561   -3.2171 H   0  0  0  0  0  0  0  0  0  0  0  0
   -0.0637    0.1284    1.8555 C   0  0  0  0  0  0  0  0  0  0  0  0
    1.0918   -0.0745    2.2236 O   0  0  0  0  0  0  0  0  0  0  0  0
   -1.0024    0.6217    2.6735 N   0  0  0  0  0  0  0  0  0  0  0  0
   -1.9213    0.7848    2.2938 H   0  0  0  0  0  0  0  0  0  0  0  0
   -0.7639    0.9676    4.0741 C   0  0  0  0  0  0  0  0  0  0  0  0
    0.0520    1.6916    4.1400 H   0  0  0  0  0  0  0  0  0  0  0  0
   -1.6626    1.3984    4.5182 H   0  0  0  0  0  0  0  0  0  0  0  0
   -0.4775    0.0737    4.6309 H   0  0  0  0  0  0  0  0  0  0  0  0
  5  6  2  0  0  0  0
  5  7  1  0  0  0  0
  2  3  1  0  0  0  0
  2  4  1  0  0  0  0
  2  5  1  0  0  0  0
  1  2  1  0  0  0  0
 22 23  2  0  0  0  0
 22 24  1  0  0  0  0
 19 20  1  0  0  0  0
 19 21  1  0  0  0  0
 17 18  2  0  0  0  0
 17 19  1  0  0  0  0
 14 15  1  0  0  0  0
 14 16  1  0  0  0  0
 14 17  1  0  0  0  0
 11 12  1  0  0  0  0
 11 13  1  0  0  0  0
 11 14  1  0  0  0  0
  9 10  1  0  0  0  0
  9 11  1  0  0  0  0
  9 22  1  0  0  0  0
  7  8  1  0  0  0  0
  7  9  1  0  0  0  0
 26 27  1  0  0  0  0
 26 28  1  0  0  0  0
 26 29  1  0  0  0  0
 24 25  1  0  0  0  0
 24 26  1  0  0  0  0
M  END
$$$$
default_name
  -OEChem-02102213163D

 29 28  0     1  0  0  0  0  0999 V2000
   -3.3998   -3.6239    1.3678 H   0  0  0  0  0  0  0  0  0  0  0  0
   -3.3608   -2.6749    0.8348 C   0  0  0  0  0  0  0  0  0  0  0  0
   -4.0988   -1.9909    1.2498 H   0  0  0  0  0  0  0  0  0  0  0  0
   -3.5618   -2.8419   -0.2222 H   0  0  0  0  0  0  0  0  0  0  0  0
   -1.9818   -2.0809    0.9918 C   0  0  0  0  0  0  0  0  0  0  0  0
   -1.1288   -2.6669    1.6468 O   0  0  0  0  0  0  0  0  0  0  0  0
   -1.7648   -0.9089    0.3998 N   0  0  0  0  0  0  0  0  0  0  0  0
   -2.5238   -0.4719   -0.1032 H   0  0  0  0  0  0  0  0  0  0  0  0
   -0.4848   -0.1959    0.4138 C   0  0  1  0  0  0  0  0  0  0  0  0
    0.2783   -0.8411   -0.0248 H   0  0  0  0  0  0  0  0  0  0  0  0
   -0.6101    1.0666   -0.4611 C   0  0  0  0  0  0  0  0  0  0  0  0
   -0.9383    1.8927    0.1732 H   0  0  0  0  0  0  0  0  0  0  0  0
    0.3708    1.3175   -0.8676 H   0  0  0  0  0  0  0  0  0  0  0  0
   -1.6079    0.9219   -1.6234 C   0  0  0  0  0  0  0  0  0  0  0  0
   -2.2280    1.8157   -1.6884 H   0  0  0  0  0  0  0  0  0  0  0  0
   -1.0525    0.8149   -2.5551 H   0  0  0  0  0  0  0  0  0  0  0  0
   -2.5338   -0.2852   -1.4743 C   0  0  0  0  0  0  0  0  0  0  0  0
   -2.4402   -1.0926   -0.5688 O   0  0  0  0  0  0  0  0  0  0  0  0
   -3.4861   -0.4574   -2.3652 N   0  0  0  0  0  0  0  0  0  0  0  0
   -4.0654   -1.2657   -2.2184 H   0  0  0  0  0  0  0  0  0  0  0  0
   -3.6091    0.1776   -3.1277 H   0  0  0  0  0  0  0  0  0  0  0  0
   -0.0637    0.1284    1.8555 C   0  0  0  0  0  0  0  0  0  0  0  0
    1.0918   -0.0745    2.2236 O   0  0  0  0  0  0  0  0  0  0  0  0
   -1.0024    0.6217    2.6735 N   0  0  0  0  0  0  0  0  0  0  0  0
   -1.9213    0.7848    2.2938 H   0  0  0  0  0  0  0  0  0  0  0  0
   -0.7639    0.9676    4.0741 C   0  0  0  0  0  0  0  0  0  0  0  0
    0.0520    1.6916    4.1400 H   0  0  0  0  0  0  0  0  0  0  0  0
   -1.6626    1.3984    4.5182 H   0  0  0  0  0  0  0  0  0  0  0  0
   -0.4775    0.0737    4.6309 H   0  0  0  0  0  0  0  0  0  0  0  0
  5  6  2  0  0  0  0
  5  7  1  0  0  0  0
  2  3  1  0  0  0  0
  2  4  1  0  0  0  0
  2  5  1  0  0  0  0
  1  2  1  0  0  0  0
 22 23  2  0  0  0  0
 22 24  1  0  0  0  0
 19 20  1  0  0  0  0
 19 21  1  0  0  0  0
 17 18  2  0  0  0  0
 17 19  1  0  0  0  0
 14 15  1  0  0  0  0
 14 16  1  0  0  0  0
 14 17  1  0  0  0  0
 11 12  1  0  0  0  0
 11 13  1  0  0  0  0
 11 14  1  0  0  0  0
  9 10  1  0  0  0  0
  9 11  1  0  0  0  0
  9 22  1  0  0  0  0
  7  8  1  0  0  0  0
  7  9  1  0  0  0  0
 26 27  1  0  0  0  0
 26 28  1  0  0  0  0
 26 29  1  0  0  0  0
 24 25  1  0  0  0  0
 24 26  1  0  0  0  0
M  END
$$$$
default_name
  -OEChem-02102213163D

 29 28  0     1  0  0  0  0  0999 V2000
   -3.3998   -3.6239    1.3678 H   0  0  0  0  0  0  0  0  0  0  0  0
   -3.3608   -2.6749    0.8348 C   0  0  0  0  0  0  0  0  0  0  0  0
   -4.0988   -1.9909    1.2498 H   0  0  0  0  0  0  0  0  0  0  0  0
   -3.5618   -2.8419   -0.2222 H   0  0  0  0  0  0  0  0  0  0  0  0
   -1.9818   -2.0809    0.9918 C   0  0  0  0  0  0  0  0  0  0  0  0
   -1.1288   -2.6669    1.6468 O   0  0  0  0  0  0  0  0  0  0  0  0
   -1.7648   -0.9089    0.3998 N   0  0  0  0  0  0  0  0  0  0  0  0
   -2.5238   -0.4719   -0.1032 H   0  0  0  0  0  0  0  0  0  0  0  0
   -0.4848   -0.1959    0.4138 C   0  0  1  0  0  0  0  0  0  0  0  0
    0.2783   -0.8411   -0.0248 H   0  0  0  0  0  0  0  0  0  0  0  0
   -0.6101    1.0666   -0.4611 C   0  0  0  0  0  0  0  0  0  0  0  0
   -0.9383    1.8927    0.1732 H   0  0  0  0  0  0  0  0  0  0  0  0
    0.3708    1.3175   -0.8676 H   0  0  0  0  0  0  0  0  0  0  0  0
   -1.6079    0.9219   -1.6234 C   0  0  0  0  0  0  0  0  0  0  0  0
   -2.0386    1.8944   -1.8607 H   0  0  0  0  0  0  0  0  0  0  0  0
   -1.0775    0.5524   -2.5010 H   0  0  0  0  0  0  0  0  0  0  0  0
   -2.7552   -0.0400   -1.3148 C   0  0  0  0  0  0  0  0  0  0  0  0
   -2.8299   -0.6840   -0.2852 O   0  0  0  0  0  0  0  0  0  0  0  0
   -3.7159   -0.1738   -2.2033 N   0  0  0  0  0  0  0  0  0  0  0  0
   -4.4446   -0.8177   -1.9487 H   0  0  0  0  0  0  0  0  0  0  0  0
   -3.7051    0.3337   -3.0647 H   0  0  0  0  0  0  0  0  0  0  0  0
   -0.0637    0.1284    1.8555 C   0  0  0  0  0  0  0  0  0  0  0  0
    1.0918   -0.0745    2.2236 O   0  0  0  0  0  0  0  0  0  0  0  0
   -1.0024    0.6217    2.6735 N   0  0  0  0  0  0  0  0  0  0  0  0
   -1.9213    0.7848    2.2938 H   0  0  0  0  0  0  0  0  0  0  0  0
   -0.7639    0.9676    4.0741 C   0  0  0  0  0  0  0  0  0  0  0  0
    0.0520    1.6916    4.1400 H   0  0  0  0  0  0  0  0  0  0  0  0
   -1.6626    1.3984    4.5182 H   0  0  0  0  0  0  0  0  0  0  0  0
   -0.4775    0.0737    4.6309 H   0  0  0  0  0  0  0  0  0  0  0  0
  5  6  2  0  0  0  0
  5  7  1  0  0  0  0
  2  3  1  0  0  0  0
  2  4  1  0  0  0  0
  2  5  1  0  0  0  0
  1  2  1  0  0  0  0
 22 23  2  0  0  0  0
 22 24  1  0  0  0  0
 19 20  1  0  0  0  0
 19 21  1  0  0  0  0
 17 18  2  0  0  0  0
 17 19  1  0  0  0  0
 14 15  1  0  0  0  0
 14 16  1  0  0  0  0
 14 17  1  0  0  0  0
 11 12  1  0  0  0  0
 11 13  1  0  0  0  0
 11 14  1  0  0  0  0
  9 10  1  0  0  0  0
  9 11  1  0  0  0  0
  9 22  1  0  0  0  0
  7  8  1  0  0  0  0
  7  9  1  0  0  0  0
 26 27  1  0  0  0  0
 26 28  1  0  0  0  0
 26 29  1  0  0  0  0
 24 25  1  0  0  0  0
 24 26  1  0  0  0  0
M  END
$$$$
default_name
  -OEChem-02102213163D

 29 28  0     1  0  0  0  0  0999 V2000
   -3.3998   -3.6239    1.3678 H   0  0  0  0  0  0  0  0  0  0  0  0
   -3.3608   -2.6749    0.8348 C   0  0  0  0  0  0  0  0  0  0  0  0
   -4.0988   -1.9909    1.2498 H   0  0  0  0  0  0  0  0  0  0  0  0
   -3.5618   -2.8419   -0.2222 H   0  0  0  0  0  0  0  0  0  0  0  0
   -1.9818   -2.0809    0.9918 C   0  0  0  0  0  0  0  0  0  0  0  0
   -1.1288   -2.6669    1.6468 O   0  0  0  0  0  0  0  0  0  0  0  0
   -1.7648   -0.9089    0.3998 N   0  0  0  0  0  0  0  0  0  0  0  0
   -2.5238   -0.4719   -0.1032 H   0  0  0  0  0  0  0  0  0  0  0  0
   -0.4848   -0.1959    0.4138 C   0  0  1  0  0  0  0  0  0  0  0  0
    0.2783   -0.8411   -0.0248 H   0  0  0  0  0  0  0  0  0  0  0  0
   -0.6101    1.0666   -0.4611 C   0  0  0  0  0  0  0  0  0  0  0  0
   -0.9383    1.8927    0.1732 H   0  0  0  0  0  0  0  0  0  0  0  0
    0.3708    1.3175   -0.8676 H   0  0  0  0  0  0  0  0  0  0  0  0
   -1.6079    0.9219   -1.6234 C   0  0  0  0  0  0  0  0  0  0  0  0
   -1.8361    1.9044   -2.0358 H   0  0  0  0  0  0  0  0  0  0  0  0
   -1.1542    0.3129   -2.4053 H   0  0  0  0  0  0  0  0  0  0  0  0
   -2.9250    0.2670   -1.2073 C   0  0  0  0  0  0  0  0  0  0  0  0
   -3.1333   -0.1656   -0.0893 O   0  0  0  0  0  0  0  0  0  0  0  0
   -3.8863    0.1722   -2.1001 N   0  0  0  0  0  0  0  0  0  0  0  0
   -4.7298   -0.2657   -1.7726 H   0  0  0  0  0  0  0  0  0  0  0  0
   -3.7689    0.5139   -3.0324 H   0  0  0  0  0  0  0  0  0  0  0  0
   -0.0637    0.1284    1.8555 C   0  0  0  0  0  0  0  0  0  0  0  0
    1.0918   -0.0745    2.2236 O   0  0  0  0  0  0  0  0  0  0  0  0
   -1.0024    0.6217    2.6735 N   0  0  0  0  0  0  0  0  0  0  0  0
   -1.9213    0.7848    2.2938 H   0  0  0  0  0  0  0  0  0  0  0  0
   -0.7639    0.9676    4.0741 C   0  0  0  0  0  0  0  0  0  0  0  0
    0.0520    1.6916    4.1400 H   0  0  0  0  0  0  0  0  0  0  0  0
   -1.6626    1.3984    4.5182 H   0  0  0  0  0  0  0  0  0  0  0  0
   -0.4775    0.0737    4.6309 H   0  0  0  0  0  0  0  0  0  0  0  0
  5  6  2  0  0  0  0
  5  7  1  0  0  0  0
  2  3  1  0  0  0  0
  2  4  1  0  0  0  0
  2  5  1  0  0  0  0
  1  2  1  0  0  0  0
 22 23  2  0  0  0  0
 22 24  1  0  0  0  0
 19 20  1  0  0  0  0
 19 21  1  0  0  0  0
 17 18  2  0  0  0  0
 17 19  1  0  0  0  0
 14 15  1  0  0  0  0
 14 16  1  0  0  0  0
 14 17  1  0  0  0  0
 11 12  1  0  0  0  0
 11 13  1  0  0  0  0
 11 14  1  0  0  0  0
  9 10  1  0  0  0  0
  9 11  1  0  0  0  0
  9 22  1  0  0  0  0
  7  8  1  0  0  0  0
  7  9  1  0  0  0  0
 26 27  1  0  0  0  0
 26 28  1  0  0  0  0
 26 29  1  0  0  0  0
 24 25  1  0  0  0  0
 24 26  1  0  0  0  0
M  END
$$$$
default_name
  -OEChem-02102213163D

 29 28  0     1  0  0  0  0  0999 V2000
   -3.3998   -3.6239    1.3678 H   0  0  0  0  0  0  0  0  0  0  0  0
   -3.3608   -2.6749    0.8348 C   0  0  0  0  0  0  0  0  0  0  0  0
   -4.0988   -1.9909    1.2498 H   0  0  0  0  0  0  0  0  0  0  0  0
   -3.5618   -2.8419   -0.2222 H   0  0  0  0  0  0  0  0  0  0  0  0
   -1.9818   -2.0809    0.9918 C   0  0  0  0  0  0  0  0  0  0  0  0
   -1.1288   -2.6669    1.6468 O   0  0  0  0  0  0  0  0  0  0  0  0
   -1.7648   -0.9089    0.3998 N   0  0  0  0  0  0  0  0  0  0  0  0
   -2.5238   -0.4719   -0.1032 H   0  0  0  0  0  0  0  0  0  0  0  0
   -0.4848   -0.1959    0.4138 C   0  0  1  0  0  0  0  0  0  0  0  0
    0.2783   -0.8411   -0.0248 H   0  0  0  0  0  0  0  0  0  0  0  0
   -0.6101    1.0666   -0.4611 C   0  0  0  0  0  0  0  0  0  0  0  0
   -0.9383    1.8927    0.1732 H   0  0  0  0  0  0  0  0  0  0  0  0
    0.3708    1.3175   -0.8676 H   0  0  0  0  0  0  0  0  0  0  0  0
   -1.6079    0.9219   -1.6234 C   0  0  0  0  0  0  0  0  0  0  0  0
   -1.6343    1.8452   -2.2017 H   0  0  0  0  0  0  0  0  0  0  0  0
   -1.2775    0.1126   -2.2745 H   0  0  0  0  0  0  0  0  0  0  0  0
   -3.0315    0.6147   -1.1592 C   0  0  0  0  0  0  0  0  0  0  0  0
   -3.3298    0.4274    0.0055 O   0  0  0  0  0  0  0  0  0  0  0  0
   -3.9858    0.5571   -2.0626 N   0  0  0  0  0  0  0  0  0  0  0  0
   -4.9017    0.3529   -1.7021 H   0  0  0  0  0  0  0  0  0  0  0  0
   -3.7960    0.7058   -3.0330 H   0  0  0  0  0  0  0  0  0  0  0  0
   -0.0637    0.1284    1.8555 C   0  0  0  0  0  0  0  0  0  0  0  0
    1.0918   -0.0745    2.2236 O   0  0  0  0  0  0  0  0  0  0  0  0
   -1.0024    0.6217    2.6735 N   0  0  0  0  0  0  0  0  0  0  0  0
   -1.9213    0.7848    2.2938 H   0  0  0  0  0  0  0  0  0  0  0  0
   -0.7639    0.9676    4.0741 C   0  0  0  0  0  0  0  0  0  0  0  0
    0.0520    1.6916    4.1400 H   0  0  0  0  0  0  0  0  0  0  0  0
   -1.6626    1.3984    4.5182 H   0  0  0  0  0  0  0  0  0  0  0  0
   -0.4775    0.0737    4.6309 H   0  0  0  0  0  0  0  0  0  0  0  0
  5  6  2  0  0  0  0
  5  7  1  0  0  0  0
  2  3  1  0  0  0  0
  2  4  1  0  0  0  0
  2  5  1  0  0  0  0
  1  2  1  0  0  0  0
 22 23  2  0  0  0  0
 22 24  1  0  0  0  0
 19 20  1  0  0  0  0
 19 21  1  0  0  0  0
 17 18  2  0  0  0  0
 17 19  1  0  0  0  0
 14 15  1  0  0  0  0
 14 16  1  0  0  0  0
 14 17  1  0  0  0  0
 11 12  1  0  0  0  0
 11 13  1  0  0  0  0
 11 14  1  0  0  0  0
  9 10  1  0  0  0  0
  9 11  1  0  0  0  0
  9 22  1  0  0  0  0
  7  8  1  0  0  0  0
  7  9  1  0  0  0  0
 26 27  1  0  0  0  0
 26 28  1  0  0  0  0
 26 29  1  0  0  0  0
 24 25  1  0  0  0  0
 24 26  1  0  0  0  0
M  END
$$$$
default_name
  -OEChem-02102213163D

 29 28  0     1  0  0  0  0  0999 V2000
   -3.3998   -3.6239    1.3678 H   0  0  0  0  0  0  0  0  0  0  0  0
   -3.3608   -2.6749    0.8348 C   0  0  0  0  0  0  0  0  0  0  0  0
   -4.0988   -1.9909    1.2498 H   0  0  0  0  0  0  0  0  0  0  0  0
   -3.5618   -2.8419   -0.2222 H   0  0  0  0  0  0  0  0  0  0  0  0
   -1.9818   -2.0809    0.9918 C   0  0  0  0  0  0  0  0  0  0  0  0
   -1.1288   -2.6669    1.6468 O   0  0  0  0  0  0  0  0  0  0  0  0
   -1.7648   -0.9089    0.3998 N   0  0  0  0  0  0  0  0  0  0  0  0
   -2.5238   -0.4719   -0.1032 H   0  0  0  0  0  0  0  0  0  0  0  0
   -0.4848   -0.1959    0.4138 C   0  0  1  0  0  0  0  0  0  0  0  0
    0.2783   -0.8411   -0.0248 H   0  0  0  0  0  0  0  0  0  0  0  0
   -0.6101    1.0666   -0.4611 C   0  0  0  0  0  0  0  0  0  0  0  0
   -0.9383    1.8927    0.1732 H   0  0  0  0  0  0  0  0  0  0  0  0
    0.3708    1.3175   -0.8676 H   0  0  0  0  0  0  0  0  0  0  0  0
   -1.6079    0.9219   -1.6234 C   0  0  0  0  0  0  0  0  0  0  0  0
   -1.4469    1.7207   -2.3470 H   0  0  0  0  0  0  0  0  0  0  0  0
   -1.4390   -0.0349   -2.1175 H   0  0  0  0  0  0  0  0  0  0  0  0
   -3.0677    0.9795   -1.1736 C   0  0  0  0  0  0  0  0  0  0  0  0
   -3.4060    1.0545   -0.0072 O   0  0  0  0  0  0  0  0  0  0  0  0
   -4.0076    0.9546   -2.0935 N   0  0  0  0  0  0  0  0  0  0  0  0
   -4.9485    0.9959   -1.7421 H   0  0  0  0  0  0  0  0  0  0  0  0
   -3.7847    0.8963   -3.0664 H   0  0  0  0  0  0  0  0  0  0  0  0
   -0.0637    0.1284    1.8555 C   0  0  0  0  0  0  0  0  0  0  0  0
    1.0918   -0.0745    2.2236 O   0  0  0  0  0  0  0  0  0  0  0  0
   -1.0024    0.6217    2.6735 N   0  0  0  0  0  0  0  0  0  0  0  0
   -1.9213    0.7848    2.2938 H   0  0  0  0  0  0  0  0  0  0  0  0
   -0.7639    0.9676    4.0741 C   0  0  0  0  0  0  0  0  0  0  0  0
    0.0520    1.6916    4.1400 H   0  0  0  0  0  0  0  0  0  0  0  0
   -1.6626    1.3984    4.5182 H   0  0  0  0  0  0  0  0  0  0  0  0
   -0.4775    0.0737    4.6309 H   0  0  0  0  0  0  0  0  0  0  0  0
  5  6  2  0  0  0  0
  5  7  1  0  0  0  0
  2  3  1  0  0  0  0
  2  4  1  0  0  0  0
  2  5  1  0  0  0  0
  1  2  1  0  0  0  0
 22 23  2  0  0  0  0
 22 24  1  0  0  0  0
 19 20  1  0  0  0  0
 19 21  1  0  0  0  0
 17 18  2  0  0  0  0
 17 19  1  0  0  0  0
 14 15  1  0  0  0  0
 14 16  1  0  0  0  0
 14 17  1  0  0  0  0
 11 12  1  0  0  0  0
 11 13  1  0  0  0  0
 11 14  1  0  0  0  0
  9 10  1  0  0  0  0
  9 11  1  0  0  0  0
  9 22  1  0  0  0  0
  7  8  1  0  0  0  0
  7  9  1  0  0  0  0
 26 27  1  0  0  0  0
 26 28  1  0  0  0  0
 26 29  1  0  0  0  0
 24 25  1  0  0  0  0
 24 26  1  0  0  0  0
M  END
$$$$
default_name
  -OEChem-02102213163D

 29 28  0     1  0  0  0  0  0999 V2000
   -3.3998   -3.6239    1.3678 H   0  0  0  0  0  0  0  0  0  0  0  0
   -3.3608   -2.6749    0.8348 C   0  0  0  0  0  0  0  0  0  0  0  0
   -4.0988   -1.9909    1.2498 H   0  0  0  0  0  0  0  0  0  0  0  0
   -3.5618   -2.8419   -0.2222 H   0  0  0  0  0  0  0  0  0  0  0  0
   -1.9818   -2.0809    0.9918 C   0  0  0  0  0  0  0  0  0  0  0  0
   -1.1288   -2.6669    1.6468 O   0  0  0  0  0  0  0  0  0  0  0  0
   -1.7648   -0.9089    0.3998 N   0  0  0  0  0  0  0  0  0  0  0  0
   -2.5238   -0.4719   -0.1032 H   0  0  0  0  0  0  0  0  0  0  0  0
   -0.4848   -0.1959    0.4138 C   0  0  1  0  0  0  0  0  0  0  0  0
    0.2783   -0.8411   -0.0248 H   0  0  0  0  0  0  0  0  0  0  0  0
   -0.6101    1.0666   -0.4611 C   0  0  0  0  0  0  0  0  0  0  0  0
   -0.9383    1.8927    0.1732 H   0  0  0  0  0  0  0  0  0  0  0  0
    0.3708    1.3175   -0.8676 H   0  0  0  0  0  0  0  0  0  0  0  0
   -1.6079    0.9219   -1.6234 C   0  0  0  0  0  0  0  0  0  0  0  0
   -1.2867    1.5393   -2.4620 H   0  0  0  0  0  0  0  0  0  0  0  0
   -1.6276   -0.1194   -1.9451 H   0  0  0  0  0  0  0  0  0  0  0  0
   -3.0309    1.3365   -1.2496 C   0  0  0  0  0  0  0  0  0  0  0  0
   -3.3567    1.6730   -0.1266 O   0  0  0  0  0  0  0  0  0  0  0  0
   -3.9501    1.3376   -2.1905 N   0  0  0  0  0  0  0  0  0  0  0  0
   -4.8670    1.6193   -1.8897 H   0  0  0  0  0  0  0  0  0  0  0  0
   -3.7357    1.0726   -3.1305 H   0  0  0  0  0  0  0  0  0  0  0  0
   -0.0637    0.1284    1.8555 C   0  0  0  0  0  0  0  0  0  0  0  0
    1.0918   -0.0745    2.2236 O   0  0  0  0  0  0  0  0  0  0  0  0
   -1.0024    0.6217    2.6735 N   0  0  0  0  0  0  0  0  0  0  0  0
   -1.9213    0.7848    2.2938 H   0  0  0  0  0  0  0  0  0  0  0  0
   -0.7639    0.9676    4.0741 C   0  0  0  0  0  0  0  0  0  0  0  0
    0.0520    1.6916    4.1400 H   0  0  0  0  0  0  0  0  0  0  0  0
   -1.6626    1.3984    4.5182 H   0  0  0  0  0  0  0  0  0  0  0  0
   -0.4775    0.0737    4.6309 H   0  0  0  0  0  0  0  0  0  0  0  0
  5  6  2  0  0  0  0
  5  7  1  0  0  0  0
  2  3  1  0  0  0  0
  2  4  1  0  0  0  0
  2  5  1  0  0  0  0
  1  2  1  0  0  0  0
 22 23  2  0  0  0  0
 22 24  1  0  0  0  0
 19 20  1  0  0  0  0
 19 21  1  0  0  0  0
 17 18  2  0  0  0  0
 17 19  1  0  0  0  0
 14 15  1  0  0  0  0
 14 16  1  0  0  0  0
 14 17  1  0  0  0  0
 11 12  1  0  0  0  0
 11 13  1  0  0  0  0
 11 14  1  0  0  0  0
  9 10  1  0  0  0  0
  9 11  1  0  0  0  0
  9 22  1  0  0  0  0
  7  8  1  0  0  0  0
  7  9  1  0  0  0  0
 26 27  1  0  0  0  0
 26 28  1  0  0  0  0
 26 29  1  0  0  0  0
 24 25  1  0  0  0  0
 24 26  1  0  0  0  0
M  END
$$$$
default_name
  -OEChem-02102213163D

 29 28  0     1  0  0  0  0  0999 V2000
   -3.3998   -3.6239    1.3678 H   0  0  0  0  0  0  0  0  0  0  0  0
   -3.3608   -2.6749    0.8348 C   0  0  0  0  0  0  0  0  0  0  0  0
   -4.0988   -1.9909    1.2498 H   0  0  0  0  0  0  0  0  0  0  0  0
   -3.5618   -2.8419   -0.2222 H   0  0  0  0  0  0  0  0  0  0  0  0
   -1.9818   -2.0809    0.9918 C   0  0  0  0  0  0  0  0  0  0  0  0
   -1.1288   -2.6669    1.6468 O   0  0  0  0  0  0  0  0  0  0  0  0
   -1.7648   -0.9089    0.3998 N   0  0  0  0  0  0  0  0  0  0  0  0
   -2.5238   -0.4719   -0.1032 H   0  0  0  0  0  0  0  0  0  0  0  0
   -0.4848   -0.1959    0.4138 C   0  0  1  0  0  0  0  0  0  0  0  0
    0.2783   -0.8411   -0.0248 H   0  0  0  0  0  0  0  0  0  0  0  0
   -0.6101    1.0666   -0.4611 C   0  0  0  0  0  0  0  0  0  0  0  0
   -0.9383    1.8927    0.1732 H   0  0  0  0  0  0  0  0  0  0  0  0
    0.3708    1.3175   -0.8676 H   0  0  0  0  0  0  0  0  0  0  0  0
   -1.6079    0.9219   -1.6234 C   0  0  0  0  0  0  0  0  0  0  0  0
   -1.1646    1.3136   -2.5387 H   0  0  0  0  0  0  0  0  0  0  0  0
   -1.8304   -0.1352   -1.7690 H   0  0  0  0  0  0  0  0  0  0  0  0
   -2.9238    1.6614   -1.3821 C   0  0  0  0  0  0  0  0  0  0  0  0
   -3.1852    2.2408   -0.3445 O   0  0  0  0  0  0  0  0  0  0  0  0
   -3.8174    1.6801   -2.3471 N   0  0  0  0  0  0  0  0  0  0  0  0
   -4.6628    2.1809   -2.1349 H   0  0  0  0  0  0  0  0  0  0  0  0
   -3.6524    1.2225   -3.2207 H   0  0  0  0  0  0  0  0  0  0  0  0
   -0.0637    0.1284    1.8555 C   0  0  0  0  0  0  0  0  0  0  0  0
    1.0918   -0.0745    2.2236 O   0  0  0  0  0  0  0  0  0  0  0  0
   -1.0024    0.6217    2.6735 N   0  0  0  0  0  0  0  0  0  0  0  0
   -1.9213    0.7848    2.2938 H   0  0  0  0  0  0  0  0  0  0  0  0
   -0.7639    0.9676    4.0741 C   0  0  0  0  0  0  0  0  0  0  0  0
    0.0520    1.6916    4.1400 H   0  0  0  0  0  0  0  0  0  0  0  0
   -1.6626    1.3984    4.5182 H   0  0  0  0  0  0  0  0  0  0  0  0
   -0.4775    0.0737    4.6309 H   0  0  0  0  0  0  0  0  0  0  0  0
  5  6  2  0  0  0  0
  5  7  1  0  0  0  0
  2  3  1  0  0  0  0
  2  4  1  0  0  0  0
  2  5  1  0  0  0  0
  1  2  1  0  0  0  0
 22 23  2  0  0  0  0
 22 24  1  0  0  0  0
 19 20  1  0  0  0  0
 19 21  1  0  0  0  0
 17 18  2  0  0  0  0
 17 19  1  0  0  0  0
 14 15  1  0  0  0  0
 14 16  1  0  0  0  0
 14 17  1  0  0  0  0
 11 12  1  0  0  0  0
 11 13  1  0  0  0  0
 11 14  1  0  0  0  0
  9 10  1  0  0  0  0
  9 11  1  0  0  0  0
  9 22  1  0  0  0  0
  7  8  1  0  0  0  0
  7  9  1  0  0  0  0
 26 27  1  0  0  0  0
 26 28  1  0  0  0  0
 26 29  1  0  0  0  0
 24 25  1  0  0  0  0
 24 26  1  0  0  0  0
M  END
$$$$
default_name
  -OEChem-02102213163D

 29 28  0     1  0  0  0  0  0999 V2000
   -3.3998   -3.6239    1.3678 H   0  0  0  0  0  0  0  0  0  0  0  0
   -3.3608   -2.6749    0.8348 C   0  0  0  0  0  0  0  0  0  0  0  0
   -4.0988   -1.9909    1.2498 H   0  0  0  0  0  0  0  0  0  0  0  0
   -3.5618   -2.8419   -0.2222 H   0  0  0  0  0  0  0  0  0  0  0  0
   -1.9818   -2.0809    0.9918 C   0  0  0  0  0  0  0  0  0  0  0  0
   -1.1288   -2.6669    1.6468 O   0  0  0  0  0  0  0  0  0  0  0  0
   -1.7648   -0.9089    0.3998 N   0  0  0  0  0  0  0  0  0  0  0  0
   -2.5238   -0.4719   -0.1032 H   0  0  0  0  0  0  0  0  0  0  0  0
   -0.4848   -0.1959    0.4138 C   0  0  1  0  0  0  0  0  0  0  0  0
    0.2783   -0.8411   -0.0248 H   0  0  0  0  0  0  0  0  0  0  0  0
   -0.6101    1.0666   -0.4611 C   0  0  0  0  0  0  0  0  0  0  0  0
   -0.9383    1.8927    0.1732 H   0  0  0  0  0  0  0  0  0  0  0  0
    0.3708    1.3175   -0.8676 H   0  0  0  0  0  0  0  0  0  0  0  0
   -1.6079    0.9219   -1.6234 C   0  0  0  0  0  0  0  0  0  0  0  0
   -1.0890    1.0588   -2.5719 H   0  0  0  0  0  0  0  0  0  0  0  0
   -2.0338   -0.0812   -1.6011 H   0  0  0  0  0  0  0  0  0  0  0  0
   -2.7535    1.9320   -1.5619 C   0  0  0  0  0  0  0  0  0  0  0  0
   -2.9032    2.7191   -0.6461 O   0  0  0  0  0  0  0  0  0  0  0  0
   -3.6184    1.9587   -2.5527 N   0  0  0  0  0  0  0  0  0  0  0  0
   -4.3497    2.6422   -2.4611 H   0  0  0  0  0  0  0  0  0  0  0  0
   -3.5404    1.3359   -3.3309 H   0  0  0  0  0  0  0  0  0  0  0  0
   -0.0637    0.1284    1.8555 C   0  0  0  0  0  0  0  0  0  0  0  0
    1.0918   -0.0745    2.2236 O   0  0  0  0  0  0  0  0  0  0  0  0
   -1.0024    0.6217    2.6735 N   0  0  0  0  0  0  0  0  0  0  0  0
   -1.9213    0.7848    2.2938 H   0  0  0  0  0  0  0  0  0  0  0  0
   -0.7639    0.9676    4.0741 C   0  0  0  0  0  0  0  0  0  0  0  0
    0.0520    1.6916    4.1400 H   0  0  0  0  0  0  0  0  0  0  0  0
   -1.6626    1.3984    4.5182 H   0  0  0  0  0  0  0  0  0  0  0  0
   -0.4775    0.0737    4.6309 H   0  0  0  0  0  0  0  0  0  0  0  0
  5  6  2  0  0  0  0
  5  7  1  0  0  0  0
  2  3  1  0  0  0  0
  2  4  1  0  0  0  0
  2  5  1  0  0  0  0
  1  2  1  0  0  0  0
 22 23  2  0  0  0  0
 22 24  1  0  0  0  0
 19 20  1  0  0  0  0
 19 21  1  0  0  0  0
 17 18  2  0  0  0  0
 17 19  1  0  0  0  0
 14 15  1  0  0  0  0
 14 16  1  0  0  0  0
 14 17  1  0  0  0  0
 11 12  1  0  0  0  0
 11 13  1  0  0  0  0
 11 14  1  0  0  0  0
  9 10  1  0  0  0  0
  9 11  1  0  0  0  0
  9 22  1  0  0  0  0
  7  8  1  0  0  0  0
  7  9  1  0  0  0  0
 26 27  1  0  0  0  0
 26 28  1  0  0  0  0
 26 29  1  0  0  0  0
 24 25  1  0  0  0  0
 24 26  1  0  0  0  0
M  END
$$$$
default_name
  -OEChem-02102213163D

 29 28  0     1  0  0  0  0  0999 V2000
   -3.3998   -3.6239    1.3678 H   0  0  0  0  0  0  0  0  0  0  0  0
   -3.3608   -2.6749    0.8348 C   0  0  0  0  0  0  0  0  0  0  0  0
   -4.0988   -1.9909    1.2498 H   0  0  0  0  0  0  0  0  0  0  0  0
   -3.5618   -2.8419   -0.2222 H   0  0  0  0  0  0  0  0  0  0  0  0
   -1.9818   -2.0809    0.9918 C   0  0  0  0  0  0  0  0  0  0  0  0
   -1.1288   -2.6669    1.6468 O   0  0  0  0  0  0  0  0  0  0  0  0
   -1.7648   -0.9089    0.3998 N   0  0  0  0  0  0  0  0  0  0  0  0
   -2.5238   -0.4719   -0.1032 H   0  0  0  0  0  0  0  0  0  0  0  0
   -0.4848   -0.1959    0.4138 C   0  0  1  0  0  0  0  0  0  0  0  0
    0.2783   -0.8411   -0.0248 H   0  0  0  0  0  0  0  0  0  0  0  0
   -0.6101    1.0666   -0.4611 C   0  0  0  0  0  0  0  0  0  0  0  0
   -0.9383    1.8927    0.1732 H   0  0  0  0  0  0  0  0  0  0  0  0
    0.3708    1.3175   -0.8676 H   0  0  0  0  0  0  0  0  0  0  0  0
   -1.6079    0.9219   -1.6234 C   0  0  0  0  0  0  0  0  0  0  0  0
   -1.0649    0.7923   -2.5593 H   0  0  0  0  0  0  0  0  0  0  0  0
   -2.2238    0.0388   -1.4530 H   0  0  0  0  0  0  0  0  0  0  0  0
   -2.5317    2.1300   -1.7770 C   0  0  0  0  0  0  0  0  0  0  0  0
   -2.5300    3.0753   -1.0109 O   0  0  0  0  0  0  0  0  0  0  0  0
   -3.3667    2.1543   -2.7931 N   0  0  0  0  0  0  0  0  0  0  0  0
   -3.9493    2.9718   -2.8459 H   0  0  0  0  0  0  0  0  0  0  0  0
   -3.4073    1.4050   -3.4538 H   0  0  0  0  0  0  0  0  0  0  0  0
   -0.0637    0.1284    1.8555 C   0  0  0  0  0  0  0  0  0  0  0  0
    1.0918   -0.0745    2.2236 O   0  0  0  0  0  0  0  0  0  0  0  0
   -1.0024    0.6217    2.6735 N   0  0  0  0  0  0  0  0  0  0  0  0
   -1.9213    0.7848    2.2938 H   0  0  0  0  0  0  0  0  0  0  0  0
   -0.7639    0.9676    4.0741 C   0  0  0  0  0  0  0  0  0  0  0  0
    0.0520    1.6916    4.1400 H   0  0  0  0  0  0  0  0  0  0  0  0
   -1.6626    1.3984    4.5182 H   0  0  0  0  0  0  0  0  0  0  0  0
   -0.4775    0.0737    4.6309 H   0  0  0  0  0  0  0  0  0  0  0  0
  5  6  2  0  0  0  0
  5  7  1  0  0  0  0
  2  3  1  0  0  0  0
  2  4  1  0  0  0  0
  2  5  1  0  0  0  0
  1  2  1  0  0  0  0
 22 23  2  0  0  0  0
 22 24  1  0  0  0  0
 19 20  1  0  0  0  0
 19 21  1  0  0  0  0
 17 18  2  0  0  0  0
 17 19  1  0  0  0  0
 14 15  1  0  0  0  0
 14 16  1  0  0  0  0
 14 17  1  0  0  0  0
 11 12  1  0  0  0  0
 11 13  1  0  0  0  0
 11 14  1  0  0  0  0
  9 10  1  0  0  0  0
  9 11  1  0  0  0  0
  9 22  1  0  0  0  0
  7  8  1  0  0  0  0
  7  9  1  0  0  0  0
 26 27  1  0  0  0  0
 26 28  1  0  0  0  0
 26 29  1  0  0  0  0
 24 25  1  0  0  0  0
 24 26  1  0  0  0  0
M  END
$$$$
default_name
  -OEChem-02102213163D

 29 28  0     1  0  0  0  0  0999 V2000
   -3.3998   -3.6239    1.3678 H   0  0  0  0  0  0  0  0  0  0  0  0
   -3.3608   -2.6749    0.8348 C   0  0  0  0  0  0  0  0  0  0  0  0
   -4.0988   -1.9909    1.2498 H   0  0  0  0  0  0  0  0  0  0  0  0
   -3.5618   -2.8419   -0.2222 H   0  0  0  0  0  0  0  0  0  0  0  0
   -1.9818   -2.0809    0.9918 C   0  0  0  0  0  0  0  0  0  0  0  0
   -1.1288   -2.6669    1.6468 O   0  0  0  0  0  0  0  0  0  0  0  0
   -1.7648   -0.9089    0.3998 N   0  0  0  0  0  0  0  0  0  0  0  0
   -2.5238   -0.4719   -0.1032 H   0  0  0  0  0  0  0  0  0  0  0  0
   -0.4848   -0.1959    0.4138 C   0  0  1  0  0  0  0  0  0  0  0  0
    0.2783   -0.8411   -0.0248 H   0  0  0  0  0  0  0  0  0  0  0  0
   -0.6101    1.0666   -0.4611 C   0  0  0  0  0  0  0  0  0  0  0  0
   -0.9383    1.8927    0.1732 H   0  0  0  0  0  0  0  0  0  0  0  0
    0.3708    1.3175   -0.8676 H   0  0  0  0  0  0  0  0  0  0  0  0
   -1.6079    0.9219   -1.6234 C   0  0  0  0  0  0  0  0  0  0  0  0
   -1.0940    0.5323   -2.5019 H   0  0  0  0  0  0  0  0  0  0  0  0
   -2.3874    0.2168   -1.3347 H   0  0  0  0  0  0  0  0  0  0  0  0
   -2.2736    2.2417   -2.0125 C   0  0  0  0  0  0  0  0  0  0  0  0
   -2.0910    3.2852   -1.4139 O   0  0  0  0  0  0  0  0  0  0  0  0
   -3.0795    2.2538   -3.0520 N   0  0  0  0  0  0  0  0  0  0  0  0
   -3.4886    3.1473   -3.2632 H   0  0  0  0  0  0  0  0  0  0  0  0
   -3.2623    1.4251   -3.5807 H   0  0  0  0  0  0  0  0  0  0  0  0
   -0.0637    0.1284    1.8555 C   0  0  0  0  0  0  0  0  0  0  0  0
    1.0918   -0.0745    2.2236 O   0  0  0  0  0  0  0  0  0  0  0  0
   -1.0024    0.6217    2.6735 N   0  0  0  0  0  0  0  0  0  0  0  0
   -1.9213    0.7848    2.2938 H   0  0  0  0  0  0  0  0  0  0  0  0
   -0.7639    0.9676    4.0741 C   0  0  0  0  0  0  0  0  0  0  0  0
    0.0520    1.6916    4.1400 H   0  0  0  0  0  0  0  0  0  0  0  0
   -1.6626    1.3984    4.5182 H   0  0  0  0  0  0  0  0  0  0  0  0
   -0.4775    0.0737    4.6309 H   0  0  0  0  0  0  0  0  0  0  0  0
  5  6  2  0  0  0  0
  5  7  1  0  0  0  0
  2  3  1  0  0  0  0
  2  4  1  0  0  0  0
  2  5  1  0  0  0  0
  1  2  1  0  0  0  0
 22 23  2  0  0  0  0
 22 24  1  0  0  0  0
 19 20  1  0  0  0  0
 19 21  1  0  0  0  0
 17 18  2  0  0  0  0
 17 19  1  0  0  0  0
 14 15  1  0  0  0  0
 14 16  1  0  0  0  0
 14 17  1  0  0  0  0
 11 12  1  0  0  0  0
 11 13  1  0  0  0  0
 11 14  1  0  0  0  0
  9 10  1  0  0  0  0
  9 11  1  0  0  0  0
  9 22  1  0  0  0  0
  7  8  1  0  0  0  0
  7  9  1  0  0  0  0
 26 27  1  0  0  0  0
 26 28  1  0  0  0  0
 26 29  1  0  0  0  0
 24 25  1  0  0  0  0
 24 26  1  0  0  0  0
M  END
$$$$
default_name
  -OEChem-02102213163D

 29 28  0     1  0  0  0  0  0999 V2000
   -3.3998   -3.6239    1.3678 H   0  0  0  0  0  0  0  0  0  0  0  0
   -3.3608   -2.6749    0.8348 C   0  0  0  0  0  0  0  0  0  0  0  0
   -4.0988   -1.9909    1.2498 H   0  0  0  0  0  0  0  0  0  0  0  0
   -3.5618   -2.8419   -0.2222 H   0  0  0  0  0  0  0  0  0  0  0  0
   -1.9818   -2.0809    0.9918 C   0  0  0  0  0  0  0  0  0  0  0  0
   -1.1288   -2.6669    1.6468 O   0  0  0  0  0  0  0  0  0  0  0  0
   -1.7648   -0.9089    0.3998 N   0  0  0  0  0  0  0  0  0  0  0  0
   -2.5238   -0.4719   -0.1032 H   0  0  0  0  0  0  0  0  0  0  0  0
   -0.4848   -0.1959    0.4138 C   0  0  1  0  0  0  0  0  0  0  0  0
    0.2783   -0.8411   -0.0248 H   0  0  0  0  0  0  0  0  0  0  0  0
   -0.6101    1.0666   -0.4611 C   0  0  0  0  0  0  0  0  0  0  0  0
   -0.9383    1.8927    0.1732 H   0  0  0  0  0  0  0  0  0  0  0  0
    0.3708    1.3175   -0.8676 H   0  0  0  0  0  0  0  0  0  0  0  0
   -1.6079    0.9219   -1.6234 C   0  0  0  0  0  0  0  0  0  0  0  0
   -1.1744    0.2965   -2.4035 H   0  0  0  0  0  0  0  0  0  0  0  0
   -2.5135    0.4405   -1.2543 H   0  0  0  0  0  0  0  0  0  0  0  0
   -1.9967    2.2597   -2.2524 C   0  0  0  0  0  0  0  0  0  0  0  0
   -1.6161    3.3346   -1.8277 O   0  0  0  0  0  0  0  0  0  0  0  0
   -2.7763    2.2502   -3.3118 N   0  0  0  0  0  0  0  0  0  0  0  0
   -2.9992    3.1568   -3.6846 H   0  0  0  0  0  0  0  0  0  0  0  0
   -3.1152    1.3949   -3.7033 H   0  0  0  0  0  0  0  0  0  0  0  0
   -0.0637    0.1284    1.8555 C   0  0  0  0  0  0  0  0  0  0  0  0
    1.0918   -0.0745    2.2236 O   0  0  0  0  0  0  0  0  0  0  0  0
   -1.0024    0.6217    2.6735 N   0  0  0  0  0  0  0  0  0  0  0  0
   -1.9213    0.7848    2.2938 H   0  0  0  0  0  0  0  0  0  0  0  0
   -0.7639    0.9676    4.0741 C   0  0  0  0  0  0  0  0  0  0  0  0
    0.0520    1.6916    4.1400 H   0  0  0  0  0  0  0  0  0  0  0  0
   -1.6626    1.3984    4.5182 H   0  0  0  0  0  0  0  0  0  0  0  0
   -0.4775    0.0737    4.6309 H   0  0  0  0  0  0  0  0  0  0  0  0
  5  6  2  0  0  0  0
  5  7  1  0  0  0  0
  2  3  1  0  0  0  0
  2  4  1  0  0  0  0
  2  5  1  0  0  0  0
  1  2  1  0  0  0  0
 22 23  2  0  0  0  0
 22 24  1  0  0  0  0
 19 20  1  0  0  0  0
 19 21  1  0  0  0  0
 17 18  2  0  0  0  0
 17 19  1  0  0  0  0
 14 15  1  0  0  0  0
 14 16  1  0  0  0  0
 14 17  1  0  0  0  0
 11 12  1  0  0  0  0
 11 13  1  0  0  0  0
 11 14  1  0  0  0  0
  9 10  1  0  0  0  0
  9 11  1  0  0  0  0
  9 22  1  0  0  0  0
  7  8  1  0  0  0  0
  7  9  1  0  0  0  0
 26 27  1  0  0  0  0
 26 28  1  0  0  0  0
 26 29  1  0  0  0  0
 24 25  1  0  0  0  0
 24 26  1  0  0  0  0
M  END
$$$$
default_name
  -OEChem-02102213163D

 29 28  0     1  0  0  0  0  0999 V2000
   -3.3998   -3.6239    1.3678 H   0  0  0  0  0  0  0  0  0  0  0  0
   -3.3608   -2.6749    0.8348 C   0  0  0  0  0  0  0  0  0  0  0  0
   -4.0988   -1.9909    1.2498 H   0  0  0  0  0  0  0  0  0  0  0  0
   -3.5618   -2.8419   -0.2222 H   0  0  0  0  0  0  0  0  0  0  0  0
   -1.9818   -2.0809    0.9918 C   0  0  0  0  0  0  0  0  0  0  0  0
   -1.1288   -2.6669    1.6468 O   0  0  0  0  0  0  0  0  0  0  0  0
   -1.7648   -0.9089    0.3998 N   0  0  0  0  0  0  0  0  0  0  0  0
   -2.5238   -0.4719   -0.1032 H   0  0  0  0  0  0  0  0  0  0  0  0
   -0.4848   -0.1959    0.4138 C   0  0  1  0  0  0  0  0  0  0  0  0
    0.2783   -0.8411   -0.0248 H   0  0  0  0  0  0  0  0  0  0  0  0
   -0.6101    1.0666   -0.4611 C   0  0  0  0  0  0  0  0  0  0  0  0
   -0.6722    1.9357    0.1972 H   0  0  0  0  0  0  0  0  0  0  0  0
    0.2871    1.1662   -1.0739 H   0  0  0  0  0  0  0  0  0  0  0  0
   -1.8433    1.0663   -1.3812 C   0  0  0  0  0  0  0  0  0  0  0  0
   -1.8035    0.2053   -2.0481 H   0  0  0  0  0  0  0  0  0  0  0  0
   -2.7417    0.9910   -0.7687 H   0  0  0  0  0  0  0  0  0  0  0  0
   -1.9522    2.3251   -2.2415 C   0  0  0  0  0  0  0  0  0  0  0  0
   -1.1849    3.2652   -2.1519 O   0  0  0  0  0  0  0  0  0  0  0  0
   -2.9196    2.3943   -3.1301 N   0  0  0  0  0  0  0  0  0  0  0  0
   -2.9435    3.2431   -3.6682 H   0  0  0  0  0  0  0  0  0  0  0  0
   -3.5758    1.6491   -3.2468 H   0  0  0  0  0  0  0  0  0  0  0  0
   -0.0637    0.1284    1.8555 C   0  0  0  0  0  0  0  0  0  0  0  0
    1.0918   -0.0745    2.2236 O   0  0  0  0  0  0  0  0  0  0  0  0
   -1.0024    0.6217    2.6735 N   0  0  0  0  0  0  0  0  0  0  0  0
   -1.9213    0.7848    2.2938 H   0  0  0  0  0  0  0  0  0  0  0  0
   -0.7639    0.9676    4.0741 C   0  0  0  0  0  0  0  0  0  0  0  0
    0.0520    1.6916    4.1400 H   0  0  0  0  0  0  0  0  0  0  0  0
   -1.6626    1.3984    4.5182 H   0  0  0  0  0  0  0  0  0  0  0  0
   -0.4775    0.0737    4.6309 H   0  0  0  0  0  0  0  0  0  0  0  0
  5  6  2  0  0  0  0
  5  7  1  0  0  0  0
  2  3  1  0  0  0  0
  2  4  1  0  0  0  0
  2  5  1  0  0  0  0
  1  2  1  0  0  0  0
 22 23  2  0  0  0  0
 22 24  1  0  0  0  0
 19 20  1  0  0  0  0
 19 21  1  0  0  0  0
 17 18  2  0  0  0  0
 17 19  1  0  0  0  0
 14 15  1  0  0  0  0
 14 16  1  0  0  0  0
 14 17  1  0  0  0  0
 11 12  1  0  0  0  0
 11 13  1  0  0  0  0
 11 14  1  0  0  0  0
  9 10  1  0  0  0  0
  9 11  1  0  0  0  0
  9 22  1  0  0  0  0
  7  8  1  0  0  0  0
  7  9  1  0  0  0  0
 26 27  1  0  0  0  0
 26 28  1  0  0  0  0
 26 29  1  0  0  0  0
 24 25  1  0  0  0  0
 24 26  1  0  0  0  0
M  END
$$$$
default_name
  -OEChem-02102213163D

 29 28  0     1  0  0  0  0  0999 V2000
   -3.3998   -3.6239    1.3678 H   0  0  0  0  0  0  0  0  0  0  0  0
   -3.3608   -2.6749    0.8348 C   0  0  0  0  0  0  0  0  0  0  0  0
   -4.0988   -1.9909    1.2498 H   0  0  0  0  0  0  0  0  0  0  0  0
   -3.5618   -2.8419   -0.2222 H   0  0  0  0  0  0  0  0  0  0  0  0
   -1.9818   -2.0809    0.9918 C   0  0  0  0  0  0  0  0  0  0  0  0
   -1.1288   -2.6669    1.6468 O   0  0  0  0  0  0  0  0  0  0  0  0
   -1.7648   -0.9089    0.3998 N   0  0  0  0  0  0  0  0  0  0  0  0
   -2.5238   -0.4719   -0.1032 H   0  0  0  0  0  0  0  0  0  0  0  0
   -0.4848   -0.1959    0.4138 C   0  0  1  0  0  0  0  0  0  0  0  0
    0.2783   -0.8411   -0.0248 H   0  0  0  0  0  0  0  0  0  0  0  0
   -0.6101    1.0666   -0.4611 C   0  0  0  0  0  0  0  0  0  0  0  0
   -0.6722    1.9357    0.1972 H   0  0  0  0  0  0  0  0  0  0  0  0
    0.2871    1.1662   -1.0739 H   0  0  0  0  0  0  0  0  0  0  0  0
   -1.8433    1.0663   -1.3812 C   0  0  0  0  0  0  0  0  0  0  0  0
   -1.9481    0.0901   -1.8543 H   0  0  0  0  0  0  0  0  0  0  0  0
   -2.7325    1.2596   -0.7812 H   0  0  0  0  0  0  0  0  0  0  0  0
   -1.7700    2.1206   -2.4856 C   0  0  0  0  0  0  0  0  0  0  0  0
   -0.8651    2.9285   -2.5804 O   0  0  0  0  0  0  0  0  0  0  0  0
   -2.7294    2.1529   -3.3849 N   0  0  0  0  0  0  0  0  0  0  0  0
   -2.6304    2.8648   -4.0877 H   0  0  0  0  0  0  0  0  0  0  0  0
   -3.4949    1.5103   -3.3553 H   0  0  0  0  0  0  0  0  0  0  0  0
   -0.0637    0.1284    1.8555 C   0  0  0  0  0  0  0  0  0  0  0  0
    1.0918   -0.0745    2.2236 O   0  0  0  0  0  0  0  0  0  0  0  0
   -1.0024    0.6217    2.6735 N   0  0  0  0  0  0  0  0  0  0  0  0
   -1.9213    0.7848    2.2938 H   0  0  0  0  0  0  0  0  0  0  0  0
   -0.7639    0.9676    4.0741 C   0  0  0  0  0  0  0  0  0  0  0  0
    0.0520    1.6916    4.1400 H   0  0  0  0  0  0  0  0  0  0  0  0
   -1.6626    1.3984    4.5182 H   0  0  0  0  0  0  0  0  0  0  0  0
   -0.4775    0.0737    4.6309 H   0  0  0  0  0  0  0  0  0  0  0  0
  5  6  2  0  0  0  0
  5  7  1  0  0  0  0
  2  3  1  0  0  0  0
  2  4  1  0  0  0  0
  2  5  1  0  0  0  0
  1  2  1  0  0  0  0
 22 23  2  0  0  0  0
 22 24  1  0  0  0  0
 19 20  1  0  0  0  0
 19 21  1  0  0  0  0
 17 18  2  0  0  0  0
 17 19  1  0  0  0  0
 14 15  1  0  0  0  0
 14 16  1  0  0  0  0
 14 17  1  0  0  0  0
 11 12  1  0  0  0  0
 11 13  1  0  0  0  0
 11 14  1  0  0  0  0
  9 10  1  0  0  0  0
  9 11  1  0  0  0  0
  9 22  1  0  0  0  0
  7  8  1  0  0  0  0
  7  9  1  0  0  0  0
 26 27  1  0  0  0  0
 26 28  1  0  0  0  0
 26 29  1  0  0  0  0
 24 25  1  0  0  0  0
 24 26  1  0  0  0  0
M  END
$$$$
default_name
  -OEChem-02102213163D

 29 28  0     1  0  0  0  0  0999 V2000
   -3.3998   -3.6239    1.3678 H   0  0  0  0  0  0  0  0  0  0  0  0
   -3.3608   -2.6749    0.8348 C   0  0  0  0  0  0  0  0  0  0  0  0
   -4.0988   -1.9909    1.2498 H   0  0  0  0  0  0  0  0  0  0  0  0
   -3.5618   -2.8419   -0.2222 H   0  0  0  0  0  0  0  0  0  0  0  0
   -1.9818   -2.0809    0.9918 C   0  0  0  0  0  0  0  0  0  0  0  0
   -1.1288   -2.6669    1.6468 O   0  0  0  0  0  0  0  0  0  0  0  0
   -1.7648   -0.9089    0.3998 N   0  0  0  0  0  0  0  0  0  0  0  0
   -2.5238   -0.4719   -0.1032 H   0  0  0  0  0  0  0  0  0  0  0  0
   -0.4848   -0.1959    0.4138 C   0  0  1  0  0  0  0  0  0  0  0  0
    0.2783   -0.8411   -0.0248 H   0  0  0  0  0  0  0  0  0  0  0  0
   -0.6101    1.0666   -0.4611 C   0  0  0  0  0  0  0  0  0  0  0  0
   -0.6722    1.9357    0.1972 H   0  0  0  0  0  0  0  0  0  0  0  0
    0.2871    1.1662   -1.0739 H   0  0  0  0  0  0  0  0  0  0  0  0
   -1.8433    1.0663   -1.3812 C   0  0  0  0  0  0  0  0  0  0  0  0
   -2.1056    0.0415   -1.6432 H   0  0  0  0  0  0  0  0  0  0  0  0
   -2.6819    1.5151   -0.8490 H   0  0  0  0  0  0  0  0  0  0  0  0
   -1.6257    1.8443   -2.6789 C   0  0  0  0  0  0  0  0  0  0  0  0
   -0.6083    2.4649   -2.9244 O   0  0  0  0  0  0  0  0  0  0  0  0
   -2.5830    1.8373   -3.5810 N   0  0  0  0  0  0  0  0  0  0  0  0
   -2.3865    2.3639   -4.4144 H   0  0  0  0  0  0  0  0  0  0  0  0
   -3.4381    1.3413   -3.4312 H   0  0  0  0  0  0  0  0  0  0  0  0
   -0.0637    0.1284    1.8555 C   0  0  0  0  0  0  0  0  0  0  0  0
    1.0918   -0.0745    2.2236 O   0  0  0  0  0  0  0  0  0  0  0  0
   -1.0024    0.6217    2.6735 N   0  0  0  0  0  0  0  0  0  0  0  0
   -1.9213    0.7848    2.2938 H   0  0  0  0  0  0  0  0  0  0  0  0
   -0.7639    0.9676    4.0741 C   0  0  0  0  0  0  0  0  0  0  0  0
    0.0520    1.6916    4.1400 H   0  0  0  0  0  0  0  0  0  0  0  0
   -1.6626    1.3984    4.5182 H   0  0  0  0  0  0  0  0  0  0  0  0
   -0.4775    0.0737    4.6309 H   0  0  0  0  0  0  0  0  0  0  0  0
  5  6  2  0  0  0  0
  5  7  1  0  0  0  0
  2  3  1  0  0  0  0
  2  4  1  0  0  0  0
  2  5  1  0  0  0  0
  1  2  1  0  0  0  0
 22 23  2  0  0  0  0
 22 24  1  0  0  0  0
 19 20  1  0  0  0  0
 19 21  1  0  0  0  0
 17 18  2  0  0  0  0
 17 19  1  0  0  0  0
 14 15  1  0  0  0  0
 14 16  1  0  0  0  0
 14 17  1  0  0  0  0
 11 12  1  0  0  0  0
 11 13  1  0  0  0  0
 11 14  1  0  0  0  0
  9 10  1  0  0  0  0
  9 11  1  0  0  0  0
  9 22  1  0  0  0  0
  7  8  1  0  0  0  0
  7  9  1  0  0  0  0
 26 27  1  0  0  0  0
 26 28  1  0  0  0  0
 26 29  1  0  0  0  0
 24 25  1  0  0  0  0
 24 26  1  0  0  0  0
M  END
$$$$
default_name
  -OEChem-02102213163D

 29 28  0     1  0  0  0  0  0999 V2000
   -3.3998   -3.6239    1.3678 H   0  0  0  0  0  0  0  0  0  0  0  0
   -3.3608   -2.6749    0.8348 C   0  0  0  0  0  0  0  0  0  0  0  0
   -4.0988   -1.9909    1.2498 H   0  0  0  0  0  0  0  0  0  0  0  0
   -3.5618   -2.8419   -0.2222 H   0  0  0  0  0  0  0  0  0  0  0  0
   -1.9818   -2.0809    0.9918 C   0  0  0  0  0  0  0  0  0  0  0  0
   -1.1288   -2.6669    1.6468 O   0  0  0  0  0  0  0  0  0  0  0  0
   -1.7648   -0.9089    0.3998 N   0  0  0  0  0  0  0  0  0  0  0  0
   -2.5238   -0.4719   -0.1032 H   0  0  0  0  0  0  0  0  0  0  0  0
   -0.4848   -0.1959    0.4138 C   0  0  1  0  0  0  0  0  0  0  0  0
    0.2783   -0.8411   -0.0248 H   0  0  0  0  0  0  0  0  0  0  0  0
   -0.6101    1.0666   -0.4611 C   0  0  0  0  0  0  0  0  0  0  0  0
   -0.6722    1.9357    0.1972 H   0  0  0  0  0  0  0  0  0  0  0  0
    0.2871    1.1662   -1.0739 H   0  0  0  0  0  0  0  0  0  0  0  0
   -1.8433    1.0663   -1.3812 C   0  0  0  0  0  0  0  0  0  0  0  0
   -2.2653    0.0626   -1.4292 H   0  0  0  0  0  0  0  0  0  0  0  0
   -2.5936    1.7400   -0.9675 H   0  0  0  0  0  0  0  0  0  0  0  0
   -1.5290    1.5149   -2.8083 C   0  0  0  0  0  0  0  0  0  0  0  0
   -0.4319    1.9060   -3.1605 O   0  0  0  0  0  0  0  0  0  0  0  0
   -2.4904    1.4692   -3.7049 N   0  0  0  0  0  0  0  0  0  0  0  0
   -2.2284    1.7745   -4.6261 H   0  0  0  0  0  0  0  0  0  0  0  0
   -3.4095    1.1535   -3.4696 H   0  0  0  0  0  0  0  0  0  0  0  0
   -0.0637    0.1284    1.8555 C   0  0  0  0  0  0  0  0  0  0  0  0
    1.0918   -0.0745    2.2236 O   0  0  0  0  0  0  0  0  0  0  0  0
   -1.0024    0.6217    2.6735 N   0  0  0  0  0  0  0  0  0  0  0  0
   -1.9213    0.7848    2.2938 H   0  0  0  0  0  0  0  0  0  0  0  0
   -0.7639    0.9676    4.0741 C   0  0  0  0  0  0  0  0  0  0  0  0
    0.0520    1.6916    4.1400 H   0  0  0  0  0  0  0  0  0  0  0  0
   -1.6626    1.3984    4.5182 H   0  0  0  0  0  0  0  0  0  0  0  0
   -0.4775    0.0737    4.6309 H   0  0  0  0  0  0  0  0  0  0  0  0
  5  6  2  0  0  0  0
  5  7  1  0  0  0  0
  2  3  1  0  0  0  0
  2  4  1  0  0  0  0
  2  5  1  0  0  0  0
  1  2  1  0  0  0  0
 22 23  2  0  0  0  0
 22 24  1  0  0  0  0
 19 20  1  0  0  0  0
 19 21  1  0  0  0  0
 17 18  2  0  0  0  0
 17 19  1  0  0  0  0
 14 15  1  0  0  0  0
 14 16  1  0  0  0  0
 14 17  1  0  0  0  0
 11 12  1  0  0  0  0
 11 13  1  0  0  0  0
 11 14  1  0  0  0  0
  9 10  1  0  0  0  0
  9 11  1  0  0  0  0
  9 22  1  0  0  0  0
  7  8  1  0  0  0  0
  7  9  1  0  0  0  0
 26 27  1  0  0  0  0
 26 28  1  0  0  0  0
 26 29  1  0  0  0  0
 24 25  1  0  0  0  0
 24 26  1  0  0  0  0
M  END
$$$$
default_name
  -OEChem-02102213163D

 29 28  0     1  0  0  0  0  0999 V2000
   -3.3998   -3.6239    1.3678 H   0  0  0  0  0  0  0  0  0  0  0  0
   -3.3608   -2.6749    0.8348 C   0  0  0  0  0  0  0  0  0  0  0  0
   -4.0988   -1.9909    1.2498 H   0  0  0  0  0  0  0  0  0  0  0  0
   -3.5618   -2.8419   -0.2222 H   0  0  0  0  0  0  0  0  0  0  0  0
   -1.9818   -2.0809    0.9918 C   0  0  0  0  0  0  0  0  0  0  0  0
   -1.1288   -2.6669    1.6468 O   0  0  0  0  0  0  0  0  0  0  0  0
   -1.7648   -0.9089    0.3998 N   0  0  0  0  0  0  0  0  0  0  0  0
   -2.5238   -0.4719   -0.1032 H   0  0  0  0  0  0  0  0  0  0  0  0
   -0.4848   -0.1959    0.4138 C   0  0  1  0  0  0  0  0  0  0  0  0
    0.2783   -0.8411   -0.0248 H   0  0  0  0  0  0  0  0  0  0  0  0
   -0.6101    1.0666   -0.4611 C   0  0  0  0  0  0  0  0  0  0  0  0
   -0.6722    1.9357    0.1972 H   0  0  0  0  0  0  0  0  0  0  0  0
    0.2871    1.1662   -1.0739 H   0  0  0  0  0  0  0  0  0  0  0  0
   -1.8433    1.0663   -1.3812 C   0  0  0  0  0  0  0  0  0  0  0  0
   -2.4163    0.1522   -1.2268 H   0  0  0  0  0  0  0  0  0  0  0  0
   -2.4734    1.9190   -1.1286 H   0  0  0  0  0  0  0  0  0  0  0  0
   -1.4866    1.1549   -2.8650 C   0  0  0  0  0  0  0  0  0  0  0  0
   -0.3481    1.2899   -3.2726 O   0  0  0  0  0  0  0  0  0  0  0  0
   -2.4580    1.0736   -3.7482 N   0  0  0  0  0  0  0  0  0  0  0  0
   -2.1669    1.1368   -4.7083 H   0  0  0  0  0  0  0  0  0  0  0  0
   -3.4109    0.9597   -3.4676 H   0  0  0  0  0  0  0  0  0  0  0  0
   -0.0637    0.1284    1.8555 C   0  0  0  0  0  0  0  0  0  0  0  0
    1.0918   -0.0745    2.2236 O   0  0  0  0  0  0  0  0  0  0  0  0
   -1.0024    0.6217    2.6735 N   0  0  0  0  0  0  0  0  0  0  0  0
   -1.9213    0.7848    2.2938 H   0  0  0  0  0  0  0  0  0  0  0  0
   -0.7639    0.9676    4.0741 C   0  0  0  0  0  0  0  0  0  0  0  0
    0.0520    1.6916    4.1400 H   0  0  0  0  0  0  0  0  0  0  0  0
   -1.6626    1.3984    4.5182 H   0  0  0  0  0  0  0  0  0  0  0  0
   -0.4775    0.0737    4.6309 H   0  0  0  0  0  0  0  0  0  0  0  0
  5  6  2  0  0  0  0
  5  7  1  0  0  0  0
  2  3  1  0  0  0  0
  2  4  1  0  0  0  0
  2  5  1  0  0  0  0
  1  2  1  0  0  0  0
 22 23  2  0  0  0  0
 22 24  1  0  0  0  0
 19 20  1  0  0  0  0
 19 21  1  0  0  0  0
 17 18  2  0  0  0  0
 17 19  1  0  0  0  0
 14 15  1  0  0  0  0
 14 16  1  0  0  0  0
 14 17  1  0  0  0  0
 11 12  1  0  0  0  0
 11 13  1  0  0  0  0
 11 14  1  0  0  0  0
  9 10  1  0  0  0  0
  9 11  1  0  0  0  0
  9 22  1  0  0  0  0
  7  8  1  0  0  0  0
  7  9  1  0  0  0  0
 26 27  1  0  0  0  0
 26 28  1  0  0  0  0
 26 29  1  0  0  0  0
 24 25  1  0  0  0  0
 24 26  1  0  0  0  0
M  END
$$$$
default_name
  -OEChem-02102213163D

 29 28  0     1  0  0  0  0  0999 V2000
   -3.3998   -3.6239    1.3678 H   0  0  0  0  0  0  0  0  0  0  0  0
   -3.3608   -2.6749    0.8348 C   0  0  0  0  0  0  0  0  0  0  0  0
   -4.0988   -1.9909    1.2498 H   0  0  0  0  0  0  0  0  0  0  0  0
   -3.5618   -2.8419   -0.2222 H   0  0  0  0  0  0  0  0  0  0  0  0
   -1.9818   -2.0809    0.9918 C   0  0  0  0  0  0  0  0  0  0  0  0
   -1.1288   -2.6669    1.6468 O   0  0  0  0  0  0  0  0  0  0  0  0
   -1.7648   -0.9089    0.3998 N   0  0  0  0  0  0  0  0  0  0  0  0
   -2.5238   -0.4719   -0.1032 H   0  0  0  0  0  0  0  0  0  0  0  0
   -0.4848   -0.1959    0.4138 C   0  0  1  0  0  0  0  0  0  0  0  0
    0.2783   -0.8411   -0.0248 H   0  0  0  0  0  0  0  0  0  0  0  0
   -0.6101    1.0666   -0.4611 C   0  0  0  0  0  0  0  0  0  0  0  0
   -0.6722    1.9357    0.1972 H   0  0  0  0  0  0  0  0  0  0  0  0
    0.2871    1.1662   -1.0739 H   0  0  0  0  0  0  0  0  0  0  0  0
   -1.8433    1.0663   -1.3812 C   0  0  0  0  0  0  0  0  0  0  0  0
   -2.5483    0.3041   -1.0500 H   0  0  0  0  0  0  0  0  0  0  0  0
   -2.3296    2.0399   -1.3214 H   0  0  0  0  0  0  0  0  0  0  0  0
   -1.5014    0.7889   -2.8451 C   0  0  0  0  0  0  0  0  0  0  0  0
   -0.3625    0.6585   -3.2531 O   0  0  0  0  0  0  0  0  0  0  0  0
   -2.4879    0.6775   -3.7080 N   0  0  0  0  0  0  0  0  0  0  0  0
   -2.2061    0.4943   -4.6554 H   0  0  0  0  0  0  0  0  0  0  0  0
   -3.4422    0.7732   -3.4255 H   0  0  0  0  0  0  0  0  0  0  0  0
   -0.0637    0.1284    1.8555 C   0  0  0  0  0  0  0  0  0  0  0  0
    1.0918   -0.0745    2.2236 O   0  0  0  0  0  0  0  0  0  0  0  0
   -1.0024    0.6217    2.6735 N   0  0  0  0  0  0  0  0  0  0  0  0
   -1.9213    0.7848    2.2938 H   0  0  0  0  0  0  0  0  0  0  0  0
   -0.7639    0.9676    4.0741 C   0  0  0  0  0  0  0  0  0  0  0  0
    0.0520    1.6916    4.1400 H   0  0  0  0  0  0  0  0  0  0  0  0
   -1.6626    1.3984    4.5182 H   0  0  0  0  0  0  0  0  0  0  0  0
   -0.4775    0.0737    4.6309 H   0  0  0  0  0  0  0  0  0  0  0  0
  5  6  2  0  0  0  0
  5  7  1  0  0  0  0
  2  3  1  0  0  0  0
  2  4  1  0  0  0  0
  2  5  1  0  0  0  0
  1  2  1  0  0  0  0
 22 23  2  0  0  0  0
 22 24  1  0  0  0  0
 19 20  1  0  0  0  0
 19 21  1  0  0  0  0
 17 18  2  0  0  0  0
 17 19  1  0  0  0  0
 14 15  1  0  0  0  0
 14 16  1  0  0  0  0
 14 17  1  0  0  0  0
 11 12  1  0  0  0  0
 11 13  1  0  0  0  0
 11 14  1  0  0  0  0
  9 10  1  0  0  0  0
  9 11  1  0  0  0  0
  9 22  1  0  0  0  0
  7  8  1  0  0  0  0
  7  9  1  0  0  0  0
 26 27  1  0  0  0  0
 26 28  1  0  0  0  0
 26 29  1  0  0  0  0
 24 25  1  0  0  0  0
 24 26  1  0  0  0  0
M  END
$$$$
default_name
  -OEChem-02102213163D

 29 28  0     1  0  0  0  0  0999 V2000
   -3.3998   -3.6239    1.3678 H   0  0  0  0  0  0  0  0  0  0  0  0
   -3.3608   -2.6749    0.8348 C   0  0  0  0  0  0  0  0  0  0  0  0
   -4.0988   -1.9909    1.2498 H   0  0  0  0  0  0  0  0  0  0  0  0
   -3.5618   -2.8419   -0.2222 H   0  0  0  0  0  0  0  0  0  0  0  0
   -1.9818   -2.0809    0.9918 C   0  0  0  0  0  0  0  0  0  0  0  0
   -1.1288   -2.6669    1.6468 O   0  0  0  0  0  0  0  0  0  0  0  0
   -1.7648   -0.9089    0.3998 N   0  0  0  0  0  0  0  0  0  0  0  0
   -2.5238   -0.4719   -0.1032 H   0  0  0  0  0  0  0  0  0  0  0  0
   -0.4848   -0.1959    0.4138 C   0  0  1  0  0  0  0  0  0  0  0  0
    0.2783   -0.8411   -0.0248 H   0  0  0  0  0  0  0  0  0  0  0  0
   -0.6101    1.0666   -0.4611 C   0  0  0  0  0  0  0  0  0  0  0  0
   -0.6722    1.9357    0.1972 H   0  0  0  0  0  0  0  0  0  0  0  0
    0.2871    1.1662   -1.0739 H   0  0  0  0  0  0  0  0  0  0  0  0
   -1.8433    1.0663   -1.3812 C   0  0  0  0  0  0  0  0  0  0  0  0
   -2.6523    0.5079   -0.9107 H   0  0  0  0  0  0  0  0  0  0  0  0
   -2.1720    2.0944   -1.5326 H   0  0  0  0  0  0  0  0  0  0  0  0
   -1.5723    0.4418   -2.7499 C   0  0  0  0  0  0  0  0  0  0  0  0
   -0.4742    0.0549   -3.1032 O   0  0  0  0  0  0  0  0  0  0  0  0
   -2.5781    0.3078   -3.5870 N   0  0  0  0  0  0  0  0  0  0  0  0
   -2.3435   -0.1092   -4.4710 H   0  0  0  0  0  0  0  0  0  0  0  0
   -3.5014    0.6065   -3.3462 H   0  0  0  0  0  0  0  0  0  0  0  0
   -0.0637    0.1284    1.8555 C   0  0  0  0  0  0  0  0  0  0  0  0
    1.0918   -0.0745    2.2236 O   0  0  0  0  0  0  0  0  0  0  0  0
   -1.0024    0.6217    2.6735 N   0  0  0  0  0  0  0  0  0  0  0  0
   -1.9213    0.7848    2.2938 H   0  0  0  0  0  0  0  0  0  0  0  0
   -0.7639    0.9676    4.0741 C   0  0  0  0  0  0  0  0  0  0  0  0
    0.0520    1.6916    4.1400 H   0  0  0  0  0  0  0  0  0  0  0  0
   -1.6626    1.3984    4.5182 H   0  0  0  0  0  0  0  0  0  0  0  0
   -0.4775    0.0737    4.6309 H   0  0  0  0  0  0  0  0  0  0  0  0
  5  6  2  0  0  0  0
  5  7  1  0  0  0  0
  2  3  1  0  0  0  0
  2  4  1  0  0  0  0
  2  5  1  0  0  0  0
  1  2  1  0  0  0  0
 22 23  2  0  0  0  0
 22 24  1  0  0  0  0
 19 20  1  0  0  0  0
 19 21  1  0  0  0  0
 17 18  2  0  0  0  0
 17 19  1  0  0  0  0
 14 15  1  0  0  0  0
 14 16  1  0  0  0  0
 14 17  1  0  0  0  0
 11 12  1  0  0  0  0
 11 13  1  0  0  0  0
 11 14  1  0  0  0  0
  9 10  1  0  0  0  0
  9 11  1  0  0  0  0
  9 22  1  0  0  0  0
  7  8  1  0  0  0  0
  7  9  1  0  0  0  0
 26 27  1  0  0  0  0
 26 28  1  0  0  0  0
 26 29  1  0  0  0  0
 24 25  1  0  0  0  0
 24 26  1  0  0  0  0
M  END
$$$$
default_name
  -OEChem-02102213163D

 29 28  0     1  0  0  0  0  0999 V2000
   -3.3998   -3.6239    1.3678 H   0  0  0  0  0  0  0  0  0  0  0  0
   -3.3608   -2.6749    0.8348 C   0  0  0  0  0  0  0  0  0  0  0  0
   -4.0988   -1.9909    1.2498 H   0  0  0  0  0  0  0  0  0  0  0  0
   -3.5618   -2.8419   -0.2222 H   0  0  0  0  0  0  0  0  0  0  0  0
   -1.9818   -2.0809    0.9918 C   0  0  0  0  0  0  0  0  0  0  0  0
   -1.1288   -2.6669    1.6468 O   0  0  0  0  0  0  0  0  0  0  0  0
   -1.7648   -0.9089    0.3998 N   0  0  0  0  0  0  0  0  0  0  0  0
   -2.5238   -0.4719   -0.1032 H   0  0  0  0  0  0  0  0  0  0  0  0
   -0.4848   -0.1959    0.4138 C   0  0  1  0  0  0  0  0  0  0  0  0
    0.2783   -0.8411   -0.0248 H   0  0  0  0  0  0  0  0  0  0  0  0
   -0.6101    1.0666   -0.4611 C   0  0  0  0  0  0  0  0  0  0  0  0
   -0.6722    1.9357    0.1972 H   0  0  0  0  0  0  0  0  0  0  0  0
    0.2871    1.1662   -1.0739 H   0  0  0  0  0  0  0  0  0  0  0  0
   -1.8433    1.0663   -1.3812 C   0  0  0  0  0  0  0  0  0  0  0  0
   -2.7212    0.7497   -0.8184 H   0  0  0  0  0  0  0  0  0  0  0  0
   -2.0114    2.0789   -1.7479 H   0  0  0  0  0  0  0  0  0  0  0  0
   -1.6946    0.1372   -2.5859 C   0  0  0  0  0  0  0  0  0  0  0  0
   -0.6754   -0.4798   -2.8333 O   0  0  0  0  0  0  0  0  0  0  0  0
   -2.7224   -0.0102   -3.3934 N   0  0  0  0  0  0  0  0  0  0  0  0
   -2.5697   -0.6327   -4.1677 H   0  0  0  0  0  0  0  0  0  0  0  0
   -3.5843    0.4712   -3.2350 H   0  0  0  0  0  0  0  0  0  0  0  0
   -0.0637    0.1284    1.8555 C   0  0  0  0  0  0  0  0  0  0  0  0
    1.0918   -0.0745    2.2236 O   0  0  0  0  0  0  0  0  0  0  0  0
   -1.0024    0.6217    2.6735 N   0  0  0  0  0  0  0  0  0  0  0  0
   -1.9213    0.7848    2.2938 H   0  0  0  0  0  0  0  0  0  0  0  0
   -0.7639    0.9676    4.0741 C   0  0  0  0  0  0  0  0  0  0  0  0
    0.0520    1.6916    4.1400 H   0  0  0  0  0  0  0  0  0  0  0  0
   -1.6626    1.3984    4.5182 H   0  0  0  0  0  0  0  0  0  0  0  0
   -0.4775    0.0737    4.6309 H   0  0  0  0  0  0  0  0  0  0  0  0
  5  6  2  0  0  0  0
  5  7  1  0  0  0  0
  2  3  1  0  0  0  0
  2  4  1  0  0  0  0
  2  5  1  0  0  0  0
  1  2  1  0  0  0  0
 22 23  2  0  0  0  0
 22 24  1  0  0  0  0
 19 20  1  0  0  0  0
 19 21  1  0  0  0  0
 17 18  2  0  0  0  0
 17 19  1  0  0  0  0
 14 15  1  0  0  0  0
 14 16  1  0  0  0  0
 14 17  1  0  0  0  0
 11 12  1  0  0  0  0
 11 13  1  0  0  0  0
 11 14  1  0  0  0  0
  9 10  1  0  0  0  0
  9 11  1  0  0  0  0
  9 22  1  0  0  0  0
  7  8  1  0  0  0  0
  7  9  1  0  0  0  0
 26 27  1  0  0  0  0
 26 28  1  0  0  0  0
 26 29  1  0  0  0  0
 24 25  1  0  0  0  0
 24 26  1  0  0  0  0
M  END
$$$$
default_name
  -OEChem-02102213163D

 29 28  0     1  0  0  0  0  0999 V2000
   -3.3998   -3.6239    1.3678 H   0  0  0  0  0  0  0  0  0  0  0  0
   -3.3608   -2.6749    0.8348 C   0  0  0  0  0  0  0  0  0  0  0  0
   -4.0988   -1.9909    1.2498 H   0  0  0  0  0  0  0  0  0  0  0  0
   -3.5618   -2.8419   -0.2222 H   0  0  0  0  0  0  0  0  0  0  0  0
   -1.9818   -2.0809    0.9918 C   0  0  0  0  0  0  0  0  0  0  0  0
   -1.1288   -2.6669    1.6468 O   0  0  0  0  0  0  0  0  0  0  0  0
   -1.7648   -0.9089    0.3998 N   0  0  0  0  0  0  0  0  0  0  0  0
   -2.5238   -0.4719   -0.1032 H   0  0  0  0  0  0  0  0  0  0  0  0
   -0.4848   -0.1959    0.4138 C   0  0  1  0  0  0  0  0  0  0  0  0
    0.2783   -0.8411   -0.0248 H   0  0  0  0  0  0  0  0  0  0  0  0
   -0.6101    1.0666   -0.4611 C   0  0  0  0  0  0  0  0  0  0  0  0
   -0.6722    1.9357    0.1972 H   0  0  0  0  0  0  0  0  0  0  0  0
    0.2871    1.1662   -1.0739 H   0  0  0  0  0  0  0  0  0  0  0  0
   -1.8433    1.0663   -1.3812 C   0  0  0  0  0  0  0  0  0  0  0  0
   -2.7503    1.0131   -0.7794 H   0  0  0  0  0  0  0  0  0  0  0  0
   -1.8586    1.9943   -1.9527 H   0  0  0  0  0  0  0  0  0  0  0  0
   -1.8598   -0.1041   -2.3644 C   0  0  0  0  0  0  0  0  0  0  0  0
   -0.9526   -0.9091   -2.4617 O   0  0  0  0  0  0  0  0  0  0  0  0
   -2.9111   -0.2549   -3.1405 N   0  0  0  0  0  0  0  0  0  0  0  0
   -2.8692   -1.0405   -3.7662 H   0  0  0  0  0  0  0  0  0  0  0  0
   -3.6854    0.3764   -3.0995 H   0  0  0  0  0  0  0  0  0  0  0  0
   -0.0637    0.1284    1.8555 C   0  0  0  0  0  0  0  0  0  0  0  0
    1.0918   -0.0745    2.2236 O   0  0  0  0  0  0  0  0  0  0  0  0
   -1.0024    0.6217    2.6735 N   0  0  0  0  0  0  0  0  0  0  0  0
   -1.9213    0.7848    2.2938 H   0  0  0  0  0  0  0  0  0  0  0  0
   -0.7639    0.9676    4.0741 C   0  0  0  0  0  0  0  0  0  0  0  0
    0.0520    1.6916    4.1400 H   0  0  0  0  0  0  0  0  0  0  0  0
   -1.6626    1.3984    4.5182 H   0  0  0  0  0  0  0  0  0  0  0  0
   -0.4775    0.0737    4.6309 H   0  0  0  0  0  0  0  0  0  0  0  0
  5  6  2  0  0  0  0
  5  7  1  0  0  0  0
  2  3  1  0  0  0  0
  2  4  1  0  0  0  0
  2  5  1  0  0  0  0
  1  2  1  0  0  0  0
 22 23  2  0  0  0  0
 22 24  1  0  0  0  0
 19 20  1  0  0  0  0
 19 21  1  0  0  0  0
 17 18  2  0  0  0  0
 17 19  1  0  0  0  0
 14 15  1  0  0  0  0
 14 16  1  0  0  0  0
 14 17  1  0  0  0  0
 11 12  1  0  0  0  0
 11 13  1  0  0  0  0
 11 14  1  0  0  0  0
  9 10  1  0  0  0  0
  9 11  1  0  0  0  0
  9 22  1  0  0  0  0
  7  8  1  0  0  0  0
  7  9  1  0  0  0  0
 26 27  1  0  0  0  0
 26 28  1  0  0  0  0
 26 29  1  0  0  0  0
 24 25  1  0  0  0  0
 24 26  1  0  0  0  0
M  END
$$$$
default_name
  -OEChem-02102213163D

 29 28  0     1  0  0  0  0  0999 V2000
   -3.3998   -3.6239    1.3678 H   0  0  0  0  0  0  0  0  0  0  0  0
   -3.3608   -2.6749    0.8348 C   0  0  0  0  0  0  0  0  0  0  0  0
   -4.0988   -1.9909    1.2498 H   0  0  0  0  0  0  0  0  0  0  0  0
   -3.5618   -2.8419   -0.2222 H   0  0  0  0  0  0  0  0  0  0  0  0
   -1.9818   -2.0809    0.9918 C   0  0  0  0  0  0  0  0  0  0  0  0
   -1.1288   -2.6669    1.6468 O   0  0  0  0  0  0  0  0  0  0  0  0
   -1.7648   -0.9089    0.3998 N   0  0  0  0  0  0  0  0  0  0  0  0
   -2.5238   -0.4719   -0.1032 H   0  0  0  0  0  0  0  0  0  0  0  0
   -0.4848   -0.1959    0.4138 C   0  0  1  0  0  0  0  0  0  0  0  0
    0.2783   -0.8411   -0.0248 H   0  0  0  0  0  0  0  0  0  0  0  0
   -0.6101    1.0666   -0.4611 C   0  0  0  0  0  0  0  0  0  0  0  0
   -0.6722    1.9357    0.1972 H   0  0  0  0  0  0  0  0  0  0  0  0
    0.2871    1.1662   -1.0739 H   0  0  0  0  0  0  0  0  0  0  0  0
   -1.8433    1.0663   -1.3812 C   0  0  0  0  0  0  0  0  0  0  0  0
   -2.7377    1.2801   -0.7964 H   0  0  0  0  0  0  0  0  0  0  0  0
   -1.7240    1.8465   -2.1330 H   0  0  0  0  0  0  0  0  0  0  0  0
   -2.0568   -0.2656   -2.1004 C   0  0  0  0  0  0  0  0  0  0  0  0
   -1.2868   -1.2038   -2.0136 O   0  0  0  0  0  0  0  0  0  0  0  0
   -3.1312   -0.4095   -2.8454 N   0  0  0  0  0  0  0  0  0  0  0  0
   -3.2216   -1.3047   -3.2938 H   0  0  0  0  0  0  0  0  0  0  0  0
   -3.7977    0.3285   -2.9490 H   0  0  0  0  0  0  0  0  0  0  0  0
   -0.0637    0.1284    1.8555 C   0  0  0  0  0  0  0  0  0  0  0  0
    1.0918   -0.0745    2.2236 O   0  0  0  0  0  0  0  0  0  0  0  0
   -1.0024    0.6217    2.6735 N   0  0  0  0  0  0  0  0  0  0  0  0
   -1.9213    0.7848    2.2938 H   0  0  0  0  0  0  0  0  0  0  0  0
   -0.7639    0.9676    4.0741 C   0  0  0  0  0  0  0  0  0  0  0  0
    0.0520    1.6916    4.1400 H   0  0  0  0  0  0  0  0  0  0  0  0
   -1.6626    1.3984    4.5182 H   0  0  0  0  0  0  0  0  0  0  0  0
   -0.4775    0.0737    4.6309 H   0  0  0  0  0  0  0  0  0  0  0  0
  5  6  2  0  0  0  0
  5  7  1  0  0  0  0
  2  3  1  0  0  0  0
  2  4  1  0  0  0  0
  2  5  1  0  0  0  0
  1  2  1  0  0  0  0
 22 23  2  0  0  0  0
 22 24  1  0  0  0  0
 19 20  1  0  0  0  0
 19 21  1  0  0  0  0
 17 18  2  0  0  0  0
 17 19  1  0  0  0  0
 14 15  1  0  0  0  0
 14 16  1  0  0  0  0
 14 17  1  0  0  0  0
 11 12  1  0  0  0  0
 11 13  1  0  0  0  0
 11 14  1  0  0  0  0
  9 10  1  0  0  0  0
  9 11  1  0  0  0  0
  9 22  1  0  0  0  0
  7  8  1  0  0  0  0
  7  9  1  0  0  0  0
 26 27  1  0  0  0  0
 26 28  1  0  0  0  0
 26 29  1  0  0  0  0
 24 25  1  0  0  0  0
 24 26  1  0  0  0  0
M  END
$$$$
default_name
  -OEChem-02102213163D

 29 28  0     1  0  0  0  0  0999 V2000
   -3.3998   -3.6239    1.3678 H   0  0  0  0  0  0  0  0  0  0  0  0
   -3.3608   -2.6749    0.8348 C   0  0  0  0  0  0  0  0  0  0  0  0
   -4.0988   -1.9909    1.2498 H   0  0  0  0  0  0  0  0  0  0  0  0
   -3.5618   -2.8419   -0.2222 H   0  0  0  0  0  0  0  0  0  0  0  0
   -1.9818   -2.0809    0.9918 C   0  0  0  0  0  0  0  0  0  0  0  0
   -1.1288   -2.6669    1.6468 O   0  0  0  0  0  0  0  0  0  0  0  0
   -1.7648   -0.9089    0.3998 N   0  0  0  0  0  0  0  0  0  0  0  0
   -2.5238   -0.4719   -0.1032 H   0  0  0  0  0  0  0  0  0  0  0  0
   -0.4848   -0.1959    0.4138 C   0  0  1  0  0  0  0  0  0  0  0  0
    0.2783   -0.8411   -0.0248 H   0  0  0  0  0  0  0  0  0  0  0  0
   -0.6101    1.0666   -0.4611 C   0  0  0  0  0  0  0  0  0  0  0  0
   -0.6722    1.9357    0.1972 H   0  0  0  0  0  0  0  0  0  0  0  0
    0.2871    1.1662   -1.0739 H   0  0  0  0  0  0  0  0  0  0  0  0
   -1.8433    1.0663   -1.3812 C   0  0  0  0  0  0  0  0  0  0  0  0
   -2.6842    1.5326   -0.8683 H   0  0  0  0  0  0  0  0  0  0  0  0
   -1.6170    1.6455   -2.2764 H   0  0  0  0  0  0  0  0  0  0  0  0
   -2.2720   -0.3364   -1.8118 C   0  0  0  0  0  0  0  0  0  0  0  0
   -1.6552   -1.3438   -1.5198 O   0  0  0  0  0  0  0  0  0  0  0  0
   -3.3678   -0.4637   -2.5283 N   0  0  0  0  0  0  0  0  0  0  0  0
   -3.6029   -1.4073   -2.7827 H   0  0  0  0  0  0  0  0  0  0  0  0
   -3.9136    0.3309   -2.7937 H   0  0  0  0  0  0  0  0  0  0  0  0
   -0.0637    0.1284    1.8555 C   0  0  0  0  0  0  0  0  0  0  0  0
    1.0918   -0.0745    2.2236 O   0  0  0  0  0  0  0  0  0  0  0  0
   -1.0024    0.6217    2.6735 N   0  0  0  0  0  0  0  0  0  0  0  0
   -1.9213    0.7848    2.2938 H   0  0  0  0  0  0  0  0  0  0  0  0
   -0.7639    0.9676    4.0741 C   0  0  0  0  0  0  0  0  0  0  0  0
    0.0520    1.6916    4.1400 H   0  0  0  0  0  0  0  0  0  0  0  0
   -1.6626    1.3984    4.5182 H   0  0  0  0  0  0  0  0  0  0  0  0
   -0.4775    0.0737    4.6309 H   0  0  0  0  0  0  0  0  0  0  0  0
  5  6  2  0  0  0  0
  5  7  1  0  0  0  0
  2  3  1  0  0  0  0
  2  4  1  0  0  0  0
  2  5  1  0  0  0  0
  1  2  1  0  0  0  0
 22 23  2  0  0  0  0
 22 24  1  0  0  0  0
 19 20  1  0  0  0  0
 19 21  1  0  0  0  0
 17 18  2  0  0  0  0
 17 19  1  0  0  0  0
 14 15  1  0  0  0  0
 14 16  1  0  0  0  0
 14 17  1  0  0  0  0
 11 12  1  0  0  0  0
 11 13  1  0  0  0  0
 11 14  1  0  0  0  0
  9 10  1  0  0  0  0
  9 11  1  0  0  0  0
  9 22  1  0  0  0  0
  7  8  1  0  0  0  0
  7  9  1  0  0  0  0
 26 27  1  0  0  0  0
 26 28  1  0  0  0  0
 26 29  1  0  0  0  0
 24 25  1  0  0  0  0
 24 26  1  0  0  0  0
M  END
$$$$
default_name
  -OEChem-02102213163D

 29 28  0     1  0  0  0  0  0999 V2000
   -3.3998   -3.6239    1.3678 H   0  0  0  0  0  0  0  0  0  0  0  0
   -3.3608   -2.6749    0.8348 C   0  0  0  0  0  0  0  0  0  0  0  0
   -4.0988   -1.9909    1.2498 H   0  0  0  0  0  0  0  0  0  0  0  0
   -3.5618   -2.8419   -0.2222 H   0  0  0  0  0  0  0  0  0  0  0  0
   -1.9818   -2.0809    0.9918 C   0  0  0  0  0  0  0  0  0  0  0  0
   -1.1288   -2.6669    1.6468 O   0  0  0  0  0  0  0  0  0  0  0  0
   -1.7648   -0.9089    0.3998 N   0  0  0  0  0  0  0  0  0  0  0  0
   -2.5238   -0.4719   -0.1032 H   0  0  0  0  0  0  0  0  0  0  0  0
   -0.4848   -0.1959    0.4138 C   0  0  1  0  0  0  0  0  0  0  0  0
    0.2783   -0.8411   -0.0248 H   0  0  0  0  0  0  0  0  0  0  0  0
   -0.6101    1.0666   -0.4611 C   0  0  0  0  0  0  0  0  0  0  0  0
   -0.6722    1.9357    0.1972 H   0  0  0  0  0  0  0  0  0  0  0  0
    0.2871    1.1662   -1.0739 H   0  0  0  0  0  0  0  0  0  0  0  0
   -1.8433    1.0663   -1.3812 C   0  0  0  0  0  0  0  0  0  0  0  0
   -2.5934    1.7533   -0.9900 H   0  0  0  0  0  0  0  0  0  0  0  0
   -1.5446    1.4050   -2.3732 H   0  0  0  0  0  0  0  0  0  0  0  0
   -2.4909   -0.3116   -1.5185 C   0  0  0  0  0  0  0  0  0  0  0  0
   -2.0328   -1.3195   -1.0138 O   0  0  0  0  0  0  0  0  0  0  0  0
   -3.6047   -0.4136   -2.2108 N   0  0  0  0  0  0  0  0  0  0  0  0
   -3.9871   -1.3414   -2.2678 H   0  0  0  0  0  0  0  0  0  0  0  0
   -4.0252    0.3834   -2.6441 H   0  0  0  0  0  0  0  0  0  0  0  0
   -0.0637    0.1284    1.8555 C   0  0  0  0  0  0  0  0  0  0  0  0
    1.0918   -0.0745    2.2236 O   0  0  0  0  0  0  0  0  0  0  0  0
   -1.0024    0.6217    2.6735 N   0  0  0  0  0  0  0  0  0  0  0  0
   -1.9213    0.7848    2.2938 H   0  0  0  0  0  0  0  0  0  0  0  0
   -0.7639    0.9676    4.0741 C   0  0  0  0  0  0  0  0  0  0  0  0
    0.0520    1.6916    4.1400 H   0  0  0  0  0  0  0  0  0  0  0  0
   -1.6626    1.3984    4.5182 H   0  0  0  0  0  0  0  0  0  0  0  0
   -0.4775    0.0737    4.6309 H   0  0  0  0  0  0  0  0  0  0  0  0
  5  6  2  0  0  0  0
  5  7  1  0  0  0  0
  2  3  1  0  0  0  0
  2  4  1  0  0  0  0
  2  5  1  0  0  0  0
  1  2  1  0  0  0  0
 22 23  2  0  0  0  0
 22 24  1  0  0  0  0
 19 20  1  0  0  0  0
 19 21  1  0  0  0  0
 17 18  2  0  0  0  0
 17 19  1  0  0  0  0
 14 15  1  0  0  0  0
 14 16  1  0  0  0  0
 14 17  1  0  0  0  0
 11 12  1  0  0  0  0
 11 13  1  0  0  0  0
 11 14  1  0  0  0  0
  9 10  1  0  0  0  0
  9 11  1  0  0  0  0
  9 22  1  0  0  0  0
  7  8  1  0  0  0  0
  7  9  1  0  0  0  0
 26 27  1  0  0  0  0
 26 28  1  0  0  0  0
 26 29  1  0  0  0  0
 24 25  1  0  0  0  0
 24 26  1  0  0  0  0
M  END
$$$$
default_name
  -OEChem-02102213163D

 29 28  0     1  0  0  0  0  0999 V2000
   -3.3998   -3.6239    1.3678 H   0  0  0  0  0  0  0  0  0  0  0  0
   -3.3608   -2.6749    0.8348 C   0  0  0  0  0  0  0  0  0  0  0  0
   -4.0988   -1.9909    1.2498 H   0  0  0  0  0  0  0  0  0  0  0  0
   -3.5618   -2.8419   -0.2222 H   0  0  0  0  0  0  0  0  0  0  0  0
   -1.9818   -2.0809    0.9918 C   0  0  0  0  0  0  0  0  0  0  0  0
   -1.1288   -2.6669    1.6468 O   0  0  0  0  0  0  0  0  0  0  0  0
   -1.7648   -0.9089    0.3998 N   0  0  0  0  0  0  0  0  0  0  0  0
   -2.5238   -0.4719   -0.1032 H   0  0  0  0  0  0  0  0  0  0  0  0
   -0.4848   -0.1959    0.4138 C   0  0  1  0  0  0  0  0  0  0  0  0
    0.2783   -0.8411   -0.0248 H   0  0  0  0  0  0  0  0  0  0  0  0
   -0.6101    1.0666   -0.4611 C   0  0  0  0  0  0  0  0  0  0  0  0
   -0.6722    1.9357    0.1972 H   0  0  0  0  0  0  0  0  0  0  0  0
    0.2871    1.1662   -1.0739 H   0  0  0  0  0  0  0  0  0  0  0  0
   -1.8433    1.0663   -1.3812 C   0  0  0  0  0  0  0  0  0  0  0  0
   -2.4716    1.9271   -1.1534 H   0  0  0  0  0  0  0  0  0  0  0  0
   -1.5120    1.1415   -2.4169 H   0  0  0  0  0  0  0  0  0  0  0  0
   -2.6985   -0.1928   -1.2403 C   0  0  0  0  0  0  0  0  0  0  0  0
   -2.3938   -1.1326   -0.5300 O   0  0  0  0  0  0  0  0  0  0  0  0
   -3.8258   -0.2626   -1.9146 N   0  0  0  0  0  0  0  0  0  0  0  0
   -4.3481   -1.1115   -1.7841 H   0  0  0  0  0  0  0  0  0  0  0  0
   -4.1248    0.4824   -2.5106 H   0  0  0  0  0  0  0  0  0  0  0  0
   -0.0637    0.1284    1.8555 C   0  0  0  0  0  0  0  0  0  0  0  0
    1.0918   -0.0745    2.2236 O   0  0  0  0  0  0  0  0  0  0  0  0
   -1.0024    0.6217    2.6735 N   0  0  0  0  0  0  0  0  0  0  0  0
   -1.9213    0.7848    2.2938 H   0  0  0  0  0  0  0  0  0  0  0  0
   -0.7639    0.9676    4.0741 C   0  0  0  0  0  0  0  0  0  0  0  0
    0.0520    1.6916    4.1400 H   0  0  0  0  0  0  0  0  0  0  0  0
   -1.6626    1.3984    4.5182 H   0  0  0  0  0  0  0  0  0  0  0  0
   -0.4775    0.0737    4.6309 H   0  0  0  0  0  0  0  0  0  0  0  0
  5  6  2  0  0  0  0
  5  7  1  0  0  0  0
  2  3  1  0  0  0  0
  2  4  1  0  0  0  0
  2  5  1  0  0  0  0
  1  2  1  0  0  0  0
 22 23  2  0  0  0  0
 22 24  1  0  0  0  0
 19 20  1  0  0  0  0
 19 21  1  0  0  0  0
 17 18  2  0  0  0  0
 17 19  1  0  0  0  0
 14 15  1  0  0  0  0
 14 16  1  0  0  0  0
 14 17  1  0  0  0  0
 11 12  1  0  0  0  0
 11 13  1  0  0  0  0
 11 14  1  0  0  0  0
  9 10  1  0  0  0  0
  9 11  1  0  0  0  0
  9 22  1  0  0  0  0
  7  8  1  0  0  0  0
  7  9  1  0  0  0  0
 26 27  1  0  0  0  0
 26 28  1  0  0  0  0
 26 29  1  0  0  0  0
 24 25  1  0  0  0  0
 24 26  1  0  0  0  0
M  END
$$$$
default_name
  -OEChem-02102213163D

 29 28  0     1  0  0  0  0  0999 V2000
   -3.3998   -3.6239    1.3678 H   0  0  0  0  0  0  0  0  0  0  0  0
   -3.3608   -2.6749    0.8348 C   0  0  0  0  0  0  0  0  0  0  0  0
   -4.0988   -1.9909    1.2498 H   0  0  0  0  0  0  0  0  0  0  0  0
   -3.5618   -2.8419   -0.2222 H   0  0  0  0  0  0  0  0  0  0  0  0
   -1.9818   -2.0809    0.9918 C   0  0  0  0  0  0  0  0  0  0  0  0
   -1.1288   -2.6669    1.6468 O   0  0  0  0  0  0  0  0  0  0  0  0
   -1.7648   -0.9089    0.3998 N   0  0  0  0  0  0  0  0  0  0  0  0
   -2.5238   -0.4719   -0.1032 H   0  0  0  0  0  0  0  0  0  0  0  0
   -0.4848   -0.1959    0.4138 C   0  0  1  0  0  0  0  0  0  0  0  0
    0.2783   -0.8411   -0.0248 H   0  0  0  0  0  0  0  0  0  0  0  0
   -0.6101    1.0666   -0.4611 C   0  0  0  0  0  0  0  0  0  0  0  0
   -0.6722    1.9357    0.1972 H   0  0  0  0  0  0  0  0  0  0  0  0
    0.2871    1.1662   -1.0739 H   0  0  0  0  0  0  0  0  0  0  0  0
   -1.8433    1.0663   -1.3812 C   0  0  0  0  0  0  0  0  0  0  0  0
   -2.3270    2.0423   -1.3472 H   0  0  0  0  0  0  0  0  0  0  0  0
   -1.5212    0.8728   -2.4044 H   0  0  0  0  0  0  0  0  0  0  0  0
   -2.8807    0.0117   -0.9962 C   0  0  0  0  0  0  0  0  0  0  0  0
   -2.7136   -0.7959   -0.1015 O   0  0  0  0  0  0  0  0  0  0  0  0
   -4.0160   -0.0212   -1.6597 N   0  0  0  0  0  0  0  0  0  0  0  0
   -4.6612   -0.7332   -1.3646 H   0  0  0  0  0  0  0  0  0  0  0  0
   -4.2058    0.6211   -2.4021 H   0  0  0  0  0  0  0  0  0  0  0  0
   -0.0637    0.1284    1.8555 C   0  0  0  0  0  0  0  0  0  0  0  0
    1.0918   -0.0745    2.2236 O   0  0  0  0  0  0  0  0  0  0  0  0
   -1.0024    0.6217    2.6735 N   0  0  0  0  0  0  0  0  0  0  0  0
   -1.9213    0.7848    2.2938 H   0  0  0  0  0  0  0  0  0  0  0  0
   -0.7639    0.9676    4.0741 C   0  0  0  0  0  0  0  0  0  0  0  0
    0.0520    1.6916    4.1400 H   0  0  0  0  0  0  0  0  0  0  0  0
   -1.6626    1.3984    4.5182 H   0  0  0  0  0  0  0  0  0  0  0  0
   -0.4775    0.0737    4.6309 H   0  0  0  0  0  0  0  0  0  0  0  0
  5  6  2  0  0  0  0
  5  7  1  0  0  0  0
  2  3  1  0  0  0  0
  2  4  1  0  0  0  0
  2  5  1  0  0  0  0
  1  2  1  0  0  0  0
 22 23  2  0  0  0  0
 22 24  1  0  0  0  0
 19 20  1  0  0  0  0
 19 21  1  0  0  0  0
 17 18  2  0  0  0  0
 17 19  1  0  0  0  0
 14 15  1  0  0  0  0
 14 16  1  0  0  0  0
 14 17  1  0  0  0  0
 11 12  1  0  0  0  0
 11 13  1  0  0  0  0
 11 14  1  0  0  0  0
  9 10  1  0  0  0  0
  9 11  1  0  0  0  0
  9 22  1  0  0  0  0
  7  8  1  0  0  0  0
  7  9  1  0  0  0  0
 26 27  1  0  0  0  0
 26 28  1  0  0  0  0
 26 29  1  0  0  0  0
 24 25  1  0  0  0  0
 24 26  1  0  0  0  0
M  END
$$$$
default_name
  -OEChem-02102213163D

 29 28  0     1  0  0  0  0  0999 V2000
   -3.3998   -3.6239    1.3678 H   0  0  0  0  0  0  0  0  0  0  0  0
   -3.3608   -2.6749    0.8348 C   0  0  0  0  0  0  0  0  0  0  0  0
   -4.0988   -1.9909    1.2498 H   0  0  0  0  0  0  0  0  0  0  0  0
   -3.5618   -2.8419   -0.2222 H   0  0  0  0  0  0  0  0  0  0  0  0
   -1.9818   -2.0809    0.9918 C   0  0  0  0  0  0  0  0  0  0  0  0
   -1.1288   -2.6669    1.6468 O   0  0  0  0  0  0  0  0  0  0  0  0
   -1.7648   -0.9089    0.3998 N   0  0  0  0  0  0  0  0  0  0  0  0
   -2.5238   -0.4719   -0.1032 H   0  0  0  0  0  0  0  0  0  0  0  0
   -0.4848   -0.1959    0.4138 C   0  0  1  0  0  0  0  0  0  0  0  0
    0.2783   -0.8411   -0.0248 H   0  0  0  0  0  0  0  0  0  0  0  0
   -0.6101    1.0666   -0.4611 C   0  0  0  0  0  0  0  0  0  0  0  0
   -0.6722    1.9357    0.1972 H   0  0  0  0  0  0  0  0  0  0  0  0
    0.2871    1.1662   -1.0739 H   0  0  0  0  0  0  0  0  0  0  0  0
   -1.8433    1.0663   -1.3812 C   0  0  0  0  0  0  0  0  0  0  0  0
   -2.1695    2.0909   -1.5583 H   0  0  0  0  0  0  0  0  0  0  0  0
   -1.5718    0.6173   -2.3366 H   0  0  0  0  0  0  0  0  0  0  0  0
   -3.0250    0.2880   -0.8029 C   0  0  0  0  0  0  0  0  0  0  0  0
   -2.9704   -0.3323    0.2425 O   0  0  0  0  0  0  0  0  0  0  0  0
   -4.1624    0.2944   -1.4637 N   0  0  0  0  0  0  0  0  0  0  0  0
   -4.9051   -0.2323   -1.0378 H   0  0  0  0  0  0  0  0  0  0  0  0
   -4.2625    0.7901   -2.3262 H   0  0  0  0  0  0  0  0  0  0  0  0
   -0.0637    0.1284    1.8555 C   0  0  0  0  0  0  0  0  0  0  0  0
    1.0918   -0.0745    2.2236 O   0  0  0  0  0  0  0  0  0  0  0  0
   -1.0024    0.6217    2.6735 N   0  0  0  0  0  0  0  0  0  0  0  0
   -1.9213    0.7848    2.2938 H   0  0  0  0  0  0  0  0  0  0  0  0
   -0.7639    0.9676    4.0741 C   0  0  0  0  0  0  0  0  0  0  0  0
    0.0520    1.6916    4.1400 H   0  0  0  0  0  0  0  0  0  0  0  0
   -1.6626    1.3984    4.5182 H   0  0  0  0  0  0  0  0  0  0  0  0
   -0.4775    0.0737    4.6309 H   0  0  0  0  0  0  0  0  0  0  0  0
  5  6  2  0  0  0  0
  5  7  1  0  0  0  0
  2  3  1  0  0  0  0
  2  4  1  0  0  0  0
  2  5  1  0  0  0  0
  1  2  1  0  0  0  0
 22 23  2  0  0  0  0
 22 24  1  0  0  0  0
 19 20  1  0  0  0  0
 19 21  1  0  0  0  0
 17 18  2  0  0  0  0
 17 19  1  0  0  0  0
 14 15  1  0  0  0  0
 14 16  1  0  0  0  0
 14 17  1  0  0  0  0
 11 12  1  0  0  0  0
 11 13  1  0  0  0  0
 11 14  1  0  0  0  0
  9 10  1  0  0  0  0
  9 11  1  0  0  0  0
  9 22  1  0  0  0  0
  7  8  1  0  0  0  0
  7  9  1  0  0  0  0
 26 27  1  0  0  0  0
 26 28  1  0  0  0  0
 26 29  1  0  0  0  0
 24 25  1  0  0  0  0
 24 26  1  0  0  0  0
M  END
$$$$
default_name
  -OEChem-02102213163D

 29 28  0     1  0  0  0  0  0999 V2000
   -3.3998   -3.6239    1.3678 H   0  0  0  0  0  0  0  0  0  0  0  0
   -3.3608   -2.6749    0.8348 C   0  0  0  0  0  0  0  0  0  0  0  0
   -4.0988   -1.9909    1.2498 H   0  0  0  0  0  0  0  0  0  0  0  0
   -3.5618   -2.8419   -0.2222 H   0  0  0  0  0  0  0  0  0  0  0  0
   -1.9818   -2.0809    0.9918 C   0  0  0  0  0  0  0  0  0  0  0  0
   -1.1288   -2.6669    1.6468 O   0  0  0  0  0  0  0  0  0  0  0  0
   -1.7648   -0.9089    0.3998 N   0  0  0  0  0  0  0  0  0  0  0  0
   -2.5238   -0.4719   -0.1032 H   0  0  0  0  0  0  0  0  0  0  0  0
   -0.4848   -0.1959    0.4138 C   0  0  1  0  0  0  0  0  0  0  0  0
    0.2783   -0.8411   -0.0248 H   0  0  0  0  0  0  0  0  0  0  0  0
   -0.6101    1.0666   -0.4611 C   0  0  0  0  0  0  0  0  0  0  0  0
   -0.6722    1.9357    0.1972 H   0  0  0  0  0  0  0  0  0  0  0  0
    0.2871    1.1662   -1.0739 H   0  0  0  0  0  0  0  0  0  0  0  0
   -1.8433    1.0663   -1.3812 C   0  0  0  0  0  0  0  0  0  0  0  0
   -2.0098    2.0698   -1.7723 H   0  0  0  0  0  0  0  0  0  0  0  0
   -1.6601    0.3924   -2.2181 H   0  0  0  0  0  0  0  0  0  0  0  0
   -3.1217    0.6174   -0.6734 C   0  0  0  0  0  0  0  0  0  0  0  0
   -3.1467    0.2266    0.4786 O   0  0  0  0  0  0  0  0  0  0  0  0
   -4.2549    0.6625   -1.3398 N   0  0  0  0  0  0  0  0  0  0  0  0
   -5.0632    0.3571   -0.8262 H   0  0  0  0  0  0  0  0  0  0  0  0
   -4.2911    0.9779   -2.2879 H   0  0  0  0  0  0  0  0  0  0  0  0
   -0.0637    0.1284    1.8555 C   0  0  0  0  0  0  0  0  0  0  0  0
    1.0918   -0.0745    2.2236 O   0  0  0  0  0  0  0  0  0  0  0  0
   -1.0024    0.6217    2.6735 N   0  0  0  0  0  0  0  0  0  0  0  0
   -1.9213    0.7848    2.2938 H   0  0  0  0  0  0  0  0  0  0  0  0
   -0.7639    0.9676    4.0741 C   0  0  0  0  0  0  0  0  0  0  0  0
    0.0520    1.6916    4.1400 H   0  0  0  0  0  0  0  0  0  0  0  0
   -1.6626    1.3984    4.5182 H   0  0  0  0  0  0  0  0  0  0  0  0
   -0.4775    0.0737    4.6309 H   0  0  0  0  0  0  0  0  0  0  0  0
  5  6  2  0  0  0  0
  5  7  1  0  0  0  0
  2  3  1  0  0  0  0
  2  4  1  0  0  0  0
  2  5  1  0  0  0  0
  1  2  1  0  0  0  0
 22 23  2  0  0  0  0
 22 24  1  0  0  0  0
 19 20  1  0  0  0  0
 19 21  1  0  0  0  0
 17 18  2  0  0  0  0
 17 19  1  0  0  0  0
 14 15  1  0  0  0  0
 14 16  1  0  0  0  0
 14 17  1  0  0  0  0
 11 12  1  0  0  0  0
 11 13  1  0  0  0  0
 11 14  1  0  0  0  0
  9 10  1  0  0  0  0
  9 11  1  0  0  0  0
  9 22  1  0  0  0  0
  7  8  1  0  0  0  0
  7  9  1  0  0  0  0
 26 27  1  0  0  0  0
 26 28  1  0  0  0  0
 26 29  1  0  0  0  0
 24 25  1  0  0  0  0
 24 26  1  0  0  0  0
M  END
$$$$
default_name
  -OEChem-02102213163D

 29 28  0     1  0  0  0  0  0999 V2000
   -3.3998   -3.6239    1.3678 H   0  0  0  0  0  0  0  0  0  0  0  0
   -3.3608   -2.6749    0.8348 C   0  0  0  0  0  0  0  0  0  0  0  0
   -4.0988   -1.9909    1.2498 H   0  0  0  0  0  0  0  0  0  0  0  0
   -3.5618   -2.8419   -0.2222 H   0  0  0  0  0  0  0  0  0  0  0  0
   -1.9818   -2.0809    0.9918 C   0  0  0  0  0  0  0  0  0  0  0  0
   -1.1288   -2.6669    1.6468 O   0  0  0  0  0  0  0  0  0  0  0  0
   -1.7648   -0.9089    0.3998 N   0  0  0  0  0  0  0  0  0  0  0  0
   -2.5238   -0.4719   -0.1032 H   0  0  0  0  0  0  0  0  0  0  0  0
   -0.4848   -0.1959    0.4138 C   0  0  1  0  0  0  0  0  0  0  0  0
    0.2783   -0.8411   -0.0248 H   0  0  0  0  0  0  0  0  0  0  0  0
   -0.6101    1.0666   -0.4611 C   0  0  0  0  0  0  0  0  0  0  0  0
   -0.6722    1.9357    0.1972 H   0  0  0  0  0  0  0  0  0  0  0  0
    0.2871    1.1662   -1.0739 H   0  0  0  0  0  0  0  0  0  0  0  0
   -1.8433    1.0663   -1.3812 C   0  0  0  0  0  0  0  0  0  0  0  0
   -1.8588    1.9802   -1.9747 H   0  0  0  0  0  0  0  0  0  0  0  0
   -1.7803    0.2134   -2.0569 H   0  0  0  0  0  0  0  0  0  0  0  0
   -3.1641    0.9774   -0.6168 C   0  0  0  0  0  0  0  0  0  0  0  0
   -3.2306    0.8427    0.5907 O   0  0  0  0  0  0  0  0  0  0  0  0
   -4.2874    1.0581   -1.2964 N   0  0  0  0  0  0  0  0  0  0  0  0
   -5.1248    0.9947   -0.7440 H   0  0  0  0  0  0  0  0  0  0  0  0
   -4.2897    1.1717   -2.2898 H   0  0  0  0  0  0  0  0  0  0  0  0
   -0.0637    0.1284    1.8555 C   0  0  0  0  0  0  0  0  0  0  0  0
    1.0918   -0.0745    2.2236 O   0  0  0  0  0  0  0  0  0  0  0  0
   -1.0024    0.6217    2.6735 N   0  0  0  0  0  0  0  0  0  0  0  0
   -1.9213    0.7848    2.2938 H   0  0  0  0  0  0  0  0  0  0  0  0
   -0.7639    0.9676    4.0741 C   0  0  0  0  0  0  0  0  0  0  0  0
    0.0520    1.6916    4.1400 H   0  0  0  0  0  0  0  0  0  0  0  0
   -1.6626    1.3984    4.5182 H   0  0  0  0  0  0  0  0  0  0  0  0
   -0.4775    0.0737    4.6309 H   0  0  0  0  0  0  0  0  0  0  0  0
  5  6  2  0  0  0  0
  5  7  1  0  0  0  0
  2  3  1  0  0  0  0
  2  4  1  0  0  0  0
  2  5  1  0  0  0  0
  1  2  1  0  0  0  0
 22 23  2  0  0  0  0
 22 24  1  0  0  0  0
 19 20  1  0  0  0  0
 19 21  1  0  0  0  0
 17 18  2  0  0  0  0
 17 19  1  0  0  0  0
 14 15  1  0  0  0  0
 14 16  1  0  0  0  0
 14 17  1  0  0  0  0
 11 12  1  0  0  0  0
 11 13  1  0  0  0  0
 11 14  1  0  0  0  0
  9 10  1  0  0  0  0
  9 11  1  0  0  0  0
  9 22  1  0  0  0  0
  7  8  1  0  0  0  0
  7  9  1  0  0  0  0
 26 27  1  0  0  0  0
 26 28  1  0  0  0  0
 26 29  1  0  0  0  0
 24 25  1  0  0  0  0
 24 26  1  0  0  0  0
M  END
$$$$
default_name
  -OEChem-02102213163D

 29 28  0     1  0  0  0  0  0999 V2000
   -3.3998   -3.6239    1.3678 H   0  0  0  0  0  0  0  0  0  0  0  0
   -3.3608   -2.6749    0.8348 C   0  0  0  0  0  0  0  0  0  0  0  0
   -4.0988   -1.9909    1.2498 H   0  0  0  0  0  0  0  0  0  0  0  0
   -3.5618   -2.8419   -0.2222 H   0  0  0  0  0  0  0  0  0  0  0  0
   -1.9818   -2.0809    0.9918 C   0  0  0  0  0  0  0  0  0  0  0  0
   -1.1288   -2.6669    1.6468 O   0  0  0  0  0  0  0  0  0  0  0  0
   -1.7648   -0.9089    0.3998 N   0  0  0  0  0  0  0  0  0  0  0  0
   -2.5238   -0.4719   -0.1032 H   0  0  0  0  0  0  0  0  0  0  0  0
   -0.4848   -0.1959    0.4138 C   0  0  1  0  0  0  0  0  0  0  0  0
    0.2783   -0.8411   -0.0248 H   0  0  0  0  0  0  0  0  0  0  0  0
   -0.6101    1.0666   -0.4611 C   0  0  0  0  0  0  0  0  0  0  0  0
   -0.6722    1.9357    0.1972 H   0  0  0  0  0  0  0  0  0  0  0  0
    0.2871    1.1662   -1.0739 H   0  0  0  0  0  0  0  0  0  0  0  0
   -1.8433    1.0663   -1.3812 C   0  0  0  0  0  0  0  0  0  0  0  0
   -1.7268    1.8283   -2.1515 H   0  0  0  0  0  0  0  0  0  0  0  0
   -1.9241    0.0925   -1.8642 H   0  0  0  0  0  0  0  0  0  0  0  0
   -3.1493    1.3434   -0.6367 C   0  0  0  0  0  0  0  0  0  0  0  0
   -3.2162    1.4741    0.5712 O   0  0  0  0  0  0  0  0  0  0  0  0
   -4.2575    1.4542   -1.3367 N   0  0  0  0  0  0  0  0  0  0  0  0
   -5.0855    1.6373   -0.7969 H   0  0  0  0  0  0  0  0  0  0  0  0
   -4.2584    1.3583   -2.3319 H   0  0  0  0  0  0  0  0  0  0  0  0
   -0.0637    0.1284    1.8555 C   0  0  0  0  0  0  0  0  0  0  0  0
    1.0918   -0.0745    2.2236 O   0  0  0  0  0  0  0  0  0  0  0  0
   -1.0024    0.6217    2.6735 N   0  0  0  0  0  0  0  0  0  0  0  0
   -1.9213    0.7848    2.2938 H   0  0  0  0  0  0  0  0  0  0  0  0
   -0.7639    0.9676    4.0741 C   0  0  0  0  0  0  0  0  0  0  0  0
    0.0520    1.6916    4.1400 H   0  0  0  0  0  0  0  0  0  0  0  0
   -1.6626    1.3984    4.5182 H   0  0  0  0  0  0  0  0  0  0  0  0
   -0.4775    0.0737    4.6309 H   0  0  0  0  0  0  0  0  0  0  0  0
  5  6  2  0  0  0  0
  5  7  1  0  0  0  0
  2  3  1  0  0  0  0
  2  4  1  0  0  0  0
  2  5  1  0  0  0  0
  1  2  1  0  0  0  0
 22 23  2  0  0  0  0
 22 24  1  0  0  0  0
 19 20  1  0  0  0  0
 19 21  1  0  0  0  0
 17 18  2  0  0  0  0
 17 19  1  0  0  0  0
 14 15  1  0  0  0  0
 14 16  1  0  0  0  0
 14 17  1  0  0  0  0
 11 12  1  0  0  0  0
 11 13  1  0  0  0  0
 11 14  1  0  0  0  0
  9 10  1  0  0  0  0
  9 11  1  0  0  0  0
  9 22  1  0  0  0  0
  7  8  1  0  0  0  0
  7  9  1  0  0  0  0
 26 27  1  0  0  0  0
 26 28  1  0  0  0  0
 26 29  1  0  0  0  0
 24 25  1  0  0  0  0
 24 26  1  0  0  0  0
M  END
$$$$
default_name
  -OEChem-02102213163D

 29 28  0     1  0  0  0  0  0999 V2000
   -3.3998   -3.6239    1.3678 H   0  0  0  0  0  0  0  0  0  0  0  0
   -3.3608   -2.6749    0.8348 C   0  0  0  0  0  0  0  0  0  0  0  0
   -4.0988   -1.9909    1.2498 H   0  0  0  0  0  0  0  0  0  0  0  0
   -3.5618   -2.8419   -0.2222 H   0  0  0  0  0  0  0  0  0  0  0  0
   -1.9818   -2.0809    0.9918 C   0  0  0  0  0  0  0  0  0  0  0  0
   -1.1288   -2.6669    1.6468 O   0  0  0  0  0  0  0  0  0  0  0  0
   -1.7648   -0.9089    0.3998 N   0  0  0  0  0  0  0  0  0  0  0  0
   -2.5238   -0.4719   -0.1032 H   0  0  0  0  0  0  0  0  0  0  0  0
   -0.4848   -0.1959    0.4138 C   0  0  1  0  0  0  0  0  0  0  0  0
    0.2783   -0.8411   -0.0248 H   0  0  0  0  0  0  0  0  0  0  0  0
   -0.6101    1.0666   -0.4611 C   0  0  0  0  0  0  0  0  0  0  0  0
   -0.6722    1.9357    0.1972 H   0  0  0  0  0  0  0  0  0  0  0  0
    0.2871    1.1662   -1.0739 H   0  0  0  0  0  0  0  0  0  0  0  0
   -1.8433    1.0663   -1.3812 C   0  0  0  0  0  0  0  0  0  0  0  0
   -1.6228    1.6246   -2.2908 H   0  0  0  0  0  0  0  0  0  0  0  0
   -2.0817    0.0380   -1.6530 H   0  0  0  0  0  0  0  0  0  0  0  0
   -3.0784    1.6905   -0.7319 C   0  0  0  0  0  0  0  0  0  0  0  0
   -3.1045    2.0777    0.4213 O   0  0  0  0  0  0  0  0  0  0  0  0
   -4.1673    1.8239   -1.4577 N   0  0  0  0  0  0  0  0  0  0  0  0
   -4.9481    2.2408   -0.9812 H   0  0  0  0  0  0  0  0  0  0  0  0
   -4.1992    1.5249   -2.4112 H   0  0  0  0  0  0  0  0  0  0  0  0
   -0.0637    0.1284    1.8555 C   0  0  0  0  0  0  0  0  0  0  0  0
    1.0918   -0.0745    2.2236 O   0  0  0  0  0  0  0  0  0  0  0  0
   -1.0024    0.6217    2.6735 N   0  0  0  0  0  0  0  0  0  0  0  0
   -1.9213    0.7848    2.2938 H   0  0  0  0  0  0  0  0  0  0  0  0
   -0.7639    0.9676    4.0741 C   0  0  0  0  0  0  0  0  0  0  0  0
    0.0520    1.6916    4.1400 H   0  0  0  0  0  0  0  0  0  0  0  0
   -1.6626    1.3984    4.5182 H   0  0  0  0  0  0  0  0  0  0  0  0
   -0.4775    0.0737    4.6309 H   0  0  0  0  0  0  0  0  0  0  0  0
  5  6  2  0  0  0  0
  5  7  1  0  0  0  0
  2  3  1  0  0  0  0
  2  4  1  0  0  0  0
  2  5  1  0  0  0  0
  1  2  1  0  0  0  0
 22 23  2  0  0  0  0
 22 24  1  0  0  0  0
 19 20  1  0  0  0  0
 19 21  1  0  0  0  0
 17 18  2  0  0  0  0
 17 19  1  0  0  0  0
 14 15  1  0  0  0  0
 14 16  1  0  0  0  0
 14 17  1  0  0  0  0
 11 12  1  0  0  0  0
 11 13  1  0  0  0  0
 11 14  1  0  0  0  0
  9 10  1  0  0  0  0
  9 11  1  0  0  0  0
  9 22  1  0  0  0  0
  7  8  1  0  0  0  0
  7  9  1  0  0  0  0
 26 27  1  0  0  0  0
 26 28  1  0  0  0  0
 26 29  1  0  0  0  0
 24 25  1  0  0  0  0
 24 26  1  0  0  0  0
M  END
$$$$
default_name
  -OEChem-02102213163D

 29 28  0     1  0  0  0  0  0999 V2000
   -3.3998   -3.6239    1.3678 H   0  0  0  0  0  0  0  0  0  0  0  0
   -3.3608   -2.6749    0.8348 C   0  0  0  0  0  0  0  0  0  0  0  0
   -4.0988   -1.9909    1.2498 H   0  0  0  0  0  0  0  0  0  0  0  0
   -3.5618   -2.8419   -0.2222 H   0  0  0  0  0  0  0  0  0  0  0  0
   -1.9818   -2.0809    0.9918 C   0  0  0  0  0  0  0  0  0  0  0  0
   -1.1288   -2.6669    1.6468 O   0  0  0  0  0  0  0  0  0  0  0  0
   -1.7648   -0.9089    0.3998 N   0  0  0  0  0  0  0  0  0  0  0  0
   -2.5238   -0.4719   -0.1032 H   0  0  0  0  0  0  0  0  0  0  0  0
   -0.4848   -0.1959    0.4138 C   0  0  1  0  0  0  0  0  0  0  0  0
    0.2783   -0.8411   -0.0248 H   0  0  0  0  0  0  0  0  0  0  0  0
   -0.6101    1.0666   -0.4611 C   0  0  0  0  0  0  0  0  0  0  0  0
   -0.6722    1.9357    0.1972 H   0  0  0  0  0  0  0  0  0  0  0  0
    0.2871    1.1662   -1.0739 H   0  0  0  0  0  0  0  0  0  0  0  0
   -1.8433    1.0663   -1.3812 C   0  0  0  0  0  0  0  0  0  0  0  0
   -1.5539    1.3827   -2.3831 H   0  0  0  0  0  0  0  0  0  0  0  0
   -2.2424    0.0536   -1.4376 H   0  0  0  0  0  0  0  0  0  0  0  0
   -2.9561    1.9951   -0.8958 C   0  0  0  0  0  0  0  0  0  0  0  0
   -2.9033    2.6124    0.1514 O   0  0  0  0  0  0  0  0  0  0  0  0
   -4.0229    2.1419   -1.6512 N   0  0  0  0  0  0  0  0  0  0  0  0
   -4.7219    2.7643   -1.2845 H   0  0  0  0  0  0  0  0  0  0  0  0
   -4.1163    1.6603   -2.5224 H   0  0  0  0  0  0  0  0  0  0  0  0
   -0.0637    0.1284    1.8555 C   0  0  0  0  0  0  0  0  0  0  0  0
    1.0918   -0.0745    2.2236 O   0  0  0  0  0  0  0  0  0  0  0  0
   -1.0024    0.6217    2.6735 N   0  0  0  0  0  0  0  0  0  0  0  0
   -1.9213    0.7848    2.2938 H   0  0  0  0  0  0  0  0  0  0  0  0
   -0.7639    0.9676    4.0741 C   0  0  0  0  0  0  0  0  0  0  0  0
    0.0520    1.6916    4.1400 H   0  0  0  0  0  0  0  0  0  0  0  0
   -1.6626    1.3984    4.5182 H   0  0  0  0  0  0  0  0  0  0  0  0
   -0.4775    0.0737    4.6309 H   0  0  0  0  0  0  0  0  0  0  0  0
  5  6  2  0  0  0  0
  5  7  1  0  0  0  0
  2  3  1  0  0  0  0
  2  4  1  0  0  0  0
  2  5  1  0  0  0  0
  1  2  1  0  0  0  0
 22 23  2  0  0  0  0
 22 24  1  0  0  0  0
 19 20  1  0  0  0  0
 19 21  1  0  0  0  0
 17 18  2  0  0  0  0
 17 19  1  0  0  0  0
 14 15  1  0  0  0  0
 14 16  1  0  0  0  0
 14 17  1  0  0  0  0
 11 12  1  0  0  0  0
 11 13  1  0  0  0  0
 11 14  1  0  0  0  0
  9 10  1  0  0  0  0
  9 11  1  0  0  0  0
  9 22  1  0  0  0  0
  7  8  1  0  0  0  0
  7  9  1  0  0  0  0
 26 27  1  0  0  0  0
 26 28  1  0  0  0  0
 26 29  1  0  0  0  0
 24 25  1  0  0  0  0
 24 26  1  0  0  0  0
M  END
$$$$
default_name
  -OEChem-02102213163D

 29 28  0     1  0  0  0  0  0999 V2000
   -3.3998   -3.6239    1.3678 H   0  0  0  0  0  0  0  0  0  0  0  0
   -3.3608   -2.6749    0.8348 C   0  0  0  0  0  0  0  0  0  0  0  0
   -4.0988   -1.9909    1.2498 H   0  0  0  0  0  0  0  0  0  0  0  0
   -3.5618   -2.8419   -0.2222 H   0  0  0  0  0  0  0  0  0  0  0  0
   -1.9818   -2.0809    0.9918 C   0  0  0  0  0  0  0  0  0  0  0  0
   -1.1288   -2.6669    1.6468 O   0  0  0  0  0  0  0  0  0  0  0  0
   -1.7648   -0.9089    0.3998 N   0  0  0  0  0  0  0  0  0  0  0  0
   -2.5238   -0.4719   -0.1032 H   0  0  0  0  0  0  0  0  0  0  0  0
   -0.4848   -0.1959    0.4138 C   0  0  1  0  0  0  0  0  0  0  0  0
    0.2783   -0.8411   -0.0248 H   0  0  0  0  0  0  0  0  0  0  0  0
   -0.6101    1.0666   -0.4611 C   0  0  0  0  0  0  0  0  0  0  0  0
   -0.6722    1.9357    0.1972 H   0  0  0  0  0  0  0  0  0  0  0  0
    0.2871    1.1662   -1.0739 H   0  0  0  0  0  0  0  0  0  0  0  0
   -1.8433    1.0663   -1.3812 C   0  0  0  0  0  0  0  0  0  0  0  0
   -1.5247    1.1193   -2.4221 H   0  0  0  0  0  0  0  0  0  0  0  0
   -2.3952    0.1381   -1.2328 H   0  0  0  0  0  0  0  0  0  0  0  0
   -2.7909    2.2364   -1.1174 C   0  0  0  0  0  0  0  0  0  0  0  0
   -2.6261    3.0417   -0.2202 O   0  0  0  0  0  0  0  0  0  0  0  0
   -3.8343    2.3866   -1.9042 N   0  0  0  0  0  0  0  0  0  0  0  0
   -4.4225    3.1720   -1.6860 H   0  0  0  0  0  0  0  0  0  0  0  0
   -4.0152    1.7551   -2.6579 H   0  0  0  0  0  0  0  0  0  0  0  0
   -0.0637    0.1284    1.8555 C   0  0  0  0  0  0  0  0  0  0  0  0
    1.0918   -0.0745    2.2236 O   0  0  0  0  0  0  0  0  0  0  0  0
   -1.0024    0.6217    2.6735 N   0  0  0  0  0  0  0  0  0  0  0  0
   -1.9213    0.7848    2.2938 H   0  0  0  0  0  0  0  0  0  0  0  0
   -0.7639    0.9676    4.0741 C   0  0  0  0  0  0  0  0  0  0  0  0
    0.0520    1.6916    4.1400 H   0  0  0  0  0  0  0  0  0  0  0  0
   -1.6626    1.3984    4.5182 H   0  0  0  0  0  0  0  0  0  0  0  0
   -0.4775    0.0737    4.6309 H   0  0  0  0  0  0  0  0  0  0  0  0
  5  6  2  0  0  0  0
  5  7  1  0  0  0  0
  2  3  1  0  0  0  0
  2  4  1  0  0  0  0
  2  5  1  0  0  0  0
  1  2  1  0  0  0  0
 22 23  2  0  0  0  0
 22 24  1  0  0  0  0
 19 20  1  0  0  0  0
 19 21  1  0  0  0  0
 17 18  2  0  0  0  0
 17 19  1  0  0  0  0
 14 15  1  0  0  0  0
 14 16  1  0  0  0  0
 14 17  1  0  0  0  0
 11 12  1  0  0  0  0
 11 13  1  0  0  0  0
 11 14  1  0  0  0  0
  9 10  1  0  0  0  0
  9 11  1  0  0  0  0
  9 22  1  0  0  0  0
  7  8  1  0  0  0  0
  7  9  1  0  0  0  0
 26 27  1  0  0  0  0
 26 28  1  0  0  0  0
 26 29  1  0  0  0  0
 24 25  1  0  0  0  0
 24 26  1  0  0  0  0
M  END
$$$$
default_name
  -OEChem-02102213163D

 29 28  0     1  0  0  0  0  0999 V2000
   -3.3998   -3.6239    1.3678 H   0  0  0  0  0  0  0  0  0  0  0  0
   -3.3608   -2.6749    0.8348 C   0  0  0  0  0  0  0  0  0  0  0  0
   -4.0988   -1.9909    1.2498 H   0  0  0  0  0  0  0  0  0  0  0  0
   -3.5618   -2.8419   -0.2222 H   0  0  0  0  0  0  0  0  0  0  0  0
   -1.9818   -2.0809    0.9918 C   0  0  0  0  0  0  0  0  0  0  0  0
   -1.1288   -2.6669    1.6468 O   0  0  0  0  0  0  0  0  0  0  0  0
   -1.7648   -0.9089    0.3998 N   0  0  0  0  0  0  0  0  0  0  0  0
   -2.5238   -0.4719   -0.1032 H   0  0  0  0  0  0  0  0  0  0  0  0
   -0.4848   -0.1959    0.4138 C   0  0  1  0  0  0  0  0  0  0  0  0
    0.2783   -0.8411   -0.0248 H   0  0  0  0  0  0  0  0  0  0  0  0
   -0.6101    1.0666   -0.4611 C   0  0  0  0  0  0  0  0  0  0  0  0
   -0.6722    1.9357    0.1972 H   0  0  0  0  0  0  0  0  0  0  0  0
    0.2871    1.1662   -1.0739 H   0  0  0  0  0  0  0  0  0  0  0  0
   -1.8433    1.0663   -1.3812 C   0  0  0  0  0  0  0  0  0  0  0  0
   -1.5374    0.8523   -2.4051 H   0  0  0  0  0  0  0  0  0  0  0  0
   -2.5297    0.2859   -1.0526 H   0  0  0  0  0  0  0  0  0  0  0  0
   -2.5939    2.3979   -1.3814 C   0  0  0  0  0  0  0  0  0  0  0  0
   -2.2919    3.3364   -0.6682 O   0  0  0  0  0  0  0  0  0  0  0  0
   -3.6141    2.5413   -2.1992 N   0  0  0  0  0  0  0  0  0  0  0  0
   -4.0700    3.4362   -2.1584 H   0  0  0  0  0  0  0  0  0  0  0  0
   -3.9029    1.8029   -2.8085 H   0  0  0  0  0  0  0  0  0  0  0  0
   -0.0637    0.1284    1.8555 C   0  0  0  0  0  0  0  0  0  0  0  0
    1.0918   -0.0745    2.2236 O   0  0  0  0  0  0  0  0  0  0  0  0
   -1.0024    0.6217    2.6735 N   0  0  0  0  0  0  0  0  0  0  0  0
   -1.9213    0.7848    2.2938 H   0  0  0  0  0  0  0  0  0  0  0  0
   -0.7639    0.9676    4.0741 C   0  0  0  0  0  0  0  0  0  0  0  0
    0.0520    1.6916    4.1400 H   0  0  0  0  0  0  0  0  0  0  0  0
   -1.6626    1.3984    4.5182 H   0  0  0  0  0  0  0  0  0  0  0  0
   -0.4775    0.0737    4.6309 H   0  0  0  0  0  0  0  0  0  0  0  0
  5  6  2  0  0  0  0
  5  7  1  0  0  0  0
  2  3  1  0  0  0  0
  2  4  1  0  0  0  0
  2  5  1  0  0  0  0
  1  2  1  0  0  0  0
 22 23  2  0  0  0  0
 22 24  1  0  0  0  0
 19 20  1  0  0  0  0
 19 21  1  0  0  0  0
 17 18  2  0  0  0  0
 17 19  1  0  0  0  0
 14 15  1  0  0  0  0
 14 16  1  0  0  0  0
 14 17  1  0  0  0  0
 11 12  1  0  0  0  0
 11 13  1  0  0  0  0
 11 14  1  0  0  0  0
  9 10  1  0  0  0  0
  9 11  1  0  0  0  0
  9 22  1  0  0  0  0
  7  8  1  0  0  0  0
  7  9  1  0  0  0  0
 26 27  1  0  0  0  0
 26 28  1  0  0  0  0
 26 29  1  0  0  0  0
 24 25  1  0  0  0  0
 24 26  1  0  0  0  0
M  END
$$$$
default_name
  -OEChem-02102213163D

 29 28  0     1  0  0  0  0  0999 V2000
   -3.3998   -3.6239    1.3678 H   0  0  0  0  0  0  0  0  0  0  0  0
   -3.3608   -2.6749    0.8348 C   0  0  0  0  0  0  0  0  0  0  0  0
   -4.0988   -1.9909    1.2498 H   0  0  0  0  0  0  0  0  0  0  0  0
   -3.5618   -2.8419   -0.2222 H   0  0  0  0  0  0  0  0  0  0  0  0
   -1.9818   -2.0809    0.9918 C   0  0  0  0  0  0  0  0  0  0  0  0
   -1.1288   -2.6669    1.6468 O   0  0  0  0  0  0  0  0  0  0  0  0
   -1.7648   -0.9089    0.3998 N   0  0  0  0  0  0  0  0  0  0  0  0
   -2.5238   -0.4719   -0.1032 H   0  0  0  0  0  0  0  0  0  0  0  0
   -0.4848   -0.1959    0.4138 C   0  0  1  0  0  0  0  0  0  0  0  0
    0.2783   -0.8411   -0.0248 H   0  0  0  0  0  0  0  0  0  0  0  0
   -0.6101    1.0666   -0.4611 C   0  0  0  0  0  0  0  0  0  0  0  0
   -0.6722    1.9357    0.1972 H   0  0  0  0  0  0  0  0  0  0  0  0
    0.2871    1.1662   -1.0739 H   0  0  0  0  0  0  0  0  0  0  0  0
   -1.8433    1.0663   -1.3812 C   0  0  0  0  0  0  0  0  0  0  0  0
   -1.5909    0.5998   -2.3332 H   0  0  0  0  0  0  0  0  0  0  0  0
   -2.6368    0.4869   -0.9092 H   0  0  0  0  0  0  0  0  0  0  0  0
   -2.3787    2.4687   -1.6699 C   0  0  0  0  0  0  0  0  0  0  0  0
   -1.9235    3.4764   -1.1621 O   0  0  0  0  0  0  0  0  0  0  0  0
   -3.3776    2.5954   -2.5163 N   0  0  0  0  0  0  0  0  0  0  0  0
   -3.6887    3.5389   -2.6695 H   0  0  0  0  0  0  0  0  0  0  0  0
   -3.7870    1.8005   -2.9638 H   0  0  0  0  0  0  0  0  0  0  0  0
   -0.0637    0.1284    1.8555 C   0  0  0  0  0  0  0  0  0  0  0  0
    1.0918   -0.0745    2.2236 O   0  0  0  0  0  0  0  0  0  0  0  0
   -1.0024    0.6217    2.6735 N   0  0  0  0  0  0  0  0  0  0  0  0
   -1.9213    0.7848    2.2938 H   0  0  0  0  0  0  0  0  0  0  0  0
   -0.7639    0.9676    4.0741 C   0  0  0  0  0  0  0  0  0  0  0  0
    0.0520    1.6916    4.1400 H   0  0  0  0  0  0  0  0  0  0  0  0
   -1.6626    1.3984    4.5182 H   0  0  0  0  0  0  0  0  0  0  0  0
   -0.4775    0.0737    4.6309 H   0  0  0  0  0  0  0  0  0  0  0  0
  5  6  2  0  0  0  0
  5  7  1  0  0  0  0
  2  3  1  0  0  0  0
  2  4  1  0  0  0  0
  2  5  1  0  0  0  0
  1  2  1  0  0  0  0
 22 23  2  0  0  0  0
 22 24  1  0  0  0  0
 19 20  1  0  0  0  0
 19 21  1  0  0  0  0
 17 18  2  0  0  0  0
 17 19  1  0  0  0  0
 14 15  1  0  0  0  0
 14 16  1  0  0  0  0
 14 17  1  0  0  0  0
 11 12  1  0  0  0  0
 11 13  1  0  0  0  0
 11 14  1  0  0  0  0
  9 10  1  0  0  0  0
  9 11  1  0  0  0  0
  9 22  1  0  0  0  0
  7  8  1  0  0  0  0
  7  9  1  0  0  0  0
 26 27  1  0  0  0  0
 26 28  1  0  0  0  0
 26 29  1  0  0  0  0
 24 25  1  0  0  0  0
 24 26  1  0  0  0  0
M  END
$$$$
default_name
  -OEChem-02102213163D

 29 28  0     1  0  0  0  0  0999 V2000
   -3.3998   -3.6239    1.3678 H   0  0  0  0  0  0  0  0  0  0  0  0
   -3.3608   -2.6749    0.8348 C   0  0  0  0  0  0  0  0  0  0  0  0
   -4.0988   -1.9909    1.2498 H   0  0  0  0  0  0  0  0  0  0  0  0
   -3.5618   -2.8419   -0.2222 H   0  0  0  0  0  0  0  0  0  0  0  0
   -1.9818   -2.0809    0.9918 C   0  0  0  0  0  0  0  0  0  0  0  0
   -1.1288   -2.6669    1.6468 O   0  0  0  0  0  0  0  0  0  0  0  0
   -1.7648   -0.9089    0.3998 N   0  0  0  0  0  0  0  0  0  0  0  0
   -2.5238   -0.4719   -0.1032 H   0  0  0  0  0  0  0  0  0  0  0  0
   -0.4848   -0.1959    0.4138 C   0  0  1  0  0  0  0  0  0  0  0  0
    0.2783   -0.8411   -0.0248 H   0  0  0  0  0  0  0  0  0  0  0  0
   -0.6101    1.0666   -0.4611 C   0  0  0  0  0  0  0  0  0  0  0  0
   -0.6722    1.9357    0.1972 H   0  0  0  0  0  0  0  0  0  0  0  0
    0.2871    1.1662   -1.0739 H   0  0  0  0  0  0  0  0  0  0  0  0
   -1.8433    1.0663   -1.3812 C   0  0  0  0  0  0  0  0  0  0  0  0
   -1.6816    0.3792   -2.2115 H   0  0  0  0  0  0  0  0  0  0  0  0
   -2.7091    0.7274   -0.8123 H   0  0  0  0  0  0  0  0  0  0  0  0
   -2.1598    2.4439   -1.9633 C   0  0  0  0  0  0  0  0  0  0  0  0
   -1.5459    3.4521   -1.6681 O   0  0  0  0  0  0  0  0  0  0  0  0
   -3.1407    2.5453   -2.8338 N   0  0  0  0  0  0  0  0  0  0  0  0
   -3.3045    3.4730   -3.1845 H   0  0  0  0  0  0  0  0  0  0  0  0
   -3.6755    1.7480   -3.1133 H   0  0  0  0  0  0  0  0  0  0  0  0
   -0.0637    0.1284    1.8555 C   0  0  0  0  0  0  0  0  0  0  0  0
    1.0918   -0.0745    2.2236 O   0  0  0  0  0  0  0  0  0  0  0  0
   -1.0024    0.6217    2.6735 N   0  0  0  0  0  0  0  0  0  0  0  0
   -1.9213    0.7848    2.2938 H   0  0  0  0  0  0  0  0  0  0  0  0
   -0.7639    0.9676    4.0741 C   0  0  0  0  0  0  0  0  0  0  0  0
    0.0520    1.6916    4.1400 H   0  0  0  0  0  0  0  0  0  0  0  0
   -1.6626    1.3984    4.5182 H   0  0  0  0  0  0  0  0  0  0  0  0
   -0.4775    0.0737    4.6309 H   0  0  0  0  0  0  0  0  0  0  0  0
  5  6  2  0  0  0  0
  5  7  1  0  0  0  0
  2  3  1  0  0  0  0
  2  4  1  0  0  0  0
  2  5  1  0  0  0  0
  1  2  1  0  0  0  0
 22 23  2  0  0  0  0
 22 24  1  0  0  0  0
 19 20  1  0  0  0  0
 19 21  1  0  0  0  0
 17 18  2  0  0  0  0
 17 19  1  0  0  0  0
 14 15  1  0  0  0  0
 14 16  1  0  0  0  0
 14 17  1  0  0  0  0
 11 12  1  0  0  0  0
 11 13  1  0  0  0  0
 11 14  1  0  0  0  0
  9 10  1  0  0  0  0
  9 11  1  0  0  0  0
  9 22  1  0  0  0  0
  7  8  1  0  0  0  0
  7  9  1  0  0  0  0
 26 27  1  0  0  0  0
 26 28  1  0  0  0  0
 26 29  1  0  0  0  0
 24 25  1  0  0  0  0
 24 26  1  0  0  0  0
M  END
$$$$
default_name
  -OEChem-02102213163D

 29 28  0     1  0  0  0  0  0999 V2000
   -3.3998   -3.6239    1.3678 H   0  0  0  0  0  0  0  0  0  0  0  0
   -3.3608   -2.6749    0.8348 C   0  0  0  0  0  0  0  0  0  0  0  0
   -4.0988   -1.9909    1.2498 H   0  0  0  0  0  0  0  0  0  0  0  0
   -3.5618   -2.8419   -0.2222 H   0  0  0  0  0  0  0  0  0  0  0  0
   -1.9818   -2.0809    0.9918 C   0  0  0  0  0  0  0  0  0  0  0  0
   -1.1288   -2.6669    1.6468 O   0  0  0  0  0  0  0  0  0  0  0  0
   -1.7648   -0.9089    0.3998 N   0  0  0  0  0  0  0  0  0  0  0  0
   -2.5238   -0.4719   -0.1032 H   0  0  0  0  0  0  0  0  0  0  0  0
   -0.4848   -0.1959    0.4138 C   0  0  1  0  0  0  0  0  0  0  0  0
    0.2783   -0.8411   -0.0248 H   0  0  0  0  0  0  0  0  0  0  0  0
   -0.6101    1.0666   -0.4611 C   0  0  0  0  0  0  0  0  0  0  0  0
   -0.4038    1.9387    0.1629 H   0  0  0  0  0  0  0  0  0  0  0  0
    0.1402    1.0280   -1.2522 H   0  0  0  0  0  0  0  0  0  0  0  0
   -1.9982    1.2455   -1.1004 C   0  0  0  0  0  0  0  0  0  0  0  0
   -2.2267    0.3847   -1.7286 H   0  0  0  0  0  0  0  0  0  0  0  0
   -2.7462    1.3082   -0.3102 H   0  0  0  0  0  0  0  0  0  0  0  0
   -2.1050    2.5020   -1.9644 C   0  0  0  0  0  0  0  0  0  0  0  0
   -1.2085    3.3175   -2.0730 O   0  0  0  0  0  0  0  0  0  0  0  0
   -3.2194    2.7101   -2.6314 N   0  0  0  0  0  0  0  0  0  0  0  0
   -3.2347    3.5501   -3.1834 H   0  0  0  0  0  0  0  0  0  0  0  0
   -3.9862    2.0705   -2.5799 H   0  0  0  0  0  0  0  0  0  0  0  0
   -0.0637    0.1284    1.8555 C   0  0  0  0  0  0  0  0  0  0  0  0
    1.0918   -0.0745    2.2236 O   0  0  0  0  0  0  0  0  0  0  0  0
   -1.0024    0.6217    2.6735 N   0  0  0  0  0  0  0  0  0  0  0  0
   -1.9213    0.7848    2.2938 H   0  0  0  0  0  0  0  0  0  0  0  0
   -0.7639    0.9676    4.0741 C   0  0  0  0  0  0  0  0  0  0  0  0
    0.0520    1.6916    4.1400 H   0  0  0  0  0  0  0  0  0  0  0  0
   -1.6626    1.3984    4.5182 H   0  0  0  0  0  0  0  0  0  0  0  0
   -0.4775    0.0737    4.6309 H   0  0  0  0  0  0  0  0  0  0  0  0
  5  6  2  0  0  0  0
  5  7  1  0  0  0  0
  2  3  1  0  0  0  0
  2  4  1  0  0  0  0
  2  5  1  0  0  0  0
  1  2  1  0  0  0  0
 22 23  2  0  0  0  0
 22 24  1  0  0  0  0
 19 20  1  0  0  0  0
 19 21  1  0  0  0  0
 17 18  2  0  0  0  0
 17 19  1  0  0  0  0
 14 15  1  0  0  0  0
 14 16  1  0  0  0  0
 14 17  1  0  0  0  0
 11 12  1  0  0  0  0
 11 13  1  0  0  0  0
 11 14  1  0  0  0  0
  9 10  1  0  0  0  0
  9 11  1  0  0  0  0
  9 22  1  0  0  0  0
  7  8  1  0  0  0  0
  7  9  1  0  0  0  0
 26 27  1  0  0  0  0
 26 28  1  0  0  0  0
 26 29  1  0  0  0  0
 24 25  1  0  0  0  0
 24 26  1  0  0  0  0
M  END
$$$$
default_name
  -OEChem-02102213163D

 29 28  0     1  0  0  0  0  0999 V2000
   -3.3998   -3.6239    1.3678 H   0  0  0  0  0  0  0  0  0  0  0  0
   -3.3608   -2.6749    0.8348 C   0  0  0  0  0  0  0  0  0  0  0  0
   -4.0988   -1.9909    1.2498 H   0  0  0  0  0  0  0  0  0  0  0  0
   -3.5618   -2.8419   -0.2222 H   0  0  0  0  0  0  0  0  0  0  0  0
   -1.9818   -2.0809    0.9918 C   0  0  0  0  0  0  0  0  0  0  0  0
   -1.1288   -2.6669    1.6468 O   0  0  0  0  0  0  0  0  0  0  0  0
   -1.7648   -0.9089    0.3998 N   0  0  0  0  0  0  0  0  0  0  0  0
   -2.5238   -0.4719   -0.1032 H   0  0  0  0  0  0  0  0  0  0  0  0
   -0.4848   -0.1959    0.4138 C   0  0  1  0  0  0  0  0  0  0  0  0
    0.2783   -0.8411   -0.0248 H   0  0  0  0  0  0  0  0  0  0  0  0
   -0.6101    1.0666   -0.4611 C   0  0  0  0  0  0  0  0  0  0  0  0
   -0.4038    1.9387    0.1629 H   0  0  0  0  0  0  0  0  0  0  0  0
    0.1402    1.0280   -1.2522 H   0  0  0  0  0  0  0  0  0  0  0  0
   -1.9982    1.2455   -1.1004 C   0  0  0  0  0  0  0  0  0  0  0  0
   -2.3417    0.2934   -1.5045 H   0  0  0  0  0  0  0  0  0  0  0  0
   -2.7011    1.5725   -0.3343 H   0  0  0  0  0  0  0  0  0  0  0  0
   -2.0107    2.2713   -2.2336 C   0  0  0  0  0  0  0  0  0  0  0  0
   -1.0398    2.9347   -2.5465 O   0  0  0  0  0  0  0  0  0  0  0  0
   -3.1250    2.4416   -2.9115 N   0  0  0  0  0  0  0  0  0  0  0  0
   -3.0765    3.1271   -3.6451 H   0  0  0  0  0  0  0  0  0  0  0  0
   -3.9512    1.9207   -2.6977 H   0  0  0  0  0  0  0  0  0  0  0  0
   -0.0637    0.1284    1.8555 C   0  0  0  0  0  0  0  0  0  0  0  0
    1.0918   -0.0745    2.2236 O   0  0  0  0  0  0  0  0  0  0  0  0
   -1.0024    0.6217    2.6735 N   0  0  0  0  0  0  0  0  0  0  0  0
   -1.9213    0.7848    2.2938 H   0  0  0  0  0  0  0  0  0  0  0  0
   -0.7639    0.9676    4.0741 C   0  0  0  0  0  0  0  0  0  0  0  0
    0.0520    1.6916    4.1400 H   0  0  0  0  0  0  0  0  0  0  0  0
   -1.6626    1.3984    4.5182 H   0  0  0  0  0  0  0  0  0  0  0  0
   -0.4775    0.0737    4.6309 H   0  0  0  0  0  0  0  0  0  0  0  0
  5  6  2  0  0  0  0
  5  7  1  0  0  0  0
  2  3  1  0  0  0  0
  2  4  1  0  0  0  0
  2  5  1  0  0  0  0
  1  2  1  0  0  0  0
 22 23  2  0  0  0  0
 22 24  1  0  0  0  0
 19 20  1  0  0  0  0
 19 21  1  0  0  0  0
 17 18  2  0  0  0  0
 17 19  1  0  0  0  0
 14 15  1  0  0  0  0
 14 16  1  0  0  0  0
 14 17  1  0  0  0  0
 11 12  1  0  0  0  0
 11 13  1  0  0  0  0
 11 14  1  0  0  0  0
  9 10  1  0  0  0  0
  9 11  1  0  0  0  0
  9 22  1  0  0  0  0
  7  8  1  0  0  0  0
  7  9  1  0  0  0  0
 26 27  1  0  0  0  0
 26 28  1  0  0  0  0
 26 29  1  0  0  0  0
 24 25  1  0  0  0  0
 24 26  1  0  0  0  0
M  END
$$$$
default_name
  -OEChem-02102213163D

 29 28  0     1  0  0  0  0  0999 V2000
   -3.3998   -3.6239    1.3678 H   0  0  0  0  0  0  0  0  0  0  0  0
   -3.3608   -2.6749    0.8348 C   0  0  0  0  0  0  0  0  0  0  0  0
   -4.0988   -1.9909    1.2498 H   0  0  0  0  0  0  0  0  0  0  0  0
   -3.5618   -2.8419   -0.2222 H   0  0  0  0  0  0  0  0  0  0  0  0
   -1.9818   -2.0809    0.9918 C   0  0  0  0  0  0  0  0  0  0  0  0
   -1.1288   -2.6669    1.6468 O   0  0  0  0  0  0  0  0  0  0  0  0
   -1.7648   -0.9089    0.3998 N   0  0  0  0  0  0  0  0  0  0  0  0
   -2.5238   -0.4719   -0.1032 H   0  0  0  0  0  0  0  0  0  0  0  0
   -0.4848   -0.1959    0.4138 C   0  0  1  0  0  0  0  0  0  0  0  0
    0.2783   -0.8411   -0.0248 H   0  0  0  0  0  0  0  0  0  0  0  0
   -0.6101    1.0666   -0.4611 C   0  0  0  0  0  0  0  0  0  0  0  0
   -0.4038    1.9387    0.1629 H   0  0  0  0  0  0  0  0  0  0  0  0
    0.1402    1.0280   -1.2522 H   0  0  0  0  0  0  0  0  0  0  0  0
   -1.9982    1.2455   -1.1004 C   0  0  0  0  0  0  0  0  0  0  0  0
   -2.4558    0.2699   -1.2633 H   0  0  0  0  0  0  0  0  0  0  0  0
   -2.6298    1.8172   -0.4206 H   0  0  0  0  0  0  0  0  0  0  0  0
   -1.9525    1.9755   -2.4427 C   0  0  0  0  0  0  0  0  0  0  0  0
   -0.9322    2.4361   -2.9195 O   0  0  0  0  0  0  0  0  0  0  0  0
   -3.0711    2.1068   -3.1222 N   0  0  0  0  0  0  0  0  0  0  0  0
   -2.9831    2.5937   -3.9972 H   0  0  0  0  0  0  0  0  0  0  0  0
   -3.9371    1.7447   -2.7776 H   0  0  0  0  0  0  0  0  0  0  0  0
   -0.0637    0.1284    1.8555 C   0  0  0  0  0  0  0  0  0  0  0  0
    1.0918   -0.0745    2.2236 O   0  0  0  0  0  0  0  0  0  0  0  0
   -1.0024    0.6217    2.6735 N   0  0  0  0  0  0  0  0  0  0  0  0
   -1.9213    0.7848    2.2938 H   0  0  0  0  0  0  0  0  0  0  0  0
   -0.7639    0.9676    4.0741 C   0  0  0  0  0  0  0  0  0  0  0  0
    0.0520    1.6916    4.1400 H   0  0  0  0  0  0  0  0  0  0  0  0
   -1.6626    1.3984    4.5182 H   0  0  0  0  0  0  0  0  0  0  0  0
   -0.4775    0.0737    4.6309 H   0  0  0  0  0  0  0  0  0  0  0  0
  5  6  2  0  0  0  0
  5  7  1  0  0  0  0
  2  3  1  0  0  0  0
  2  4  1  0  0  0  0
  2  5  1  0  0  0  0
  1  2  1  0  0  0  0
 22 23  2  0  0  0  0
 22 24  1  0  0  0  0
 19 20  1  0  0  0  0
 19 21  1  0  0  0  0
 17 18  2  0  0  0  0
 17 19  1  0  0  0  0
 14 15  1  0  0  0  0
 14 16  1  0  0  0  0
 14 17  1  0  0  0  0
 11 12  1  0  0  0  0
 11 13  1  0  0  0  0
 11 14  1  0  0  0  0
  9 10  1  0  0  0  0
  9 11  1  0  0  0  0
  9 22  1  0  0  0  0
  7  8  1  0  0  0  0
  7  9  1  0  0  0  0
 26 27  1  0  0  0  0
 26 28  1  0  0  0  0
 26 29  1  0  0  0  0
 24 25  1  0  0  0  0
 24 26  1  0  0  0  0
M  END
$$$$
default_name
  -OEChem-02102213163D

 29 28  0     1  0  0  0  0  0999 V2000
   -3.3998   -3.6239    1.3678 H   0  0  0  0  0  0  0  0  0  0  0  0
   -3.3608   -2.6749    0.8348 C   0  0  0  0  0  0  0  0  0  0  0  0
   -4.0988   -1.9909    1.2498 H   0  0  0  0  0  0  0  0  0  0  0  0
   -3.5618   -2.8419   -0.2222 H   0  0  0  0  0  0  0  0  0  0  0  0
   -1.9818   -2.0809    0.9918 C   0  0  0  0  0  0  0  0  0  0  0  0
   -1.1288   -2.6669    1.6468 O   0  0  0  0  0  0  0  0  0  0  0  0
   -1.7648   -0.9089    0.3998 N   0  0  0  0  0  0  0  0  0  0  0  0
   -2.5238   -0.4719   -0.1032 H   0  0  0  0  0  0  0  0  0  0  0  0
   -0.4848   -0.1959    0.4138 C   0  0  1  0  0  0  0  0  0  0  0  0
    0.2783   -0.8411   -0.0248 H   0  0  0  0  0  0  0  0  0  0  0  0
   -0.6101    1.0666   -0.4611 C   0  0  0  0  0  0  0  0  0  0  0  0
   -0.4038    1.9387    0.1629 H   0  0  0  0  0  0  0  0  0  0  0  0
    0.1402    1.0280   -1.2522 H   0  0  0  0  0  0  0  0  0  0  0  0
   -1.9982    1.2455   -1.1004 C   0  0  0  0  0  0  0  0  0  0  0  0
   -2.5613    0.3158   -1.0214 H   0  0  0  0  0  0  0  0  0  0  0  0
   -2.5372    2.0258   -0.5632 H   0  0  0  0  0  0  0  0  0  0  0  0
   -1.9344    1.6347   -2.5773 C   0  0  0  0  0  0  0  0  0  0  0  0
   -0.8932    1.8559   -3.1666 O   0  0  0  0  0  0  0  0  0  0  0  0
   -3.0614    1.7283   -3.2491 N   0  0  0  0  0  0  0  0  0  0  0  0
   -2.9608    1.9863   -4.2155 H   0  0  0  0  0  0  0  0  0  0  0  0
   -3.9448    1.5545   -2.8142 H   0  0  0  0  0  0  0  0  0  0  0  0
   -0.0637    0.1284    1.8555 C   0  0  0  0  0  0  0  0  0  0  0  0
    1.0918   -0.0745    2.2236 O   0  0  0  0  0  0  0  0  0  0  0  0
   -1.0024    0.6217    2.6735 N   0  0  0  0  0  0  0  0  0  0  0  0
   -1.9213    0.7848    2.2938 H   0  0  0  0  0  0  0  0  0  0  0  0
   -0.7639    0.9676    4.0741 C   0  0  0  0  0  0  0  0  0  0  0  0
    0.0520    1.6916    4.1400 H   0  0  0  0  0  0  0  0  0  0  0  0
   -1.6626    1.3984    4.5182 H   0  0  0  0  0  0  0  0  0  0  0  0
   -0.4775    0.0737    4.6309 H   0  0  0  0  0  0  0  0  0  0  0  0
  5  6  2  0  0  0  0
  5  7  1  0  0  0  0
  2  3  1  0  0  0  0
  2  4  1  0  0  0  0
  2  5  1  0  0  0  0
  1  2  1  0  0  0  0
 22 23  2  0  0  0  0
 22 24  1  0  0  0  0
 19 20  1  0  0  0  0
 19 21  1  0  0  0  0
 17 18  2  0  0  0  0
 17 19  1  0  0  0  0
 14 15  1  0  0  0  0
 14 16  1  0  0  0  0
 14 17  1  0  0  0  0
 11 12  1  0  0  0  0
 11 13  1  0  0  0  0
 11 14  1  0  0  0  0
  9 10  1  0  0  0  0
  9 11  1  0  0  0  0
  9 22  1  0  0  0  0
  7  8  1  0  0  0  0
  7  9  1  0  0  0  0
 26 27  1  0  0  0  0
 26 28  1  0  0  0  0
 26 29  1  0  0  0  0
 24 25  1  0  0  0  0
 24 26  1  0  0  0  0
M  END
$$$$
default_name
  -OEChem-02102213163D

 29 28  0     1  0  0  0  0  0999 V2000
   -3.3998   -3.6239    1.3678 H   0  0  0  0  0  0  0  0  0  0  0  0
   -3.3608   -2.6749    0.8348 C   0  0  0  0  0  0  0  0  0  0  0  0
   -4.0988   -1.9909    1.2498 H   0  0  0  0  0  0  0  0  0  0  0  0
   -3.5618   -2.8419   -0.2222 H   0  0  0  0  0  0  0  0  0  0  0  0
   -1.9818   -2.0809    0.9918 C   0  0  0  0  0  0  0  0  0  0  0  0
   -1.1288   -2.6669    1.6468 O   0  0  0  0  0  0  0  0  0  0  0  0
   -1.7648   -0.9089    0.3998 N   0  0  0  0  0  0  0  0  0  0  0  0
   -2.5238   -0.4719   -0.1032 H   0  0  0  0  0  0  0  0  0  0  0  0
   -0.4848   -0.1959    0.4138 C   0  0  1  0  0  0  0  0  0  0  0  0
    0.2783   -0.8411   -0.0248 H   0  0  0  0  0  0  0  0  0  0  0  0
   -0.6101    1.0666   -0.4611 C   0  0  0  0  0  0  0  0  0  0  0  0
   -0.4038    1.9387    0.1629 H   0  0  0  0  0  0  0  0  0  0  0  0
    0.1402    1.0280   -1.2522 H   0  0  0  0  0  0  0  0  0  0  0  0
   -1.9982    1.2455   -1.1004 C   0  0  0  0  0  0  0  0  0  0  0  0
   -2.6510    0.4279   -0.7953 H   0  0  0  0  0  0  0  0  0  0  0  0
   -2.4296    2.1840   -0.7525 H   0  0  0  0  0  0  0  0  0  0  0  0
   -1.9577    1.2722   -2.6283 C   0  0  0  0  0  0  0  0  0  0  0  0
   -0.9252    1.2336   -3.2710 O   0  0  0  0  0  0  0  0  0  0  0  0
   -3.0966    1.3321   -3.2837 N   0  0  0  0  0  0  0  0  0  0  0  0
   -3.0112    1.3462   -4.2852 H   0  0  0  0  0  0  0  0  0  0  0  0
   -3.9737    1.3631   -2.8048 H   0  0  0  0  0  0  0  0  0  0  0  0
   -0.0637    0.1284    1.8555 C   0  0  0  0  0  0  0  0  0  0  0  0
    1.0918   -0.0745    2.2236 O   0  0  0  0  0  0  0  0  0  0  0  0
   -1.0024    0.6217    2.6735 N   0  0  0  0  0  0  0  0  0  0  0  0
   -1.9213    0.7848    2.2938 H   0  0  0  0  0  0  0  0  0  0  0  0
   -0.7639    0.9676    4.0741 C   0  0  0  0  0  0  0  0  0  0  0  0
    0.0520    1.6916    4.1400 H   0  0  0  0  0  0  0  0  0  0  0  0
   -1.6626    1.3984    4.5182 H   0  0  0  0  0  0  0  0  0  0  0  0
   -0.4775    0.0737    4.6309 H   0  0  0  0  0  0  0  0  0  0  0  0
  5  6  2  0  0  0  0
  5  7  1  0  0  0  0
  2  3  1  0  0  0  0
  2  4  1  0  0  0  0
  2  5  1  0  0  0  0
  1  2  1  0  0  0  0
 22 23  2  0  0  0  0
 22 24  1  0  0  0  0
 19 20  1  0  0  0  0
 19 21  1  0  0  0  0
 17 18  2  0  0  0  0
 17 19  1  0  0  0  0
 14 15  1  0  0  0  0
 14 16  1  0  0  0  0
 14 17  1  0  0  0  0
 11 12  1  0  0  0  0
 11 13  1  0  0  0  0
 11 14  1  0  0  0  0
  9 10  1  0  0  0  0
  9 11  1  0  0  0  0
  9 22  1  0  0  0  0
  7  8  1  0  0  0  0
  7  9  1  0  0  0  0
 26 27  1  0  0  0  0
 26 28  1  0  0  0  0
 26 29  1  0  0  0  0
 24 25  1  0  0  0  0
 24 26  1  0  0  0  0
M  END
$$$$
default_name
  -OEChem-02102213163D

 29 28  0     1  0  0  0  0  0999 V2000
   -3.3998   -3.6239    1.3678 H   0  0  0  0  0  0  0  0  0  0  0  0
   -3.3608   -2.6749    0.8348 C   0  0  0  0  0  0  0  0  0  0  0  0
   -4.0988   -1.9909    1.2498 H   0  0  0  0  0  0  0  0  0  0  0  0
   -3.5618   -2.8419   -0.2222 H   0  0  0  0  0  0  0  0  0  0  0  0
   -1.9818   -2.0809    0.9918 C   0  0  0  0  0  0  0  0  0  0  0  0
   -1.1288   -2.6669    1.6468 O   0  0  0  0  0  0  0  0  0  0  0  0
   -1.7648   -0.9089    0.3998 N   0  0  0  0  0  0  0  0  0  0  0  0
   -2.5238   -0.4719   -0.1032 H   0  0  0  0  0  0  0  0  0  0  0  0
   -0.4848   -0.1959    0.4138 C   0  0  1  0  0  0  0  0  0  0  0  0
    0.2783   -0.8411   -0.0248 H   0  0  0  0  0  0  0  0  0  0  0  0
   -0.6101    1.0666   -0.4611 C   0  0  0  0  0  0  0  0  0  0  0  0
   -0.4038    1.9387    0.1629 H   0  0  0  0  0  0  0  0  0  0  0  0
    0.1402    1.0280   -1.2522 H   0  0  0  0  0  0  0  0  0  0  0  0
   -1.9982    1.2455   -1.1004 C   0  0  0  0  0  0  0  0  0  0  0  0
   -2.7188    0.5987   -0.6004 H   0  0  0  0  0  0  0  0  0  0  0  0
   -2.3144    2.2811   -0.9755 H   0  0  0  0  0  0  0  0  0  0  0  0
   -2.0206    0.9125   -2.5922 C   0  0  0  0  0  0  0  0  0  0  0  0
   -1.0263    0.6115   -3.2256 O   0  0  0  0  0  0  0  0  0  0  0  0
   -3.1742    0.9451   -3.2235 N   0  0  0  0  0  0  0  0  0  0  0  0
   -3.1308    0.7170   -4.2015 H   0  0  0  0  0  0  0  0  0  0  0  0
   -4.0220    1.1835   -2.7502 H   0  0  0  0  0  0  0  0  0  0  0  0
   -0.0637    0.1284    1.8555 C   0  0  0  0  0  0  0  0  0  0  0  0
    1.0918   -0.0745    2.2236 O   0  0  0  0  0  0  0  0  0  0  0  0
   -1.0024    0.6217    2.6735 N   0  0  0  0  0  0  0  0  0  0  0  0
   -1.9213    0.7848    2.2938 H   0  0  0  0  0  0  0  0  0  0  0  0
   -0.7639    0.9676    4.0741 C   0  0  0  0  0  0  0  0  0  0  0  0
    0.0520    1.6916    4.1400 H   0  0  0  0  0  0  0  0  0  0  0  0
   -1.6626    1.3984    4.5182 H   0  0  0  0  0  0  0  0  0  0  0  0
   -0.4775    0.0737    4.6309 H   0  0  0  0  0  0  0  0  0  0  0  0
  5  6  2  0  0  0  0
  5  7  1  0  0  0  0
  2  3  1  0  0  0  0
  2  4  1  0  0  0  0
  2  5  1  0  0  0  0
  1  2  1  0  0  0  0
 22 23  2  0  0  0  0
 22 24  1  0  0  0  0
 19 20  1  0  0  0  0
 19 21  1  0  0  0  0
 17 18  2  0  0  0  0
 17 19  1  0  0  0  0
 14 15  1  0  0  0  0
 14 16  1  0  0  0  0
 14 17  1  0  0  0  0
 11 12  1  0  0  0  0
 11 13  1  0  0  0  0
 11 14  1  0  0  0  0
  9 10  1  0  0  0  0
  9 11  1  0  0  0  0
  9 22  1  0  0  0  0
  7  8  1  0  0  0  0
  7  9  1  0  0  0  0
 26 27  1  0  0  0  0
 26 28  1  0  0  0  0
 26 29  1  0  0  0  0
 24 25  1  0  0  0  0
 24 26  1  0  0  0  0
M  END
$$$$
default_name
  -OEChem-02102213163D

 29 28  0     1  0  0  0  0  0999 V2000
   -3.3998   -3.6239    1.3678 H   0  0  0  0  0  0  0  0  0  0  0  0
   -3.3608   -2.6749    0.8348 C   0  0  0  0  0  0  0  0  0  0  0  0
   -4.0988   -1.9909    1.2498 H   0  0  0  0  0  0  0  0  0  0  0  0
   -3.5618   -2.8419   -0.2222 H   0  0  0  0  0  0  0  0  0  0  0  0
   -1.9818   -2.0809    0.9918 C   0  0  0  0  0  0  0  0  0  0  0  0
   -1.1288   -2.6669    1.6468 O   0  0  0  0  0  0  0  0  0  0  0  0
   -1.7648   -0.9089    0.3998 N   0  0  0  0  0  0  0  0  0  0  0  0
   -2.5238   -0.4719   -0.1032 H   0  0  0  0  0  0  0  0  0  0  0  0
   -0.4848   -0.1959    0.4138 C   0  0  1  0  0  0  0  0  0  0  0  0
    0.2783   -0.8411   -0.0248 H   0  0  0  0  0  0  0  0  0  0  0  0
   -0.6101    1.0666   -0.4611 C   0  0  0  0  0  0  0  0  0  0  0  0
   -0.4038    1.9387    0.1629 H   0  0  0  0  0  0  0  0  0  0  0  0
    0.1402    1.0280   -1.2522 H   0  0  0  0  0  0  0  0  0  0  0  0
   -1.9982    1.2455   -1.1004 C   0  0  0  0  0  0  0  0  0  0  0  0
   -2.7600    0.8165   -0.4499 H   0  0  0  0  0  0  0  0  0  0  0  0
   -2.1994    2.3103   -1.2171 H   0  0  0  0  0  0  0  0  0  0  0  0
   -2.1190    0.5804   -2.4714 C   0  0  0  0  0  0  0  0  0  0  0  0
   -1.1895    0.0322   -3.0335 O   0  0  0  0  0  0  0  0  0  0  0  0
   -3.2889    0.5936   -3.0726 N   0  0  0  0  0  0  0  0  0  0  0  0
   -3.3115    0.1417   -3.9702 H   0  0  0  0  0  0  0  0  0  0  0  0
   -4.0863    1.0280   -2.6541 H   0  0  0  0  0  0  0  0  0  0  0  0
   -0.0637    0.1284    1.8555 C   0  0  0  0  0  0  0  0  0  0  0  0
    1.0918   -0.0745    2.2236 O   0  0  0  0  0  0  0  0  0  0  0  0
   -1.0024    0.6217    2.6735 N   0  0  0  0  0  0  0  0  0  0  0  0
   -1.9213    0.7848    2.2938 H   0  0  0  0  0  0  0  0  0  0  0  0
   -0.7639    0.9676    4.0741 C   0  0  0  0  0  0  0  0  0  0  0  0
    0.0520    1.6916    4.1400 H   0  0  0  0  0  0  0  0  0  0  0  0
   -1.6626    1.3984    4.5182 H   0  0  0  0  0  0  0  0  0  0  0  0
   -0.4775    0.0737    4.6309 H   0  0  0  0  0  0  0  0  0  0  0  0
  5  6  2  0  0  0  0
  5  7  1  0  0  0  0
  2  3  1  0  0  0  0
  2  4  1  0  0  0  0
  2  5  1  0  0  0  0
  1  2  1  0  0  0  0
 22 23  2  0  0  0  0
 22 24  1  0  0  0  0
 19 20  1  0  0  0  0
 19 21  1  0  0  0  0
 17 18  2  0  0  0  0
 17 19  1  0  0  0  0
 14 15  1  0  0  0  0
 14 16  1  0  0  0  0
 14 17  1  0  0  0  0
 11 12  1  0  0  0  0
 11 13  1  0  0  0  0
 11 14  1  0  0  0  0
  9 10  1  0  0  0  0
  9 11  1  0  0  0  0
  9 22  1  0  0  0  0
  7  8  1  0  0  0  0
  7  9  1  0  0  0  0
 26 27  1  0  0  0  0
 26 28  1  0  0  0  0
 26 29  1  0  0  0  0
 24 25  1  0  0  0  0
 24 26  1  0  0  0  0
M  END
$$$$
default_name
  -OEChem-02102213163D

 29 28  0     1  0  0  0  0  0999 V2000
   -3.3998   -3.6239    1.3678 H   0  0  0  0  0  0  0  0  0  0  0  0
   -3.3608   -2.6749    0.8348 C   0  0  0  0  0  0  0  0  0  0  0  0
   -4.0988   -1.9909    1.2498 H   0  0  0  0  0  0  0  0  0  0  0  0
   -3.5618   -2.8419   -0.2222 H   0  0  0  0  0  0  0  0  0  0  0  0
   -1.9818   -2.0809    0.9918 C   0  0  0  0  0  0  0  0  0  0  0  0
   -1.1288   -2.6669    1.6468 O   0  0  0  0  0  0  0  0  0  0  0  0
   -1.7648   -0.9089    0.3998 N   0  0  0  0  0  0  0  0  0  0  0  0
   -2.5238   -0.4719   -0.1032 H   0  0  0  0  0  0  0  0  0  0  0  0
   -0.4848   -0.1959    0.4138 C   0  0  1  0  0  0  0  0  0  0  0  0
    0.2783   -0.8411   -0.0248 H   0  0  0  0  0  0  0  0  0  0  0  0
   -0.6101    1.0666   -0.4611 C   0  0  0  0  0  0  0  0  0  0  0  0
   -0.4038    1.9387    0.1629 H   0  0  0  0  0  0  0  0  0  0  0  0
    0.1402    1.0280   -1.2522 H   0  0  0  0  0  0  0  0  0  0  0  0
   -1.9982    1.2455   -1.1004 C   0  0  0  0  0  0  0  0  0  0  0  0
   -2.7719    1.0663   -0.3542 H   0  0  0  0  0  0  0  0  0  0  0  0
   -2.0924    2.2699   -1.4607 H   0  0  0  0  0  0  0  0  0  0  0  0
   -2.2462    0.2983   -2.2743 C   0  0  0  0  0  0  0  0  0  0  0  0
   -1.4036   -0.4651   -2.7077 O   0  0  0  0  0  0  0  0  0  0  0  0
   -3.4330    0.3017   -2.8414 N   0  0  0  0  0  0  0  0  0  0  0  0
   -3.5409   -0.3406   -3.6070 H   0  0  0  0  0  0  0  0  0  0  0  0
   -4.1623    0.9072   -2.5230 H   0  0  0  0  0  0  0  0  0  0  0  0
   -0.0637    0.1284    1.8555 C   0  0  0  0  0  0  0  0  0  0  0  0
    1.0918   -0.0745    2.2236 O   0  0  0  0  0  0  0  0  0  0  0  0
   -1.0024    0.6217    2.6735 N   0  0  0  0  0  0  0  0  0  0  0  0
   -1.9213    0.7848    2.2938 H   0  0  0  0  0  0  0  0  0  0  0  0
   -0.7639    0.9676    4.0741 C   0  0  0  0  0  0  0  0  0  0  0  0
    0.0520    1.6916    4.1400 H   0  0  0  0  0  0  0  0  0  0  0  0
   -1.6626    1.3984    4.5182 H   0  0  0  0  0  0  0  0  0  0  0  0
   -0.4775    0.0737    4.6309 H   0  0  0  0  0  0  0  0  0  0  0  0
  5  6  2  0  0  0  0
  5  7  1  0  0  0  0
  2  3  1  0  0  0  0
  2  4  1  0  0  0  0
  2  5  1  0  0  0  0
  1  2  1  0  0  0  0
 22 23  2  0  0  0  0
 22 24  1  0  0  0  0
 19 20  1  0  0  0  0
 19 21  1  0  0  0  0
 17 18  2  0  0  0  0
 17 19  1  0  0  0  0
 14 15  1  0  0  0  0
 14 16  1  0  0  0  0
 14 17  1  0  0  0  0
 11 12  1  0  0  0  0
 11 13  1  0  0  0  0
 11 14  1  0  0  0  0
  9 10  1  0  0  0  0
  9 11  1  0  0  0  0
  9 22  1  0  0  0  0
  7  8  1  0  0  0  0
  7  9  1  0  0  0  0
 26 27  1  0  0  0  0
 26 28  1  0  0  0  0
 26 29  1  0  0  0  0
 24 25  1  0  0  0  0
 24 26  1  0  0  0  0
M  END
$$$$
default_name
  -OEChem-02102213163D

 29 28  0     1  0  0  0  0  0999 V2000
   -3.3998   -3.6239    1.3678 H   0  0  0  0  0  0  0  0  0  0  0  0
   -3.3608   -2.6749    0.8348 C   0  0  0  0  0  0  0  0  0  0  0  0
   -4.0988   -1.9909    1.2498 H   0  0  0  0  0  0  0  0  0  0  0  0
   -3.5618   -2.8419   -0.2222 H   0  0  0  0  0  0  0  0  0  0  0  0
   -1.9818   -2.0809    0.9918 C   0  0  0  0  0  0  0  0  0  0  0  0
   -1.1288   -2.6669    1.6468 O   0  0  0  0  0  0  0  0  0  0  0  0
   -1.7648   -0.9089    0.3998 N   0  0  0  0  0  0  0  0  0  0  0  0
   -2.5238   -0.4719   -0.1032 H   0  0  0  0  0  0  0  0  0  0  0  0
   -0.4848   -0.1959    0.4138 C   0  0  1  0  0  0  0  0  0  0  0  0
    0.2783   -0.8411   -0.0248 H   0  0  0  0  0  0  0  0  0  0  0  0
   -0.6101    1.0666   -0.4611 C   0  0  0  0  0  0  0  0  0  0  0  0
   -0.4038    1.9387    0.1629 H   0  0  0  0  0  0  0  0  0  0  0  0
    0.1402    1.0280   -1.2522 H   0  0  0  0  0  0  0  0  0  0  0  0
   -1.9982    1.2455   -1.1004 C   0  0  0  0  0  0  0  0  0  0  0  0
   -2.7536    1.3314   -0.3197 H   0  0  0  0  0  0  0  0  0  0  0  0
   -2.0007    2.1624   -1.6898 H   0  0  0  0  0  0  0  0  0  0  0  0
   -2.3934    0.0856   -2.0142 C   0  0  0  0  0  0  0  0  0  0  0  0
   -1.6541   -0.8463   -2.2705 O   0  0  0  0  0  0  0  0  0  0  0  0
   -3.5967    0.0893   -2.5456 N   0  0  0  0  0  0  0  0  0  0  0  0
   -3.8035   -0.6970   -3.1367 H   0  0  0  0  0  0  0  0  0  0  0  0
   -4.2447    0.8292   -2.3659 H   0  0  0  0  0  0  0  0  0  0  0  0
   -0.0637    0.1284    1.8555 C   0  0  0  0  0  0  0  0  0  0  0  0
    1.0918   -0.0745    2.2236 O   0  0  0  0  0  0  0  0  0  0  0  0
   -1.0024    0.6217    2.6735 N   0  0  0  0  0  0  0  0  0  0  0  0
   -1.9213    0.7848    2.2938 H   0  0  0  0  0  0  0  0  0  0  0  0
   -0.7639    0.9676    4.0741 C   0  0  0  0  0  0  0  0  0  0  0  0
    0.0520    1.6916    4.1400 H   0  0  0  0  0  0  0  0  0  0  0  0
   -1.6626    1.3984    4.5182 H   0  0  0  0  0  0  0  0  0  0  0  0
   -0.4775    0.0737    4.6309 H   0  0  0  0  0  0  0  0  0  0  0  0
  5  6  2  0  0  0  0
  5  7  1  0  0  0  0
  2  3  1  0  0  0  0
  2  4  1  0  0  0  0
  2  5  1  0  0  0  0
  1  2  1  0  0  0  0
 22 23  2  0  0  0  0
 22 24  1  0  0  0  0
 19 20  1  0  0  0  0
 19 21  1  0  0  0  0
 17 18  2  0  0  0  0
 17 19  1  0  0  0  0
 14 15  1  0  0  0  0
 14 16  1  0  0  0  0
 14 17  1  0  0  0  0
 11 12  1  0  0  0  0
 11 13  1  0  0  0  0
 11 14  1  0  0  0  0
  9 10  1  0  0  0  0
  9 11  1  0  0  0  0
  9 22  1  0  0  0  0
  7  8  1  0  0  0  0
  7  9  1  0  0  0  0
 26 27  1  0  0  0  0
 26 28  1  0  0  0  0
 26 29  1  0  0  0  0
 24 25  1  0  0  0  0
 24 26  1  0  0  0  0
M  END
$$$$
default_name
  -OEChem-02102213163D

 29 28  0     1  0  0  0  0  0999 V2000
   -3.3998   -3.6239    1.3678 H   0  0  0  0  0  0  0  0  0  0  0  0
   -3.3608   -2.6749    0.8348 C   0  0  0  0  0  0  0  0  0  0  0  0
   -4.0988   -1.9909    1.2498 H   0  0  0  0  0  0  0  0  0  0  0  0
   -3.5618   -2.8419   -0.2222 H   0  0  0  0  0  0  0  0  0  0  0  0
   -1.9818   -2.0809    0.9918 C   0  0  0  0  0  0  0  0  0  0  0  0
   -1.1288   -2.6669    1.6468 O   0  0  0  0  0  0  0  0  0  0  0  0
   -1.7648   -0.9089    0.3998 N   0  0  0  0  0  0  0  0  0  0  0  0
   -2.5238   -0.4719   -0.1032 H   0  0  0  0  0  0  0  0  0  0  0  0
   -0.4848   -0.1959    0.4138 C   0  0  1  0  0  0  0  0  0  0  0  0
    0.2783   -0.8411   -0.0248 H   0  0  0  0  0  0  0  0  0  0  0  0
   -0.6101    1.0666   -0.4611 C   0  0  0  0  0  0  0  0  0  0  0  0
   -0.4038    1.9387    0.1629 H   0  0  0  0  0  0  0  0  0  0  0  0
    0.1402    1.0280   -1.2522 H   0  0  0  0  0  0  0  0  0  0  0  0
   -1.9982    1.2455   -1.1004 C   0  0  0  0  0  0  0  0  0  0  0  0
   -2.7065    1.5934   -0.3488 H   0  0  0  0  0  0  0  0  0  0  0  0
   -1.9306    1.9952   -1.8887 H   0  0  0  0  0  0  0  0  0  0  0  0
   -2.5507   -0.0434   -1.7089 C   0  0  0  0  0  0  0  0  0  0  0  0
   -1.9239   -1.0855   -1.7516 O   0  0  0  0  0  0  0  0  0  0  0  0
   -3.7687   -0.0293   -2.2053 N   0  0  0  0  0  0  0  0  0  0  0  0
   -4.0813   -0.9032   -2.5913 H   0  0  0  0  0  0  0  0  0  0  0  0
   -4.3280    0.7994   -2.1934 H   0  0  0  0  0  0  0  0  0  0  0  0
   -0.0637    0.1284    1.8555 C   0  0  0  0  0  0  0  0  0  0  0  0
    1.0918   -0.0745    2.2236 O   0  0  0  0  0  0  0  0  0  0  0  0
   -1.0024    0.6217    2.6735 N   0  0  0  0  0  0  0  0  0  0  0  0
   -1.9213    0.7848    2.2938 H   0  0  0  0  0  0  0  0  0  0  0  0
   -0.7639    0.9676    4.0741 C   0  0  0  0  0  0  0  0  0  0  0  0
    0.0520    1.6916    4.1400 H   0  0  0  0  0  0  0  0  0  0  0  0
   -1.6626    1.3984    4.5182 H   0  0  0  0  0  0  0  0  0  0  0  0
   -0.4775    0.0737    4.6309 H   0  0  0  0  0  0  0  0  0  0  0  0
  5  6  2  0  0  0  0
  5  7  1  0  0  0  0
  2  3  1  0  0  0  0
  2  4  1  0  0  0  0
  2  5  1  0  0  0  0
  1  2  1  0  0  0  0
 22 23  2  0  0  0  0
 22 24  1  0  0  0  0
 19 20  1  0  0  0  0
 19 21  1  0  0  0  0
 17 18  2  0  0  0  0
 17 19  1  0  0  0  0
 14 15  1  0  0  0  0
 14 16  1  0  0  0  0
 14 17  1  0  0  0  0
 11 12  1  0  0  0  0
 11 13  1  0  0  0  0
 11 14  1  0  0  0  0
  9 10  1  0  0  0  0
  9 11  1  0  0  0  0
  9 22  1  0  0  0  0
  7  8  1  0  0  0  0
  7  9  1  0  0  0  0
 26 27  1  0  0  0  0
 26 28  1  0  0  0  0
 26 29  1  0  0  0  0
 24 25  1  0  0  0  0
 24 26  1  0  0  0  0
M  END
$$$$
default_name
  -OEChem-02102213163D

 29 28  0     1  0  0  0  0  0999 V2000
   -3.3998   -3.6239    1.3678 H   0  0  0  0  0  0  0  0  0  0  0  0
   -3.3608   -2.6749    0.8348 C   0  0  0  0  0  0  0  0  0  0  0  0
   -4.0988   -1.9909    1.2498 H   0  0  0  0  0  0  0  0  0  0  0  0
   -3.5618   -2.8419   -0.2222 H   0  0  0  0  0  0  0  0  0  0  0  0
   -1.9818   -2.0809    0.9918 C   0  0  0  0  0  0  0  0  0  0  0  0
   -1.1288   -2.6669    1.6468 O   0  0  0  0  0  0  0  0  0  0  0  0
   -1.7648   -0.9089    0.3998 N   0  0  0  0  0  0  0  0  0  0  0  0
   -2.5238   -0.4719   -0.1032 H   0  0  0  0  0  0  0  0  0  0  0  0
   -0.4848   -0.1959    0.4138 C   0  0  1  0  0  0  0  0  0  0  0  0
    0.2783   -0.8411   -0.0248 H   0  0  0  0  0  0  0  0  0  0  0  0
   -0.6101    1.0666   -0.4611 C   0  0  0  0  0  0  0  0  0  0  0  0
   -0.4038    1.9387    0.1629 H   0  0  0  0  0  0  0  0  0  0  0  0
    0.1402    1.0280   -1.2522 H   0  0  0  0  0  0  0  0  0  0  0  0
   -1.9982    1.2455   -1.1004 C   0  0  0  0  0  0  0  0  0  0  0  0
   -2.6336    1.8347   -0.4396 H   0  0  0  0  0  0  0  0  0  0  0  0
   -1.8869    1.7797   -2.0439 H   0  0  0  0  0  0  0  0  0  0  0  0
   -2.7072   -0.0797   -1.3791 C   0  0  0  0  0  0  0  0  0  0  0  0
   -2.1947   -1.1663   -1.1865 O   0  0  0  0  0  0  0  0  0  0  0  0
   -3.9374   -0.0459   -1.8438 N   0  0  0  0  0  0  0  0  0  0  0  0
   -4.3554   -0.9452   -2.0080 H   0  0  0  0  0  0  0  0  0  0  0  0
   -4.4064    0.8199   -2.0174 H   0  0  0  0  0  0  0  0  0  0  0  0
   -0.0637    0.1284    1.8555 C   0  0  0  0  0  0  0  0  0  0  0  0
    1.0918   -0.0745    2.2236 O   0  0  0  0  0  0  0  0  0  0  0  0
   -1.0024    0.6217    2.6735 N   0  0  0  0  0  0  0  0  0  0  0  0
   -1.9213    0.7848    2.2938 H   0  0  0  0  0  0  0  0  0  0  0  0
   -0.7639    0.9676    4.0741 C   0  0  0  0  0  0  0  0  0  0  0  0
    0.0520    1.6916    4.1400 H   0  0  0  0  0  0  0  0  0  0  0  0
   -1.6626    1.3984    4.5182 H   0  0  0  0  0  0  0  0  0  0  0  0
   -0.4775    0.0737    4.6309 H   0  0  0  0  0  0  0  0  0  0  0  0
  5  6  2  0  0  0  0
  5  7  1  0  0  0  0
  2  3  1  0  0  0  0
  2  4  1  0  0  0  0
  2  5  1  0  0  0  0
  1  2  1  0  0  0  0
 22 23  2  0  0  0  0
 22 24  1  0  0  0  0
 19 20  1  0  0  0  0
 19 21  1  0  0  0  0
 17 18  2  0  0  0  0
 17 19  1  0  0  0  0
 14 15  1  0  0  0  0
 14 16  1  0  0  0  0
 14 17  1  0  0  0  0
 11 12  1  0  0  0  0
 11 13  1  0  0  0  0
 11 14  1  0  0  0  0
  9 10  1  0  0  0  0
  9 11  1  0  0  0  0
  9 22  1  0  0  0  0
  7  8  1  0  0  0  0
  7  9  1  0  0  0  0
 26 27  1  0  0  0  0
 26 28  1  0  0  0  0
 26 29  1  0  0  0  0
 24 25  1  0  0  0  0
 24 26  1  0  0  0  0
M  END
$$$$
default_name
  -OEChem-02102213163D

 29 28  0     1  0  0  0  0  0999 V2000
   -3.3998   -3.6239    1.3678 H   0  0  0  0  0  0  0  0  0  0  0  0
   -3.3608   -2.6749    0.8348 C   0  0  0  0  0  0  0  0  0  0  0  0
   -4.0988   -1.9909    1.2498 H   0  0  0  0  0  0  0  0  0  0  0  0
   -3.5618   -2.8419   -0.2222 H   0  0  0  0  0  0  0  0  0  0  0  0
   -1.9818   -2.0809    0.9918 C   0  0  0  0  0  0  0  0  0  0  0  0
   -1.1288   -2.6669    1.6468 O   0  0  0  0  0  0  0  0  0  0  0  0
   -1.7648   -0.9089    0.3998 N   0  0  0  0  0  0  0  0  0  0  0  0
   -2.5238   -0.4719   -0.1032 H   0  0  0  0  0  0  0  0  0  0  0  0
   -0.4848   -0.1959    0.4138 C   0  0  1  0  0  0  0  0  0  0  0  0
    0.2783   -0.8411   -0.0248 H   0  0  0  0  0  0  0  0  0  0  0  0
   -0.6101    1.0666   -0.4611 C   0  0  0  0  0  0  0  0  0  0  0  0
   -0.4038    1.9387    0.1629 H   0  0  0  0  0  0  0  0  0  0  0  0
    0.1402    1.0280   -1.2522 H   0  0  0  0  0  0  0  0  0  0  0  0
   -1.9982    1.2455   -1.1004 C   0  0  0  0  0  0  0  0  0  0  0  0
   -2.5400    2.0387   -0.5857 H   0  0  0  0  0  0  0  0  0  0  0  0
   -1.8725    1.5307   -2.1449 H   0  0  0  0  0  0  0  0  0  0  0  0
   -2.8525   -0.0210   -1.0474 C   0  0  0  0  0  0  0  0  0  0  0  0
   -2.4479   -1.0834   -0.6135 O   0  0  0  0  0  0  0  0  0  0  0  0
   -4.0912    0.0407   -1.4856 N   0  0  0  0  0  0  0  0  0  0  0  0
   -4.6071   -0.8200   -1.4265 H   0  0  0  0  0  0  0  0  0  0  0  0
   -4.4747    0.8892   -1.8498 H   0  0  0  0  0  0  0  0  0  0  0  0
   -0.0637    0.1284    1.8555 C   0  0  0  0  0  0  0  0  0  0  0  0
    1.0918   -0.0745    2.2236 O   0  0  0  0  0  0  0  0  0  0  0  0
   -1.0024    0.6217    2.6735 N   0  0  0  0  0  0  0  0  0  0  0  0
   -1.9213    0.7848    2.2938 H   0  0  0  0  0  0  0  0  0  0  0  0
   -0.7639    0.9676    4.0741 C   0  0  0  0  0  0  0  0  0  0  0  0
    0.0520    1.6916    4.1400 H   0  0  0  0  0  0  0  0  0  0  0  0
   -1.6626    1.3984    4.5182 H   0  0  0  0  0  0  0  0  0  0  0  0
   -0.4775    0.0737    4.6309 H   0  0  0  0  0  0  0  0  0  0  0  0
  5  6  2  0  0  0  0
  5  7  1  0  0  0  0
  2  3  1  0  0  0  0
  2  4  1  0  0  0  0
  2  5  1  0  0  0  0
  1  2  1  0  0  0  0
 22 23  2  0  0  0  0
 22 24  1  0  0  0  0
 19 20  1  0  0  0  0
 19 21  1  0  0  0  0
 17 18  2  0  0  0  0
 17 19  1  0  0  0  0
 14 15  1  0  0  0  0
 14 16  1  0  0  0  0
 14 17  1  0  0  0  0
 11 12  1  0  0  0  0
 11 13  1  0  0  0  0
 11 14  1  0  0  0  0
  9 10  1  0  0  0  0
  9 11  1  0  0  0  0
  9 22  1  0  0  0  0
  7  8  1  0  0  0  0
  7  9  1  0  0  0  0
 26 27  1  0  0  0  0
 26 28  1  0  0  0  0
 26 29  1  0  0  0  0
 24 25  1  0  0  0  0
 24 26  1  0  0  0  0
M  END
$$$$
default_name
  -OEChem-02102213163D

 29 28  0     1  0  0  0  0  0999 V2000
   -3.3998   -3.6239    1.3678 H   0  0  0  0  0  0  0  0  0  0  0  0
   -3.3608   -2.6749    0.8348 C   0  0  0  0  0  0  0  0  0  0  0  0
   -4.0988   -1.9909    1.2498 H   0  0  0  0  0  0  0  0  0  0  0  0
   -3.5618   -2.8419   -0.2222 H   0  0  0  0  0  0  0  0  0  0  0  0
   -1.9818   -2.0809    0.9918 C   0  0  0  0  0  0  0  0  0  0  0  0
   -1.1288   -2.6669    1.6468 O   0  0  0  0  0  0  0  0  0  0  0  0
   -1.7648   -0.9089    0.3998 N   0  0  0  0  0  0  0  0  0  0  0  0
   -2.5238   -0.4719   -0.1032 H   0  0  0  0  0  0  0  0  0  0  0  0
   -0.4848   -0.1959    0.4138 C   0  0  1  0  0  0  0  0  0  0  0  0
    0.2783   -0.8411   -0.0248 H   0  0  0  0  0  0  0  0  0  0  0  0
   -0.6101    1.0666   -0.4611 C   0  0  0  0  0  0  0  0  0  0  0  0
   -0.4038    1.9387    0.1629 H   0  0  0  0  0  0  0  0  0  0  0  0
    0.1402    1.0280   -1.2522 H   0  0  0  0  0  0  0  0  0  0  0  0
   -1.9982    1.2455   -1.1004 C   0  0  0  0  0  0  0  0  0  0  0  0
   -2.4320    2.1916   -0.7774 H   0  0  0  0  0  0  0  0  0  0  0  0
   -1.8884    1.2650   -2.1847 H   0  0  0  0  0  0  0  0  0  0  0  0
   -2.9765    0.1288   -0.7363 C   0  0  0  0  0  0  0  0  0  0  0  0
   -2.6663   -0.8422   -0.0719 O   0  0  0  0  0  0  0  0  0  0  0  0
   -4.2197    0.2245   -1.1552 N   0  0  0  0  0  0  0  0  0  0  0  0
   -4.8192   -0.5363   -0.8865 H   0  0  0  0  0  0  0  0  0  0  0  0
   -4.5281    1.0026   -1.7020 H   0  0  0  0  0  0  0  0  0  0  0  0
   -0.0637    0.1284    1.8555 C   0  0  0  0  0  0  0  0  0  0  0  0
    1.0918   -0.0745    2.2236 O   0  0  0  0  0  0  0  0  0  0  0  0
   -1.0024    0.6217    2.6735 N   0  0  0  0  0  0  0  0  0  0  0  0
   -1.9213    0.7848    2.2938 H   0  0  0  0  0  0  0  0  0  0  0  0
   -0.7639    0.9676    4.0741 C   0  0  0  0  0  0  0  0  0  0  0  0
    0.0520    1.6916    4.1400 H   0  0  0  0  0  0  0  0  0  0  0  0
   -1.6626    1.3984    4.5182 H   0  0  0  0  0  0  0  0  0  0  0  0
   -0.4775    0.0737    4.6309 H   0  0  0  0  0  0  0  0  0  0  0  0
  5  6  2  0  0  0  0
  5  7  1  0  0  0  0
  2  3  1  0  0  0  0
  2  4  1  0  0  0  0
  2  5  1  0  0  0  0
  1  2  1  0  0  0  0
 22 23  2  0  0  0  0
 22 24  1  0  0  0  0
 19 20  1  0  0  0  0
 19 21  1  0  0  0  0
 17 18  2  0  0  0  0
 17 19  1  0  0  0  0
 14 15  1  0  0  0  0
 14 16  1  0  0  0  0
 14 17  1  0  0  0  0
 11 12  1  0  0  0  0
 11 13  1  0  0  0  0
 11 14  1  0  0  0  0
  9 10  1  0  0  0  0
  9 11  1  0  0  0  0
  9 22  1  0  0  0  0
  7  8  1  0  0  0  0
  7  9  1  0  0  0  0
 26 27  1  0  0  0  0
 26 28  1  0  0  0  0
 26 29  1  0  0  0  0
 24 25  1  0  0  0  0
 24 26  1  0  0  0  0
M  END
$$$$
default_name
  -OEChem-02102213163D

 29 28  0     1  0  0  0  0  0999 V2000
   -3.3998   -3.6239    1.3678 H   0  0  0  0  0  0  0  0  0  0  0  0
   -3.3608   -2.6749    0.8348 C   0  0  0  0  0  0  0  0  0  0  0  0
   -4.0988   -1.9909    1.2498 H   0  0  0  0  0  0  0  0  0  0  0  0
   -3.5618   -2.8419   -0.2222 H   0  0  0  0  0  0  0  0  0  0  0  0
   -1.9818   -2.0809    0.9918 C   0  0  0  0  0  0  0  0  0  0  0  0
   -1.1288   -2.6669    1.6468 O   0  0  0  0  0  0  0  0  0  0  0  0
   -1.7648   -0.9089    0.3998 N   0  0  0  0  0  0  0  0  0  0  0  0
   -2.5238   -0.4719   -0.1032 H   0  0  0  0  0  0  0  0  0  0  0  0
   -0.4848   -0.1959    0.4138 C   0  0  1  0  0  0  0  0  0  0  0  0
    0.2783   -0.8411   -0.0248 H   0  0  0  0  0  0  0  0  0  0  0  0
   -0.6101    1.0666   -0.4611 C   0  0  0  0  0  0  0  0  0  0  0  0
   -0.4038    1.9387    0.1629 H   0  0  0  0  0  0  0  0  0  0  0  0
    0.1402    1.0280   -1.2522 H   0  0  0  0  0  0  0  0  0  0  0  0
   -1.9982    1.2455   -1.1004 C   0  0  0  0  0  0  0  0  0  0  0  0
   -2.3170    2.2829   -1.0014 H   0  0  0  0  0  0  0  0  0  0  0  0
   -1.9335    1.0008   -2.1606 H   0  0  0  0  0  0  0  0  0  0  0  0
   -3.0708    0.3595   -0.4670 C   0  0  0  0  0  0  0  0  0  0  0  0
   -2.8350   -0.4594    0.4016 O   0  0  0  0  0  0  0  0  0  0  0  0
   -4.3141    0.4929   -0.8751 N   0  0  0  0  0  0  0  0  0  0  0  0
   -4.9774   -0.1133   -0.4247 H   0  0  0  0  0  0  0  0  0  0  0  0
   -4.5631    1.1524   -1.5842 H   0  0  0  0  0  0  0  0  0  0  0  0
   -0.0637    0.1284    1.8555 C   0  0  0  0  0  0  0  0  0  0  0  0
    1.0918   -0.0745    2.2236 O   0  0  0  0  0  0  0  0  0  0  0  0
   -1.0024    0.6217    2.6735 N   0  0  0  0  0  0  0  0  0  0  0  0
   -1.9213    0.7848    2.2938 H   0  0  0  0  0  0  0  0  0  0  0  0
   -0.7639    0.9676    4.0741 C   0  0  0  0  0  0  0  0  0  0  0  0
    0.0520    1.6916    4.1400 H   0  0  0  0  0  0  0  0  0  0  0  0
   -1.6626    1.3984    4.5182 H   0  0  0  0  0  0  0  0  0  0  0  0
   -0.4775    0.0737    4.6309 H   0  0  0  0  0  0  0  0  0  0  0  0
  5  6  2  0  0  0  0
  5  7  1  0  0  0  0
  2  3  1  0  0  0  0
  2  4  1  0  0  0  0
  2  5  1  0  0  0  0
  1  2  1  0  0  0  0
 22 23  2  0  0  0  0
 22 24  1  0  0  0  0
 19 20  1  0  0  0  0
 19 21  1  0  0  0  0
 17 18  2  0  0  0  0
 17 19  1  0  0  0  0
 14 15  1  0  0  0  0
 14 16  1  0  0  0  0
 14 17  1  0  0  0  0
 11 12  1  0  0  0  0
 11 13  1  0  0  0  0
 11 14  1  0  0  0  0
  9 10  1  0  0  0  0
  9 11  1  0  0  0  0
  9 22  1  0  0  0  0
  7  8  1  0  0  0  0
  7  9  1  0  0  0  0
 26 27  1  0  0  0  0
 26 28  1  0  0  0  0
 26 29  1  0  0  0  0
 24 25  1  0  0  0  0
 24 26  1  0  0  0  0
M  END
$$$$
default_name
  -OEChem-02102213163D

 29 28  0     1  0  0  0  0  0999 V2000
   -3.3998   -3.6239    1.3678 H   0  0  0  0  0  0  0  0  0  0  0  0
   -3.3608   -2.6749    0.8348 C   0  0  0  0  0  0  0  0  0  0  0  0
   -4.0988   -1.9909    1.2498 H   0  0  0  0  0  0  0  0  0  0  0  0
   -3.5618   -2.8419   -0.2222 H   0  0  0  0  0  0  0  0  0  0  0  0
   -1.9818   -2.0809    0.9918 C   0  0  0  0  0  0  0  0  0  0  0  0
   -1.1288   -2.6669    1.6468 O   0  0  0  0  0  0  0  0  0  0  0  0
   -1.7648   -0.9089    0.3998 N   0  0  0  0  0  0  0  0  0  0  0  0
   -2.5238   -0.4719   -0.1032 H   0  0  0  0  0  0  0  0  0  0  0  0
   -0.4848   -0.1959    0.4138 C   0  0  1  0  0  0  0  0  0  0  0  0
    0.2783   -0.8411   -0.0248 H   0  0  0  0  0  0  0  0  0  0  0  0
   -0.6101    1.0666   -0.4611 C   0  0  0  0  0  0  0  0  0  0  0  0
   -0.4038    1.9387    0.1629 H   0  0  0  0  0  0  0  0  0  0  0  0
    0.1402    1.0280   -1.2522 H   0  0  0  0  0  0  0  0  0  0  0  0
   -1.9982    1.2455   -1.1004 C   0  0  0  0  0  0  0  0  0  0  0  0
   -2.2029    2.3064   -1.2426 H   0  0  0  0  0  0  0  0  0  0  0  0
   -2.0048    0.7560   -2.0743 H   0  0  0  0  0  0  0  0  0  0  0  0
   -3.1289    0.6553   -0.2580 C   0  0  0  0  0  0  0  0  0  0  0  0
   -2.9426    0.0392    0.7746 O   0  0  0  0  0  0  0  0  0  0  0  0
   -4.3680    0.8278   -0.6644 N   0  0  0  0  0  0  0  0  0  0  0  0
   -5.0709    0.4201   -0.0727 H   0  0  0  0  0  0  0  0  0  0  0  0
   -4.5773    1.3284   -1.5042 H   0  0  0  0  0  0  0  0  0  0  0  0
   -0.0637    0.1284    1.8555 C   0  0  0  0  0  0  0  0  0  0  0  0
    1.0918   -0.0745    2.2236 O   0  0  0  0  0  0  0  0  0  0  0  0
   -1.0024    0.6217    2.6735 N   0  0  0  0  0  0  0  0  0  0  0  0
   -1.9213    0.7848    2.2938 H   0  0  0  0  0  0  0  0  0  0  0  0
   -0.7639    0.9676    4.0741 C   0  0  0  0  0  0  0  0  0  0  0  0
    0.0520    1.6916    4.1400 H   0  0  0  0  0  0  0  0  0  0  0  0
   -1.6626    1.3984    4.5182 H   0  0  0  0  0  0  0  0  0  0  0  0
   -0.4775    0.0737    4.6309 H   0  0  0  0  0  0  0  0  0  0  0  0
  5  6  2  0  0  0  0
  5  7  1  0  0  0  0
  2  3  1  0  0  0  0
  2  4  1  0  0  0  0
  2  5  1  0  0  0  0
  1  2  1  0  0  0  0
 22 23  2  0  0  0  0
 22 24  1  0  0  0  0
 19 20  1  0  0  0  0
 19 21  1  0  0  0  0
 17 18  2  0  0  0  0
 17 19  1  0  0  0  0
 14 15  1  0  0  0  0
 14 16  1  0  0  0  0
 14 17  1  0  0  0  0
 11 12  1  0  0  0  0
 11 13  1  0  0  0  0
 11 14  1  0  0  0  0
  9 10  1  0  0  0  0
  9 11  1  0  0  0  0
  9 22  1  0  0  0  0
  7  8  1  0  0  0  0
  7  9  1  0  0  0  0
 26 27  1  0  0  0  0
 26 28  1  0  0  0  0
 26 29  1  0  0  0  0
 24 25  1  0  0  0  0
 24 26  1  0  0  0  0
M  END
$$$$
default_name
  -OEChem-02102213163D

 29 28  0     1  0  0  0  0  0999 V2000
   -3.3998   -3.6239    1.3678 H   0  0  0  0  0  0  0  0  0  0  0  0
   -3.3608   -2.6749    0.8348 C   0  0  0  0  0  0  0  0  0  0  0  0
   -4.0988   -1.9909    1.2498 H   0  0  0  0  0  0  0  0  0  0  0  0
   -3.5618   -2.8419   -0.2222 H   0  0  0  0  0  0  0  0  0  0  0  0
   -1.9818   -2.0809    0.9918 C   0  0  0  0  0  0  0  0  0  0  0  0
   -1.1288   -2.6669    1.6468 O   0  0  0  0  0  0  0  0  0  0  0  0
   -1.7648   -0.9089    0.3998 N   0  0  0  0  0  0  0  0  0  0  0  0
   -2.5238   -0.4719   -0.1032 H   0  0  0  0  0  0  0  0  0  0  0  0
   -0.4848   -0.1959    0.4138 C   0  0  1  0  0  0  0  0  0  0  0  0
    0.2783   -0.8411   -0.0248 H   0  0  0  0  0  0  0  0  0  0  0  0
   -0.6101    1.0666   -0.4611 C   0  0  0  0  0  0  0  0  0  0  0  0
   -0.4038    1.9387    0.1629 H   0  0  0  0  0  0  0  0  0  0  0  0
    0.1402    1.0280   -1.2522 H   0  0  0  0  0  0  0  0  0  0  0  0
   -1.9982    1.2455   -1.1004 C   0  0  0  0  0  0  0  0  0  0  0  0
   -2.0974    2.2605   -1.4845 H   0  0  0  0  0  0  0  0  0  0  0  0
   -2.0974    0.5474   -1.9316 H   0  0  0  0  0  0  0  0  0  0  0  0
   -3.1470    0.9961   -0.1234 C   0  0  0  0  0  0  0  0  0  0  0  0
   -2.9817    0.6194    1.0217 O   0  0  0  0  0  0  0  0  0  0  0  0
   -4.3777    1.2063   -0.5375 N   0  0  0  0  0  0  0  0  0  0  0  0
   -5.0931    1.0275    0.1456 H   0  0  0  0  0  0  0  0  0  0  0  0
   -4.5696    1.5186   -1.4677 H   0  0  0  0  0  0  0  0  0  0  0  0
   -0.0637    0.1284    1.8555 C   0  0  0  0  0  0  0  0  0  0  0  0
    1.0918   -0.0745    2.2236 O   0  0  0  0  0  0  0  0  0  0  0  0
   -1.0024    0.6217    2.6735 N   0  0  0  0  0  0  0  0  0  0  0  0
   -1.9213    0.7848    2.2938 H   0  0  0  0  0  0  0  0  0  0  0  0
   -0.7639    0.9676    4.0741 C   0  0  0  0  0  0  0  0  0  0  0  0
    0.0520    1.6916    4.1400 H   0  0  0  0  0  0  0  0  0  0  0  0
   -1.6626    1.3984    4.5182 H   0  0  0  0  0  0  0  0  0  0  0  0
   -0.4775    0.0737    4.6309 H   0  0  0  0  0  0  0  0  0  0  0  0
  5  6  2  0  0  0  0
  5  7  1  0  0  0  0
  2  3  1  0  0  0  0
  2  4  1  0  0  0  0
  2  5  1  0  0  0  0
  1  2  1  0  0  0  0
 22 23  2  0  0  0  0
 22 24  1  0  0  0  0
 19 20  1  0  0  0  0
 19 21  1  0  0  0  0
 17 18  2  0  0  0  0
 17 19  1  0  0  0  0
 14 15  1  0  0  0  0
 14 16  1  0  0  0  0
 14 17  1  0  0  0  0
 11 12  1  0  0  0  0
 11 13  1  0  0  0  0
 11 14  1  0  0  0  0
  9 10  1  0  0  0  0
  9 11  1  0  0  0  0
  9 22  1  0  0  0  0
  7  8  1  0  0  0  0
  7  9  1  0  0  0  0
 26 27  1  0  0  0  0
 26 28  1  0  0  0  0
 26 29  1  0  0  0  0
 24 25  1  0  0  0  0
 24 26  1  0  0  0  0
M  END
$$$$
default_name
  -OEChem-02102213163D

 29 28  0     1  0  0  0  0  0999 V2000
   -3.3998   -3.6239    1.3678 H   0  0  0  0  0  0  0  0  0  0  0  0
   -3.3608   -2.6749    0.8348 C   0  0  0  0  0  0  0  0  0  0  0  0
   -4.0988   -1.9909    1.2498 H   0  0  0  0  0  0  0  0  0  0  0  0
   -3.5618   -2.8419   -0.2222 H   0  0  0  0  0  0  0  0  0  0  0  0
   -1.9818   -2.0809    0.9918 C   0  0  0  0  0  0  0  0  0  0  0  0
   -1.1288   -2.6669    1.6468 O   0  0  0  0  0  0  0  0  0  0  0  0
   -1.7648   -0.9089    0.3998 N   0  0  0  0  0  0  0  0  0  0  0  0
   -2.5238   -0.4719   -0.1032 H   0  0  0  0  0  0  0  0  0  0  0  0
   -0.4848   -0.1959    0.4138 C   0  0  1  0  0  0  0  0  0  0  0  0
    0.2783   -0.8411   -0.0248 H   0  0  0  0  0  0  0  0  0  0  0  0
   -0.6101    1.0666   -0.4611 C   0  0  0  0  0  0  0  0  0  0  0  0
   -0.4038    1.9387    0.1629 H   0  0  0  0  0  0  0  0  0  0  0  0
    0.1402    1.0280   -1.2522 H   0  0  0  0  0  0  0  0  0  0  0  0
   -1.9982    1.2455   -1.1004 C   0  0  0  0  0  0  0  0  0  0  0  0
   -2.0077    2.1484   -1.7106 H   0  0  0  0  0  0  0  0  0  0  0  0
   -2.2050    0.3892   -1.7423 H   0  0  0  0  0  0  0  0  0  0  0  0
   -3.1238    1.3586   -0.0724 C   0  0  0  0  0  0  0  0  0  0  0  0
   -2.9496    1.2417    1.1262 O   0  0  0  0  0  0  0  0  0  0  0  0
   -4.3425    1.6025   -0.5029 N   0  0  0  0  0  0  0  0  0  0  0  0
   -5.0428    1.6676    0.2153 H   0  0  0  0  0  0  0  0  0  0  0  0
   -4.5406    1.7100   -1.4771 H   0  0  0  0  0  0  0  0  0  0  0  0
   -0.0637    0.1284    1.8555 C   0  0  0  0  0  0  0  0  0  0  0  0
    1.0918   -0.0745    2.2236 O   0  0  0  0  0  0  0  0  0  0  0  0
   -1.0024    0.6217    2.6735 N   0  0  0  0  0  0  0  0  0  0  0  0
   -1.9213    0.7848    2.2938 H   0  0  0  0  0  0  0  0  0  0  0  0
   -0.7639    0.9676    4.0741 C   0  0  0  0  0  0  0  0  0  0  0  0
    0.0520    1.6916    4.1400 H   0  0  0  0  0  0  0  0  0  0  0  0
   -1.6626    1.3984    4.5182 H   0  0  0  0  0  0  0  0  0  0  0  0
   -0.4775    0.0737    4.6309 H   0  0  0  0  0  0  0  0  0  0  0  0
  5  6  2  0  0  0  0
  5  7  1  0  0  0  0
  2  3  1  0  0  0  0
  2  4  1  0  0  0  0
  2  5  1  0  0  0  0
  1  2  1  0  0  0  0
 22 23  2  0  0  0  0
 22 24  1  0  0  0  0
 19 20  1  0  0  0  0
 19 21  1  0  0  0  0
 17 18  2  0  0  0  0
 17 19  1  0  0  0  0
 14 15  1  0  0  0  0
 14 16  1  0  0  0  0
 14 17  1  0  0  0  0
 11 12  1  0  0  0  0
 11 13  1  0  0  0  0
 11 14  1  0  0  0  0
  9 10  1  0  0  0  0
  9 11  1  0  0  0  0
  9 22  1  0  0  0  0
  7  8  1  0  0  0  0
  7  9  1  0  0  0  0
 26 27  1  0  0  0  0
 26 28  1  0  0  0  0
 26 29  1  0  0  0  0
 24 25  1  0  0  0  0
 24 26  1  0  0  0  0
M  END
$$$$
default_name
  -OEChem-02102213163D

 29 28  0     1  0  0  0  0  0999 V2000
   -3.3998   -3.6239    1.3678 H   0  0  0  0  0  0  0  0  0  0  0  0
   -3.3608   -2.6749    0.8348 C   0  0  0  0  0  0  0  0  0  0  0  0
   -4.0988   -1.9909    1.2498 H   0  0  0  0  0  0  0  0  0  0  0  0
   -3.5618   -2.8419   -0.2222 H   0  0  0  0  0  0  0  0  0  0  0  0
   -1.9818   -2.0809    0.9918 C   0  0  0  0  0  0  0  0  0  0  0  0
   -1.1288   -2.6669    1.6468 O   0  0  0  0  0  0  0  0  0  0  0  0
   -1.7648   -0.9089    0.3998 N   0  0  0  0  0  0  0  0  0  0  0  0
   -2.5238   -0.4719   -0.1032 H   0  0  0  0  0  0  0  0  0  0  0  0
   -0.4848   -0.1959    0.4138 C   0  0  1  0  0  0  0  0  0  0  0  0
    0.2783   -0.8411   -0.0248 H   0  0  0  0  0  0  0  0  0  0  0  0
   -0.6101    1.0666   -0.4611 C   0  0  0  0  0  0  0  0  0  0  0  0
   -0.4038    1.9387    0.1629 H   0  0  0  0  0  0  0  0  0  0  0  0
    0.1402    1.0280   -1.2522 H   0  0  0  0  0  0  0  0  0  0  0  0
   -1.9982    1.2455   -1.1004 C   0  0  0  0  0  0  0  0  0  0  0  0
   -1.9399    1.9776   -1.9056 H   0  0  0  0  0  0  0  0  0  0  0  0
   -2.3202    0.2922   -1.5193 H   0  0  0  0  0  0  0  0  0  0  0  0
   -3.0608    1.7182   -0.1085 C   0  0  0  0  0  0  0  0  0  0  0  0
   -2.8485    1.8638    1.0808 O   0  0  0  0  0  0  0  0  0  0  0  0
   -4.2649    1.9895   -0.5631 N   0  0  0  0  0  0  0  0  0  0  0  0
   -4.9232    2.2968    0.1317 H   0  0  0  0  0  0  0  0  0  0  0  0
   -4.4923    1.8896   -1.5317 H   0  0  0  0  0  0  0  0  0  0  0  0
   -0.0637    0.1284    1.8555 C   0  0  0  0  0  0  0  0  0  0  0  0
    1.0918   -0.0745    2.2236 O   0  0  0  0  0  0  0  0  0  0  0  0
   -1.0024    0.6217    2.6735 N   0  0  0  0  0  0  0  0  0  0  0  0
   -1.9213    0.7848    2.2938 H   0  0  0  0  0  0  0  0  0  0  0  0
   -0.7639    0.9676    4.0741 C   0  0  0  0  0  0  0  0  0  0  0  0
    0.0520    1.6916    4.1400 H   0  0  0  0  0  0  0  0  0  0  0  0
   -1.6626    1.3984    4.5182 H   0  0  0  0  0  0  0  0  0  0  0  0
   -0.4775    0.0737    4.6309 H   0  0  0  0  0  0  0  0  0  0  0  0
  5  6  2  0  0  0  0
  5  7  1  0  0  0  0
  2  3  1  0  0  0  0
  2  4  1  0  0  0  0
  2  5  1  0  0  0  0
  1  2  1  0  0  0  0
 22 23  2  0  0  0  0
 22 24  1  0  0  0  0
 19 20  1  0  0  0  0
 19 21  1  0  0  0  0
 17 18  2  0  0  0  0
 17 19  1  0  0  0  0
 14 15  1  0  0  0  0
 14 16  1  0  0  0  0
 14 17  1  0  0  0  0
 11 12  1  0  0  0  0
 11 13  1  0  0  0  0
 11 14  1  0  0  0  0
  9 10  1  0  0  0  0
  9 11  1  0  0  0  0
  9 22  1  0  0  0  0
  7  8  1  0  0  0  0
  7  9  1  0  0  0  0
 26 27  1  0  0  0  0
 26 28  1  0  0  0  0
 26 29  1  0  0  0  0
 24 25  1  0  0  0  0
 24 26  1  0  0  0  0
M  END
$$$$
default_name
  -OEChem-02102213163D

 29 28  0     1  0  0  0  0  0999 V2000
   -3.3998   -3.6239    1.3678 H   0  0  0  0  0  0  0  0  0  0  0  0
   -3.3608   -2.6749    0.8348 C   0  0  0  0  0  0  0  0  0  0  0  0
   -4.0988   -1.9909    1.2498 H   0  0  0  0  0  0  0  0  0  0  0  0
   -3.5618   -2.8419   -0.2222 H   0  0  0  0  0  0  0  0  0  0  0  0
   -1.9818   -2.0809    0.9918 C   0  0  0  0  0  0  0  0  0  0  0  0
   -1.1288   -2.6669    1.6468 O   0  0  0  0  0  0  0  0  0  0  0  0
   -1.7648   -0.9089    0.3998 N   0  0  0  0  0  0  0  0  0  0  0  0
   -2.5238   -0.4719   -0.1032 H   0  0  0  0  0  0  0  0  0  0  0  0
   -0.4848   -0.1959    0.4138 C   0  0  1  0  0  0  0  0  0  0  0  0
    0.2783   -0.8411   -0.0248 H   0  0  0  0  0  0  0  0  0  0  0  0
   -0.6101    1.0666   -0.4611 C   0  0  0  0  0  0  0  0  0  0  0  0
   -0.4038    1.9387    0.1629 H   0  0  0  0  0  0  0  0  0  0  0  0
    0.1402    1.0280   -1.2522 H   0  0  0  0  0  0  0  0  0  0  0  0
   -1.9982    1.2455   -1.1004 C   0  0  0  0  0  0  0  0  0  0  0  0
   -1.8987    1.7599   -2.0560 H   0  0  0  0  0  0  0  0  0  0  0  0
   -2.4352    0.2629   -1.2778 H   0  0  0  0  0  0  0  0  0  0  0  0
   -2.9624    2.0504   -0.2292 C   0  0  0  0  0  0  0  0  0  0  0  0
   -2.6853    2.4432    0.8886 O   0  0  0  0  0  0  0  0  0  0  0  0
   -4.1502    2.3409   -0.7140 N   0  0  0  0  0  0  0  0  0  0  0  0
   -4.7425    2.8722   -0.0996 H   0  0  0  0  0  0  0  0  0  0  0  0
   -4.4280    2.0451   -1.6278 H   0  0  0  0  0  0  0  0  0  0  0  0
   -0.0637    0.1284    1.8555 C   0  0  0  0  0  0  0  0  0  0  0  0
    1.0918   -0.0745    2.2236 O   0  0  0  0  0  0  0  0  0  0  0  0
   -1.0024    0.6217    2.6735 N   0  0  0  0  0  0  0  0  0  0  0  0
   -1.9213    0.7848    2.2938 H   0  0  0  0  0  0  0  0  0  0  0  0
   -0.7639    0.9676    4.0741 C   0  0  0  0  0  0  0  0  0  0  0  0
    0.0520    1.6916    4.1400 H   0  0  0  0  0  0  0  0  0  0  0  0
   -1.6626    1.3984    4.5182 H   0  0  0  0  0  0  0  0  0  0  0  0
   -0.4775    0.0737    4.6309 H   0  0  0  0  0  0  0  0  0  0  0  0
  5  6  2  0  0  0  0
  5  7  1  0  0  0  0
  2  3  1  0  0  0  0
  2  4  1  0  0  0  0
  2  5  1  0  0  0  0
  1  2  1  0  0  0  0
 22 23  2  0  0  0  0
 22 24  1  0  0  0  0
 19 20  1  0  0  0  0
 19 21  1  0  0  0  0
 17 18  2  0  0  0  0
 17 19  1  0  0  0  0
 14 15  1  0  0  0  0
 14 16  1  0  0  0  0
 14 17  1  0  0  0  0
 11 12  1  0  0  0  0
 11 13  1  0  0  0  0
 11 14  1  0  0  0  0
  9 10  1  0  0  0  0
  9 11  1  0  0  0  0
  9 22  1  0  0  0  0
  7  8  1  0  0  0  0
  7  9  1  0  0  0  0
 26 27  1  0  0  0  0
 26 28  1  0  0  0  0
 26 29  1  0  0  0  0
 24 25  1  0  0  0  0
 24 26  1  0  0  0  0
M  END
$$$$
default_name
  -OEChem-02102213163D

 29 28  0     1  0  0  0  0  0999 V2000
   -3.3998   -3.6239    1.3678 H   0  0  0  0  0  0  0  0  0  0  0  0
   -3.3608   -2.6749    0.8348 C   0  0  0  0  0  0  0  0  0  0  0  0
   -4.0988   -1.9909    1.2498 H   0  0  0  0  0  0  0  0  0  0  0  0
   -3.5618   -2.8419   -0.2222 H   0  0  0  0  0  0  0  0  0  0  0  0
   -1.9818   -2.0809    0.9918 C   0  0  0  0  0  0  0  0  0  0  0  0
   -1.1288   -2.6669    1.6468 O   0  0  0  0  0  0  0  0  0  0  0  0
   -1.7648   -0.9089    0.3998 N   0  0  0  0  0  0  0  0  0  0  0  0
   -2.5238   -0.4719   -0.1032 H   0  0  0  0  0  0  0  0  0  0  0  0
   -0.4848   -0.1959    0.4138 C   0  0  1  0  0  0  0  0  0  0  0  0
    0.2783   -0.8411   -0.0248 H   0  0  0  0  0  0  0  0  0  0  0  0
   -0.6101    1.0666   -0.4611 C   0  0  0  0  0  0  0  0  0  0  0  0
   -0.4038    1.9387    0.1629 H   0  0  0  0  0  0  0  0  0  0  0  0
    0.1402    1.0280   -1.2522 H   0  0  0  0  0  0  0  0  0  0  0  0
   -1.9982    1.2455   -1.1004 C   0  0  0  0  0  0  0  0  0  0  0  0
   -1.8868    1.5100   -2.1518 H   0  0  0  0  0  0  0  0  0  0  0  0
   -2.5422    0.3033   -1.0342 H   0  0  0  0  0  0  0  0  0  0  0  0
   -2.8353    2.3325   -0.4263 C   0  0  0  0  0  0  0  0  0  0  0  0
   -2.4712    2.9404    0.5628 O   0  0  0  0  0  0  0  0  0  0  0  0
   -4.0061    2.6328   -0.9452 N   0  0  0  0  0  0  0  0  0  0  0  0
   -4.5131    3.3545   -0.4628 H   0  0  0  0  0  0  0  0  0  0  0  0
   -4.3521    2.1660   -1.7589 H   0  0  0  0  0  0  0  0  0  0  0  0
   -0.0637    0.1284    1.8555 C   0  0  0  0  0  0  0  0  0  0  0  0
    1.0918   -0.0745    2.2236 O   0  0  0  0  0  0  0  0  0  0  0  0
   -1.0024    0.6217    2.6735 N   0  0  0  0  0  0  0  0  0  0  0  0
   -1.9213    0.7848    2.2938 H   0  0  0  0  0  0  0  0  0  0  0  0
   -0.7639    0.9676    4.0741 C   0  0  0  0  0  0  0  0  0  0  0  0
    0.0520    1.6916    4.1400 H   0  0  0  0  0  0  0  0  0  0  0  0
   -1.6626    1.3984    4.5182 H   0  0  0  0  0  0  0  0  0  0  0  0
   -0.4775    0.0737    4.6309 H   0  0  0  0  0  0  0  0  0  0  0  0
  5  6  2  0  0  0  0
  5  7  1  0  0  0  0
  2  3  1  0  0  0  0
  2  4  1  0  0  0  0
  2  5  1  0  0  0  0
  1  2  1  0  0  0  0
 22 23  2  0  0  0  0
 22 24  1  0  0  0  0
 19 20  1  0  0  0  0
 19 21  1  0  0  0  0
 17 18  2  0  0  0  0
 17 19  1  0  0  0  0
 14 15  1  0  0  0  0
 14 16  1  0  0  0  0
 14 17  1  0  0  0  0
 11 12  1  0  0  0  0
 11 13  1  0  0  0  0
 11 14  1  0  0  0  0
  9 10  1  0  0  0  0
  9 11  1  0  0  0  0
  9 22  1  0  0  0  0
  7  8  1  0  0  0  0
  7  9  1  0  0  0  0
 26 27  1  0  0  0  0
 26 28  1  0  0  0  0
 26 29  1  0  0  0  0
 24 25  1  0  0  0  0
 24 26  1  0  0  0  0
M  END
$$$$
default_name
  -OEChem-02102213163D

 29 28  0     1  0  0  0  0  0999 V2000
   -3.3998   -3.6239    1.3678 H   0  0  0  0  0  0  0  0  0  0  0  0
   -3.3608   -2.6749    0.8348 C   0  0  0  0  0  0  0  0  0  0  0  0
   -4.0988   -1.9909    1.2498 H   0  0  0  0  0  0  0  0  0  0  0  0
   -3.5618   -2.8419   -0.2222 H   0  0  0  0  0  0  0  0  0  0  0  0
   -1.9818   -2.0809    0.9918 C   0  0  0  0  0  0  0  0  0  0  0  0
   -1.1288   -2.6669    1.6468 O   0  0  0  0  0  0  0  0  0  0  0  0
   -1.7648   -0.9089    0.3998 N   0  0  0  0  0  0  0  0  0  0  0  0
   -2.5238   -0.4719   -0.1032 H   0  0  0  0  0  0  0  0  0  0  0  0
   -0.4848   -0.1959    0.4138 C   0  0  1  0  0  0  0  0  0  0  0  0
    0.2783   -0.8411   -0.0248 H   0  0  0  0  0  0  0  0  0  0  0  0
   -0.6101    1.0666   -0.4611 C   0  0  0  0  0  0  0  0  0  0  0  0
   -0.4038    1.9387    0.1629 H   0  0  0  0  0  0  0  0  0  0  0  0
    0.1402    1.0280   -1.2522 H   0  0  0  0  0  0  0  0  0  0  0  0
   -1.9982    1.2455   -1.1004 C   0  0  0  0  0  0  0  0  0  0  0  0
   -1.9050    1.2449   -2.1862 H   0  0  0  0  0  0  0  0  0  0  0  0
   -2.6339    0.4108   -0.8051 H   0  0  0  0  0  0  0  0  0  0  0  0
   -2.6880    2.5452   -0.6864 C   0  0  0  0  0  0  0  0  0  0  0  0
   -2.2207    3.3216    0.1256 O   0  0  0  0  0  0  0  0  0  0  0  0
   -3.8424    2.8453   -1.2410 N   0  0  0  0  0  0  0  0  0  0  0  0
   -4.2505    3.7108   -0.9331 H   0  0  0  0  0  0  0  0  0  0  0  0
   -4.2696    2.2439   -1.9160 H   0  0  0  0  0  0  0  0  0  0  0  0
   -0.0637    0.1284    1.8555 C   0  0  0  0  0  0  0  0  0  0  0  0
    1.0918   -0.0745    2.2236 O   0  0  0  0  0  0  0  0  0  0  0  0
   -1.0024    0.6217    2.6735 N   0  0  0  0  0  0  0  0  0  0  0  0
   -1.9213    0.7848    2.2938 H   0  0  0  0  0  0  0  0  0  0  0  0
   -0.7639    0.9676    4.0741 C   0  0  0  0  0  0  0  0  0  0  0  0
    0.0520    1.6916    4.1400 H   0  0  0  0  0  0  0  0  0  0  0  0
   -1.6626    1.3984    4.5182 H   0  0  0  0  0  0  0  0  0  0  0  0
   -0.4775    0.0737    4.6309 H   0  0  0  0  0  0  0  0  0  0  0  0
  5  6  2  0  0  0  0
  5  7  1  0  0  0  0
  2  3  1  0  0  0  0
  2  4  1  0  0  0  0
  2  5  1  0  0  0  0
  1  2  1  0  0  0  0
 22 23  2  0  0  0  0
 22 24  1  0  0  0  0
 19 20  1  0  0  0  0
 19 21  1  0  0  0  0
 17 18  2  0  0  0  0
 17 19  1  0  0  0  0
 14 15  1  0  0  0  0
 14 16  1  0  0  0  0
 14 17  1  0  0  0  0
 11 12  1  0  0  0  0
 11 13  1  0  0  0  0
 11 14  1  0  0  0  0
  9 10  1  0  0  0  0
  9 11  1  0  0  0  0
  9 22  1  0  0  0  0
  7  8  1  0  0  0  0
  7  9  1  0  0  0  0
 26 27  1  0  0  0  0
 26 28  1  0  0  0  0
 26 29  1  0  0  0  0
 24 25  1  0  0  0  0
 24 26  1  0  0  0  0
M  END
$$$$
default_name
  -OEChem-02102213163D

 29 28  0     1  0  0  0  0  0999 V2000
   -3.3998   -3.6239    1.3678 H   0  0  0  0  0  0  0  0  0  0  0  0
   -3.3608   -2.6749    0.8348 C   0  0  0  0  0  0  0  0  0  0  0  0
   -4.0988   -1.9909    1.2498 H   0  0  0  0  0  0  0  0  0  0  0  0
   -3.5618   -2.8419   -0.2222 H   0  0  0  0  0  0  0  0  0  0  0  0
   -1.9818   -2.0809    0.9918 C   0  0  0  0  0  0  0  0  0  0  0  0
   -1.1288   -2.6669    1.6468 O   0  0  0  0  0  0  0  0  0  0  0  0
   -1.7648   -0.9089    0.3998 N   0  0  0  0  0  0  0  0  0  0  0  0
   -2.5238   -0.4719   -0.1032 H   0  0  0  0  0  0  0  0  0  0  0  0
   -0.4848   -0.1959    0.4138 C   0  0  1  0  0  0  0  0  0  0  0  0
    0.2783   -0.8411   -0.0248 H   0  0  0  0  0  0  0  0  0  0  0  0
   -0.6101    1.0666   -0.4611 C   0  0  0  0  0  0  0  0  0  0  0  0
   -0.4038    1.9387    0.1629 H   0  0  0  0  0  0  0  0  0  0  0  0
    0.1402    1.0280   -1.2522 H   0  0  0  0  0  0  0  0  0  0  0  0
   -1.9982    1.2455   -1.1004 C   0  0  0  0  0  0  0  0  0  0  0  0
   -1.9522    0.9829   -2.1571 H   0  0  0  0  0  0  0  0  0  0  0  0
   -2.7040    0.5780   -0.6062 H   0  0  0  0  0  0  0  0  0  0  0  0
   -2.5308    2.6742   -0.9918 C   0  0  0  0  0  0  0  0  0  0  0  0
   -1.9509    3.5608   -0.3933 O   0  0  0  0  0  0  0  0  0  0  0  0
   -3.6704    2.9639   -1.5813 N   0  0  0  0  0  0  0  0  0  0  0  0
   -3.9727    3.9170   -1.4785 H   0  0  0  0  0  0  0  0  0  0  0  0
   -4.1864    2.2737   -2.0884 H   0  0  0  0  0  0  0  0  0  0  0  0
   -0.0637    0.1284    1.8555 C   0  0  0  0  0  0  0  0  0  0  0  0
    1.0918   -0.0745    2.2236 O   0  0  0  0  0  0  0  0  0  0  0  0
   -1.0024    0.6217    2.6735 N   0  0  0  0  0  0  0  0  0  0  0  0
   -1.9213    0.7848    2.2938 H   0  0  0  0  0  0  0  0  0  0  0  0
   -0.7639    0.9676    4.0741 C   0  0  0  0  0  0  0  0  0  0  0  0
    0.0520    1.6916    4.1400 H   0  0  0  0  0  0  0  0  0  0  0  0
   -1.6626    1.3984    4.5182 H   0  0  0  0  0  0  0  0  0  0  0  0
   -0.4775    0.0737    4.6309 H   0  0  0  0  0  0  0  0  0  0  0  0
  5  6  2  0  0  0  0
  5  7  1  0  0  0  0
  2  3  1  0  0  0  0
  2  4  1  0  0  0  0
  2  5  1  0  0  0  0
  1  2  1  0  0  0  0
 22 23  2  0  0  0  0
 22 24  1  0  0  0  0
 19 20  1  0  0  0  0
 19 21  1  0  0  0  0
 17 18  2  0  0  0  0
 17 19  1  0  0  0  0
 14 15  1  0  0  0  0
 14 16  1  0  0  0  0
 14 17  1  0  0  0  0
 11 12  1  0  0  0  0
 11 13  1  0  0  0  0
 11 14  1  0  0  0  0
  9 10  1  0  0  0  0
  9 11  1  0  0  0  0
  9 22  1  0  0  0  0
  7  8  1  0  0  0  0
  7  9  1  0  0  0  0
 26 27  1  0  0  0  0
 26 28  1  0  0  0  0
 26 29  1  0  0  0  0
 24 25  1  0  0  0  0
 24 26  1  0  0  0  0
M  END
$$$$
default_name
  -OEChem-02102213163D

 29 28  0     1  0  0  0  0  0999 V2000
   -3.3998   -3.6239    1.3678 H   0  0  0  0  0  0  0  0  0  0  0  0
   -3.3608   -2.6749    0.8348 C   0  0  0  0  0  0  0  0  0  0  0  0
   -4.0988   -1.9909    1.2498 H   0  0  0  0  0  0  0  0  0  0  0  0
   -3.5618   -2.8419   -0.2222 H   0  0  0  0  0  0  0  0  0  0  0  0
   -1.9818   -2.0809    0.9918 C   0  0  0  0  0  0  0  0  0  0  0  0
   -1.1288   -2.6669    1.6468 O   0  0  0  0  0  0  0  0  0  0  0  0
   -1.7648   -0.9089    0.3998 N   0  0  0  0  0  0  0  0  0  0  0  0
   -2.5238   -0.4719   -0.1032 H   0  0  0  0  0  0  0  0  0  0  0  0
   -0.4848   -0.1959    0.4138 C   0  0  1  0  0  0  0  0  0  0  0  0
    0.2783   -0.8411   -0.0248 H   0  0  0  0  0  0  0  0  0  0  0  0
   -0.6101    1.0666   -0.4611 C   0  0  0  0  0  0  0  0  0  0  0  0
   -0.4038    1.9387    0.1629 H   0  0  0  0  0  0  0  0  0  0  0  0
    0.1402    1.0280   -1.2522 H   0  0  0  0  0  0  0  0  0  0  0  0
   -1.9982    1.2455   -1.1004 C   0  0  0  0  0  0  0  0  0  0  0  0
   -2.0251    0.7416   -2.0664 H   0  0  0  0  0  0  0  0  0  0  0  0
   -2.7477    0.7935   -0.4509 H   0  0  0  0  0  0  0  0  0  0  0  0
   -2.3742    2.7105   -1.3216 C   0  0  0  0  0  0  0  0  0  0  0  0
   -1.6802    3.6416   -0.9584 O   0  0  0  0  0  0  0  0  0  0  0  0
   -3.5018    2.9804   -1.9429 N   0  0  0  0  0  0  0  0  0  0  0  0
   -3.6986    3.9590   -2.0618 H   0  0  0  0  0  0  0  0  0  0  0  0
   -4.1079    2.2532   -2.2645 H   0  0  0  0  0  0  0  0  0  0  0  0
   -0.0637    0.1284    1.8555 C   0  0  0  0  0  0  0  0  0  0  0  0
    1.0918   -0.0745    2.2236 O   0  0  0  0  0  0  0  0  0  0  0  0
   -1.0024    0.6217    2.6735 N   0  0  0  0  0  0  0  0  0  0  0  0
   -1.9213    0.7848    2.2938 H   0  0  0  0  0  0  0  0  0  0  0  0
   -0.7639    0.9676    4.0741 C   0  0  0  0  0  0  0  0  0  0  0  0
    0.0520    1.6916    4.1400 H   0  0  0  0  0  0  0  0  0  0  0  0
   -1.6626    1.3984    4.5182 H   0  0  0  0  0  0  0  0  0  0  0  0
   -0.4775    0.0737    4.6309 H   0  0  0  0  0  0  0  0  0  0  0  0
  5  6  2  0  0  0  0
  5  7  1  0  0  0  0
  2  3  1  0  0  0  0
  2  4  1  0  0  0  0
  2  5  1  0  0  0  0
  1  2  1  0  0  0  0
 22 23  2  0  0  0  0
 22 24  1  0  0  0  0
 19 20  1  0  0  0  0
 19 21  1  0  0  0  0
 17 18  2  0  0  0  0
 17 19  1  0  0  0  0
 14 15  1  0  0  0  0
 14 16  1  0  0  0  0
 14 17  1  0  0  0  0
 11 12  1  0  0  0  0
 11 13  1  0  0  0  0
 11 14  1  0  0  0  0
  9 10  1  0  0  0  0
  9 11  1  0  0  0  0
  9 22  1  0  0  0  0
  7  8  1  0  0  0  0
  7  9  1  0  0  0  0
 26 27  1  0  0  0  0
 26 28  1  0  0  0  0
 26 29  1  0  0  0  0
 24 25  1  0  0  0  0
 24 26  1  0  0  0  0
M  END
$$$$
default_name
  -OEChem-02102213163D

 29 28  0     1  0  0  0  0  0999 V2000
   -3.3998   -3.6239    1.3678 H   0  0  0  0  0  0  0  0  0  0  0  0
   -3.3608   -2.6749    0.8348 C   0  0  0  0  0  0  0  0  0  0  0  0
   -4.0988   -1.9909    1.2498 H   0  0  0  0  0  0  0  0  0  0  0  0
   -3.5618   -2.8419   -0.2222 H   0  0  0  0  0  0  0  0  0  0  0  0
   -1.9818   -2.0809    0.9918 C   0  0  0  0  0  0  0  0  0  0  0  0
   -1.1288   -2.6669    1.6468 O   0  0  0  0  0  0  0  0  0  0  0  0
   -1.7648   -0.9089    0.3998 N   0  0  0  0  0  0  0  0  0  0  0  0
   -2.5238   -0.4719   -0.1032 H   0  0  0  0  0  0  0  0  0  0  0  0
   -0.4848   -0.1959    0.4138 C   0  0  1  0  0  0  0  0  0  0  0  0
    0.2783   -0.8411   -0.0248 H   0  0  0  0  0  0  0  0  0  0  0  0
   -0.6101    1.0666   -0.4611 C   0  0  0  0  0  0  0  0  0  0  0  0
   -0.4038    1.9387    0.1629 H   0  0  0  0  0  0  0  0  0  0  0  0
    0.1402    1.0280   -1.2522 H   0  0  0  0  0  0  0  0  0  0  0  0
   -1.9982    1.2455   -1.1004 C   0  0  0  0  0  0  0  0  0  0  0  0
   -2.1187    0.5376   -1.9202 H   0  0  0  0  0  0  0  0  0  0  0  0
   -2.7621    1.0425   -0.3500 H   0  0  0  0  0  0  0  0  0  0  0  0
   -2.2290    2.6518   -1.6533 C   0  0  0  0  0  0  0  0  0  0  0  0
   -1.4270    3.5587   -1.5314 O   0  0  0  0  0  0  0  0  0  0  0  0
   -3.3479    2.8939   -2.3010 N   0  0  0  0  0  0  0  0  0  0  0  0
   -3.4469    3.8338   -2.6433 H   0  0  0  0  0  0  0  0  0  0  0  0
   -4.0397    2.1839   -2.4321 H   0  0  0  0  0  0  0  0  0  0  0  0
   -0.0637    0.1284    1.8555 C   0  0  0  0  0  0  0  0  0  0  0  0
    1.0918   -0.0745    2.2236 O   0  0  0  0  0  0  0  0  0  0  0  0
   -1.0024    0.6217    2.6735 N   0  0  0  0  0  0  0  0  0  0  0  0
   -1.9213    0.7848    2.2938 H   0  0  0  0  0  0  0  0  0  0  0  0
   -0.7639    0.9676    4.0741 C   0  0  0  0  0  0  0  0  0  0  0  0
    0.0520    1.6916    4.1400 H   0  0  0  0  0  0  0  0  0  0  0  0
   -1.6626    1.3984    4.5182 H   0  0  0  0  0  0  0  0  0  0  0  0
   -0.4775    0.0737    4.6309 H   0  0  0  0  0  0  0  0  0  0  0  0
  5  6  2  0  0  0  0
  5  7  1  0  0  0  0
  2  3  1  0  0  0  0
  2  4  1  0  0  0  0
  2  5  1  0  0  0  0
  1  2  1  0  0  0  0
 22 23  2  0  0  0  0
 22 24  1  0  0  0  0
 19 20  1  0  0  0  0
 19 21  1  0  0  0  0
 17 18  2  0  0  0  0
 17 19  1  0  0  0  0
 14 15  1  0  0  0  0
 14 16  1  0  0  0  0
 14 17  1  0  0  0  0
 11 12  1  0  0  0  0
 11 13  1  0  0  0  0
 11 14  1  0  0  0  0
  9 10  1  0  0  0  0
  9 11  1  0  0  0  0
  9 22  1  0  0  0  0
  7  8  1  0  0  0  0
  7  9  1  0  0  0  0
 26 27  1  0  0  0  0
 26 28  1  0  0  0  0
 26 29  1  0  0  0  0
 24 25  1  0  0  0  0
 24 26  1  0  0  0  0
M  END
$$$$
default_name
  -OEChem-02102213163D

 29 28  0     1  0  0  0  0  0999 V2000
   -3.3998   -3.6239    1.3678 H   0  0  0  0  0  0  0  0  0  0  0  0
   -3.3608   -2.6749    0.8348 C   0  0  0  0  0  0  0  0  0  0  0  0
   -4.0988   -1.9909    1.2498 H   0  0  0  0  0  0  0  0  0  0  0  0
   -3.5618   -2.8419   -0.2222 H   0  0  0  0  0  0  0  0  0  0  0  0
   -1.9818   -2.0809    0.9918 C   0  0  0  0  0  0  0  0  0  0  0  0
   -1.1288   -2.6669    1.6468 O   0  0  0  0  0  0  0  0  0  0  0  0
   -1.7648   -0.9089    0.3998 N   0  0  0  0  0  0  0  0  0  0  0  0
   -2.5238   -0.4719   -0.1032 H   0  0  0  0  0  0  0  0  0  0  0  0
   -0.4848   -0.1959    0.4138 C   0  0  1  0  0  0  0  0  0  0  0  0
    0.2783   -0.8411   -0.0248 H   0  0  0  0  0  0  0  0  0  0  0  0
   -0.6101    1.0666   -0.4611 C   0  0  0  0  0  0  0  0  0  0  0  0
   -0.1513    1.9013    0.0729 H   0  0  0  0  0  0  0  0  0  0  0  0
   -0.0598    0.9124   -1.3904 H   0  0  0  0  0  0  0  0  0  0  0  0
   -2.0619    1.4472   -0.8002 C   0  0  0  0  0  0  0  0  0  0  0  0
   -2.5413    0.6270   -1.3339 H   0  0  0  0  0  0  0  0  0  0  0  0
   -2.6067    1.6250    0.1270 H   0  0  0  0  0  0  0  0  0  0  0  0
   -2.1679    2.7011   -1.6680 C   0  0  0  0  0  0  0  0  0  0  0  0
   -1.2070    3.3732   -1.9929 O   0  0  0  0  0  0  0  0  0  0  0  0
   -3.3570    3.0697   -2.0928 N   0  0  0  0  0  0  0  0  0  0  0  0
   -3.3681    3.8997   -2.6598 H   0  0  0  0  0  0  0  0  0  0  0  0
   -4.1793    2.5519   -1.8575 H   0  0  0  0  0  0  0  0  0  0  0  0
   -0.0637    0.1284    1.8555 C   0  0  0  0  0  0  0  0  0  0  0  0
    1.0918   -0.0745    2.2236 O   0  0  0  0  0  0  0  0  0  0  0  0
   -1.0024    0.6217    2.6735 N   0  0  0  0  0  0  0  0  0  0  0  0
   -1.9213    0.7848    2.2938 H   0  0  0  0  0  0  0  0  0  0  0  0
   -0.7639    0.9676    4.0741 C   0  0  0  0  0  0  0  0  0  0  0  0
    0.0520    1.6916    4.1400 H   0  0  0  0  0  0  0  0  0  0  0  0
   -1.6626    1.3984    4.5182 H   0  0  0  0  0  0  0  0  0  0  0  0
   -0.4775    0.0737    4.6309 H   0  0  0  0  0  0  0  0  0  0  0  0
  5  6  2  0  0  0  0
  5  7  1  0  0  0  0
  2  3  1  0  0  0  0
  2  4  1  0  0  0  0
  2  5  1  0  0  0  0
  1  2  1  0  0  0  0
 22 23  2  0  0  0  0
 22 24  1  0  0  0  0
 19 20  1  0  0  0  0
 19 21  1  0  0  0  0
 17 18  2  0  0  0  0
 17 19  1  0  0  0  0
 14 15  1  0  0  0  0
 14 16  1  0  0  0  0
 14 17  1  0  0  0  0
 11 12  1  0  0  0  0
 11 13  1  0  0  0  0
 11 14  1  0  0  0  0
  9 10  1  0  0  0  0
  9 11  1  0  0  0  0
  9 22  1  0  0  0  0
  7  8  1  0  0  0  0
  7  9  1  0  0  0  0
 26 27  1  0  0  0  0
 26 28  1  0  0  0  0
 26 29  1  0  0  0  0
 24 25  1  0  0  0  0
 24 26  1  0  0  0  0
M  END
$$$$
default_name
  -OEChem-02102213163D

 29 28  0     1  0  0  0  0  0999 V2000
   -3.3998   -3.6239    1.3678 H   0  0  0  0  0  0  0  0  0  0  0  0
   -3.3608   -2.6749    0.8348 C   0  0  0  0  0  0  0  0  0  0  0  0
   -4.0988   -1.9909    1.2498 H   0  0  0  0  0  0  0  0  0  0  0  0
   -3.5618   -2.8419   -0.2222 H   0  0  0  0  0  0  0  0  0  0  0  0
   -1.9818   -2.0809    0.9918 C   0  0  0  0  0  0  0  0  0  0  0  0
   -1.1288   -2.6669    1.6468 O   0  0  0  0  0  0  0  0  0  0  0  0
   -1.7648   -0.9089    0.3998 N   0  0  0  0  0  0  0  0  0  0  0  0
   -2.5238   -0.4719   -0.1032 H   0  0  0  0  0  0  0  0  0  0  0  0
   -0.4848   -0.1959    0.4138 C   0  0  1  0  0  0  0  0  0  0  0  0
    0.2783   -0.8411   -0.0248 H   0  0  0  0  0  0  0  0  0  0  0  0
   -0.6101    1.0666   -0.4611 C   0  0  0  0  0  0  0  0  0  0  0  0
   -0.1513    1.9013    0.0729 H   0  0  0  0  0  0  0  0  0  0  0  0
   -0.0598    0.9124   -1.3904 H   0  0  0  0  0  0  0  0  0  0  0  0
   -2.0619    1.4472   -0.8002 C   0  0  0  0  0  0  0  0  0  0  0  0
   -2.6178    0.5550   -1.0875 H   0  0  0  0  0  0  0  0  0  0  0  0
   -2.5300    1.8794    0.0842 H   0  0  0  0  0  0  0  0  0  0  0  0
   -2.1676    2.4576   -1.9424 C   0  0  0  0  0  0  0  0  0  0  0  0
   -1.2005    2.9670   -2.4768 O   0  0  0  0  0  0  0  0  0  0  0  0
   -3.3644    2.7887   -2.3764 N   0  0  0  0  0  0  0  0  0  0  0  0
   -3.3751    3.4554   -3.1286 H   0  0  0  0  0  0  0  0  0  0  0  0
   -4.1923    2.3979   -1.9744 H   0  0  0  0  0  0  0  0  0  0  0  0
   -0.0637    0.1284    1.8555 C   0  0  0  0  0  0  0  0  0  0  0  0
    1.0918   -0.0745    2.2236 O   0  0  0  0  0  0  0  0  0  0  0  0
   -1.0024    0.6217    2.6735 N   0  0  0  0  0  0  0  0  0  0  0  0
   -1.9213    0.7848    2.2938 H   0  0  0  0  0  0  0  0  0  0  0  0
   -0.7639    0.9676    4.0741 C   0  0  0  0  0  0  0  0  0  0  0  0
    0.0520    1.6916    4.1400 H   0  0  0  0  0  0  0  0  0  0  0  0
   -1.6626    1.3984    4.5182 H   0  0  0  0  0  0  0  0  0  0  0  0
   -0.4775    0.0737    4.6309 H   0  0  0  0  0  0  0  0  0  0  0  0
  5  6  2  0  0  0  0
  5  7  1  0  0  0  0
  2  3  1  0  0  0  0
  2  4  1  0  0  0  0
  2  5  1  0  0  0  0
  1  2  1  0  0  0  0
 22 23  2  0  0  0  0
 22 24  1  0  0  0  0
 19 20  1  0  0  0  0
 19 21  1  0  0  0  0
 17 18  2  0  0  0  0
 17 19  1  0  0  0  0
 14 15  1  0  0  0  0
 14 16  1  0  0  0  0
 14 17  1  0  0  0  0
 11 12  1  0  0  0  0
 11 13  1  0  0  0  0
 11 14  1  0  0  0  0
  9 10  1  0  0  0  0
  9 11  1  0  0  0  0
  9 22  1  0  0  0  0
  7  8  1  0  0  0  0
  7  9  1  0  0  0  0
 26 27  1  0  0  0  0
 26 28  1  0  0  0  0
 26 29  1  0  0  0  0
 24 25  1  0  0  0  0
 24 26  1  0  0  0  0
M  END
$$$$
default_name
  -OEChem-02102213163D

 29 28  0     1  0  0  0  0  0999 V2000
   -3.3998   -3.6239    1.3678 H   0  0  0  0  0  0  0  0  0  0  0  0
   -3.3608   -2.6749    0.8348 C   0  0  0  0  0  0  0  0  0  0  0  0
   -4.0988   -1.9909    1.2498 H   0  0  0  0  0  0  0  0  0  0  0  0
   -3.5618   -2.8419   -0.2222 H   0  0  0  0  0  0  0  0  0  0  0  0
   -1.9818   -2.0809    0.9918 C   0  0  0  0  0  0  0  0  0  0  0  0
   -1.1288   -2.6669    1.6468 O   0  0  0  0  0  0  0  0  0  0  0  0
   -1.7648   -0.9089    0.3998 N   0  0  0  0  0  0  0  0  0  0  0  0
   -2.5238   -0.4719   -0.1032 H   0  0  0  0  0  0  0  0  0  0  0  0
   -0.4848   -0.1959    0.4138 C   0  0  1  0  0  0  0  0  0  0  0  0
    0.2783   -0.8411   -0.0248 H   0  0  0  0  0  0  0  0  0  0  0  0
   -0.6101    1.0666   -0.4611 C   0  0  0  0  0  0  0  0  0  0  0  0
   -0.1513    1.9013    0.0729 H   0  0  0  0  0  0  0  0  0  0  0  0
   -0.0598    0.9124   -1.3904 H   0  0  0  0  0  0  0  0  0  0  0  0
   -2.0619    1.4472   -0.8002 C   0  0  0  0  0  0  0  0  0  0  0  0
   -2.6799    0.5500   -0.8270 H   0  0  0  0  0  0  0  0  0  0  0  0
   -2.4442    2.1103   -0.0242 H   0  0  0  0  0  0  0  0  0  0  0  0
   -2.1989    2.1553   -2.1479 C   0  0  0  0  0  0  0  0  0  0  0  0
   -1.2483    2.4560   -2.8455 O   0  0  0  0  0  0  0  0  0  0  0  0
   -3.4058    2.4484   -2.5812 N   0  0  0  0  0  0  0  0  0  0  0  0
   -3.4372    2.9122   -3.4725 H   0  0  0  0  0  0  0  0  0  0  0  0
   -4.2212    2.2214   -2.0490 H   0  0  0  0  0  0  0  0  0  0  0  0
   -0.0637    0.1284    1.8555 C   0  0  0  0  0  0  0  0  0  0  0  0
    1.0918   -0.0745    2.2236 O   0  0  0  0  0  0  0  0  0  0  0  0
   -1.0024    0.6217    2.6735 N   0  0  0  0  0  0  0  0  0  0  0  0
   -1.9213    0.7848    2.2938 H   0  0  0  0  0  0  0  0  0  0  0  0
   -0.7639    0.9676    4.0741 C   0  0  0  0  0  0  0  0  0  0  0  0
    0.0520    1.6916    4.1400 H   0  0  0  0  0  0  0  0  0  0  0  0
   -1.6626    1.3984    4.5182 H   0  0  0  0  0  0  0  0  0  0  0  0
   -0.4775    0.0737    4.6309 H   0  0  0  0  0  0  0  0  0  0  0  0
  5  6  2  0  0  0  0
  5  7  1  0  0  0  0
  2  3  1  0  0  0  0
  2  4  1  0  0  0  0
  2  5  1  0  0  0  0
  1  2  1  0  0  0  0
 22 23  2  0  0  0  0
 22 24  1  0  0  0  0
 19 20  1  0  0  0  0
 19 21  1  0  0  0  0
 17 18  2  0  0  0  0
 17 19  1  0  0  0  0
 14 15  1  0  0  0  0
 14 16  1  0  0  0  0
 14 17  1  0  0  0  0
 11 12  1  0  0  0  0
 11 13  1  0  0  0  0
 11 14  1  0  0  0  0
  9 10  1  0  0  0  0
  9 11  1  0  0  0  0
  9 22  1  0  0  0  0
  7  8  1  0  0  0  0
  7  9  1  0  0  0  0
 26 27  1  0  0  0  0
 26 28  1  0  0  0  0
 26 29  1  0  0  0  0
 24 25  1  0  0  0  0
 24 26  1  0  0  0  0
M  END
$$$$
default_name
  -OEChem-02102213163D

 29 28  0     1  0  0  0  0  0999 V2000
   -3.3998   -3.6239    1.3678 H   0  0  0  0  0  0  0  0  0  0  0  0
   -3.3608   -2.6749    0.8348 C   0  0  0  0  0  0  0  0  0  0  0  0
   -4.0988   -1.9909    1.2498 H   0  0  0  0  0  0  0  0  0  0  0  0
   -3.5618   -2.8419   -0.2222 H   0  0  0  0  0  0  0  0  0  0  0  0
   -1.9818   -2.0809    0.9918 C   0  0  0  0  0  0  0  0  0  0  0  0
   -1.1288   -2.6669    1.6468 O   0  0  0  0  0  0  0  0  0  0  0  0
   -1.7648   -0.9089    0.3998 N   0  0  0  0  0  0  0  0  0  0  0  0
   -2.5238   -0.4719   -0.1032 H   0  0  0  0  0  0  0  0  0  0  0  0
   -0.4848   -0.1959    0.4138 C   0  0  1  0  0  0  0  0  0  0  0  0
    0.2783   -0.8411   -0.0248 H   0  0  0  0  0  0  0  0  0  0  0  0
   -0.6101    1.0666   -0.4611 C   0  0  0  0  0  0  0  0  0  0  0  0
   -0.1513    1.9013    0.0729 H   0  0  0  0  0  0  0  0  0  0  0  0
   -0.0598    0.9124   -1.3904 H   0  0  0  0  0  0  0  0  0  0  0  0
   -2.0619    1.4472   -0.8002 C   0  0  0  0  0  0  0  0  0  0  0  0
   -2.7235    0.6124   -0.5701 H   0  0  0  0  0  0  0  0  0  0  0  0
   -2.3550    2.3020   -0.1907 H   0  0  0  0  0  0  0  0  0  0  0  0
   -2.2595    1.8149   -2.2707 C   0  0  0  0  0  0  0  0  0  0  0  0
   -1.3473    1.8752   -3.0737 O   0  0  0  0  0  0  0  0  0  0  0  0
   -3.4783    2.0721   -2.6933 N   0  0  0  0  0  0  0  0  0  0  0  0
   -3.5502    2.3071   -3.6680 H   0  0  0  0  0  0  0  0  0  0  0  0
   -4.2639    2.0343   -2.0760 H   0  0  0  0  0  0  0  0  0  0  0  0
   -0.0637    0.1284    1.8555 C   0  0  0  0  0  0  0  0  0  0  0  0
    1.0918   -0.0745    2.2236 O   0  0  0  0  0  0  0  0  0  0  0  0
   -1.0024    0.6217    2.6735 N   0  0  0  0  0  0  0  0  0  0  0  0
   -1.9213    0.7848    2.2938 H   0  0  0  0  0  0  0  0  0  0  0  0
   -0.7639    0.9676    4.0741 C   0  0  0  0  0  0  0  0  0  0  0  0
    0.0520    1.6916    4.1400 H   0  0  0  0  0  0  0  0  0  0  0  0
   -1.6626    1.3984    4.5182 H   0  0  0  0  0  0  0  0  0  0  0  0
   -0.4775    0.0737    4.6309 H   0  0  0  0  0  0  0  0  0  0  0  0
  5  6  2  0  0  0  0
  5  7  1  0  0  0  0
  2  3  1  0  0  0  0
  2  4  1  0  0  0  0
  2  5  1  0  0  0  0
  1  2  1  0  0  0  0
 22 23  2  0  0  0  0
 22 24  1  0  0  0  0
 19 20  1  0  0  0  0
 19 21  1  0  0  0  0
 17 18  2  0  0  0  0
 17 19  1  0  0  0  0
 14 15  1  0  0  0  0
 14 16  1  0  0  0  0
 14 17  1  0  0  0  0
 11 12  1  0  0  0  0
 11 13  1  0  0  0  0
 11 14  1  0  0  0  0
  9 10  1  0  0  0  0
  9 11  1  0  0  0  0
  9 22  1  0  0  0  0
  7  8  1  0  0  0  0
  7  9  1  0  0  0  0
 26 27  1  0  0  0  0
 26 28  1  0  0  0  0
 26 29  1  0  0  0  0
 24 25  1  0  0  0  0
 24 26  1  0  0  0  0
M  END
$$$$
default_name
  -OEChem-02102213163D

 29 28  0     1  0  0  0  0  0999 V2000
   -3.3998   -3.6239    1.3678 H   0  0  0  0  0  0  0  0  0  0  0  0
   -3.3608   -2.6749    0.8348 C   0  0  0  0  0  0  0  0  0  0  0  0
   -4.0988   -1.9909    1.2498 H   0  0  0  0  0  0  0  0  0  0  0  0
   -3.5618   -2.8419   -0.2222 H   0  0  0  0  0  0  0  0  0  0  0  0
   -1.9818   -2.0809    0.9918 C   0  0  0  0  0  0  0  0  0  0  0  0
   -1.1288   -2.6669    1.6468 O   0  0  0  0  0  0  0  0  0  0  0  0
   -1.7648   -0.9089    0.3998 N   0  0  0  0  0  0  0  0  0  0  0  0
   -2.5238   -0.4719   -0.1032 H   0  0  0  0  0  0  0  0  0  0  0  0
   -0.4848   -0.1959    0.4138 C   0  0  1  0  0  0  0  0  0  0  0  0
    0.2783   -0.8411   -0.0248 H   0  0  0  0  0  0  0  0  0  0  0  0
   -0.6101    1.0666   -0.4611 C   0  0  0  0  0  0  0  0  0  0  0  0
   -0.1513    1.9013    0.0729 H   0  0  0  0  0  0  0  0  0  0  0  0
   -0.0598    0.9124   -1.3904 H   0  0  0  0  0  0  0  0  0  0  0  0
   -2.0619    1.4472   -0.8002 C   0  0  0  0  0  0  0  0  0  0  0  0
   -2.7457    0.7378   -0.3345 H   0  0  0  0  0  0  0  0  0  0  0  0
   -2.2687    2.4414   -0.4041 H   0  0  0  0  0  0  0  0  0  0  0  0
   -2.3452    1.4596   -2.3022 C   0  0  0  0  0  0  0  0  0  0  0  0
   -1.4906    1.2641   -3.1460 O   0  0  0  0  0  0  0  0  0  0  0  0
   -3.5769    1.6854   -2.7050 N   0  0  0  0  0  0  0  0  0  0  0  0
   -3.7063    1.6813   -3.7019 H   0  0  0  0  0  0  0  0  0  0  0  0
   -4.3176    1.8494   -2.0537 H   0  0  0  0  0  0  0  0  0  0  0  0
   -0.0637    0.1284    1.8555 C   0  0  0  0  0  0  0  0  0  0  0  0
    1.0918   -0.0745    2.2236 O   0  0  0  0  0  0  0  0  0  0  0  0
   -1.0024    0.6217    2.6735 N   0  0  0  0  0  0  0  0  0  0  0  0
   -1.9213    0.7848    2.2938 H   0  0  0  0  0  0  0  0  0  0  0  0
   -0.7639    0.9676    4.0741 C   0  0  0  0  0  0  0  0  0  0  0  0
    0.0520    1.6916    4.1400 H   0  0  0  0  0  0  0  0  0  0  0  0
   -1.6626    1.3984    4.5182 H   0  0  0  0  0  0  0  0  0  0  0  0
   -0.4775    0.0737    4.6309 H   0  0  0  0  0  0  0  0  0  0  0  0
  5  6  2  0  0  0  0
  5  7  1  0  0  0  0
  2  3  1  0  0  0  0
  2  4  1  0  0  0  0
  2  5  1  0  0  0  0
  1  2  1  0  0  0  0
 22 23  2  0  0  0  0
 22 24  1  0  0  0  0
 19 20  1  0  0  0  0
 19 21  1  0  0  0  0
 17 18  2  0  0  0  0
 17 19  1  0  0  0  0
 14 15  1  0  0  0  0
 14 16  1  0  0  0  0
 14 17  1  0  0  0  0
 11 12  1  0  0  0  0
 11 13  1  0  0  0  0
 11 14  1  0  0  0  0
  9 10  1  0  0  0  0
  9 11  1  0  0  0  0
  9 22  1  0  0  0  0
  7  8  1  0  0  0  0
  7  9  1  0  0  0  0
 26 27  1  0  0  0  0
 26 28  1  0  0  0  0
 26 29  1  0  0  0  0
 24 25  1  0  0  0  0
 24 26  1  0  0  0  0
M  END
$$$$
default_name
  -OEChem-02102213163D

 29 28  0     1  0  0  0  0  0999 V2000
   -3.3998   -3.6239    1.3678 H   0  0  0  0  0  0  0  0  0  0  0  0
   -3.3608   -2.6749    0.8348 C   0  0  0  0  0  0  0  0  0  0  0  0
   -4.0988   -1.9909    1.2498 H   0  0  0  0  0  0  0  0  0  0  0  0
   -3.5618   -2.8419   -0.2222 H   0  0  0  0  0  0  0  0  0  0  0  0
   -1.9818   -2.0809    0.9918 C   0  0  0  0  0  0  0  0  0  0  0  0
   -1.1288   -2.6669    1.6468 O   0  0  0  0  0  0  0  0  0  0  0  0
   -1.7648   -0.9089    0.3998 N   0  0  0  0  0  0  0  0  0  0  0  0
   -2.5238   -0.4719   -0.1032 H   0  0  0  0  0  0  0  0  0  0  0  0
   -0.4848   -0.1959    0.4138 C   0  0  1  0  0  0  0  0  0  0  0  0
    0.2783   -0.8411   -0.0248 H   0  0  0  0  0  0  0  0  0  0  0  0
   -0.6101    1.0666   -0.4611 C   0  0  0  0  0  0  0  0  0  0  0  0
   -0.1513    1.9013    0.0729 H   0  0  0  0  0  0  0  0  0  0  0  0
   -0.0598    0.9124   -1.3904 H   0  0  0  0  0  0  0  0  0  0  0  0
   -2.0619    1.4472   -0.8002 C   0  0  0  0  0  0  0  0  0  0  0  0
   -2.7448    0.9178   -0.1361 H   0  0  0  0  0  0  0  0  0  0  0  0
   -2.1909    2.5190   -0.6498 H   0  0  0  0  0  0  0  0  0  0  0  0
   -2.4504    1.1136   -2.2404 C   0  0  0  0  0  0  0  0  0  0  0  0
   -1.6686    0.6643   -3.0574 O   0  0  0  0  0  0  0  0  0  0  0  0
   -3.6950    1.3146   -2.6156 N   0  0  0  0  0  0  0  0  0  0  0  0
   -3.8950    1.0775   -3.5718 H   0  0  0  0  0  0  0  0  0  0  0  0
   -4.3786    1.6793   -1.9836 H   0  0  0  0  0  0  0  0  0  0  0  0
   -0.0637    0.1284    1.8555 C   0  0  0  0  0  0  0  0  0  0  0  0
    1.0918   -0.0745    2.2236 O   0  0  0  0  0  0  0  0  0  0  0  0
   -1.0024    0.6217    2.6735 N   0  0  0  0  0  0  0  0  0  0  0  0
   -1.9213    0.7848    2.2938 H   0  0  0  0  0  0  0  0  0  0  0  0
   -0.7639    0.9676    4.0741 C   0  0  0  0  0  0  0  0  0  0  0  0
    0.0520    1.6916    4.1400 H   0  0  0  0  0  0  0  0  0  0  0  0
   -1.6626    1.3984    4.5182 H   0  0  0  0  0  0  0  0  0  0  0  0
   -0.4775    0.0737    4.6309 H   0  0  0  0  0  0  0  0  0  0  0  0
  5  6  2  0  0  0  0
  5  7  1  0  0  0  0
  2  3  1  0  0  0  0
  2  4  1  0  0  0  0
  2  5  1  0  0  0  0
  1  2  1  0  0  0  0
 22 23  2  0  0  0  0
 22 24  1  0  0  0  0
 19 20  1  0  0  0  0
 19 21  1  0  0  0  0
 17 18  2  0  0  0  0
 17 19  1  0  0  0  0
 14 15  1  0  0  0  0
 14 16  1  0  0  0  0
 14 17  1  0  0  0  0
 11 12  1  0  0  0  0
 11 13  1  0  0  0  0
 11 14  1  0  0  0  0
  9 10  1  0  0  0  0
  9 11  1  0  0  0  0
  9 22  1  0  0  0  0
  7  8  1  0  0  0  0
  7  9  1  0  0  0  0
 26 27  1  0  0  0  0
 26 28  1  0  0  0  0
 26 29  1  0  0  0  0
 24 25  1  0  0  0  0
 24 26  1  0  0  0  0
M  END
$$$$
default_name
  -OEChem-02102213163D

 29 28  0     1  0  0  0  0  0999 V2000
   -3.3998   -3.6239    1.3678 H   0  0  0  0  0  0  0  0  0  0  0  0
   -3.3608   -2.6749    0.8348 C   0  0  0  0  0  0  0  0  0  0  0  0
   -4.0988   -1.9909    1.2498 H   0  0  0  0  0  0  0  0  0  0  0  0
   -3.5618   -2.8419   -0.2222 H   0  0  0  0  0  0  0  0  0  0  0  0
   -1.9818   -2.0809    0.9918 C   0  0  0  0  0  0  0  0  0  0  0  0
   -1.1288   -2.6669    1.6468 O   0  0  0  0  0  0  0  0  0  0  0  0
   -1.7648   -0.9089    0.3998 N   0  0  0  0  0  0  0  0  0  0  0  0
   -2.5238   -0.4719   -0.1032 H   0  0  0  0  0  0  0  0  0  0  0  0
   -0.4848   -0.1959    0.4138 C   0  0  1  0  0  0  0  0  0  0  0  0
    0.2783   -0.8411   -0.0248 H   0  0  0  0  0  0  0  0  0  0  0  0
   -0.6101    1.0666   -0.4611 C   0  0  0  0  0  0  0  0  0  0  0  0
   -0.1513    1.9013    0.0729 H   0  0  0  0  0  0  0  0  0  0  0  0
   -0.0598    0.9124   -1.3904 H   0  0  0  0  0  0  0  0  0  0  0  0
   -2.0619    1.4472   -0.8002 C   0  0  0  0  0  0  0  0  0  0  0  0
   -2.7210    1.1401    0.0115 H   0  0  0  0  0  0  0  0  0  0  0  0
   -2.1272    2.5296   -0.9111 H   0  0  0  0  0  0  0  0  0  0  0  0
   -2.5677    0.8005   -2.0895 C   0  0  0  0  0  0  0  0  0  0  0  0
   -1.8690    0.1168   -2.8140 O   0  0  0  0  0  0  0  0  0  0  0  0
   -3.8245    0.9850   -2.4311 N   0  0  0  0  0  0  0  0  0  0  0  0
   -4.1034    0.5368   -3.2865 H   0  0  0  0  0  0  0  0  0  0  0  0
   -4.4427    1.5357   -1.8705 H   0  0  0  0  0  0  0  0  0  0  0  0
   -0.0637    0.1284    1.8555 C   0  0  0  0  0  0  0  0  0  0  0  0
    1.0918   -0.0745    2.2236 O   0  0  0  0  0  0  0  0  0  0  0  0
   -1.0024    0.6217    2.6735 N   0  0  0  0  0  0  0  0  0  0  0  0
   -1.9213    0.7848    2.2938 H   0  0  0  0  0  0  0  0  0  0  0  0
   -0.7639    0.9676    4.0741 C   0  0  0  0  0  0  0  0  0  0  0  0
    0.0520    1.6916    4.1400 H   0  0  0  0  0  0  0  0  0  0  0  0
   -1.6626    1.3984    4.5182 H   0  0  0  0  0  0  0  0  0  0  0  0
   -0.4775    0.0737    4.6309 H   0  0  0  0  0  0  0  0  0  0  0  0
  5  6  2  0  0  0  0
  5  7  1  0  0  0  0
  2  3  1  0  0  0  0
  2  4  1  0  0  0  0
  2  5  1  0  0  0  0
  1  2  1  0  0  0  0
 22 23  2  0  0  0  0
 22 24  1  0  0  0  0
 19 20  1  0  0  0  0
 19 21  1  0  0  0  0
 17 18  2  0  0  0  0
 17 19  1  0  0  0  0
 14 15  1  0  0  0  0
 14 16  1  0  0  0  0
 14 17  1  0  0  0  0
 11 12  1  0  0  0  0
 11 13  1  0  0  0  0
 11 14  1  0  0  0  0
  9 10  1  0  0  0  0
  9 11  1  0  0  0  0
  9 22  1  0  0  0  0
  7  8  1  0  0  0  0
  7  9  1  0  0  0  0
 26 27  1  0  0  0  0
 26 28  1  0  0  0  0
 26 29  1  0  0  0  0
 24 25  1  0  0  0  0
 24 26  1  0  0  0  0
M  END
$$$$
default_name
  -OEChem-02102213163D

 29 28  0     1  0  0  0  0  0999 V2000
   -3.3998   -3.6239    1.3678 H   0  0  0  0  0  0  0  0  0  0  0  0
   -3.3608   -2.6749    0.8348 C   0  0  0  0  0  0  0  0  0  0  0  0
   -4.0988   -1.9909    1.2498 H   0  0  0  0  0  0  0  0  0  0  0  0
   -3.5618   -2.8419   -0.2222 H   0  0  0  0  0  0  0  0  0  0  0  0
   -1.9818   -2.0809    0.9918 C   0  0  0  0  0  0  0  0  0  0  0  0
   -1.1288   -2.6669    1.6468 O   0  0  0  0  0  0  0  0  0  0  0  0
   -1.7648   -0.9089    0.3998 N   0  0  0  0  0  0  0  0  0  0  0  0
   -2.5238   -0.4719   -0.1032 H   0  0  0  0  0  0  0  0  0  0  0  0
   -0.4848   -0.1959    0.4138 C   0  0  1  0  0  0  0  0  0  0  0  0
    0.2783   -0.8411   -0.0248 H   0  0  0  0  0  0  0  0  0  0  0  0
   -0.6101    1.0666   -0.4611 C   0  0  0  0  0  0  0  0  0  0  0  0
   -0.1513    1.9013    0.0729 H   0  0  0  0  0  0  0  0  0  0  0  0
   -0.0598    0.9124   -1.3904 H   0  0  0  0  0  0  0  0  0  0  0  0
   -2.0619    1.4472   -0.8002 C   0  0  0  0  0  0  0  0  0  0  0  0
   -2.6759    1.3894    0.0983 H   0  0  0  0  0  0  0  0  0  0  0  0
   -2.0817    2.4723   -1.1701 H   0  0  0  0  0  0  0  0  0  0  0  0
   -2.6893    0.5416   -1.8598 C   0  0  0  0  0  0  0  0  0  0  0  0
   -2.0782   -0.3412   -2.4323 O   0  0  0  0  0  0  0  0  0  0  0  0
   -3.9566    0.7191   -2.1641 N   0  0  0  0  0  0  0  0  0  0  0  0
   -4.3173    0.0960   -2.8657 H   0  0  0  0  0  0  0  0  0  0  0  0
   -4.5056    1.4282   -1.7220 H   0  0  0  0  0  0  0  0  0  0  0  0
   -0.0637    0.1284    1.8555 C   0  0  0  0  0  0  0  0  0  0  0  0
    1.0918   -0.0745    2.2236 O   0  0  0  0  0  0  0  0  0  0  0  0
   -1.0024    0.6217    2.6735 N   0  0  0  0  0  0  0  0  0  0  0  0
   -1.9213    0.7848    2.2938 H   0  0  0  0  0  0  0  0  0  0  0  0
   -0.7639    0.9676    4.0741 C   0  0  0  0  0  0  0  0  0  0  0  0
    0.0520    1.6916    4.1400 H   0  0  0  0  0  0  0  0  0  0  0  0
   -1.6626    1.3984    4.5182 H   0  0  0  0  0  0  0  0  0  0  0  0
   -0.4775    0.0737    4.6309 H   0  0  0  0  0  0  0  0  0  0  0  0
  5  6  2  0  0  0  0
  5  7  1  0  0  0  0
  2  3  1  0  0  0  0
  2  4  1  0  0  0  0
  2  5  1  0  0  0  0
  1  2  1  0  0  0  0
 22 23  2  0  0  0  0
 22 24  1  0  0  0  0
 19 20  1  0  0  0  0
 19 21  1  0  0  0  0
 17 18  2  0  0  0  0
 17 19  1  0  0  0  0
 14 15  1  0  0  0  0
 14 16  1  0  0  0  0
 14 17  1  0  0  0  0
 11 12  1  0  0  0  0
 11 13  1  0  0  0  0
 11 14  1  0  0  0  0
  9 10  1  0  0  0  0
  9 11  1  0  0  0  0
  9 22  1  0  0  0  0
  7  8  1  0  0  0  0
  7  9  1  0  0  0  0
 26 27  1  0  0  0  0
 26 28  1  0  0  0  0
 26 29  1  0  0  0  0
 24 25  1  0  0  0  0
 24 26  1  0  0  0  0
M  END
$$$$
default_name
  -OEChem-02102213163D

 29 28  0     1  0  0  0  0  0999 V2000
   -3.3998   -3.6239    1.3678 H   0  0  0  0  0  0  0  0  0  0  0  0
   -3.3608   -2.6749    0.8348 C   0  0  0  0  0  0  0  0  0  0  0  0
   -4.0988   -1.9909    1.2498 H   0  0  0  0  0  0  0  0  0  0  0  0
   -3.5618   -2.8419   -0.2222 H   0  0  0  0  0  0  0  0  0  0  0  0
   -1.9818   -2.0809    0.9918 C   0  0  0  0  0  0  0  0  0  0  0  0
   -1.1288   -2.6669    1.6468 O   0  0  0  0  0  0  0  0  0  0  0  0
   -1.7648   -0.9089    0.3998 N   0  0  0  0  0  0  0  0  0  0  0  0
   -2.5238   -0.4719   -0.1032 H   0  0  0  0  0  0  0  0  0  0  0  0
   -0.4848   -0.1959    0.4138 C   0  0  1  0  0  0  0  0  0  0  0  0
    0.2783   -0.8411   -0.0248 H   0  0  0  0  0  0  0  0  0  0  0  0
   -0.6101    1.0666   -0.4611 C   0  0  0  0  0  0  0  0  0  0  0  0
   -0.1513    1.9013    0.0729 H   0  0  0  0  0  0  0  0  0  0  0  0
   -0.0598    0.9124   -1.3904 H   0  0  0  0  0  0  0  0  0  0  0  0
   -2.0619    1.4472   -0.8002 C   0  0  0  0  0  0  0  0  0  0  0  0
   -2.6126    1.6489    0.1184 H   0  0  0  0  0  0  0  0  0  0  0  0
   -2.0576    2.3512   -1.4092 H   0  0  0  0  0  0  0  0  0  0  0  0
   -2.8067    0.3545   -1.5669 C   0  0  0  0  0  0  0  0  0  0  0  0
   -2.2820   -0.6785   -1.9384 O   0  0  0  0  0  0  0  0  0  0  0  0
   -4.0822    0.5349   -1.8328 N   0  0  0  0  0  0  0  0  0  0  0  0
   -4.5220   -0.2148   -2.3378 H   0  0  0  0  0  0  0  0  0  0  0  0
   -4.5629    1.3642   -1.5482 H   0  0  0  0  0  0  0  0  0  0  0  0
   -0.0637    0.1284    1.8555 C   0  0  0  0  0  0  0  0  0  0  0  0
    1.0918   -0.0745    2.2236 O   0  0  0  0  0  0  0  0  0  0  0  0
   -1.0024    0.6217    2.6735 N   0  0  0  0  0  0  0  0  0  0  0  0
   -1.9213    0.7848    2.2938 H   0  0  0  0  0  0  0  0  0  0  0  0
   -0.7639    0.9676    4.0741 C   0  0  0  0  0  0  0  0  0  0  0  0
    0.0520    1.6916    4.1400 H   0  0  0  0  0  0  0  0  0  0  0  0
   -1.6626    1.3984    4.5182 H   0  0  0  0  0  0  0  0  0  0  0  0
   -0.4775    0.0737    4.6309 H   0  0  0  0  0  0  0  0  0  0  0  0
  5  6  2  0  0  0  0
  5  7  1  0  0  0  0
  2  3  1  0  0  0  0
  2  4  1  0  0  0  0
  2  5  1  0  0  0  0
  1  2  1  0  0  0  0
 22 23  2  0  0  0  0
 22 24  1  0  0  0  0
 19 20  1  0  0  0  0
 19 21  1  0  0  0  0
 17 18  2  0  0  0  0
 17 19  1  0  0  0  0
 14 15  1  0  0  0  0
 14 16  1  0  0  0  0
 14 17  1  0  0  0  0
 11 12  1  0  0  0  0
 11 13  1  0  0  0  0
 11 14  1  0  0  0  0
  9 10  1  0  0  0  0
  9 11  1  0  0  0  0
  9 22  1  0  0  0  0
  7  8  1  0  0  0  0
  7  9  1  0  0  0  0
 26 27  1  0  0  0  0
 26 28  1  0  0  0  0
 26 29  1  0  0  0  0
 24 25  1  0  0  0  0
 24 26  1  0  0  0  0
M  END
$$$$
default_name
  -OEChem-02102213163D

 29 28  0     1  0  0  0  0  0999 V2000
   -3.3998   -3.6239    1.3678 H   0  0  0  0  0  0  0  0  0  0  0  0
   -3.3608   -2.6749    0.8348 C   0  0  0  0  0  0  0  0  0  0  0  0
   -4.0988   -1.9909    1.2498 H   0  0  0  0  0  0  0  0  0  0  0  0
   -3.5618   -2.8419   -0.2222 H   0  0  0  0  0  0  0  0  0  0  0  0
   -1.9818   -2.0809    0.9918 C   0  0  0  0  0  0  0  0  0  0  0  0
   -1.1288   -2.6669    1.6468 O   0  0  0  0  0  0  0  0  0  0  0  0
   -1.7648   -0.9089    0.3998 N   0  0  0  0  0  0  0  0  0  0  0  0
   -2.5238   -0.4719   -0.1032 H   0  0  0  0  0  0  0  0  0  0  0  0
   -0.4848   -0.1959    0.4138 C   0  0  1  0  0  0  0  0  0  0  0  0
    0.2783   -0.8411   -0.0248 H   0  0  0  0  0  0  0  0  0  0  0  0
   -0.6101    1.0666   -0.4611 C   0  0  0  0  0  0  0  0  0  0  0  0
   -0.1513    1.9013    0.0729 H   0  0  0  0  0  0  0  0  0  0  0  0
   -0.0598    0.9124   -1.3904 H   0  0  0  0  0  0  0  0  0  0  0  0
   -2.0619    1.4472   -0.8002 C   0  0  0  0  0  0  0  0  0  0  0  0
   -2.5353    1.9009    0.0703 H   0  0  0  0  0  0  0  0  0  0  0  0
   -2.0565    2.1744   -1.6121 H   0  0  0  0  0  0  0  0  0  0  0  0
   -2.9121    0.2521   -1.2307 C   0  0  0  0  0  0  0  0  0  0  0  0
   -2.4664   -0.8721   -1.3659 O   0  0  0  0  0  0  0  0  0  0  0  0
   -4.1929    0.4451   -1.4598 N   0  0  0  0  0  0  0  0  0  0  0  0
   -4.7037   -0.3744   -1.7389 H   0  0  0  0  0  0  0  0  0  0  0  0
   -4.6108    1.3481   -1.3611 H   0  0  0  0  0  0  0  0  0  0  0  0
   -0.0637    0.1284    1.8555 C   0  0  0  0  0  0  0  0  0  0  0  0
    1.0918   -0.0745    2.2236 O   0  0  0  0  0  0  0  0  0  0  0  0
   -1.0024    0.6217    2.6735 N   0  0  0  0  0  0  0  0  0  0  0  0
   -1.9213    0.7848    2.2938 H   0  0  0  0  0  0  0  0  0  0  0  0
   -0.7639    0.9676    4.0741 C   0  0  0  0  0  0  0  0  0  0  0  0
    0.0520    1.6916    4.1400 H   0  0  0  0  0  0  0  0  0  0  0  0
   -1.6626    1.3984    4.5182 H   0  0  0  0  0  0  0  0  0  0  0  0
   -0.4775    0.0737    4.6309 H   0  0  0  0  0  0  0  0  0  0  0  0
  5  6  2  0  0  0  0
  5  7  1  0  0  0  0
  2  3  1  0  0  0  0
  2  4  1  0  0  0  0
  2  5  1  0  0  0  0
  1  2  1  0  0  0  0
 22 23  2  0  0  0  0
 22 24  1  0  0  0  0
 19 20  1  0  0  0  0
 19 21  1  0  0  0  0
 17 18  2  0  0  0  0
 17 19  1  0  0  0  0
 14 15  1  0  0  0  0
 14 16  1  0  0  0  0
 14 17  1  0  0  0  0
 11 12  1  0  0  0  0
 11 13  1  0  0  0  0
 11 14  1  0  0  0  0
  9 10  1  0  0  0  0
  9 11  1  0  0  0  0
  9 22  1  0  0  0  0
  7  8  1  0  0  0  0
  7  9  1  0  0  0  0
 26 27  1  0  0  0  0
 26 28  1  0  0  0  0
 26 29  1  0  0  0  0
 24 25  1  0  0  0  0
 24 26  1  0  0  0  0
M  END
$$$$
default_name
  -OEChem-02102213163D

 29 28  0     1  0  0  0  0  0999 V2000
   -3.3998   -3.6239    1.3678 H   0  0  0  0  0  0  0  0  0  0  0  0
   -3.3608   -2.6749    0.8348 C   0  0  0  0  0  0  0  0  0  0  0  0
   -4.0988   -1.9909    1.2498 H   0  0  0  0  0  0  0  0  0  0  0  0
   -3.5618   -2.8419   -0.2222 H   0  0  0  0  0  0  0  0  0  0  0  0
   -1.9818   -2.0809    0.9918 C   0  0  0  0  0  0  0  0  0  0  0  0
   -1.1288   -2.6669    1.6468 O   0  0  0  0  0  0  0  0  0  0  0  0
   -1.7648   -0.9089    0.3998 N   0  0  0  0  0  0  0  0  0  0  0  0
   -2.5238   -0.4719   -0.1032 H   0  0  0  0  0  0  0  0  0  0  0  0
   -0.4848   -0.1959    0.4138 C   0  0  1  0  0  0  0  0  0  0  0  0
    0.2783   -0.8411   -0.0248 H   0  0  0  0  0  0  0  0  0  0  0  0
   -0.6101    1.0666   -0.4611 C   0  0  0  0  0  0  0  0  0  0  0  0
   -0.1513    1.9013    0.0729 H   0  0  0  0  0  0  0  0  0  0  0  0
   -0.0598    0.9124   -1.3904 H   0  0  0  0  0  0  0  0  0  0  0  0
   -2.0619    1.4472   -0.8002 C   0  0  0  0  0  0  0  0  0  0  0  0
   -2.4494    2.1281   -0.0426 H   0  0  0  0  0  0  0  0  0  0  0  0
   -2.0786    1.9540   -1.7650 H   0  0  0  0  0  0  0  0  0  0  0  0
   -2.9982    0.2412   -0.8743 C   0  0  0  0  0  0  0  0  0  0  0  0
   -2.6190   -0.9087   -0.7538 O   0  0  0  0  0  0  0  0  0  0  0  0
   -4.2810    0.4558   -1.0705 N   0  0  0  0  0  0  0  0  0  0  0  0
   -4.8500   -0.3719   -1.1098 H   0  0  0  0  0  0  0  0  0  0  0  0
   -4.6460    1.3809   -1.1734 H   0  0  0  0  0  0  0  0  0  0  0  0
   -0.0637    0.1284    1.8555 C   0  0  0  0  0  0  0  0  0  0  0  0
    1.0918   -0.0745    2.2236 O   0  0  0  0  0  0  0  0  0  0  0  0
   -1.0024    0.6217    2.6735 N   0  0  0  0  0  0  0  0  0  0  0  0
   -1.9213    0.7848    2.2938 H   0  0  0  0  0  0  0  0  0  0  0  0
   -0.7639    0.9676    4.0741 C   0  0  0  0  0  0  0  0  0  0  0  0
    0.0520    1.6916    4.1400 H   0  0  0  0  0  0  0  0  0  0  0  0
   -1.6626    1.3984    4.5182 H   0  0  0  0  0  0  0  0  0  0  0  0
   -0.4775    0.0737    4.6309 H   0  0  0  0  0  0  0  0  0  0  0  0
  5  6  2  0  0  0  0
  5  7  1  0  0  0  0
  2  3  1  0  0  0  0
  2  4  1  0  0  0  0
  2  5  1  0  0  0  0
  1  2  1  0  0  0  0
 22 23  2  0  0  0  0
 22 24  1  0  0  0  0
 19 20  1  0  0  0  0
 19 21  1  0  0  0  0
 17 18  2  0  0  0  0
 17 19  1  0  0  0  0
 14 15  1  0  0  0  0
 14 16  1  0  0  0  0
 14 17  1  0  0  0  0
 11 12  1  0  0  0  0
 11 13  1  0  0  0  0
 11 14  1  0  0  0  0
  9 10  1  0  0  0  0
  9 11  1  0  0  0  0
  9 22  1  0  0  0  0
  7  8  1  0  0  0  0
  7  9  1  0  0  0  0
 26 27  1  0  0  0  0
 26 28  1  0  0  0  0
 26 29  1  0  0  0  0
 24 25  1  0  0  0  0
 24 26  1  0  0  0  0
M  END
$$$$
default_name
  -OEChem-02102213163D

 29 28  0     1  0  0  0  0  0999 V2000
   -3.3998   -3.6239    1.3678 H   0  0  0  0  0  0  0  0  0  0  0  0
   -3.3608   -2.6749    0.8348 C   0  0  0  0  0  0  0  0  0  0  0  0
   -4.0988   -1.9909    1.2498 H   0  0  0  0  0  0  0  0  0  0  0  0
   -3.5618   -2.8419   -0.2222 H   0  0  0  0  0  0  0  0  0  0  0  0
   -1.9818   -2.0809    0.9918 C   0  0  0  0  0  0  0  0  0  0  0  0
   -1.1288   -2.6669    1.6468 O   0  0  0  0  0  0  0  0  0  0  0  0
   -1.7648   -0.9089    0.3998 N   0  0  0  0  0  0  0  0  0  0  0  0
   -2.5238   -0.4719   -0.1032 H   0  0  0  0  0  0  0  0  0  0  0  0
   -0.4848   -0.1959    0.4138 C   0  0  1  0  0  0  0  0  0  0  0  0
    0.2783   -0.8411   -0.0248 H   0  0  0  0  0  0  0  0  0  0  0  0
   -0.6101    1.0666   -0.4611 C   0  0  0  0  0  0  0  0  0  0  0  0
   -0.1513    1.9013    0.0729 H   0  0  0  0  0  0  0  0  0  0  0  0
   -0.0598    0.9124   -1.3904 H   0  0  0  0  0  0  0  0  0  0  0  0
   -2.0619    1.4472   -0.8002 C   0  0  0  0  0  0  0  0  0  0  0  0
   -2.3606    2.3151   -0.2126 H   0  0  0  0  0  0  0  0  0  0  0  0
   -2.1223    1.7050   -1.8575 H   0  0  0  0  0  0  0  0  0  0  0  0
   -3.0591    0.3227   -0.5218 C   0  0  0  0  0  0  0  0  0  0  0  0
   -2.7292   -0.7859   -0.1439 O   0  0  0  0  0  0  0  0  0  0  0  0
   -4.3406    0.5662   -0.6915 N   0  0  0  0  0  0  0  0  0  0  0  0
   -4.9509   -0.2076   -0.4934 H   0  0  0  0  0  0  0  0  0  0  0  0
   -4.6662    1.4605   -0.9979 H   0  0  0  0  0  0  0  0  0  0  0  0
   -0.0637    0.1284    1.8555 C   0  0  0  0  0  0  0  0  0  0  0  0
    1.0918   -0.0745    2.2236 O   0  0  0  0  0  0  0  0  0  0  0  0
   -1.0024    0.6217    2.6735 N   0  0  0  0  0  0  0  0  0  0  0  0
   -1.9213    0.7848    2.2938 H   0  0  0  0  0  0  0  0  0  0  0  0
   -0.7639    0.9676    4.0741 C   0  0  0  0  0  0  0  0  0  0  0  0
    0.0520    1.6916    4.1400 H   0  0  0  0  0  0  0  0  0  0  0  0
   -1.6626    1.3984    4.5182 H   0  0  0  0  0  0  0  0  0  0  0  0
   -0.4775    0.0737    4.6309 H   0  0  0  0  0  0  0  0  0  0  0  0
  5  6  2  0  0  0  0
  5  7  1  0  0  0  0
  2  3  1  0  0  0  0
  2  4  1  0  0  0  0
  2  5  1  0  0  0  0
  1  2  1  0  0  0  0
 22 23  2  0  0  0  0
 22 24  1  0  0  0  0
 19 20  1  0  0  0  0
 19 21  1  0  0  0  0
 17 18  2  0  0  0  0
 17 19  1  0  0  0  0
 14 15  1  0  0  0  0
 14 16  1  0  0  0  0
 14 17  1  0  0  0  0
 11 12  1  0  0  0  0
 11 13  1  0  0  0  0
 11 14  1  0  0  0  0
  9 10  1  0  0  0  0
  9 11  1  0  0  0  0
  9 22  1  0  0  0  0
  7  8  1  0  0  0  0
  7  9  1  0  0  0  0
 26 27  1  0  0  0  0
 26 28  1  0  0  0  0
 26 29  1  0  0  0  0
 24 25  1  0  0  0  0
 24 26  1  0  0  0  0
M  END
$$$$
default_name
  -OEChem-02102213163D

 29 28  0     1  0  0  0  0  0999 V2000
   -3.3998   -3.6239    1.3678 H   0  0  0  0  0  0  0  0  0  0  0  0
   -3.3608   -2.6749    0.8348 C   0  0  0  0  0  0  0  0  0  0  0  0
   -4.0988   -1.9909    1.2498 H   0  0  0  0  0  0  0  0  0  0  0  0
   -3.5618   -2.8419   -0.2222 H   0  0  0  0  0  0  0  0  0  0  0  0
   -1.9818   -2.0809    0.9918 C   0  0  0  0  0  0  0  0  0  0  0  0
   -1.1288   -2.6669    1.6468 O   0  0  0  0  0  0  0  0  0  0  0  0
   -1.7648   -0.9089    0.3998 N   0  0  0  0  0  0  0  0  0  0  0  0
   -2.5238   -0.4719   -0.1032 H   0  0  0  0  0  0  0  0  0  0  0  0
   -0.4848   -0.1959    0.4138 C   0  0  1  0  0  0  0  0  0  0  0  0
    0.2783   -0.8411   -0.0248 H   0  0  0  0  0  0  0  0  0  0  0  0
   -0.6101    1.0666   -0.4611 C   0  0  0  0  0  0  0  0  0  0  0  0
   -0.1513    1.9013    0.0729 H   0  0  0  0  0  0  0  0  0  0  0  0
   -0.0598    0.9124   -1.3904 H   0  0  0  0  0  0  0  0  0  0  0  0
   -2.0619    1.4472   -0.8002 C   0  0  0  0  0  0  0  0  0  0  0  0
   -2.2752    2.4491   -0.4282 H   0  0  0  0  0  0  0  0  0  0  0  0
   -2.1846    1.4445   -1.8832 H   0  0  0  0  0  0  0  0  0  0  0  0
   -3.0908    0.4909   -0.1973 C   0  0  0  0  0  0  0  0  0  0  0  0
   -2.7897   -0.5121    0.4223 O   0  0  0  0  0  0  0  0  0  0  0  0
   -4.3676    0.7688   -0.3485 N   0  0  0  0  0  0  0  0  0  0  0  0
   -4.9995    0.1074    0.0683 H   0  0  0  0  0  0  0  0  0  0  0  0
   -4.6698    1.5814   -0.8464 H   0  0  0  0  0  0  0  0  0  0  0  0
   -0.0637    0.1284    1.8555 C   0  0  0  0  0  0  0  0  0  0  0  0
    1.0918   -0.0745    2.2236 O   0  0  0  0  0  0  0  0  0  0  0  0
   -1.0024    0.6217    2.6735 N   0  0  0  0  0  0  0  0  0  0  0  0
   -1.9213    0.7848    2.2938 H   0  0  0  0  0  0  0  0  0  0  0  0
   -0.7639    0.9676    4.0741 C   0  0  0  0  0  0  0  0  0  0  0  0
    0.0520    1.6916    4.1400 H   0  0  0  0  0  0  0  0  0  0  0  0
   -1.6626    1.3984    4.5182 H   0  0  0  0  0  0  0  0  0  0  0  0
   -0.4775    0.0737    4.6309 H   0  0  0  0  0  0  0  0  0  0  0  0
  5  6  2  0  0  0  0
  5  7  1  0  0  0  0
  2  3  1  0  0  0  0
  2  4  1  0  0  0  0
  2  5  1  0  0  0  0
  1  2  1  0  0  0  0
 22 23  2  0  0  0  0
 22 24  1  0  0  0  0
 19 20  1  0  0  0  0
 19 21  1  0  0  0  0
 17 18  2  0  0  0  0
 17 19  1  0  0  0  0
 14 15  1  0  0  0  0
 14 16  1  0  0  0  0
 14 17  1  0  0  0  0
 11 12  1  0  0  0  0
 11 13  1  0  0  0  0
 11 14  1  0  0  0  0
  9 10  1  0  0  0  0
  9 11  1  0  0  0  0
  9 22  1  0  0  0  0
  7  8  1  0  0  0  0
  7  9  1  0  0  0  0
 26 27  1  0  0  0  0
 26 28  1  0  0  0  0
 26 29  1  0  0  0  0
 24 25  1  0  0  0  0
 24 26  1  0  0  0  0
M  END
$$$$
default_name
  -OEChem-02102213163D

 29 28  0     1  0  0  0  0  0999 V2000
   -3.3998   -3.6239    1.3678 H   0  0  0  0  0  0  0  0  0  0  0  0
   -3.3608   -2.6749    0.8348 C   0  0  0  0  0  0  0  0  0  0  0  0
   -4.0988   -1.9909    1.2498 H   0  0  0  0  0  0  0  0  0  0  0  0
   -3.5618   -2.8419   -0.2222 H   0  0  0  0  0  0  0  0  0  0  0  0
   -1.9818   -2.0809    0.9918 C   0  0  0  0  0  0  0  0  0  0  0  0
   -1.1288   -2.6669    1.6468 O   0  0  0  0  0  0  0  0  0  0  0  0
   -1.7648   -0.9089    0.3998 N   0  0  0  0  0  0  0  0  0  0  0  0
   -2.5238   -0.4719   -0.1032 H   0  0  0  0  0  0  0  0  0  0  0  0
   -0.4848   -0.1959    0.4138 C   0  0  1  0  0  0  0  0  0  0  0  0
    0.2783   -0.8411   -0.0248 H   0  0  0  0  0  0  0  0  0  0  0  0
   -0.6101    1.0666   -0.4611 C   0  0  0  0  0  0  0  0  0  0  0  0
   -0.1513    1.9013    0.0729 H   0  0  0  0  0  0  0  0  0  0  0  0
   -0.0598    0.9124   -1.3904 H   0  0  0  0  0  0  0  0  0  0  0  0
   -2.0619    1.4472   -0.8002 C   0  0  0  0  0  0  0  0  0  0  0  0
   -2.1987    2.5211   -0.6746 H   0  0  0  0  0  0  0  0  0  0  0  0
   -2.2613    1.1901   -1.8404 H   0  0  0  0  0  0  0  0  0  0  0  0
   -3.0910    0.7345    0.0770 C   0  0  0  0  0  0  0  0  0  0  0  0
   -2.7962   -0.1058    0.9062 O   0  0  0  0  0  0  0  0  0  0  0  0
   -4.3601    1.0498   -0.0649 N   0  0  0  0  0  0  0  0  0  0  0  0
   -4.9925    0.5517    0.5371 H   0  0  0  0  0  0  0  0  0  0  0  0
   -4.6568    1.7354   -0.7295 H   0  0  0  0  0  0  0  0  0  0  0  0
   -0.0637    0.1284    1.8555 C   0  0  0  0  0  0  0  0  0  0  0  0
    1.0918   -0.0745    2.2236 O   0  0  0  0  0  0  0  0  0  0  0  0
   -1.0024    0.6217    2.6735 N   0  0  0  0  0  0  0  0  0  0  0  0
   -1.9213    0.7848    2.2938 H   0  0  0  0  0  0  0  0  0  0  0  0
   -0.7639    0.9676    4.0741 C   0  0  0  0  0  0  0  0  0  0  0  0
    0.0520    1.6916    4.1400 H   0  0  0  0  0  0  0  0  0  0  0  0
   -1.6626    1.3984    4.5182 H   0  0  0  0  0  0  0  0  0  0  0  0
   -0.4775    0.0737    4.6309 H   0  0  0  0  0  0  0  0  0  0  0  0
  5  6  2  0  0  0  0
  5  7  1  0  0  0  0
  2  3  1  0  0  0  0
  2  4  1  0  0  0  0
  2  5  1  0  0  0  0
  1  2  1  0  0  0  0
 22 23  2  0  0  0  0
 22 24  1  0  0  0  0
 19 20  1  0  0  0  0
 19 21  1  0  0  0  0
 17 18  2  0  0  0  0
 17 19  1  0  0  0  0
 14 15  1  0  0  0  0
 14 16  1  0  0  0  0
 14 17  1  0  0  0  0
 11 12  1  0  0  0  0
 11 13  1  0  0  0  0
 11 14  1  0  0  0  0
  9 10  1  0  0  0  0
  9 11  1  0  0  0  0
  9 22  1  0  0  0  0
  7  8  1  0  0  0  0
  7  9  1  0  0  0  0
 26 27  1  0  0  0  0
 26 28  1  0  0  0  0
 26 29  1  0  0  0  0
 24 25  1  0  0  0  0
 24 26  1  0  0  0  0
M  END
$$$$
default_name
  -OEChem-02102213163D

 29 28  0     1  0  0  0  0  0999 V2000
   -3.3998   -3.6239    1.3678 H   0  0  0  0  0  0  0  0  0  0  0  0
   -3.3608   -2.6749    0.8348 C   0  0  0  0  0  0  0  0  0  0  0  0
   -4.0988   -1.9909    1.2498 H   0  0  0  0  0  0  0  0  0  0  0  0
   -3.5618   -2.8419   -0.2222 H   0  0  0  0  0  0  0  0  0  0  0  0
   -1.9818   -2.0809    0.9918 C   0  0  0  0  0  0  0  0  0  0  0  0
   -1.1288   -2.6669    1.6468 O   0  0  0  0  0  0  0  0  0  0  0  0
   -1.7648   -0.9089    0.3998 N   0  0  0  0  0  0  0  0  0  0  0  0
   -2.5238   -0.4719   -0.1032 H   0  0  0  0  0  0  0  0  0  0  0  0
   -0.4848   -0.1959    0.4138 C   0  0  1  0  0  0  0  0  0  0  0  0
    0.2783   -0.8411   -0.0248 H   0  0  0  0  0  0  0  0  0  0  0  0
   -0.6101    1.0666   -0.4611 C   0  0  0  0  0  0  0  0  0  0  0  0
   -0.1513    1.9013    0.0729 H   0  0  0  0  0  0  0  0  0  0  0  0
   -0.0598    0.9124   -1.3904 H   0  0  0  0  0  0  0  0  0  0  0  0
   -2.0619    1.4472   -0.8002 C   0  0  0  0  0  0  0  0  0  0  0  0
   -2.1366    2.5261   -0.9351 H   0  0  0  0  0  0  0  0  0  0  0  0
   -2.3471    0.9592   -1.7320 H   0  0  0  0  0  0  0  0  0  0  0  0
   -3.0598    1.0367    0.2826 C   0  0  0  0  0  0  0  0  0  0  0  0
   -2.7483    0.4051    1.2749 O   0  0  0  0  0  0  0  0  0  0  0  0
   -4.3188    1.3901    0.1399 N   0  0  0  0  0  0  0  0  0  0  0  0
   -4.9304    1.0949    0.8810 H   0  0  0  0  0  0  0  0  0  0  0  0
   -4.6279    1.9120   -0.6549 H   0  0  0  0  0  0  0  0  0  0  0  0
   -0.0637    0.1284    1.8555 C   0  0  0  0  0  0  0  0  0  0  0  0
    1.0918   -0.0745    2.2236 O   0  0  0  0  0  0  0  0  0  0  0  0
   -1.0024    0.6217    2.6735 N   0  0  0  0  0  0  0  0  0  0  0  0
   -1.9213    0.7848    2.2938 H   0  0  0  0  0  0  0  0  0  0  0  0
   -0.7639    0.9676    4.0741 C   0  0  0  0  0  0  0  0  0  0  0  0
    0.0520    1.6916    4.1400 H   0  0  0  0  0  0  0  0  0  0  0  0
   -1.6626    1.3984    4.5182 H   0  0  0  0  0  0  0  0  0  0  0  0
   -0.4775    0.0737    4.6309 H   0  0  0  0  0  0  0  0  0  0  0  0
  5  6  2  0  0  0  0
  5  7  1  0  0  0  0
  2  3  1  0  0  0  0
  2  4  1  0  0  0  0
  2  5  1  0  0  0  0
  1  2  1  0  0  0  0
 22 23  2  0  0  0  0
 22 24  1  0  0  0  0
 19 20  1  0  0  0  0
 19 21  1  0  0  0  0
 17 18  2  0  0  0  0
 17 19  1  0  0  0  0
 14 15  1  0  0  0  0
 14 16  1  0  0  0  0
 14 17  1  0  0  0  0
 11 12  1  0  0  0  0
 11 13  1  0  0  0  0
 11 14  1  0  0  0  0
  9 10  1  0  0  0  0
  9 11  1  0  0  0  0
  9 22  1  0  0  0  0
  7  8  1  0  0  0  0
  7  9  1  0  0  0  0
 26 27  1  0  0  0  0
 26 28  1  0  0  0  0
 26 29  1  0  0  0  0
 24 25  1  0  0  0  0
 24 26  1  0  0  0  0
M  END
$$$$
default_name
  -OEChem-02102213163D

 29 28  0     1  0  0  0  0  0999 V2000
   -3.3998   -3.6239    1.3678 H   0  0  0  0  0  0  0  0  0  0  0  0
   -3.3608   -2.6749    0.8348 C   0  0  0  0  0  0  0  0  0  0  0  0
   -4.0988   -1.9909    1.2498 H   0  0  0  0  0  0  0  0  0  0  0  0
   -3.5618   -2.8419   -0.2222 H   0  0  0  0  0  0  0  0  0  0  0  0
   -1.9818   -2.0809    0.9918 C   0  0  0  0  0  0  0  0  0  0  0  0
   -1.1288   -2.6669    1.6468 O   0  0  0  0  0  0  0  0  0  0  0  0
   -1.7648   -0.9089    0.3998 N   0  0  0  0  0  0  0  0  0  0  0  0
   -2.5238   -0.4719   -0.1032 H   0  0  0  0  0  0  0  0  0  0  0  0
   -0.4848   -0.1959    0.4138 C   0  0  1  0  0  0  0  0  0  0  0  0
    0.2783   -0.8411   -0.0248 H   0  0  0  0  0  0  0  0  0  0  0  0
   -0.6101    1.0666   -0.4611 C   0  0  0  0  0  0  0  0  0  0  0  0
   -0.1513    1.9013    0.0729 H   0  0  0  0  0  0  0  0  0  0  0  0
   -0.0598    0.9124   -1.3904 H   0  0  0  0  0  0  0  0  0  0  0  0
   -2.0619    1.4472   -0.8002 C   0  0  0  0  0  0  0  0  0  0  0  0
   -2.0930    2.4637   -1.1920 H   0  0  0  0  0  0  0  0  0  0  0  0
   -2.4363    0.7675   -1.5655 H   0  0  0  0  0  0  0  0  0  0  0  0
   -2.9992    1.3771    0.4053 C   0  0  0  0  0  0  0  0  0  0  0  0
   -2.6494    0.9859    1.5031 O   0  0  0  0  0  0  0  0  0  0  0  0
   -4.2463    1.7664    0.2520 N   0  0  0  0  0  0  0  0  0  0  0  0
   -4.8174    1.7000    1.0765 H   0  0  0  0  0  0  0  0  0  0  0  0
   -4.5852    2.0990   -0.6279 H   0  0  0  0  0  0  0  0  0  0  0  0
   -0.0637    0.1284    1.8555 C   0  0  0  0  0  0  0  0  0  0  0  0
    1.0918   -0.0745    2.2236 O   0  0  0  0  0  0  0  0  0  0  0  0
   -1.0024    0.6217    2.6735 N   0  0  0  0  0  0  0  0  0  0  0  0
   -1.9213    0.7848    2.2938 H   0  0  0  0  0  0  0  0  0  0  0  0
   -0.7639    0.9676    4.0741 C   0  0  0  0  0  0  0  0  0  0  0  0
    0.0520    1.6916    4.1400 H   0  0  0  0  0  0  0  0  0  0  0  0
   -1.6626    1.3984    4.5182 H   0  0  0  0  0  0  0  0  0  0  0  0
   -0.4775    0.0737    4.6309 H   0  0  0  0  0  0  0  0  0  0  0  0
  5  6  2  0  0  0  0
  5  7  1  0  0  0  0
  2  3  1  0  0  0  0
  2  4  1  0  0  0  0
  2  5  1  0  0  0  0
  1  2  1  0  0  0  0
 22 23  2  0  0  0  0
 22 24  1  0  0  0  0
 19 20  1  0  0  0  0
 19 21  1  0  0  0  0
 17 18  2  0  0  0  0
 17 19  1  0  0  0  0
 14 15  1  0  0  0  0
 14 16  1  0  0  0  0
 14 17  1  0  0  0  0
 11 12  1  0  0  0  0
 11 13  1  0  0  0  0
 11 14  1  0  0  0  0
  9 10  1  0  0  0  0
  9 11  1  0  0  0  0
  9 22  1  0  0  0  0
  7  8  1  0  0  0  0
  7  9  1  0  0  0  0
 26 27  1  0  0  0  0
 26 28  1  0  0  0  0
 26 29  1  0  0  0  0
 24 25  1  0  0  0  0
 24 26  1  0  0  0  0
M  END
$$$$
default_name
  -OEChem-02102213163D

 29 28  0     1  0  0  0  0  0999 V2000
   -3.3998   -3.6239    1.3678 H   0  0  0  0  0  0  0  0  0  0  0  0
   -3.3608   -2.6749    0.8348 C   0  0  0  0  0  0  0  0  0  0  0  0
   -4.0988   -1.9909    1.2498 H   0  0  0  0  0  0  0  0  0  0  0  0
   -3.5618   -2.8419   -0.2222 H   0  0  0  0  0  0  0  0  0  0  0  0
   -1.9818   -2.0809    0.9918 C   0  0  0  0  0  0  0  0  0  0  0  0
   -1.1288   -2.6669    1.6468 O   0  0  0  0  0  0  0  0  0  0  0  0
   -1.7648   -0.9089    0.3998 N   0  0  0  0  0  0  0  0  0  0  0  0
   -2.5238   -0.4719   -0.1032 H   0  0  0  0  0  0  0  0  0  0  0  0
   -0.4848   -0.1959    0.4138 C   0  0  1  0  0  0  0  0  0  0  0  0
    0.2783   -0.8411   -0.0248 H   0  0  0  0  0  0  0  0  0  0  0  0
   -0.6101    1.0666   -0.4611 C   0  0  0  0  0  0  0  0  0  0  0  0
   -0.1513    1.9013    0.0729 H   0  0  0  0  0  0  0  0  0  0  0  0
   -0.0598    0.9124   -1.3904 H   0  0  0  0  0  0  0  0  0  0  0  0
   -2.0619    1.4472   -0.8002 C   0  0  0  0  0  0  0  0  0  0  0  0
   -2.0708    2.3382   -1.4276 H   0  0  0  0  0  0  0  0  0  0  0  0
   -2.5227    0.6281   -1.3521 H   0  0  0  0  0  0  0  0  0  0  0  0
   -2.9134    1.7324    0.4369 C   0  0  0  0  0  0  0  0  0  0  0  0
   -2.5060    1.5970    1.5754 O   0  0  0  0  0  0  0  0  0  0  0  0
   -4.1476    2.1531    0.2638 N   0  0  0  0  0  0  0  0  0  0  0  0
   -4.6613    2.3258    1.1104 H   0  0  0  0  0  0  0  0  0  0  0  0
   -4.5315    2.2839   -0.6502 H   0  0  0  0  0  0  0  0  0  0  0  0
   -0.0637    0.1284    1.8555 C   0  0  0  0  0  0  0  0  0  0  0  0
    1.0918   -0.0745    2.2236 O   0  0  0  0  0  0  0  0  0  0  0  0
   -1.0024    0.6217    2.6735 N   0  0  0  0  0  0  0  0  0  0  0  0
   -1.9213    0.7848    2.2938 H   0  0  0  0  0  0  0  0  0  0  0  0
   -0.7639    0.9676    4.0741 C   0  0  0  0  0  0  0  0  0  0  0  0
    0.0520    1.6916    4.1400 H   0  0  0  0  0  0  0  0  0  0  0  0
   -1.6626    1.3984    4.5182 H   0  0  0  0  0  0  0  0  0  0  0  0
   -0.4775    0.0737    4.6309 H   0  0  0  0  0  0  0  0  0  0  0  0
  5  6  2  0  0  0  0
  5  7  1  0  0  0  0
  2  3  1  0  0  0  0
  2  4  1  0  0  0  0
  2  5  1  0  0  0  0
  1  2  1  0  0  0  0
 22 23  2  0  0  0  0
 22 24  1  0  0  0  0
 19 20  1  0  0  0  0
 19 21  1  0  0  0  0
 17 18  2  0  0  0  0
 17 19  1  0  0  0  0
 14 15  1  0  0  0  0
 14 16  1  0  0  0  0
 14 17  1  0  0  0  0
 11 12  1  0  0  0  0
 11 13  1  0  0  0  0
 11 14  1  0  0  0  0
  9 10  1  0  0  0  0
  9 11  1  0  0  0  0
  9 22  1  0  0  0  0
  7  8  1  0  0  0  0
  7  9  1  0  0  0  0
 26 27  1  0  0  0  0
 26 28  1  0  0  0  0
 26 29  1  0  0  0  0
 24 25  1  0  0  0  0
 24 26  1  0  0  0  0
M  END
$$$$
default_name
  -OEChem-02102213163D

 29 28  0     1  0  0  0  0  0999 V2000
   -3.3998   -3.6239    1.3678 H   0  0  0  0  0  0  0  0  0  0  0  0
   -3.3608   -2.6749    0.8348 C   0  0  0  0  0  0  0  0  0  0  0  0
   -4.0988   -1.9909    1.2498 H   0  0  0  0  0  0  0  0  0  0  0  0
   -3.5618   -2.8419   -0.2222 H   0  0  0  0  0  0  0  0  0  0  0  0
   -1.9818   -2.0809    0.9918 C   0  0  0  0  0  0  0  0  0  0  0  0
   -1.1288   -2.6669    1.6468 O   0  0  0  0  0  0  0  0  0  0  0  0
   -1.7648   -0.9089    0.3998 N   0  0  0  0  0  0  0  0  0  0  0  0
   -2.5238   -0.4719   -0.1032 H   0  0  0  0  0  0  0  0  0  0  0  0
   -0.4848   -0.1959    0.4138 C   0  0  1  0  0  0  0  0  0  0  0  0
    0.2783   -0.8411   -0.0248 H   0  0  0  0  0  0  0  0  0  0  0  0
   -0.6101    1.0666   -0.4611 C   0  0  0  0  0  0  0  0  0  0  0  0
   -0.1513    1.9013    0.0729 H   0  0  0  0  0  0  0  0  0  0  0  0
   -0.0598    0.9124   -1.3904 H   0  0  0  0  0  0  0  0  0  0  0  0
   -2.0619    1.4472   -0.8002 C   0  0  0  0  0  0  0  0  0  0  0  0
   -2.0717    2.1583   -1.6260 H   0  0  0  0  0  0  0  0  0  0  0  0
   -2.6004    0.5505   -1.1064 H   0  0  0  0  0  0  0  0  0  0  0  0
   -2.8083    2.0784    0.3751 C   0  0  0  0  0  0  0  0  0  0  0  0
   -2.3281    2.1968    1.4868 O   0  0  0  0  0  0  0  0  0  0  0  0
   -4.0295    2.5239    0.1743 N   0  0  0  0  0  0  0  0  0  0  0  0
   -4.4726    2.9296    0.9803 H   0  0  0  0  0  0  0  0  0  0  0  0
   -4.4705    2.4540   -0.7203 H   0  0  0  0  0  0  0  0  0  0  0  0
   -0.0637    0.1284    1.8555 C   0  0  0  0  0  0  0  0  0  0  0  0
    1.0918   -0.0745    2.2236 O   0  0  0  0  0  0  0  0  0  0  0  0
   -1.0024    0.6217    2.6735 N   0  0  0  0  0  0  0  0  0  0  0  0
   -1.9213    0.7848    2.2938 H   0  0  0  0  0  0  0  0  0  0  0  0
   -0.7639    0.9676    4.0741 C   0  0  0  0  0  0  0  0  0  0  0  0
    0.0520    1.6916    4.1400 H   0  0  0  0  0  0  0  0  0  0  0  0
   -1.6626    1.3984    4.5182 H   0  0  0  0  0  0  0  0  0  0  0  0
   -0.4775    0.0737    4.6309 H   0  0  0  0  0  0  0  0  0  0  0  0
  5  6  2  0  0  0  0
  5  7  1  0  0  0  0
  2  3  1  0  0  0  0
  2  4  1  0  0  0  0
  2  5  1  0  0  0  0
  1  2  1  0  0  0  0
 22 23  2  0  0  0  0
 22 24  1  0  0  0  0
 19 20  1  0  0  0  0
 19 21  1  0  0  0  0
 17 18  2  0  0  0  0
 17 19  1  0  0  0  0
 14 15  1  0  0  0  0
 14 16  1  0  0  0  0
 14 17  1  0  0  0  0
 11 12  1  0  0  0  0
 11 13  1  0  0  0  0
 11 14  1  0  0  0  0
  9 10  1  0  0  0  0
  9 11  1  0  0  0  0
  9 22  1  0  0  0  0
  7  8  1  0  0  0  0
  7  9  1  0  0  0  0
 26 27  1  0  0  0  0
 26 28  1  0  0  0  0
 26 29  1  0  0  0  0
 24 25  1  0  0  0  0
 24 26  1  0  0  0  0
M  END
$$$$
default_name
  -OEChem-02102213163D

 29 28  0     1  0  0  0  0  0999 V2000
   -3.3998   -3.6239    1.3678 H   0  0  0  0  0  0  0  0  0  0  0  0
   -3.3608   -2.6749    0.8348 C   0  0  0  0  0  0  0  0  0  0  0  0
   -4.0988   -1.9909    1.2498 H   0  0  0  0  0  0  0  0  0  0  0  0
   -3.5618   -2.8419   -0.2222 H   0  0  0  0  0  0  0  0  0  0  0  0
   -1.9818   -2.0809    0.9918 C   0  0  0  0  0  0  0  0  0  0  0  0
   -1.1288   -2.6669    1.6468 O   0  0  0  0  0  0  0  0  0  0  0  0
   -1.7648   -0.9089    0.3998 N   0  0  0  0  0  0  0  0  0  0  0  0
   -2.5238   -0.4719   -0.1032 H   0  0  0  0  0  0  0  0  0  0  0  0
   -0.4848   -0.1959    0.4138 C   0  0  1  0  0  0  0  0  0  0  0  0
    0.2783   -0.8411   -0.0248 H   0  0  0  0  0  0  0  0  0  0  0  0
   -0.6101    1.0666   -0.4611 C   0  0  0  0  0  0  0  0  0  0  0  0
   -0.1513    1.9013    0.0729 H   0  0  0  0  0  0  0  0  0  0  0  0
   -0.0598    0.9124   -1.3904 H   0  0  0  0  0  0  0  0  0  0  0  0
   -2.0619    1.4472   -0.8002 C   0  0  0  0  0  0  0  0  0  0  0  0
   -2.0955    1.9360   -1.7736 H   0  0  0  0  0  0  0  0  0  0  0  0
   -2.6642    0.5399   -0.8452 H   0  0  0  0  0  0  0  0  0  0  0  0
   -2.6910    2.3915    0.2242 C   0  0  0  0  0  0  0  0  0  0  0  0
   -2.1277    2.7444    1.2434 O   0  0  0  0  0  0  0  0  0  0  0  0
   -3.9000    2.8535   -0.0102 N   0  0  0  0  0  0  0  0  0  0  0  0
   -4.2642    3.4703    0.6951 H   0  0  0  0  0  0  0  0  0  0  0  0
   -4.4064    2.5977   -0.8334 H   0  0  0  0  0  0  0  0  0  0  0  0
   -0.0637    0.1284    1.8555 C   0  0  0  0  0  0  0  0  0  0  0  0
    1.0918   -0.0745    2.2236 O   0  0  0  0  0  0  0  0  0  0  0  0
   -1.0024    0.6217    2.6735 N   0  0  0  0  0  0  0  0  0  0  0  0
   -1.9213    0.7848    2.2938 H   0  0  0  0  0  0  0  0  0  0  0  0
   -0.7639    0.9676    4.0741 C   0  0  0  0  0  0  0  0  0  0  0  0
    0.0520    1.6916    4.1400 H   0  0  0  0  0  0  0  0  0  0  0  0
   -1.6626    1.3984    4.5182 H   0  0  0  0  0  0  0  0  0  0  0  0
   -0.4775    0.0737    4.6309 H   0  0  0  0  0  0  0  0  0  0  0  0
  5  6  2  0  0  0  0
  5  7  1  0  0  0  0
  2  3  1  0  0  0  0
  2  4  1  0  0  0  0
  2  5  1  0  0  0  0
  1  2  1  0  0  0  0
 22 23  2  0  0  0  0
 22 24  1  0  0  0  0
 19 20  1  0  0  0  0
 19 21  1  0  0  0  0
 17 18  2  0  0  0  0
 17 19  1  0  0  0  0
 14 15  1  0  0  0  0
 14 16  1  0  0  0  0
 14 17  1  0  0  0  0
 11 12  1  0  0  0  0
 11 13  1  0  0  0  0
 11 14  1  0  0  0  0
  9 10  1  0  0  0  0
  9 11  1  0  0  0  0
  9 22  1  0  0  0  0
  7  8  1  0  0  0  0
  7  9  1  0  0  0  0
 26 27  1  0  0  0  0
 26 28  1  0  0  0  0
 26 29  1  0  0  0  0
 24 25  1  0  0  0  0
 24 26  1  0  0  0  0
M  END
$$$$
default_name
  -OEChem-02102213163D

 29 28  0     1  0  0  0  0  0999 V2000
   -3.3998   -3.6239    1.3678 H   0  0  0  0  0  0  0  0  0  0  0  0
   -3.3608   -2.6749    0.8348 C   0  0  0  0  0  0  0  0  0  0  0  0
   -4.0988   -1.9909    1.2498 H   0  0  0  0  0  0  0  0  0  0  0  0
   -3.5618   -2.8419   -0.2222 H   0  0  0  0  0  0  0  0  0  0  0  0
   -1.9818   -2.0809    0.9918 C   0  0  0  0  0  0  0  0  0  0  0  0
   -1.1288   -2.6669    1.6468 O   0  0  0  0  0  0  0  0  0  0  0  0
   -1.7648   -0.9089    0.3998 N   0  0  0  0  0  0  0  0  0  0  0  0
   -2.5238   -0.4719   -0.1032 H   0  0  0  0  0  0  0  0  0  0  0  0
   -0.4848   -0.1959    0.4138 C   0  0  1  0  0  0  0  0  0  0  0  0
    0.2783   -0.8411   -0.0248 H   0  0  0  0  0  0  0  0  0  0  0  0
   -0.6101    1.0666   -0.4611 C   0  0  0  0  0  0  0  0  0  0  0  0
   -0.1513    1.9013    0.0729 H   0  0  0  0  0  0  0  0  0  0  0  0
   -0.0598    0.9124   -1.3904 H   0  0  0  0  0  0  0  0  0  0  0  0
   -2.0619    1.4472   -0.8002 C   0  0  0  0  0  0  0  0  0  0  0  0
   -2.1406    1.6866   -1.8604 H   0  0  0  0  0  0  0  0  0  0  0  0
   -2.7097    0.5972   -0.5861 H   0  0  0  0  0  0  0  0  0  0  0  0
   -2.5694    2.6504   -0.0056 C   0  0  0  0  0  0  0  0  0  0  0  0
   -1.9185    3.2024    0.8617 O   0  0  0  0  0  0  0  0  0  0  0  0
   -3.7680    3.1194   -0.2771 N   0  0  0  0  0  0  0  0  0  0  0  0
   -4.0504    3.9111    0.2742 H   0  0  0  0  0  0  0  0  0  0  0  0
   -4.3436    2.7052   -0.9819 H   0  0  0  0  0  0  0  0  0  0  0  0
   -0.0637    0.1284    1.8555 C   0  0  0  0  0  0  0  0  0  0  0  0
    1.0918   -0.0745    2.2236 O   0  0  0  0  0  0  0  0  0  0  0  0
   -1.0024    0.6217    2.6735 N   0  0  0  0  0  0  0  0  0  0  0  0
   -1.9213    0.7848    2.2938 H   0  0  0  0  0  0  0  0  0  0  0  0
   -0.7639    0.9676    4.0741 C   0  0  0  0  0  0  0  0  0  0  0  0
    0.0520    1.6916    4.1400 H   0  0  0  0  0  0  0  0  0  0  0  0
   -1.6626    1.3984    4.5182 H   0  0  0  0  0  0  0  0  0  0  0  0
   -0.4775    0.0737    4.6309 H   0  0  0  0  0  0  0  0  0  0  0  0
  5  6  2  0  0  0  0
  5  7  1  0  0  0  0
  2  3  1  0  0  0  0
  2  4  1  0  0  0  0
  2  5  1  0  0  0  0
  1  2  1  0  0  0  0
 22 23  2  0  0  0  0
 22 24  1  0  0  0  0
 19 20  1  0  0  0  0
 19 21  1  0  0  0  0
 17 18  2  0  0  0  0
 17 19  1  0  0  0  0
 14 15  1  0  0  0  0
 14 16  1  0  0  0  0
 14 17  1  0  0  0  0
 11 12  1  0  0  0  0
 11 13  1  0  0  0  0
 11 14  1  0  0  0  0
  9 10  1  0  0  0  0
  9 11  1  0  0  0  0
  9 22  1  0  0  0  0
  7  8  1  0  0  0  0
  7  9  1  0  0  0  0
 26 27  1  0  0  0  0
 26 28  1  0  0  0  0
 26 29  1  0  0  0  0
 24 25  1  0  0  0  0
 24 26  1  0  0  0  0
M  END
$$$$
default_name
  -OEChem-02102213163D

 29 28  0     1  0  0  0  0  0999 V2000
   -3.3998   -3.6239    1.3678 H   0  0  0  0  0  0  0  0  0  0  0  0
   -3.3608   -2.6749    0.8348 C   0  0  0  0  0  0  0  0  0  0  0  0
   -4.0988   -1.9909    1.2498 H   0  0  0  0  0  0  0  0  0  0  0  0
   -3.5618   -2.8419   -0.2222 H   0  0  0  0  0  0  0  0  0  0  0  0
   -1.9818   -2.0809    0.9918 C   0  0  0  0  0  0  0  0  0  0  0  0
   -1.1288   -2.6669    1.6468 O   0  0  0  0  0  0  0  0  0  0  0  0
   -1.7648   -0.9089    0.3998 N   0  0  0  0  0  0  0  0  0  0  0  0
   -2.5238   -0.4719   -0.1032 H   0  0  0  0  0  0  0  0  0  0  0  0
   -0.4848   -0.1959    0.4138 C   0  0  1  0  0  0  0  0  0  0  0  0
    0.2783   -0.8411   -0.0248 H   0  0  0  0  0  0  0  0  0  0  0  0
   -0.6101    1.0666   -0.4611 C   0  0  0  0  0  0  0  0  0  0  0  0
   -0.1513    1.9013    0.0729 H   0  0  0  0  0  0  0  0  0  0  0  0
   -0.0598    0.9124   -1.3904 H   0  0  0  0  0  0  0  0  0  0  0  0
   -2.0619    1.4472   -0.8002 C   0  0  0  0  0  0  0  0  0  0  0  0
   -2.2039    1.4272   -1.8805 H   0  0  0  0  0  0  0  0  0  0  0  0
   -2.7337    0.7183   -0.3470 H   0  0  0  0  0  0  0  0  0  0  0  0
   -2.4520    2.8375   -0.2985 C   0  0  0  0  0  0  0  0  0  0  0  0
   -1.7147    3.5397    0.3678 O   0  0  0  0  0  0  0  0  0  0  0  0
   -3.6423    3.3036   -0.6084 N   0  0  0  0  0  0  0  0  0  0  0  0
   -3.8456    4.2219   -0.2537 H   0  0  0  0  0  0  0  0  0  0  0  0
   -4.2862    2.7692   -1.1557 H   0  0  0  0  0  0  0  0  0  0  0  0
   -0.0637    0.1284    1.8555 C   0  0  0  0  0  0  0  0  0  0  0  0
    1.0918   -0.0745    2.2236 O   0  0  0  0  0  0  0  0  0  0  0  0
   -1.0024    0.6217    2.6735 N   0  0  0  0  0  0  0  0  0  0  0  0
   -1.9213    0.7848    2.2938 H   0  0  0  0  0  0  0  0  0  0  0  0
   -0.7639    0.9676    4.0741 C   0  0  0  0  0  0  0  0  0  0  0  0
    0.0520    1.6916    4.1400 H   0  0  0  0  0  0  0  0  0  0  0  0
   -1.6626    1.3984    4.5182 H   0  0  0  0  0  0  0  0  0  0  0  0
   -0.4775    0.0737    4.6309 H   0  0  0  0  0  0  0  0  0  0  0  0
  5  6  2  0  0  0  0
  5  7  1  0  0  0  0
  2  3  1  0  0  0  0
  2  4  1  0  0  0  0
  2  5  1  0  0  0  0
  1  2  1  0  0  0  0
 22 23  2  0  0  0  0
 22 24  1  0  0  0  0
 19 20  1  0  0  0  0
 19 21  1  0  0  0  0
 17 18  2  0  0  0  0
 17 19  1  0  0  0  0
 14 15  1  0  0  0  0
 14 16  1  0  0  0  0
 14 17  1  0  0  0  0
 11 12  1  0  0  0  0
 11 13  1  0  0  0  0
 11 14  1  0  0  0  0
  9 10  1  0  0  0  0
  9 11  1  0  0  0  0
  9 22  1  0  0  0  0
  7  8  1  0  0  0  0
  7  9  1  0  0  0  0
 26 27  1  0  0  0  0
 26 28  1  0  0  0  0
 26 29  1  0  0  0  0
 24 25  1  0  0  0  0
 24 26  1  0  0  0  0
M  END
$$$$
default_name
  -OEChem-02102213163D

 29 28  0     1  0  0  0  0  0999 V2000
   -3.3998   -3.6239    1.3678 H   0  0  0  0  0  0  0  0  0  0  0  0
   -3.3608   -2.6749    0.8348 C   0  0  0  0  0  0  0  0  0  0  0  0
   -4.0988   -1.9909    1.2498 H   0  0  0  0  0  0  0  0  0  0  0  0
   -3.5618   -2.8419   -0.2222 H   0  0  0  0  0  0  0  0  0  0  0  0
   -1.9818   -2.0809    0.9918 C   0  0  0  0  0  0  0  0  0  0  0  0
   -1.1288   -2.6669    1.6468 O   0  0  0  0  0  0  0  0  0  0  0  0
   -1.7648   -0.9089    0.3998 N   0  0  0  0  0  0  0  0  0  0  0  0
   -2.5238   -0.4719   -0.1032 H   0  0  0  0  0  0  0  0  0  0  0  0
   -0.4848   -0.1959    0.4138 C   0  0  1  0  0  0  0  0  0  0  0  0
    0.2783   -0.8411   -0.0248 H   0  0  0  0  0  0  0  0  0  0  0  0
   -0.6101    1.0666   -0.4611 C   0  0  0  0  0  0  0  0  0  0  0  0
   -0.1513    1.9013    0.0729 H   0  0  0  0  0  0  0  0  0  0  0  0
   -0.0598    0.9124   -1.3904 H   0  0  0  0  0  0  0  0  0  0  0  0
   -2.0619    1.4472   -0.8002 C   0  0  0  0  0  0  0  0  0  0  0  0
   -2.2812    1.1752   -1.8324 H   0  0  0  0  0  0  0  0  0  0  0  0
   -2.7348    0.8951   -0.1441 H   0  0  0  0  0  0  0  0  0  0  0  0
   -2.3466    2.9399   -0.6346 C   0  0  0  0  0  0  0  0  0  0  0  0
   -1.5302    3.7332   -0.2047 O   0  0  0  0  0  0  0  0  0  0  0  0
   -3.5317    3.3934   -0.9814 N   0  0  0  0  0  0  0  0  0  0  0  0
   -3.6639    4.3815   -0.8525 H   0  0  0  0  0  0  0  0  0  0  0  0
   -4.2383    2.7853   -1.3428 H   0  0  0  0  0  0  0  0  0  0  0  0
   -0.0637    0.1284    1.8555 C   0  0  0  0  0  0  0  0  0  0  0  0
    1.0918   -0.0745    2.2236 O   0  0  0  0  0  0  0  0  0  0  0  0
   -1.0024    0.6217    2.6735 N   0  0  0  0  0  0  0  0  0  0  0  0
   -1.9213    0.7848    2.2938 H   0  0  0  0  0  0  0  0  0  0  0  0
   -0.7639    0.9676    4.0741 C   0  0  0  0  0  0  0  0  0  0  0  0
    0.0520    1.6916    4.1400 H   0  0  0  0  0  0  0  0  0  0  0  0
   -1.6626    1.3984    4.5182 H   0  0  0  0  0  0  0  0  0  0  0  0
   -0.4775    0.0737    4.6309 H   0  0  0  0  0  0  0  0  0  0  0  0
  5  6  2  0  0  0  0
  5  7  1  0  0  0  0
  2  3  1  0  0  0  0
  2  4  1  0  0  0  0
  2  5  1  0  0  0  0
  1  2  1  0  0  0  0
 22 23  2  0  0  0  0
 22 24  1  0  0  0  0
 19 20  1  0  0  0  0
 19 21  1  0  0  0  0
 17 18  2  0  0  0  0
 17 19  1  0  0  0  0
 14 15  1  0  0  0  0
 14 16  1  0  0  0  0
 14 17  1  0  0  0  0
 11 12  1  0  0  0  0
 11 13  1  0  0  0  0
 11 14  1  0  0  0  0
  9 10  1  0  0  0  0
  9 11  1  0  0  0  0
  9 22  1  0  0  0  0
  7  8  1  0  0  0  0
  7  9  1  0  0  0  0
 26 27  1  0  0  0  0
 26 28  1  0  0  0  0
 26 29  1  0  0  0  0
 24 25  1  0  0  0  0
 24 26  1  0  0  0  0
M  END
$$$$
default_name
  -OEChem-02102213163D

 29 28  0     1  0  0  0  0  0999 V2000
   -3.3998   -3.6239    1.3678 H   0  0  0  0  0  0  0  0  0  0  0  0
   -3.3608   -2.6749    0.8348 C   0  0  0  0  0  0  0  0  0  0  0  0
   -4.0988   -1.9909    1.2498 H   0  0  0  0  0  0  0  0  0  0  0  0
   -3.5618   -2.8419   -0.2222 H   0  0  0  0  0  0  0  0  0  0  0  0
   -1.9818   -2.0809    0.9918 C   0  0  0  0  0  0  0  0  0  0  0  0
   -1.1288   -2.6669    1.6468 O   0  0  0  0  0  0  0  0  0  0  0  0
   -1.7648   -0.9089    0.3998 N   0  0  0  0  0  0  0  0  0  0  0  0
   -2.5238   -0.4719   -0.1032 H   0  0  0  0  0  0  0  0  0  0  0  0
   -0.4848   -0.1959    0.4138 C   0  0  1  0  0  0  0  0  0  0  0  0
    0.2783   -0.8411   -0.0248 H   0  0  0  0  0  0  0  0  0  0  0  0
   -0.6101    1.0666   -0.4611 C   0  0  0  0  0  0  0  0  0  0  0  0
   -0.1513    1.9013    0.0729 H   0  0  0  0  0  0  0  0  0  0  0  0
   -0.0598    0.9124   -1.3904 H   0  0  0  0  0  0  0  0  0  0  0  0
   -2.0619    1.4472   -0.8002 C   0  0  0  0  0  0  0  0  0  0  0  0
   -2.3671    0.9480   -1.7195 H   0  0  0  0  0  0  0  0  0  0  0  0
   -2.7127    1.1155    0.0088 H   0  0  0  0  0  0  0  0  0  0  0  0
   -2.2605    2.9508   -0.9911 C   0  0  0  0  0  0  0  0  0  0  0  0
   -1.3777    3.7698   -0.8168 O   0  0  0  0  0  0  0  0  0  0  0  0
   -3.4435    3.3827   -1.3707 N   0  0  0  0  0  0  0  0  0  0  0  0
   -3.5176    4.3790   -1.4816 H   0  0  0  0  0  0  0  0  0  0  0  0
   -4.2031    2.7524   -1.5305 H   0  0  0  0  0  0  0  0  0  0  0  0
   -0.0637    0.1284    1.8555 C   0  0  0  0  0  0  0  0  0  0  0  0
    1.0918   -0.0745    2.2236 O   0  0  0  0  0  0  0  0  0  0  0  0
   -1.0024    0.6217    2.6735 N   0  0  0  0  0  0  0  0  0  0  0  0
   -1.9213    0.7848    2.2938 H   0  0  0  0  0  0  0  0  0  0  0  0
   -0.7639    0.9676    4.0741 C   0  0  0  0  0  0  0  0  0  0  0  0
    0.0520    1.6916    4.1400 H   0  0  0  0  0  0  0  0  0  0  0  0
   -1.6626    1.3984    4.5182 H   0  0  0  0  0  0  0  0  0  0  0  0
   -0.4775    0.0737    4.6309 H   0  0  0  0  0  0  0  0  0  0  0  0
  5  6  2  0  0  0  0
  5  7  1  0  0  0  0
  2  3  1  0  0  0  0
  2  4  1  0  0  0  0
  2  5  1  0  0  0  0
  1  2  1  0  0  0  0
 22 23  2  0  0  0  0
 22 24  1  0  0  0  0
 19 20  1  0  0  0  0
 19 21  1  0  0  0  0
 17 18  2  0  0  0  0
 17 19  1  0  0  0  0
 14 15  1  0  0  0  0
 14 16  1  0  0  0  0
 14 17  1  0  0  0  0
 11 12  1  0  0  0  0
 11 13  1  0  0  0  0
 11 14  1  0  0  0  0
  9 10  1  0  0  0  0
  9 11  1  0  0  0  0
  9 22  1  0  0  0  0
  7  8  1  0  0  0  0
  7  9  1  0  0  0  0
 26 27  1  0  0  0  0
 26 28  1  0  0  0  0
 26 29  1  0  0  0  0
 24 25  1  0  0  0  0
 24 26  1  0  0  0  0
M  END
$$$$
default_name
  -OEChem-02102213163D

 29 28  0     1  0  0  0  0  0999 V2000
   -3.3998   -3.6239    1.3678 H   0  0  0  0  0  0  0  0  0  0  0  0
   -3.3608   -2.6749    0.8348 C   0  0  0  0  0  0  0  0  0  0  0  0
   -4.0988   -1.9909    1.2498 H   0  0  0  0  0  0  0  0  0  0  0  0
   -3.5618   -2.8419   -0.2222 H   0  0  0  0  0  0  0  0  0  0  0  0
   -1.9818   -2.0809    0.9918 C   0  0  0  0  0  0  0  0  0  0  0  0
   -1.1288   -2.6669    1.6468 O   0  0  0  0  0  0  0  0  0  0  0  0
   -1.7648   -0.9089    0.3998 N   0  0  0  0  0  0  0  0  0  0  0  0
   -2.5238   -0.4719   -0.1032 H   0  0  0  0  0  0  0  0  0  0  0  0
   -0.4848   -0.1959    0.4138 C   0  0  1  0  0  0  0  0  0  0  0  0
    0.2783   -0.8411   -0.0248 H   0  0  0  0  0  0  0  0  0  0  0  0
   -0.6101    1.0666   -0.4611 C   0  0  0  0  0  0  0  0  0  0  0  0
   -0.1513    1.9013    0.0729 H   0  0  0  0  0  0  0  0  0  0  0  0
   -0.0598    0.9124   -1.3904 H   0  0  0  0  0  0  0  0  0  0  0  0
   -2.0619    1.4472   -0.8002 C   0  0  0  0  0  0  0  0  0  0  0  0
   -2.4559    0.7610   -1.5495 H   0  0  0  0  0  0  0  0  0  0  0  0
   -2.6690    1.3644    0.1012 H   0  0  0  0  0  0  0  0  0  0  0  0
   -2.1995    2.8693   -1.3436 C   0  0  0  0  0  0  0  0  0  0  0  0
   -1.2674    3.6470   -1.4267 O   0  0  0  0  0  0  0  0  0  0  0  0
   -3.3840    3.2723   -1.7498 N   0  0  0  0  0  0  0  0  0  0  0  0
   -3.4167    4.2147   -2.0981 H   0  0  0  0  0  0  0  0  0  0  0  0
   -4.1830    2.6728   -1.7060 H   0  0  0  0  0  0  0  0  0  0  0  0
   -0.0637    0.1284    1.8555 C   0  0  0  0  0  0  0  0  0  0  0  0
    1.0918   -0.0745    2.2236 O   0  0  0  0  0  0  0  0  0  0  0  0
   -1.0024    0.6217    2.6735 N   0  0  0  0  0  0  0  0  0  0  0  0
   -1.9213    0.7848    2.2938 H   0  0  0  0  0  0  0  0  0  0  0  0
   -0.7639    0.9676    4.0741 C   0  0  0  0  0  0  0  0  0  0  0  0
    0.0520    1.6916    4.1400 H   0  0  0  0  0  0  0  0  0  0  0  0
   -1.6626    1.3984    4.5182 H   0  0  0  0  0  0  0  0  0  0  0  0
   -0.4775    0.0737    4.6309 H   0  0  0  0  0  0  0  0  0  0  0  0
  5  6  2  0  0  0  0
  5  7  1  0  0  0  0
  2  3  1  0  0  0  0
  2  4  1  0  0  0  0
  2  5  1  0  0  0  0
  1  2  1  0  0  0  0
 22 23  2  0  0  0  0
 22 24  1  0  0  0  0
 19 20  1  0  0  0  0
 19 21  1  0  0  0  0
 17 18  2  0  0  0  0
 17 19  1  0  0  0  0
 14 15  1  0  0  0  0
 14 16  1  0  0  0  0
 14 17  1  0  0  0  0
 11 12  1  0  0  0  0
 11 13  1  0  0  0  0
 11 14  1  0  0  0  0
  9 10  1  0  0  0  0
  9 11  1  0  0  0  0
  9 22  1  0  0  0  0
  7  8  1  0  0  0  0
  7  9  1  0  0  0  0
 26 27  1  0  0  0  0
 26 28  1  0  0  0  0
 26 29  1  0  0  0  0
 24 25  1  0  0  0  0
 24 26  1  0  0  0  0
M  END
$$$$
default_name
  -OEChem-02102213163D

 29 28  0     1  0  0  0  0  0999 V2000
   -3.3998   -3.6239    1.3678 H   0  0  0  0  0  0  0  0  0  0  0  0
   -3.3608   -2.6749    0.8348 C   0  0  0  0  0  0  0  0  0  0  0  0
   -4.0988   -1.9909    1.2498 H   0  0  0  0  0  0  0  0  0  0  0  0
   -3.5618   -2.8419   -0.2222 H   0  0  0  0  0  0  0  0  0  0  0  0
   -1.9818   -2.0809    0.9918 C   0  0  0  0  0  0  0  0  0  0  0  0
   -1.1288   -2.6669    1.6468 O   0  0  0  0  0  0  0  0  0  0  0  0
   -1.7648   -0.9089    0.3998 N   0  0  0  0  0  0  0  0  0  0  0  0
   -2.5238   -0.4719   -0.1032 H   0  0  0  0  0  0  0  0  0  0  0  0
   -0.4848   -0.1959    0.4138 C   0  0  1  0  0  0  0  0  0  0  0  0
    0.2783   -0.8411   -0.0248 H   0  0  0  0  0  0  0  0  0  0  0  0
   -0.6101    1.0666   -0.4611 C   0  0  0  0  0  0  0  0  0  0  0  0
    0.0680    1.8263   -0.0668 H   0  0  0  0  0  0  0  0  0  0  0  0
   -0.2992    0.8272   -1.4791 H   0  0  0  0  0  0  0  0  0  0  0  0
   -2.0301    1.6578   -0.5008 C   0  0  0  0  0  0  0  0  0  0  0  0
   -2.7260    0.9155   -0.8911 H   0  0  0  0  0  0  0  0  0  0  0  0
   -2.3328    1.9197    0.5130 H   0  0  0  0  0  0  0  0  0  0  0  0
   -2.1365    2.9089   -1.3727 C   0  0  0  0  0  0  0  0  0  0  0  0
   -1.1803    3.4284   -1.9171 O   0  0  0  0  0  0  0  0  0  0  0  0
   -3.3228    3.4486   -1.5509 N   0  0  0  0  0  0  0  0  0  0  0  0
   -3.3346    4.2679   -2.1331 H   0  0  0  0  0  0  0  0  0  0  0  0
   -4.1419    3.0605   -1.1289 H   0  0  0  0  0  0  0  0  0  0  0  0
   -0.0637    0.1284    1.8555 C   0  0  0  0  0  0  0  0  0  0  0  0
    1.0918   -0.0745    2.2236 O   0  0  0  0  0  0  0  0  0  0  0  0
   -1.0024    0.6217    2.6735 N   0  0  0  0  0  0  0  0  0  0  0  0
   -1.9213    0.7848    2.2938 H   0  0  0  0  0  0  0  0  0  0  0  0
   -0.7639    0.9676    4.0741 C   0  0  0  0  0  0  0  0  0  0  0  0
    0.0520    1.6916    4.1400 H   0  0  0  0  0  0  0  0  0  0  0  0
   -1.6626    1.3984    4.5182 H   0  0  0  0  0  0  0  0  0  0  0  0
   -0.4775    0.0737    4.6309 H   0  0  0  0  0  0  0  0  0  0  0  0
  5  6  2  0  0  0  0
  5  7  1  0  0  0  0
  2  3  1  0  0  0  0
  2  4  1  0  0  0  0
  2  5  1  0  0  0  0
  1  2  1  0  0  0  0
 22 23  2  0  0  0  0
 22 24  1  0  0  0  0
 19 20  1  0  0  0  0
 19 21  1  0  0  0  0
 17 18  2  0  0  0  0
 17 19  1  0  0  0  0
 14 15  1  0  0  0  0
 14 16  1  0  0  0  0
 14 17  1  0  0  0  0
 11 12  1  0  0  0  0
 11 13  1  0  0  0  0
 11 14  1  0  0  0  0
  9 10  1  0  0  0  0
  9 11  1  0  0  0  0
  9 22  1  0  0  0  0
  7  8  1  0  0  0  0
  7  9  1  0  0  0  0
 26 27  1  0  0  0  0
 26 28  1  0  0  0  0
 26 29  1  0  0  0  0
 24 25  1  0  0  0  0
 24 26  1  0  0  0  0
M  END
$$$$
default_name
  -OEChem-02102213163D

 29 28  0     1  0  0  0  0  0999 V2000
   -3.3998   -3.6239    1.3678 H   0  0  0  0  0  0  0  0  0  0  0  0
   -3.3608   -2.6749    0.8348 C   0  0  0  0  0  0  0  0  0  0  0  0
   -4.0988   -1.9909    1.2498 H   0  0  0  0  0  0  0  0  0  0  0  0
   -3.5618   -2.8419   -0.2222 H   0  0  0  0  0  0  0  0  0  0  0  0
   -1.9818   -2.0809    0.9918 C   0  0  0  0  0  0  0  0  0  0  0  0
   -1.1288   -2.6669    1.6468 O   0  0  0  0  0  0  0  0  0  0  0  0
   -1.7648   -0.9089    0.3998 N   0  0  0  0  0  0  0  0  0  0  0  0
   -2.5238   -0.4719   -0.1032 H   0  0  0  0  0  0  0  0  0  0  0  0
   -0.4848   -0.1959    0.4138 C   0  0  1  0  0  0  0  0  0  0  0  0
    0.2783   -0.8411   -0.0248 H   0  0  0  0  0  0  0  0  0  0  0  0
   -0.6101    1.0666   -0.4611 C   0  0  0  0  0  0  0  0  0  0  0  0
    0.0680    1.8263   -0.0668 H   0  0  0  0  0  0  0  0  0  0  0  0
   -0.2992    0.8272   -1.4791 H   0  0  0  0  0  0  0  0  0  0  0  0
   -2.0301    1.6578   -0.5008 C   0  0  0  0  0  0  0  0  0  0  0  0
   -2.7576    0.8570   -0.6316 H   0  0  0  0  0  0  0  0  0  0  0  0
   -2.2310    2.1596    0.4457 H   0  0  0  0  0  0  0  0  0  0  0  0
   -2.2301    2.6666   -1.6317 C   0  0  0  0  0  0  0  0  0  0  0  0
   -1.3362    3.0232   -2.3762 O   0  0  0  0  0  0  0  0  0  0  0  0
   -3.4312    3.1703   -1.8160 N   0  0  0  0  0  0  0  0  0  0  0  0
   -3.5057    3.8273   -2.5732 H   0  0  0  0  0  0  0  0  0  0  0  0
   -4.2018    2.9096   -1.2347 H   0  0  0  0  0  0  0  0  0  0  0  0
   -0.0637    0.1284    1.8555 C   0  0  0  0  0  0  0  0  0  0  0  0
    1.0918   -0.0745    2.2236 O   0  0  0  0  0  0  0  0  0  0  0  0
   -1.0024    0.6217    2.6735 N   0  0  0  0  0  0  0  0  0  0  0  0
   -1.9213    0.7848    2.2938 H   0  0  0  0  0  0  0  0  0  0  0  0
   -0.7639    0.9676    4.0741 C   0  0  0  0  0  0  0  0  0  0  0  0
    0.0520    1.6916    4.1400 H   0  0  0  0  0  0  0  0  0  0  0  0
   -1.6626    1.3984    4.5182 H   0  0  0  0  0  0  0  0  0  0  0  0
   -0.4775    0.0737    4.6309 H   0  0  0  0  0  0  0  0  0  0  0  0
  5  6  2  0  0  0  0
  5  7  1  0  0  0  0
  2  3  1  0  0  0  0
  2  4  1  0  0  0  0
  2  5  1  0  0  0  0
  1  2  1  0  0  0  0
 22 23  2  0  0  0  0
 22 24  1  0  0  0  0
 19 20  1  0  0  0  0
 19 21  1  0  0  0  0
 17 18  2  0  0  0  0
 17 19  1  0  0  0  0
 14 15  1  0  0  0  0
 14 16  1  0  0  0  0
 14 17  1  0  0  0  0
 11 12  1  0  0  0  0
 11 13  1  0  0  0  0
 11 14  1  0  0  0  0
  9 10  1  0  0  0  0
  9 11  1  0  0  0  0
  9 22  1  0  0  0  0
  7  8  1  0  0  0  0
  7  9  1  0  0  0  0
 26 27  1  0  0  0  0
 26 28  1  0  0  0  0
 26 29  1  0  0  0  0
 24 25  1  0  0  0  0
 24 26  1  0  0  0  0
M  END
$$$$
default_name
  -OEChem-02102213163D

 29 28  0     1  0  0  0  0  0999 V2000
   -3.3998   -3.6239    1.3678 H   0  0  0  0  0  0  0  0  0  0  0  0
   -3.3608   -2.6749    0.8348 C   0  0  0  0  0  0  0  0  0  0  0  0
   -4.0988   -1.9909    1.2498 H   0  0  0  0  0  0  0  0  0  0  0  0
   -3.5618   -2.8419   -0.2222 H   0  0  0  0  0  0  0  0  0  0  0  0
   -1.9818   -2.0809    0.9918 C   0  0  0  0  0  0  0  0  0  0  0  0
   -1.1288   -2.6669    1.6468 O   0  0  0  0  0  0  0  0  0  0  0  0
   -1.7648   -0.9089    0.3998 N   0  0  0  0  0  0  0  0  0  0  0  0
   -2.5238   -0.4719   -0.1032 H   0  0  0  0  0  0  0  0  0  0  0  0
   -0.4848   -0.1959    0.4138 C   0  0  1  0  0  0  0  0  0  0  0  0
    0.2783   -0.8411   -0.0248 H   0  0  0  0  0  0  0  0  0  0  0  0
   -0.6101    1.0666   -0.4611 C   0  0  0  0  0  0  0  0  0  0  0  0
    0.0680    1.8263   -0.0668 H   0  0  0  0  0  0  0  0  0  0  0  0
   -0.2992    0.8272   -1.4791 H   0  0  0  0  0  0  0  0  0  0  0  0
   -2.0301    1.6578   -0.5008 C   0  0  0  0  0  0  0  0  0  0  0  0
   -2.7627    0.8627   -0.3639 H   0  0  0  0  0  0  0  0  0  0  0  0
   -2.1378    2.3745    0.3132 H   0  0  0  0  0  0  0  0  0  0  0  0
   -2.3479    2.3713   -1.8148 C   0  0  0  0  0  0  0  0  0  0  0  0
   -1.5351    2.5233   -2.7074 O   0  0  0  0  0  0  0  0  0  0  0  0
   -3.5641    2.8390   -1.9949 N   0  0  0  0  0  0  0  0  0  0  0  0
   -3.7178    3.2977   -2.8760 H   0  0  0  0  0  0  0  0  0  0  0  0
   -4.2711    2.7389   -1.2950 H   0  0  0  0  0  0  0  0  0  0  0  0
   -0.0637    0.1284    1.8555 C   0  0  0  0  0  0  0  0  0  0  0  0
    1.0918   -0.0745    2.2236 O   0  0  0  0  0  0  0  0  0  0  0  0
   -1.0024    0.6217    2.6735 N   0  0  0  0  0  0  0  0  0  0  0  0
   -1.9213    0.7848    2.2938 H   0  0  0  0  0  0  0  0  0  0  0  0
   -0.7639    0.9676    4.0741 C   0  0  0  0  0  0  0  0  0  0  0  0
    0.0520    1.6916    4.1400 H   0  0  0  0  0  0  0  0  0  0  0  0
   -1.6626    1.3984    4.5182 H   0  0  0  0  0  0  0  0  0  0  0  0
   -0.4775    0.0737    4.6309 H   0  0  0  0  0  0  0  0  0  0  0  0
  5  6  2  0  0  0  0
  5  7  1  0  0  0  0
  2  3  1  0  0  0  0
  2  4  1  0  0  0  0
  2  5  1  0  0  0  0
  1  2  1  0  0  0  0
 22 23  2  0  0  0  0
 22 24  1  0  0  0  0
 19 20  1  0  0  0  0
 19 21  1  0  0  0  0
 17 18  2  0  0  0  0
 17 19  1  0  0  0  0
 14 15  1  0  0  0  0
 14 16  1  0  0  0  0
 14 17  1  0  0  0  0
 11 12  1  0  0  0  0
 11 13  1  0  0  0  0
 11 14  1  0  0  0  0
  9 10  1  0  0  0  0
  9 11  1  0  0  0  0
  9 22  1  0  0  0  0
  7  8  1  0  0  0  0
  7  9  1  0  0  0  0
 26 27  1  0  0  0  0
 26 28  1  0  0  0  0
 26 29  1  0  0  0  0
 24 25  1  0  0  0  0
 24 26  1  0  0  0  0
M  END
$$$$
default_name
  -OEChem-02102213163D

 29 28  0     1  0  0  0  0  0999 V2000
   -3.3998   -3.6239    1.3678 H   0  0  0  0  0  0  0  0  0  0  0  0
   -3.3608   -2.6749    0.8348 C   0  0  0  0  0  0  0  0  0  0  0  0
   -4.0988   -1.9909    1.2498 H   0  0  0  0  0  0  0  0  0  0  0  0
   -3.5618   -2.8419   -0.2222 H   0  0  0  0  0  0  0  0  0  0  0  0
   -1.9818   -2.0809    0.9918 C   0  0  0  0  0  0  0  0  0  0  0  0
   -1.1288   -2.6669    1.6468 O   0  0  0  0  0  0  0  0  0  0  0  0
   -1.7648   -0.9089    0.3998 N   0  0  0  0  0  0  0  0  0  0  0  0
   -2.5238   -0.4719   -0.1032 H   0  0  0  0  0  0  0  0  0  0  0  0
   -0.4848   -0.1959    0.4138 C   0  0  1  0  0  0  0  0  0  0  0  0
    0.2783   -0.8411   -0.0248 H   0  0  0  0  0  0  0  0  0  0  0  0
   -0.6101    1.0666   -0.4611 C   0  0  0  0  0  0  0  0  0  0  0  0
    0.0680    1.8263   -0.0668 H   0  0  0  0  0  0  0  0  0  0  0  0
   -0.2992    0.8272   -1.4791 H   0  0  0  0  0  0  0  0  0  0  0  0
   -2.0301    1.6578   -0.5008 C   0  0  0  0  0  0  0  0  0  0  0  0
   -2.7410    0.9322   -0.1061 H   0  0  0  0  0  0  0  0  0  0  0  0
   -2.0595    2.5499    0.1247 H   0  0  0  0  0  0  0  0  0  0  0  0
   -2.4819    2.0432   -1.9094 C   0  0  0  0  0  0  0  0  0  0  0  0
   -1.7634    1.9625   -2.8881 O   0  0  0  0  0  0  0  0  0  0  0  0
   -3.7125    2.4771   -2.0752 N   0  0  0  0  0  0  0  0  0  0  0  0
   -3.9562    2.7152   -3.0210 H   0  0  0  0  0  0  0  0  0  0  0  0
   -4.3452    2.5602   -1.3055 H   0  0  0  0  0  0  0  0  0  0  0  0
   -0.0637    0.1284    1.8555 C   0  0  0  0  0  0  0  0  0  0  0  0
    1.0918   -0.0745    2.2236 O   0  0  0  0  0  0  0  0  0  0  0  0
   -1.0024    0.6217    2.6735 N   0  0  0  0  0  0  0  0  0  0  0  0
   -1.9213    0.7848    2.2938 H   0  0  0  0  0  0  0  0  0  0  0  0
   -0.7639    0.9676    4.0741 C   0  0  0  0  0  0  0  0  0  0  0  0
    0.0520    1.6916    4.1400 H   0  0  0  0  0  0  0  0  0  0  0  0
   -1.6626    1.3984    4.5182 H   0  0  0  0  0  0  0  0  0  0  0  0
   -0.4775    0.0737    4.6309 H   0  0  0  0  0  0  0  0  0  0  0  0
  5  6  2  0  0  0  0
  5  7  1  0  0  0  0
  2  3  1  0  0  0  0
  2  4  1  0  0  0  0
  2  5  1  0  0  0  0
  1  2  1  0  0  0  0
 22 23  2  0  0  0  0
 22 24  1  0  0  0  0
 19 20  1  0  0  0  0
 19 21  1  0  0  0  0
 17 18  2  0  0  0  0
 17 19  1  0  0  0  0
 14 15  1  0  0  0  0
 14 16  1  0  0  0  0
 14 17  1  0  0  0  0
 11 12  1  0  0  0  0
 11 13  1  0  0  0  0
 11 14  1  0  0  0  0
  9 10  1  0  0  0  0
  9 11  1  0  0  0  0
  9 22  1  0  0  0  0
  7  8  1  0  0  0  0
  7  9  1  0  0  0  0
 26 27  1  0  0  0  0
 26 28  1  0  0  0  0
 26 29  1  0  0  0  0
 24 25  1  0  0  0  0
 24 26  1  0  0  0  0
M  END
$$$$
default_name
  -OEChem-02102213163D

 29 28  0     1  0  0  0  0  0999 V2000
   -3.3998   -3.6239    1.3678 H   0  0  0  0  0  0  0  0  0  0  0  0
   -3.3608   -2.6749    0.8348 C   0  0  0  0  0  0  0  0  0  0  0  0
   -4.0988   -1.9909    1.2498 H   0  0  0  0  0  0  0  0  0  0  0  0
   -3.5618   -2.8419   -0.2222 H   0  0  0  0  0  0  0  0  0  0  0  0
   -1.9818   -2.0809    0.9918 C   0  0  0  0  0  0  0  0  0  0  0  0
   -1.1288   -2.6669    1.6468 O   0  0  0  0  0  0  0  0  0  0  0  0
   -1.7648   -0.9089    0.3998 N   0  0  0  0  0  0  0  0  0  0  0  0
   -2.5238   -0.4719   -0.1032 H   0  0  0  0  0  0  0  0  0  0  0  0
   -0.4848   -0.1959    0.4138 C   0  0  1  0  0  0  0  0  0  0  0  0
    0.2783   -0.8411   -0.0248 H   0  0  0  0  0  0  0  0  0  0  0  0
   -0.6101    1.0666   -0.4611 C   0  0  0  0  0  0  0  0  0  0  0  0
    0.0680    1.8263   -0.0668 H   0  0  0  0  0  0  0  0  0  0  0  0
   -0.2992    0.8272   -1.4791 H   0  0  0  0  0  0  0  0  0  0  0  0
   -2.0301    1.6578   -0.5008 C   0  0  0  0  0  0  0  0  0  0  0  0
   -2.6939    1.0608    0.1242 H   0  0  0  0  0  0  0  0  0  0  0  0
   -2.0015    2.6738   -0.1071 H   0  0  0  0  0  0  0  0  0  0  0  0
   -2.6229    1.7045   -1.9090 C   0  0  0  0  0  0  0  0  0  0  0  0
   -2.0058    1.3793   -2.9060 O   0  0  0  0  0  0  0  0  0  0  0  0
   -3.8663    2.1094   -2.0516 N   0  0  0  0  0  0  0  0  0  0  0  0
   -4.2049    2.1195   -2.9981 H   0  0  0  0  0  0  0  0  0  0  0  0
   -4.4191    2.3855   -1.2656 H   0  0  0  0  0  0  0  0  0  0  0  0
   -0.0637    0.1284    1.8555 C   0  0  0  0  0  0  0  0  0  0  0  0
    1.0918   -0.0745    2.2236 O   0  0  0  0  0  0  0  0  0  0  0  0
   -1.0024    0.6217    2.6735 N   0  0  0  0  0  0  0  0  0  0  0  0
   -1.9213    0.7848    2.2938 H   0  0  0  0  0  0  0  0  0  0  0  0
   -0.7639    0.9676    4.0741 C   0  0  0  0  0  0  0  0  0  0  0  0
    0.0520    1.6916    4.1400 H   0  0  0  0  0  0  0  0  0  0  0  0
   -1.6626    1.3984    4.5182 H   0  0  0  0  0  0  0  0  0  0  0  0
   -0.4775    0.0737    4.6309 H   0  0  0  0  0  0  0  0  0  0  0  0
  5  6  2  0  0  0  0
  5  7  1  0  0  0  0
  2  3  1  0  0  0  0
  2  4  1  0  0  0  0
  2  5  1  0  0  0  0
  1  2  1  0  0  0  0
 22 23  2  0  0  0  0
 22 24  1  0  0  0  0
 19 20  1  0  0  0  0
 19 21  1  0  0  0  0
 17 18  2  0  0  0  0
 17 19  1  0  0  0  0
 14 15  1  0  0  0  0
 14 16  1  0  0  0  0
 14 17  1  0  0  0  0
 11 12  1  0  0  0  0
 11 13  1  0  0  0  0
 11 14  1  0  0  0  0
  9 10  1  0  0  0  0
  9 11  1  0  0  0  0
  9 22  1  0  0  0  0
  7  8  1  0  0  0  0
  7  9  1  0  0  0  0
 26 27  1  0  0  0  0
 26 28  1  0  0  0  0
 26 29  1  0  0  0  0
 24 25  1  0  0  0  0
 24 26  1  0  0  0  0
M  END
$$$$
default_name
  -OEChem-02102213163D

 29 28  0     1  0  0  0  0  0999 V2000
   -3.3998   -3.6239    1.3678 H   0  0  0  0  0  0  0  0  0  0  0  0
   -3.3608   -2.6749    0.8348 C   0  0  0  0  0  0  0  0  0  0  0  0
   -4.0988   -1.9909    1.2498 H   0  0  0  0  0  0  0  0  0  0  0  0
   -3.5618   -2.8419   -0.2222 H   0  0  0  0  0  0  0  0  0  0  0  0
   -1.9818   -2.0809    0.9918 C   0  0  0  0  0  0  0  0  0  0  0  0
   -1.1288   -2.6669    1.6468 O   0  0  0  0  0  0  0  0  0  0  0  0
   -1.7648   -0.9089    0.3998 N   0  0  0  0  0  0  0  0  0  0  0  0
   -2.5238   -0.4719   -0.1032 H   0  0  0  0  0  0  0  0  0  0  0  0
   -0.4848   -0.1959    0.4138 C   0  0  1  0  0  0  0  0  0  0  0  0
    0.2783   -0.8411   -0.0248 H   0  0  0  0  0  0  0  0  0  0  0  0
   -0.6101    1.0666   -0.4611 C   0  0  0  0  0  0  0  0  0  0  0  0
    0.0680    1.8263   -0.0668 H   0  0  0  0  0  0  0  0  0  0  0  0
   -0.2992    0.8272   -1.4791 H   0  0  0  0  0  0  0  0  0  0  0  0
   -2.0301    1.6578   -0.5008 C   0  0  0  0  0  0  0  0  0  0  0  0
   -2.6247    1.2397    0.3111 H   0  0  0  0  0  0  0  0  0  0  0  0
   -1.9676    2.7376   -0.3664 H   0  0  0  0  0  0  0  0  0  0  0  0
   -2.7614    1.3784   -1.8138 C   0  0  0  0  0  0  0  0  0  0  0  0
   -2.2455    0.8132   -2.7599 O   0  0  0  0  0  0  0  0  0  0  0  0
   -4.0149    1.7608   -1.9258 N   0  0  0  0  0  0  0  0  0  0  0  0
   -4.4467    1.5513   -2.8090 H   0  0  0  0  0  0  0  0  0  0  0  0
   -4.4876    2.2268   -1.1780 H   0  0  0  0  0  0  0  0  0  0  0  0
   -0.0637    0.1284    1.8555 C   0  0  0  0  0  0  0  0  0  0  0  0
    1.0918   -0.0745    2.2236 O   0  0  0  0  0  0  0  0  0  0  0  0
   -1.0024    0.6217    2.6735 N   0  0  0  0  0  0  0  0  0  0  0  0
   -1.9213    0.7848    2.2938 H   0  0  0  0  0  0  0  0  0  0  0  0
   -0.7639    0.9676    4.0741 C   0  0  0  0  0  0  0  0  0  0  0  0
    0.0520    1.6916    4.1400 H   0  0  0  0  0  0  0  0  0  0  0  0
   -1.6626    1.3984    4.5182 H   0  0  0  0  0  0  0  0  0  0  0  0
   -0.4775    0.0737    4.6309 H   0  0  0  0  0  0  0  0  0  0  0  0
  5  6  2  0  0  0  0
  5  7  1  0  0  0  0
  2  3  1  0  0  0  0
  2  4  1  0  0  0  0
  2  5  1  0  0  0  0
  1  2  1  0  0  0  0
 22 23  2  0  0  0  0
 22 24  1  0  0  0  0
 19 20  1  0  0  0  0
 19 21  1  0  0  0  0
 17 18  2  0  0  0  0
 17 19  1  0  0  0  0
 14 15  1  0  0  0  0
 14 16  1  0  0  0  0
 14 17  1  0  0  0  0
 11 12  1  0  0  0  0
 11 13  1  0  0  0  0
 11 14  1  0  0  0  0
  9 10  1  0  0  0  0
  9 11  1  0  0  0  0
  9 22  1  0  0  0  0
  7  8  1  0  0  0  0
  7  9  1  0  0  0  0
 26 27  1  0  0  0  0
 26 28  1  0  0  0  0
 26 29  1  0  0  0  0
 24 25  1  0  0  0  0
 24 26  1  0  0  0  0
M  END
$$$$
default_name
  -OEChem-02102213163D

 29 28  0     1  0  0  0  0  0999 V2000
   -3.3998   -3.6239    1.3678 H   0  0  0  0  0  0  0  0  0  0  0  0
   -3.3608   -2.6749    0.8348 C   0  0  0  0  0  0  0  0  0  0  0  0
   -4.0988   -1.9909    1.2498 H   0  0  0  0  0  0  0  0  0  0  0  0
   -3.5618   -2.8419   -0.2222 H   0  0  0  0  0  0  0  0  0  0  0  0
   -1.9818   -2.0809    0.9918 C   0  0  0  0  0  0  0  0  0  0  0  0
   -1.1288   -2.6669    1.6468 O   0  0  0  0  0  0  0  0  0  0  0  0
   -1.7648   -0.9089    0.3998 N   0  0  0  0  0  0  0  0  0  0  0  0
   -2.5238   -0.4719   -0.1032 H   0  0  0  0  0  0  0  0  0  0  0  0
   -0.4848   -0.1959    0.4138 C   0  0  1  0  0  0  0  0  0  0  0  0
    0.2783   -0.8411   -0.0248 H   0  0  0  0  0  0  0  0  0  0  0  0
   -0.6101    1.0666   -0.4611 C   0  0  0  0  0  0  0  0  0  0  0  0
    0.0680    1.8263   -0.0668 H   0  0  0  0  0  0  0  0  0  0  0  0
   -0.2992    0.8272   -1.4791 H   0  0  0  0  0  0  0  0  0  0  0  0
   -2.0301    1.6578   -0.5008 C   0  0  0  0  0  0  0  0  0  0  0  0
   -2.5380    1.4567    0.4421 H   0  0  0  0  0  0  0  0  0  0  0  0
   -1.9603    2.7372   -0.6354 H   0  0  0  0  0  0  0  0  0  0  0  0
   -2.8878    1.0870   -1.6301 C   0  0  0  0  0  0  0  0  0  0  0  0
   -2.4664    0.3030   -2.4597 O   0  0  0  0  0  0  0  0  0  0  0  0
   -4.1483    1.4552   -1.7061 N   0  0  0  0  0  0  0  0  0  0  0  0
   -4.6653    1.0492   -2.4666 H   0  0  0  0  0  0  0  0  0  0  0  0
   -4.5462    2.0949   -1.0486 H   0  0  0  0  0  0  0  0  0  0  0  0
   -0.0637    0.1284    1.8555 C   0  0  0  0  0  0  0  0  0  0  0  0
    1.0918   -0.0745    2.2236 O   0  0  0  0  0  0  0  0  0  0  0  0
   -1.0024    0.6217    2.6735 N   0  0  0  0  0  0  0  0  0  0  0  0
   -1.9213    0.7848    2.2938 H   0  0  0  0  0  0  0  0  0  0  0  0
   -0.7639    0.9676    4.0741 C   0  0  0  0  0  0  0  0  0  0  0  0
    0.0520    1.6916    4.1400 H   0  0  0  0  0  0  0  0  0  0  0  0
   -1.6626    1.3984    4.5182 H   0  0  0  0  0  0  0  0  0  0  0  0
   -0.4775    0.0737    4.6309 H   0  0  0  0  0  0  0  0  0  0  0  0
  5  6  2  0  0  0  0
  5  7  1  0  0  0  0
  2  3  1  0  0  0  0
  2  4  1  0  0  0  0
  2  5  1  0  0  0  0
  1  2  1  0  0  0  0
 22 23  2  0  0  0  0
 22 24  1  0  0  0  0
 19 20  1  0  0  0  0
 19 21  1  0  0  0  0
 17 18  2  0  0  0  0
 17 19  1  0  0  0  0
 14 15  1  0  0  0  0
 14 16  1  0  0  0  0
 14 17  1  0  0  0  0
 11 12  1  0  0  0  0
 11 13  1  0  0  0  0
 11 14  1  0  0  0  0
  9 10  1  0  0  0  0
  9 11  1  0  0  0  0
  9 22  1  0  0  0  0
  7  8  1  0  0  0  0
  7  9  1  0  0  0  0
 26 27  1  0  0  0  0
 26 28  1  0  0  0  0
 26 29  1  0  0  0  0
 24 25  1  0  0  0  0
 24 26  1  0  0  0  0
M  END
$$$$
default_name
  -OEChem-02102213163D

 29 28  0     1  0  0  0  0  0999 V2000
   -3.3998   -3.6239    1.3678 H   0  0  0  0  0  0  0  0  0  0  0  0
   -3.3608   -2.6749    0.8348 C   0  0  0  0  0  0  0  0  0  0  0  0
   -4.0988   -1.9909    1.2498 H   0  0  0  0  0  0  0  0  0  0  0  0
   -3.5618   -2.8419   -0.2222 H   0  0  0  0  0  0  0  0  0  0  0  0
   -1.9818   -2.0809    0.9918 C   0  0  0  0  0  0  0  0  0  0  0  0
   -1.1288   -2.6669    1.6468 O   0  0  0  0  0  0  0  0  0  0  0  0
   -1.7648   -0.9089    0.3998 N   0  0  0  0  0  0  0  0  0  0  0  0
   -2.5238   -0.4719   -0.1032 H   0  0  0  0  0  0  0  0  0  0  0  0
   -0.4848   -0.1959    0.4138 C   0  0  1  0  0  0  0  0  0  0  0  0
    0.2783   -0.8411   -0.0248 H   0  0  0  0  0  0  0  0  0  0  0  0
   -0.6101    1.0666   -0.4611 C   0  0  0  0  0  0  0  0  0  0  0  0
    0.0680    1.8263   -0.0668 H   0  0  0  0  0  0  0  0  0  0  0  0
   -0.2992    0.8272   -1.4791 H   0  0  0  0  0  0  0  0  0  0  0  0
   -2.0301    1.6578   -0.5008 C   0  0  0  0  0  0  0  0  0  0  0  0
   -2.4398    1.6969    0.5082 H   0  0  0  0  0  0  0  0  0  0  0  0
   -1.9800    2.6724   -0.8959 H   0  0  0  0  0  0  0  0  0  0  0  0
   -2.9936    0.8504   -1.3705 C   0  0  0  0  0  0  0  0  0  0  0  0
   -2.6532   -0.1167   -2.0259 O   0  0  0  0  0  0  0  0  0  0  0  0
   -4.2574    1.2134   -1.4077 N   0  0  0  0  0  0  0  0  0  0  0  0
   -4.8458    0.6474   -1.9941 H   0  0  0  0  0  0  0  0  0  0  0  0
   -4.5907    1.9987   -0.8864 H   0  0  0  0  0  0  0  0  0  0  0  0
   -0.0637    0.1284    1.8555 C   0  0  0  0  0  0  0  0  0  0  0  0
    1.0918   -0.0745    2.2236 O   0  0  0  0  0  0  0  0  0  0  0  0
   -1.0024    0.6217    2.6735 N   0  0  0  0  0  0  0  0  0  0  0  0
   -1.9213    0.7848    2.2938 H   0  0  0  0  0  0  0  0  0  0  0  0
   -0.7639    0.9676    4.0741 C   0  0  0  0  0  0  0  0  0  0  0  0
    0.0520    1.6916    4.1400 H   0  0  0  0  0  0  0  0  0  0  0  0
   -1.6626    1.3984    4.5182 H   0  0  0  0  0  0  0  0  0  0  0  0
   -0.4775    0.0737    4.6309 H   0  0  0  0  0  0  0  0  0  0  0  0
  5  6  2  0  0  0  0
  5  7  1  0  0  0  0
  2  3  1  0  0  0  0
  2  4  1  0  0  0  0
  2  5  1  0  0  0  0
  1  2  1  0  0  0  0
 22 23  2  0  0  0  0
 22 24  1  0  0  0  0
 19 20  1  0  0  0  0
 19 21  1  0  0  0  0
 17 18  2  0  0  0  0
 17 19  1  0  0  0  0
 14 15  1  0  0  0  0
 14 16  1  0  0  0  0
 14 17  1  0  0  0  0
 11 12  1  0  0  0  0
 11 13  1  0  0  0  0
 11 14  1  0  0  0  0
  9 10  1  0  0  0  0
  9 11  1  0  0  0  0
  9 22  1  0  0  0  0
  7  8  1  0  0  0  0
  7  9  1  0  0  0  0
 26 27  1  0  0  0  0
 26 28  1  0  0  0  0
 26 29  1  0  0  0  0
 24 25  1  0  0  0  0
 24 26  1  0  0  0  0
M  END
$$$$
default_name
  -OEChem-02102213163D

 29 28  0     1  0  0  0  0  0999 V2000
   -3.3998   -3.6239    1.3678 H   0  0  0  0  0  0  0  0  0  0  0  0
   -3.3608   -2.6749    0.8348 C   0  0  0  0  0  0  0  0  0  0  0  0
   -4.0988   -1.9909    1.2498 H   0  0  0  0  0  0  0  0  0  0  0  0
   -3.5618   -2.8419   -0.2222 H   0  0  0  0  0  0  0  0  0  0  0  0
   -1.9818   -2.0809    0.9918 C   0  0  0  0  0  0  0  0  0  0  0  0
   -1.1288   -2.6669    1.6468 O   0  0  0  0  0  0  0  0  0  0  0  0
   -1.7648   -0.9089    0.3998 N   0  0  0  0  0  0  0  0  0  0  0  0
   -2.5238   -0.4719   -0.1032 H   0  0  0  0  0  0  0  0  0  0  0  0
   -0.4848   -0.1959    0.4138 C   0  0  1  0  0  0  0  0  0  0  0  0
    0.2783   -0.8411   -0.0248 H   0  0  0  0  0  0  0  0  0  0  0  0
   -0.6101    1.0666   -0.4611 C   0  0  0  0  0  0  0  0  0  0  0  0
    0.0680    1.8263   -0.0668 H   0  0  0  0  0  0  0  0  0  0  0  0
   -0.2992    0.8272   -1.4791 H   0  0  0  0  0  0  0  0  0  0  0  0
   -2.0301    1.6578   -0.5008 C   0  0  0  0  0  0  0  0  0  0  0  0
   -2.3368    1.9442    0.5049 H   0  0  0  0  0  0  0  0  0  0  0  0
   -2.0253    2.5478   -1.1301 H   0  0  0  0  0  0  0  0  0  0  0  0
   -3.0716    0.6845   -1.0528 C   0  0  0  0  0  0  0  0  0  0  0  0
   -2.7934   -0.4172   -1.4880 O   0  0  0  0  0  0  0  0  0  0  0  0
   -4.3346    1.0518   -1.0508 N   0  0  0  0  0  0  0  0  0  0  0  0
   -4.9759    0.3734   -1.4239 H   0  0  0  0  0  0  0  0  0  0  0  0
   -4.6183    1.9449   -0.7022 H   0  0  0  0  0  0  0  0  0  0  0  0
   -0.0637    0.1284    1.8555 C   0  0  0  0  0  0  0  0  0  0  0  0
    1.0918   -0.0745    2.2236 O   0  0  0  0  0  0  0  0  0  0  0  0
   -1.0024    0.6217    2.6735 N   0  0  0  0  0  0  0  0  0  0  0  0
   -1.9213    0.7848    2.2938 H   0  0  0  0  0  0  0  0  0  0  0  0
   -0.7639    0.9676    4.0741 C   0  0  0  0  0  0  0  0  0  0  0  0
    0.0520    1.6916    4.1400 H   0  0  0  0  0  0  0  0  0  0  0  0
   -1.6626    1.3984    4.5182 H   0  0  0  0  0  0  0  0  0  0  0  0
   -0.4775    0.0737    4.6309 H   0  0  0  0  0  0  0  0  0  0  0  0
  5  6  2  0  0  0  0
  5  7  1  0  0  0  0
  2  3  1  0  0  0  0
  2  4  1  0  0  0  0
  2  5  1  0  0  0  0
  1  2  1  0  0  0  0
 22 23  2  0  0  0  0
 22 24  1  0  0  0  0
 19 20  1  0  0  0  0
 19 21  1  0  0  0  0
 17 18  2  0  0  0  0
 17 19  1  0  0  0  0
 14 15  1  0  0  0  0
 14 16  1  0  0  0  0
 14 17  1  0  0  0  0
 11 12  1  0  0  0  0
 11 13  1  0  0  0  0
 11 14  1  0  0  0  0
  9 10  1  0  0  0  0
  9 11  1  0  0  0  0
  9 22  1  0  0  0  0
  7  8  1  0  0  0  0
  7  9  1  0  0  0  0
 26 27  1  0  0  0  0
 26 28  1  0  0  0  0
 26 29  1  0  0  0  0
 24 25  1  0  0  0  0
 24 26  1  0  0  0  0
M  END
$$$$
default_name
  -OEChem-02102213163D

 29 28  0     1  0  0  0  0  0999 V2000
   -3.3998   -3.6239    1.3678 H   0  0  0  0  0  0  0  0  0  0  0  0
   -3.3608   -2.6749    0.8348 C   0  0  0  0  0  0  0  0  0  0  0  0
   -4.0988   -1.9909    1.2498 H   0  0  0  0  0  0  0  0  0  0  0  0
   -3.5618   -2.8419   -0.2222 H   0  0  0  0  0  0  0  0  0  0  0  0
   -1.9818   -2.0809    0.9918 C   0  0  0  0  0  0  0  0  0  0  0  0
   -1.1288   -2.6669    1.6468 O   0  0  0  0  0  0  0  0  0  0  0  0
   -1.7648   -0.9089    0.3998 N   0  0  0  0  0  0  0  0  0  0  0  0
   -2.5238   -0.4719   -0.1032 H   0  0  0  0  0  0  0  0  0  0  0  0
   -0.4848   -0.1959    0.4138 C   0  0  1  0  0  0  0  0  0  0  0  0
    0.2783   -0.8411   -0.0248 H   0  0  0  0  0  0  0  0  0  0  0  0
   -0.6101    1.0666   -0.4611 C   0  0  0  0  0  0  0  0  0  0  0  0
    0.0680    1.8263   -0.0668 H   0  0  0  0  0  0  0  0  0  0  0  0
   -0.2992    0.8272   -1.4791 H   0  0  0  0  0  0  0  0  0  0  0  0
   -2.0301    1.6578   -0.5008 C   0  0  0  0  0  0  0  0  0  0  0  0
   -2.2360    2.1815    0.4324 H   0  0  0  0  0  0  0  0  0  0  0  0
   -2.0932    2.3718   -1.3220 H   0  0  0  0  0  0  0  0  0  0  0  0
   -3.1164    0.6006   -0.6984 C   0  0  0  0  0  0  0  0  0  0  0  0
   -2.8773   -0.5781   -0.8828 O   0  0  0  0  0  0  0  0  0  0  0  0
   -4.3748    0.9814   -0.6598 N   0  0  0  0  0  0  0  0  0  0  0  0
   -5.0466    0.2459   -0.7947 H   0  0  0  0  0  0  0  0  0  0  0  0
   -4.6269    1.9371   -0.5088 H   0  0  0  0  0  0  0  0  0  0  0  0
   -0.0637    0.1284    1.8555 C   0  0  0  0  0  0  0  0  0  0  0  0
    1.0918   -0.0745    2.2236 O   0  0  0  0  0  0  0  0  0  0  0  0
   -1.0024    0.6217    2.6735 N   0  0  0  0  0  0  0  0  0  0  0  0
   -1.9213    0.7848    2.2938 H   0  0  0  0  0  0  0  0  0  0  0  0
   -0.7639    0.9676    4.0741 C   0  0  0  0  0  0  0  0  0  0  0  0
    0.0520    1.6916    4.1400 H   0  0  0  0  0  0  0  0  0  0  0  0
   -1.6626    1.3984    4.5182 H   0  0  0  0  0  0  0  0  0  0  0  0
   -0.4775    0.0737    4.6309 H   0  0  0  0  0  0  0  0  0  0  0  0
  5  6  2  0  0  0  0
  5  7  1  0  0  0  0
  2  3  1  0  0  0  0
  2  4  1  0  0  0  0
  2  5  1  0  0  0  0
  1  2  1  0  0  0  0
 22 23  2  0  0  0  0
 22 24  1  0  0  0  0
 19 20  1  0  0  0  0
 19 21  1  0  0  0  0
 17 18  2  0  0  0  0
 17 19  1  0  0  0  0
 14 15  1  0  0  0  0
 14 16  1  0  0  0  0
 14 17  1  0  0  0  0
 11 12  1  0  0  0  0
 11 13  1  0  0  0  0
 11 14  1  0  0  0  0
  9 10  1  0  0  0  0
  9 11  1  0  0  0  0
  9 22  1  0  0  0  0
  7  8  1  0  0  0  0
  7  9  1  0  0  0  0
 26 27  1  0  0  0  0
 26 28  1  0  0  0  0
 26 29  1  0  0  0  0
 24 25  1  0  0  0  0
 24 26  1  0  0  0  0
M  END
$$$$
default_name
  -OEChem-02102213163D

 29 28  0     1  0  0  0  0  0999 V2000
   -3.3998   -3.6239    1.3678 H   0  0  0  0  0  0  0  0  0  0  0  0
   -3.3608   -2.6749    0.8348 C   0  0  0  0  0  0  0  0  0  0  0  0
   -4.0988   -1.9909    1.2498 H   0  0  0  0  0  0  0  0  0  0  0  0
   -3.5618   -2.8419   -0.2222 H   0  0  0  0  0  0  0  0  0  0  0  0
   -1.9818   -2.0809    0.9918 C   0  0  0  0  0  0  0  0  0  0  0  0
   -1.1288   -2.6669    1.6468 O   0  0  0  0  0  0  0  0  0  0  0  0
   -1.7648   -0.9089    0.3998 N   0  0  0  0  0  0  0  0  0  0  0  0
   -2.5238   -0.4719   -0.1032 H   0  0  0  0  0  0  0  0  0  0  0  0
   -0.4848   -0.1959    0.4138 C   0  0  1  0  0  0  0  0  0  0  0  0
    0.2783   -0.8411   -0.0248 H   0  0  0  0  0  0  0  0  0  0  0  0
   -0.6101    1.0666   -0.4611 C   0  0  0  0  0  0  0  0  0  0  0  0
    0.0680    1.8263   -0.0668 H   0  0  0  0  0  0  0  0  0  0  0  0
   -0.2992    0.8272   -1.4791 H   0  0  0  0  0  0  0  0  0  0  0  0
   -2.0301    1.6578   -0.5008 C   0  0  0  0  0  0  0  0  0  0  0  0
   -2.1442    2.3928    0.2957 H   0  0  0  0  0  0  0  0  0  0  0  0
   -2.1791    2.1563   -1.4586 H   0  0  0  0  0  0  0  0  0  0  0  0
   -3.1250    0.6046   -0.3317 C   0  0  0  0  0  0  0  0  0  0  0  0
   -2.8993   -0.5884   -0.2514 O   0  0  0  0  0  0  0  0  0  0  0  0
   -4.3753    1.0072   -0.2614 N   0  0  0  0  0  0  0  0  0  0  0  0
   -5.0532    0.2734   -0.1494 H   0  0  0  0  0  0  0  0  0  0  0  0
   -4.6161    1.9759   -0.3192 H   0  0  0  0  0  0  0  0  0  0  0  0
   -0.0637    0.1284    1.8555 C   0  0  0  0  0  0  0  0  0  0  0  0
    1.0918   -0.0745    2.2236 O   0  0  0  0  0  0  0  0  0  0  0  0
   -1.0024    0.6217    2.6735 N   0  0  0  0  0  0  0  0  0  0  0  0
   -1.9213    0.7848    2.2938 H   0  0  0  0  0  0  0  0  0  0  0  0
   -0.7639    0.9676    4.0741 C   0  0  0  0  0  0  0  0  0  0  0  0
    0.0520    1.6916    4.1400 H   0  0  0  0  0  0  0  0  0  0  0  0
   -1.6626    1.3984    4.5182 H   0  0  0  0  0  0  0  0  0  0  0  0
   -0.4775    0.0737    4.6309 H   0  0  0  0  0  0  0  0  0  0  0  0
  5  6  2  0  0  0  0
  5  7  1  0  0  0  0
  2  3  1  0  0  0  0
  2  4  1  0  0  0  0
  2  5  1  0  0  0  0
  1  2  1  0  0  0  0
 22 23  2  0  0  0  0
 22 24  1  0  0  0  0
 19 20  1  0  0  0  0
 19 21  1  0  0  0  0
 17 18  2  0  0  0  0
 17 19  1  0  0  0  0
 14 15  1  0  0  0  0
 14 16  1  0  0  0  0
 14 17  1  0  0  0  0
 11 12  1  0  0  0  0
 11 13  1  0  0  0  0
 11 14  1  0  0  0  0
  9 10  1  0  0  0  0
  9 11  1  0  0  0  0
  9 22  1  0  0  0  0
  7  8  1  0  0  0  0
  7  9  1  0  0  0  0
 26 27  1  0  0  0  0
 26 28  1  0  0  0  0
 26 29  1  0  0  0  0
 24 25  1  0  0  0  0
 24 26  1  0  0  0  0
M  END
$$$$
default_name
  -OEChem-02102213163D

 29 28  0     1  0  0  0  0  0999 V2000
   -3.3998   -3.6239    1.3678 H   0  0  0  0  0  0  0  0  0  0  0  0
   -3.3608   -2.6749    0.8348 C   0  0  0  0  0  0  0  0  0  0  0  0
   -4.0988   -1.9909    1.2498 H   0  0  0  0  0  0  0  0  0  0  0  0
   -3.5618   -2.8419   -0.2222 H   0  0  0  0  0  0  0  0  0  0  0  0
   -1.9818   -2.0809    0.9918 C   0  0  0  0  0  0  0  0  0  0  0  0
   -1.1288   -2.6669    1.6468 O   0  0  0  0  0  0  0  0  0  0  0  0
   -1.7648   -0.9089    0.3998 N   0  0  0  0  0  0  0  0  0  0  0  0
   -2.5238   -0.4719   -0.1032 H   0  0  0  0  0  0  0  0  0  0  0  0
   -0.4848   -0.1959    0.4138 C   0  0  1  0  0  0  0  0  0  0  0  0
    0.2783   -0.8411   -0.0248 H   0  0  0  0  0  0  0  0  0  0  0  0
   -0.6101    1.0666   -0.4611 C   0  0  0  0  0  0  0  0  0  0  0  0
    0.0680    1.8263   -0.0668 H   0  0  0  0  0  0  0  0  0  0  0  0
   -0.2992    0.8272   -1.4791 H   0  0  0  0  0  0  0  0  0  0  0  0
   -2.0301    1.6578   -0.5008 C   0  0  0  0  0  0  0  0  0  0  0  0
   -2.0677    2.5636    0.1040 H   0  0  0  0  0  0  0  0  0  0  0  0
   -2.2770    1.9162   -1.5305 H   0  0  0  0  0  0  0  0  0  0  0  0
   -3.0968    0.6961    0.0225 C   0  0  0  0  0  0  0  0  0  0  0  0
   -2.8577   -0.4473    0.3631 O   0  0  0  0  0  0  0  0  0  0  0  0
   -4.3359    1.1272    0.1174 N   0  0  0  0  0  0  0  0  0  0  0  0
   -4.9952    0.4542    0.4679 H   0  0  0  0  0  0  0  0  0  0  0  0
   -4.5866    2.0585   -0.1464 H   0  0  0  0  0  0  0  0  0  0  0  0
   -0.0637    0.1284    1.8555 C   0  0  0  0  0  0  0  0  0  0  0  0
    1.0918   -0.0745    2.2236 O   0  0  0  0  0  0  0  0  0  0  0  0
   -1.0024    0.6217    2.6735 N   0  0  0  0  0  0  0  0  0  0  0  0
   -1.9213    0.7848    2.2938 H   0  0  0  0  0  0  0  0  0  0  0  0
   -0.7639    0.9676    4.0741 C   0  0  0  0  0  0  0  0  0  0  0  0
    0.0520    1.6916    4.1400 H   0  0  0  0  0  0  0  0  0  0  0  0
   -1.6626    1.3984    4.5182 H   0  0  0  0  0  0  0  0  0  0  0  0
   -0.4775    0.0737    4.6309 H   0  0  0  0  0  0  0  0  0  0  0  0
  5  6  2  0  0  0  0
  5  7  1  0  0  0  0
  2  3  1  0  0  0  0
  2  4  1  0  0  0  0
  2  5  1  0  0  0  0
  1  2  1  0  0  0  0
 22 23  2  0  0  0  0
 22 24  1  0  0  0  0
 19 20  1  0  0  0  0
 19 21  1  0  0  0  0
 17 18  2  0  0  0  0
 17 19  1  0  0  0  0
 14 15  1  0  0  0  0
 14 16  1  0  0  0  0
 14 17  1  0  0  0  0
 11 12  1  0  0  0  0
 11 13  1  0  0  0  0
 11 14  1  0  0  0  0
  9 10  1  0  0  0  0
  9 11  1  0  0  0  0
  9 22  1  0  0  0  0
  7  8  1  0  0  0  0
  7  9  1  0  0  0  0
 26 27  1  0  0  0  0
 26 28  1  0  0  0  0
 26 29  1  0  0  0  0
 24 25  1  0  0  0  0
 24 26  1  0  0  0  0
M  END
$$$$
default_name
  -OEChem-02102213163D

 29 28  0     1  0  0  0  0  0999 V2000
   -3.3998   -3.6239    1.3678 H   0  0  0  0  0  0  0  0  0  0  0  0
   -3.3608   -2.6749    0.8348 C   0  0  0  0  0  0  0  0  0  0  0  0
   -4.0988   -1.9909    1.2498 H   0  0  0  0  0  0  0  0  0  0  0  0
   -3.5618   -2.8419   -0.2222 H   0  0  0  0  0  0  0  0  0  0  0  0
   -1.9818   -2.0809    0.9918 C   0  0  0  0  0  0  0  0  0  0  0  0
   -1.1288   -2.6669    1.6468 O   0  0  0  0  0  0  0  0  0  0  0  0
   -1.7648   -0.9089    0.3998 N   0  0  0  0  0  0  0  0  0  0  0  0
   -2.5238   -0.4719   -0.1032 H   0  0  0  0  0  0  0  0  0  0  0  0
   -0.4848   -0.1959    0.4138 C   0  0  1  0  0  0  0  0  0  0  0  0
    0.2783   -0.8411   -0.0248 H   0  0  0  0  0  0  0  0  0  0  0  0
   -0.6101    1.0666   -0.4611 C   0  0  0  0  0  0  0  0  0  0  0  0
    0.0680    1.8263   -0.0668 H   0  0  0  0  0  0  0  0  0  0  0  0
   -0.2992    0.8272   -1.4791 H   0  0  0  0  0  0  0  0  0  0  0  0
   -2.0301    1.6578   -0.5008 C   0  0  0  0  0  0  0  0  0  0  0  0
   -2.0118    2.6822   -0.1295 H   0  0  0  0  0  0  0  0  0  0  0  0
   -2.3804    1.6677   -1.5329 H   0  0  0  0  0  0  0  0  0  0  0  0
   -3.0338    0.8688    0.3399 C   0  0  0  0  0  0  0  0  0  0  0  0
   -2.7556   -0.1646    0.9189 O   0  0  0  0  0  0  0  0  0  0  0  0
   -4.2594    1.3333    0.4507 N   0  0  0  0  0  0  0  0  0  0  0  0
   -4.8766    0.7758    1.0153 H   0  0  0  0  0  0  0  0  0  0  0  0
   -4.5403    2.1794   -0.0022 H   0  0  0  0  0  0  0  0  0  0  0  0
   -0.0637    0.1284    1.8555 C   0  0  0  0  0  0  0  0  0  0  0  0
    1.0918   -0.0745    2.2236 O   0  0  0  0  0  0  0  0  0  0  0  0
   -1.0024    0.6217    2.6735 N   0  0  0  0  0  0  0  0  0  0  0  0
   -1.9213    0.7848    2.2938 H   0  0  0  0  0  0  0  0  0  0  0  0
   -0.7639    0.9676    4.0741 C   0  0  0  0  0  0  0  0  0  0  0  0
    0.0520    1.6916    4.1400 H   0  0  0  0  0  0  0  0  0  0  0  0
   -1.6626    1.3984    4.5182 H   0  0  0  0  0  0  0  0  0  0  0  0
   -0.4775    0.0737    4.6309 H   0  0  0  0  0  0  0  0  0  0  0  0
  5  6  2  0  0  0  0
  5  7  1  0  0  0  0
  2  3  1  0  0  0  0
  2  4  1  0  0  0  0
  2  5  1  0  0  0  0
  1  2  1  0  0  0  0
 22 23  2  0  0  0  0
 22 24  1  0  0  0  0
 19 20  1  0  0  0  0
 19 21  1  0  0  0  0
 17 18  2  0  0  0  0
 17 19  1  0  0  0  0
 14 15  1  0  0  0  0
 14 16  1  0  0  0  0
 14 17  1  0  0  0  0
 11 12  1  0  0  0  0
 11 13  1  0  0  0  0
 11 14  1  0  0  0  0
  9 10  1  0  0  0  0
  9 11  1  0  0  0  0
  9 22  1  0  0  0  0
  7  8  1  0  0  0  0
  7  9  1  0  0  0  0
 26 27  1  0  0  0  0
 26 28  1  0  0  0  0
 26 29  1  0  0  0  0
 24 25  1  0  0  0  0
 24 26  1  0  0  0  0
M  END
$$$$
default_name
  -OEChem-02102213163D

 29 28  0     1  0  0  0  0  0999 V2000
   -3.3998   -3.6239    1.3678 H   0  0  0  0  0  0  0  0  0  0  0  0
   -3.3608   -2.6749    0.8348 C   0  0  0  0  0  0  0  0  0  0  0  0
   -4.0988   -1.9909    1.2498 H   0  0  0  0  0  0  0  0  0  0  0  0
   -3.5618   -2.8419   -0.2222 H   0  0  0  0  0  0  0  0  0  0  0  0
   -1.9818   -2.0809    0.9918 C   0  0  0  0  0  0  0  0  0  0  0  0
   -1.1288   -2.6669    1.6468 O   0  0  0  0  0  0  0  0  0  0  0  0
   -1.7648   -0.9089    0.3998 N   0  0  0  0  0  0  0  0  0  0  0  0
   -2.5238   -0.4719   -0.1032 H   0  0  0  0  0  0  0  0  0  0  0  0
   -0.4848   -0.1959    0.4138 C   0  0  1  0  0  0  0  0  0  0  0  0
    0.2783   -0.8411   -0.0248 H   0  0  0  0  0  0  0  0  0  0  0  0
   -0.6101    1.0666   -0.4611 C   0  0  0  0  0  0  0  0  0  0  0  0
    0.0680    1.8263   -0.0668 H   0  0  0  0  0  0  0  0  0  0  0  0
   -0.2992    0.8272   -1.4791 H   0  0  0  0  0  0  0  0  0  0  0  0
   -2.0301    1.6578   -0.5008 C   0  0  0  0  0  0  0  0  0  0  0  0
   -1.9802    2.7407   -0.3890 H   0  0  0  0  0  0  0  0  0  0  0  0
   -2.4822    1.4279   -1.4656 H   0  0  0  0  0  0  0  0  0  0  0  0
   -2.9402    1.1111    0.5990 C   0  0  0  0  0  0  0  0  0  0  0  0
   -2.5997    0.2406    1.3780 O   0  0  0  0  0  0  0  0  0  0  0  0
   -4.1510    1.6116    0.7158 N   0  0  0  0  0  0  0  0  0  0  0  0
   -4.7054    1.2165    1.4554 H   0  0  0  0  0  0  0  0  0  0  0  0
   -4.4804    2.3303    0.1037 H   0  0  0  0  0  0  0  0  0  0  0  0
   -0.0637    0.1284    1.8555 C   0  0  0  0  0  0  0  0  0  0  0  0
    1.0918   -0.0745    2.2236 O   0  0  0  0  0  0  0  0  0  0  0  0
   -1.0024    0.6217    2.6735 N   0  0  0  0  0  0  0  0  0  0  0  0
   -1.9213    0.7848    2.2938 H   0  0  0  0  0  0  0  0  0  0  0  0
   -0.7639    0.9676    4.0741 C   0  0  0  0  0  0  0  0  0  0  0  0
    0.0520    1.6916    4.1400 H   0  0  0  0  0  0  0  0  0  0  0  0
   -1.6626    1.3984    4.5182 H   0  0  0  0  0  0  0  0  0  0  0  0
   -0.4775    0.0737    4.6309 H   0  0  0  0  0  0  0  0  0  0  0  0
  5  6  2  0  0  0  0
  5  7  1  0  0  0  0
  2  3  1  0  0  0  0
  2  4  1  0  0  0  0
  2  5  1  0  0  0  0
  1  2  1  0  0  0  0
 22 23  2  0  0  0  0
 22 24  1  0  0  0  0
 19 20  1  0  0  0  0
 19 21  1  0  0  0  0
 17 18  2  0  0  0  0
 17 19  1  0  0  0  0
 14 15  1  0  0  0  0
 14 16  1  0  0  0  0
 14 17  1  0  0  0  0
 11 12  1  0  0  0  0
 11 13  1  0  0  0  0
 11 14  1  0  0  0  0
  9 10  1  0  0  0  0
  9 11  1  0  0  0  0
  9 22  1  0  0  0  0
  7  8  1  0  0  0  0
  7  9  1  0  0  0  0
 26 27  1  0  0  0  0
 26 28  1  0  0  0  0
 26 29  1  0  0  0  0
 24 25  1  0  0  0  0
 24 26  1  0  0  0  0
M  END
$$$$
default_name
  -OEChem-02102213163D

 29 28  0     1  0  0  0  0  0999 V2000
   -3.3998   -3.6239    1.3678 H   0  0  0  0  0  0  0  0  0  0  0  0
   -3.3608   -2.6749    0.8348 C   0  0  0  0  0  0  0  0  0  0  0  0
   -4.0988   -1.9909    1.2498 H   0  0  0  0  0  0  0  0  0  0  0  0
   -3.5618   -2.8419   -0.2222 H   0  0  0  0  0  0  0  0  0  0  0  0
   -1.9818   -2.0809    0.9918 C   0  0  0  0  0  0  0  0  0  0  0  0
   -1.1288   -2.6669    1.6468 O   0  0  0  0  0  0  0  0  0  0  0  0
   -1.7648   -0.9089    0.3998 N   0  0  0  0  0  0  0  0  0  0  0  0
   -2.5238   -0.4719   -0.1032 H   0  0  0  0  0  0  0  0  0  0  0  0
   -0.4848   -0.1959    0.4138 C   0  0  1  0  0  0  0  0  0  0  0  0
    0.2783   -0.8411   -0.0248 H   0  0  0  0  0  0  0  0  0  0  0  0
   -0.6101    1.0666   -0.4611 C   0  0  0  0  0  0  0  0  0  0  0  0
    0.0680    1.8263   -0.0668 H   0  0  0  0  0  0  0  0  0  0  0  0
   -0.2992    0.8272   -1.4791 H   0  0  0  0  0  0  0  0  0  0  0  0
   -2.0301    1.6578   -0.5008 C   0  0  0  0  0  0  0  0  0  0  0  0
   -1.9751    2.7350   -0.6568 H   0  0  0  0  0  0  0  0  0  0  0  0
   -2.5754    1.2129   -1.3332 H   0  0  0  0  0  0  0  0  0  0  0  0
   -2.8223    1.4064    0.7821 C   0  0  0  0  0  0  0  0  0  0  0  0
   -2.4008    0.7406    1.7092 O   0  0  0  0  0  0  0  0  0  0  0  0
   -4.0181    1.9429    0.8946 N   0  0  0  0  0  0  0  0  0  0  0  0
   -4.4934    1.7461    1.7582 H   0  0  0  0  0  0  0  0  0  0  0  0
   -4.4110    2.5009    0.1639 H   0  0  0  0  0  0  0  0  0  0  0  0
   -0.0637    0.1284    1.8555 C   0  0  0  0  0  0  0  0  0  0  0  0
    1.0918   -0.0745    2.2236 O   0  0  0  0  0  0  0  0  0  0  0  0
   -1.0024    0.6217    2.6735 N   0  0  0  0  0  0  0  0  0  0  0  0
   -1.9213    0.7848    2.2938 H   0  0  0  0  0  0  0  0  0  0  0  0
   -0.7639    0.9676    4.0741 C   0  0  0  0  0  0  0  0  0  0  0  0
    0.0520    1.6916    4.1400 H   0  0  0  0  0  0  0  0  0  0  0  0
   -1.6626    1.3984    4.5182 H   0  0  0  0  0  0  0  0  0  0  0  0
   -0.4775    0.0737    4.6309 H   0  0  0  0  0  0  0  0  0  0  0  0
  5  6  2  0  0  0  0
  5  7  1  0  0  0  0
  2  3  1  0  0  0  0
  2  4  1  0  0  0  0
  2  5  1  0  0  0  0
  1  2  1  0  0  0  0
 22 23  2  0  0  0  0
 22 24  1  0  0  0  0
 19 20  1  0  0  0  0
 19 21  1  0  0  0  0
 17 18  2  0  0  0  0
 17 19  1  0  0  0  0
 14 15  1  0  0  0  0
 14 16  1  0  0  0  0
 14 17  1  0  0  0  0
 11 12  1  0  0  0  0
 11 13  1  0  0  0  0
 11 14  1  0  0  0  0
  9 10  1  0  0  0  0
  9 11  1  0  0  0  0
  9 22  1  0  0  0  0
  7  8  1  0  0  0  0
  7  9  1  0  0  0  0
 26 27  1  0  0  0  0
 26 28  1  0  0  0  0
 26 29  1  0  0  0  0
 24 25  1  0  0  0  0
 24 26  1  0  0  0  0
M  END
$$$$
default_name
  -OEChem-02102213163D

 29 28  0     1  0  0  0  0  0999 V2000
   -3.3998   -3.6239    1.3678 H   0  0  0  0  0  0  0  0  0  0  0  0
   -3.3608   -2.6749    0.8348 C   0  0  0  0  0  0  0  0  0  0  0  0
   -4.0988   -1.9909    1.2498 H   0  0  0  0  0  0  0  0  0  0  0  0
   -3.5618   -2.8419   -0.2222 H   0  0  0  0  0  0  0  0  0  0  0  0
   -1.9818   -2.0809    0.9918 C   0  0  0  0  0  0  0  0  0  0  0  0
   -1.1288   -2.6669    1.6468 O   0  0  0  0  0  0  0  0  0  0  0  0
   -1.7648   -0.9089    0.3998 N   0  0  0  0  0  0  0  0  0  0  0  0
   -2.5238   -0.4719   -0.1032 H   0  0  0  0  0  0  0  0  0  0  0  0
   -0.4848   -0.1959    0.4138 C   0  0  1  0  0  0  0  0  0  0  0  0
    0.2783   -0.8411   -0.0248 H   0  0  0  0  0  0  0  0  0  0  0  0
   -0.6101    1.0666   -0.4611 C   0  0  0  0  0  0  0  0  0  0  0  0
    0.0680    1.8263   -0.0668 H   0  0  0  0  0  0  0  0  0  0  0  0
   -0.2992    0.8272   -1.4791 H   0  0  0  0  0  0  0  0  0  0  0  0
   -2.0301    1.6578   -0.5008 C   0  0  0  0  0  0  0  0  0  0  0  0
   -1.9968    2.6655   -0.9146 H   0  0  0  0  0  0  0  0  0  0  0  0
   -2.6536    1.0375   -1.1446 H   0  0  0  0  0  0  0  0  0  0  0  0
   -2.6884    1.7346    0.8766 C   0  0  0  0  0  0  0  0  0  0  0  0
   -2.1724    1.3013    1.8899 O   0  0  0  0  0  0  0  0  0  0  0  0
   -3.8697    2.3048    0.9750 N   0  0  0  0  0  0  0  0  0  0  0  0
   -4.2550    2.3286    1.9031 H   0  0  0  0  0  0  0  0  0  0  0  0
   -4.3369    2.6797    0.1745 H   0  0  0  0  0  0  0  0  0  0  0  0
   -0.0637    0.1284    1.8555 C   0  0  0  0  0  0  0  0  0  0  0  0
    1.0918   -0.0745    2.2236 O   0  0  0  0  0  0  0  0  0  0  0  0
   -1.0024    0.6217    2.6735 N   0  0  0  0  0  0  0  0  0  0  0  0
   -1.9213    0.7848    2.2938 H   0  0  0  0  0  0  0  0  0  0  0  0
   -0.7639    0.9676    4.0741 C   0  0  0  0  0  0  0  0  0  0  0  0
    0.0520    1.6916    4.1400 H   0  0  0  0  0  0  0  0  0  0  0  0
   -1.6626    1.3984    4.5182 H   0  0  0  0  0  0  0  0  0  0  0  0
   -0.4775    0.0737    4.6309 H   0  0  0  0  0  0  0  0  0  0  0  0
  5  6  2  0  0  0  0
  5  7  1  0  0  0  0
  2  3  1  0  0  0  0
  2  4  1  0  0  0  0
  2  5  1  0  0  0  0
  1  2  1  0  0  0  0
 22 23  2  0  0  0  0
 22 24  1  0  0  0  0
 19 20  1  0  0  0  0
 19 21  1  0  0  0  0
 17 18  2  0  0  0  0
 17 19  1  0  0  0  0
 14 15  1  0  0  0  0
 14 16  1  0  0  0  0
 14 17  1  0  0  0  0
 11 12  1  0  0  0  0
 11 13  1  0  0  0  0
 11 14  1  0  0  0  0
  9 10  1  0  0  0  0
  9 11  1  0  0  0  0
  9 22  1  0  0  0  0
  7  8  1  0  0  0  0
  7  9  1  0  0  0  0
 26 27  1  0  0  0  0
 26 28  1  0  0  0  0
 26 29  1  0  0  0  0
 24 25  1  0  0  0  0
 24 26  1  0  0  0  0
M  END
$$$$
default_name
  -OEChem-02102213163D

 29 28  0     1  0  0  0  0  0999 V2000
   -3.3998   -3.6239    1.3678 H   0  0  0  0  0  0  0  0  0  0  0  0
   -3.3608   -2.6749    0.8348 C   0  0  0  0  0  0  0  0  0  0  0  0
   -4.0988   -1.9909    1.2498 H   0  0  0  0  0  0  0  0  0  0  0  0
   -3.5618   -2.8419   -0.2222 H   0  0  0  0  0  0  0  0  0  0  0  0
   -1.9818   -2.0809    0.9918 C   0  0  0  0  0  0  0  0  0  0  0  0
   -1.1288   -2.6669    1.6468 O   0  0  0  0  0  0  0  0  0  0  0  0
   -1.7648   -0.9089    0.3998 N   0  0  0  0  0  0  0  0  0  0  0  0
   -2.5238   -0.4719   -0.1032 H   0  0  0  0  0  0  0  0  0  0  0  0
   -0.4848   -0.1959    0.4138 C   0  0  1  0  0  0  0  0  0  0  0  0
    0.2783   -0.8411   -0.0248 H   0  0  0  0  0  0  0  0  0  0  0  0
   -0.6101    1.0666   -0.4611 C   0  0  0  0  0  0  0  0  0  0  0  0
    0.0680    1.8263   -0.0668 H   0  0  0  0  0  0  0  0  0  0  0  0
   -0.2992    0.8272   -1.4791 H   0  0  0  0  0  0  0  0  0  0  0  0
   -2.0301    1.6578   -0.5008 C   0  0  0  0  0  0  0  0  0  0  0  0
   -2.0439    2.5369   -1.1448 H   0  0  0  0  0  0  0  0  0  0  0  0
   -2.7117    0.9137   -0.9128 H   0  0  0  0  0  0  0  0  0  0  0  0
   -2.5474    2.0733    0.8763 C   0  0  0  0  0  0  0  0  0  0  0  0
   -1.9301    1.8846    1.9078 O   0  0  0  0  0  0  0  0  0  0  0  0
   -3.7159    2.6725    0.9514 N   0  0  0  0  0  0  0  0  0  0  0  0
   -4.0063    2.9243    1.8802 H   0  0  0  0  0  0  0  0  0  0  0  0
   -4.2631    2.8544    0.1346 H   0  0  0  0  0  0  0  0  0  0  0  0
   -0.0637    0.1284    1.8555 C   0  0  0  0  0  0  0  0  0  0  0  0
    1.0918   -0.0745    2.2236 O   0  0  0  0  0  0  0  0  0  0  0  0
   -1.0024    0.6217    2.6735 N   0  0  0  0  0  0  0  0  0  0  0  0
   -1.9213    0.7848    2.2938 H   0  0  0  0  0  0  0  0  0  0  0  0
   -0.7639    0.9676    4.0741 C   0  0  0  0  0  0  0  0  0  0  0  0
    0.0520    1.6916    4.1400 H   0  0  0  0  0  0  0  0  0  0  0  0
   -1.6626    1.3984    4.5182 H   0  0  0  0  0  0  0  0  0  0  0  0
   -0.4775    0.0737    4.6309 H   0  0  0  0  0  0  0  0  0  0  0  0
  5  6  2  0  0  0  0
  5  7  1  0  0  0  0
  2  3  1  0  0  0  0
  2  4  1  0  0  0  0
  2  5  1  0  0  0  0
  1  2  1  0  0  0  0
 22 23  2  0  0  0  0
 22 24  1  0  0  0  0
 19 20  1  0  0  0  0
 19 21  1  0  0  0  0
 17 18  2  0  0  0  0
 17 19  1  0  0  0  0
 14 15  1  0  0  0  0
 14 16  1  0  0  0  0
 14 17  1  0  0  0  0
 11 12  1  0  0  0  0
 11 13  1  0  0  0  0
 11 14  1  0  0  0  0
  9 10  1  0  0  0  0
  9 11  1  0  0  0  0
  9 22  1  0  0  0  0
  7  8  1  0  0  0  0
  7  9  1  0  0  0  0
 26 27  1  0  0  0  0
 26 28  1  0  0  0  0
 26 29  1  0  0  0  0
 24 25  1  0  0  0  0
 24 26  1  0  0  0  0
M  END
$$$$
default_name
  -OEChem-02102213163D

 29 28  0     1  0  0  0  0  0999 V2000
   -3.3998   -3.6239    1.3678 H   0  0  0  0  0  0  0  0  0  0  0  0
   -3.3608   -2.6749    0.8348 C   0  0  0  0  0  0  0  0  0  0  0  0
   -4.0988   -1.9909    1.2498 H   0  0  0  0  0  0  0  0  0  0  0  0
   -3.5618   -2.8419   -0.2222 H   0  0  0  0  0  0  0  0  0  0  0  0
   -1.9818   -2.0809    0.9918 C   0  0  0  0  0  0  0  0  0  0  0  0
   -1.1288   -2.6669    1.6468 O   0  0  0  0  0  0  0  0  0  0  0  0
   -1.7648   -0.9089    0.3998 N   0  0  0  0  0  0  0  0  0  0  0  0
   -2.5238   -0.4719   -0.1032 H   0  0  0  0  0  0  0  0  0  0  0  0
   -0.4848   -0.1959    0.4138 C   0  0  1  0  0  0  0  0  0  0  0  0
    0.2783   -0.8411   -0.0248 H   0  0  0  0  0  0  0  0  0  0  0  0
   -0.6101    1.0666   -0.4611 C   0  0  0  0  0  0  0  0  0  0  0  0
    0.0680    1.8263   -0.0668 H   0  0  0  0  0  0  0  0  0  0  0  0
   -0.2992    0.8272   -1.4791 H   0  0  0  0  0  0  0  0  0  0  0  0
   -2.0301    1.6578   -0.5008 C   0  0  0  0  0  0  0  0  0  0  0  0
   -2.1131    2.3580   -1.3318 H   0  0  0  0  0  0  0  0  0  0  0  0
   -2.7455    0.8498   -0.6536 H   0  0  0  0  0  0  0  0  0  0  0  0
   -2.4089    2.3994    0.7810 C   0  0  0  0  0  0  0  0  0  0  0  0
   -1.6904    2.4506    1.7617 O   0  0  0  0  0  0  0  0  0  0  0  0
   -3.5673    3.0211    0.8255 N   0  0  0  0  0  0  0  0  0  0  0  0
   -3.7645    3.4925    1.6911 H   0  0  0  0  0  0  0  0  0  0  0  0
   -4.1945    3.0131    0.0470 H   0  0  0  0  0  0  0  0  0  0  0  0
   -0.0637    0.1284    1.8555 C   0  0  0  0  0  0  0  0  0  0  0  0
    1.0918   -0.0745    2.2236 O   0  0  0  0  0  0  0  0  0  0  0  0
   -1.0024    0.6217    2.6735 N   0  0  0  0  0  0  0  0  0  0  0  0
   -1.9213    0.7848    2.2938 H   0  0  0  0  0  0  0  0  0  0  0  0
   -0.7639    0.9676    4.0741 C   0  0  0  0  0  0  0  0  0  0  0  0
    0.0520    1.6916    4.1400 H   0  0  0  0  0  0  0  0  0  0  0  0
   -1.6626    1.3984    4.5182 H   0  0  0  0  0  0  0  0  0  0  0  0
   -0.4775    0.0737    4.6309 H   0  0  0  0  0  0  0  0  0  0  0  0
  5  6  2  0  0  0  0
  5  7  1  0  0  0  0
  2  3  1  0  0  0  0
  2  4  1  0  0  0  0
  2  5  1  0  0  0  0
  1  2  1  0  0  0  0
 22 23  2  0  0  0  0
 22 24  1  0  0  0  0
 19 20  1  0  0  0  0
 19 21  1  0  0  0  0
 17 18  2  0  0  0  0
 17 19  1  0  0  0  0
 14 15  1  0  0  0  0
 14 16  1  0  0  0  0
 14 17  1  0  0  0  0
 11 12  1  0  0  0  0
 11 13  1  0  0  0  0
 11 14  1  0  0  0  0
  9 10  1  0  0  0  0
  9 11  1  0  0  0  0
  9 22  1  0  0  0  0
  7  8  1  0  0  0  0
  7  9  1  0  0  0  0
 26 27  1  0  0  0  0
 26 28  1  0  0  0  0
 26 29  1  0  0  0  0
 24 25  1  0  0  0  0
 24 26  1  0  0  0  0
M  END
$$$$
default_name
  -OEChem-02102213163D

 29 28  0     1  0  0  0  0  0999 V2000
   -3.3998   -3.6239    1.3678 H   0  0  0  0  0  0  0  0  0  0  0  0
   -3.3608   -2.6749    0.8348 C   0  0  0  0  0  0  0  0  0  0  0  0
   -4.0988   -1.9909    1.2498 H   0  0  0  0  0  0  0  0  0  0  0  0
   -3.5618   -2.8419   -0.2222 H   0  0  0  0  0  0  0  0  0  0  0  0
   -1.9818   -2.0809    0.9918 C   0  0  0  0  0  0  0  0  0  0  0  0
   -1.1288   -2.6669    1.6468 O   0  0  0  0  0  0  0  0  0  0  0  0
   -1.7648   -0.9089    0.3998 N   0  0  0  0  0  0  0  0  0  0  0  0
   -2.5238   -0.4719   -0.1032 H   0  0  0  0  0  0  0  0  0  0  0  0
   -0.4848   -0.1959    0.4138 C   0  0  1  0  0  0  0  0  0  0  0  0
    0.2783   -0.8411   -0.0248 H   0  0  0  0  0  0  0  0  0  0  0  0
   -0.6101    1.0666   -0.4611 C   0  0  0  0  0  0  0  0  0  0  0  0
    0.0680    1.8263   -0.0668 H   0  0  0  0  0  0  0  0  0  0  0  0
   -0.2992    0.8272   -1.4791 H   0  0  0  0  0  0  0  0  0  0  0  0
   -2.0301    1.6578   -0.5008 C   0  0  0  0  0  0  0  0  0  0  0  0
   -2.1998    2.1410   -1.4628 H   0  0  0  0  0  0  0  0  0  0  0  0
   -2.7529    0.8503   -0.3846 H   0  0  0  0  0  0  0  0  0  0  0  0
   -2.2825    2.6907    0.5974 C   0  0  0  0  0  0  0  0  0  0  0  0
   -1.4695    2.9609    1.4615 O   0  0  0  0  0  0  0  0  0  0  0  0
   -3.4339    3.3267    0.6059 N   0  0  0  0  0  0  0  0  0  0  0  0
   -3.5458    3.9946    1.3487 H   0  0  0  0  0  0  0  0  0  0  0  0
   -4.1360    3.1450   -0.0824 H   0  0  0  0  0  0  0  0  0  0  0  0
   -0.0637    0.1284    1.8555 C   0  0  0  0  0  0  0  0  0  0  0  0
    1.0918   -0.0745    2.2236 O   0  0  0  0  0  0  0  0  0  0  0  0
   -1.0024    0.6217    2.6735 N   0  0  0  0  0  0  0  0  0  0  0  0
   -1.9213    0.7848    2.2938 H   0  0  0  0  0  0  0  0  0  0  0  0
   -0.7639    0.9676    4.0741 C   0  0  0  0  0  0  0  0  0  0  0  0
    0.0520    1.6916    4.1400 H   0  0  0  0  0  0  0  0  0  0  0  0
   -1.6626    1.3984    4.5182 H   0  0  0  0  0  0  0  0  0  0  0  0
   -0.4775    0.0737    4.6309 H   0  0  0  0  0  0  0  0  0  0  0  0
  5  6  2  0  0  0  0
  5  7  1  0  0  0  0
  2  3  1  0  0  0  0
  2  4  1  0  0  0  0
  2  5  1  0  0  0  0
  1  2  1  0  0  0  0
 22 23  2  0  0  0  0
 22 24  1  0  0  0  0
 19 20  1  0  0  0  0
 19 21  1  0  0  0  0
 17 18  2  0  0  0  0
 17 19  1  0  0  0  0
 14 15  1  0  0  0  0
 14 16  1  0  0  0  0
 14 17  1  0  0  0  0
 11 12  1  0  0  0  0
 11 13  1  0  0  0  0
 11 14  1  0  0  0  0
  9 10  1  0  0  0  0
  9 11  1  0  0  0  0
  9 22  1  0  0  0  0
  7  8  1  0  0  0  0
  7  9  1  0  0  0  0
 26 27  1  0  0  0  0
 26 28  1  0  0  0  0
 26 29  1  0  0  0  0
 24 25  1  0  0  0  0
 24 26  1  0  0  0  0
M  END
$$$$
default_name
  -OEChem-02102213163D

 29 28  0     1  0  0  0  0  0999 V2000
   -3.3998   -3.6239    1.3678 H   0  0  0  0  0  0  0  0  0  0  0  0
   -3.3608   -2.6749    0.8348 C   0  0  0  0  0  0  0  0  0  0  0  0
   -4.0988   -1.9909    1.2498 H   0  0  0  0  0  0  0  0  0  0  0  0
   -3.5618   -2.8419   -0.2222 H   0  0  0  0  0  0  0  0  0  0  0  0
   -1.9818   -2.0809    0.9918 C   0  0  0  0  0  0  0  0  0  0  0  0
   -1.1288   -2.6669    1.6468 O   0  0  0  0  0  0  0  0  0  0  0  0
   -1.7648   -0.9089    0.3998 N   0  0  0  0  0  0  0  0  0  0  0  0
   -2.5238   -0.4719   -0.1032 H   0  0  0  0  0  0  0  0  0  0  0  0
   -0.4848   -0.1959    0.4138 C   0  0  1  0  0  0  0  0  0  0  0  0
    0.2783   -0.8411   -0.0248 H   0  0  0  0  0  0  0  0  0  0  0  0
   -0.6101    1.0666   -0.4611 C   0  0  0  0  0  0  0  0  0  0  0  0
    0.0680    1.8263   -0.0668 H   0  0  0  0  0  0  0  0  0  0  0  0
   -0.2992    0.8272   -1.4791 H   0  0  0  0  0  0  0  0  0  0  0  0
   -2.0301    1.6578   -0.5008 C   0  0  0  0  0  0  0  0  0  0  0  0
   -2.2980    1.9007   -1.5289 H   0  0  0  0  0  0  0  0  0  0  0  0
   -2.7332    0.9150   -0.1241 H   0  0  0  0  0  0  0  0  0  0  0  0
   -2.1767    2.9274    0.3378 C   0  0  0  0  0  0  0  0  0  0  0  0
   -1.2827    3.3806    1.0277 O   0  0  0  0  0  0  0  0  0  0  0  0
   -3.3248    3.5685    0.3074 N   0  0  0  0  0  0  0  0  0  0  0  0
   -3.3654    4.3963    0.8763 H   0  0  0  0  0  0  0  0  0  0  0  0
   -4.0914    3.2411   -0.2447 H   0  0  0  0  0  0  0  0  0  0  0  0
   -0.0637    0.1284    1.8555 C   0  0  0  0  0  0  0  0  0  0  0  0
    1.0918   -0.0745    2.2236 O   0  0  0  0  0  0  0  0  0  0  0  0
   -1.0024    0.6217    2.6735 N   0  0  0  0  0  0  0  0  0  0  0  0
   -1.9213    0.7848    2.2938 H   0  0  0  0  0  0  0  0  0  0  0  0
   -0.7639    0.9676    4.0741 C   0  0  0  0  0  0  0  0  0  0  0  0
    0.0520    1.6916    4.1400 H   0  0  0  0  0  0  0  0  0  0  0  0
   -1.6626    1.3984    4.5182 H   0  0  0  0  0  0  0  0  0  0  0  0
   -0.4775    0.0737    4.6309 H   0  0  0  0  0  0  0  0  0  0  0  0
  5  6  2  0  0  0  0
  5  7  1  0  0  0  0
  2  3  1  0  0  0  0
  2  4  1  0  0  0  0
  2  5  1  0  0  0  0
  1  2  1  0  0  0  0
 22 23  2  0  0  0  0
 22 24  1  0  0  0  0
 19 20  1  0  0  0  0
 19 21  1  0  0  0  0
 17 18  2  0  0  0  0
 17 19  1  0  0  0  0
 14 15  1  0  0  0  0
 14 16  1  0  0  0  0
 14 17  1  0  0  0  0
 11 12  1  0  0  0  0
 11 13  1  0  0  0  0
 11 14  1  0  0  0  0
  9 10  1  0  0  0  0
  9 11  1  0  0  0  0
  9 22  1  0  0  0  0
  7  8  1  0  0  0  0
  7  9  1  0  0  0  0
 26 27  1  0  0  0  0
 26 28  1  0  0  0  0
 26 29  1  0  0  0  0
 24 25  1  0  0  0  0
 24 26  1  0  0  0  0
M  END
$$$$
default_name
  -OEChem-02102213163D

 29 28  0     1  0  0  0  0  0999 V2000
   -3.3998   -3.6239    1.3678 H   0  0  0  0  0  0  0  0  0  0  0  0
   -3.3608   -2.6749    0.8348 C   0  0  0  0  0  0  0  0  0  0  0  0
   -4.0988   -1.9909    1.2498 H   0  0  0  0  0  0  0  0  0  0  0  0
   -3.5618   -2.8419   -0.2222 H   0  0  0  0  0  0  0  0  0  0  0  0
   -1.9818   -2.0809    0.9918 C   0  0  0  0  0  0  0  0  0  0  0  0
   -1.1288   -2.6669    1.6468 O   0  0  0  0  0  0  0  0  0  0  0  0
   -1.7648   -0.9089    0.3998 N   0  0  0  0  0  0  0  0  0  0  0  0
   -2.5238   -0.4719   -0.1032 H   0  0  0  0  0  0  0  0  0  0  0  0
   -0.4848   -0.1959    0.4138 C   0  0  1  0  0  0  0  0  0  0  0  0
    0.2783   -0.8411   -0.0248 H   0  0  0  0  0  0  0  0  0  0  0  0
   -0.6101    1.0666   -0.4611 C   0  0  0  0  0  0  0  0  0  0  0  0
    0.0680    1.8263   -0.0668 H   0  0  0  0  0  0  0  0  0  0  0  0
   -0.2992    0.8272   -1.4791 H   0  0  0  0  0  0  0  0  0  0  0  0
   -2.0301    1.6578   -0.5008 C   0  0  0  0  0  0  0  0  0  0  0  0
   -2.4010    1.6535   -1.5256 H   0  0  0  0  0  0  0  0  0  0  0  0
   -2.6879    1.0397    0.1101 H   0  0  0  0  0  0  0  0  0  0  0  0
   -2.0987    3.0933    0.0200 C   0  0  0  0  0  0  0  0  0  0  0  0
   -1.1425    3.6811    0.4898 O   0  0  0  0  0  0  0  0  0  0  0  0
   -3.2476    3.7301   -0.0494 N   0  0  0  0  0  0  0  0  0  0  0  0
   -3.2353    4.6703    0.3060 H   0  0  0  0  0  0  0  0  0  0  0  0
   -4.0639    3.2949   -0.4288 H   0  0  0  0  0  0  0  0  0  0  0  0
   -0.0637    0.1284    1.8555 C   0  0  0  0  0  0  0  0  0  0  0  0
    1.0918   -0.0745    2.2236 O   0  0  0  0  0  0  0  0  0  0  0  0
   -1.0024    0.6217    2.6735 N   0  0  0  0  0  0  0  0  0  0  0  0
   -1.9213    0.7848    2.2938 H   0  0  0  0  0  0  0  0  0  0  0  0
   -0.7639    0.9676    4.0741 C   0  0  0  0  0  0  0  0  0  0  0  0
    0.0520    1.6916    4.1400 H   0  0  0  0  0  0  0  0  0  0  0  0
   -1.6626    1.3984    4.5182 H   0  0  0  0  0  0  0  0  0  0  0  0
   -0.4775    0.0737    4.6309 H   0  0  0  0  0  0  0  0  0  0  0  0
  5  6  2  0  0  0  0
  5  7  1  0  0  0  0
  2  3  1  0  0  0  0
  2  4  1  0  0  0  0
  2  5  1  0  0  0  0
  1  2  1  0  0  0  0
 22 23  2  0  0  0  0
 22 24  1  0  0  0  0
 19 20  1  0  0  0  0
 19 21  1  0  0  0  0
 17 18  2  0  0  0  0
 17 19  1  0  0  0  0
 14 15  1  0  0  0  0
 14 16  1  0  0  0  0
 14 17  1  0  0  0  0
 11 12  1  0  0  0  0
 11 13  1  0  0  0  0
 11 14  1  0  0  0  0
  9 10  1  0  0  0  0
  9 11  1  0  0  0  0
  9 22  1  0  0  0  0
  7  8  1  0  0  0  0
  7  9  1  0  0  0  0
 26 27  1  0  0  0  0
 26 28  1  0  0  0  0
 26 29  1  0  0  0  0
 24 25  1  0  0  0  0
 24 26  1  0  0  0  0
M  END
$$$$
default_name
  -OEChem-02102213163D

 29 28  0     1  0  0  0  0  0999 V2000
   -3.3998   -3.6239    1.3678 H   0  0  0  0  0  0  0  0  0  0  0  0
   -3.3608   -2.6749    0.8348 C   0  0  0  0  0  0  0  0  0  0  0  0
   -4.0988   -1.9909    1.2498 H   0  0  0  0  0  0  0  0  0  0  0  0
   -3.5618   -2.8419   -0.2222 H   0  0  0  0  0  0  0  0  0  0  0  0
   -1.9818   -2.0809    0.9918 C   0  0  0  0  0  0  0  0  0  0  0  0
   -1.1288   -2.6669    1.6468 O   0  0  0  0  0  0  0  0  0  0  0  0
   -1.7648   -0.9089    0.3998 N   0  0  0  0  0  0  0  0  0  0  0  0
   -2.5238   -0.4719   -0.1032 H   0  0  0  0  0  0  0  0  0  0  0  0
   -0.4848   -0.1959    0.4138 C   0  0  1  0  0  0  0  0  0  0  0  0
    0.2783   -0.8411   -0.0248 H   0  0  0  0  0  0  0  0  0  0  0  0
   -0.6101    1.0666   -0.4611 C   0  0  0  0  0  0  0  0  0  0  0  0
    0.0680    1.8263   -0.0668 H   0  0  0  0  0  0  0  0  0  0  0  0
   -0.2992    0.8272   -1.4791 H   0  0  0  0  0  0  0  0  0  0  0  0
   -2.0301    1.6578   -0.5008 C   0  0  0  0  0  0  0  0  0  0  0  0
   -2.5018    1.4162   -1.4531 H   0  0  0  0  0  0  0  0  0  0  0  0
   -2.6200    1.2157    0.3020 H   0  0  0  0  0  0  0  0  0  0  0  0
   -2.0539    3.1771   -0.3343 C   0  0  0  0  0  0  0  0  0  0  0  0
   -1.0586    3.8419   -0.1154 O   0  0  0  0  0  0  0  0  0  0  0  0
   -3.2073    3.8005   -0.4404 N   0  0  0  0  0  0  0  0  0  0  0  0
   -3.1646    4.7979   -0.3232 H   0  0  0  0  0  0  0  0  0  0  0  0
   -4.0552    3.3027   -0.6223 H   0  0  0  0  0  0  0  0  0  0  0  0
   -0.0637    0.1284    1.8555 C   0  0  0  0  0  0  0  0  0  0  0  0
    1.0918   -0.0745    2.2236 O   0  0  0  0  0  0  0  0  0  0  0  0
   -1.0024    0.6217    2.6735 N   0  0  0  0  0  0  0  0  0  0  0  0
   -1.9213    0.7848    2.2938 H   0  0  0  0  0  0  0  0  0  0  0  0
   -0.7639    0.9676    4.0741 C   0  0  0  0  0  0  0  0  0  0  0  0
    0.0520    1.6916    4.1400 H   0  0  0  0  0  0  0  0  0  0  0  0
   -1.6626    1.3984    4.5182 H   0  0  0  0  0  0  0  0  0  0  0  0
   -0.4775    0.0737    4.6309 H   0  0  0  0  0  0  0  0  0  0  0  0
  5  6  2  0  0  0  0
  5  7  1  0  0  0  0
  2  3  1  0  0  0  0
  2  4  1  0  0  0  0
  2  5  1  0  0  0  0
  1  2  1  0  0  0  0
 22 23  2  0  0  0  0
 22 24  1  0  0  0  0
 19 20  1  0  0  0  0
 19 21  1  0  0  0  0
 17 18  2  0  0  0  0
 17 19  1  0  0  0  0
 14 15  1  0  0  0  0
 14 16  1  0  0  0  0
 14 17  1  0  0  0  0
 11 12  1  0  0  0  0
 11 13  1  0  0  0  0
 11 14  1  0  0  0  0
  9 10  1  0  0  0  0
  9 11  1  0  0  0  0
  9 22  1  0  0  0  0
  7  8  1  0  0  0  0
  7  9  1  0  0  0  0
 26 27  1  0  0  0  0
 26 28  1  0  0  0  0
 26 29  1  0  0  0  0
 24 25  1  0  0  0  0
 24 26  1  0  0  0  0
M  END
$$$$
default_name
  -OEChem-02102213163D

 29 28  0     1  0  0  0  0  0999 V2000
   -3.3998   -3.6239    1.3678 H   0  0  0  0  0  0  0  0  0  0  0  0
   -3.3608   -2.6749    0.8348 C   0  0  0  0  0  0  0  0  0  0  0  0
   -4.0988   -1.9909    1.2498 H   0  0  0  0  0  0  0  0  0  0  0  0
   -3.5618   -2.8419   -0.2222 H   0  0  0  0  0  0  0  0  0  0  0  0
   -1.9818   -2.0809    0.9918 C   0  0  0  0  0  0  0  0  0  0  0  0
   -1.1288   -2.6669    1.6468 O   0  0  0  0  0  0  0  0  0  0  0  0
   -1.7648   -0.9089    0.3998 N   0  0  0  0  0  0  0  0  0  0  0  0
   -2.5238   -0.4719   -0.1032 H   0  0  0  0  0  0  0  0  0  0  0  0
   -0.4848   -0.1959    0.4138 C   0  0  1  0  0  0  0  0  0  0  0  0
    0.2783   -0.8411   -0.0248 H   0  0  0  0  0  0  0  0  0  0  0  0
   -0.6101    1.0666   -0.4611 C   0  0  0  0  0  0  0  0  0  0  0  0
    0.0680    1.8263   -0.0668 H   0  0  0  0  0  0  0  0  0  0  0  0
   -0.2992    0.8272   -1.4791 H   0  0  0  0  0  0  0  0  0  0  0  0
   -2.0301    1.6578   -0.5008 C   0  0  0  0  0  0  0  0  0  0  0  0
   -2.5936    1.2049   -1.3163 H   0  0  0  0  0  0  0  0  0  0  0  0
   -2.5341    1.4311    0.4386 H   0  0  0  0  0  0  0  0  0  0  0  0
   -2.0453    3.1732   -0.7011 C   0  0  0  0  0  0  0  0  0  0  0  0
   -1.0366    3.8522   -0.7468 O   0  0  0  0  0  0  0  0  0  0  0  0
   -3.2069    3.7747   -0.8389 N   0  0  0  0  0  0  0  0  0  0  0  0
   -3.1580    4.7704   -0.9684 H   0  0  0  0  0  0  0  0  0  0  0  0
   -4.0660    3.2640   -0.8118 H   0  0  0  0  0  0  0  0  0  0  0  0
   -0.0637    0.1284    1.8555 C   0  0  0  0  0  0  0  0  0  0  0  0
    1.0918   -0.0745    2.2236 O   0  0  0  0  0  0  0  0  0  0  0  0
   -1.0024    0.6217    2.6735 N   0  0  0  0  0  0  0  0  0  0  0  0
   -1.9213    0.7848    2.2938 H   0  0  0  0  0  0  0  0  0  0  0  0
   -0.7639    0.9676    4.0741 C   0  0  0  0  0  0  0  0  0  0  0  0
    0.0520    1.6916    4.1400 H   0  0  0  0  0  0  0  0  0  0  0  0
   -1.6626    1.3984    4.5182 H   0  0  0  0  0  0  0  0  0  0  0  0
   -0.4775    0.0737    4.6309 H   0  0  0  0  0  0  0  0  0  0  0  0
  5  6  2  0  0  0  0
  5  7  1  0  0  0  0
  2  3  1  0  0  0  0
  2  4  1  0  0  0  0
  2  5  1  0  0  0  0
  1  2  1  0  0  0  0
 22 23  2  0  0  0  0
 22 24  1  0  0  0  0
 19 20  1  0  0  0  0
 19 21  1  0  0  0  0
 17 18  2  0  0  0  0
 17 19  1  0  0  0  0
 14 15  1  0  0  0  0
 14 16  1  0  0  0  0
 14 17  1  0  0  0  0
 11 12  1  0  0  0  0
 11 13  1  0  0  0  0
 11 14  1  0  0  0  0
  9 10  1  0  0  0  0
  9 11  1  0  0  0  0
  9 22  1  0  0  0  0
  7  8  1  0  0  0  0
  7  9  1  0  0  0  0
 26 27  1  0  0  0  0
 26 28  1  0  0  0  0
 26 29  1  0  0  0  0
 24 25  1  0  0  0  0
 24 26  1  0  0  0  0
M  END
$$$$
default_name
  -OEChem-02102213163D

 29 28  0     1  0  0  0  0  0999 V2000
   -3.3998   -3.6239    1.3678 H   0  0  0  0  0  0  0  0  0  0  0  0
   -3.3608   -2.6749    0.8348 C   0  0  0  0  0  0  0  0  0  0  0  0
   -4.0988   -1.9909    1.2498 H   0  0  0  0  0  0  0  0  0  0  0  0
   -3.5618   -2.8419   -0.2222 H   0  0  0  0  0  0  0  0  0  0  0  0
   -1.9818   -2.0809    0.9918 C   0  0  0  0  0  0  0  0  0  0  0  0
   -1.1288   -2.6669    1.6468 O   0  0  0  0  0  0  0  0  0  0  0  0
   -1.7648   -0.9089    0.3998 N   0  0  0  0  0  0  0  0  0  0  0  0
   -2.5238   -0.4719   -0.1032 H   0  0  0  0  0  0  0  0  0  0  0  0
   -0.4848   -0.1959    0.4138 C   0  0  1  0  0  0  0  0  0  0  0  0
    0.2783   -0.8411   -0.0248 H   0  0  0  0  0  0  0  0  0  0  0  0
   -0.6101    1.0666   -0.4611 C   0  0  0  0  0  0  0  0  0  0  0  0
    0.0680    1.8263   -0.0668 H   0  0  0  0  0  0  0  0  0  0  0  0
   -0.2992    0.8272   -1.4791 H   0  0  0  0  0  0  0  0  0  0  0  0
   -2.0301    1.6578   -0.5008 C   0  0  0  0  0  0  0  0  0  0  0  0
   -2.6701    1.0341   -1.1246 H   0  0  0  0  0  0  0  0  0  0  0  0
   -2.4361    1.6712    0.5106 H   0  0  0  0  0  0  0  0  0  0  0  0
   -2.0735    3.0817   -1.0552 C   0  0  0  0  0  0  0  0  0  0  0  0
   -1.0782    3.7112   -1.3613 O   0  0  0  0  0  0  0  0  0  0  0  0
   -3.2463    3.6547   -1.2177 N   0  0  0  0  0  0  0  0  0  0  0  0
   -3.2160    4.5896   -1.5858 H   0  0  0  0  0  0  0  0  0  0  0  0
   -4.0956    3.1814   -0.9846 H   0  0  0  0  0  0  0  0  0  0  0  0
   -0.0637    0.1284    1.8555 C   0  0  0  0  0  0  0  0  0  0  0  0
    1.0918   -0.0745    2.2236 O   0  0  0  0  0  0  0  0  0  0  0  0
   -1.0024    0.6217    2.6735 N   0  0  0  0  0  0  0  0  0  0  0  0
   -1.9213    0.7848    2.2938 H   0  0  0  0  0  0  0  0  0  0  0  0
   -0.7639    0.9676    4.0741 C   0  0  0  0  0  0  0  0  0  0  0  0
    0.0520    1.6916    4.1400 H   0  0  0  0  0  0  0  0  0  0  0  0
   -1.6626    1.3984    4.5182 H   0  0  0  0  0  0  0  0  0  0  0  0
   -0.4775    0.0737    4.6309 H   0  0  0  0  0  0  0  0  0  0  0  0
  5  6  2  0  0  0  0
  5  7  1  0  0  0  0
  2  3  1  0  0  0  0
  2  4  1  0  0  0  0
  2  5  1  0  0  0  0
  1  2  1  0  0  0  0
 22 23  2  0  0  0  0
 22 24  1  0  0  0  0
 19 20  1  0  0  0  0
 19 21  1  0  0  0  0
 17 18  2  0  0  0  0
 17 19  1  0  0  0  0
 14 15  1  0  0  0  0
 14 16  1  0  0  0  0
 14 17  1  0  0  0  0
 11 12  1  0  0  0  0
 11 13  1  0  0  0  0
 11 14  1  0  0  0  0
  9 10  1  0  0  0  0
  9 11  1  0  0  0  0
  9 22  1  0  0  0  0
  7  8  1  0  0  0  0
  7  9  1  0  0  0  0
 26 27  1  0  0  0  0
 26 28  1  0  0  0  0
 26 29  1  0  0  0  0
 24 25  1  0  0  0  0
 24 26  1  0  0  0  0
M  END
$$$$
default_name
  -OEChem-02102213163D

 29 28  0     1  0  0  0  0  0999 V2000
   -3.3998   -3.6239    1.3678 H   0  0  0  0  0  0  0  0  0  0  0  0
   -3.3608   -2.6749    0.8348 C   0  0  0  0  0  0  0  0  0  0  0  0
   -4.0988   -1.9909    1.2498 H   0  0  0  0  0  0  0  0  0  0  0  0
   -3.5618   -2.8419   -0.2222 H   0  0  0  0  0  0  0  0  0  0  0  0
   -1.9818   -2.0809    0.9918 C   0  0  0  0  0  0  0  0  0  0  0  0
   -1.1288   -2.6669    1.6468 O   0  0  0  0  0  0  0  0  0  0  0  0
   -1.7648   -0.9089    0.3998 N   0  0  0  0  0  0  0  0  0  0  0  0
   -2.5238   -0.4719   -0.1032 H   0  0  0  0  0  0  0  0  0  0  0  0
   -0.4848   -0.1959    0.4138 C   0  0  1  0  0  0  0  0  0  0  0  0
    0.2783   -0.8411   -0.0248 H   0  0  0  0  0  0  0  0  0  0  0  0
   -0.6101    1.0666   -0.4611 C   0  0  0  0  0  0  0  0  0  0  0  0
    0.2391    1.7187   -0.2467 H   0  0  0  0  0  0  0  0  0  0  0  0
   -0.5618    0.7781   -1.5122 H   0  0  0  0  0  0  0  0  0  0  0  0
   -1.9050    1.8628   -0.2229 C   0  0  0  0  0  0  0  0  0  0  0  0
   -2.7681    1.2306   -0.4303 H   0  0  0  0  0  0  0  0  0  0  0  0
   -1.9430    2.1722    0.8215 H   0  0  0  0  0  0  0  0  0  0  0  0
   -2.0131    3.1112   -1.0984 C   0  0  0  0  0  0  0  0  0  0  0  0
   -1.1304    3.4794   -1.8506 O   0  0  0  0  0  0  0  0  0  0  0  0
   -3.1192    3.8209   -1.0428 N   0  0  0  0  0  0  0  0  0  0  0  0
   -3.1364    4.6298   -1.6393 H   0  0  0  0  0  0  0  0  0  0  0  0
   -3.8766    3.5616   -0.4438 H   0  0  0  0  0  0  0  0  0  0  0  0
   -0.0637    0.1284    1.8555 C   0  0  0  0  0  0  0  0  0  0  0  0
    1.0918   -0.0745    2.2236 O   0  0  0  0  0  0  0  0  0  0  0  0
   -1.0024    0.6217    2.6735 N   0  0  0  0  0  0  0  0  0  0  0  0
   -1.9213    0.7848    2.2938 H   0  0  0  0  0  0  0  0  0  0  0  0
   -0.7639    0.9676    4.0741 C   0  0  0  0  0  0  0  0  0  0  0  0
    0.0520    1.6916    4.1400 H   0  0  0  0  0  0  0  0  0  0  0  0
   -1.6626    1.3984    4.5182 H   0  0  0  0  0  0  0  0  0  0  0  0
   -0.4775    0.0737    4.6309 H   0  0  0  0  0  0  0  0  0  0  0  0
  5  6  2  0  0  0  0
  5  7  1  0  0  0  0
  2  3  1  0  0  0  0
  2  4  1  0  0  0  0
  2  5  1  0  0  0  0
  1  2  1  0  0  0  0
 22 23  2  0  0  0  0
 22 24  1  0  0  0  0
 19 20  1  0  0  0  0
 19 21  1  0  0  0  0
 17 18  2  0  0  0  0
 17 19  1  0  0  0  0
 14 15  1  0  0  0  0
 14 16  1  0  0  0  0
 14 17  1  0  0  0  0
 11 12  1  0  0  0  0
 11 13  1  0  0  0  0
 11 14  1  0  0  0  0
  9 10  1  0  0  0  0
  9 11  1  0  0  0  0
  9 22  1  0  0  0  0
  7  8  1  0  0  0  0
  7  9  1  0  0  0  0
 26 27  1  0  0  0  0
 26 28  1  0  0  0  0
 26 29  1  0  0  0  0
 24 25  1  0  0  0  0
 24 26  1  0  0  0  0
M  END
$$$$
default_name
  -OEChem-02102213163D

 29 28  0     1  0  0  0  0  0999 V2000
   -3.3998   -3.6239    1.3678 H   0  0  0  0  0  0  0  0  0  0  0  0
   -3.3608   -2.6749    0.8348 C   0  0  0  0  0  0  0  0  0  0  0  0
   -4.0988   -1.9909    1.2498 H   0  0  0  0  0  0  0  0  0  0  0  0
   -3.5618   -2.8419   -0.2222 H   0  0  0  0  0  0  0  0  0  0  0  0
   -1.9818   -2.0809    0.9918 C   0  0  0  0  0  0  0  0  0  0  0  0
   -1.1288   -2.6669    1.6468 O   0  0  0  0  0  0  0  0  0  0  0  0
   -1.7648   -0.9089    0.3998 N   0  0  0  0  0  0  0  0  0  0  0  0
   -2.5238   -0.4719   -0.1032 H   0  0  0  0  0  0  0  0  0  0  0  0
   -0.4848   -0.1959    0.4138 C   0  0  1  0  0  0  0  0  0  0  0  0
    0.2783   -0.8411   -0.0248 H   0  0  0  0  0  0  0  0  0  0  0  0
   -0.6101    1.0666   -0.4611 C   0  0  0  0  0  0  0  0  0  0  0  0
    0.2391    1.7187   -0.2467 H   0  0  0  0  0  0  0  0  0  0  0  0
   -0.5618    0.7781   -1.5122 H   0  0  0  0  0  0  0  0  0  0  0  0
   -1.9050    1.8628   -0.2229 C   0  0  0  0  0  0  0  0  0  0  0  0
   -2.7517    1.1789   -0.1680 H   0  0  0  0  0  0  0  0  0  0  0  0
   -1.8244    2.3939    0.7255 H   0  0  0  0  0  0  0  0  0  0  0  0
   -2.1939    2.8843   -1.3228 C   0  0  0  0  0  0  0  0  0  0  0  0
   -1.4376    3.0997   -2.2514 O   0  0  0  0  0  0  0  0  0  0  0  0
   -3.3208    3.5606   -1.2687 N   0  0  0  0  0  0  0  0  0  0  0  0
   -3.4596    4.2174   -2.0169 H   0  0  0  0  0  0  0  0  0  0  0  0
   -3.9788    3.4208   -0.5290 H   0  0  0  0  0  0  0  0  0  0  0  0
   -0.0637    0.1284    1.8555 C   0  0  0  0  0  0  0  0  0  0  0  0
    1.0918   -0.0745    2.2236 O   0  0  0  0  0  0  0  0  0  0  0  0
   -1.0024    0.6217    2.6735 N   0  0  0  0  0  0  0  0  0  0  0  0
   -1.9213    0.7848    2.2938 H   0  0  0  0  0  0  0  0  0  0  0  0
   -0.7639    0.9676    4.0741 C   0  0  0  0  0  0  0  0  0  0  0  0
    0.0520    1.6916    4.1400 H   0  0  0  0  0  0  0  0  0  0  0  0
   -1.6626    1.3984    4.5182 H   0  0  0  0  0  0  0  0  0  0  0  0
   -0.4775    0.0737    4.6309 H   0  0  0  0  0  0  0  0  0  0  0  0
  5  6  2  0  0  0  0
  5  7  1  0  0  0  0
  2  3  1  0  0  0  0
  2  4  1  0  0  0  0
  2  5  1  0  0  0  0
  1  2  1  0  0  0  0
 22 23  2  0  0  0  0
 22 24  1  0  0  0  0
 19 20  1  0  0  0  0
 19 21  1  0  0  0  0
 17 18  2  0  0  0  0
 17 19  1  0  0  0  0
 14 15  1  0  0  0  0
 14 16  1  0  0  0  0
 14 17  1  0  0  0  0
 11 12  1  0  0  0  0
 11 13  1  0  0  0  0
 11 14  1  0  0  0  0
  9 10  1  0  0  0  0
  9 11  1  0  0  0  0
  9 22  1  0  0  0  0
  7  8  1  0  0  0  0
  7  9  1  0  0  0  0
 26 27  1  0  0  0  0
 26 28  1  0  0  0  0
 26 29  1  0  0  0  0
 24 25  1  0  0  0  0
 24 26  1  0  0  0  0
M  END
$$$$
default_name
  -OEChem-02102213163D

 29 28  0     1  0  0  0  0  0999 V2000
   -3.3998   -3.6239    1.3678 H   0  0  0  0  0  0  0  0  0  0  0  0
   -3.3608   -2.6749    0.8348 C   0  0  0  0  0  0  0  0  0  0  0  0
   -4.0988   -1.9909    1.2498 H   0  0  0  0  0  0  0  0  0  0  0  0
   -3.5618   -2.8419   -0.2222 H   0  0  0  0  0  0  0  0  0  0  0  0
   -1.9818   -2.0809    0.9918 C   0  0  0  0  0  0  0  0  0  0  0  0
   -1.1288   -2.6669    1.6468 O   0  0  0  0  0  0  0  0  0  0  0  0
   -1.7648   -0.9089    0.3998 N   0  0  0  0  0  0  0  0  0  0  0  0
   -2.5238   -0.4719   -0.1032 H   0  0  0  0  0  0  0  0  0  0  0  0
   -0.4848   -0.1959    0.4138 C   0  0  1  0  0  0  0  0  0  0  0  0
    0.2783   -0.8411   -0.0248 H   0  0  0  0  0  0  0  0  0  0  0  0
   -0.6101    1.0666   -0.4611 C   0  0  0  0  0  0  0  0  0  0  0  0
    0.2391    1.7187   -0.2467 H   0  0  0  0  0  0  0  0  0  0  0  0
   -0.5618    0.7781   -1.5122 H   0  0  0  0  0  0  0  0  0  0  0  0
   -1.9050    1.8628   -0.2229 C   0  0  0  0  0  0  0  0  0  0  0  0
   -2.6986    1.1867    0.0944 H   0  0  0  0  0  0  0  0  0  0  0  0
   -1.7315    2.5918    0.5686 H   0  0  0  0  0  0  0  0  0  0  0  0
   -2.3895    2.6089   -1.4660 C   0  0  0  0  0  0  0  0  0  0  0  0
   -1.7728    2.6332   -2.5146 O   0  0  0  0  0  0  0  0  0  0  0  0
   -3.5354    3.2519   -1.4032 N   0  0  0  0  0  0  0  0  0  0  0  0
   -3.8057    3.7237   -2.2486 H   0  0  0  0  0  0  0  0  0  0  0  0
   -4.0834    3.2621   -0.5669 H   0  0  0  0  0  0  0  0  0  0  0  0
   -0.0637    0.1284    1.8555 C   0  0  0  0  0  0  0  0  0  0  0  0
    1.0918   -0.0745    2.2236 O   0  0  0  0  0  0  0  0  0  0  0  0
   -1.0024    0.6217    2.6735 N   0  0  0  0  0  0  0  0  0  0  0  0
   -1.9213    0.7848    2.2938 H   0  0  0  0  0  0  0  0  0  0  0  0
   -0.7639    0.9676    4.0741 C   0  0  0  0  0  0  0  0  0  0  0  0
    0.0520    1.6916    4.1400 H   0  0  0  0  0  0  0  0  0  0  0  0
   -1.6626    1.3984    4.5182 H   0  0  0  0  0  0  0  0  0  0  0  0
   -0.4775    0.0737    4.6309 H   0  0  0  0  0  0  0  0  0  0  0  0
  5  6  2  0  0  0  0
  5  7  1  0  0  0  0
  2  3  1  0  0  0  0
  2  4  1  0  0  0  0
  2  5  1  0  0  0  0
  1  2  1  0  0  0  0
 22 23  2  0  0  0  0
 22 24  1  0  0  0  0
 19 20  1  0  0  0  0
 19 21  1  0  0  0  0
 17 18  2  0  0  0  0
 17 19  1  0  0  0  0
 14 15  1  0  0  0  0
 14 16  1  0  0  0  0
 14 17  1  0  0  0  0
 11 12  1  0  0  0  0
 11 13  1  0  0  0  0
 11 14  1  0  0  0  0
  9 10  1  0  0  0  0
  9 11  1  0  0  0  0
  9 22  1  0  0  0  0
  7  8  1  0  0  0  0
  7  9  1  0  0  0  0
 26 27  1  0  0  0  0
 26 28  1  0  0  0  0
 26 29  1  0  0  0  0
 24 25  1  0  0  0  0
 24 26  1  0  0  0  0
M  END
$$$$
default_name
  -OEChem-02102213163D

 29 28  0     1  0  0  0  0  0999 V2000
   -3.3998   -3.6239    1.3678 H   0  0  0  0  0  0  0  0  0  0  0  0
   -3.3608   -2.6749    0.8348 C   0  0  0  0  0  0  0  0  0  0  0  0
   -4.0988   -1.9909    1.2498 H   0  0  0  0  0  0  0  0  0  0  0  0
   -3.5618   -2.8419   -0.2222 H   0  0  0  0  0  0  0  0  0  0  0  0
   -1.9818   -2.0809    0.9918 C   0  0  0  0  0  0  0  0  0  0  0  0
   -1.1288   -2.6669    1.6468 O   0  0  0  0  0  0  0  0  0  0  0  0
   -1.7648   -0.9089    0.3998 N   0  0  0  0  0  0  0  0  0  0  0  0
   -2.5238   -0.4719   -0.1032 H   0  0  0  0  0  0  0  0  0  0  0  0
   -0.4848   -0.1959    0.4138 C   0  0  1  0  0  0  0  0  0  0  0  0
    0.2783   -0.8411   -0.0248 H   0  0  0  0  0  0  0  0  0  0  0  0
   -0.6101    1.0666   -0.4611 C   0  0  0  0  0  0  0  0  0  0  0  0
    0.2391    1.7187   -0.2467 H   0  0  0  0  0  0  0  0  0  0  0  0
   -0.5618    0.7781   -1.5122 H   0  0  0  0  0  0  0  0  0  0  0  0
   -1.9050    1.8628   -0.2229 C   0  0  0  0  0  0  0  0  0  0  0  0
   -2.6125    1.2535    0.3391 H   0  0  0  0  0  0  0  0  0  0  0  0
   -1.6708    2.7526    0.3614 H   0  0  0  0  0  0  0  0  0  0  0  0
   -2.5867    2.3039   -1.5181 C   0  0  0  0  0  0  0  0  0  0  0  0
   -2.1132    2.1119   -2.6224 O   0  0  0  0  0  0  0  0  0  0  0  0
   -3.7483    2.9158   -1.4371 N   0  0  0  0  0  0  0  0  0  0  0  0
   -4.1513    3.1826   -2.3185 H   0  0  0  0  0  0  0  0  0  0  0  0
   -4.1831    3.0963   -0.5550 H   0  0  0  0  0  0  0  0  0  0  0  0
   -0.0637    0.1284    1.8555 C   0  0  0  0  0  0  0  0  0  0  0  0
    1.0918   -0.0745    2.2236 O   0  0  0  0  0  0  0  0  0  0  0  0
   -1.0024    0.6217    2.6735 N   0  0  0  0  0  0  0  0  0  0  0  0
   -1.9213    0.7848    2.2938 H   0  0  0  0  0  0  0  0  0  0  0  0
   -0.7639    0.9676    4.0741 C   0  0  0  0  0  0  0  0  0  0  0  0
    0.0520    1.6916    4.1400 H   0  0  0  0  0  0  0  0  0  0  0  0
   -1.6626    1.3984    4.5182 H   0  0  0  0  0  0  0  0  0  0  0  0
   -0.4775    0.0737    4.6309 H   0  0  0  0  0  0  0  0  0  0  0  0
  5  6  2  0  0  0  0
  5  7  1  0  0  0  0
  2  3  1  0  0  0  0
  2  4  1  0  0  0  0
  2  5  1  0  0  0  0
  1  2  1  0  0  0  0
 22 23  2  0  0  0  0
 22 24  1  0  0  0  0
 19 20  1  0  0  0  0
 19 21  1  0  0  0  0
 17 18  2  0  0  0  0
 17 19  1  0  0  0  0
 14 15  1  0  0  0  0
 14 16  1  0  0  0  0
 14 17  1  0  0  0  0
 11 12  1  0  0  0  0
 11 13  1  0  0  0  0
 11 14  1  0  0  0  0
  9 10  1  0  0  0  0
  9 11  1  0  0  0  0
  9 22  1  0  0  0  0
  7  8  1  0  0  0  0
  7  9  1  0  0  0  0
 26 27  1  0  0  0  0
 26 28  1  0  0  0  0
 26 29  1  0  0  0  0
 24 25  1  0  0  0  0
 24 26  1  0  0  0  0
M  END
$$$$
default_name
  -OEChem-02102213163D

 29 28  0     1  0  0  0  0  0999 V2000
   -3.3998   -3.6239    1.3678 H   0  0  0  0  0  0  0  0  0  0  0  0
   -3.3608   -2.6749    0.8348 C   0  0  0  0  0  0  0  0  0  0  0  0
   -4.0988   -1.9909    1.2498 H   0  0  0  0  0  0  0  0  0  0  0  0
   -3.5618   -2.8419   -0.2222 H   0  0  0  0  0  0  0  0  0  0  0  0
   -1.9818   -2.0809    0.9918 C   0  0  0  0  0  0  0  0  0  0  0  0
   -1.1288   -2.6669    1.6468 O   0  0  0  0  0  0  0  0  0  0  0  0
   -1.7648   -0.9089    0.3998 N   0  0  0  0  0  0  0  0  0  0  0  0
   -2.5238   -0.4719   -0.1032 H   0  0  0  0  0  0  0  0  0  0  0  0
   -0.4848   -0.1959    0.4138 C   0  0  1  0  0  0  0  0  0  0  0  0
    0.2783   -0.8411   -0.0248 H   0  0  0  0  0  0  0  0  0  0  0  0
   -0.6101    1.0666   -0.4611 C   0  0  0  0  0  0  0  0  0  0  0  0
    0.2391    1.7187   -0.2467 H   0  0  0  0  0  0  0  0  0  0  0  0
   -0.5618    0.7781   -1.5122 H   0  0  0  0  0  0  0  0  0  0  0  0
   -1.9050    1.8628   -0.2229 C   0  0  0  0  0  0  0  0  0  0  0  0
   -2.4992    1.3748    0.5494 H   0  0  0  0  0  0  0  0  0  0  0  0
   -1.6463    2.8652    0.1182 H   0  0  0  0  0  0  0  0  0  0  0  0
   -2.7718    1.9901   -1.4755 C   0  0  0  0  0  0  0  0  0  0  0  0
   -2.4355    1.5712   -2.5673 O   0  0  0  0  0  0  0  0  0  0  0  0
   -3.9450    2.5752   -1.3681 N   0  0  0  0  0  0  0  0  0  0  0  0
   -4.4728    2.6308   -2.2218 H   0  0  0  0  0  0  0  0  0  0  0  0
   -4.2712    2.9348   -0.4941 H   0  0  0  0  0  0  0  0  0  0  0  0
   -0.0637    0.1284    1.8555 C   0  0  0  0  0  0  0  0  0  0  0  0
    1.0918   -0.0745    2.2236 O   0  0  0  0  0  0  0  0  0  0  0  0
   -1.0024    0.6217    2.6735 N   0  0  0  0  0  0  0  0  0  0  0  0
   -1.9213    0.7848    2.2938 H   0  0  0  0  0  0  0  0  0  0  0  0
   -0.7639    0.9676    4.0741 C   0  0  0  0  0  0  0  0  0  0  0  0
    0.0520    1.6916    4.1400 H   0  0  0  0  0  0  0  0  0  0  0  0
   -1.6626    1.3984    4.5182 H   0  0  0  0  0  0  0  0  0  0  0  0
   -0.4775    0.0737    4.6309 H   0  0  0  0  0  0  0  0  0  0  0  0
  5  6  2  0  0  0  0
  5  7  1  0  0  0  0
  2  3  1  0  0  0  0
  2  4  1  0  0  0  0
  2  5  1  0  0  0  0
  1  2  1  0  0  0  0
 22 23  2  0  0  0  0
 22 24  1  0  0  0  0
 19 20  1  0  0  0  0
 19 21  1  0  0  0  0
 17 18  2  0  0  0  0
 17 19  1  0  0  0  0
 14 15  1  0  0  0  0
 14 16  1  0  0  0  0
 14 17  1  0  0  0  0
 11 12  1  0  0  0  0
 11 13  1  0  0  0  0
 11 14  1  0  0  0  0
  9 10  1  0  0  0  0
  9 11  1  0  0  0  0
  9 22  1  0  0  0  0
  7  8  1  0  0  0  0
  7  9  1  0  0  0  0
 26 27  1  0  0  0  0
 26 28  1  0  0  0  0
 26 29  1  0  0  0  0
 24 25  1  0  0  0  0
 24 26  1  0  0  0  0
M  END
$$$$
default_name
  -OEChem-02102213163D

 29 28  0     1  0  0  0  0  0999 V2000
   -3.3998   -3.6239    1.3678 H   0  0  0  0  0  0  0  0  0  0  0  0
   -3.3608   -2.6749    0.8348 C   0  0  0  0  0  0  0  0  0  0  0  0
   -4.0988   -1.9909    1.2498 H   0  0  0  0  0  0  0  0  0  0  0  0
   -3.5618   -2.8419   -0.2222 H   0  0  0  0  0  0  0  0  0  0  0  0
   -1.9818   -2.0809    0.9918 C   0  0  0  0  0  0  0  0  0  0  0  0
   -1.1288   -2.6669    1.6468 O   0  0  0  0  0  0  0  0  0  0  0  0
   -1.7648   -0.9089    0.3998 N   0  0  0  0  0  0  0  0  0  0  0  0
   -2.5238   -0.4719   -0.1032 H   0  0  0  0  0  0  0  0  0  0  0  0
   -0.4848   -0.1959    0.4138 C   0  0  1  0  0  0  0  0  0  0  0  0
    0.2783   -0.8411   -0.0248 H   0  0  0  0  0  0  0  0  0  0  0  0
   -0.6101    1.0666   -0.4611 C   0  0  0  0  0  0  0  0  0  0  0  0
    0.2391    1.7187   -0.2467 H   0  0  0  0  0  0  0  0  0  0  0  0
   -0.5618    0.7781   -1.5122 H   0  0  0  0  0  0  0  0  0  0  0  0
   -1.9050    1.8628   -0.2229 C   0  0  0  0  0  0  0  0  0  0  0  0
   -2.3665    1.5423    0.7109 H   0  0  0  0  0  0  0  0  0  0  0  0
   -1.6597    2.9219   -0.1445 H   0  0  0  0  0  0  0  0  0  0  0  0
   -2.9324    1.6888   -1.3413 C   0  0  0  0  0  0  0  0  0  0  0  0
   -2.7178    1.0481   -2.3533 O   0  0  0  0  0  0  0  0  0  0  0  0
   -4.1121    2.2534   -1.2010 N   0  0  0  0  0  0  0  0  0  0  0  0
   -4.7483    2.1060   -1.9652 H   0  0  0  0  0  0  0  0  0  0  0  0
   -4.3417    2.7886   -0.3882 H   0  0  0  0  0  0  0  0  0  0  0  0
   -0.0637    0.1284    1.8555 C   0  0  0  0  0  0  0  0  0  0  0  0
    1.0918   -0.0745    2.2236 O   0  0  0  0  0  0  0  0  0  0  0  0
   -1.0024    0.6217    2.6735 N   0  0  0  0  0  0  0  0  0  0  0  0
   -1.9213    0.7848    2.2938 H   0  0  0  0  0  0  0  0  0  0  0  0
   -0.7639    0.9676    4.0741 C   0  0  0  0  0  0  0  0  0  0  0  0
    0.0520    1.6916    4.1400 H   0  0  0  0  0  0  0  0  0  0  0  0
   -1.6626    1.3984    4.5182 H   0  0  0  0  0  0  0  0  0  0  0  0
   -0.4775    0.0737    4.6309 H   0  0  0  0  0  0  0  0  0  0  0  0
  5  6  2  0  0  0  0
  5  7  1  0  0  0  0
  2  3  1  0  0  0  0
  2  4  1  0  0  0  0
  2  5  1  0  0  0  0
  1  2  1  0  0  0  0
 22 23  2  0  0  0  0
 22 24  1  0  0  0  0
 19 20  1  0  0  0  0
 19 21  1  0  0  0  0
 17 18  2  0  0  0  0
 17 19  1  0  0  0  0
 14 15  1  0  0  0  0
 14 16  1  0  0  0  0
 14 17  1  0  0  0  0
 11 12  1  0  0  0  0
 11 13  1  0  0  0  0
 11 14  1  0  0  0  0
  9 10  1  0  0  0  0
  9 11  1  0  0  0  0
  9 22  1  0  0  0  0
  7  8  1  0  0  0  0
  7  9  1  0  0  0  0
 26 27  1  0  0  0  0
 26 28  1  0  0  0  0
 26 29  1  0  0  0  0
 24 25  1  0  0  0  0
 24 26  1  0  0  0  0
M  END
$$$$
default_name
  -OEChem-02102213163D

 29 28  0     1  0  0  0  0  0999 V2000
   -3.3998   -3.6239    1.3678 H   0  0  0  0  0  0  0  0  0  0  0  0
   -3.3608   -2.6749    0.8348 C   0  0  0  0  0  0  0  0  0  0  0  0
   -4.0988   -1.9909    1.2498 H   0  0  0  0  0  0  0  0  0  0  0  0
   -3.5618   -2.8419   -0.2222 H   0  0  0  0  0  0  0  0  0  0  0  0
   -1.9818   -2.0809    0.9918 C   0  0  0  0  0  0  0  0  0  0  0  0
   -1.1288   -2.6669    1.6468 O   0  0  0  0  0  0  0  0  0  0  0  0
   -1.7648   -0.9089    0.3998 N   0  0  0  0  0  0  0  0  0  0  0  0
   -2.5238   -0.4719   -0.1032 H   0  0  0  0  0  0  0  0  0  0  0  0
   -0.4848   -0.1959    0.4138 C   0  0  1  0  0  0  0  0  0  0  0  0
    0.2783   -0.8411   -0.0248 H   0  0  0  0  0  0  0  0  0  0  0  0
   -0.6101    1.0666   -0.4611 C   0  0  0  0  0  0  0  0  0  0  0  0
    0.2391    1.7187   -0.2467 H   0  0  0  0  0  0  0  0  0  0  0  0
   -0.5618    0.7781   -1.5122 H   0  0  0  0  0  0  0  0  0  0  0  0
   -1.9050    1.8628   -0.2229 C   0  0  0  0  0  0  0  0  0  0  0  0
   -2.2234    1.7446    0.8126 H   0  0  0  0  0  0  0  0  0  0  0  0
   -1.7102    2.9190   -0.4089 H   0  0  0  0  0  0  0  0  0  0  0  0
   -3.0575    1.4206   -1.1245 C   0  0  0  0  0  0  0  0  0  0  0  0
   -2.9409    0.5781   -1.9947 O   0  0  0  0  0  0  0  0  0  0  0  0
   -4.2383    1.9723   -0.9471 N   0  0  0  0  0  0  0  0  0  0  0  0
   -4.9590    1.6439   -1.5662 H   0  0  0  0  0  0  0  0  0  0  0  0
   -4.3897    2.6675   -0.2447 H   0  0  0  0  0  0  0  0  0  0  0  0
   -0.0637    0.1284    1.8555 C   0  0  0  0  0  0  0  0  0  0  0  0
    1.0918   -0.0745    2.2236 O   0  0  0  0  0  0  0  0  0  0  0  0
   -1.0024    0.6217    2.6735 N   0  0  0  0  0  0  0  0  0  0  0  0
   -1.9213    0.7848    2.2938 H   0  0  0  0  0  0  0  0  0  0  0  0
   -0.7639    0.9676    4.0741 C   0  0  0  0  0  0  0  0  0  0  0  0
    0.0520    1.6916    4.1400 H   0  0  0  0  0  0  0  0  0  0  0  0
   -1.6626    1.3984    4.5182 H   0  0  0  0  0  0  0  0  0  0  0  0
   -0.4775    0.0737    4.6309 H   0  0  0  0  0  0  0  0  0  0  0  0
  5  6  2  0  0  0  0
  5  7  1  0  0  0  0
  2  3  1  0  0  0  0
  2  4  1  0  0  0  0
  2  5  1  0  0  0  0
  1  2  1  0  0  0  0
 22 23  2  0  0  0  0
 22 24  1  0  0  0  0
 19 20  1  0  0  0  0
 19 21  1  0  0  0  0
 17 18  2  0  0  0  0
 17 19  1  0  0  0  0
 14 15  1  0  0  0  0
 14 16  1  0  0  0  0
 14 17  1  0  0  0  0
 11 12  1  0  0  0  0
 11 13  1  0  0  0  0
 11 14  1  0  0  0  0
  9 10  1  0  0  0  0
  9 11  1  0  0  0  0
  9 22  1  0  0  0  0
  7  8  1  0  0  0  0
  7  9  1  0  0  0  0
 26 27  1  0  0  0  0
 26 28  1  0  0  0  0
 26 29  1  0  0  0  0
 24 25  1  0  0  0  0
 24 26  1  0  0  0  0
M  END
$$$$
default_name
  -OEChem-02102213163D

 29 28  0     1  0  0  0  0  0999 V2000
   -3.3998   -3.6239    1.3678 H   0  0  0  0  0  0  0  0  0  0  0  0
   -3.3608   -2.6749    0.8348 C   0  0  0  0  0  0  0  0  0  0  0  0
   -4.0988   -1.9909    1.2498 H   0  0  0  0  0  0  0  0  0  0  0  0
   -3.5618   -2.8419   -0.2222 H   0  0  0  0  0  0  0  0  0  0  0  0
   -1.9818   -2.0809    0.9918 C   0  0  0  0  0  0  0  0  0  0  0  0
   -1.1288   -2.6669    1.6468 O   0  0  0  0  0  0  0  0  0  0  0  0
   -1.7648   -0.9089    0.3998 N   0  0  0  0  0  0  0  0  0  0  0  0
   -2.5238   -0.4719   -0.1032 H   0  0  0  0  0  0  0  0  0  0  0  0
   -0.4848   -0.1959    0.4138 C   0  0  1  0  0  0  0  0  0  0  0  0
    0.2783   -0.8411   -0.0248 H   0  0  0  0  0  0  0  0  0  0  0  0
   -0.6101    1.0666   -0.4611 C   0  0  0  0  0  0  0  0  0  0  0  0
    0.2391    1.7187   -0.2467 H   0  0  0  0  0  0  0  0  0  0  0  0
   -0.5618    0.7781   -1.5122 H   0  0  0  0  0  0  0  0  0  0  0  0
   -1.9050    1.8628   -0.2229 C   0  0  0  0  0  0  0  0  0  0  0  0
   -2.0797    1.9679    0.8477 H   0  0  0  0  0  0  0  0  0  0  0  0
   -1.7942    2.8565   -0.6568 H   0  0  0  0  0  0  0  0  0  0  0  0
   -3.1385    1.2037   -0.8399 C   0  0  0  0  0  0  0  0  0  0  0  0
   -3.0895    0.1932   -1.5161 O   0  0  0  0  0  0  0  0  0  0  0  0
   -4.3149    1.7509   -0.6237 N   0  0  0  0  0  0  0  0  0  0  0  0
   -5.0905    1.2761   -1.0518 H   0  0  0  0  0  0  0  0  0  0  0  0
   -4.4120    2.5800   -0.0732 H   0  0  0  0  0  0  0  0  0  0  0  0
   -0.0637    0.1284    1.8555 C   0  0  0  0  0  0  0  0  0  0  0  0
    1.0918   -0.0745    2.2236 O   0  0  0  0  0  0  0  0  0  0  0  0
   -1.0024    0.6217    2.6735 N   0  0  0  0  0  0  0  0  0  0  0  0
   -1.9213    0.7848    2.2938 H   0  0  0  0  0  0  0  0  0  0  0  0
   -0.7639    0.9676    4.0741 C   0  0  0  0  0  0  0  0  0  0  0  0
    0.0520    1.6916    4.1400 H   0  0  0  0  0  0  0  0  0  0  0  0
   -1.6626    1.3984    4.5182 H   0  0  0  0  0  0  0  0  0  0  0  0
   -0.4775    0.0737    4.6309 H   0  0  0  0  0  0  0  0  0  0  0  0
  5  6  2  0  0  0  0
  5  7  1  0  0  0  0
  2  3  1  0  0  0  0
  2  4  1  0  0  0  0
  2  5  1  0  0  0  0
  1  2  1  0  0  0  0
 22 23  2  0  0  0  0
 22 24  1  0  0  0  0
 19 20  1  0  0  0  0
 19 21  1  0  0  0  0
 17 18  2  0  0  0  0
 17 19  1  0  0  0  0
 14 15  1  0  0  0  0
 14 16  1  0  0  0  0
 14 17  1  0  0  0  0
 11 12  1  0  0  0  0
 11 13  1  0  0  0  0
 11 14  1  0  0  0  0
  9 10  1  0  0  0  0
  9 11  1  0  0  0  0
  9 22  1  0  0  0  0
  7  8  1  0  0  0  0
  7  9  1  0  0  0  0
 26 27  1  0  0  0  0
 26 28  1  0  0  0  0
 26 29  1  0  0  0  0
 24 25  1  0  0  0  0
 24 26  1  0  0  0  0
M  END
$$$$
default_name
  -OEChem-02102213163D

 29 28  0     1  0  0  0  0  0999 V2000
   -3.3998   -3.6239    1.3678 H   0  0  0  0  0  0  0  0  0  0  0  0
   -3.3608   -2.6749    0.8348 C   0  0  0  0  0  0  0  0  0  0  0  0
   -4.0988   -1.9909    1.2498 H   0  0  0  0  0  0  0  0  0  0  0  0
   -3.5618   -2.8419   -0.2222 H   0  0  0  0  0  0  0  0  0  0  0  0
   -1.9818   -2.0809    0.9918 C   0  0  0  0  0  0  0  0  0  0  0  0
   -1.1288   -2.6669    1.6468 O   0  0  0  0  0  0  0  0  0  0  0  0
   -1.7648   -0.9089    0.3998 N   0  0  0  0  0  0  0  0  0  0  0  0
   -2.5238   -0.4719   -0.1032 H   0  0  0  0  0  0  0  0  0  0  0  0
   -0.4848   -0.1959    0.4138 C   0  0  1  0  0  0  0  0  0  0  0  0
    0.2783   -0.8411   -0.0248 H   0  0  0  0  0  0  0  0  0  0  0  0
   -0.6101    1.0666   -0.4611 C   0  0  0  0  0  0  0  0  0  0  0  0
    0.2391    1.7187   -0.2467 H   0  0  0  0  0  0  0  0  0  0  0  0
   -0.5618    0.7781   -1.5122 H   0  0  0  0  0  0  0  0  0  0  0  0
   -1.9050    1.8628   -0.2229 C   0  0  0  0  0  0  0  0  0  0  0  0
   -1.9451    2.1970    0.8136 H   0  0  0  0  0  0  0  0  0  0  0  0
   -1.9060    2.7388   -0.8714 H   0  0  0  0  0  0  0  0  0  0  0  0
   -3.1699    1.0529   -0.5070 C   0  0  0  0  0  0  0  0  0  0  0  0
   -3.1535   -0.0802   -0.9501 O   0  0  0  0  0  0  0  0  0  0  0  0
   -4.3367    1.6046   -0.2528 N   0  0  0  0  0  0  0  0  0  0  0  0
   -5.1340    1.0276   -0.4573 H   0  0  0  0  0  0  0  0  0  0  0  0
   -4.4071    2.5318    0.1145 H   0  0  0  0  0  0  0  0  0  0  0  0
   -0.0637    0.1284    1.8555 C   0  0  0  0  0  0  0  0  0  0  0  0
    1.0918   -0.0745    2.2236 O   0  0  0  0  0  0  0  0  0  0  0  0
   -1.0024    0.6217    2.6735 N   0  0  0  0  0  0  0  0  0  0  0  0
   -1.9213    0.7848    2.2938 H   0  0  0  0  0  0  0  0  0  0  0  0
   -0.7639    0.9676    4.0741 C   0  0  0  0  0  0  0  0  0  0  0  0
    0.0520    1.6916    4.1400 H   0  0  0  0  0  0  0  0  0  0  0  0
   -1.6626    1.3984    4.5182 H   0  0  0  0  0  0  0  0  0  0  0  0
   -0.4775    0.0737    4.6309 H   0  0  0  0  0  0  0  0  0  0  0  0
  5  6  2  0  0  0  0
  5  7  1  0  0  0  0
  2  3  1  0  0  0  0
  2  4  1  0  0  0  0
  2  5  1  0  0  0  0
  1  2  1  0  0  0  0
 22 23  2  0  0  0  0
 22 24  1  0  0  0  0
 19 20  1  0  0  0  0
 19 21  1  0  0  0  0
 17 18  2  0  0  0  0
 17 19  1  0  0  0  0
 14 15  1  0  0  0  0
 14 16  1  0  0  0  0
 14 17  1  0  0  0  0
 11 12  1  0  0  0  0
 11 13  1  0  0  0  0
 11 14  1  0  0  0  0
  9 10  1  0  0  0  0
  9 11  1  0  0  0  0
  9 22  1  0  0  0  0
  7  8  1  0  0  0  0
  7  9  1  0  0  0  0
 26 27  1  0  0  0  0
 26 28  1  0  0  0  0
 26 29  1  0  0  0  0
 24 25  1  0  0  0  0
 24 26  1  0  0  0  0
M  END
$$$$
default_name
  -OEChem-02102213163D

 29 28  0     1  0  0  0  0  0999 V2000
   -3.3998   -3.6239    1.3678 H   0  0  0  0  0  0  0  0  0  0  0  0
   -3.3608   -2.6749    0.8348 C   0  0  0  0  0  0  0  0  0  0  0  0
   -4.0988   -1.9909    1.2498 H   0  0  0  0  0  0  0  0  0  0  0  0
   -3.5618   -2.8419   -0.2222 H   0  0  0  0  0  0  0  0  0  0  0  0
   -1.9818   -2.0809    0.9918 C   0  0  0  0  0  0  0  0  0  0  0  0
   -1.1288   -2.6669    1.6468 O   0  0  0  0  0  0  0  0  0  0  0  0
   -1.7648   -0.9089    0.3998 N   0  0  0  0  0  0  0  0  0  0  0  0
   -2.5238   -0.4719   -0.1032 H   0  0  0  0  0  0  0  0  0  0  0  0
   -0.4848   -0.1959    0.4138 C   0  0  1  0  0  0  0  0  0  0  0  0
    0.2783   -0.8411   -0.0248 H   0  0  0  0  0  0  0  0  0  0  0  0
   -0.6101    1.0666   -0.4611 C   0  0  0  0  0  0  0  0  0  0  0  0
    0.2391    1.7187   -0.2467 H   0  0  0  0  0  0  0  0  0  0  0  0
   -0.5618    0.7781   -1.5122 H   0  0  0  0  0  0  0  0  0  0  0  0
   -1.9050    1.8628   -0.2229 C   0  0  0  0  0  0  0  0  0  0  0  0
   -1.8288    2.4163    0.7128 H   0  0  0  0  0  0  0  0  0  0  0  0
   -2.0381    2.5739   -1.0382 H   0  0  0  0  0  0  0  0  0  0  0  0
   -3.1497    0.9785   -0.1483 C   0  0  0  0  0  0  0  0  0  0  0  0
   -3.1286   -0.2236   -0.3352 O   0  0  0  0  0  0  0  0  0  0  0  0
   -4.3022    1.5430    0.1402 N   0  0  0  0  0  0  0  0  0  0  0  0
   -5.0864    0.9152    0.1770 H   0  0  0  0  0  0  0  0  0  0  0  0
   -4.3752    2.5264    0.3056 H   0  0  0  0  0  0  0  0  0  0  0  0
   -0.0637    0.1284    1.8555 C   0  0  0  0  0  0  0  0  0  0  0  0
    1.0918   -0.0745    2.2236 O   0  0  0  0  0  0  0  0  0  0  0  0
   -1.0024    0.6217    2.6735 N   0  0  0  0  0  0  0  0  0  0  0  0
   -1.9213    0.7848    2.2938 H   0  0  0  0  0  0  0  0  0  0  0  0
   -0.7639    0.9676    4.0741 C   0  0  0  0  0  0  0  0  0  0  0  0
    0.0520    1.6916    4.1400 H   0  0  0  0  0  0  0  0  0  0  0  0
   -1.6626    1.3984    4.5182 H   0  0  0  0  0  0  0  0  0  0  0  0
   -0.4775    0.0737    4.6309 H   0  0  0  0  0  0  0  0  0  0  0  0
  5  6  2  0  0  0  0
  5  7  1  0  0  0  0
  2  3  1  0  0  0  0
  2  4  1  0  0  0  0
  2  5  1  0  0  0  0
  1  2  1  0  0  0  0
 22 23  2  0  0  0  0
 22 24  1  0  0  0  0
 19 20  1  0  0  0  0
 19 21  1  0  0  0  0
 17 18  2  0  0  0  0
 17 19  1  0  0  0  0
 14 15  1  0  0  0  0
 14 16  1  0  0  0  0
 14 17  1  0  0  0  0
 11 12  1  0  0  0  0
 11 13  1  0  0  0  0
 11 14  1  0  0  0  0
  9 10  1  0  0  0  0
  9 11  1  0  0  0  0
  9 22  1  0  0  0  0
  7  8  1  0  0  0  0
  7  9  1  0  0  0  0
 26 27  1  0  0  0  0
 26 28  1  0  0  0  0
 26 29  1  0  0  0  0
 24 25  1  0  0  0  0
 24 26  1  0  0  0  0
M  END
$$$$
default_name
  -OEChem-02102213163D

 29 28  0     1  0  0  0  0  0999 V2000
   -3.3998   -3.6239    1.3678 H   0  0  0  0  0  0  0  0  0  0  0  0
   -3.3608   -2.6749    0.8348 C   0  0  0  0  0  0  0  0  0  0  0  0
   -4.0988   -1.9909    1.2498 H   0  0  0  0  0  0  0  0  0  0  0  0
   -3.5618   -2.8419   -0.2222 H   0  0  0  0  0  0  0  0  0  0  0  0
   -1.9818   -2.0809    0.9918 C   0  0  0  0  0  0  0  0  0  0  0  0
   -1.1288   -2.6669    1.6468 O   0  0  0  0  0  0  0  0  0  0  0  0
   -1.7648   -0.9089    0.3998 N   0  0  0  0  0  0  0  0  0  0  0  0
   -2.5238   -0.4719   -0.1032 H   0  0  0  0  0  0  0  0  0  0  0  0
   -0.4848   -0.1959    0.4138 C   0  0  1  0  0  0  0  0  0  0  0  0
    0.2783   -0.8411   -0.0248 H   0  0  0  0  0  0  0  0  0  0  0  0
   -0.6101    1.0666   -0.4611 C   0  0  0  0  0  0  0  0  0  0  0  0
    0.2391    1.7187   -0.2467 H   0  0  0  0  0  0  0  0  0  0  0  0
   -0.5618    0.7781   -1.5122 H   0  0  0  0  0  0  0  0  0  0  0  0
   -1.9050    1.8628   -0.2229 C   0  0  0  0  0  0  0  0  0  0  0  0
   -1.7388    2.6107    0.5521 H   0  0  0  0  0  0  0  0  0  0  0  0
   -2.1814    2.3730   -1.1456 H   0  0  0  0  0  0  0  0  0  0  0  0
   -3.0791    0.9857    0.2116 C   0  0  0  0  0  0  0  0  0  0  0  0
   -3.0164   -0.2272    0.2866 O   0  0  0  0  0  0  0  0  0  0  0  0
   -4.2138    1.5706    0.5286 N   0  0  0  0  0  0  0  0  0  0  0  0
   -4.9510    0.9468    0.8077 H   0  0  0  0  0  0  0  0  0  0  0  0
   -4.3187    2.5641    0.4871 H   0  0  0  0  0  0  0  0  0  0  0  0
   -0.0637    0.1284    1.8555 C   0  0  0  0  0  0  0  0  0  0  0  0
    1.0918   -0.0745    2.2236 O   0  0  0  0  0  0  0  0  0  0  0  0
   -1.0024    0.6217    2.6735 N   0  0  0  0  0  0  0  0  0  0  0  0
   -1.9213    0.7848    2.2938 H   0  0  0  0  0  0  0  0  0  0  0  0
   -0.7639    0.9676    4.0741 C   0  0  0  0  0  0  0  0  0  0  0  0
    0.0520    1.6916    4.1400 H   0  0  0  0  0  0  0  0  0  0  0  0
   -1.6626    1.3984    4.5182 H   0  0  0  0  0  0  0  0  0  0  0  0
   -0.4775    0.0737    4.6309 H   0  0  0  0  0  0  0  0  0  0  0  0
  5  6  2  0  0  0  0
  5  7  1  0  0  0  0
  2  3  1  0  0  0  0
  2  4  1  0  0  0  0
  2  5  1  0  0  0  0
  1  2  1  0  0  0  0
 22 23  2  0  0  0  0
 22 24  1  0  0  0  0
 19 20  1  0  0  0  0
 19 21  1  0  0  0  0
 17 18  2  0  0  0  0
 17 19  1  0  0  0  0
 14 15  1  0  0  0  0
 14 16  1  0  0  0  0
 14 17  1  0  0  0  0
 11 12  1  0  0  0  0
 11 13  1  0  0  0  0
 11 14  1  0  0  0  0
  9 10  1  0  0  0  0
  9 11  1  0  0  0  0
  9 22  1  0  0  0  0
  7  8  1  0  0  0  0
  7  9  1  0  0  0  0
 26 27  1  0  0  0  0
 26 28  1  0  0  0  0
 26 29  1  0  0  0  0
 24 25  1  0  0  0  0
 24 26  1  0  0  0  0
M  END
$$$$
default_name
  -OEChem-02102213163D

 29 28  0     1  0  0  0  0  0999 V2000
   -3.3998   -3.6239    1.3678 H   0  0  0  0  0  0  0  0  0  0  0  0
   -3.3608   -2.6749    0.8348 C   0  0  0  0  0  0  0  0  0  0  0  0
   -4.0988   -1.9909    1.2498 H   0  0  0  0  0  0  0  0  0  0  0  0
   -3.5618   -2.8419   -0.2222 H   0  0  0  0  0  0  0  0  0  0  0  0
   -1.9818   -2.0809    0.9918 C   0  0  0  0  0  0  0  0  0  0  0  0
   -1.1288   -2.6669    1.6468 O   0  0  0  0  0  0  0  0  0  0  0  0
   -1.7648   -0.9089    0.3998 N   0  0  0  0  0  0  0  0  0  0  0  0
   -2.5238   -0.4719   -0.1032 H   0  0  0  0  0  0  0  0  0  0  0  0
   -0.4848   -0.1959    0.4138 C   0  0  1  0  0  0  0  0  0  0  0  0
    0.2783   -0.8411   -0.0248 H   0  0  0  0  0  0  0  0  0  0  0  0
   -0.6101    1.0666   -0.4611 C   0  0  0  0  0  0  0  0  0  0  0  0
    0.2391    1.7187   -0.2467 H   0  0  0  0  0  0  0  0  0  0  0  0
   -0.5618    0.7781   -1.5122 H   0  0  0  0  0  0  0  0  0  0  0  0
   -1.9050    1.8628   -0.2229 C   0  0  0  0  0  0  0  0  0  0  0  0
   -1.6811    2.7672    0.3425 H   0  0  0  0  0  0  0  0  0  0  0  0
   -2.3261    2.1498   -1.1864 H   0  0  0  0  0  0  0  0  0  0  0  0
   -2.9630    1.0738    0.5483 C   0  0  0  0  0  0  0  0  0  0  0  0
   -2.8246   -0.0907    0.8730 O   0  0  0  0  0  0  0  0  0  0  0  0
   -4.0775    1.6854    0.8859 N   0  0  0  0  0  0  0  0  0  0  0  0
   -4.7369    1.1201    1.3919 H   0  0  0  0  0  0  0  0  0  0  0  0
   -4.2413    2.6423    0.6466 H   0  0  0  0  0  0  0  0  0  0  0  0
   -0.0637    0.1284    1.8555 C   0  0  0  0  0  0  0  0  0  0  0  0
    1.0918   -0.0745    2.2236 O   0  0  0  0  0  0  0  0  0  0  0  0
   -1.0024    0.6217    2.6735 N   0  0  0  0  0  0  0  0  0  0  0  0
   -1.9213    0.7848    2.2938 H   0  0  0  0  0  0  0  0  0  0  0  0
   -0.7639    0.9676    4.0741 C   0  0  0  0  0  0  0  0  0  0  0  0
    0.0520    1.6916    4.1400 H   0  0  0  0  0  0  0  0  0  0  0  0
   -1.6626    1.3984    4.5182 H   0  0  0  0  0  0  0  0  0  0  0  0
   -0.4775    0.0737    4.6309 H   0  0  0  0  0  0  0  0  0  0  0  0
  5  6  2  0  0  0  0
  5  7  1  0  0  0  0
  2  3  1  0  0  0  0
  2  4  1  0  0  0  0
  2  5  1  0  0  0  0
  1  2  1  0  0  0  0
 22 23  2  0  0  0  0
 22 24  1  0  0  0  0
 19 20  1  0  0  0  0
 19 21  1  0  0  0  0
 17 18  2  0  0  0  0
 17 19  1  0  0  0  0
 14 15  1  0  0  0  0
 14 16  1  0  0  0  0
 14 17  1  0  0  0  0
 11 12  1  0  0  0  0
 11 13  1  0  0  0  0
 11 14  1  0  0  0  0
  9 10  1  0  0  0  0
  9 11  1  0  0  0  0
  9 22  1  0  0  0  0
  7  8  1  0  0  0  0
  7  9  1  0  0  0  0
 26 27  1  0  0  0  0
 26 28  1  0  0  0  0
 26 29  1  0  0  0  0
 24 25  1  0  0  0  0
 24 26  1  0  0  0  0
M  END
$$$$
default_name
  -OEChem-02102213163D

 29 28  0     1  0  0  0  0  0999 V2000
   -3.3998   -3.6239    1.3678 H   0  0  0  0  0  0  0  0  0  0  0  0
   -3.3608   -2.6749    0.8348 C   0  0  0  0  0  0  0  0  0  0  0  0
   -4.0988   -1.9909    1.2498 H   0  0  0  0  0  0  0  0  0  0  0  0
   -3.5618   -2.8419   -0.2222 H   0  0  0  0  0  0  0  0  0  0  0  0
   -1.9818   -2.0809    0.9918 C   0  0  0  0  0  0  0  0  0  0  0  0
   -1.1288   -2.6669    1.6468 O   0  0  0  0  0  0  0  0  0  0  0  0
   -1.7648   -0.9089    0.3998 N   0  0  0  0  0  0  0  0  0  0  0  0
   -2.5238   -0.4719   -0.1032 H   0  0  0  0  0  0  0  0  0  0  0  0
   -0.4848   -0.1959    0.4138 C   0  0  1  0  0  0  0  0  0  0  0  0
    0.2783   -0.8411   -0.0248 H   0  0  0  0  0  0  0  0  0  0  0  0
   -0.6101    1.0666   -0.4611 C   0  0  0  0  0  0  0  0  0  0  0  0
    0.2391    1.7187   -0.2467 H   0  0  0  0  0  0  0  0  0  0  0  0
   -0.5618    0.7781   -1.5122 H   0  0  0  0  0  0  0  0  0  0  0  0
   -1.9050    1.8628   -0.2229 C   0  0  0  0  0  0  0  0  0  0  0  0
   -1.6598    2.8750    0.0982 H   0  0  0  0  0  0  0  0  0  0  0  0
   -2.4625    1.9195   -1.1578 H   0  0  0  0  0  0  0  0  0  0  0  0
   -2.8093    1.2368    0.8388 C   0  0  0  0  0  0  0  0  0  0  0  0
   -2.5663    0.1765    1.3839 O   0  0  0  0  0  0  0  0  0  0  0  0
   -3.9025    1.8796    1.1878 N   0  0  0  0  0  0  0  0  0  0  0  0
   -4.4589    1.4233    1.8898 H   0  0  0  0  0  0  0  0  0  0  0  0
   -4.1482    2.7556    0.7733 H   0  0  0  0  0  0  0  0  0  0  0  0
   -0.0637    0.1284    1.8555 C   0  0  0  0  0  0  0  0  0  0  0  0
    1.0918   -0.0745    2.2236 O   0  0  0  0  0  0  0  0  0  0  0  0
   -1.0024    0.6217    2.6735 N   0  0  0  0  0  0  0  0  0  0  0  0
   -1.9213    0.7848    2.2938 H   0  0  0  0  0  0  0  0  0  0  0  0
   -0.7639    0.9676    4.0741 C   0  0  0  0  0  0  0  0  0  0  0  0
    0.0520    1.6916    4.1400 H   0  0  0  0  0  0  0  0  0  0  0  0
   -1.6626    1.3984    4.5182 H   0  0  0  0  0  0  0  0  0  0  0  0
   -0.4775    0.0737    4.6309 H   0  0  0  0  0  0  0  0  0  0  0  0
  5  6  2  0  0  0  0
  5  7  1  0  0  0  0
  2  3  1  0  0  0  0
  2  4  1  0  0  0  0
  2  5  1  0  0  0  0
  1  2  1  0  0  0  0
 22 23  2  0  0  0  0
 22 24  1  0  0  0  0
 19 20  1  0  0  0  0
 19 21  1  0  0  0  0
 17 18  2  0  0  0  0
 17 19  1  0  0  0  0
 14 15  1  0  0  0  0
 14 16  1  0  0  0  0
 14 17  1  0  0  0  0
 11 12  1  0  0  0  0
 11 13  1  0  0  0  0
 11 14  1  0  0  0  0
  9 10  1  0  0  0  0
  9 11  1  0  0  0  0
  9 22  1  0  0  0  0
  7  8  1  0  0  0  0
  7  9  1  0  0  0  0
 26 27  1  0  0  0  0
 26 28  1  0  0  0  0
 26 29  1  0  0  0  0
 24 25  1  0  0  0  0
 24 26  1  0  0  0  0
M  END
$$$$
default_name
  -OEChem-02102213163D

 29 28  0     1  0  0  0  0  0999 V2000
   -3.3998   -3.6239    1.3678 H   0  0  0  0  0  0  0  0  0  0  0  0
   -3.3608   -2.6749    0.8348 C   0  0  0  0  0  0  0  0  0  0  0  0
   -4.0988   -1.9909    1.2498 H   0  0  0  0  0  0  0  0  0  0  0  0
   -3.5618   -2.8419   -0.2222 H   0  0  0  0  0  0  0  0  0  0  0  0
   -1.9818   -2.0809    0.9918 C   0  0  0  0  0  0  0  0  0  0  0  0
   -1.1288   -2.6669    1.6468 O   0  0  0  0  0  0  0  0  0  0  0  0
   -1.7648   -0.9089    0.3998 N   0  0  0  0  0  0  0  0  0  0  0  0
   -2.5238   -0.4719   -0.1032 H   0  0  0  0  0  0  0  0  0  0  0  0
   -0.4848   -0.1959    0.4138 C   0  0  1  0  0  0  0  0  0  0  0  0
    0.2783   -0.8411   -0.0248 H   0  0  0  0  0  0  0  0  0  0  0  0
   -0.6101    1.0666   -0.4611 C   0  0  0  0  0  0  0  0  0  0  0  0
    0.2391    1.7187   -0.2467 H   0  0  0  0  0  0  0  0  0  0  0  0
   -0.5618    0.7781   -1.5122 H   0  0  0  0  0  0  0  0  0  0  0  0
   -1.9050    1.8628   -0.2229 C   0  0  0  0  0  0  0  0  0  0  0  0
   -1.6762    2.9267   -0.1641 H   0  0  0  0  0  0  0  0  0  0  0  0
   -2.5811    1.6979   -1.0618 H   0  0  0  0  0  0  0  0  0  0  0  0
   -2.6284    1.4638    1.0632 C   0  0  0  0  0  0  0  0  0  0  0  0
   -2.2590    0.5563    1.7847 O   0  0  0  0  0  0  0  0  0  0  0  0
   -3.7009    2.1399    1.4137 N   0  0  0  0  0  0  0  0  0  0  0  0
   -4.1358    1.8358    2.2675 H   0  0  0  0  0  0  0  0  0  0  0  0
   -4.0460    2.8965    0.8585 H   0  0  0  0  0  0  0  0  0  0  0  0
   -0.0637    0.1284    1.8555 C   0  0  0  0  0  0  0  0  0  0  0  0
    1.0918   -0.0745    2.2236 O   0  0  0  0  0  0  0  0  0  0  0  0
   -1.0024    0.6217    2.6735 N   0  0  0  0  0  0  0  0  0  0  0  0
   -1.9213    0.7848    2.2938 H   0  0  0  0  0  0  0  0  0  0  0  0
   -0.7639    0.9676    4.0741 C   0  0  0  0  0  0  0  0  0  0  0  0
    0.0520    1.6916    4.1400 H   0  0  0  0  0  0  0  0  0  0  0  0
   -1.6626    1.3984    4.5182 H   0  0  0  0  0  0  0  0  0  0  0  0
   -0.4775    0.0737    4.6309 H   0  0  0  0  0  0  0  0  0  0  0  0
  5  6  2  0  0  0  0
  5  7  1  0  0  0  0
  2  3  1  0  0  0  0
  2  4  1  0  0  0  0
  2  5  1  0  0  0  0
  1  2  1  0  0  0  0
 22 23  2  0  0  0  0
 22 24  1  0  0  0  0
 19 20  1  0  0  0  0
 19 21  1  0  0  0  0
 17 18  2  0  0  0  0
 17 19  1  0  0  0  0
 14 15  1  0  0  0  0
 14 16  1  0  0  0  0
 14 17  1  0  0  0  0
 11 12  1  0  0  0  0
 11 13  1  0  0  0  0
 11 14  1  0  0  0  0
  9 10  1  0  0  0  0
  9 11  1  0  0  0  0
  9 22  1  0  0  0  0
  7  8  1  0  0  0  0
  7  9  1  0  0  0  0
 26 27  1  0  0  0  0
 26 28  1  0  0  0  0
 26 29  1  0  0  0  0
 24 25  1  0  0  0  0
 24 26  1  0  0  0  0
M  END
$$$$
default_name
  -OEChem-02102213163D

 29 28  0     1  0  0  0  0  0999 V2000
   -3.3998   -3.6239    1.3678 H   0  0  0  0  0  0  0  0  0  0  0  0
   -3.3608   -2.6749    0.8348 C   0  0  0  0  0  0  0  0  0  0  0  0
   -4.0988   -1.9909    1.2498 H   0  0  0  0  0  0  0  0  0  0  0  0
   -3.5618   -2.8419   -0.2222 H   0  0  0  0  0  0  0  0  0  0  0  0
   -1.9818   -2.0809    0.9918 C   0  0  0  0  0  0  0  0  0  0  0  0
   -1.1288   -2.6669    1.6468 O   0  0  0  0  0  0  0  0  0  0  0  0
   -1.7648   -0.9089    0.3998 N   0  0  0  0  0  0  0  0  0  0  0  0
   -2.5238   -0.4719   -0.1032 H   0  0  0  0  0  0  0  0  0  0  0  0
   -0.4848   -0.1959    0.4138 C   0  0  1  0  0  0  0  0  0  0  0  0
    0.2783   -0.8411   -0.0248 H   0  0  0  0  0  0  0  0  0  0  0  0
   -0.6101    1.0666   -0.4611 C   0  0  0  0  0  0  0  0  0  0  0  0
    0.2391    1.7187   -0.2467 H   0  0  0  0  0  0  0  0  0  0  0  0
   -0.5618    0.7781   -1.5122 H   0  0  0  0  0  0  0  0  0  0  0  0
   -1.9050    1.8628   -0.2229 C   0  0  0  0  0  0  0  0  0  0  0  0
   -1.7293    2.9189   -0.4266 H   0  0  0  0  0  0  0  0  0  0  0  0
   -2.6740    1.4999   -0.9048 H   0  0  0  0  0  0  0  0  0  0  0  0
   -2.4328    1.7391    1.2064 C   0  0  0  0  0  0  0  0  0  0  0  0
   -1.9238    1.0227    2.0479 O   0  0  0  0  0  0  0  0  0  0  0  0
   -3.4864    2.4486    1.5482 N   0  0  0  0  0  0  0  0  0  0  0  0
   -3.7896    2.3294    2.4991 H   0  0  0  0  0  0  0  0  0  0  0  0
   -3.9414    3.0552    0.8965 H   0  0  0  0  0  0  0  0  0  0  0  0
   -0.0637    0.1284    1.8555 C   0  0  0  0  0  0  0  0  0  0  0  0
    1.0918   -0.0745    2.2236 O   0  0  0  0  0  0  0  0  0  0  0  0
   -1.0024    0.6217    2.6735 N   0  0  0  0  0  0  0  0  0  0  0  0
   -1.9213    0.7848    2.2938 H   0  0  0  0  0  0  0  0  0  0  0  0
   -0.7639    0.9676    4.0741 C   0  0  0  0  0  0  0  0  0  0  0  0
    0.0520    1.6916    4.1400 H   0  0  0  0  0  0  0  0  0  0  0  0
   -1.6626    1.3984    4.5182 H   0  0  0  0  0  0  0  0  0  0  0  0
   -0.4775    0.0737    4.6309 H   0  0  0  0  0  0  0  0  0  0  0  0
  5  6  2  0  0  0  0
  5  7  1  0  0  0  0
  2  3  1  0  0  0  0
  2  4  1  0  0  0  0
  2  5  1  0  0  0  0
  1  2  1  0  0  0  0
 22 23  2  0  0  0  0
 22 24  1  0  0  0  0
 19 20  1  0  0  0  0
 19 21  1  0  0  0  0
 17 18  2  0  0  0  0
 17 19  1  0  0  0  0
 14 15  1  0  0  0  0
 14 16  1  0  0  0  0
 14 17  1  0  0  0  0
 11 12  1  0  0  0  0
 11 13  1  0  0  0  0
 11 14  1  0  0  0  0
  9 10  1  0  0  0  0
  9 11  1  0  0  0  0
  9 22  1  0  0  0  0
  7  8  1  0  0  0  0
  7  9  1  0  0  0  0
 26 27  1  0  0  0  0
 26 28  1  0  0  0  0
 26 29  1  0  0  0  0
 24 25  1  0  0  0  0
 24 26  1  0  0  0  0
M  END
$$$$
default_name
  -OEChem-02102213163D

 29 28  0     1  0  0  0  0  0999 V2000
   -3.3998   -3.6239    1.3678 H   0  0  0  0  0  0  0  0  0  0  0  0
   -3.3608   -2.6749    0.8348 C   0  0  0  0  0  0  0  0  0  0  0  0
   -4.0988   -1.9909    1.2498 H   0  0  0  0  0  0  0  0  0  0  0  0
   -3.5618   -2.8419   -0.2222 H   0  0  0  0  0  0  0  0  0  0  0  0
   -1.9818   -2.0809    0.9918 C   0  0  0  0  0  0  0  0  0  0  0  0
   -1.1288   -2.6669    1.6468 O   0  0  0  0  0  0  0  0  0  0  0  0
   -1.7648   -0.9089    0.3998 N   0  0  0  0  0  0  0  0  0  0  0  0
   -2.5238   -0.4719   -0.1032 H   0  0  0  0  0  0  0  0  0  0  0  0
   -0.4848   -0.1959    0.4138 C   0  0  1  0  0  0  0  0  0  0  0  0
    0.2783   -0.8411   -0.0248 H   0  0  0  0  0  0  0  0  0  0  0  0
   -0.6101    1.0666   -0.4611 C   0  0  0  0  0  0  0  0  0  0  0  0
    0.2391    1.7187   -0.2467 H   0  0  0  0  0  0  0  0  0  0  0  0
   -0.5618    0.7781   -1.5122 H   0  0  0  0  0  0  0  0  0  0  0  0
   -1.9050    1.8628   -0.2229 C   0  0  0  0  0  0  0  0  0  0  0  0
   -1.8154    2.8521   -0.6713 H   0  0  0  0  0  0  0  0  0  0  0  0
   -2.7347    1.3392   -0.6977 H   0  0  0  0  0  0  0  0  0  0  0  0
   -2.2357    2.0441    1.2585 C   0  0  0  0  0  0  0  0  0  0  0  0
   -1.5834    1.5440    2.1557 O   0  0  0  0  0  0  0  0  0  0  0  0
   -3.2735    2.7847    1.5821 N   0  0  0  0  0  0  0  0  0  0  0  0
   -3.4440    2.8706    2.5690 H   0  0  0  0  0  0  0  0  0  0  0  0
   -3.8417    3.2209    0.8846 H   0  0  0  0  0  0  0  0  0  0  0  0
   -0.0637    0.1284    1.8555 C   0  0  0  0  0  0  0  0  0  0  0  0
    1.0918   -0.0745    2.2236 O   0  0  0  0  0  0  0  0  0  0  0  0
   -1.0024    0.6217    2.6735 N   0  0  0  0  0  0  0  0  0  0  0  0
   -1.9213    0.7848    2.2938 H   0  0  0  0  0  0  0  0  0  0  0  0
   -0.7639    0.9676    4.0741 C   0  0  0  0  0  0  0  0  0  0  0  0
    0.0520    1.6916    4.1400 H   0  0  0  0  0  0  0  0  0  0  0  0
   -1.6626    1.3984    4.5182 H   0  0  0  0  0  0  0  0  0  0  0  0
   -0.4775    0.0737    4.6309 H   0  0  0  0  0  0  0  0  0  0  0  0
  5  6  2  0  0  0  0
  5  7  1  0  0  0  0
  2  3  1  0  0  0  0
  2  4  1  0  0  0  0
  2  5  1  0  0  0  0
  1  2  1  0  0  0  0
 22 23  2  0  0  0  0
 22 24  1  0  0  0  0
 19 20  1  0  0  0  0
 19 21  1  0  0  0  0
 17 18  2  0  0  0  0
 17 19  1  0  0  0  0
 14 15  1  0  0  0  0
 14 16  1  0  0  0  0
 14 17  1  0  0  0  0
 11 12  1  0  0  0  0
 11 13  1  0  0  0  0
 11 14  1  0  0  0  0
  9 10  1  0  0  0  0
  9 11  1  0  0  0  0
  9 22  1  0  0  0  0
  7  8  1  0  0  0  0
  7  9  1  0  0  0  0
 26 27  1  0  0  0  0
 26 28  1  0  0  0  0
 26 29  1  0  0  0  0
 24 25  1  0  0  0  0
 24 26  1  0  0  0  0
M  END
$$$$
default_name
  -OEChem-02102213163D

 29 28  0     1  0  0  0  0  0999 V2000
   -3.3998   -3.6239    1.3678 H   0  0  0  0  0  0  0  0  0  0  0  0
   -3.3608   -2.6749    0.8348 C   0  0  0  0  0  0  0  0  0  0  0  0
   -4.0988   -1.9909    1.2498 H   0  0  0  0  0  0  0  0  0  0  0  0
   -3.5618   -2.8419   -0.2222 H   0  0  0  0  0  0  0  0  0  0  0  0
   -1.9818   -2.0809    0.9918 C   0  0  0  0  0  0  0  0  0  0  0  0
   -1.1288   -2.6669    1.6468 O   0  0  0  0  0  0  0  0  0  0  0  0
   -1.7648   -0.9089    0.3998 N   0  0  0  0  0  0  0  0  0  0  0  0
   -2.5238   -0.4719   -0.1032 H   0  0  0  0  0  0  0  0  0  0  0  0
   -0.4848   -0.1959    0.4138 C   0  0  1  0  0  0  0  0  0  0  0  0
    0.2783   -0.8411   -0.0248 H   0  0  0  0  0  0  0  0  0  0  0  0
   -0.6101    1.0666   -0.4611 C   0  0  0  0  0  0  0  0  0  0  0  0
    0.2391    1.7187   -0.2467 H   0  0  0  0  0  0  0  0  0  0  0  0
   -0.5618    0.7781   -1.5122 H   0  0  0  0  0  0  0  0  0  0  0  0
   -1.9050    1.8628   -0.2229 C   0  0  0  0  0  0  0  0  0  0  0  0
   -1.9287    2.7308   -0.8815 H   0  0  0  0  0  0  0  0  0  0  0  0
   -2.7592    1.2266   -0.4545 H   0  0  0  0  0  0  0  0  0  0  0  0
   -2.0505    2.3580    1.2160 C   0  0  0  0  0  0  0  0  0  0  0  0
   -1.2611    2.0847    2.1007 O   0  0  0  0  0  0  0  0  0  0  0  0
   -3.0768    3.1253    1.5131 N   0  0  0  0  0  0  0  0  0  0  0  0
   -3.1225    3.4224    2.4724 H   0  0  0  0  0  0  0  0  0  0  0  0
   -3.7536    3.3824    0.8236 H   0  0  0  0  0  0  0  0  0  0  0  0
   -0.0637    0.1284    1.8555 C   0  0  0  0  0  0  0  0  0  0  0  0
    1.0918   -0.0745    2.2236 O   0  0  0  0  0  0  0  0  0  0  0  0
   -1.0024    0.6217    2.6735 N   0  0  0  0  0  0  0  0  0  0  0  0
   -1.9213    0.7848    2.2938 H   0  0  0  0  0  0  0  0  0  0  0  0
   -0.7639    0.9676    4.0741 C   0  0  0  0  0  0  0  0  0  0  0  0
    0.0520    1.6916    4.1400 H   0  0  0  0  0  0  0  0  0  0  0  0
   -1.6626    1.3984    4.5182 H   0  0  0  0  0  0  0  0  0  0  0  0
   -0.4775    0.0737    4.6309 H   0  0  0  0  0  0  0  0  0  0  0  0
  5  6  2  0  0  0  0
  5  7  1  0  0  0  0
  2  3  1  0  0  0  0
  2  4  1  0  0  0  0
  2  5  1  0  0  0  0
  1  2  1  0  0  0  0
 22 23  2  0  0  0  0
 22 24  1  0  0  0  0
 19 20  1  0  0  0  0
 19 21  1  0  0  0  0
 17 18  2  0  0  0  0
 17 19  1  0  0  0  0
 14 15  1  0  0  0  0
 14 16  1  0  0  0  0
 14 17  1  0  0  0  0
 11 12  1  0  0  0  0
 11 13  1  0  0  0  0
 11 14  1  0  0  0  0
  9 10  1  0  0  0  0
  9 11  1  0  0  0  0
  9 22  1  0  0  0  0
  7  8  1  0  0  0  0
  7  9  1  0  0  0  0
 26 27  1  0  0  0  0
 26 28  1  0  0  0  0
 26 29  1  0  0  0  0
 24 25  1  0  0  0  0
 24 26  1  0  0  0  0
M  END
$$$$
default_name
  -OEChem-02102213163D

 29 28  0     1  0  0  0  0  0999 V2000
   -3.3998   -3.6239    1.3678 H   0  0  0  0  0  0  0  0  0  0  0  0
   -3.3608   -2.6749    0.8348 C   0  0  0  0  0  0  0  0  0  0  0  0
   -4.0988   -1.9909    1.2498 H   0  0  0  0  0  0  0  0  0  0  0  0
   -3.5618   -2.8419   -0.2222 H   0  0  0  0  0  0  0  0  0  0  0  0
   -1.9818   -2.0809    0.9918 C   0  0  0  0  0  0  0  0  0  0  0  0
   -1.1288   -2.6669    1.6468 O   0  0  0  0  0  0  0  0  0  0  0  0
   -1.7648   -0.9089    0.3998 N   0  0  0  0  0  0  0  0  0  0  0  0
   -2.5238   -0.4719   -0.1032 H   0  0  0  0  0  0  0  0  0  0  0  0
   -0.4848   -0.1959    0.4138 C   0  0  1  0  0  0  0  0  0  0  0  0
    0.2783   -0.8411   -0.0248 H   0  0  0  0  0  0  0  0  0  0  0  0
   -0.6101    1.0666   -0.4611 C   0  0  0  0  0  0  0  0  0  0  0  0
    0.2391    1.7187   -0.2467 H   0  0  0  0  0  0  0  0  0  0  0  0
   -0.5618    0.7781   -1.5122 H   0  0  0  0  0  0  0  0  0  0  0  0
   -1.9050    1.8628   -0.2229 C   0  0  0  0  0  0  0  0  0  0  0  0
   -2.0614    2.5632   -1.0430 H   0  0  0  0  0  0  0  0  0  0  0  0
   -2.7457    1.1698   -0.1917 H   0  0  0  0  0  0  0  0  0  0  0  0
   -1.8899    2.6593    1.0817 C   0  0  0  0  0  0  0  0  0  0  0  0
   -0.9788    2.6079    1.8866 O   0  0  0  0  0  0  0  0  0  0  0  0
   -2.9096    3.4471    1.3460 N   0  0  0  0  0  0  0  0  0  0  0  0
   -2.8471    3.9472    2.2158 H   0  0  0  0  0  0  0  0  0  0  0  0
   -3.6831    3.5287    0.7177 H   0  0  0  0  0  0  0  0  0  0  0  0
   -0.0637    0.1284    1.8555 C   0  0  0  0  0  0  0  0  0  0  0  0
    1.0918   -0.0745    2.2236 O   0  0  0  0  0  0  0  0  0  0  0  0
   -1.0024    0.6217    2.6735 N   0  0  0  0  0  0  0  0  0  0  0  0
   -1.9213    0.7848    2.2938 H   0  0  0  0  0  0  0  0  0  0  0  0
   -0.7639    0.9676    4.0741 C   0  0  0  0  0  0  0  0  0  0  0  0
    0.0520    1.6916    4.1400 H   0  0  0  0  0  0  0  0  0  0  0  0
   -1.6626    1.3984    4.5182 H   0  0  0  0  0  0  0  0  0  0  0  0
   -0.4775    0.0737    4.6309 H   0  0  0  0  0  0  0  0  0  0  0  0
  5  6  2  0  0  0  0
  5  7  1  0  0  0  0
  2  3  1  0  0  0  0
  2  4  1  0  0  0  0
  2  5  1  0  0  0  0
  1  2  1  0  0  0  0
 22 23  2  0  0  0  0
 22 24  1  0  0  0  0
 19 20  1  0  0  0  0
 19 21  1  0  0  0  0
 17 18  2  0  0  0  0
 17 19  1  0  0  0  0
 14 15  1  0  0  0  0
 14 16  1  0  0  0  0
 14 17  1  0  0  0  0
 11 12  1  0  0  0  0
 11 13  1  0  0  0  0
 11 14  1  0  0  0  0
  9 10  1  0  0  0  0
  9 11  1  0  0  0  0
  9 22  1  0  0  0  0
  7  8  1  0  0  0  0
  7  9  1  0  0  0  0
 26 27  1  0  0  0  0
 26 28  1  0  0  0  0
 26 29  1  0  0  0  0
 24 25  1  0  0  0  0
 24 26  1  0  0  0  0
M  END
$$$$
default_name
  -OEChem-02102213163D

 29 28  0     1  0  0  0  0  0999 V2000
   -3.3998   -3.6239    1.3678 H   0  0  0  0  0  0  0  0  0  0  0  0
   -3.3608   -2.6749    0.8348 C   0  0  0  0  0  0  0  0  0  0  0  0
   -4.0988   -1.9909    1.2498 H   0  0  0  0  0  0  0  0  0  0  0  0
   -3.5618   -2.8419   -0.2222 H   0  0  0  0  0  0  0  0  0  0  0  0
   -1.9818   -2.0809    0.9918 C   0  0  0  0  0  0  0  0  0  0  0  0
   -1.1288   -2.6669    1.6468 O   0  0  0  0  0  0  0  0  0  0  0  0
   -1.7648   -0.9089    0.3998 N   0  0  0  0  0  0  0  0  0  0  0  0
   -2.5238   -0.4719   -0.1032 H   0  0  0  0  0  0  0  0  0  0  0  0
   -0.4848   -0.1959    0.4138 C   0  0  1  0  0  0  0  0  0  0  0  0
    0.2783   -0.8411   -0.0248 H   0  0  0  0  0  0  0  0  0  0  0  0
   -0.6101    1.0666   -0.4611 C   0  0  0  0  0  0  0  0  0  0  0  0
    0.2391    1.7187   -0.2467 H   0  0  0  0  0  0  0  0  0  0  0  0
   -0.5618    0.7781   -1.5122 H   0  0  0  0  0  0  0  0  0  0  0  0
   -1.9050    1.8628   -0.2229 C   0  0  0  0  0  0  0  0  0  0  0  0
   -2.2045    2.3609   -1.1448 H   0  0  0  0  0  0  0  0  0  0  0  0
   -2.6953    1.1728    0.0726 H   0  0  0  0  0  0  0  0  0  0  0  0
   -1.7649    2.9275    0.8649 C   0  0  0  0  0  0  0  0  0  0  0  0
   -0.7558    3.0779    1.5280 O   0  0  0  0  0  0  0  0  0  0  0  0
   -2.7835    3.7282    1.0921 N   0  0  0  0  0  0  0  0  0  0  0  0
   -2.6364    4.4092    1.8167 H   0  0  0  0  0  0  0  0  0  0  0  0
   -3.6351    3.6497    0.5742 H   0  0  0  0  0  0  0  0  0  0  0  0
   -0.0637    0.1284    1.8555 C   0  0  0  0  0  0  0  0  0  0  0  0
    1.0918   -0.0745    2.2236 O   0  0  0  0  0  0  0  0  0  0  0  0
   -1.0024    0.6217    2.6735 N   0  0  0  0  0  0  0  0  0  0  0  0
   -1.9213    0.7848    2.2938 H   0  0  0  0  0  0  0  0  0  0  0  0
   -0.7639    0.9676    4.0741 C   0  0  0  0  0  0  0  0  0  0  0  0
    0.0520    1.6916    4.1400 H   0  0  0  0  0  0  0  0  0  0  0  0
   -1.6626    1.3984    4.5182 H   0  0  0  0  0  0  0  0  0  0  0  0
   -0.4775    0.0737    4.6309 H   0  0  0  0  0  0  0  0  0  0  0  0
  5  6  2  0  0  0  0
  5  7  1  0  0  0  0
  2  3  1  0  0  0  0
  2  4  1  0  0  0  0
  2  5  1  0  0  0  0
  1  2  1  0  0  0  0
 22 23  2  0  0  0  0
 22 24  1  0  0  0  0
 19 20  1  0  0  0  0
 19 21  1  0  0  0  0
 17 18  2  0  0  0  0
 17 19  1  0  0  0  0
 14 15  1  0  0  0  0
 14 16  1  0  0  0  0
 14 17  1  0  0  0  0
 11 12  1  0  0  0  0
 11 13  1  0  0  0  0
 11 14  1  0  0  0  0
  9 10  1  0  0  0  0
  9 11  1  0  0  0  0
  9 22  1  0  0  0  0
  7  8  1  0  0  0  0
  7  9  1  0  0  0  0
 26 27  1  0  0  0  0
 26 28  1  0  0  0  0
 26 29  1  0  0  0  0
 24 25  1  0  0  0  0
 24 26  1  0  0  0  0
M  END
$$$$
default_name
  -OEChem-02102213163D

 29 28  0     1  0  0  0  0  0999 V2000
   -3.3998   -3.6239    1.3678 H   0  0  0  0  0  0  0  0  0  0  0  0
   -3.3608   -2.6749    0.8348 C   0  0  0  0  0  0  0  0  0  0  0  0
   -4.0988   -1.9909    1.2498 H   0  0  0  0  0  0  0  0  0  0  0  0
   -3.5618   -2.8419   -0.2222 H   0  0  0  0  0  0  0  0  0  0  0  0
   -1.9818   -2.0809    0.9918 C   0  0  0  0  0  0  0  0  0  0  0  0
   -1.1288   -2.6669    1.6468 O   0  0  0  0  0  0  0  0  0  0  0  0
   -1.7648   -0.9089    0.3998 N   0  0  0  0  0  0  0  0  0  0  0  0
   -2.5238   -0.4719   -0.1032 H   0  0  0  0  0  0  0  0  0  0  0  0
   -0.4848   -0.1959    0.4138 C   0  0  1  0  0  0  0  0  0  0  0  0
    0.2783   -0.8411   -0.0248 H   0  0  0  0  0  0  0  0  0  0  0  0
   -0.6101    1.0666   -0.4611 C   0  0  0  0  0  0  0  0  0  0  0  0
    0.2391    1.7187   -0.2467 H   0  0  0  0  0  0  0  0  0  0  0  0
   -0.5618    0.7781   -1.5122 H   0  0  0  0  0  0  0  0  0  0  0  0
   -1.9050    1.8628   -0.2229 C   0  0  0  0  0  0  0  0  0  0  0  0
   -2.3483    2.1376   -1.1798 H   0  0  0  0  0  0  0  0  0  0  0  0
   -2.6113    1.2352    0.3205 H   0  0  0  0  0  0  0  0  0  0  0  0
   -1.6838    3.1444    0.5804 C   0  0  0  0  0  0  0  0  0  0  0  0
   -0.6072    3.4627    1.0494 O   0  0  0  0  0  0  0  0  0  0  0  0
   -2.7069    3.9495    0.7687 N   0  0  0  0  0  0  0  0  0  0  0  0
   -2.5048    4.7771    1.3024 H   0  0  0  0  0  0  0  0  0  0  0  0
   -3.6128    3.7373    0.4027 H   0  0  0  0  0  0  0  0  0  0  0  0
   -0.0637    0.1284    1.8555 C   0  0  0  0  0  0  0  0  0  0  0  0
    1.0918   -0.0745    2.2236 O   0  0  0  0  0  0  0  0  0  0  0  0
   -1.0024    0.6217    2.6735 N   0  0  0  0  0  0  0  0  0  0  0  0
   -1.9213    0.7848    2.2938 H   0  0  0  0  0  0  0  0  0  0  0  0
   -0.7639    0.9676    4.0741 C   0  0  0  0  0  0  0  0  0  0  0  0
    0.0520    1.6916    4.1400 H   0  0  0  0  0  0  0  0  0  0  0  0
   -1.6626    1.3984    4.5182 H   0  0  0  0  0  0  0  0  0  0  0  0
   -0.4775    0.0737    4.6309 H   0  0  0  0  0  0  0  0  0  0  0  0
  5  6  2  0  0  0  0
  5  7  1  0  0  0  0
  2  3  1  0  0  0  0
  2  4  1  0  0  0  0
  2  5  1  0  0  0  0
  1  2  1  0  0  0  0
 22 23  2  0  0  0  0
 22 24  1  0  0  0  0
 19 20  1  0  0  0  0
 19 21  1  0  0  0  0
 17 18  2  0  0  0  0
 17 19  1  0  0  0  0
 14 15  1  0  0  0  0
 14 16  1  0  0  0  0
 14 17  1  0  0  0  0
 11 12  1  0  0  0  0
 11 13  1  0  0  0  0
 11 14  1  0  0  0  0
  9 10  1  0  0  0  0
  9 11  1  0  0  0  0
  9 22  1  0  0  0  0
  7  8  1  0  0  0  0
  7  9  1  0  0  0  0
 26 27  1  0  0  0  0
 26 28  1  0  0  0  0
 26 29  1  0  0  0  0
 24 25  1  0  0  0  0
 24 26  1  0  0  0  0
M  END
$$$$
default_name
  -OEChem-02102213163D

 29 28  0     1  0  0  0  0  0999 V2000
   -3.3998   -3.6239    1.3678 H   0  0  0  0  0  0  0  0  0  0  0  0
   -3.3608   -2.6749    0.8348 C   0  0  0  0  0  0  0  0  0  0  0  0
   -4.0988   -1.9909    1.2498 H   0  0  0  0  0  0  0  0  0  0  0  0
   -3.5618   -2.8419   -0.2222 H   0  0  0  0  0  0  0  0  0  0  0  0
   -1.9818   -2.0809    0.9918 C   0  0  0  0  0  0  0  0  0  0  0  0
   -1.1288   -2.6669    1.6468 O   0  0  0  0  0  0  0  0  0  0  0  0
   -1.7648   -0.9089    0.3998 N   0  0  0  0  0  0  0  0  0  0  0  0
   -2.5238   -0.4719   -0.1032 H   0  0  0  0  0  0  0  0  0  0  0  0
   -0.4848   -0.1959    0.4138 C   0  0  1  0  0  0  0  0  0  0  0  0
    0.2783   -0.8411   -0.0248 H   0  0  0  0  0  0  0  0  0  0  0  0
   -0.6101    1.0666   -0.4611 C   0  0  0  0  0  0  0  0  0  0  0  0
    0.2391    1.7187   -0.2467 H   0  0  0  0  0  0  0  0  0  0  0  0
   -0.5618    0.7781   -1.5122 H   0  0  0  0  0  0  0  0  0  0  0  0
   -1.9050    1.8628   -0.2229 C   0  0  0  0  0  0  0  0  0  0  0  0
   -2.4829    1.9086   -1.1458 H   0  0  0  0  0  0  0  0  0  0  0  0
   -2.4994    1.3529    0.5352 H   0  0  0  0  0  0  0  0  0  0  0  0
   -1.6524    3.2952    0.2474 C   0  0  0  0  0  0  0  0  0  0  0  0
   -0.5432    3.7362    0.4834 O   0  0  0  0  0  0  0  0  0  0  0  0
   -2.6851    4.0959    0.3978 N   0  0  0  0  0  0  0  0  0  0  0  0
   -2.4613    5.0256    0.7078 H   0  0  0  0  0  0  0  0  0  0  0  0
   -3.6177    3.7854    0.2151 H   0  0  0  0  0  0  0  0  0  0  0  0
   -0.0637    0.1284    1.8555 C   0  0  0  0  0  0  0  0  0  0  0  0
    1.0918   -0.0745    2.2236 O   0  0  0  0  0  0  0  0  0  0  0  0
   -1.0024    0.6217    2.6735 N   0  0  0  0  0  0  0  0  0  0  0  0
   -1.9213    0.7848    2.2938 H   0  0  0  0  0  0  0  0  0  0  0  0
   -0.7639    0.9676    4.0741 C   0  0  0  0  0  0  0  0  0  0  0  0
    0.0520    1.6916    4.1400 H   0  0  0  0  0  0  0  0  0  0  0  0
   -1.6626    1.3984    4.5182 H   0  0  0  0  0  0  0  0  0  0  0  0
   -0.4775    0.0737    4.6309 H   0  0  0  0  0  0  0  0  0  0  0  0
  5  6  2  0  0  0  0
  5  7  1  0  0  0  0
  2  3  1  0  0  0  0
  2  4  1  0  0  0  0
  2  5  1  0  0  0  0
  1  2  1  0  0  0  0
 22 23  2  0  0  0  0
 22 24  1  0  0  0  0
 19 20  1  0  0  0  0
 19 21  1  0  0  0  0
 17 18  2  0  0  0  0
 17 19  1  0  0  0  0
 14 15  1  0  0  0  0
 14 16  1  0  0  0  0
 14 17  1  0  0  0  0
 11 12  1  0  0  0  0
 11 13  1  0  0  0  0
 11 14  1  0  0  0  0
  9 10  1  0  0  0  0
  9 11  1  0  0  0  0
  9 22  1  0  0  0  0
  7  8  1  0  0  0  0
  7  9  1  0  0  0  0
 26 27  1  0  0  0  0
 26 28  1  0  0  0  0
 26 29  1  0  0  0  0
 24 25  1  0  0  0  0
 24 26  1  0  0  0  0
M  END
$$$$
default_name
  -OEChem-02102213163D

 29 28  0     1  0  0  0  0  0999 V2000
   -3.3998   -3.6239    1.3678 H   0  0  0  0  0  0  0  0  0  0  0  0
   -3.3608   -2.6749    0.8348 C   0  0  0  0  0  0  0  0  0  0  0  0
   -4.0988   -1.9909    1.2498 H   0  0  0  0  0  0  0  0  0  0  0  0
   -3.5618   -2.8419   -0.2222 H   0  0  0  0  0  0  0  0  0  0  0  0
   -1.9818   -2.0809    0.9918 C   0  0  0  0  0  0  0  0  0  0  0  0
   -1.1288   -2.6669    1.6468 O   0  0  0  0  0  0  0  0  0  0  0  0
   -1.7648   -0.9089    0.3998 N   0  0  0  0  0  0  0  0  0  0  0  0
   -2.5238   -0.4719   -0.1032 H   0  0  0  0  0  0  0  0  0  0  0  0
   -0.4848   -0.1959    0.4138 C   0  0  1  0  0  0  0  0  0  0  0  0
    0.2783   -0.8411   -0.0248 H   0  0  0  0  0  0  0  0  0  0  0  0
   -0.6101    1.0666   -0.4611 C   0  0  0  0  0  0  0  0  0  0  0  0
    0.2391    1.7187   -0.2467 H   0  0  0  0  0  0  0  0  0  0  0  0
   -0.5618    0.7781   -1.5122 H   0  0  0  0  0  0  0  0  0  0  0  0
   -1.9050    1.8628   -0.2229 C   0  0  0  0  0  0  0  0  0  0  0  0
   -2.5991    1.6893   -1.0450 H   0  0  0  0  0  0  0  0  0  0  0  0
   -2.3674    1.5178    0.7019 H   0  0  0  0  0  0  0  0  0  0  0  0
   -1.6727    3.3695   -0.1113 C   0  0  0  0  0  0  0  0  0  0  0  0
   -0.5681    3.8795   -0.1314 O   0  0  0  0  0  0  0  0  0  0  0  0
   -2.7195    4.1574    0.0048 N   0  0  0  0  0  0  0  0  0  0  0  0
   -2.5089    5.1379    0.0736 H   0  0  0  0  0  0  0  0  0  0  0  0
   -3.6496    3.7908    0.0240 H   0  0  0  0  0  0  0  0  0  0  0  0
   -0.0637    0.1284    1.8555 C   0  0  0  0  0  0  0  0  0  0  0  0
    1.0918   -0.0745    2.2236 O   0  0  0  0  0  0  0  0  0  0  0  0
   -1.0024    0.6217    2.6735 N   0  0  0  0  0  0  0  0  0  0  0  0
   -1.9213    0.7848    2.2938 H   0  0  0  0  0  0  0  0  0  0  0  0
   -0.7639    0.9676    4.0741 C   0  0  0  0  0  0  0  0  0  0  0  0
    0.0520    1.6916    4.1400 H   0  0  0  0  0  0  0  0  0  0  0  0
   -1.6626    1.3984    4.5182 H   0  0  0  0  0  0  0  0  0  0  0  0
   -0.4775    0.0737    4.6309 H   0  0  0  0  0  0  0  0  0  0  0  0
  5  6  2  0  0  0  0
  5  7  1  0  0  0  0
  2  3  1  0  0  0  0
  2  4  1  0  0  0  0
  2  5  1  0  0  0  0
  1  2  1  0  0  0  0
 22 23  2  0  0  0  0
 22 24  1  0  0  0  0
 19 20  1  0  0  0  0
 19 21  1  0  0  0  0
 17 18  2  0  0  0  0
 17 19  1  0  0  0  0
 14 15  1  0  0  0  0
 14 16  1  0  0  0  0
 14 17  1  0  0  0  0
 11 12  1  0  0  0  0
 11 13  1  0  0  0  0
 11 14  1  0  0  0  0
  9 10  1  0  0  0  0
  9 11  1  0  0  0  0
  9 22  1  0  0  0  0
  7  8  1  0  0  0  0
  7  9  1  0  0  0  0
 26 27  1  0  0  0  0
 26 28  1  0  0  0  0
 26 29  1  0  0  0  0
 24 25  1  0  0  0  0
 24 26  1  0  0  0  0
M  END
$$$$
default_name
  -OEChem-02102213163D

 29 28  0     1  0  0  0  0  0999 V2000
   -3.3998   -3.6239    1.3678 H   0  0  0  0  0  0  0  0  0  0  0  0
   -3.3608   -2.6749    0.8348 C   0  0  0  0  0  0  0  0  0  0  0  0
   -4.0988   -1.9909    1.2498 H   0  0  0  0  0  0  0  0  0  0  0  0
   -3.5618   -2.8419   -0.2222 H   0  0  0  0  0  0  0  0  0  0  0  0
   -1.9818   -2.0809    0.9918 C   0  0  0  0  0  0  0  0  0  0  0  0
   -1.1288   -2.6669    1.6468 O   0  0  0  0  0  0  0  0  0  0  0  0
   -1.7648   -0.9089    0.3998 N   0  0  0  0  0  0  0  0  0  0  0  0
   -2.5238   -0.4719   -0.1032 H   0  0  0  0  0  0  0  0  0  0  0  0
   -0.4848   -0.1959    0.4138 C   0  0  1  0  0  0  0  0  0  0  0  0
    0.2783   -0.8411   -0.0248 H   0  0  0  0  0  0  0  0  0  0  0  0
   -0.6101    1.0666   -0.4611 C   0  0  0  0  0  0  0  0  0  0  0  0
    0.2391    1.7187   -0.2467 H   0  0  0  0  0  0  0  0  0  0  0  0
   -0.5618    0.7781   -1.5122 H   0  0  0  0  0  0  0  0  0  0  0  0
   -1.9050    1.8628   -0.2229 C   0  0  0  0  0  0  0  0  0  0  0  0
   -2.6891    1.4948   -0.8842 H   0  0  0  0  0  0  0  0  0  0  0  0
   -2.2241    1.7187    0.8093 H   0  0  0  0  0  0  0  0  0  0  0  0
   -1.7432    3.3624   -0.4712 C   0  0  0  0  0  0  0  0  0  0  0  0
   -0.6803    3.8831   -0.7532 O   0  0  0  0  0  0  0  0  0  0  0  0
   -2.8080    4.1298   -0.3836 N   0  0  0  0  0  0  0  0  0  0  0  0
   -2.6444    5.1064   -0.5572 H   0  0  0  0  0  0  0  0  0  0  0  0
   -3.7061    3.7532   -0.1575 H   0  0  0  0  0  0  0  0  0  0  0  0
   -0.0637    0.1284    1.8555 C   0  0  0  0  0  0  0  0  0  0  0  0
    1.0918   -0.0745    2.2236 O   0  0  0  0  0  0  0  0  0  0  0  0
   -1.0024    0.6217    2.6735 N   0  0  0  0  0  0  0  0  0  0  0  0
   -1.9213    0.7848    2.2938 H   0  0  0  0  0  0  0  0  0  0  0  0
   -0.7639    0.9676    4.0741 C   0  0  0  0  0  0  0  0  0  0  0  0
    0.0520    1.6916    4.1400 H   0  0  0  0  0  0  0  0  0  0  0  0
   -1.6626    1.3984    4.5182 H   0  0  0  0  0  0  0  0  0  0  0  0
   -0.4775    0.0737    4.6309 H   0  0  0  0  0  0  0  0  0  0  0  0
  5  6  2  0  0  0  0
  5  7  1  0  0  0  0
  2  3  1  0  0  0  0
  2  4  1  0  0  0  0
  2  5  1  0  0  0  0
  1  2  1  0  0  0  0
 22 23  2  0  0  0  0
 22 24  1  0  0  0  0
 19 20  1  0  0  0  0
 19 21  1  0  0  0  0
 17 18  2  0  0  0  0
 17 19  1  0  0  0  0
 14 15  1  0  0  0  0
 14 16  1  0  0  0  0
 14 17  1  0  0  0  0
 11 12  1  0  0  0  0
 11 13  1  0  0  0  0
 11 14  1  0  0  0  0
  9 10  1  0  0  0  0
  9 11  1  0  0  0  0
  9 22  1  0  0  0  0
  7  8  1  0  0  0  0
  7  9  1  0  0  0  0
 26 27  1  0  0  0  0
 26 28  1  0  0  0  0
 26 29  1  0  0  0  0
 24 25  1  0  0  0  0
 24 26  1  0  0  0  0
M  END
$$$$
default_name
  -OEChem-02102213163D

 29 28  0     1  0  0  0  0  0999 V2000
   -3.3998   -3.6239    1.3678 H   0  0  0  0  0  0  0  0  0  0  0  0
   -3.3608   -2.6749    0.8348 C   0  0  0  0  0  0  0  0  0  0  0  0
   -4.0988   -1.9909    1.2498 H   0  0  0  0  0  0  0  0  0  0  0  0
   -3.5618   -2.8419   -0.2222 H   0  0  0  0  0  0  0  0  0  0  0  0
   -1.9818   -2.0809    0.9918 C   0  0  0  0  0  0  0  0  0  0  0  0
   -1.1288   -2.6669    1.6468 O   0  0  0  0  0  0  0  0  0  0  0  0
   -1.7648   -0.9089    0.3998 N   0  0  0  0  0  0  0  0  0  0  0  0
   -2.5238   -0.4719   -0.1032 H   0  0  0  0  0  0  0  0  0  0  0  0
   -0.4848   -0.1959    0.4138 C   0  0  1  0  0  0  0  0  0  0  0  0
    0.2783   -0.8411   -0.0248 H   0  0  0  0  0  0  0  0  0  0  0  0
   -0.6101    1.0666   -0.4611 C   0  0  0  0  0  0  0  0  0  0  0  0
    0.2391    1.7187   -0.2467 H   0  0  0  0  0  0  0  0  0  0  0  0
   -0.5618    0.7781   -1.5122 H   0  0  0  0  0  0  0  0  0  0  0  0
   -1.9050    1.8628   -0.2229 C   0  0  0  0  0  0  0  0  0  0  0  0
   -2.7468    1.3384   -0.6746 H   0  0  0  0  0  0  0  0  0  0  0  0
   -2.0793    1.9419    0.8501 H   0  0  0  0  0  0  0  0  0  0  0  0
   -1.8594    3.2743   -0.8079 C   0  0  0  0  0  0  0  0  0  0  0  0
   -0.8721    3.7467   -1.3396 O   0  0  0  0  0  0  0  0  0  0  0  0
   -2.9443    4.0151   -0.7409 N   0  0  0  0  0  0  0  0  0  0  0  0
   -2.8584    4.9331   -1.1414 H   0  0  0  0  0  0  0  0  0  0  0  0
   -3.7835    3.6750   -0.3171 H   0  0  0  0  0  0  0  0  0  0  0  0
   -0.0637    0.1284    1.8555 C   0  0  0  0  0  0  0  0  0  0  0  0
    1.0918   -0.0745    2.2236 O   0  0  0  0  0  0  0  0  0  0  0  0
   -1.0024    0.6217    2.6735 N   0  0  0  0  0  0  0  0  0  0  0  0
   -1.9213    0.7848    2.2938 H   0  0  0  0  0  0  0  0  0  0  0  0
   -0.7639    0.9676    4.0741 C   0  0  0  0  0  0  0  0  0  0  0  0
    0.0520    1.6916    4.1400 H   0  0  0  0  0  0  0  0  0  0  0  0
   -1.6626    1.3984    4.5182 H   0  0  0  0  0  0  0  0  0  0  0  0
   -0.4775    0.0737    4.6309 H   0  0  0  0  0  0  0  0  0  0  0  0
  5  6  2  0  0  0  0
  5  7  1  0  0  0  0
  2  3  1  0  0  0  0
  2  4  1  0  0  0  0
  2  5  1  0  0  0  0
  1  2  1  0  0  0  0
 22 23  2  0  0  0  0
 22 24  1  0  0  0  0
 19 20  1  0  0  0  0
 19 21  1  0  0  0  0
 17 18  2  0  0  0  0
 17 19  1  0  0  0  0
 14 15  1  0  0  0  0
 14 16  1  0  0  0  0
 14 17  1  0  0  0  0
 11 12  1  0  0  0  0
 11 13  1  0  0  0  0
 11 14  1  0  0  0  0
  9 10  1  0  0  0  0
  9 11  1  0  0  0  0
  9 22  1  0  0  0  0
  7  8  1  0  0  0  0
  7  9  1  0  0  0  0
 26 27  1  0  0  0  0
 26 28  1  0  0  0  0
 26 29  1  0  0  0  0
 24 25  1  0  0  0  0
 24 26  1  0  0  0  0
M  END
$$$$
default_name
  -OEChem-02102213163D

 29 28  0     1  0  0  0  0  0999 V2000
   -3.3998   -3.6239    1.3678 H   0  0  0  0  0  0  0  0  0  0  0  0
   -3.3608   -2.6749    0.8348 C   0  0  0  0  0  0  0  0  0  0  0  0
   -4.0988   -1.9909    1.2498 H   0  0  0  0  0  0  0  0  0  0  0  0
   -3.5618   -2.8419   -0.2222 H   0  0  0  0  0  0  0  0  0  0  0  0
   -1.9818   -2.0809    0.9918 C   0  0  0  0  0  0  0  0  0  0  0  0
   -1.1288   -2.6669    1.6468 O   0  0  0  0  0  0  0  0  0  0  0  0
   -1.7648   -0.9089    0.3998 N   0  0  0  0  0  0  0  0  0  0  0  0
   -2.5238   -0.4719   -0.1032 H   0  0  0  0  0  0  0  0  0  0  0  0
   -0.4848   -0.1959    0.4138 C   0  0  1  0  0  0  0  0  0  0  0  0
    0.2783   -0.8411   -0.0248 H   0  0  0  0  0  0  0  0  0  0  0  0
   -0.6101    1.0666   -0.4611 C   0  0  0  0  0  0  0  0  0  0  0  0
    0.3505    1.5858   -0.4544 H   0  0  0  0  0  0  0  0  0  0  0  0
   -0.8297    0.7687   -1.4875 H   0  0  0  0  0  0  0  0  0  0  0  0
   -1.6951    2.0483    0.0147 C   0  0  0  0  0  0  0  0  0  0  0  0
   -2.6648    1.5509    0.0171 H   0  0  0  0  0  0  0  0  0  0  0  0
   -1.4640    2.3654    1.0316 H   0  0  0  0  0  0  0  0  0  0  0  0
   -1.8059    3.2943   -0.8638 C   0  0  0  0  0  0  0  0  0  0  0  0
   -1.0605    3.5228   -1.7981 O   0  0  0  0  0  0  0  0  0  0  0  0
   -2.7601    4.1614   -0.6030 N   0  0  0  0  0  0  0  0  0  0  0  0
   -2.7872    4.9607   -1.2119 H   0  0  0  0  0  0  0  0  0  0  0  0
   -3.4014    4.0211    0.1512 H   0  0  0  0  0  0  0  0  0  0  0  0
   -0.0637    0.1284    1.8555 C   0  0  0  0  0  0  0  0  0  0  0  0
    1.0918   -0.0745    2.2236 O   0  0  0  0  0  0  0  0  0  0  0  0
   -1.0024    0.6217    2.6735 N   0  0  0  0  0  0  0  0  0  0  0  0
   -1.9213    0.7848    2.2938 H   0  0  0  0  0  0  0  0  0  0  0  0
   -0.7639    0.9676    4.0741 C   0  0  0  0  0  0  0  0  0  0  0  0
    0.0520    1.6916    4.1400 H   0  0  0  0  0  0  0  0  0  0  0  0
   -1.6626    1.3984    4.5182 H   0  0  0  0  0  0  0  0  0  0  0  0
   -0.4775    0.0737    4.6309 H   0  0  0  0  0  0  0  0  0  0  0  0
  5  6  2  0  0  0  0
  5  7  1  0  0  0  0
  2  3  1  0  0  0  0
  2  4  1  0  0  0  0
  2  5  1  0  0  0  0
  1  2  1  0  0  0  0
 22 23  2  0  0  0  0
 22 24  1  0  0  0  0
 19 20  1  0  0  0  0
 19 21  1  0  0  0  0
 17 18  2  0  0  0  0
 17 19  1  0  0  0  0
 14 15  1  0  0  0  0
 14 16  1  0  0  0  0
 14 17  1  0  0  0  0
 11 12  1  0  0  0  0
 11 13  1  0  0  0  0
 11 14  1  0  0  0  0
  9 10  1  0  0  0  0
  9 11  1  0  0  0  0
  9 22  1  0  0  0  0
  7  8  1  0  0  0  0
  7  9  1  0  0  0  0
 26 27  1  0  0  0  0
 26 28  1  0  0  0  0
 26 29  1  0  0  0  0
 24 25  1  0  0  0  0
 24 26  1  0  0  0  0
M  END
$$$$
default_name
  -OEChem-02102213163D

 29 28  0     1  0  0  0  0  0999 V2000
   -3.3998   -3.6239    1.3678 H   0  0  0  0  0  0  0  0  0  0  0  0
   -3.3608   -2.6749    0.8348 C   0  0  0  0  0  0  0  0  0  0  0  0
   -4.0988   -1.9909    1.2498 H   0  0  0  0  0  0  0  0  0  0  0  0
   -3.5618   -2.8419   -0.2222 H   0  0  0  0  0  0  0  0  0  0  0  0
   -1.9818   -2.0809    0.9918 C   0  0  0  0  0  0  0  0  0  0  0  0
   -1.1288   -2.6669    1.6468 O   0  0  0  0  0  0  0  0  0  0  0  0
   -1.7648   -0.9089    0.3998 N   0  0  0  0  0  0  0  0  0  0  0  0
   -2.5238   -0.4719   -0.1032 H   0  0  0  0  0  0  0  0  0  0  0  0
   -0.4848   -0.1959    0.4138 C   0  0  1  0  0  0  0  0  0  0  0  0
    0.2783   -0.8411   -0.0248 H   0  0  0  0  0  0  0  0  0  0  0  0
   -0.6101    1.0666   -0.4611 C   0  0  0  0  0  0  0  0  0  0  0  0
    0.3505    1.5858   -0.4544 H   0  0  0  0  0  0  0  0  0  0  0  0
   -0.8297    0.7687   -1.4875 H   0  0  0  0  0  0  0  0  0  0  0  0
   -1.6951    2.0483    0.0147 C   0  0  0  0  0  0  0  0  0  0  0  0
   -2.6003    1.4986    0.2718 H   0  0  0  0  0  0  0  0  0  0  0  0
   -1.3378    2.5664    0.9047 H   0  0  0  0  0  0  0  0  0  0  0  0
   -2.0614    3.0957   -1.0367 C   0  0  0  0  0  0  0  0  0  0  0  0
   -1.4979    3.1910   -2.1109 O   0  0  0  0  0  0  0  0  0  0  0  0
   -3.0408    3.9329   -0.7716 N   0  0  0  0  0  0  0  0  0  0  0  0
   -3.2397    4.5991   -1.4976 H   0  0  0  0  0  0  0  0  0  0  0  0
   -3.5388    3.8966    0.0947 H   0  0  0  0  0  0  0  0  0  0  0  0
   -0.0637    0.1284    1.8555 C   0  0  0  0  0  0  0  0  0  0  0  0
    1.0918   -0.0745    2.2236 O   0  0  0  0  0  0  0  0  0  0  0  0
   -1.0024    0.6217    2.6735 N   0  0  0  0  0  0  0  0  0  0  0  0
   -1.9213    0.7848    2.2938 H   0  0  0  0  0  0  0  0  0  0  0  0
   -0.7639    0.9676    4.0741 C   0  0  0  0  0  0  0  0  0  0  0  0
    0.0520    1.6916    4.1400 H   0  0  0  0  0  0  0  0  0  0  0  0
   -1.6626    1.3984    4.5182 H   0  0  0  0  0  0  0  0  0  0  0  0
   -0.4775    0.0737    4.6309 H   0  0  0  0  0  0  0  0  0  0  0  0
  5  6  2  0  0  0  0
  5  7  1  0  0  0  0
  2  3  1  0  0  0  0
  2  4  1  0  0  0  0
  2  5  1  0  0  0  0
  1  2  1  0  0  0  0
 22 23  2  0  0  0  0
 22 24  1  0  0  0  0
 19 20  1  0  0  0  0
 19 21  1  0  0  0  0
 17 18  2  0  0  0  0
 17 19  1  0  0  0  0
 14 15  1  0  0  0  0
 14 16  1  0  0  0  0
 14 17  1  0  0  0  0
 11 12  1  0  0  0  0
 11 13  1  0  0  0  0
 11 14  1  0  0  0  0
  9 10  1  0  0  0  0
  9 11  1  0  0  0  0
  9 22  1  0  0  0  0
  7  8  1  0  0  0  0
  7  9  1  0  0  0  0
 26 27  1  0  0  0  0
 26 28  1  0  0  0  0
 26 29  1  0  0  0  0
 24 25  1  0  0  0  0
 24 26  1  0  0  0  0
M  END
$$$$
default_name
  -OEChem-02102213163D

 29 28  0     1  0  0  0  0  0999 V2000
   -3.3998   -3.6239    1.3678 H   0  0  0  0  0  0  0  0  0  0  0  0
   -3.3608   -2.6749    0.8348 C   0  0  0  0  0  0  0  0  0  0  0  0
   -4.0988   -1.9909    1.2498 H   0  0  0  0  0  0  0  0  0  0  0  0
   -3.5618   -2.8419   -0.2222 H   0  0  0  0  0  0  0  0  0  0  0  0
   -1.9818   -2.0809    0.9918 C   0  0  0  0  0  0  0  0  0  0  0  0
   -1.1288   -2.6669    1.6468 O   0  0  0  0  0  0  0  0  0  0  0  0
   -1.7648   -0.9089    0.3998 N   0  0  0  0  0  0  0  0  0  0  0  0
   -2.5238   -0.4719   -0.1032 H   0  0  0  0  0  0  0  0  0  0  0  0
   -0.4848   -0.1959    0.4138 C   0  0  1  0  0  0  0  0  0  0  0  0
    0.2783   -0.8411   -0.0248 H   0  0  0  0  0  0  0  0  0  0  0  0
   -0.6101    1.0666   -0.4611 C   0  0  0  0  0  0  0  0  0  0  0  0
    0.3505    1.5858   -0.4544 H   0  0  0  0  0  0  0  0  0  0  0  0
   -0.8297    0.7687   -1.4875 H   0  0  0  0  0  0  0  0  0  0  0  0
   -1.6951    2.0483    0.0147 C   0  0  0  0  0  0  0  0  0  0  0  0
   -2.4919    1.4998    0.5167 H   0  0  0  0  0  0  0  0  0  0  0  0
   -1.2530    2.7474    0.7245 H   0  0  0  0  0  0  0  0  0  0  0  0
   -2.3209    2.8519   -1.1252 C   0  0  0  0  0  0  0  0  0  0  0  0
   -1.9455    2.7784   -2.2803 O   0  0  0  0  0  0  0  0  0  0  0  0
   -3.3215    3.6589   -0.8464 N   0  0  0  0  0  0  0  0  0  0  0  0
   -3.6950    4.1614   -1.6329 H   0  0  0  0  0  0  0  0  0  0  0  0
   -3.6709    3.7551    0.0854 H   0  0  0  0  0  0  0  0  0  0  0  0
   -0.0637    0.1284    1.8555 C   0  0  0  0  0  0  0  0  0  0  0  0
    1.0918   -0.0745    2.2236 O   0  0  0  0  0  0  0  0  0  0  0  0
   -1.0024    0.6217    2.6735 N   0  0  0  0  0  0  0  0  0  0  0  0
   -1.9213    0.7848    2.2938 H   0  0  0  0  0  0  0  0  0  0  0  0
   -0.7639    0.9676    4.0741 C   0  0  0  0  0  0  0  0  0  0  0  0
    0.0520    1.6916    4.1400 H   0  0  0  0  0  0  0  0  0  0  0  0
   -1.6626    1.3984    4.5182 H   0  0  0  0  0  0  0  0  0  0  0  0
   -0.4775    0.0737    4.6309 H   0  0  0  0  0  0  0  0  0  0  0  0
  5  6  2  0  0  0  0
  5  7  1  0  0  0  0
  2  3  1  0  0  0  0
  2  4  1  0  0  0  0
  2  5  1  0  0  0  0
  1  2  1  0  0  0  0
 22 23  2  0  0  0  0
 22 24  1  0  0  0  0
 19 20  1  0  0  0  0
 19 21  1  0  0  0  0
 17 18  2  0  0  0  0
 17 19  1  0  0  0  0
 14 15  1  0  0  0  0
 14 16  1  0  0  0  0
 14 17  1  0  0  0  0
 11 12  1  0  0  0  0
 11 13  1  0  0  0  0
 11 14  1  0  0  0  0
  9 10  1  0  0  0  0
  9 11  1  0  0  0  0
  9 22  1  0  0  0  0
  7  8  1  0  0  0  0
  7  9  1  0  0  0  0
 26 27  1  0  0  0  0
 26 28  1  0  0  0  0
 26 29  1  0  0  0  0
 24 25  1  0  0  0  0
 24 26  1  0  0  0  0
M  END
$$$$
default_name
  -OEChem-02102213163D

 29 28  0     1  0  0  0  0  0999 V2000
   -3.3998   -3.6239    1.3678 H   0  0  0  0  0  0  0  0  0  0  0  0
   -3.3608   -2.6749    0.8348 C   0  0  0  0  0  0  0  0  0  0  0  0
   -4.0988   -1.9909    1.2498 H   0  0  0  0  0  0  0  0  0  0  0  0
   -3.5618   -2.8419   -0.2222 H   0  0  0  0  0  0  0  0  0  0  0  0
   -1.9818   -2.0809    0.9918 C   0  0  0  0  0  0  0  0  0  0  0  0
   -1.1288   -2.6669    1.6468 O   0  0  0  0  0  0  0  0  0  0  0  0
   -1.7648   -0.9089    0.3998 N   0  0  0  0  0  0  0  0  0  0  0  0
   -2.5238   -0.4719   -0.1032 H   0  0  0  0  0  0  0  0  0  0  0  0
   -0.4848   -0.1959    0.4138 C   0  0  1  0  0  0  0  0  0  0  0  0
    0.2783   -0.8411   -0.0248 H   0  0  0  0  0  0  0  0  0  0  0  0
   -0.6101    1.0666   -0.4611 C   0  0  0  0  0  0  0  0  0  0  0  0
    0.3505    1.5858   -0.4544 H   0  0  0  0  0  0  0  0  0  0  0  0
   -0.8297    0.7687   -1.4875 H   0  0  0  0  0  0  0  0  0  0  0  0
   -1.6951    2.0483    0.0147 C   0  0  0  0  0  0  0  0  0  0  0  0
   -2.3467    1.5543    0.7352 H   0  0  0  0  0  0  0  0  0  0  0  0
   -1.2153    2.8962    0.5034 H   0  0  0  0  0  0  0  0  0  0  0  0
   -2.5665    2.5795   -1.1233 C   0  0  0  0  0  0  0  0  0  0  0  0
   -2.3728    2.3132   -2.2947 O   0  0  0  0  0  0  0  0  0  0  0  0
   -3.5830    3.3582   -0.8223 N   0  0  0  0  0  0  0  0  0  0  0  0
   -4.1221    3.6775   -1.6084 H   0  0  0  0  0  0  0  0  0  0  0  0
   -3.7886    3.6062    0.1242 H   0  0  0  0  0  0  0  0  0  0  0  0
   -0.0637    0.1284    1.8555 C   0  0  0  0  0  0  0  0  0  0  0  0
    1.0918   -0.0745    2.2236 O   0  0  0  0  0  0  0  0  0  0  0  0
   -1.0024    0.6217    2.6735 N   0  0  0  0  0  0  0  0  0  0  0  0
   -1.9213    0.7848    2.2938 H   0  0  0  0  0  0  0  0  0  0  0  0
   -0.7639    0.9676    4.0741 C   0  0  0  0  0  0  0  0  0  0  0  0
    0.0520    1.6916    4.1400 H   0  0  0  0  0  0  0  0  0  0  0  0
   -1.6626    1.3984    4.5182 H   0  0  0  0  0  0  0  0  0  0  0  0
   -0.4775    0.0737    4.6309 H   0  0  0  0  0  0  0  0  0  0  0  0
  5  6  2  0  0  0  0
  5  7  1  0  0  0  0
  2  3  1  0  0  0  0
  2  4  1  0  0  0  0
  2  5  1  0  0  0  0
  1  2  1  0  0  0  0
 22 23  2  0  0  0  0
 22 24  1  0  0  0  0
 19 20  1  0  0  0  0
 19 21  1  0  0  0  0
 17 18  2  0  0  0  0
 17 19  1  0  0  0  0
 14 15  1  0  0  0  0
 14 16  1  0  0  0  0
 14 17  1  0  0  0  0
 11 12  1  0  0  0  0
 11 13  1  0  0  0  0
 11 14  1  0  0  0  0
  9 10  1  0  0  0  0
  9 11  1  0  0  0  0
  9 22  1  0  0  0  0
  7  8  1  0  0  0  0
  7  9  1  0  0  0  0
 26 27  1  0  0  0  0
 26 28  1  0  0  0  0
 26 29  1  0  0  0  0
 24 25  1  0  0  0  0
 24 26  1  0  0  0  0
M  END
$$$$
default_name
  -OEChem-02102213163D

 29 28  0     1  0  0  0  0  0999 V2000
   -3.3998   -3.6239    1.3678 H   0  0  0  0  0  0  0  0  0  0  0  0
   -3.3608   -2.6749    0.8348 C   0  0  0  0  0  0  0  0  0  0  0  0
   -4.0988   -1.9909    1.2498 H   0  0  0  0  0  0  0  0  0  0  0  0
   -3.5618   -2.8419   -0.2222 H   0  0  0  0  0  0  0  0  0  0  0  0
   -1.9818   -2.0809    0.9918 C   0  0  0  0  0  0  0  0  0  0  0  0
   -1.1288   -2.6669    1.6468 O   0  0  0  0  0  0  0  0  0  0  0  0
   -1.7648   -0.9089    0.3998 N   0  0  0  0  0  0  0  0  0  0  0  0
   -2.5238   -0.4719   -0.1032 H   0  0  0  0  0  0  0  0  0  0  0  0
   -0.4848   -0.1959    0.4138 C   0  0  1  0  0  0  0  0  0  0  0  0
    0.2783   -0.8411   -0.0248 H   0  0  0  0  0  0  0  0  0  0  0  0
   -0.6101    1.0666   -0.4611 C   0  0  0  0  0  0  0  0  0  0  0  0
    0.3505    1.5858   -0.4544 H   0  0  0  0  0  0  0  0  0  0  0  0
   -0.8297    0.7687   -1.4875 H   0  0  0  0  0  0  0  0  0  0  0  0
   -1.6951    2.0483    0.0147 C   0  0  0  0  0  0  0  0  0  0  0  0
   -2.1748    1.6585    0.9122 H   0  0  0  0  0  0  0  0  0  0  0  0
   -1.2273    3.0026    0.2565 H   0  0  0  0  0  0  0  0  0  0  0  0
   -2.7818    2.2970   -1.0313 C   0  0  0  0  0  0  0  0  0  0  0  0
   -2.7507    1.8270   -2.1532 O   0  0  0  0  0  0  0  0  0  0  0  0
   -3.8076    3.0511   -0.7010 N   0  0  0  0  0  0  0  0  0  0  0  0
   -4.4919    3.1804   -1.4260 H   0  0  0  0  0  0  0  0  0  0  0  0
   -3.8841    3.4599    0.2082 H   0  0  0  0  0  0  0  0  0  0  0  0
   -0.0637    0.1284    1.8555 C   0  0  0  0  0  0  0  0  0  0  0  0
    1.0918   -0.0745    2.2236 O   0  0  0  0  0  0  0  0  0  0  0  0
   -1.0024    0.6217    2.6735 N   0  0  0  0  0  0  0  0  0  0  0  0
   -1.9213    0.7848    2.2938 H   0  0  0  0  0  0  0  0  0  0  0  0
   -0.7639    0.9676    4.0741 C   0  0  0  0  0  0  0  0  0  0  0  0
    0.0520    1.6916    4.1400 H   0  0  0  0  0  0  0  0  0  0  0  0
   -1.6626    1.3984    4.5182 H   0  0  0  0  0  0  0  0  0  0  0  0
   -0.4775    0.0737    4.6309 H   0  0  0  0  0  0  0  0  0  0  0  0
  5  6  2  0  0  0  0
  5  7  1  0  0  0  0
  2  3  1  0  0  0  0
  2  4  1  0  0  0  0
  2  5  1  0  0  0  0
  1  2  1  0  0  0  0
 22 23  2  0  0  0  0
 22 24  1  0  0  0  0
 19 20  1  0  0  0  0
 19 21  1  0  0  0  0
 17 18  2  0  0  0  0
 17 19  1  0  0  0  0
 14 15  1  0  0  0  0
 14 16  1  0  0  0  0
 14 17  1  0  0  0  0
 11 12  1  0  0  0  0
 11 13  1  0  0  0  0
 11 14  1  0  0  0  0
  9 10  1  0  0  0  0
  9 11  1  0  0  0  0
  9 22  1  0  0  0  0
  7  8  1  0  0  0  0
  7  9  1  0  0  0  0
 26 27  1  0  0  0  0
 26 28  1  0  0  0  0
 26 29  1  0  0  0  0
 24 25  1  0  0  0  0
 24 26  1  0  0  0  0
M  END
$$$$
default_name
  -OEChem-02102213163D

 29 28  0     1  0  0  0  0  0999 V2000
   -3.3998   -3.6239    1.3678 H   0  0  0  0  0  0  0  0  0  0  0  0
   -3.3608   -2.6749    0.8348 C   0  0  0  0  0  0  0  0  0  0  0  0
   -4.0988   -1.9909    1.2498 H   0  0  0  0  0  0  0  0  0  0  0  0
   -3.5618   -2.8419   -0.2222 H   0  0  0  0  0  0  0  0  0  0  0  0
   -1.9818   -2.0809    0.9918 C   0  0  0  0  0  0  0  0  0  0  0  0
   -1.1288   -2.6669    1.6468 O   0  0  0  0  0  0  0  0  0  0  0  0
   -1.7648   -0.9089    0.3998 N   0  0  0  0  0  0  0  0  0  0  0  0
   -2.5238   -0.4719   -0.1032 H   0  0  0  0  0  0  0  0  0  0  0  0
   -0.4848   -0.1959    0.4138 C   0  0  1  0  0  0  0  0  0  0  0  0
    0.2783   -0.8411   -0.0248 H   0  0  0  0  0  0  0  0  0  0  0  0
   -0.6101    1.0666   -0.4611 C   0  0  0  0  0  0  0  0  0  0  0  0
    0.3505    1.5858   -0.4544 H   0  0  0  0  0  0  0  0  0  0  0  0
   -0.8297    0.7687   -1.4875 H   0  0  0  0  0  0  0  0  0  0  0  0
   -1.6951    2.0483    0.0147 C   0  0  0  0  0  0  0  0  0  0  0  0
   -1.9879    1.8051    1.0359 H   0  0  0  0  0  0  0  0  0  0  0  0
   -1.2882    3.0594    0.0006 H   0  0  0  0  0  0  0  0  0  0  0  0
   -2.9518    2.0237   -0.8552 C   0  0  0  0  0  0  0  0  0  0  0  0
   -3.0534    1.3529   -1.8653 O   0  0  0  0  0  0  0  0  0  0  0  0
   -3.9800    2.7587   -0.4907 N   0  0  0  0  0  0  0  0  0  0  0  0
   -4.7791    2.7039   -1.0980 H   0  0  0  0  0  0  0  0  0  0  0  0
   -3.9507    3.3264    0.3319 H   0  0  0  0  0  0  0  0  0  0  0  0
   -0.0637    0.1284    1.8555 C   0  0  0  0  0  0  0  0  0  0  0  0
    1.0918   -0.0745    2.2236 O   0  0  0  0  0  0  0  0  0  0  0  0
   -1.0024    0.6217    2.6735 N   0  0  0  0  0  0  0  0  0  0  0  0
   -1.9213    0.7848    2.2938 H   0  0  0  0  0  0  0  0  0  0  0  0
   -0.7639    0.9676    4.0741 C   0  0  0  0  0  0  0  0  0  0  0  0
    0.0520    1.6916    4.1400 H   0  0  0  0  0  0  0  0  0  0  0  0
   -1.6626    1.3984    4.5182 H   0  0  0  0  0  0  0  0  0  0  0  0
   -0.4775    0.0737    4.6309 H   0  0  0  0  0  0  0  0  0  0  0  0
  5  6  2  0  0  0  0
  5  7  1  0  0  0  0
  2  3  1  0  0  0  0
  2  4  1  0  0  0  0
  2  5  1  0  0  0  0
  1  2  1  0  0  0  0
 22 23  2  0  0  0  0
 22 24  1  0  0  0  0
 19 20  1  0  0  0  0
 19 21  1  0  0  0  0
 17 18  2  0  0  0  0
 17 19  1  0  0  0  0
 14 15  1  0  0  0  0
 14 16  1  0  0  0  0
 14 17  1  0  0  0  0
 11 12  1  0  0  0  0
 11 13  1  0  0  0  0
 11 14  1  0  0  0  0
  9 10  1  0  0  0  0
  9 11  1  0  0  0  0
  9 22  1  0  0  0  0
  7  8  1  0  0  0  0
  7  9  1  0  0  0  0
 26 27  1  0  0  0  0
 26 28  1  0  0  0  0
 26 29  1  0  0  0  0
 24 25  1  0  0  0  0
 24 26  1  0  0  0  0
M  END
$$$$
default_name
  -OEChem-02102213163D

 29 28  0     1  0  0  0  0  0999 V2000
   -3.3998   -3.6239    1.3678 H   0  0  0  0  0  0  0  0  0  0  0  0
   -3.3608   -2.6749    0.8348 C   0  0  0  0  0  0  0  0  0  0  0  0
   -4.0988   -1.9909    1.2498 H   0  0  0  0  0  0  0  0  0  0  0  0
   -3.5618   -2.8419   -0.2222 H   0  0  0  0  0  0  0  0  0  0  0  0
   -1.9818   -2.0809    0.9918 C   0  0  0  0  0  0  0  0  0  0  0  0
   -1.1288   -2.6669    1.6468 O   0  0  0  0  0  0  0  0  0  0  0  0
   -1.7648   -0.9089    0.3998 N   0  0  0  0  0  0  0  0  0  0  0  0
   -2.5238   -0.4719   -0.1032 H   0  0  0  0  0  0  0  0  0  0  0  0
   -0.4848   -0.1959    0.4138 C   0  0  1  0  0  0  0  0  0  0  0  0
    0.2783   -0.8411   -0.0248 H   0  0  0  0  0  0  0  0  0  0  0  0
   -0.6101    1.0666   -0.4611 C   0  0  0  0  0  0  0  0  0  0  0  0
    0.3505    1.5858   -0.4544 H   0  0  0  0  0  0  0  0  0  0  0  0
   -0.8297    0.7687   -1.4875 H   0  0  0  0  0  0  0  0  0  0  0  0
   -1.6951    2.0483    0.0147 C   0  0  0  0  0  0  0  0  0  0  0  0
   -1.7986    1.9844    1.0977 H   0  0  0  0  0  0  0  0  0  0  0  0
   -1.3938    3.0626   -0.2469 H   0  0  0  0  0  0  0  0  0  0  0  0
   -3.0651    1.7783   -0.6072 C   0  0  0  0  0  0  0  0  0  0  0  0
   -3.2603    0.9233   -1.4507 O   0  0  0  0  0  0  0  0  0  0  0  0
   -4.0883    2.5009   -0.2057 N   0  0  0  0  0  0  0  0  0  0  0  0
   -4.9643    2.2806   -0.6467 H   0  0  0  0  0  0  0  0  0  0  0  0
   -3.9839    3.2146    0.4867 H   0  0  0  0  0  0  0  0  0  0  0  0
   -0.0637    0.1284    1.8555 C   0  0  0  0  0  0  0  0  0  0  0  0
    1.0918   -0.0745    2.2236 O   0  0  0  0  0  0  0  0  0  0  0  0
   -1.0024    0.6217    2.6735 N   0  0  0  0  0  0  0  0  0  0  0  0
   -1.9213    0.7848    2.2938 H   0  0  0  0  0  0  0  0  0  0  0  0
   -0.7639    0.9676    4.0741 C   0  0  0  0  0  0  0  0  0  0  0  0
    0.0520    1.6916    4.1400 H   0  0  0  0  0  0  0  0  0  0  0  0
   -1.6626    1.3984    4.5182 H   0  0  0  0  0  0  0  0  0  0  0  0
   -0.4775    0.0737    4.6309 H   0  0  0  0  0  0  0  0  0  0  0  0
  5  6  2  0  0  0  0
  5  7  1  0  0  0  0
  2  3  1  0  0  0  0
  2  4  1  0  0  0  0
  2  5  1  0  0  0  0
  1  2  1  0  0  0  0
 22 23  2  0  0  0  0
 22 24  1  0  0  0  0
 19 20  1  0  0  0  0
 19 21  1  0  0  0  0
 17 18  2  0  0  0  0
 17 19  1  0  0  0  0
 14 15  1  0  0  0  0
 14 16  1  0  0  0  0
 14 17  1  0  0  0  0
 11 12  1  0  0  0  0
 11 13  1  0  0  0  0
 11 14  1  0  0  0  0
  9 10  1  0  0  0  0
  9 11  1  0  0  0  0
  9 22  1  0  0  0  0
  7  8  1  0  0  0  0
  7  9  1  0  0  0  0
 26 27  1  0  0  0  0
 26 28  1  0  0  0  0
 26 29  1  0  0  0  0
 24 25  1  0  0  0  0
 24 26  1  0  0  0  0
M  END
$$$$
default_name
  -OEChem-02102213163D

 29 28  0     1  0  0  0  0  0999 V2000
   -3.3998   -3.6239    1.3678 H   0  0  0  0  0  0  0  0  0  0  0  0
   -3.3608   -2.6749    0.8348 C   0  0  0  0  0  0  0  0  0  0  0  0
   -4.0988   -1.9909    1.2498 H   0  0  0  0  0  0  0  0  0  0  0  0
   -3.5618   -2.8419   -0.2222 H   0  0  0  0  0  0  0  0  0  0  0  0
   -1.9818   -2.0809    0.9918 C   0  0  0  0  0  0  0  0  0  0  0  0
   -1.1288   -2.6669    1.6468 O   0  0  0  0  0  0  0  0  0  0  0  0
   -1.7648   -0.9089    0.3998 N   0  0  0  0  0  0  0  0  0  0  0  0
   -2.5238   -0.4719   -0.1032 H   0  0  0  0  0  0  0  0  0  0  0  0
   -0.4848   -0.1959    0.4138 C   0  0  1  0  0  0  0  0  0  0  0  0
    0.2783   -0.8411   -0.0248 H   0  0  0  0  0  0  0  0  0  0  0  0
   -0.6101    1.0666   -0.4611 C   0  0  0  0  0  0  0  0  0  0  0  0
    0.3505    1.5858   -0.4544 H   0  0  0  0  0  0  0  0  0  0  0  0
   -0.8297    0.7687   -1.4875 H   0  0  0  0  0  0  0  0  0  0  0  0
   -1.6951    2.0483    0.0147 C   0  0  0  0  0  0  0  0  0  0  0  0
   -1.6200    2.1839    1.0934 H   0  0  0  0  0  0  0  0  0  0  0  0
   -1.5370    3.0121   -0.4692 H   0  0  0  0  0  0  0  0  0  0  0  0
   -3.1140    1.5774   -0.3042 C   0  0  0  0  0  0  0  0  0  0  0  0
   -3.3573    0.5674   -0.9377 O   0  0  0  0  0  0  0  0  0  0  0  0
   -4.1252    2.2952    0.1345 N   0  0  0  0  0  0  0  0  0  0  0  0
   -5.0348    1.9391   -0.1030 H   0  0  0  0  0  0  0  0  0  0  0  0
   -3.9815    3.1323    0.6621 H   0  0  0  0  0  0  0  0  0  0  0  0
   -0.0637    0.1284    1.8555 C   0  0  0  0  0  0  0  0  0  0  0  0
    1.0918   -0.0745    2.2236 O   0  0  0  0  0  0  0  0  0  0  0  0
   -1.0024    0.6217    2.6735 N   0  0  0  0  0  0  0  0  0  0  0  0
   -1.9213    0.7848    2.2938 H   0  0  0  0  0  0  0  0  0  0  0  0
   -0.7639    0.9676    4.0741 C   0  0  0  0  0  0  0  0  0  0  0  0
    0.0520    1.6916    4.1400 H   0  0  0  0  0  0  0  0  0  0  0  0
   -1.6626    1.3984    4.5182 H   0  0  0  0  0  0  0  0  0  0  0  0
   -0.4775    0.0737    4.6309 H   0  0  0  0  0  0  0  0  0  0  0  0
  5  6  2  0  0  0  0
  5  7  1  0  0  0  0
  2  3  1  0  0  0  0
  2  4  1  0  0  0  0
  2  5  1  0  0  0  0
  1  2  1  0  0  0  0
 22 23  2  0  0  0  0
 22 24  1  0  0  0  0
 19 20  1  0  0  0  0
 19 21  1  0  0  0  0
 17 18  2  0  0  0  0
 17 19  1  0  0  0  0
 14 15  1  0  0  0  0
 14 16  1  0  0  0  0
 14 17  1  0  0  0  0
 11 12  1  0  0  0  0
 11 13  1  0  0  0  0
 11 14  1  0  0  0  0
  9 10  1  0  0  0  0
  9 11  1  0  0  0  0
  9 22  1  0  0  0  0
  7  8  1  0  0  0  0
  7  9  1  0  0  0  0
 26 27  1  0  0  0  0
 26 28  1  0  0  0  0
 26 29  1  0  0  0  0
 24 25  1  0  0  0  0
 24 26  1  0  0  0  0
M  END
$$$$
default_name
  -OEChem-02102213163D

 29 28  0     1  0  0  0  0  0999 V2000
   -3.3998   -3.6239    1.3678 H   0  0  0  0  0  0  0  0  0  0  0  0
   -3.3608   -2.6749    0.8348 C   0  0  0  0  0  0  0  0  0  0  0  0
   -4.0988   -1.9909    1.2498 H   0  0  0  0  0  0  0  0  0  0  0  0
   -3.5618   -2.8419   -0.2222 H   0  0  0  0  0  0  0  0  0  0  0  0
   -1.9818   -2.0809    0.9918 C   0  0  0  0  0  0  0  0  0  0  0  0
   -1.1288   -2.6669    1.6468 O   0  0  0  0  0  0  0  0  0  0  0  0
   -1.7648   -0.9089    0.3998 N   0  0  0  0  0  0  0  0  0  0  0  0
   -2.5238   -0.4719   -0.1032 H   0  0  0  0  0  0  0  0  0  0  0  0
   -0.4848   -0.1959    0.4138 C   0  0  1  0  0  0  0  0  0  0  0  0
    0.2783   -0.8411   -0.0248 H   0  0  0  0  0  0  0  0  0  0  0  0
   -0.6101    1.0666   -0.4611 C   0  0  0  0  0  0  0  0  0  0  0  0
    0.3505    1.5858   -0.4544 H   0  0  0  0  0  0  0  0  0  0  0  0
   -0.8297    0.7687   -1.4875 H   0  0  0  0  0  0  0  0  0  0  0  0
   -1.6951    2.0483    0.0147 C   0  0  0  0  0  0  0  0  0  0  0  0
   -1.4641    2.3901    1.0234 H   0  0  0  0  0  0  0  0  0  0  0  0
   -1.7079    2.9113   -0.6510 H   0  0  0  0  0  0  0  0  0  0  0  0
   -3.0951    1.4347    0.0333 C   0  0  0  0  0  0  0  0  0  0  0  0
   -3.3378    0.3095   -0.3612 O   0  0  0  0  0  0  0  0  0  0  0  0
   -4.0882    2.1556    0.5068 N   0  0  0  0  0  0  0  0  0  0  0  0
   -4.9857    1.7030    0.4961 H   0  0  0  0  0  0  0  0  0  0  0  0
   -3.9436    3.0849    0.8462 H   0  0  0  0  0  0  0  0  0  0  0  0
   -0.0637    0.1284    1.8555 C   0  0  0  0  0  0  0  0  0  0  0  0
    1.0918   -0.0745    2.2236 O   0  0  0  0  0  0  0  0  0  0  0  0
   -1.0024    0.6217    2.6735 N   0  0  0  0  0  0  0  0  0  0  0  0
   -1.9213    0.7848    2.2938 H   0  0  0  0  0  0  0  0  0  0  0  0
   -0.7639    0.9676    4.0741 C   0  0  0  0  0  0  0  0  0  0  0  0
    0.0520    1.6916    4.1400 H   0  0  0  0  0  0  0  0  0  0  0  0
   -1.6626    1.3984    4.5182 H   0  0  0  0  0  0  0  0  0  0  0  0
   -0.4775    0.0737    4.6309 H   0  0  0  0  0  0  0  0  0  0  0  0
  5  6  2  0  0  0  0
  5  7  1  0  0  0  0
  2  3  1  0  0  0  0
  2  4  1  0  0  0  0
  2  5  1  0  0  0  0
  1  2  1  0  0  0  0
 22 23  2  0  0  0  0
 22 24  1  0  0  0  0
 19 20  1  0  0  0  0
 19 21  1  0  0  0  0
 17 18  2  0  0  0  0
 17 19  1  0  0  0  0
 14 15  1  0  0  0  0
 14 16  1  0  0  0  0
 14 17  1  0  0  0  0
 11 12  1  0  0  0  0
 11 13  1  0  0  0  0
 11 14  1  0  0  0  0
  9 10  1  0  0  0  0
  9 11  1  0  0  0  0
  9 22  1  0  0  0  0
  7  8  1  0  0  0  0
  7  9  1  0  0  0  0
 26 27  1  0  0  0  0
 26 28  1  0  0  0  0
 26 29  1  0  0  0  0
 24 25  1  0  0  0  0
 24 26  1  0  0  0  0
M  END
$$$$
default_name
  -OEChem-02102213163D

 29 28  0     1  0  0  0  0  0999 V2000
   -3.3998   -3.6239    1.3678 H   0  0  0  0  0  0  0  0  0  0  0  0
   -3.3608   -2.6749    0.8348 C   0  0  0  0  0  0  0  0  0  0  0  0
   -4.0988   -1.9909    1.2498 H   0  0  0  0  0  0  0  0  0  0  0  0
   -3.5618   -2.8419   -0.2222 H   0  0  0  0  0  0  0  0  0  0  0  0
   -1.9818   -2.0809    0.9918 C   0  0  0  0  0  0  0  0  0  0  0  0
   -1.1288   -2.6669    1.6468 O   0  0  0  0  0  0  0  0  0  0  0  0
   -1.7648   -0.9089    0.3998 N   0  0  0  0  0  0  0  0  0  0  0  0
   -2.5238   -0.4719   -0.1032 H   0  0  0  0  0  0  0  0  0  0  0  0
   -0.4848   -0.1959    0.4138 C   0  0  1  0  0  0  0  0  0  0  0  0
    0.2783   -0.8411   -0.0248 H   0  0  0  0  0  0  0  0  0  0  0  0
   -0.6101    1.0666   -0.4611 C   0  0  0  0  0  0  0  0  0  0  0  0
    0.3505    1.5858   -0.4544 H   0  0  0  0  0  0  0  0  0  0  0  0
   -0.8297    0.7687   -1.4875 H   0  0  0  0  0  0  0  0  0  0  0  0
   -1.6951    2.0483    0.0147 C   0  0  0  0  0  0  0  0  0  0  0  0
   -1.3416    2.5891    0.8924 H   0  0  0  0  0  0  0  0  0  0  0  0
   -1.8950    2.7671   -0.7799 H   0  0  0  0  0  0  0  0  0  0  0  0
   -3.0096    1.3600    0.3822 C   0  0  0  0  0  0  0  0  0  0  0  0
   -3.2031    0.1672    0.2395 O   0  0  0  0  0  0  0  0  0  0  0  0
   -3.9799    2.0917    0.8857 N   0  0  0  0  0  0  0  0  0  0  0  0
   -4.8205    1.5881    1.1099 H   0  0  0  0  0  0  0  0  0  0  0  0
   -3.8729    3.0758    1.0264 H   0  0  0  0  0  0  0  0  0  0  0  0
   -0.0637    0.1284    1.8555 C   0  0  0  0  0  0  0  0  0  0  0  0
    1.0918   -0.0745    2.2236 O   0  0  0  0  0  0  0  0  0  0  0  0
   -1.0024    0.6217    2.6735 N   0  0  0  0  0  0  0  0  0  0  0  0
   -1.9213    0.7848    2.2938 H   0  0  0  0  0  0  0  0  0  0  0  0
   -0.7639    0.9676    4.0741 C   0  0  0  0  0  0  0  0  0  0  0  0
    0.0520    1.6916    4.1400 H   0  0  0  0  0  0  0  0  0  0  0  0
   -1.6626    1.3984    4.5182 H   0  0  0  0  0  0  0  0  0  0  0  0
   -0.4775    0.0737    4.6309 H   0  0  0  0  0  0  0  0  0  0  0  0
  5  6  2  0  0  0  0
  5  7  1  0  0  0  0
  2  3  1  0  0  0  0
  2  4  1  0  0  0  0
  2  5  1  0  0  0  0
  1  2  1  0  0  0  0
 22 23  2  0  0  0  0
 22 24  1  0  0  0  0
 19 20  1  0  0  0  0
 19 21  1  0  0  0  0
 17 18  2  0  0  0  0
 17 19  1  0  0  0  0
 14 15  1  0  0  0  0
 14 16  1  0  0  0  0
 14 17  1  0  0  0  0
 11 12  1  0  0  0  0
 11 13  1  0  0  0  0
 11 14  1  0  0  0  0
  9 10  1  0  0  0  0
  9 11  1  0  0  0  0
  9 22  1  0  0  0  0
  7  8  1  0  0  0  0
  7  9  1  0  0  0  0
 26 27  1  0  0  0  0
 26 28  1  0  0  0  0
 26 29  1  0  0  0  0
 24 25  1  0  0  0  0
 24 26  1  0  0  0  0
M  END
$$$$
default_name
  -OEChem-02102213163D

 29 28  0     1  0  0  0  0  0999 V2000
   -3.3998   -3.6239    1.3678 H   0  0  0  0  0  0  0  0  0  0  0  0
   -3.3608   -2.6749    0.8348 C   0  0  0  0  0  0  0  0  0  0  0  0
   -4.0988   -1.9909    1.2498 H   0  0  0  0  0  0  0  0  0  0  0  0
   -3.5618   -2.8419   -0.2222 H   0  0  0  0  0  0  0  0  0  0  0  0
   -1.9818   -2.0809    0.9918 C   0  0  0  0  0  0  0  0  0  0  0  0
   -1.1288   -2.6669    1.6468 O   0  0  0  0  0  0  0  0  0  0  0  0
   -1.7648   -0.9089    0.3998 N   0  0  0  0  0  0  0  0  0  0  0  0
   -2.5238   -0.4719   -0.1032 H   0  0  0  0  0  0  0  0  0  0  0  0
   -0.4848   -0.1959    0.4138 C   0  0  1  0  0  0  0  0  0  0  0  0
    0.2783   -0.8411   -0.0248 H   0  0  0  0  0  0  0  0  0  0  0  0
   -0.6101    1.0666   -0.4611 C   0  0  0  0  0  0  0  0  0  0  0  0
    0.3505    1.5858   -0.4544 H   0  0  0  0  0  0  0  0  0  0  0  0
   -0.8297    0.7687   -1.4875 H   0  0  0  0  0  0  0  0  0  0  0  0
   -1.6951    2.0483    0.0147 C   0  0  0  0  0  0  0  0  0  0  0  0
   -1.2608    2.7671    0.7093 H   0  0  0  0  0  0  0  0  0  0  0  0
   -2.0854    2.5892   -0.8473 H   0  0  0  0  0  0  0  0  0  0  0  0
   -2.8635    1.3584    0.7187 C   0  0  0  0  0  0  0  0  0  0  0  0
   -2.9624    0.1502    0.8235 O   0  0  0  0  0  0  0  0  0  0  0  0
   -3.8075    2.1078    1.2455 N   0  0  0  0  0  0  0  0  0  0  0  0
   -4.5503    1.6024    1.6964 H   0  0  0  0  0  0  0  0  0  0  0  0
   -3.7740    3.1056    1.1904 H   0  0  0  0  0  0  0  0  0  0  0  0
   -0.0637    0.1284    1.8555 C   0  0  0  0  0  0  0  0  0  0  0  0
    1.0918   -0.0745    2.2236 O   0  0  0  0  0  0  0  0  0  0  0  0
   -1.0024    0.6217    2.6735 N   0  0  0  0  0  0  0  0  0  0  0  0
   -1.9213    0.7848    2.2938 H   0  0  0  0  0  0  0  0  0  0  0  0
   -0.7639    0.9676    4.0741 C   0  0  0  0  0  0  0  0  0  0  0  0
    0.0520    1.6916    4.1400 H   0  0  0  0  0  0  0  0  0  0  0  0
   -1.6626    1.3984    4.5182 H   0  0  0  0  0  0  0  0  0  0  0  0
   -0.4775    0.0737    4.6309 H   0  0  0  0  0  0  0  0  0  0  0  0
  5  6  2  0  0  0  0
  5  7  1  0  0  0  0
  2  3  1  0  0  0  0
  2  4  1  0  0  0  0
  2  5  1  0  0  0  0
  1  2  1  0  0  0  0
 22 23  2  0  0  0  0
 22 24  1  0  0  0  0
 19 20  1  0  0  0  0
 19 21  1  0  0  0  0
 17 18  2  0  0  0  0
 17 19  1  0  0  0  0
 14 15  1  0  0  0  0
 14 16  1  0  0  0  0
 14 17  1  0  0  0  0
 11 12  1  0  0  0  0
 11 13  1  0  0  0  0
 11 14  1  0  0  0  0
  9 10  1  0  0  0  0
  9 11  1  0  0  0  0
  9 22  1  0  0  0  0
  7  8  1  0  0  0  0
  7  9  1  0  0  0  0
 26 27  1  0  0  0  0
 26 28  1  0  0  0  0
 26 29  1  0  0  0  0
 24 25  1  0  0  0  0
 24 26  1  0  0  0  0
M  END
$$$$
default_name
  -OEChem-02102213163D

 29 28  0     1  0  0  0  0  0999 V2000
   -3.3998   -3.6239    1.3678 H   0  0  0  0  0  0  0  0  0  0  0  0
   -3.3608   -2.6749    0.8348 C   0  0  0  0  0  0  0  0  0  0  0  0
   -4.0988   -1.9909    1.2498 H   0  0  0  0  0  0  0  0  0  0  0  0
   -3.5618   -2.8419   -0.2222 H   0  0  0  0  0  0  0  0  0  0  0  0
   -1.9818   -2.0809    0.9918 C   0  0  0  0  0  0  0  0  0  0  0  0
   -1.1288   -2.6669    1.6468 O   0  0  0  0  0  0  0  0  0  0  0  0
   -1.7648   -0.9089    0.3998 N   0  0  0  0  0  0  0  0  0  0  0  0
   -2.5238   -0.4719   -0.1032 H   0  0  0  0  0  0  0  0  0  0  0  0
   -0.4848   -0.1959    0.4138 C   0  0  1  0  0  0  0  0  0  0  0  0
    0.2783   -0.8411   -0.0248 H   0  0  0  0  0  0  0  0  0  0  0  0
   -0.6101    1.0666   -0.4611 C   0  0  0  0  0  0  0  0  0  0  0  0
    0.3505    1.5858   -0.4544 H   0  0  0  0  0  0  0  0  0  0  0  0
   -0.8297    0.7687   -1.4875 H   0  0  0  0  0  0  0  0  0  0  0  0
   -1.6951    2.0483    0.0147 C   0  0  0  0  0  0  0  0  0  0  0  0
   -1.2272    2.9121    0.4865 H   0  0  0  0  0  0  0  0  0  0  0  0
   -2.2663    2.3899   -0.8485 H   0  0  0  0  0  0  0  0  0  0  0  0
   -2.6667    1.4300    1.0199 C   0  0  0  0  0  0  0  0  0  0  0  0
   -2.6321    0.2596    1.3509 O   0  0  0  0  0  0  0  0  0  0  0  0
   -3.5829    2.2028    1.5617 N   0  0  0  0  0  0  0  0  0  0  0  0
   -4.1937    1.7449    2.2157 H   0  0  0  0  0  0  0  0  0  0  0  0
   -3.6538    3.1721    1.3271 H   0  0  0  0  0  0  0  0  0  0  0  0
   -0.0637    0.1284    1.8555 C   0  0  0  0  0  0  0  0  0  0  0  0
    1.0918   -0.0745    2.2236 O   0  0  0  0  0  0  0  0  0  0  0  0
   -1.0024    0.6217    2.6735 N   0  0  0  0  0  0  0  0  0  0  0  0
   -1.9213    0.7848    2.2938 H   0  0  0  0  0  0  0  0  0  0  0  0
   -0.7639    0.9676    4.0741 C   0  0  0  0  0  0  0  0  0  0  0  0
    0.0520    1.6916    4.1400 H   0  0  0  0  0  0  0  0  0  0  0  0
   -1.6626    1.3984    4.5182 H   0  0  0  0  0  0  0  0  0  0  0  0
   -0.4775    0.0737    4.6309 H   0  0  0  0  0  0  0  0  0  0  0  0
  5  6  2  0  0  0  0
  5  7  1  0  0  0  0
  2  3  1  0  0  0  0
  2  4  1  0  0  0  0
  2  5  1  0  0  0  0
  1  2  1  0  0  0  0
 22 23  2  0  0  0  0
 22 24  1  0  0  0  0
 19 20  1  0  0  0  0
 19 21  1  0  0  0  0
 17 18  2  0  0  0  0
 17 19  1  0  0  0  0
 14 15  1  0  0  0  0
 14 16  1  0  0  0  0
 14 17  1  0  0  0  0
 11 12  1  0  0  0  0
 11 13  1  0  0  0  0
 11 14  1  0  0  0  0
  9 10  1  0  0  0  0
  9 11  1  0  0  0  0
  9 22  1  0  0  0  0
  7  8  1  0  0  0  0
  7  9  1  0  0  0  0
 26 27  1  0  0  0  0
 26 28  1  0  0  0  0
 26 29  1  0  0  0  0
 24 25  1  0  0  0  0
 24 26  1  0  0  0  0
M  END
$$$$
default_name
  -OEChem-02102213163D

 29 28  0     1  0  0  0  0  0999 V2000
   -3.3998   -3.6239    1.3678 H   0  0  0  0  0  0  0  0  0  0  0  0
   -3.3608   -2.6749    0.8348 C   0  0  0  0  0  0  0  0  0  0  0  0
   -4.0988   -1.9909    1.2498 H   0  0  0  0  0  0  0  0  0  0  0  0
   -3.5618   -2.8419   -0.2222 H   0  0  0  0  0  0  0  0  0  0  0  0
   -1.9818   -2.0809    0.9918 C   0  0  0  0  0  0  0  0  0  0  0  0
   -1.1288   -2.6669    1.6468 O   0  0  0  0  0  0  0  0  0  0  0  0
   -1.7648   -0.9089    0.3998 N   0  0  0  0  0  0  0  0  0  0  0  0
   -2.5238   -0.4719   -0.1032 H   0  0  0  0  0  0  0  0  0  0  0  0
   -0.4848   -0.1959    0.4138 C   0  0  1  0  0  0  0  0  0  0  0  0
    0.2783   -0.8411   -0.0248 H   0  0  0  0  0  0  0  0  0  0  0  0
   -0.6101    1.0666   -0.4611 C   0  0  0  0  0  0  0  0  0  0  0  0
    0.3505    1.5858   -0.4544 H   0  0  0  0  0  0  0  0  0  0  0  0
   -0.8297    0.7687   -1.4875 H   0  0  0  0  0  0  0  0  0  0  0  0
   -1.6951    2.0483    0.0147 C   0  0  0  0  0  0  0  0  0  0  0  0
   -1.2432    3.0142    0.2394 H   0  0  0  0  0  0  0  0  0  0  0  0
   -2.4252    2.1827   -0.7834 H   0  0  0  0  0  0  0  0  0  0  0  0
   -2.4325    1.5698    1.2653 C   0  0  0  0  0  0  0  0  0  0  0  0
   -2.2347    0.4879    1.7859 O   0  0  0  0  0  0  0  0  0  0  0  0
   -3.3213    2.3703    1.8126 N   0  0  0  0  0  0  0  0  0  0  0  0
   -3.7748    2.0058    2.6324 H   0  0  0  0  0  0  0  0  0  0  0  0
   -3.5205    3.2710    1.4271 H   0  0  0  0  0  0  0  0  0  0  0  0
   -0.0637    0.1284    1.8555 C   0  0  0  0  0  0  0  0  0  0  0  0
    1.0918   -0.0745    2.2236 O   0  0  0  0  0  0  0  0  0  0  0  0
   -1.0024    0.6217    2.6735 N   0  0  0  0  0  0  0  0  0  0  0  0
   -1.9213    0.7848    2.2938 H   0  0  0  0  0  0  0  0  0  0  0  0
   -0.7639    0.9676    4.0741 C   0  0  0  0  0  0  0  0  0  0  0  0
    0.0520    1.6916    4.1400 H   0  0  0  0  0  0  0  0  0  0  0  0
   -1.6626    1.3984    4.5182 H   0  0  0  0  0  0  0  0  0  0  0  0
   -0.4775    0.0737    4.6309 H   0  0  0  0  0  0  0  0  0  0  0  0
  5  6  2  0  0  0  0
  5  7  1  0  0  0  0
  2  3  1  0  0  0  0
  2  4  1  0  0  0  0
  2  5  1  0  0  0  0
  1  2  1  0  0  0  0
 22 23  2  0  0  0  0
 22 24  1  0  0  0  0
 19 20  1  0  0  0  0
 19 21  1  0  0  0  0
 17 18  2  0  0  0  0
 17 19  1  0  0  0  0
 14 15  1  0  0  0  0
 14 16  1  0  0  0  0
 14 17  1  0  0  0  0
 11 12  1  0  0  0  0
 11 13  1  0  0  0  0
 11 14  1  0  0  0  0
  9 10  1  0  0  0  0
  9 11  1  0  0  0  0
  9 22  1  0  0  0  0
  7  8  1  0  0  0  0
  7  9  1  0  0  0  0
 26 27  1  0  0  0  0
 26 28  1  0  0  0  0
 26 29  1  0  0  0  0
 24 25  1  0  0  0  0
 24 26  1  0  0  0  0
M  END
$$$$
default_name
  -OEChem-02102213163D

 29 28  0     1  0  0  0  0  0999 V2000
   -3.3998   -3.6239    1.3678 H   0  0  0  0  0  0  0  0  0  0  0  0
   -3.3608   -2.6749    0.8348 C   0  0  0  0  0  0  0  0  0  0  0  0
   -4.0988   -1.9909    1.2498 H   0  0  0  0  0  0  0  0  0  0  0  0
   -3.5618   -2.8419   -0.2222 H   0  0  0  0  0  0  0  0  0  0  0  0
   -1.9818   -2.0809    0.9918 C   0  0  0  0  0  0  0  0  0  0  0  0
   -1.1288   -2.6669    1.6468 O   0  0  0  0  0  0  0  0  0  0  0  0
   -1.7648   -0.9089    0.3998 N   0  0  0  0  0  0  0  0  0  0  0  0
   -2.5238   -0.4719   -0.1032 H   0  0  0  0  0  0  0  0  0  0  0  0
   -0.4848   -0.1959    0.4138 C   0  0  1  0  0  0  0  0  0  0  0  0
    0.2783   -0.8411   -0.0248 H   0  0  0  0  0  0  0  0  0  0  0  0
   -0.6101    1.0666   -0.4611 C   0  0  0  0  0  0  0  0  0  0  0  0
    0.3505    1.5858   -0.4544 H   0  0  0  0  0  0  0  0  0  0  0  0
   -0.8297    0.7687   -1.4875 H   0  0  0  0  0  0  0  0  0  0  0  0
   -1.6951    2.0483    0.0147 C   0  0  0  0  0  0  0  0  0  0  0  0
   -1.3076    3.0665   -0.0153 H   0  0  0  0  0  0  0  0  0  0  0  0
   -2.5514    1.9817   -0.6564 H   0  0  0  0  0  0  0  0  0  0  0  0
   -2.1770    1.7684    1.4381 C   0  0  0  0  0  0  0  0  0  0  0  0
   -1.7973    0.8197    2.0987 O   0  0  0  0  0  0  0  0  0  0  0  0
   -3.0406    2.5988    1.9813 N   0  0  0  0  0  0  0  0  0  0  0  0
   -3.3223    2.3674    2.9181 H   0  0  0  0  0  0  0  0  0  0  0  0
   -3.3831    3.3955    1.4836 H   0  0  0  0  0  0  0  0  0  0  0  0
   -0.0637    0.1284    1.8555 C   0  0  0  0  0  0  0  0  0  0  0  0
    1.0918   -0.0745    2.2236 O   0  0  0  0  0  0  0  0  0  0  0  0
   -1.0024    0.6217    2.6735 N   0  0  0  0  0  0  0  0  0  0  0  0
   -1.9213    0.7848    2.2938 H   0  0  0  0  0  0  0  0  0  0  0  0
   -0.7639    0.9676    4.0741 C   0  0  0  0  0  0  0  0  0  0  0  0
    0.0520    1.6916    4.1400 H   0  0  0  0  0  0  0  0  0  0  0  0
   -1.6626    1.3984    4.5182 H   0  0  0  0  0  0  0  0  0  0  0  0
   -0.4775    0.0737    4.6309 H   0  0  0  0  0  0  0  0  0  0  0  0
  5  6  2  0  0  0  0
  5  7  1  0  0  0  0
  2  3  1  0  0  0  0
  2  4  1  0  0  0  0
  2  5  1  0  0  0  0
  1  2  1  0  0  0  0
 22 23  2  0  0  0  0
 22 24  1  0  0  0  0
 19 20  1  0  0  0  0
 19 21  1  0  0  0  0
 17 18  2  0  0  0  0
 17 19  1  0  0  0  0
 14 15  1  0  0  0  0
 14 16  1  0  0  0  0
 14 17  1  0  0  0  0
 11 12  1  0  0  0  0
 11 13  1  0  0  0  0
 11 14  1  0  0  0  0
  9 10  1  0  0  0  0
  9 11  1  0  0  0  0
  9 22  1  0  0  0  0
  7  8  1  0  0  0  0
  7  9  1  0  0  0  0
 26 27  1  0  0  0  0
 26 28  1  0  0  0  0
 26 29  1  0  0  0  0
 24 25  1  0  0  0  0
 24 26  1  0  0  0  0
M  END
$$$$
default_name
  -OEChem-02102213163D

 29 28  0     1  0  0  0  0  0999 V2000
   -3.3998   -3.6239    1.3678 H   0  0  0  0  0  0  0  0  0  0  0  0
   -3.3608   -2.6749    0.8348 C   0  0  0  0  0  0  0  0  0  0  0  0
   -4.0988   -1.9909    1.2498 H   0  0  0  0  0  0  0  0  0  0  0  0
   -3.5618   -2.8419   -0.2222 H   0  0  0  0  0  0  0  0  0  0  0  0
   -1.9818   -2.0809    0.9918 C   0  0  0  0  0  0  0  0  0  0  0  0
   -1.1288   -2.6669    1.6468 O   0  0  0  0  0  0  0  0  0  0  0  0
   -1.7648   -0.9089    0.3998 N   0  0  0  0  0  0  0  0  0  0  0  0
   -2.5238   -0.4719   -0.1032 H   0  0  0  0  0  0  0  0  0  0  0  0
   -0.4848   -0.1959    0.4138 C   0  0  1  0  0  0  0  0  0  0  0  0
    0.2783   -0.8411   -0.0248 H   0  0  0  0  0  0  0  0  0  0  0  0
   -0.6101    1.0666   -0.4611 C   0  0  0  0  0  0  0  0  0  0  0  0
    0.3505    1.5858   -0.4544 H   0  0  0  0  0  0  0  0  0  0  0  0
   -0.8297    0.7687   -1.4875 H   0  0  0  0  0  0  0  0  0  0  0  0
   -1.6951    2.0483    0.0147 C   0  0  0  0  0  0  0  0  0  0  0  0
   -1.4161    3.0653   -0.2602 H   0  0  0  0  0  0  0  0  0  0  0  0
   -2.6362    1.8007   -0.4762 H   0  0  0  0  0  0  0  0  0  0  0  0
   -1.9176    2.0122    1.5266 C   0  0  0  0  0  0  0  0  0  0  0  0
   -1.3498    1.2323    2.2681 O   0  0  0  0  0  0  0  0  0  0  0  0
   -2.7599    2.8727    2.0561 N   0  0  0  0  0  0  0  0  0  0  0  0
   -2.8670    2.8051    3.0533 H   0  0  0  0  0  0  0  0  0  0  0  0
   -3.2510    3.5370    1.4928 H   0  0  0  0  0  0  0  0  0  0  0  0
   -0.0637    0.1284    1.8555 C   0  0  0  0  0  0  0  0  0  0  0  0
    1.0918   -0.0745    2.2236 O   0  0  0  0  0  0  0  0  0  0  0  0
   -1.0024    0.6217    2.6735 N   0  0  0  0  0  0  0  0  0  0  0  0
   -1.9213    0.7848    2.2938 H   0  0  0  0  0  0  0  0  0  0  0  0
   -0.7639    0.9676    4.0741 C   0  0  0  0  0  0  0  0  0  0  0  0
    0.0520    1.6916    4.1400 H   0  0  0  0  0  0  0  0  0  0  0  0
   -1.6626    1.3984    4.5182 H   0  0  0  0  0  0  0  0  0  0  0  0
   -0.4775    0.0737    4.6309 H   0  0  0  0  0  0  0  0  0  0  0  0
  5  6  2  0  0  0  0
  5  7  1  0  0  0  0
  2  3  1  0  0  0  0
  2  4  1  0  0  0  0
  2  5  1  0  0  0  0
  1  2  1  0  0  0  0
 22 23  2  0  0  0  0
 22 24  1  0  0  0  0
 19 20  1  0  0  0  0
 19 21  1  0  0  0  0
 17 18  2  0  0  0  0
 17 19  1  0  0  0  0
 14 15  1  0  0  0  0
 14 16  1  0  0  0  0
 14 17  1  0  0  0  0
 11 12  1  0  0  0  0
 11 13  1  0  0  0  0
 11 14  1  0  0  0  0
  9 10  1  0  0  0  0
  9 11  1  0  0  0  0
  9 22  1  0  0  0  0
  7  8  1  0  0  0  0
  7  9  1  0  0  0  0
 26 27  1  0  0  0  0
 26 28  1  0  0  0  0
 26 29  1  0  0  0  0
 24 25  1  0  0  0  0
 24 26  1  0  0  0  0
M  END
$$$$
default_name
  -OEChem-02102213163D

 29 28  0     1  0  0  0  0  0999 V2000
   -3.3998   -3.6239    1.3678 H   0  0  0  0  0  0  0  0  0  0  0  0
   -3.3608   -2.6749    0.8348 C   0  0  0  0  0  0  0  0  0  0  0  0
   -4.0988   -1.9909    1.2498 H   0  0  0  0  0  0  0  0  0  0  0  0
   -3.5618   -2.8419   -0.2222 H   0  0  0  0  0  0  0  0  0  0  0  0
   -1.9818   -2.0809    0.9918 C   0  0  0  0  0  0  0  0  0  0  0  0
   -1.1288   -2.6669    1.6468 O   0  0  0  0  0  0  0  0  0  0  0  0
   -1.7648   -0.9089    0.3998 N   0  0  0  0  0  0  0  0  0  0  0  0
   -2.5238   -0.4719   -0.1032 H   0  0  0  0  0  0  0  0  0  0  0  0
   -0.4848   -0.1959    0.4138 C   0  0  1  0  0  0  0  0  0  0  0  0
    0.2783   -0.8411   -0.0248 H   0  0  0  0  0  0  0  0  0  0  0  0
   -0.6101    1.0666   -0.4611 C   0  0  0  0  0  0  0  0  0  0  0  0
    0.3505    1.5858   -0.4544 H   0  0  0  0  0  0  0  0  0  0  0  0
   -0.8297    0.7687   -1.4875 H   0  0  0  0  0  0  0  0  0  0  0  0
   -1.6951    2.0483    0.0147 C   0  0  0  0  0  0  0  0  0  0  0  0
   -1.5613    3.0108   -0.4787 H   0  0  0  0  0  0  0  0  0  0  0  0
   -2.6739    1.6519   -0.2552 H   0  0  0  0  0  0  0  0  0  0  0  0
   -1.6719    2.2847    1.5248 C   0  0  0  0  0  0  0  0  0  0  0  0
   -0.9225    1.6975    2.2825 O   0  0  0  0  0  0  0  0  0  0  0  0
   -2.4984    3.1734    2.0320 N   0  0  0  0  0  0  0  0  0  0  0  0
   -2.4399    3.2890    3.0289 H   0  0  0  0  0  0  0  0  0  0  0  0
   -3.1332    3.6859    1.4541 H   0  0  0  0  0  0  0  0  0  0  0  0
   -0.0637    0.1284    1.8555 C   0  0  0  0  0  0  0  0  0  0  0  0
    1.0918   -0.0745    2.2236 O   0  0  0  0  0  0  0  0  0  0  0  0
   -1.0024    0.6217    2.6735 N   0  0  0  0  0  0  0  0  0  0  0  0
   -1.9213    0.7848    2.2938 H   0  0  0  0  0  0  0  0  0  0  0  0
   -0.7639    0.9676    4.0741 C   0  0  0  0  0  0  0  0  0  0  0  0
    0.0520    1.6916    4.1400 H   0  0  0  0  0  0  0  0  0  0  0  0
   -1.6626    1.3984    4.5182 H   0  0  0  0  0  0  0  0  0  0  0  0
   -0.4775    0.0737    4.6309 H   0  0  0  0  0  0  0  0  0  0  0  0
  5  6  2  0  0  0  0
  5  7  1  0  0  0  0
  2  3  1  0  0  0  0
  2  4  1  0  0  0  0
  2  5  1  0  0  0  0
  1  2  1  0  0  0  0
 22 23  2  0  0  0  0
 22 24  1  0  0  0  0
 19 20  1  0  0  0  0
 19 21  1  0  0  0  0
 17 18  2  0  0  0  0
 17 19  1  0  0  0  0
 14 15  1  0  0  0  0
 14 16  1  0  0  0  0
 14 17  1  0  0  0  0
 11 12  1  0  0  0  0
 11 13  1  0  0  0  0
 11 14  1  0  0  0  0
  9 10  1  0  0  0  0
  9 11  1  0  0  0  0
  9 22  1  0  0  0  0
  7  8  1  0  0  0  0
  7  9  1  0  0  0  0
 26 27  1  0  0  0  0
 26 28  1  0  0  0  0
 26 29  1  0  0  0  0
 24 25  1  0  0  0  0
 24 26  1  0  0  0  0
M  END
$$$$
default_name
  -OEChem-02102213163D

 29 28  0     1  0  0  0  0  0999 V2000
   -3.3998   -3.6239    1.3678 H   0  0  0  0  0  0  0  0  0  0  0  0
   -3.3608   -2.6749    0.8348 C   0  0  0  0  0  0  0  0  0  0  0  0
   -4.0988   -1.9909    1.2498 H   0  0  0  0  0  0  0  0  0  0  0  0
   -3.5618   -2.8419   -0.2222 H   0  0  0  0  0  0  0  0  0  0  0  0
   -1.9818   -2.0809    0.9918 C   0  0  0  0  0  0  0  0  0  0  0  0
   -1.1288   -2.6669    1.6468 O   0  0  0  0  0  0  0  0  0  0  0  0
   -1.7648   -0.9089    0.3998 N   0  0  0  0  0  0  0  0  0  0  0  0
   -2.5238   -0.4719   -0.1032 H   0  0  0  0  0  0  0  0  0  0  0  0
   -0.4848   -0.1959    0.4138 C   0  0  1  0  0  0  0  0  0  0  0  0
    0.2783   -0.8411   -0.0248 H   0  0  0  0  0  0  0  0  0  0  0  0
   -0.6101    1.0666   -0.4611 C   0  0  0  0  0  0  0  0  0  0  0  0
    0.3505    1.5858   -0.4544 H   0  0  0  0  0  0  0  0  0  0  0  0
   -0.8297    0.7687   -1.4875 H   0  0  0  0  0  0  0  0  0  0  0  0
   -1.6951    2.0483    0.0147 C   0  0  0  0  0  0  0  0  0  0  0  0
   -1.7331    2.9066   -0.6557 H   0  0  0  0  0  0  0  0  0  0  0  0
   -2.6619    1.5455   -0.0083 H   0  0  0  0  0  0  0  0  0  0  0  0
   -1.4567    2.5671    1.4327 C   0  0  0  0  0  0  0  0  0  0  0  0
   -0.5446    2.1838    2.1410 O   0  0  0  0  0  0  0  0  0  0  0  0
   -2.2738    3.4805    1.9107 N   0  0  0  0  0  0  0  0  0  0  0  0
   -2.0701    3.7861    2.8464 H   0  0  0  0  0  0  0  0  0  0  0  0
   -3.0378    3.8322    1.3700 H   0  0  0  0  0  0  0  0  0  0  0  0
   -0.0637    0.1284    1.8555 C   0  0  0  0  0  0  0  0  0  0  0  0
    1.0918   -0.0745    2.2236 O   0  0  0  0  0  0  0  0  0  0  0  0
   -1.0024    0.6217    2.6735 N   0  0  0  0  0  0  0  0  0  0  0  0
   -1.9213    0.7848    2.2938 H   0  0  0  0  0  0  0  0  0  0  0  0
   -0.7639    0.9676    4.0741 C   0  0  0  0  0  0  0  0  0  0  0  0
    0.0520    1.6916    4.1400 H   0  0  0  0  0  0  0  0  0  0  0  0
   -1.6626    1.3984    4.5182 H   0  0  0  0  0  0  0  0  0  0  0  0
   -0.4775    0.0737    4.6309 H   0  0  0  0  0  0  0  0  0  0  0  0
  5  6  2  0  0  0  0
  5  7  1  0  0  0  0
  2  3  1  0  0  0  0
  2  4  1  0  0  0  0
  2  5  1  0  0  0  0
  1  2  1  0  0  0  0
 22 23  2  0  0  0  0
 22 24  1  0  0  0  0
 19 20  1  0  0  0  0
 19 21  1  0  0  0  0
 17 18  2  0  0  0  0
 17 19  1  0  0  0  0
 14 15  1  0  0  0  0
 14 16  1  0  0  0  0
 14 17  1  0  0  0  0
 11 12  1  0  0  0  0
 11 13  1  0  0  0  0
 11 14  1  0  0  0  0
  9 10  1  0  0  0  0
  9 11  1  0  0  0  0
  9 22  1  0  0  0  0
  7  8  1  0  0  0  0
  7  9  1  0  0  0  0
 26 27  1  0  0  0  0
 26 28  1  0  0  0  0
 26 29  1  0  0  0  0
 24 25  1  0  0  0  0
 24 26  1  0  0  0  0
M  END
$$$$
default_name
  -OEChem-02102213163D

 29 28  0     1  0  0  0  0  0999 V2000
   -3.3998   -3.6239    1.3678 H   0  0  0  0  0  0  0  0  0  0  0  0
   -3.3608   -2.6749    0.8348 C   0  0  0  0  0  0  0  0  0  0  0  0
   -4.0988   -1.9909    1.2498 H   0  0  0  0  0  0  0  0  0  0  0  0
   -3.5618   -2.8419   -0.2222 H   0  0  0  0  0  0  0  0  0  0  0  0
   -1.9818   -2.0809    0.9918 C   0  0  0  0  0  0  0  0  0  0  0  0
   -1.1288   -2.6669    1.6468 O   0  0  0  0  0  0  0  0  0  0  0  0
   -1.7648   -0.9089    0.3998 N   0  0  0  0  0  0  0  0  0  0  0  0
   -2.5238   -0.4719   -0.1032 H   0  0  0  0  0  0  0  0  0  0  0  0
   -0.4848   -0.1959    0.4138 C   0  0  1  0  0  0  0  0  0  0  0  0
    0.2783   -0.8411   -0.0248 H   0  0  0  0  0  0  0  0  0  0  0  0
   -0.6101    1.0666   -0.4611 C   0  0  0  0  0  0  0  0  0  0  0  0
    0.3505    1.5858   -0.4544 H   0  0  0  0  0  0  0  0  0  0  0  0
   -0.8297    0.7687   -1.4875 H   0  0  0  0  0  0  0  0  0  0  0  0
   -1.6951    2.0483    0.0147 C   0  0  0  0  0  0  0  0  0  0  0  0
   -1.9201    2.7600   -0.7794 H   0  0  0  0  0  0  0  0  0  0  0  0
   -2.6010    1.4887    0.2477 H   0  0  0  0  0  0  0  0  0  0  0  0
   -1.2867    2.8404    1.2567 C   0  0  0  0  0  0  0  0  0  0  0  0
   -0.2419    2.6578    1.8531 O   0  0  0  0  0  0  0  0  0  0  0  0
   -2.1014    3.7729    1.7004 N   0  0  0  0  0  0  0  0  0  0  0  0
   -1.7829    4.2626    2.5184 H   0  0  0  0  0  0  0  0  0  0  0  0
   -2.9712    3.9657    1.2464 H   0  0  0  0  0  0  0  0  0  0  0  0
   -0.0637    0.1284    1.8555 C   0  0  0  0  0  0  0  0  0  0  0  0
    1.0918   -0.0745    2.2236 O   0  0  0  0  0  0  0  0  0  0  0  0
   -1.0024    0.6217    2.6735 N   0  0  0  0  0  0  0  0  0  0  0  0
   -1.9213    0.7848    2.2938 H   0  0  0  0  0  0  0  0  0  0  0  0
   -0.7639    0.9676    4.0741 C   0  0  0  0  0  0  0  0  0  0  0  0
    0.0520    1.6916    4.1400 H   0  0  0  0  0  0  0  0  0  0  0  0
   -1.6626    1.3984    4.5182 H   0  0  0  0  0  0  0  0  0  0  0  0
   -0.4775    0.0737    4.6309 H   0  0  0  0  0  0  0  0  0  0  0  0
  5  6  2  0  0  0  0
  5  7  1  0  0  0  0
  2  3  1  0  0  0  0
  2  4  1  0  0  0  0
  2  5  1  0  0  0  0
  1  2  1  0  0  0  0
 22 23  2  0  0  0  0
 22 24  1  0  0  0  0
 19 20  1  0  0  0  0
 19 21  1  0  0  0  0
 17 18  2  0  0  0  0
 17 19  1  0  0  0  0
 14 15  1  0  0  0  0
 14 16  1  0  0  0  0
 14 17  1  0  0  0  0
 11 12  1  0  0  0  0
 11 13  1  0  0  0  0
 11 14  1  0  0  0  0
  9 10  1  0  0  0  0
  9 11  1  0  0  0  0
  9 22  1  0  0  0  0
  7  8  1  0  0  0  0
  7  9  1  0  0  0  0
 26 27  1  0  0  0  0
 26 28  1  0  0  0  0
 26 29  1  0  0  0  0
 24 25  1  0  0  0  0
 24 26  1  0  0  0  0
M  END
$$$$
default_name
  -OEChem-02102213163D

 29 28  0     1  0  0  0  0  0999 V2000
   -3.3998   -3.6239    1.3678 H   0  0  0  0  0  0  0  0  0  0  0  0
   -3.3608   -2.6749    0.8348 C   0  0  0  0  0  0  0  0  0  0  0  0
   -4.0988   -1.9909    1.2498 H   0  0  0  0  0  0  0  0  0  0  0  0
   -3.5618   -2.8419   -0.2222 H   0  0  0  0  0  0  0  0  0  0  0  0
   -1.9818   -2.0809    0.9918 C   0  0  0  0  0  0  0  0  0  0  0  0
   -1.1288   -2.6669    1.6468 O   0  0  0  0  0  0  0  0  0  0  0  0
   -1.7648   -0.9089    0.3998 N   0  0  0  0  0  0  0  0  0  0  0  0
   -2.5238   -0.4719   -0.1032 H   0  0  0  0  0  0  0  0  0  0  0  0
   -0.4848   -0.1959    0.4138 C   0  0  1  0  0  0  0  0  0  0  0  0
    0.2783   -0.8411   -0.0248 H   0  0  0  0  0  0  0  0  0  0  0  0
   -0.6101    1.0666   -0.4611 C   0  0  0  0  0  0  0  0  0  0  0  0
    0.3505    1.5858   -0.4544 H   0  0  0  0  0  0  0  0  0  0  0  0
   -0.8297    0.7687   -1.4875 H   0  0  0  0  0  0  0  0  0  0  0  0
   -1.6951    2.0483    0.0147 C   0  0  0  0  0  0  0  0  0  0  0  0
   -2.1093    2.5808   -0.8412 H   0  0  0  0  0  0  0  0  0  0  0  0
   -2.4954    1.4855    0.4952 H   0  0  0  0  0  0  0  0  0  0  0  0
   -1.1733    3.0859    1.0087 C   0  0  0  0  0  0  0  0  0  0  0  0
   -0.0350    3.0874    1.4385 O   0  0  0  0  0  0  0  0  0  0  0  0
   -1.9931    4.0307    1.4154 N   0  0  0  0  0  0  0  0  0  0  0  0
   -1.5977    4.6859    2.0672 H   0  0  0  0  0  0  0  0  0  0  0  0
   -2.9379    4.0775    1.0916 H   0  0  0  0  0  0  0  0  0  0  0  0
   -0.0637    0.1284    1.8555 C   0  0  0  0  0  0  0  0  0  0  0  0
    1.0918   -0.0745    2.2236 O   0  0  0  0  0  0  0  0  0  0  0  0
   -1.0024    0.6217    2.6735 N   0  0  0  0  0  0  0  0  0  0  0  0
   -1.9213    0.7848    2.2938 H   0  0  0  0  0  0  0  0  0  0  0  0
   -0.7639    0.9676    4.0741 C   0  0  0  0  0  0  0  0  0  0  0  0
    0.0520    1.6916    4.1400 H   0  0  0  0  0  0  0  0  0  0  0  0
   -1.6626    1.3984    4.5182 H   0  0  0  0  0  0  0  0  0  0  0  0
   -0.4775    0.0737    4.6309 H   0  0  0  0  0  0  0  0  0  0  0  0
  5  6  2  0  0  0  0
  5  7  1  0  0  0  0
  2  3  1  0  0  0  0
  2  4  1  0  0  0  0
  2  5  1  0  0  0  0
  1  2  1  0  0  0  0
 22 23  2  0  0  0  0
 22 24  1  0  0  0  0
 19 20  1  0  0  0  0
 19 21  1  0  0  0  0
 17 18  2  0  0  0  0
 17 19  1  0  0  0  0
 14 15  1  0  0  0  0
 14 16  1  0  0  0  0
 14 17  1  0  0  0  0
 11 12  1  0  0  0  0
 11 13  1  0  0  0  0
 11 14  1  0  0  0  0
  9 10  1  0  0  0  0
  9 11  1  0  0  0  0
  9 22  1  0  0  0  0
  7  8  1  0  0  0  0
  7  9  1  0  0  0  0
 26 27  1  0  0  0  0
 26 28  1  0  0  0  0
 26 29  1  0  0  0  0
 24 25  1  0  0  0  0
 24 26  1  0  0  0  0
M  END
$$$$
default_name
  -OEChem-02102213163D

 29 28  0     1  0  0  0  0  0999 V2000
   -3.3998   -3.6239    1.3678 H   0  0  0  0  0  0  0  0  0  0  0  0
   -3.3608   -2.6749    0.8348 C   0  0  0  0  0  0  0  0  0  0  0  0
   -4.0988   -1.9909    1.2498 H   0  0  0  0  0  0  0  0  0  0  0  0
   -3.5618   -2.8419   -0.2222 H   0  0  0  0  0  0  0  0  0  0  0  0
   -1.9818   -2.0809    0.9918 C   0  0  0  0  0  0  0  0  0  0  0  0
   -1.1288   -2.6669    1.6468 O   0  0  0  0  0  0  0  0  0  0  0  0
   -1.7648   -0.9089    0.3998 N   0  0  0  0  0  0  0  0  0  0  0  0
   -2.5238   -0.4719   -0.1032 H   0  0  0  0  0  0  0  0  0  0  0  0
   -0.4848   -0.1959    0.4138 C   0  0  1  0  0  0  0  0  0  0  0  0
    0.2783   -0.8411   -0.0248 H   0  0  0  0  0  0  0  0  0  0  0  0
   -0.6101    1.0666   -0.4611 C   0  0  0  0  0  0  0  0  0  0  0  0
    0.3505    1.5858   -0.4544 H   0  0  0  0  0  0  0  0  0  0  0  0
   -0.8297    0.7687   -1.4875 H   0  0  0  0  0  0  0  0  0  0  0  0
   -1.6951    2.0483    0.0147 C   0  0  0  0  0  0  0  0  0  0  0  0
   -2.2880    2.3812   -0.8369 H   0  0  0  0  0  0  0  0  0  0  0  0
   -2.3522    1.5360    0.7174 H   0  0  0  0  0  0  0  0  0  0  0  0
   -1.1245    3.2868    0.7056 C   0  0  0  0  0  0  0  0  0  0  0  0
    0.0620    3.4433    0.9255 O   0  0  0  0  0  0  0  0  0  0  0  0
   -1.9562    4.2365    1.0752 N   0  0  0  0  0  0  0  0  0  0  0  0
   -1.5272    5.0274    1.5234 H   0  0  0  0  0  0  0  0  0  0  0  0
   -2.9403    4.1598    0.9162 H   0  0  0  0  0  0  0  0  0  0  0  0
   -0.0637    0.1284    1.8555 C   0  0  0  0  0  0  0  0  0  0  0  0
    1.0918   -0.0745    2.2236 O   0  0  0  0  0  0  0  0  0  0  0  0
   -1.0024    0.6217    2.6735 N   0  0  0  0  0  0  0  0  0  0  0  0
   -1.9213    0.7848    2.2938 H   0  0  0  0  0  0  0  0  0  0  0  0
   -0.7639    0.9676    4.0741 C   0  0  0  0  0  0  0  0  0  0  0  0
    0.0520    1.6916    4.1400 H   0  0  0  0  0  0  0  0  0  0  0  0
   -1.6626    1.3984    4.5182 H   0  0  0  0  0  0  0  0  0  0  0  0
   -0.4775    0.0737    4.6309 H   0  0  0  0  0  0  0  0  0  0  0  0
  5  6  2  0  0  0  0
  5  7  1  0  0  0  0
  2  3  1  0  0  0  0
  2  4  1  0  0  0  0
  2  5  1  0  0  0  0
  1  2  1  0  0  0  0
 22 23  2  0  0  0  0
 22 24  1  0  0  0  0
 19 20  1  0  0  0  0
 19 21  1  0  0  0  0
 17 18  2  0  0  0  0
 17 19  1  0  0  0  0
 14 15  1  0  0  0  0
 14 16  1  0  0  0  0
 14 17  1  0  0  0  0
 11 12  1  0  0  0  0
 11 13  1  0  0  0  0
 11 14  1  0  0  0  0
  9 10  1  0  0  0  0
  9 11  1  0  0  0  0
  9 22  1  0  0  0  0
  7  8  1  0  0  0  0
  7  9  1  0  0  0  0
 26 27  1  0  0  0  0
 26 28  1  0  0  0  0
 26 29  1  0  0  0  0
 24 25  1  0  0  0  0
 24 26  1  0  0  0  0
M  END
$$$$
default_name
  -OEChem-02102213163D

 29 28  0     1  0  0  0  0  0999 V2000
   -3.3998   -3.6239    1.3678 H   0  0  0  0  0  0  0  0  0  0  0  0
   -3.3608   -2.6749    0.8348 C   0  0  0  0  0  0  0  0  0  0  0  0
   -4.0988   -1.9909    1.2498 H   0  0  0  0  0  0  0  0  0  0  0  0
   -3.5618   -2.8419   -0.2222 H   0  0  0  0  0  0  0  0  0  0  0  0
   -1.9818   -2.0809    0.9918 C   0  0  0  0  0  0  0  0  0  0  0  0
   -1.1288   -2.6669    1.6468 O   0  0  0  0  0  0  0  0  0  0  0  0
   -1.7648   -0.9089    0.3998 N   0  0  0  0  0  0  0  0  0  0  0  0
   -2.5238   -0.4719   -0.1032 H   0  0  0  0  0  0  0  0  0  0  0  0
   -0.4848   -0.1959    0.4138 C   0  0  1  0  0  0  0  0  0  0  0  0
    0.2783   -0.8411   -0.0248 H   0  0  0  0  0  0  0  0  0  0  0  0
   -0.6101    1.0666   -0.4611 C   0  0  0  0  0  0  0  0  0  0  0  0
    0.3505    1.5858   -0.4544 H   0  0  0  0  0  0  0  0  0  0  0  0
   -0.8297    0.7687   -1.4875 H   0  0  0  0  0  0  0  0  0  0  0  0
   -1.6951    2.0483    0.0147 C   0  0  0  0  0  0  0  0  0  0  0  0
   -2.4439    2.1750   -0.7669 H   0  0  0  0  0  0  0  0  0  0  0  0
   -2.1813    1.6368    0.8992 H   0  0  0  0  0  0  0  0  0  0  0  0
   -1.1434    3.4294    0.3681 C   0  0  0  0  0  0  0  0  0  0  0  0
    0.0425    3.7012    0.3490 O   0  0  0  0  0  0  0  0  0  0  0  0
   -1.9932    4.3760    0.7029 N   0  0  0  0  0  0  0  0  0  0  0  0
   -1.5763    5.2635    0.9243 H   0  0  0  0  0  0  0  0  0  0  0  0
   -2.9782    4.2072    0.7321 H   0  0  0  0  0  0  0  0  0  0  0  0
   -0.0637    0.1284    1.8555 C   0  0  0  0  0  0  0  0  0  0  0  0
    1.0918   -0.0745    2.2236 O   0  0  0  0  0  0  0  0  0  0  0  0
   -1.0024    0.6217    2.6735 N   0  0  0  0  0  0  0  0  0  0  0  0
   -1.9213    0.7848    2.2938 H   0  0  0  0  0  0  0  0  0  0  0  0
   -0.7639    0.9676    4.0741 C   0  0  0  0  0  0  0  0  0  0  0  0
    0.0520    1.6916    4.1400 H   0  0  0  0  0  0  0  0  0  0  0  0
   -1.6626    1.3984    4.5182 H   0  0  0  0  0  0  0  0  0  0  0  0
   -0.4775    0.0737    4.6309 H   0  0  0  0  0  0  0  0  0  0  0  0
  5  6  2  0  0  0  0
  5  7  1  0  0  0  0
  2  3  1  0  0  0  0
  2  4  1  0  0  0  0
  2  5  1  0  0  0  0
  1  2  1  0  0  0  0
 22 23  2  0  0  0  0
 22 24  1  0  0  0  0
 19 20  1  0  0  0  0
 19 21  1  0  0  0  0
 17 18  2  0  0  0  0
 17 19  1  0  0  0  0
 14 15  1  0  0  0  0
 14 16  1  0  0  0  0
 14 17  1  0  0  0  0
 11 12  1  0  0  0  0
 11 13  1  0  0  0  0
 11 14  1  0  0  0  0
  9 10  1  0  0  0  0
  9 11  1  0  0  0  0
  9 22  1  0  0  0  0
  7  8  1  0  0  0  0
  7  9  1  0  0  0  0
 26 27  1  0  0  0  0
 26 28  1  0  0  0  0
 26 29  1  0  0  0  0
 24 25  1  0  0  0  0
 24 26  1  0  0  0  0
M  END
$$$$
default_name
  -OEChem-02102213163D

 29 28  0     1  0  0  0  0  0999 V2000
   -3.3998   -3.6239    1.3678 H   0  0  0  0  0  0  0  0  0  0  0  0
   -3.3608   -2.6749    0.8348 C   0  0  0  0  0  0  0  0  0  0  0  0
   -4.0988   -1.9909    1.2498 H   0  0  0  0  0  0  0  0  0  0  0  0
   -3.5618   -2.8419   -0.2222 H   0  0  0  0  0  0  0  0  0  0  0  0
   -1.9818   -2.0809    0.9918 C   0  0  0  0  0  0  0  0  0  0  0  0
   -1.1288   -2.6669    1.6468 O   0  0  0  0  0  0  0  0  0  0  0  0
   -1.7648   -0.9089    0.3998 N   0  0  0  0  0  0  0  0  0  0  0  0
   -2.5238   -0.4719   -0.1032 H   0  0  0  0  0  0  0  0  0  0  0  0
   -0.4848   -0.1959    0.4138 C   0  0  1  0  0  0  0  0  0  0  0  0
    0.2783   -0.8411   -0.0248 H   0  0  0  0  0  0  0  0  0  0  0  0
   -0.6101    1.0666   -0.4611 C   0  0  0  0  0  0  0  0  0  0  0  0
    0.3505    1.5858   -0.4544 H   0  0  0  0  0  0  0  0  0  0  0  0
   -0.8297    0.7687   -1.4875 H   0  0  0  0  0  0  0  0  0  0  0  0
   -1.6951    2.0483    0.0147 C   0  0  0  0  0  0  0  0  0  0  0  0
   -2.5664    1.9760   -0.6359 H   0  0  0  0  0  0  0  0  0  0  0  0
   -1.9942    1.7810    1.0282 H   0  0  0  0  0  0  0  0  0  0  0  0
   -1.2288    3.5041    0.0193 C   0  0  0  0  0  0  0  0  0  0  0  0
   -0.0922    3.8435   -0.2517 O   0  0  0  0  0  0  0  0  0  0  0  0
   -2.1015    4.4399    0.3239 N   0  0  0  0  0  0  0  0  0  0  0  0
   -1.7415    5.3784    0.3106 H   0  0  0  0  0  0  0  0  0  0  0  0
   -3.0490    4.2163    0.5519 H   0  0  0  0  0  0  0  0  0  0  0  0
   -0.0637    0.1284    1.8555 C   0  0  0  0  0  0  0  0  0  0  0  0
    1.0918   -0.0745    2.2236 O   0  0  0  0  0  0  0  0  0  0  0  0
   -1.0024    0.6217    2.6735 N   0  0  0  0  0  0  0  0  0  0  0  0
   -1.9213    0.7848    2.2938 H   0  0  0  0  0  0  0  0  0  0  0  0
   -0.7639    0.9676    4.0741 C   0  0  0  0  0  0  0  0  0  0  0  0
    0.0520    1.6916    4.1400 H   0  0  0  0  0  0  0  0  0  0  0  0
   -1.6626    1.3984    4.5182 H   0  0  0  0  0  0  0  0  0  0  0  0
   -0.4775    0.0737    4.6309 H   0  0  0  0  0  0  0  0  0  0  0  0
  5  6  2  0  0  0  0
  5  7  1  0  0  0  0
  2  3  1  0  0  0  0
  2  4  1  0  0  0  0
  2  5  1  0  0  0  0
  1  2  1  0  0  0  0
 22 23  2  0  0  0  0
 22 24  1  0  0  0  0
 19 20  1  0  0  0  0
 19 21  1  0  0  0  0
 17 18  2  0  0  0  0
 17 19  1  0  0  0  0
 14 15  1  0  0  0  0
 14 16  1  0  0  0  0
 14 17  1  0  0  0  0
 11 12  1  0  0  0  0
 11 13  1  0  0  0  0
 11 14  1  0  0  0  0
  9 10  1  0  0  0  0
  9 11  1  0  0  0  0
  9 22  1  0  0  0  0
  7  8  1  0  0  0  0
  7  9  1  0  0  0  0
 26 27  1  0  0  0  0
 26 28  1  0  0  0  0
 26 29  1  0  0  0  0
 24 25  1  0  0  0  0
 24 26  1  0  0  0  0
M  END
$$$$
default_name
  -OEChem-02102213163D

 29 28  0     1  0  0  0  0  0999 V2000
   -3.3998   -3.6239    1.3678 H   0  0  0  0  0  0  0  0  0  0  0  0
   -3.3608   -2.6749    0.8348 C   0  0  0  0  0  0  0  0  0  0  0  0
   -4.0988   -1.9909    1.2498 H   0  0  0  0  0  0  0  0  0  0  0  0
   -3.5618   -2.8419   -0.2222 H   0  0  0  0  0  0  0  0  0  0  0  0
   -1.9818   -2.0809    0.9918 C   0  0  0  0  0  0  0  0  0  0  0  0
   -1.1288   -2.6669    1.6468 O   0  0  0  0  0  0  0  0  0  0  0  0
   -1.7648   -0.9089    0.3998 N   0  0  0  0  0  0  0  0  0  0  0  0
   -2.5238   -0.4719   -0.1032 H   0  0  0  0  0  0  0  0  0  0  0  0
   -0.4848   -0.1959    0.4138 C   0  0  1  0  0  0  0  0  0  0  0  0
    0.2783   -0.8411   -0.0248 H   0  0  0  0  0  0  0  0  0  0  0  0
   -0.6101    1.0666   -0.4611 C   0  0  0  0  0  0  0  0  0  0  0  0
    0.3505    1.5858   -0.4544 H   0  0  0  0  0  0  0  0  0  0  0  0
   -0.8297    0.7687   -1.4875 H   0  0  0  0  0  0  0  0  0  0  0  0
   -1.6951    2.0483    0.0147 C   0  0  0  0  0  0  0  0  0  0  0  0
   -2.6472    1.7980   -0.4527 H   0  0  0  0  0  0  0  0  0  0  0  0
   -1.8037    1.9589    1.0956 H   0  0  0  0  0  0  0  0  0  0  0  0
   -1.3750    3.5057   -0.3172 C   0  0  0  0  0  0  0  0  0  0  0  0
   -0.3329    3.8605   -0.8357 O   0  0  0  0  0  0  0  0  0  0  0  0
   -2.2739    4.4238   -0.0359 N   0  0  0  0  0  0  0  0  0  0  0  0
   -2.0117    5.3641   -0.2759 H   0  0  0  0  0  0  0  0  0  0  0  0
   -3.1479    4.1865    0.3879 H   0  0  0  0  0  0  0  0  0  0  0  0
   -0.0637    0.1284    1.8555 C   0  0  0  0  0  0  0  0  0  0  0  0
    1.0918   -0.0745    2.2236 O   0  0  0  0  0  0  0  0  0  0  0  0
   -1.0024    0.6217    2.6735 N   0  0  0  0  0  0  0  0  0  0  0  0
   -1.9213    0.7848    2.2938 H   0  0  0  0  0  0  0  0  0  0  0  0
   -0.7639    0.9676    4.0741 C   0  0  0  0  0  0  0  0  0  0  0  0
    0.0520    1.6916    4.1400 H   0  0  0  0  0  0  0  0  0  0  0  0
   -1.6626    1.3984    4.5182 H   0  0  0  0  0  0  0  0  0  0  0  0
   -0.4775    0.0737    4.6309 H   0  0  0  0  0  0  0  0  0  0  0  0
  5  6  2  0  0  0  0
  5  7  1  0  0  0  0
  2  3  1  0  0  0  0
  2  4  1  0  0  0  0
  2  5  1  0  0  0  0
  1  2  1  0  0  0  0
 22 23  2  0  0  0  0
 22 24  1  0  0  0  0
 19 20  1  0  0  0  0
 19 21  1  0  0  0  0
 17 18  2  0  0  0  0
 17 19  1  0  0  0  0
 14 15  1  0  0  0  0
 14 16  1  0  0  0  0
 14 17  1  0  0  0  0
 11 12  1  0  0  0  0
 11 13  1  0  0  0  0
 11 14  1  0  0  0  0
  9 10  1  0  0  0  0
  9 11  1  0  0  0  0
  9 22  1  0  0  0  0
  7  8  1  0  0  0  0
  7  9  1  0  0  0  0
 26 27  1  0  0  0  0
 26 28  1  0  0  0  0
 26 29  1  0  0  0  0
 24 25  1  0  0  0  0
 24 26  1  0  0  0  0
M  END
$$$$
default_name
  -OEChem-02102213163D

 29 28  0     1  0  0  0  0  0999 V2000
   -3.3998   -3.6239    1.3678 H   0  0  0  0  0  0  0  0  0  0  0  0
   -3.3608   -2.6749    0.8348 C   0  0  0  0  0  0  0  0  0  0  0  0
   -4.0988   -1.9909    1.2498 H   0  0  0  0  0  0  0  0  0  0  0  0
   -3.5618   -2.8419   -0.2222 H   0  0  0  0  0  0  0  0  0  0  0  0
   -1.9818   -2.0809    0.9918 C   0  0  0  0  0  0  0  0  0  0  0  0
   -1.1288   -2.6669    1.6468 O   0  0  0  0  0  0  0  0  0  0  0  0
   -1.7648   -0.9089    0.3998 N   0  0  0  0  0  0  0  0  0  0  0  0
   -2.5238   -0.4719   -0.1032 H   0  0  0  0  0  0  0  0  0  0  0  0
   -0.4848   -0.1959    0.4138 C   0  0  1  0  0  0  0  0  0  0  0  0
    0.2783   -0.8411   -0.0248 H   0  0  0  0  0  0  0  0  0  0  0  0
   -0.6101    1.0666   -0.4611 C   0  0  0  0  0  0  0  0  0  0  0  0
    0.3505    1.5858   -0.4544 H   0  0  0  0  0  0  0  0  0  0  0  0
   -0.8297    0.7687   -1.4875 H   0  0  0  0  0  0  0  0  0  0  0  0
   -1.6951    2.0483    0.0147 C   0  0  0  0  0  0  0  0  0  0  0  0
   -2.6808    1.6530   -0.2300 H   0  0  0  0  0  0  0  0  0  0  0  0
   -1.6229    2.1582    1.0967 H   0  0  0  0  0  0  0  0  0  0  0  0
   -1.5718    3.4342   -0.6185 C   0  0  0  0  0  0  0  0  0  0  0  0
   -0.6632    3.7511   -1.3631 O   0  0  0  0  0  0  0  0  0  0  0  0
   -2.4985    4.3288   -0.3520 N   0  0  0  0  0  0  0  0  0  0  0  0
   -2.3683    5.2216   -0.7952 H   0  0  0  0  0  0  0  0  0  0  0  0
   -3.2680    4.1200    0.2512 H   0  0  0  0  0  0  0  0  0  0  0  0
   -0.0637    0.1284    1.8555 C   0  0  0  0  0  0  0  0  0  0  0  0
    1.0918   -0.0745    2.2236 O   0  0  0  0  0  0  0  0  0  0  0  0
   -1.0024    0.6217    2.6735 N   0  0  0  0  0  0  0  0  0  0  0  0
   -1.9213    0.7848    2.2938 H   0  0  0  0  0  0  0  0  0  0  0  0
   -0.7639    0.9676    4.0741 C   0  0  0  0  0  0  0  0  0  0  0  0
    0.0520    1.6916    4.1400 H   0  0  0  0  0  0  0  0  0  0  0  0
   -1.6626    1.3984    4.5182 H   0  0  0  0  0  0  0  0  0  0  0  0
   -0.4775    0.0737    4.6309 H   0  0  0  0  0  0  0  0  0  0  0  0
  5  6  2  0  0  0  0
  5  7  1  0  0  0  0
  2  3  1  0  0  0  0
  2  4  1  0  0  0  0
  2  5  1  0  0  0  0
  1  2  1  0  0  0  0
 22 23  2  0  0  0  0
 22 24  1  0  0  0  0
 19 20  1  0  0  0  0
 19 21  1  0  0  0  0
 17 18  2  0  0  0  0
 17 19  1  0  0  0  0
 14 15  1  0  0  0  0
 14 16  1  0  0  0  0
 14 17  1  0  0  0  0
 11 12  1  0  0  0  0
 11 13  1  0  0  0  0
 11 14  1  0  0  0  0
  9 10  1  0  0  0  0
  9 11  1  0  0  0  0
  9 22  1  0  0  0  0
  7  8  1  0  0  0  0
  7  9  1  0  0  0  0
 26 27  1  0  0  0  0
 26 28  1  0  0  0  0
 26 29  1  0  0  0  0
 24 25  1  0  0  0  0
 24 26  1  0  0  0  0
M  END
$$$$
default_name
  -OEChem-02102213163D

 29 28  0     1  0  0  0  0  0999 V2000
   -3.3998   -3.6239    1.3678 H   0  0  0  0  0  0  0  0  0  0  0  0
   -3.3608   -2.6749    0.8348 C   0  0  0  0  0  0  0  0  0  0  0  0
   -4.0988   -1.9909    1.2498 H   0  0  0  0  0  0  0  0  0  0  0  0
   -3.5618   -2.8419   -0.2222 H   0  0  0  0  0  0  0  0  0  0  0  0
   -1.9818   -2.0809    0.9918 C   0  0  0  0  0  0  0  0  0  0  0  0
   -1.1288   -2.6669    1.6468 O   0  0  0  0  0  0  0  0  0  0  0  0
   -1.7648   -0.9089    0.3998 N   0  0  0  0  0  0  0  0  0  0  0  0
   -2.5238   -0.4719   -0.1032 H   0  0  0  0  0  0  0  0  0  0  0  0
   -0.4848   -0.1959    0.4138 C   0  0  1  0  0  0  0  0  0  0  0  0
    0.2783   -0.8411   -0.0248 H   0  0  0  0  0  0  0  0  0  0  0  0
   -0.6101    1.0666   -0.4611 C   0  0  0  0  0  0  0  0  0  0  0  0
    0.3945    1.4367   -0.6759 H   0  0  0  0  0  0  0  0  0  0  0  0
   -1.0846    0.7994   -1.4065 H   0  0  0  0  0  0  0  0  0  0  0  0
   -1.4148    2.2017    0.1959 C   0  0  0  0  0  0  0  0  0  0  0  0
   -2.4230    1.8545    0.4206 H   0  0  0  0  0  0  0  0  0  0  0  0
   -0.9283    2.4860    1.1289 H   0  0  0  0  0  0  0  0  0  0  0  0
   -1.5292    3.4457   -0.6851 C   0  0  0  0  0  0  0  0  0  0  0  0
   -0.9756    3.5555   -1.7630 O   0  0  0  0  0  0  0  0  0  0  0  0
   -2.2699    4.4467   -0.2614 N   0  0  0  0  0  0  0  0  0  0  0  0
   -2.3105    5.2379   -0.8801 H   0  0  0  0  0  0  0  0  0  0  0  0
   -2.7487    4.4076    0.6155 H   0  0  0  0  0  0  0  0  0  0  0  0
   -0.0637    0.1284    1.8555 C   0  0  0  0  0  0  0  0  0  0  0  0
    1.0918   -0.0745    2.2236 O   0  0  0  0  0  0  0  0  0  0  0  0
   -1.0024    0.6217    2.6735 N   0  0  0  0  0  0  0  0  0  0  0  0
   -1.9213    0.7848    2.2938 H   0  0  0  0  0  0  0  0  0  0  0  0
   -0.7639    0.9676    4.0741 C   0  0  0  0  0  0  0  0  0  0  0  0
    0.0520    1.6916    4.1400 H   0  0  0  0  0  0  0  0  0  0  0  0
   -1.6626    1.3984    4.5182 H   0  0  0  0  0  0  0  0  0  0  0  0
   -0.4775    0.0737    4.6309 H   0  0  0  0  0  0  0  0  0  0  0  0
  5  6  2  0  0  0  0
  5  7  1  0  0  0  0
  2  3  1  0  0  0  0
  2  4  1  0  0  0  0
  2  5  1  0  0  0  0
  1  2  1  0  0  0  0
 22 23  2  0  0  0  0
 22 24  1  0  0  0  0
 19 20  1  0  0  0  0
 19 21  1  0  0  0  0
 17 18  2  0  0  0  0
 17 19  1  0  0  0  0
 14 15  1  0  0  0  0
 14 16  1  0  0  0  0
 14 17  1  0  0  0  0
 11 12  1  0  0  0  0
 11 13  1  0  0  0  0
 11 14  1  0  0  0  0
  9 10  1  0  0  0  0
  9 11  1  0  0  0  0
  9 22  1  0  0  0  0
  7  8  1  0  0  0  0
  7  9  1  0  0  0  0
 26 27  1  0  0  0  0
 26 28  1  0  0  0  0
 26 29  1  0  0  0  0
 24 25  1  0  0  0  0
 24 26  1  0  0  0  0
M  END
$$$$
default_name
  -OEChem-02102213163D

 29 28  0     1  0  0  0  0  0999 V2000
   -3.3998   -3.6239    1.3678 H   0  0  0  0  0  0  0  0  0  0  0  0
   -3.3608   -2.6749    0.8348 C   0  0  0  0  0  0  0  0  0  0  0  0
   -4.0988   -1.9909    1.2498 H   0  0  0  0  0  0  0  0  0  0  0  0
   -3.5618   -2.8419   -0.2222 H   0  0  0  0  0  0  0  0  0  0  0  0
   -1.9818   -2.0809    0.9918 C   0  0  0  0  0  0  0  0  0  0  0  0
   -1.1288   -2.6669    1.6468 O   0  0  0  0  0  0  0  0  0  0  0  0
   -1.7648   -0.9089    0.3998 N   0  0  0  0  0  0  0  0  0  0  0  0
   -2.5238   -0.4719   -0.1032 H   0  0  0  0  0  0  0  0  0  0  0  0
   -0.4848   -0.1959    0.4138 C   0  0  1  0  0  0  0  0  0  0  0  0
    0.2783   -0.8411   -0.0248 H   0  0  0  0  0  0  0  0  0  0  0  0
   -0.6101    1.0666   -0.4611 C   0  0  0  0  0  0  0  0  0  0  0  0
    0.3945    1.4367   -0.6759 H   0  0  0  0  0  0  0  0  0  0  0  0
   -1.0846    0.7994   -1.4065 H   0  0  0  0  0  0  0  0  0  0  0  0
   -1.4148    2.2017    0.1959 C   0  0  0  0  0  0  0  0  0  0  0  0
   -2.3139    1.7945    0.6578 H   0  0  0  0  0  0  0  0  0  0  0  0
   -0.8045    2.6652    0.9709 H   0  0  0  0  0  0  0  0  0  0  0  0
   -1.8417    3.2865   -0.7928 C   0  0  0  0  0  0  0  0  0  0  0  0
   -1.5130    3.2911   -1.9644 O   0  0  0  0  0  0  0  0  0  0  0  0
   -2.6102    4.2618   -0.3587 N   0  0  0  0  0  0  0  0  0  0  0  0
   -2.8611    4.9464   -1.0506 H   0  0  0  0  0  0  0  0  0  0  0  0
   -2.9116    4.3048    0.5937 H   0  0  0  0  0  0  0  0  0  0  0  0
   -0.0637    0.1284    1.8555 C   0  0  0  0  0  0  0  0  0  0  0  0
    1.0918   -0.0745    2.2236 O   0  0  0  0  0  0  0  0  0  0  0  0
   -1.0024    0.6217    2.6735 N   0  0  0  0  0  0  0  0  0  0  0  0
   -1.9213    0.7848    2.2938 H   0  0  0  0  0  0  0  0  0  0  0  0
   -0.7639    0.9676    4.0741 C   0  0  0  0  0  0  0  0  0  0  0  0
    0.0520    1.6916    4.1400 H   0  0  0  0  0  0  0  0  0  0  0  0
   -1.6626    1.3984    4.5182 H   0  0  0  0  0  0  0  0  0  0  0  0
   -0.4775    0.0737    4.6309 H   0  0  0  0  0  0  0  0  0  0  0  0
  5  6  2  0  0  0  0
  5  7  1  0  0  0  0
  2  3  1  0  0  0  0
  2  4  1  0  0  0  0
  2  5  1  0  0  0  0
  1  2  1  0  0  0  0
 22 23  2  0  0  0  0
 22 24  1  0  0  0  0
 19 20  1  0  0  0  0
 19 21  1  0  0  0  0
 17 18  2  0  0  0  0
 17 19  1  0  0  0  0
 14 15  1  0  0  0  0
 14 16  1  0  0  0  0
 14 17  1  0  0  0  0
 11 12  1  0  0  0  0
 11 13  1  0  0  0  0
 11 14  1  0  0  0  0
  9 10  1  0  0  0  0
  9 11  1  0  0  0  0
  9 22  1  0  0  0  0
  7  8  1  0  0  0  0
  7  9  1  0  0  0  0
 26 27  1  0  0  0  0
 26 28  1  0  0  0  0
 26 29  1  0  0  0  0
 24 25  1  0  0  0  0
 24 26  1  0  0  0  0
M  END
$$$$
default_name
  -OEChem-02102213163D

 29 28  0     1  0  0  0  0  0999 V2000
   -3.3998   -3.6239    1.3678 H   0  0  0  0  0  0  0  0  0  0  0  0
   -3.3608   -2.6749    0.8348 C   0  0  0  0  0  0  0  0  0  0  0  0
   -4.0988   -1.9909    1.2498 H   0  0  0  0  0  0  0  0  0  0  0  0
   -3.5618   -2.8419   -0.2222 H   0  0  0  0  0  0  0  0  0  0  0  0
   -1.9818   -2.0809    0.9918 C   0  0  0  0  0  0  0  0  0  0  0  0
   -1.1288   -2.6669    1.6468 O   0  0  0  0  0  0  0  0  0  0  0  0
   -1.7648   -0.9089    0.3998 N   0  0  0  0  0  0  0  0  0  0  0  0
   -2.5238   -0.4719   -0.1032 H   0  0  0  0  0  0  0  0  0  0  0  0
   -0.4848   -0.1959    0.4138 C   0  0  1  0  0  0  0  0  0  0  0  0
    0.2783   -0.8411   -0.0248 H   0  0  0  0  0  0  0  0  0  0  0  0
   -0.6101    1.0666   -0.4611 C   0  0  0  0  0  0  0  0  0  0  0  0
    0.3945    1.4367   -0.6759 H   0  0  0  0  0  0  0  0  0  0  0  0
   -1.0846    0.7994   -1.4065 H   0  0  0  0  0  0  0  0  0  0  0  0
   -1.4148    2.2017    0.1959 C   0  0  0  0  0  0  0  0  0  0  0  0
   -2.1567    1.7808    0.8742 H   0  0  0  0  0  0  0  0  0  0  0  0
   -0.7348    2.8307    0.7704 H   0  0  0  0  0  0  0  0  0  0  0  0
   -2.1465    3.0837   -0.8157 C   0  0  0  0  0  0  0  0  0  0  0  0
   -2.0413    2.9490   -2.0204 O   0  0  0  0  0  0  0  0  0  0  0  0
   -2.9370    4.0324   -0.3626 N   0  0  0  0  0  0  0  0  0  0  0  0
   -3.3932    4.5809   -1.0708 H   0  0  0  0  0  0  0  0  0  0  0  0
   -3.0616    4.1845    0.6178 H   0  0  0  0  0  0  0  0  0  0  0  0
   -0.0637    0.1284    1.8555 C   0  0  0  0  0  0  0  0  0  0  0  0
    1.0918   -0.0745    2.2236 O   0  0  0  0  0  0  0  0  0  0  0  0
   -1.0024    0.6217    2.6735 N   0  0  0  0  0  0  0  0  0  0  0  0
   -1.9213    0.7848    2.2938 H   0  0  0  0  0  0  0  0  0  0  0  0
   -0.7639    0.9676    4.0741 C   0  0  0  0  0  0  0  0  0  0  0  0
    0.0520    1.6916    4.1400 H   0  0  0  0  0  0  0  0  0  0  0  0
   -1.6626    1.3984    4.5182 H   0  0  0  0  0  0  0  0  0  0  0  0
   -0.4775    0.0737    4.6309 H   0  0  0  0  0  0  0  0  0  0  0  0
  5  6  2  0  0  0  0
  5  7  1  0  0  0  0
  2  3  1  0  0  0  0
  2  4  1  0  0  0  0
  2  5  1  0  0  0  0
  1  2  1  0  0  0  0
 22 23  2  0  0  0  0
 22 24  1  0  0  0  0
 19 20  1  0  0  0  0
 19 21  1  0  0  0  0
 17 18  2  0  0  0  0
 17 19  1  0  0  0  0
 14 15  1  0  0  0  0
 14 16  1  0  0  0  0
 14 17  1  0  0  0  0
 11 12  1  0  0  0  0
 11 13  1  0  0  0  0
 11 14  1  0  0  0  0
  9 10  1  0  0  0  0
  9 11  1  0  0  0  0
  9 22  1  0  0  0  0
  7  8  1  0  0  0  0
  7  9  1  0  0  0  0
 26 27  1  0  0  0  0
 26 28  1  0  0  0  0
 26 29  1  0  0  0  0
 24 25  1  0  0  0  0
 24 26  1  0  0  0  0
M  END
$$$$
default_name
  -OEChem-02102213163D

 29 28  0     1  0  0  0  0  0999 V2000
   -3.3998   -3.6239    1.3678 H   0  0  0  0  0  0  0  0  0  0  0  0
   -3.3608   -2.6749    0.8348 C   0  0  0  0  0  0  0  0  0  0  0  0
   -4.0988   -1.9909    1.2498 H   0  0  0  0  0  0  0  0  0  0  0  0
   -3.5618   -2.8419   -0.2222 H   0  0  0  0  0  0  0  0  0  0  0  0
   -1.9818   -2.0809    0.9918 C   0  0  0  0  0  0  0  0  0  0  0  0
   -1.1288   -2.6669    1.6468 O   0  0  0  0  0  0  0  0  0  0  0  0
   -1.7648   -0.9089    0.3998 N   0  0  0  0  0  0  0  0  0  0  0  0
   -2.5238   -0.4719   -0.1032 H   0  0  0  0  0  0  0  0  0  0  0  0
   -0.4848   -0.1959    0.4138 C   0  0  1  0  0  0  0  0  0  0  0  0
    0.2783   -0.8411   -0.0248 H   0  0  0  0  0  0  0  0  0  0  0  0
   -0.6101    1.0666   -0.4611 C   0  0  0  0  0  0  0  0  0  0  0  0
    0.3945    1.4367   -0.6759 H   0  0  0  0  0  0  0  0  0  0  0  0
   -1.0846    0.7994   -1.4065 H   0  0  0  0  0  0  0  0  0  0  0  0
   -1.4148    2.2017    0.1959 C   0  0  0  0  0  0  0  0  0  0  0  0
   -1.9619    1.8142    1.0550 H   0  0  0  0  0  0  0  0  0  0  0  0
   -0.7241    2.9710    0.5410 H   0  0  0  0  0  0  0  0  0  0  0  0
   -2.4229    2.8509   -0.7521 C   0  0  0  0  0  0  0  0  0  0  0  0
   -2.5245    2.5526   -1.9274 O   0  0  0  0  0  0  0  0  0  0  0  0
   -3.2281    3.7742   -0.2729 N   0  0  0  0  0  0  0  0  0  0  0  0
   -3.8706    4.1663   -0.9392 H   0  0  0  0  0  0  0  0  0  0  0  0
   -3.1887    4.0550    0.6859 H   0  0  0  0  0  0  0  0  0  0  0  0
   -0.0637    0.1284    1.8555 C   0  0  0  0  0  0  0  0  0  0  0  0
    1.0918   -0.0745    2.2236 O   0  0  0  0  0  0  0  0  0  0  0  0
   -1.0024    0.6217    2.6735 N   0  0  0  0  0  0  0  0  0  0  0  0
   -1.9213    0.7848    2.2938 H   0  0  0  0  0  0  0  0  0  0  0  0
   -0.7639    0.9676    4.0741 C   0  0  0  0  0  0  0  0  0  0  0  0
    0.0520    1.6916    4.1400 H   0  0  0  0  0  0  0  0  0  0  0  0
   -1.6626    1.3984    4.5182 H   0  0  0  0  0  0  0  0  0  0  0  0
   -0.4775    0.0737    4.6309 H   0  0  0  0  0  0  0  0  0  0  0  0
  5  6  2  0  0  0  0
  5  7  1  0  0  0  0
  2  3  1  0  0  0  0
  2  4  1  0  0  0  0
  2  5  1  0  0  0  0
  1  2  1  0  0  0  0
 22 23  2  0  0  0  0
 22 24  1  0  0  0  0
 19 20  1  0  0  0  0
 19 21  1  0  0  0  0
 17 18  2  0  0  0  0
 17 19  1  0  0  0  0
 14 15  1  0  0  0  0
 14 16  1  0  0  0  0
 14 17  1  0  0  0  0
 11 12  1  0  0  0  0
 11 13  1  0  0  0  0
 11 14  1  0  0  0  0
  9 10  1  0  0  0  0
  9 11  1  0  0  0  0
  9 22  1  0  0  0  0
  7  8  1  0  0  0  0
  7  9  1  0  0  0  0
 26 27  1  0  0  0  0
 26 28  1  0  0  0  0
 26 29  1  0  0  0  0
 24 25  1  0  0  0  0
 24 26  1  0  0  0  0
M  END
$$$$
default_name
  -OEChem-02102213163D

 29 28  0     1  0  0  0  0  0999 V2000
   -3.3998   -3.6239    1.3678 H   0  0  0  0  0  0  0  0  0  0  0  0
   -3.3608   -2.6749    0.8348 C   0  0  0  0  0  0  0  0  0  0  0  0
   -4.0988   -1.9909    1.2498 H   0  0  0  0  0  0  0  0  0  0  0  0
   -3.5618   -2.8419   -0.2222 H   0  0  0  0  0  0  0  0  0  0  0  0
   -1.9818   -2.0809    0.9918 C   0  0  0  0  0  0  0  0  0  0  0  0
   -1.1288   -2.6669    1.6468 O   0  0  0  0  0  0  0  0  0  0  0  0
   -1.7648   -0.9089    0.3998 N   0  0  0  0  0  0  0  0  0  0  0  0
   -2.5238   -0.4719   -0.1032 H   0  0  0  0  0  0  0  0  0  0  0  0
   -0.4848   -0.1959    0.4138 C   0  0  1  0  0  0  0  0  0  0  0  0
    0.2783   -0.8411   -0.0248 H   0  0  0  0  0  0  0  0  0  0  0  0
   -0.6101    1.0666   -0.4611 C   0  0  0  0  0  0  0  0  0  0  0  0
    0.3945    1.4367   -0.6759 H   0  0  0  0  0  0  0  0  0  0  0  0
   -1.0846    0.7994   -1.4065 H   0  0  0  0  0  0  0  0  0  0  0  0
   -1.4148    2.2017    0.1959 C   0  0  0  0  0  0  0  0  0  0  0  0
   -1.7429    1.8924    1.1880 H   0  0  0  0  0  0  0  0  0  0  0  0
   -0.7731    3.0767    0.2984 H   0  0  0  0  0  0  0  0  0  0  0  0
   -2.6521    2.6042   -0.6065 C   0  0  0  0  0  0  0  0  0  0  0  0
   -2.9297    2.1290   -1.6917 O   0  0  0  0  0  0  0  0  0  0  0  0
   -3.4636    3.5047   -0.0958 N   0  0  0  0  0  0  0  0  0  0  0  0
   -4.2608    3.7308   -0.6648 H   0  0  0  0  0  0  0  0  0  0  0  0
   -3.2841    3.9251    0.7935 H   0  0  0  0  0  0  0  0  0  0  0  0
   -0.0637    0.1284    1.8555 C   0  0  0  0  0  0  0  0  0  0  0  0
    1.0918   -0.0745    2.2236 O   0  0  0  0  0  0  0  0  0  0  0  0
   -1.0024    0.6217    2.6735 N   0  0  0  0  0  0  0  0  0  0  0  0
   -1.9213    0.7848    2.2938 H   0  0  0  0  0  0  0  0  0  0  0  0
   -0.7639    0.9676    4.0741 C   0  0  0  0  0  0  0  0  0  0  0  0
    0.0520    1.6916    4.1400 H   0  0  0  0  0  0  0  0  0  0  0  0
   -1.6626    1.3984    4.5182 H   0  0  0  0  0  0  0  0  0  0  0  0
   -0.4775    0.0737    4.6309 H   0  0  0  0  0  0  0  0  0  0  0  0
  5  6  2  0  0  0  0
  5  7  1  0  0  0  0
  2  3  1  0  0  0  0
  2  4  1  0  0  0  0
  2  5  1  0  0  0  0
  1  2  1  0  0  0  0
 22 23  2  0  0  0  0
 22 24  1  0  0  0  0
 19 20  1  0  0  0  0
 19 21  1  0  0  0  0
 17 18  2  0  0  0  0
 17 19  1  0  0  0  0
 14 15  1  0  0  0  0
 14 16  1  0  0  0  0
 14 17  1  0  0  0  0
 11 12  1  0  0  0  0
 11 13  1  0  0  0  0
 11 14  1  0  0  0  0
  9 10  1  0  0  0  0
  9 11  1  0  0  0  0
  9 22  1  0  0  0  0
  7  8  1  0  0  0  0
  7  9  1  0  0  0  0
 26 27  1  0  0  0  0
 26 28  1  0  0  0  0
 26 29  1  0  0  0  0
 24 25  1  0  0  0  0
 24 26  1  0  0  0  0
M  END
$$$$
default_name
  -OEChem-02102213163D

 29 28  0     1  0  0  0  0  0999 V2000
   -3.3998   -3.6239    1.3678 H   0  0  0  0  0  0  0  0  0  0  0  0
   -3.3608   -2.6749    0.8348 C   0  0  0  0  0  0  0  0  0  0  0  0
   -4.0988   -1.9909    1.2498 H   0  0  0  0  0  0  0  0  0  0  0  0
   -3.5618   -2.8419   -0.2222 H   0  0  0  0  0  0  0  0  0  0  0  0
   -1.9818   -2.0809    0.9918 C   0  0  0  0  0  0  0  0  0  0  0  0
   -1.1288   -2.6669    1.6468 O   0  0  0  0  0  0  0  0  0  0  0  0
   -1.7648   -0.9089    0.3998 N   0  0  0  0  0  0  0  0  0  0  0  0
   -2.5238   -0.4719   -0.1032 H   0  0  0  0  0  0  0  0  0  0  0  0
   -0.4848   -0.1959    0.4138 C   0  0  1  0  0  0  0  0  0  0  0  0
    0.2783   -0.8411   -0.0248 H   0  0  0  0  0  0  0  0  0  0  0  0
   -0.6101    1.0666   -0.4611 C   0  0  0  0  0  0  0  0  0  0  0  0
    0.3945    1.4367   -0.6759 H   0  0  0  0  0  0  0  0  0  0  0  0
   -1.0846    0.7994   -1.4065 H   0  0  0  0  0  0  0  0  0  0  0  0
   -1.4148    2.2017    0.1959 C   0  0  0  0  0  0  0  0  0  0  0  0
   -1.5147    2.0102    1.2640 H   0  0  0  0  0  0  0  0  0  0  0  0
   -0.8784    3.1406    0.0591 H   0  0  0  0  0  0  0  0  0  0  0  0
   -2.8183    2.3603   -0.3886 C   0  0  0  0  0  0  0  0  0  0  0  0
   -3.2292    1.7069   -1.3292 O   0  0  0  0  0  0  0  0  0  0  0  0
   -3.6274    3.2424    0.1567 N   0  0  0  0  0  0  0  0  0  0  0  0
   -4.5372    3.3043   -0.2663 H   0  0  0  0  0  0  0  0  0  0  0  0
   -3.3414    3.8036    0.9332 H   0  0  0  0  0  0  0  0  0  0  0  0
   -0.0637    0.1284    1.8555 C   0  0  0  0  0  0  0  0  0  0  0  0
    1.0918   -0.0745    2.2236 O   0  0  0  0  0  0  0  0  0  0  0  0
   -1.0024    0.6217    2.6735 N   0  0  0  0  0  0  0  0  0  0  0  0
   -1.9213    0.7848    2.2938 H   0  0  0  0  0  0  0  0  0  0  0  0
   -0.7639    0.9676    4.0741 C   0  0  0  0  0  0  0  0  0  0  0  0
    0.0520    1.6916    4.1400 H   0  0  0  0  0  0  0  0  0  0  0  0
   -1.6626    1.3984    4.5182 H   0  0  0  0  0  0  0  0  0  0  0  0
   -0.4775    0.0737    4.6309 H   0  0  0  0  0  0  0  0  0  0  0  0
  5  6  2  0  0  0  0
  5  7  1  0  0  0  0
  2  3  1  0  0  0  0
  2  4  1  0  0  0  0
  2  5  1  0  0  0  0
  1  2  1  0  0  0  0
 22 23  2  0  0  0  0
 22 24  1  0  0  0  0
 19 20  1  0  0  0  0
 19 21  1  0  0  0  0
 17 18  2  0  0  0  0
 17 19  1  0  0  0  0
 14 15  1  0  0  0  0
 14 16  1  0  0  0  0
 14 17  1  0  0  0  0
 11 12  1  0  0  0  0
 11 13  1  0  0  0  0
 11 14  1  0  0  0  0
  9 10  1  0  0  0  0
  9 11  1  0  0  0  0
  9 22  1  0  0  0  0
  7  8  1  0  0  0  0
  7  9  1  0  0  0  0
 26 27  1  0  0  0  0
 26 28  1  0  0  0  0
 26 29  1  0  0  0  0
 24 25  1  0  0  0  0
 24 26  1  0  0  0  0
M  END
$$$$
default_name
  -OEChem-02102213163D

 29 28  0     1  0  0  0  0  0999 V2000
   -3.3998   -3.6239    1.3678 H   0  0  0  0  0  0  0  0  0  0  0  0
   -3.3608   -2.6749    0.8348 C   0  0  0  0  0  0  0  0  0  0  0  0
   -4.0988   -1.9909    1.2498 H   0  0  0  0  0  0  0  0  0  0  0  0
   -3.5618   -2.8419   -0.2222 H   0  0  0  0  0  0  0  0  0  0  0  0
   -1.9818   -2.0809    0.9918 C   0  0  0  0  0  0  0  0  0  0  0  0
   -1.1288   -2.6669    1.6468 O   0  0  0  0  0  0  0  0  0  0  0  0
   -1.7648   -0.9089    0.3998 N   0  0  0  0  0  0  0  0  0  0  0  0
   -2.5238   -0.4719   -0.1032 H   0  0  0  0  0  0  0  0  0  0  0  0
   -0.4848   -0.1959    0.4138 C   0  0  1  0  0  0  0  0  0  0  0  0
    0.2783   -0.8411   -0.0248 H   0  0  0  0  0  0  0  0  0  0  0  0
   -0.6101    1.0666   -0.4611 C   0  0  0  0  0  0  0  0  0  0  0  0
    0.3945    1.4367   -0.6759 H   0  0  0  0  0  0  0  0  0  0  0  0
   -1.0846    0.7994   -1.4065 H   0  0  0  0  0  0  0  0  0  0  0  0
   -1.4148    2.2017    0.1959 C   0  0  0  0  0  0  0  0  0  0  0  0
   -1.2927    2.1595    1.2780 H   0  0  0  0  0  0  0  0  0  0  0  0
   -1.0328    3.1583   -0.1606 H   0  0  0  0  0  0  0  0  0  0  0  0
   -2.9103    2.1358   -0.1134 C   0  0  0  0  0  0  0  0  0  0  0  0
   -3.4027    1.3151   -0.8648 O   0  0  0  0  0  0  0  0  0  0  0  0
   -3.7085    3.0051    0.4675 N   0  0  0  0  0  0  0  0  0  0  0  0
   -4.6810    2.9156    0.2291 H   0  0  0  0  0  0  0  0  0  0  0  0
   -3.3566    3.6988    1.0956 H   0  0  0  0  0  0  0  0  0  0  0  0
   -0.0637    0.1284    1.8555 C   0  0  0  0  0  0  0  0  0  0  0  0
    1.0918   -0.0745    2.2236 O   0  0  0  0  0  0  0  0  0  0  0  0
   -1.0024    0.6217    2.6735 N   0  0  0  0  0  0  0  0  0  0  0  0
   -1.9213    0.7848    2.2938 H   0  0  0  0  0  0  0  0  0  0  0  0
   -0.7639    0.9676    4.0741 C   0  0  0  0  0  0  0  0  0  0  0  0
    0.0520    1.6916    4.1400 H   0  0  0  0  0  0  0  0  0  0  0  0
   -1.6626    1.3984    4.5182 H   0  0  0  0  0  0  0  0  0  0  0  0
   -0.4775    0.0737    4.6309 H   0  0  0  0  0  0  0  0  0  0  0  0
  5  6  2  0  0  0  0
  5  7  1  0  0  0  0
  2  3  1  0  0  0  0
  2  4  1  0  0  0  0
  2  5  1  0  0  0  0
  1  2  1  0  0  0  0
 22 23  2  0  0  0  0
 22 24  1  0  0  0  0
 19 20  1  0  0  0  0
 19 21  1  0  0  0  0
 17 18  2  0  0  0  0
 17 19  1  0  0  0  0
 14 15  1  0  0  0  0
 14 16  1  0  0  0  0
 14 17  1  0  0  0  0
 11 12  1  0  0  0  0
 11 13  1  0  0  0  0
 11 14  1  0  0  0  0
  9 10  1  0  0  0  0
  9 11  1  0  0  0  0
  9 22  1  0  0  0  0
  7  8  1  0  0  0  0
  7  9  1  0  0  0  0
 26 27  1  0  0  0  0
 26 28  1  0  0  0  0
 26 29  1  0  0  0  0
 24 25  1  0  0  0  0
 24 26  1  0  0  0  0
M  END
$$$$
default_name
  -OEChem-02102213163D

 29 28  0     1  0  0  0  0  0999 V2000
   -3.3998   -3.6239    1.3678 H   0  0  0  0  0  0  0  0  0  0  0  0
   -3.3608   -2.6749    0.8348 C   0  0  0  0  0  0  0  0  0  0  0  0
   -4.0988   -1.9909    1.2498 H   0  0  0  0  0  0  0  0  0  0  0  0
   -3.5618   -2.8419   -0.2222 H   0  0  0  0  0  0  0  0  0  0  0  0
   -1.9818   -2.0809    0.9918 C   0  0  0  0  0  0  0  0  0  0  0  0
   -1.1288   -2.6669    1.6468 O   0  0  0  0  0  0  0  0  0  0  0  0
   -1.7648   -0.9089    0.3998 N   0  0  0  0  0  0  0  0  0  0  0  0
   -2.5238   -0.4719   -0.1032 H   0  0  0  0  0  0  0  0  0  0  0  0
   -0.4848   -0.1959    0.4138 C   0  0  1  0  0  0  0  0  0  0  0  0
    0.2783   -0.8411   -0.0248 H   0  0  0  0  0  0  0  0  0  0  0  0
   -0.6101    1.0666   -0.4611 C   0  0  0  0  0  0  0  0  0  0  0  0
    0.3945    1.4367   -0.6759 H   0  0  0  0  0  0  0  0  0  0  0  0
   -1.0846    0.7994   -1.4065 H   0  0  0  0  0  0  0  0  0  0  0  0
   -1.4148    2.2017    0.1959 C   0  0  0  0  0  0  0  0  0  0  0  0
   -1.0921    2.3301    1.2288 H   0  0  0  0  0  0  0  0  0  0  0  0
   -1.2259    3.1285   -0.3457 H   0  0  0  0  0  0  0  0  0  0  0  0
   -2.9218    1.9460    0.2003 C   0  0  0  0  0  0  0  0  0  0  0  0
   -3.4383    0.9804   -0.3301 O   0  0  0  0  0  0  0  0  0  0  0  0
   -3.7013    2.8089    0.8152 N   0  0  0  0  0  0  0  0  0  0  0  0
   -4.6823    2.5914    0.7877 H   0  0  0  0  0  0  0  0  0  0  0  0
   -3.3287    3.6180    1.2695 H   0  0  0  0  0  0  0  0  0  0  0  0
   -0.0637    0.1284    1.8555 C   0  0  0  0  0  0  0  0  0  0  0  0
    1.0918   -0.0745    2.2236 O   0  0  0  0  0  0  0  0  0  0  0  0
   -1.0024    0.6217    2.6735 N   0  0  0  0  0  0  0  0  0  0  0  0
   -1.9213    0.7848    2.2938 H   0  0  0  0  0  0  0  0  0  0  0  0
   -0.7639    0.9676    4.0741 C   0  0  0  0  0  0  0  0  0  0  0  0
    0.0520    1.6916    4.1400 H   0  0  0  0  0  0  0  0  0  0  0  0
   -1.6626    1.3984    4.5182 H   0  0  0  0  0  0  0  0  0  0  0  0
   -0.4775    0.0737    4.6309 H   0  0  0  0  0  0  0  0  0  0  0  0
  5  6  2  0  0  0  0
  5  7  1  0  0  0  0
  2  3  1  0  0  0  0
  2  4  1  0  0  0  0
  2  5  1  0  0  0  0
  1  2  1  0  0  0  0
 22 23  2  0  0  0  0
 22 24  1  0  0  0  0
 19 20  1  0  0  0  0
 19 21  1  0  0  0  0
 17 18  2  0  0  0  0
 17 19  1  0  0  0  0
 14 15  1  0  0  0  0
 14 16  1  0  0  0  0
 14 17  1  0  0  0  0
 11 12  1  0  0  0  0
 11 13  1  0  0  0  0
 11 14  1  0  0  0  0
  9 10  1  0  0  0  0
  9 11  1  0  0  0  0
  9 22  1  0  0  0  0
  7  8  1  0  0  0  0
  7  9  1  0  0  0  0
 26 27  1  0  0  0  0
 26 28  1  0  0  0  0
 26 29  1  0  0  0  0
 24 25  1  0  0  0  0
 24 26  1  0  0  0  0
M  END
$$$$
default_name
  -OEChem-02102213163D

 29 28  0     1  0  0  0  0  0999 V2000
   -3.3998   -3.6239    1.3678 H   0  0  0  0  0  0  0  0  0  0  0  0
   -3.3608   -2.6749    0.8348 C   0  0  0  0  0  0  0  0  0  0  0  0
   -4.0988   -1.9909    1.2498 H   0  0  0  0  0  0  0  0  0  0  0  0
   -3.5618   -2.8419   -0.2222 H   0  0  0  0  0  0  0  0  0  0  0  0
   -1.9818   -2.0809    0.9918 C   0  0  0  0  0  0  0  0  0  0  0  0
   -1.1288   -2.6669    1.6468 O   0  0  0  0  0  0  0  0  0  0  0  0
   -1.7648   -0.9089    0.3998 N   0  0  0  0  0  0  0  0  0  0  0  0
   -2.5238   -0.4719   -0.1032 H   0  0  0  0  0  0  0  0  0  0  0  0
   -0.4848   -0.1959    0.4138 C   0  0  1  0  0  0  0  0  0  0  0  0
    0.2783   -0.8411   -0.0248 H   0  0  0  0  0  0  0  0  0  0  0  0
   -0.6101    1.0666   -0.4611 C   0  0  0  0  0  0  0  0  0  0  0  0
    0.3945    1.4367   -0.6759 H   0  0  0  0  0  0  0  0  0  0  0  0
   -1.0846    0.7994   -1.4065 H   0  0  0  0  0  0  0  0  0  0  0  0
   -1.4148    2.2017    0.1959 C   0  0  0  0  0  0  0  0  0  0  0  0
   -0.9266    2.5104    1.1200 H   0  0  0  0  0  0  0  0  0  0  0  0
   -1.4445    3.0534   -0.4836 H   0  0  0  0  0  0  0  0  0  0  0  0
   -2.8521    1.8039    0.5313 C   0  0  0  0  0  0  0  0  0  0  0  0
   -3.3336    0.7255    0.2385 O   0  0  0  0  0  0  0  0  0  0  0  0
   -3.6062    2.6674    1.1762 N   0  0  0  0  0  0  0  0  0  0  0  0
   -4.5411    2.3536    1.3714 H   0  0  0  0  0  0  0  0  0  0  0  0
   -3.2596    3.5664    1.4431 H   0  0  0  0  0  0  0  0  0  0  0  0
   -0.0637    0.1284    1.8555 C   0  0  0  0  0  0  0  0  0  0  0  0
    1.0918   -0.0745    2.2236 O   0  0  0  0  0  0  0  0  0  0  0  0
   -1.0024    0.6217    2.6735 N   0  0  0  0  0  0  0  0  0  0  0  0
   -1.9213    0.7848    2.2938 H   0  0  0  0  0  0  0  0  0  0  0  0
   -0.7639    0.9676    4.0741 C   0  0  0  0  0  0  0  0  0  0  0  0
    0.0520    1.6916    4.1400 H   0  0  0  0  0  0  0  0  0  0  0  0
   -1.6626    1.3984    4.5182 H   0  0  0  0  0  0  0  0  0  0  0  0
   -0.4775    0.0737    4.6309 H   0  0  0  0  0  0  0  0  0  0  0  0
  5  6  2  0  0  0  0
  5  7  1  0  0  0  0
  2  3  1  0  0  0  0
  2  4  1  0  0  0  0
  2  5  1  0  0  0  0
  1  2  1  0  0  0  0
 22 23  2  0  0  0  0
 22 24  1  0  0  0  0
 19 20  1  0  0  0  0
 19 21  1  0  0  0  0
 17 18  2  0  0  0  0
 17 19  1  0  0  0  0
 14 15  1  0  0  0  0
 14 16  1  0  0  0  0
 14 17  1  0  0  0  0
 11 12  1  0  0  0  0
 11 13  1  0  0  0  0
 11 14  1  0  0  0  0
  9 10  1  0  0  0  0
  9 11  1  0  0  0  0
  9 22  1  0  0  0  0
  7  8  1  0  0  0  0
  7  9  1  0  0  0  0
 26 27  1  0  0  0  0
 26 28  1  0  0  0  0
 26 29  1  0  0  0  0
 24 25  1  0  0  0  0
 24 26  1  0  0  0  0
M  END
$$$$
default_name
  -OEChem-02102213163D

 29 28  0     1  0  0  0  0  0999 V2000
   -3.3998   -3.6239    1.3678 H   0  0  0  0  0  0  0  0  0  0  0  0
   -3.3608   -2.6749    0.8348 C   0  0  0  0  0  0  0  0  0  0  0  0
   -4.0988   -1.9909    1.2498 H   0  0  0  0  0  0  0  0  0  0  0  0
   -3.5618   -2.8419   -0.2222 H   0  0  0  0  0  0  0  0  0  0  0  0
   -1.9818   -2.0809    0.9918 C   0  0  0  0  0  0  0  0  0  0  0  0
   -1.1288   -2.6669    1.6468 O   0  0  0  0  0  0  0  0  0  0  0  0
   -1.7648   -0.9089    0.3998 N   0  0  0  0  0  0  0  0  0  0  0  0
   -2.5238   -0.4719   -0.1032 H   0  0  0  0  0  0  0  0  0  0  0  0
   -0.4848   -0.1959    0.4138 C   0  0  1  0  0  0  0  0  0  0  0  0
    0.2783   -0.8411   -0.0248 H   0  0  0  0  0  0  0  0  0  0  0  0
   -0.6101    1.0666   -0.4611 C   0  0  0  0  0  0  0  0  0  0  0  0
    0.3945    1.4367   -0.6759 H   0  0  0  0  0  0  0  0  0  0  0  0
   -1.0846    0.7994   -1.4065 H   0  0  0  0  0  0  0  0  0  0  0  0
   -1.4148    2.2017    0.1959 C   0  0  0  0  0  0  0  0  0  0  0  0
   -0.8075    2.6882    0.9589 H   0  0  0  0  0  0  0  0  0  0  0  0
   -1.6736    2.9380   -0.5649 H   0  0  0  0  0  0  0  0  0  0  0  0
   -2.7058    1.7192    0.8569 C   0  0  0  0  0  0  0  0  0  0  0  0
   -3.0957    0.5678    0.8022 O   0  0  0  0  0  0  0  0  0  0  0  0
   -3.4298    2.5900    1.5260 N   0  0  0  0  0  0  0  0  0  0  0  0
   -4.2670    2.2186    1.9404 H   0  0  0  0  0  0  0  0  0  0  0  0
   -3.1541    3.5478    1.6045 H   0  0  0  0  0  0  0  0  0  0  0  0
   -0.0637    0.1284    1.8555 C   0  0  0  0  0  0  0  0  0  0  0  0
    1.0918   -0.0745    2.2236 O   0  0  0  0  0  0  0  0  0  0  0  0
   -1.0024    0.6217    2.6735 N   0  0  0  0  0  0  0  0  0  0  0  0
   -1.9213    0.7848    2.2938 H   0  0  0  0  0  0  0  0  0  0  0  0
   -0.7639    0.9676    4.0741 C   0  0  0  0  0  0  0  0  0  0  0  0
    0.0520    1.6916    4.1400 H   0  0  0  0  0  0  0  0  0  0  0  0
   -1.6626    1.3984    4.5182 H   0  0  0  0  0  0  0  0  0  0  0  0
   -0.4775    0.0737    4.6309 H   0  0  0  0  0  0  0  0  0  0  0  0
  5  6  2  0  0  0  0
  5  7  1  0  0  0  0
  2  3  1  0  0  0  0
  2  4  1  0  0  0  0
  2  5  1  0  0  0  0
  1  2  1  0  0  0  0
 22 23  2  0  0  0  0
 22 24  1  0  0  0  0
 19 20  1  0  0  0  0
 19 21  1  0  0  0  0
 17 18  2  0  0  0  0
 17 19  1  0  0  0  0
 14 15  1  0  0  0  0
 14 16  1  0  0  0  0
 14 17  1  0  0  0  0
 11 12  1  0  0  0  0
 11 13  1  0  0  0  0
 11 14  1  0  0  0  0
  9 10  1  0  0  0  0
  9 11  1  0  0  0  0
  9 22  1  0  0  0  0
  7  8  1  0  0  0  0
  7  9  1  0  0  0  0
 26 27  1  0  0  0  0
 26 28  1  0  0  0  0
 26 29  1  0  0  0  0
 24 25  1  0  0  0  0
 24 26  1  0  0  0  0
M  END
$$$$
default_name
  -OEChem-02102213163D

 29 28  0     1  0  0  0  0  0999 V2000
   -3.3998   -3.6239    1.3678 H   0  0  0  0  0  0  0  0  0  0  0  0
   -3.3608   -2.6749    0.8348 C   0  0  0  0  0  0  0  0  0  0  0  0
   -4.0988   -1.9909    1.2498 H   0  0  0  0  0  0  0  0  0  0  0  0
   -3.5618   -2.8419   -0.2222 H   0  0  0  0  0  0  0  0  0  0  0  0
   -1.9818   -2.0809    0.9918 C   0  0  0  0  0  0  0  0  0  0  0  0
   -1.1288   -2.6669    1.6468 O   0  0  0  0  0  0  0  0  0  0  0  0
   -1.7648   -0.9089    0.3998 N   0  0  0  0  0  0  0  0  0  0  0  0
   -2.5238   -0.4719   -0.1032 H   0  0  0  0  0  0  0  0  0  0  0  0
   -0.4848   -0.1959    0.4138 C   0  0  1  0  0  0  0  0  0  0  0  0
    0.2783   -0.8411   -0.0248 H   0  0  0  0  0  0  0  0  0  0  0  0
   -0.6101    1.0666   -0.4611 C   0  0  0  0  0  0  0  0  0  0  0  0
    0.3945    1.4367   -0.6759 H   0  0  0  0  0  0  0  0  0  0  0  0
   -1.0846    0.7994   -1.4065 H   0  0  0  0  0  0  0  0  0  0  0  0
   -1.4148    2.2017    0.1959 C   0  0  0  0  0  0  0  0  0  0  0  0
   -0.7428    2.8512    0.7564 H   0  0  0  0  0  0  0  0  0  0  0  0
   -1.8977    2.7903   -0.5841 H   0  0  0  0  0  0  0  0  0  0  0  0
   -2.4930    1.6975    1.1549 C   0  0  0  0  0  0  0  0  0  0  0  0
   -2.7409    0.5181    1.3227 O   0  0  0  0  0  0  0  0  0  0  0  0
   -3.1841    2.5821    1.8406 N   0  0  0  0  0  0  0  0  0  0  0  0
   -3.8786    2.1955    2.4560 H   0  0  0  0  0  0  0  0  0  0  0  0
   -3.0192    3.5634    1.7429 H   0  0  0  0  0  0  0  0  0  0  0  0
   -0.0637    0.1284    1.8555 C   0  0  0  0  0  0  0  0  0  0  0  0
    1.0918   -0.0745    2.2236 O   0  0  0  0  0  0  0  0  0  0  0  0
   -1.0024    0.6217    2.6735 N   0  0  0  0  0  0  0  0  0  0  0  0
   -1.9213    0.7848    2.2938 H   0  0  0  0  0  0  0  0  0  0  0  0
   -0.7639    0.9676    4.0741 C   0  0  0  0  0  0  0  0  0  0  0  0
    0.0520    1.6916    4.1400 H   0  0  0  0  0  0  0  0  0  0  0  0
   -1.6626    1.3984    4.5182 H   0  0  0  0  0  0  0  0  0  0  0  0
   -0.4775    0.0737    4.6309 H   0  0  0  0  0  0  0  0  0  0  0  0
  5  6  2  0  0  0  0
  5  7  1  0  0  0  0
  2  3  1  0  0  0  0
  2  4  1  0  0  0  0
  2  5  1  0  0  0  0
  1  2  1  0  0  0  0
 22 23  2  0  0  0  0
 22 24  1  0  0  0  0
 19 20  1  0  0  0  0
 19 21  1  0  0  0  0
 17 18  2  0  0  0  0
 17 19  1  0  0  0  0
 14 15  1  0  0  0  0
 14 16  1  0  0  0  0
 14 17  1  0  0  0  0
 11 12  1  0  0  0  0
 11 13  1  0  0  0  0
 11 14  1  0  0  0  0
  9 10  1  0  0  0  0
  9 11  1  0  0  0  0
  9 22  1  0  0  0  0
  7  8  1  0  0  0  0
  7  9  1  0  0  0  0
 26 27  1  0  0  0  0
 26 28  1  0  0  0  0
 26 29  1  0  0  0  0
 24 25  1  0  0  0  0
 24 26  1  0  0  0  0
M  END
$$$$
default_name
  -OEChem-02102213163D

 29 28  0     1  0  0  0  0  0999 V2000
   -3.3998   -3.6239    1.3678 H   0  0  0  0  0  0  0  0  0  0  0  0
   -3.3608   -2.6749    0.8348 C   0  0  0  0  0  0  0  0  0  0  0  0
   -4.0988   -1.9909    1.2498 H   0  0  0  0  0  0  0  0  0  0  0  0
   -3.5618   -2.8419   -0.2222 H   0  0  0  0  0  0  0  0  0  0  0  0
   -1.9818   -2.0809    0.9918 C   0  0  0  0  0  0  0  0  0  0  0  0
   -1.1288   -2.6669    1.6468 O   0  0  0  0  0  0  0  0  0  0  0  0
   -1.7648   -0.9089    0.3998 N   0  0  0  0  0  0  0  0  0  0  0  0
   -2.5238   -0.4719   -0.1032 H   0  0  0  0  0  0  0  0  0  0  0  0
   -0.4848   -0.1959    0.4138 C   0  0  1  0  0  0  0  0  0  0  0  0
    0.2783   -0.8411   -0.0248 H   0  0  0  0  0  0  0  0  0  0  0  0
   -0.6101    1.0666   -0.4611 C   0  0  0  0  0  0  0  0  0  0  0  0
    0.3945    1.4367   -0.6759 H   0  0  0  0  0  0  0  0  0  0  0  0
   -1.0846    0.7994   -1.4065 H   0  0  0  0  0  0  0  0  0  0  0  0
   -1.4148    2.2017    0.1959 C   0  0  0  0  0  0  0  0  0  0  0  0
   -0.7370    2.9884    0.5264 H   0  0  0  0  0  0  0  0  0  0  0  0
   -2.1015    2.6202   -0.5398 H   0  0  0  0  0  0  0  0  0  0  0  0
   -2.2282    1.7404    1.4051 C   0  0  0  0  0  0  0  0  0  0  0  0
   -2.2934    0.5797    1.7644 O   0  0  0  0  0  0  0  0  0  0  0  0
   -2.8858    2.6441    2.0987 N   0  0  0  0  0  0  0  0  0  0  0  0
   -3.4025    2.2859    2.8830 H   0  0  0  0  0  0  0  0  0  0  0  0
   -2.8643    3.6120    1.8486 H   0  0  0  0  0  0  0  0  0  0  0  0
   -0.0637    0.1284    1.8555 C   0  0  0  0  0  0  0  0  0  0  0  0
    1.0918   -0.0745    2.2236 O   0  0  0  0  0  0  0  0  0  0  0  0
   -1.0024    0.6217    2.6735 N   0  0  0  0  0  0  0  0  0  0  0  0
   -1.9213    0.7848    2.2938 H   0  0  0  0  0  0  0  0  0  0  0  0
   -0.7639    0.9676    4.0741 C   0  0  0  0  0  0  0  0  0  0  0  0
    0.0520    1.6916    4.1400 H   0  0  0  0  0  0  0  0  0  0  0  0
   -1.6626    1.3984    4.5182 H   0  0  0  0  0  0  0  0  0  0  0  0
   -0.4775    0.0737    4.6309 H   0  0  0  0  0  0  0  0  0  0  0  0
  5  6  2  0  0  0  0
  5  7  1  0  0  0  0
  2  3  1  0  0  0  0
  2  4  1  0  0  0  0
  2  5  1  0  0  0  0
  1  2  1  0  0  0  0
 22 23  2  0  0  0  0
 22 24  1  0  0  0  0
 19 20  1  0  0  0  0
 19 21  1  0  0  0  0
 17 18  2  0  0  0  0
 17 19  1  0  0  0  0
 14 15  1  0  0  0  0
 14 16  1  0  0  0  0
 14 17  1  0  0  0  0
 11 12  1  0  0  0  0
 11 13  1  0  0  0  0
 11 14  1  0  0  0  0
  9 10  1  0  0  0  0
  9 11  1  0  0  0  0
  9 22  1  0  0  0  0
  7  8  1  0  0  0  0
  7  9  1  0  0  0  0
 26 27  1  0  0  0  0
 26 28  1  0  0  0  0
 26 29  1  0  0  0  0
 24 25  1  0  0  0  0
 24 26  1  0  0  0  0
M  END
$$$$
default_name
  -OEChem-02102213163D

 29 28  0     1  0  0  0  0  0999 V2000
   -3.3998   -3.6239    1.3678 H   0  0  0  0  0  0  0  0  0  0  0  0
   -3.3608   -2.6749    0.8348 C   0  0  0  0  0  0  0  0  0  0  0  0
   -4.0988   -1.9909    1.2498 H   0  0  0  0  0  0  0  0  0  0  0  0
   -3.5618   -2.8419   -0.2222 H   0  0  0  0  0  0  0  0  0  0  0  0
   -1.9818   -2.0809    0.9918 C   0  0  0  0  0  0  0  0  0  0  0  0
   -1.1288   -2.6669    1.6468 O   0  0  0  0  0  0  0  0  0  0  0  0
   -1.7648   -0.9089    0.3998 N   0  0  0  0  0  0  0  0  0  0  0  0
   -2.5238   -0.4719   -0.1032 H   0  0  0  0  0  0  0  0  0  0  0  0
   -0.4848   -0.1959    0.4138 C   0  0  1  0  0  0  0  0  0  0  0  0
    0.2783   -0.8411   -0.0248 H   0  0  0  0  0  0  0  0  0  0  0  0
   -0.6101    1.0666   -0.4611 C   0  0  0  0  0  0  0  0  0  0  0  0
    0.3945    1.4367   -0.6759 H   0  0  0  0  0  0  0  0  0  0  0  0
   -1.0846    0.7994   -1.4065 H   0  0  0  0  0  0  0  0  0  0  0  0
   -1.4148    2.2017    0.1959 C   0  0  0  0  0  0  0  0  0  0  0  0
   -0.7904    3.0905    0.2846 H   0  0  0  0  0  0  0  0  0  0  0  0
   -2.2712    2.4393   -0.4351 H   0  0  0  0  0  0  0  0  0  0  0  0
   -1.9293    1.8451    1.5904 C   0  0  0  0  0  0  0  0  0  0  0  0
   -1.7835    0.7485    2.0972 O   0  0  0  0  0  0  0  0  0  0  0  0
   -2.5553    2.7720    2.2826 N   0  0  0  0  0  0  0  0  0  0  0  0
   -2.8711    2.4836    3.1923 H   0  0  0  0  0  0  0  0  0  0  0  0
   -2.6998    3.6904    1.9146 H   0  0  0  0  0  0  0  0  0  0  0  0
   -0.0637    0.1284    1.8555 C   0  0  0  0  0  0  0  0  0  0  0  0
    1.0918   -0.0745    2.2236 O   0  0  0  0  0  0  0  0  0  0  0  0
   -1.0024    0.6217    2.6735 N   0  0  0  0  0  0  0  0  0  0  0  0
   -1.9213    0.7848    2.2938 H   0  0  0  0  0  0  0  0  0  0  0  0
   -0.7639    0.9676    4.0741 C   0  0  0  0  0  0  0  0  0  0  0  0
    0.0520    1.6916    4.1400 H   0  0  0  0  0  0  0  0  0  0  0  0
   -1.6626    1.3984    4.5182 H   0  0  0  0  0  0  0  0  0  0  0  0
   -0.4775    0.0737    4.6309 H   0  0  0  0  0  0  0  0  0  0  0  0
  5  6  2  0  0  0  0
  5  7  1  0  0  0  0
  2  3  1  0  0  0  0
  2  4  1  0  0  0  0
  2  5  1  0  0  0  0
  1  2  1  0  0  0  0
 22 23  2  0  0  0  0
 22 24  1  0  0  0  0
 19 20  1  0  0  0  0
 19 21  1  0  0  0  0
 17 18  2  0  0  0  0
 17 19  1  0  0  0  0
 14 15  1  0  0  0  0
 14 16  1  0  0  0  0
 14 17  1  0  0  0  0
 11 12  1  0  0  0  0
 11 13  1  0  0  0  0
 11 14  1  0  0  0  0
  9 10  1  0  0  0  0
  9 11  1  0  0  0  0
  9 22  1  0  0  0  0
  7  8  1  0  0  0  0
  7  9  1  0  0  0  0
 26 27  1  0  0  0  0
 26 28  1  0  0  0  0
 26 29  1  0  0  0  0
 24 25  1  0  0  0  0
 24 26  1  0  0  0  0
M  END
$$$$
default_name
  -OEChem-02102213163D

 29 28  0     1  0  0  0  0  0999 V2000
   -3.3998   -3.6239    1.3678 H   0  0  0  0  0  0  0  0  0  0  0  0
   -3.3608   -2.6749    0.8348 C   0  0  0  0  0  0  0  0  0  0  0  0
   -4.0988   -1.9909    1.2498 H   0  0  0  0  0  0  0  0  0  0  0  0
   -3.5618   -2.8419   -0.2222 H   0  0  0  0  0  0  0  0  0  0  0  0
   -1.9818   -2.0809    0.9918 C   0  0  0  0  0  0  0  0  0  0  0  0
   -1.1288   -2.6669    1.6468 O   0  0  0  0  0  0  0  0  0  0  0  0
   -1.7648   -0.9089    0.3998 N   0  0  0  0  0  0  0  0  0  0  0  0
   -2.5238   -0.4719   -0.1032 H   0  0  0  0  0  0  0  0  0  0  0  0
   -0.4848   -0.1959    0.4138 C   0  0  1  0  0  0  0  0  0  0  0  0
    0.2783   -0.8411   -0.0248 H   0  0  0  0  0  0  0  0  0  0  0  0
   -0.6101    1.0666   -0.4611 C   0  0  0  0  0  0  0  0  0  0  0  0
    0.3945    1.4367   -0.6759 H   0  0  0  0  0  0  0  0  0  0  0  0
   -1.0846    0.7994   -1.4065 H   0  0  0  0  0  0  0  0  0  0  0  0
   -1.4148    2.2017    0.1959 C   0  0  0  0  0  0  0  0  0  0  0  0
   -0.8995    3.1505    0.0474 H   0  0  0  0  0  0  0  0  0  0  0  0
   -2.3950    2.2601   -0.2771 H   0  0  0  0  0  0  0  0  0  0  0  0
   -1.6168    2.0042    1.6981 C   0  0  0  0  0  0  0  0  0  0  0  0
   -1.2461    1.0129    2.2985 O   0  0  0  0  0  0  0  0  0  0  0  0
   -2.2150    2.9569    2.3798 N   0  0  0  0  0  0  0  0  0  0  0  0
   -2.3206    2.7751    3.3628 H   0  0  0  0  0  0  0  0  0  0  0  0
   -2.5370    3.7932    1.9363 H   0  0  0  0  0  0  0  0  0  0  0  0
   -0.0637    0.1284    1.8555 C   0  0  0  0  0  0  0  0  0  0  0  0
    1.0918   -0.0745    2.2236 O   0  0  0  0  0  0  0  0  0  0  0  0
   -1.0024    0.6217    2.6735 N   0  0  0  0  0  0  0  0  0  0  0  0
   -1.9213    0.7848    2.2938 H   0  0  0  0  0  0  0  0  0  0  0  0
   -0.7639    0.9676    4.0741 C   0  0  0  0  0  0  0  0  0  0  0  0
    0.0520    1.6916    4.1400 H   0  0  0  0  0  0  0  0  0  0  0  0
   -1.6626    1.3984    4.5182 H   0  0  0  0  0  0  0  0  0  0  0  0
   -0.4775    0.0737    4.6309 H   0  0  0  0  0  0  0  0  0  0  0  0
  5  6  2  0  0  0  0
  5  7  1  0  0  0  0
  2  3  1  0  0  0  0
  2  4  1  0  0  0  0
  2  5  1  0  0  0  0
  1  2  1  0  0  0  0
 22 23  2  0  0  0  0
 22 24  1  0  0  0  0
 19 20  1  0  0  0  0
 19 21  1  0  0  0  0
 17 18  2  0  0  0  0
 17 19  1  0  0  0  0
 14 15  1  0  0  0  0
 14 16  1  0  0  0  0
 14 17  1  0  0  0  0
 11 12  1  0  0  0  0
 11 13  1  0  0  0  0
 11 14  1  0  0  0  0
  9 10  1  0  0  0  0
  9 11  1  0  0  0  0
  9 22  1  0  0  0  0
  7  8  1  0  0  0  0
  7  9  1  0  0  0  0
 26 27  1  0  0  0  0
 26 28  1  0  0  0  0
 26 29  1  0  0  0  0
 24 25  1  0  0  0  0
 24 26  1  0  0  0  0
M  END
$$$$
default_name
  -OEChem-02102213163D

 29 28  0     1  0  0  0  0  0999 V2000
   -3.3998   -3.6239    1.3678 H   0  0  0  0  0  0  0  0  0  0  0  0
   -3.3608   -2.6749    0.8348 C   0  0  0  0  0  0  0  0  0  0  0  0
   -4.0988   -1.9909    1.2498 H   0  0  0  0  0  0  0  0  0  0  0  0
   -3.5618   -2.8419   -0.2222 H   0  0  0  0  0  0  0  0  0  0  0  0
   -1.9818   -2.0809    0.9918 C   0  0  0  0  0  0  0  0  0  0  0  0
   -1.1288   -2.6669    1.6468 O   0  0  0  0  0  0  0  0  0  0  0  0
   -1.7648   -0.9089    0.3998 N   0  0  0  0  0  0  0  0  0  0  0  0
   -2.5238   -0.4719   -0.1032 H   0  0  0  0  0  0  0  0  0  0  0  0
   -0.4848   -0.1959    0.4138 C   0  0  1  0  0  0  0  0  0  0  0  0
    0.2783   -0.8411   -0.0248 H   0  0  0  0  0  0  0  0  0  0  0  0
   -0.6101    1.0666   -0.4611 C   0  0  0  0  0  0  0  0  0  0  0  0
    0.3945    1.4367   -0.6759 H   0  0  0  0  0  0  0  0  0  0  0  0
   -1.0846    0.7994   -1.4065 H   0  0  0  0  0  0  0  0  0  0  0  0
   -1.4148    2.2017    0.1959 C   0  0  0  0  0  0  0  0  0  0  0  0
   -1.0568    3.1642   -0.1690 H   0  0  0  0  0  0  0  0  0  0  0  0
   -2.4647    2.0946   -0.0766 H   0  0  0  0  0  0  0  0  0  0  0  0
   -1.3120    2.2071    1.7210 C   0  0  0  0  0  0  0  0  0  0  0  0
   -0.7178    1.3550    2.3546 O   0  0  0  0  0  0  0  0  0  0  0  0
   -1.8882    3.1863    2.3837 N   0  0  0  0  0  0  0  0  0  0  0  0
   -1.7885    3.1406    3.3830 H   0  0  0  0  0  0  0  0  0  0  0  0
   -2.3869    3.9135    1.9123 H   0  0  0  0  0  0  0  0  0  0  0  0
   -0.0637    0.1284    1.8555 C   0  0  0  0  0  0  0  0  0  0  0  0
    1.0918   -0.0745    2.2236 O   0  0  0  0  0  0  0  0  0  0  0  0
   -1.0024    0.6217    2.6735 N   0  0  0  0  0  0  0  0  0  0  0  0
   -1.9213    0.7848    2.2938 H   0  0  0  0  0  0  0  0  0  0  0  0
   -0.7639    0.9676    4.0741 C   0  0  0  0  0  0  0  0  0  0  0  0
    0.0520    1.6916    4.1400 H   0  0  0  0  0  0  0  0  0  0  0  0
   -1.6626    1.3984    4.5182 H   0  0  0  0  0  0  0  0  0  0  0  0
   -0.4775    0.0737    4.6309 H   0  0  0  0  0  0  0  0  0  0  0  0
  5  6  2  0  0  0  0
  5  7  1  0  0  0  0
  2  3  1  0  0  0  0
  2  4  1  0  0  0  0
  2  5  1  0  0  0  0
  1  2  1  0  0  0  0
 22 23  2  0  0  0  0
 22 24  1  0  0  0  0
 19 20  1  0  0  0  0
 19 21  1  0  0  0  0
 17 18  2  0  0  0  0
 17 19  1  0  0  0  0
 14 15  1  0  0  0  0
 14 16  1  0  0  0  0
 14 17  1  0  0  0  0
 11 12  1  0  0  0  0
 11 13  1  0  0  0  0
 11 14  1  0  0  0  0
  9 10  1  0  0  0  0
  9 11  1  0  0  0  0
  9 22  1  0  0  0  0
  7  8  1  0  0  0  0
  7  9  1  0  0  0  0
 26 27  1  0  0  0  0
 26 28  1  0  0  0  0
 26 29  1  0  0  0  0
 24 25  1  0  0  0  0
 24 26  1  0  0  0  0
M  END
$$$$
default_name
  -OEChem-02102213163D

 29 28  0     1  0  0  0  0  0999 V2000
   -3.3998   -3.6239    1.3678 H   0  0  0  0  0  0  0  0  0  0  0  0
   -3.3608   -2.6749    0.8348 C   0  0  0  0  0  0  0  0  0  0  0  0
   -4.0988   -1.9909    1.2498 H   0  0  0  0  0  0  0  0  0  0  0  0
   -3.5618   -2.8419   -0.2222 H   0  0  0  0  0  0  0  0  0  0  0  0
   -1.9818   -2.0809    0.9918 C   0  0  0  0  0  0  0  0  0  0  0  0
   -1.1288   -2.6669    1.6468 O   0  0  0  0  0  0  0  0  0  0  0  0
   -1.7648   -0.9089    0.3998 N   0  0  0  0  0  0  0  0  0  0  0  0
   -2.5238   -0.4719   -0.1032 H   0  0  0  0  0  0  0  0  0  0  0  0
   -0.4848   -0.1959    0.4138 C   0  0  1  0  0  0  0  0  0  0  0  0
    0.2783   -0.8411   -0.0248 H   0  0  0  0  0  0  0  0  0  0  0  0
   -0.6101    1.0666   -0.4611 C   0  0  0  0  0  0  0  0  0  0  0  0
    0.3945    1.4367   -0.6759 H   0  0  0  0  0  0  0  0  0  0  0  0
   -1.0846    0.7994   -1.4065 H   0  0  0  0  0  0  0  0  0  0  0  0
   -1.4148    2.2017    0.1959 C   0  0  0  0  0  0  0  0  0  0  0  0
   -1.2516    3.1308   -0.3498 H   0  0  0  0  0  0  0  0  0  0  0  0
   -2.4754    1.9543    0.1528 H   0  0  0  0  0  0  0  0  0  0  0  0
   -1.0356    2.4398    1.6574 C   0  0  0  0  0  0  0  0  0  0  0  0
   -0.2346    1.7513    2.2616 O   0  0  0  0  0  0  0  0  0  0  0  0
   -1.5971    3.4445    2.2941 N   0  0  0  0  0  0  0  0  0  0  0  0
   -1.3110    3.5553    3.2514 H   0  0  0  0  0  0  0  0  0  0  0  0
   -2.2598    4.0430    1.8442 H   0  0  0  0  0  0  0  0  0  0  0  0
   -0.0637    0.1284    1.8555 C   0  0  0  0  0  0  0  0  0  0  0  0
    1.0918   -0.0745    2.2236 O   0  0  0  0  0  0  0  0  0  0  0  0
   -1.0024    0.6217    2.6735 N   0  0  0  0  0  0  0  0  0  0  0  0
   -1.9213    0.7848    2.2938 H   0  0  0  0  0  0  0  0  0  0  0  0
   -0.7639    0.9676    4.0741 C   0  0  0  0  0  0  0  0  0  0  0  0
    0.0520    1.6916    4.1400 H   0  0  0  0  0  0  0  0  0  0  0  0
   -1.6626    1.3984    4.5182 H   0  0  0  0  0  0  0  0  0  0  0  0
   -0.4775    0.0737    4.6309 H   0  0  0  0  0  0  0  0  0  0  0  0
  5  6  2  0  0  0  0
  5  7  1  0  0  0  0
  2  3  1  0  0  0  0
  2  4  1  0  0  0  0
  2  5  1  0  0  0  0
  1  2  1  0  0  0  0
 22 23  2  0  0  0  0
 22 24  1  0  0  0  0
 19 20  1  0  0  0  0
 19 21  1  0  0  0  0
 17 18  2  0  0  0  0
 17 19  1  0  0  0  0
 14 15  1  0  0  0  0
 14 16  1  0  0  0  0
 14 17  1  0  0  0  0
 11 12  1  0  0  0  0
 11 13  1  0  0  0  0
 11 14  1  0  0  0  0
  9 10  1  0  0  0  0
  9 11  1  0  0  0  0
  9 22  1  0  0  0  0
  7  8  1  0  0  0  0
  7  9  1  0  0  0  0
 26 27  1  0  0  0  0
 26 28  1  0  0  0  0
 26 29  1  0  0  0  0
 24 25  1  0  0  0  0
 24 26  1  0  0  0  0
M  END
$$$$
default_name
  -OEChem-02102213163D

 29 28  0     1  0  0  0  0  0999 V2000
   -3.3998   -3.6239    1.3678 H   0  0  0  0  0  0  0  0  0  0  0  0
   -3.3608   -2.6749    0.8348 C   0  0  0  0  0  0  0  0  0  0  0  0
   -4.0988   -1.9909    1.2498 H   0  0  0  0  0  0  0  0  0  0  0  0
   -3.5618   -2.8419   -0.2222 H   0  0  0  0  0  0  0  0  0  0  0  0
   -1.9818   -2.0809    0.9918 C   0  0  0  0  0  0  0  0  0  0  0  0
   -1.1288   -2.6669    1.6468 O   0  0  0  0  0  0  0  0  0  0  0  0
   -1.7648   -0.9089    0.3998 N   0  0  0  0  0  0  0  0  0  0  0  0
   -2.5238   -0.4719   -0.1032 H   0  0  0  0  0  0  0  0  0  0  0  0
   -0.4848   -0.1959    0.4138 C   0  0  1  0  0  0  0  0  0  0  0  0
    0.2783   -0.8411   -0.0248 H   0  0  0  0  0  0  0  0  0  0  0  0
   -0.6101    1.0666   -0.4611 C   0  0  0  0  0  0  0  0  0  0  0  0
    0.3945    1.4367   -0.6759 H   0  0  0  0  0  0  0  0  0  0  0  0
   -1.0846    0.7994   -1.4065 H   0  0  0  0  0  0  0  0  0  0  0  0
   -1.4148    2.2017    0.1959 C   0  0  0  0  0  0  0  0  0  0  0  0
   -1.4705    3.0526   -0.4828 H   0  0  0  0  0  0  0  0  0  0  0  0
   -2.4264    1.8486    0.3954 H   0  0  0  0  0  0  0  0  0  0  0  0
   -0.8065    2.6865    1.5118 C   0  0  0  0  0  0  0  0  0  0  0  0
    0.1706    2.1750    2.0258 O   0  0  0  0  0  0  0  0  0  0  0  0
   -1.3617    3.7140    2.1170 N   0  0  0  0  0  0  0  0  0  0  0  0
   -0.9208    3.9907    2.9770 H   0  0  0  0  0  0  0  0  0  0  0  0
   -2.1644    4.1729    1.7366 H   0  0  0  0  0  0  0  0  0  0  0  0
   -0.0637    0.1284    1.8555 C   0  0  0  0  0  0  0  0  0  0  0  0
    1.0918   -0.0745    2.2236 O   0  0  0  0  0  0  0  0  0  0  0  0
   -1.0024    0.6217    2.6735 N   0  0  0  0  0  0  0  0  0  0  0  0
   -1.9213    0.7848    2.2938 H   0  0  0  0  0  0  0  0  0  0  0  0
   -0.7639    0.9676    4.0741 C   0  0  0  0  0  0  0  0  0  0  0  0
    0.0520    1.6916    4.1400 H   0  0  0  0  0  0  0  0  0  0  0  0
   -1.6626    1.3984    4.5182 H   0  0  0  0  0  0  0  0  0  0  0  0
   -0.4775    0.0737    4.6309 H   0  0  0  0  0  0  0  0  0  0  0  0
  5  6  2  0  0  0  0
  5  7  1  0  0  0  0
  2  3  1  0  0  0  0
  2  4  1  0  0  0  0
  2  5  1  0  0  0  0
  1  2  1  0  0  0  0
 22 23  2  0  0  0  0
 22 24  1  0  0  0  0
 19 20  1  0  0  0  0
 19 21  1  0  0  0  0
 17 18  2  0  0  0  0
 17 19  1  0  0  0  0
 14 15  1  0  0  0  0
 14 16  1  0  0  0  0
 14 17  1  0  0  0  0
 11 12  1  0  0  0  0
 11 13  1  0  0  0  0
 11 14  1  0  0  0  0
  9 10  1  0  0  0  0
  9 11  1  0  0  0  0
  9 22  1  0  0  0  0
  7  8  1  0  0  0  0
  7  9  1  0  0  0  0
 26 27  1  0  0  0  0
 26 28  1  0  0  0  0
 26 29  1  0  0  0  0
 24 25  1  0  0  0  0
 24 26  1  0  0  0  0
M  END
$$$$
default_name
  -OEChem-02102213163D

 29 28  0     1  0  0  0  0  0999 V2000
   -3.3998   -3.6239    1.3678 H   0  0  0  0  0  0  0  0  0  0  0  0
   -3.3608   -2.6749    0.8348 C   0  0  0  0  0  0  0  0  0  0  0  0
   -4.0988   -1.9909    1.2498 H   0  0  0  0  0  0  0  0  0  0  0  0
   -3.5618   -2.8419   -0.2222 H   0  0  0  0  0  0  0  0  0  0  0  0
   -1.9818   -2.0809    0.9918 C   0  0  0  0  0  0  0  0  0  0  0  0
   -1.1288   -2.6669    1.6468 O   0  0  0  0  0  0  0  0  0  0  0  0
   -1.7648   -0.9089    0.3998 N   0  0  0  0  0  0  0  0  0  0  0  0
   -2.5238   -0.4719   -0.1032 H   0  0  0  0  0  0  0  0  0  0  0  0
   -0.4848   -0.1959    0.4138 C   0  0  1  0  0  0  0  0  0  0  0  0
    0.2783   -0.8411   -0.0248 H   0  0  0  0  0  0  0  0  0  0  0  0
   -0.6101    1.0666   -0.4611 C   0  0  0  0  0  0  0  0  0  0  0  0
    0.3945    1.4367   -0.6759 H   0  0  0  0  0  0  0  0  0  0  0  0
   -1.0846    0.7994   -1.4065 H   0  0  0  0  0  0  0  0  0  0  0  0
   -1.4148    2.2017    0.1959 C   0  0  0  0  0  0  0  0  0  0  0  0
   -1.6988    2.9348   -0.5589 H   0  0  0  0  0  0  0  0  0  0  0  0
   -2.3211    1.7847    0.6347 H   0  0  0  0  0  0  0  0  0  0  0  0
   -0.6403    2.9304    1.2939 C   0  0  0  0  0  0  0  0  0  0  0  0
    0.4701    2.5971    1.6634 O   0  0  0  0  0  0  0  0  0  0  0  0
   -1.1978    3.9763    1.8644 N   0  0  0  0  0  0  0  0  0  0  0  0
   -0.6444    4.4173    2.5785 H   0  0  0  0  0  0  0  0  0  0  0  0
   -2.1071    4.2944    1.5969 H   0  0  0  0  0  0  0  0  0  0  0  0
   -0.0637    0.1284    1.8555 C   0  0  0  0  0  0  0  0  0  0  0  0
    1.0918   -0.0745    2.2236 O   0  0  0  0  0  0  0  0  0  0  0  0
   -1.0024    0.6217    2.6735 N   0  0  0  0  0  0  0  0  0  0  0  0
   -1.9213    0.7848    2.2938 H   0  0  0  0  0  0  0  0  0  0  0  0
   -0.7639    0.9676    4.0741 C   0  0  0  0  0  0  0  0  0  0  0  0
    0.0520    1.6916    4.1400 H   0  0  0  0  0  0  0  0  0  0  0  0
   -1.6626    1.3984    4.5182 H   0  0  0  0  0  0  0  0  0  0  0  0
   -0.4775    0.0737    4.6309 H   0  0  0  0  0  0  0  0  0  0  0  0
  5  6  2  0  0  0  0
  5  7  1  0  0  0  0
  2  3  1  0  0  0  0
  2  4  1  0  0  0  0
  2  5  1  0  0  0  0
  1  2  1  0  0  0  0
 22 23  2  0  0  0  0
 22 24  1  0  0  0  0
 19 20  1  0  0  0  0
 19 21  1  0  0  0  0
 17 18  2  0  0  0  0
 17 19  1  0  0  0  0
 14 15  1  0  0  0  0
 14 16  1  0  0  0  0
 14 17  1  0  0  0  0
 11 12  1  0  0  0  0
 11 13  1  0  0  0  0
 11 14  1  0  0  0  0
  9 10  1  0  0  0  0
  9 11  1  0  0  0  0
  9 22  1  0  0  0  0
  7  8  1  0  0  0  0
  7  9  1  0  0  0  0
 26 27  1  0  0  0  0
 26 28  1  0  0  0  0
 26 29  1  0  0  0  0
 24 25  1  0  0  0  0
 24 26  1  0  0  0  0
M  END
$$$$
default_name
  -OEChem-02102213163D

 29 28  0     1  0  0  0  0  0999 V2000
   -3.3998   -3.6239    1.3678 H   0  0  0  0  0  0  0  0  0  0  0  0
   -3.3608   -2.6749    0.8348 C   0  0  0  0  0  0  0  0  0  0  0  0
   -4.0988   -1.9909    1.2498 H   0  0  0  0  0  0  0  0  0  0  0  0
   -3.5618   -2.8419   -0.2222 H   0  0  0  0  0  0  0  0  0  0  0  0
   -1.9818   -2.0809    0.9918 C   0  0  0  0  0  0  0  0  0  0  0  0
   -1.1288   -2.6669    1.6468 O   0  0  0  0  0  0  0  0  0  0  0  0
   -1.7648   -0.9089    0.3998 N   0  0  0  0  0  0  0  0  0  0  0  0
   -2.5238   -0.4719   -0.1032 H   0  0  0  0  0  0  0  0  0  0  0  0
   -0.4848   -0.1959    0.4138 C   0  0  1  0  0  0  0  0  0  0  0  0
    0.2783   -0.8411   -0.0248 H   0  0  0  0  0  0  0  0  0  0  0  0
   -0.6101    1.0666   -0.4611 C   0  0  0  0  0  0  0  0  0  0  0  0
    0.3945    1.4367   -0.6759 H   0  0  0  0  0  0  0  0  0  0  0  0
   -1.0846    0.7994   -1.4065 H   0  0  0  0  0  0  0  0  0  0  0  0
   -1.4148    2.2017    0.1959 C   0  0  0  0  0  0  0  0  0  0  0  0
   -1.9208    2.7855   -0.5728 H   0  0  0  0  0  0  0  0  0  0  0  0
   -2.1667    1.7670    0.8544 H   0  0  0  0  0  0  0  0  0  0  0  0
   -0.5482    3.1549    1.0187 C   0  0  0  0  0  0  0  0  0  0  0  0
    0.6436    2.9889    1.1990 O   0  0  0  0  0  0  0  0  0  0  0  0
   -1.1167    4.2136    1.5537 N   0  0  0  0  0  0  0  0  0  0  0  0
   -0.5007    4.8059    2.0830 H   0  0  0  0  0  0  0  0  0  0  0  0
   -2.0919    4.3991    1.4345 H   0  0  0  0  0  0  0  0  0  0  0  0
   -0.0637    0.1284    1.8555 C   0  0  0  0  0  0  0  0  0  0  0  0
    1.0918   -0.0745    2.2236 O   0  0  0  0  0  0  0  0  0  0  0  0
   -1.0024    0.6217    2.6735 N   0  0  0  0  0  0  0  0  0  0  0  0
   -1.9213    0.7848    2.2938 H   0  0  0  0  0  0  0  0  0  0  0  0
   -0.7639    0.9676    4.0741 C   0  0  0  0  0  0  0  0  0  0  0  0
    0.0520    1.6916    4.1400 H   0  0  0  0  0  0  0  0  0  0  0  0
   -1.6626    1.3984    4.5182 H   0  0  0  0  0  0  0  0  0  0  0  0
   -0.4775    0.0737    4.6309 H   0  0  0  0  0  0  0  0  0  0  0  0
  5  6  2  0  0  0  0
  5  7  1  0  0  0  0
  2  3  1  0  0  0  0
  2  4  1  0  0  0  0
  2  5  1  0  0  0  0
  1  2  1  0  0  0  0
 22 23  2  0  0  0  0
 22 24  1  0  0  0  0
 19 20  1  0  0  0  0
 19 21  1  0  0  0  0
 17 18  2  0  0  0  0
 17 19  1  0  0  0  0
 14 15  1  0  0  0  0
 14 16  1  0  0  0  0
 14 17  1  0  0  0  0
 11 12  1  0  0  0  0
 11 13  1  0  0  0  0
 11 14  1  0  0  0  0
  9 10  1  0  0  0  0
  9 11  1  0  0  0  0
  9 22  1  0  0  0  0
  7  8  1  0  0  0  0
  7  9  1  0  0  0  0
 26 27  1  0  0  0  0
 26 28  1  0  0  0  0
 26 29  1  0  0  0  0
 24 25  1  0  0  0  0
 24 26  1  0  0  0  0
M  END
$$$$
default_name
  -OEChem-02102213163D

 29 28  0     1  0  0  0  0  0999 V2000
   -3.3998   -3.6239    1.3678 H   0  0  0  0  0  0  0  0  0  0  0  0
   -3.3608   -2.6749    0.8348 C   0  0  0  0  0  0  0  0  0  0  0  0
   -4.0988   -1.9909    1.2498 H   0  0  0  0  0  0  0  0  0  0  0  0
   -3.5618   -2.8419   -0.2222 H   0  0  0  0  0  0  0  0  0  0  0  0
   -1.9818   -2.0809    0.9918 C   0  0  0  0  0  0  0  0  0  0  0  0
   -1.1288   -2.6669    1.6468 O   0  0  0  0  0  0  0  0  0  0  0  0
   -1.7648   -0.9089    0.3998 N   0  0  0  0  0  0  0  0  0  0  0  0
   -2.5238   -0.4719   -0.1032 H   0  0  0  0  0  0  0  0  0  0  0  0
   -0.4848   -0.1959    0.4138 C   0  0  1  0  0  0  0  0  0  0  0  0
    0.2783   -0.8411   -0.0248 H   0  0  0  0  0  0  0  0  0  0  0  0
   -0.6101    1.0666   -0.4611 C   0  0  0  0  0  0  0  0  0  0  0  0
    0.3945    1.4367   -0.6759 H   0  0  0  0  0  0  0  0  0  0  0  0
   -1.0846    0.7994   -1.4065 H   0  0  0  0  0  0  0  0  0  0  0  0
   -1.4148    2.2017    0.1959 C   0  0  0  0  0  0  0  0  0  0  0  0
   -2.1213    2.6149   -0.5237 H   0  0  0  0  0  0  0  0  0  0  0  0
   -1.9736    1.7968    1.0395 H   0  0  0  0  0  0  0  0  0  0  0  0
   -0.5367    3.3447    0.7050 C   0  0  0  0  0  0  0  0  0  0  0  0
    0.6792    3.3236    0.6643 O   0  0  0  0  0  0  0  0  0  0  0  0
   -1.1239    4.4098    1.2060 N   0  0  0  0  0  0  0  0  0  0  0  0
   -0.4993    5.1301    1.5245 H   0  0  0  0  0  0  0  0  0  0  0  0
   -2.1198    4.4800    1.2606 H   0  0  0  0  0  0  0  0  0  0  0  0
   -0.0637    0.1284    1.8555 C   0  0  0  0  0  0  0  0  0  0  0  0
    1.0918   -0.0745    2.2236 O   0  0  0  0  0  0  0  0  0  0  0  0
   -1.0024    0.6217    2.6735 N   0  0  0  0  0  0  0  0  0  0  0  0
   -1.9213    0.7848    2.2938 H   0  0  0  0  0  0  0  0  0  0  0  0
   -0.7639    0.9676    4.0741 C   0  0  0  0  0  0  0  0  0  0  0  0
    0.0520    1.6916    4.1400 H   0  0  0  0  0  0  0  0  0  0  0  0
   -1.6626    1.3984    4.5182 H   0  0  0  0  0  0  0  0  0  0  0  0
   -0.4775    0.0737    4.6309 H   0  0  0  0  0  0  0  0  0  0  0  0
  5  6  2  0  0  0  0
  5  7  1  0  0  0  0
  2  3  1  0  0  0  0
  2  4  1  0  0  0  0
  2  5  1  0  0  0  0
  1  2  1  0  0  0  0
 22 23  2  0  0  0  0
 22 24  1  0  0  0  0
 19 20  1  0  0  0  0
 19 21  1  0  0  0  0
 17 18  2  0  0  0  0
 17 19  1  0  0  0  0
 14 15  1  0  0  0  0
 14 16  1  0  0  0  0
 14 17  1  0  0  0  0
 11 12  1  0  0  0  0
 11 13  1  0  0  0  0
 11 14  1  0  0  0  0
  9 10  1  0  0  0  0
  9 11  1  0  0  0  0
  9 22  1  0  0  0  0
  7  8  1  0  0  0  0
  7  9  1  0  0  0  0
 26 27  1  0  0  0  0
 26 28  1  0  0  0  0
 26 29  1  0  0  0  0
 24 25  1  0  0  0  0
 24 26  1  0  0  0  0
M  END
$$$$
default_name
  -OEChem-02102213163D

 29 28  0     1  0  0  0  0  0999 V2000
   -3.3998   -3.6239    1.3678 H   0  0  0  0  0  0  0  0  0  0  0  0
   -3.3608   -2.6749    0.8348 C   0  0  0  0  0  0  0  0  0  0  0  0
   -4.0988   -1.9909    1.2498 H   0  0  0  0  0  0  0  0  0  0  0  0
   -3.5618   -2.8419   -0.2222 H   0  0  0  0  0  0  0  0  0  0  0  0
   -1.9818   -2.0809    0.9918 C   0  0  0  0  0  0  0  0  0  0  0  0
   -1.1288   -2.6669    1.6468 O   0  0  0  0  0  0  0  0  0  0  0  0
   -1.7648   -0.9089    0.3998 N   0  0  0  0  0  0  0  0  0  0  0  0
   -2.5238   -0.4719   -0.1032 H   0  0  0  0  0  0  0  0  0  0  0  0
   -0.4848   -0.1959    0.4138 C   0  0  1  0  0  0  0  0  0  0  0  0
    0.2783   -0.8411   -0.0248 H   0  0  0  0  0  0  0  0  0  0  0  0
   -0.6101    1.0666   -0.4611 C   0  0  0  0  0  0  0  0  0  0  0  0
    0.3945    1.4367   -0.6759 H   0  0  0  0  0  0  0  0  0  0  0  0
   -1.0846    0.7994   -1.4065 H   0  0  0  0  0  0  0  0  0  0  0  0
   -1.4148    2.2017    0.1959 C   0  0  0  0  0  0  0  0  0  0  0  0
   -2.2868    2.4345   -0.4148 H   0  0  0  0  0  0  0  0  0  0  0  0
   -1.7550    1.8719    1.1774 H   0  0  0  0  0  0  0  0  0  0  0  0
   -0.6064    3.4868    0.3740 C   0  0  0  0  0  0  0  0  0  0  0  0
    0.5745    3.5785    0.0957 O   0  0  0  0  0  0  0  0  0  0  0  0
   -1.2190    4.5513    0.8449 N   0  0  0  0  0  0  0  0  0  0  0  0
   -0.6406    5.3679    0.9408 H   0  0  0  0  0  0  0  0  0  0  0  0
   -2.1889    4.5315    1.0870 H   0  0  0  0  0  0  0  0  0  0  0  0
   -0.0637    0.1284    1.8555 C   0  0  0  0  0  0  0  0  0  0  0  0
    1.0918   -0.0745    2.2236 O   0  0  0  0  0  0  0  0  0  0  0  0
   -1.0024    0.6217    2.6735 N   0  0  0  0  0  0  0  0  0  0  0  0
   -1.9213    0.7848    2.2938 H   0  0  0  0  0  0  0  0  0  0  0  0
   -0.7639    0.9676    4.0741 C   0  0  0  0  0  0  0  0  0  0  0  0
    0.0520    1.6916    4.1400 H   0  0  0  0  0  0  0  0  0  0  0  0
   -1.6626    1.3984    4.5182 H   0  0  0  0  0  0  0  0  0  0  0  0
   -0.4775    0.0737    4.6309 H   0  0  0  0  0  0  0  0  0  0  0  0
  5  6  2  0  0  0  0
  5  7  1  0  0  0  0
  2  3  1  0  0  0  0
  2  4  1  0  0  0  0
  2  5  1  0  0  0  0
  1  2  1  0  0  0  0
 22 23  2  0  0  0  0
 22 24  1  0  0  0  0
 19 20  1  0  0  0  0
 19 21  1  0  0  0  0
 17 18  2  0  0  0  0
 17 19  1  0  0  0  0
 14 15  1  0  0  0  0
 14 16  1  0  0  0  0
 14 17  1  0  0  0  0
 11 12  1  0  0  0  0
 11 13  1  0  0  0  0
 11 14  1  0  0  0  0
  9 10  1  0  0  0  0
  9 11  1  0  0  0  0
  9 22  1  0  0  0  0
  7  8  1  0  0  0  0
  7  9  1  0  0  0  0
 26 27  1  0  0  0  0
 26 28  1  0  0  0  0
 26 29  1  0  0  0  0
 24 25  1  0  0  0  0
 24 26  1  0  0  0  0
M  END
$$$$
default_name
  -OEChem-02102213163D

 29 28  0     1  0  0  0  0  0999 V2000
   -3.3998   -3.6239    1.3678 H   0  0  0  0  0  0  0  0  0  0  0  0
   -3.3608   -2.6749    0.8348 C   0  0  0  0  0  0  0  0  0  0  0  0
   -4.0988   -1.9909    1.2498 H   0  0  0  0  0  0  0  0  0  0  0  0
   -3.5618   -2.8419   -0.2222 H   0  0  0  0  0  0  0  0  0  0  0  0
   -1.9818   -2.0809    0.9918 C   0  0  0  0  0  0  0  0  0  0  0  0
   -1.1288   -2.6669    1.6468 O   0  0  0  0  0  0  0  0  0  0  0  0
   -1.7648   -0.9089    0.3998 N   0  0  0  0  0  0  0  0  0  0  0  0
   -2.5238   -0.4719   -0.1032 H   0  0  0  0  0  0  0  0  0  0  0  0
   -0.4848   -0.1959    0.4138 C   0  0  1  0  0  0  0  0  0  0  0  0
    0.2783   -0.8411   -0.0248 H   0  0  0  0  0  0  0  0  0  0  0  0
   -0.6101    1.0666   -0.4611 C   0  0  0  0  0  0  0  0  0  0  0  0
    0.3945    1.4367   -0.6759 H   0  0  0  0  0  0  0  0  0  0  0  0
   -1.0846    0.7994   -1.4065 H   0  0  0  0  0  0  0  0  0  0  0  0
   -1.4148    2.2017    0.1959 C   0  0  0  0  0  0  0  0  0  0  0  0
   -2.4060    2.2568   -0.2537 H   0  0  0  0  0  0  0  0  0  0  0  0
   -1.5259    1.9873    1.2587 H   0  0  0  0  0  0  0  0  0  0  0  0
   -0.7527    3.5716    0.0484 C   0  0  0  0  0  0  0  0  0  0  0  0
    0.3367    3.7362   -0.4680 O   0  0  0  0  0  0  0  0  0  0  0  0
   -1.3954    4.6287    0.4952 N   0  0  0  0  0  0  0  0  0  0  0  0
   -0.9147    5.5029    0.3717 H   0  0  0  0  0  0  0  0  0  0  0  0
   -2.2945    4.5502    0.9255 H   0  0  0  0  0  0  0  0  0  0  0  0
   -0.0637    0.1284    1.8555 C   0  0  0  0  0  0  0  0  0  0  0  0
    1.0918   -0.0745    2.2236 O   0  0  0  0  0  0  0  0  0  0  0  0
   -1.0024    0.6217    2.6735 N   0  0  0  0  0  0  0  0  0  0  0  0
   -1.9213    0.7848    2.2938 H   0  0  0  0  0  0  0  0  0  0  0  0
   -0.7639    0.9676    4.0741 C   0  0  0  0  0  0  0  0  0  0  0  0
    0.0520    1.6916    4.1400 H   0  0  0  0  0  0  0  0  0  0  0  0
   -1.6626    1.3984    4.5182 H   0  0  0  0  0  0  0  0  0  0  0  0
   -0.4775    0.0737    4.6309 H   0  0  0  0  0  0  0  0  0  0  0  0
  5  6  2  0  0  0  0
  5  7  1  0  0  0  0
  2  3  1  0  0  0  0
  2  4  1  0  0  0  0
  2  5  1  0  0  0  0
  1  2  1  0  0  0  0
 22 23  2  0  0  0  0
 22 24  1  0  0  0  0
 19 20  1  0  0  0  0
 19 21  1  0  0  0  0
 17 18  2  0  0  0  0
 17 19  1  0  0  0  0
 14 15  1  0  0  0  0
 14 16  1  0  0  0  0
 14 17  1  0  0  0  0
 11 12  1  0  0  0  0
 11 13  1  0  0  0  0
 11 14  1  0  0  0  0
  9 10  1  0  0  0  0
  9 11  1  0  0  0  0
  9 22  1  0  0  0  0
  7  8  1  0  0  0  0
  7  9  1  0  0  0  0
 26 27  1  0  0  0  0
 26 28  1  0  0  0  0
 26 29  1  0  0  0  0
 24 25  1  0  0  0  0
 24 26  1  0  0  0  0
M  END
$$$$
default_name
  -OEChem-02102213163D

 29 28  0     1  0  0  0  0  0999 V2000
   -3.3998   -3.6239    1.3678 H   0  0  0  0  0  0  0  0  0  0  0  0
   -3.3608   -2.6749    0.8348 C   0  0  0  0  0  0  0  0  0  0  0  0
   -4.0988   -1.9909    1.2498 H   0  0  0  0  0  0  0  0  0  0  0  0
   -3.5618   -2.8419   -0.2222 H   0  0  0  0  0  0  0  0  0  0  0  0
   -1.9818   -2.0809    0.9918 C   0  0  0  0  0  0  0  0  0  0  0  0
   -1.1288   -2.6669    1.6468 O   0  0  0  0  0  0  0  0  0  0  0  0
   -1.7648   -0.9089    0.3998 N   0  0  0  0  0  0  0  0  0  0  0  0
   -2.5238   -0.4719   -0.1032 H   0  0  0  0  0  0  0  0  0  0  0  0
   -0.4848   -0.1959    0.4138 C   0  0  1  0  0  0  0  0  0  0  0  0
    0.2783   -0.8411   -0.0248 H   0  0  0  0  0  0  0  0  0  0  0  0
   -0.6101    1.0666   -0.4611 C   0  0  0  0  0  0  0  0  0  0  0  0
    0.3945    1.4367   -0.6759 H   0  0  0  0  0  0  0  0  0  0  0  0
   -1.0846    0.7994   -1.4065 H   0  0  0  0  0  0  0  0  0  0  0  0
   -1.4148    2.2017    0.1959 C   0  0  0  0  0  0  0  0  0  0  0  0
   -2.4707    2.0938   -0.0512 H   0  0  0  0  0  0  0  0  0  0  0  0
   -1.3018    2.1351    1.2779 H   0  0  0  0  0  0  0  0  0  0  0  0
   -0.9655    3.5932   -0.2496 C   0  0  0  0  0  0  0  0  0  0  0  0
   -0.0181    3.7859   -0.9885 O   0  0  0  0  0  0  0  0  0  0  0  0
   -1.6411    4.6367    0.1806 N   0  0  0  0  0  0  0  0  0  0  0  0
   -1.3030    5.5260   -0.1438 H   0  0  0  0  0  0  0  0  0  0  0  0
   -2.4293    4.5346    0.7872 H   0  0  0  0  0  0  0  0  0  0  0  0
   -0.0637    0.1284    1.8555 C   0  0  0  0  0  0  0  0  0  0  0  0
    1.0918   -0.0745    2.2236 O   0  0  0  0  0  0  0  0  0  0  0  0
   -1.0024    0.6217    2.6735 N   0  0  0  0  0  0  0  0  0  0  0  0
   -1.9213    0.7848    2.2938 H   0  0  0  0  0  0  0  0  0  0  0  0
   -0.7639    0.9676    4.0741 C   0  0  0  0  0  0  0  0  0  0  0  0
    0.0520    1.6916    4.1400 H   0  0  0  0  0  0  0  0  0  0  0  0
   -1.6626    1.3984    4.5182 H   0  0  0  0  0  0  0  0  0  0  0  0
   -0.4775    0.0737    4.6309 H   0  0  0  0  0  0  0  0  0  0  0  0
  5  6  2  0  0  0  0
  5  7  1  0  0  0  0
  2  3  1  0  0  0  0
  2  4  1  0  0  0  0
  2  5  1  0  0  0  0
  1  2  1  0  0  0  0
 22 23  2  0  0  0  0
 22 24  1  0  0  0  0
 19 20  1  0  0  0  0
 19 21  1  0  0  0  0
 17 18  2  0  0  0  0
 17 19  1  0  0  0  0
 14 15  1  0  0  0  0
 14 16  1  0  0  0  0
 14 17  1  0  0  0  0
 11 12  1  0  0  0  0
 11 13  1  0  0  0  0
 11 14  1  0  0  0  0
  9 10  1  0  0  0  0
  9 11  1  0  0  0  0
  9 22  1  0  0  0  0
  7  8  1  0  0  0  0
  7  9  1  0  0  0  0
 26 27  1  0  0  0  0
 26 28  1  0  0  0  0
 26 29  1  0  0  0  0
 24 25  1  0  0  0  0
 24 26  1  0  0  0  0
M  END
$$$$
default_name
  -OEChem-02102213163D

 29 28  0     1  0  0  0  0  0999 V2000
   -3.3998   -3.6239    1.3678 H   0  0  0  0  0  0  0  0  0  0  0  0
   -3.3608   -2.6749    0.8348 C   0  0  0  0  0  0  0  0  0  0  0  0
   -4.0988   -1.9909    1.2498 H   0  0  0  0  0  0  0  0  0  0  0  0
   -3.5618   -2.8419   -0.2222 H   0  0  0  0  0  0  0  0  0  0  0  0
   -1.9818   -2.0809    0.9918 C   0  0  0  0  0  0  0  0  0  0  0  0
   -1.1288   -2.6669    1.6468 O   0  0  0  0  0  0  0  0  0  0  0  0
   -1.7648   -0.9089    0.3998 N   0  0  0  0  0  0  0  0  0  0  0  0
   -2.5238   -0.4719   -0.1032 H   0  0  0  0  0  0  0  0  0  0  0  0
   -0.4848   -0.1959    0.4138 C   0  0  1  0  0  0  0  0  0  0  0  0
    0.2783   -0.8411   -0.0248 H   0  0  0  0  0  0  0  0  0  0  0  0
   -0.6101    1.0666   -0.4611 C   0  0  0  0  0  0  0  0  0  0  0  0
    0.3945    1.4367   -0.6759 H   0  0  0  0  0  0  0  0  0  0  0  0
   -1.0846    0.7994   -1.4065 H   0  0  0  0  0  0  0  0  0  0  0  0
   -1.4148    2.2017    0.1959 C   0  0  0  0  0  0  0  0  0  0  0  0
   -2.4765    1.9566    0.1788 H   0  0  0  0  0  0  0  0  0  0  0  0
   -1.0980    2.3052    1.2336 H   0  0  0  0  0  0  0  0  0  0  0  0
   -1.2304    3.5503   -0.4998 C   0  0  0  0  0  0  0  0  0  0  0  0
   -0.4657    3.7243   -1.4302 O   0  0  0  0  0  0  0  0  0  0  0  0
   -1.9394    4.5746   -0.0775 N   0  0  0  0  0  0  0  0  0  0  0  0
   -1.7791    5.4356   -0.5708 H   0  0  0  0  0  0  0  0  0  0  0  0
   -2.5842    4.4860    0.6815 H   0  0  0  0  0  0  0  0  0  0  0  0
   -0.0637    0.1284    1.8555 C   0  0  0  0  0  0  0  0  0  0  0  0
    1.0918   -0.0745    2.2236 O   0  0  0  0  0  0  0  0  0  0  0  0
   -1.0024    0.6217    2.6735 N   0  0  0  0  0  0  0  0  0  0  0  0
   -1.9213    0.7848    2.2938 H   0  0  0  0  0  0  0  0  0  0  0  0
   -0.7639    0.9676    4.0741 C   0  0  0  0  0  0  0  0  0  0  0  0
    0.0520    1.6916    4.1400 H   0  0  0  0  0  0  0  0  0  0  0  0
   -1.6626    1.3984    4.5182 H   0  0  0  0  0  0  0  0  0  0  0  0
   -0.4775    0.0737    4.6309 H   0  0  0  0  0  0  0  0  0  0  0  0
  5  6  2  0  0  0  0
  5  7  1  0  0  0  0
  2  3  1  0  0  0  0
  2  4  1  0  0  0  0
  2  5  1  0  0  0  0
  1  2  1  0  0  0  0
 22 23  2  0  0  0  0
 22 24  1  0  0  0  0
 19 20  1  0  0  0  0
 19 21  1  0  0  0  0
 17 18  2  0  0  0  0
 17 19  1  0  0  0  0
 14 15  1  0  0  0  0
 14 16  1  0  0  0  0
 14 17  1  0  0  0  0
 11 12  1  0  0  0  0
 11 13  1  0  0  0  0
 11 14  1  0  0  0  0
  9 10  1  0  0  0  0
  9 11  1  0  0  0  0
  9 22  1  0  0  0  0
  7  8  1  0  0  0  0
  7  9  1  0  0  0  0
 26 27  1  0  0  0  0
 26 28  1  0  0  0  0
 26 29  1  0  0  0  0
 24 25  1  0  0  0  0
 24 26  1  0  0  0  0
M  END
$$$$
default_name
  -OEChem-02102213163D

 29 28  0     1  0  0  0  0  0999 V2000
   -3.3998   -3.6239    1.3678 H   0  0  0  0  0  0  0  0  0  0  0  0
   -3.3608   -2.6749    0.8348 C   0  0  0  0  0  0  0  0  0  0  0  0
   -4.0988   -1.9909    1.2498 H   0  0  0  0  0  0  0  0  0  0  0  0
   -3.5618   -2.8419   -0.2222 H   0  0  0  0  0  0  0  0  0  0  0  0
   -1.9818   -2.0809    0.9918 C   0  0  0  0  0  0  0  0  0  0  0  0
   -1.1288   -2.6669    1.6468 O   0  0  0  0  0  0  0  0  0  0  0  0
   -1.7648   -0.9089    0.3998 N   0  0  0  0  0  0  0  0  0  0  0  0
   -2.5238   -0.4719   -0.1032 H   0  0  0  0  0  0  0  0  0  0  0  0
   -0.4848   -0.1959    0.4138 C   0  0  1  0  0  0  0  0  0  0  0  0
    0.2783   -0.8411   -0.0248 H   0  0  0  0  0  0  0  0  0  0  0  0
   -0.6101    1.0666   -0.4611 C   0  0  0  0  0  0  0  0  0  0  0  0
    0.3682    1.2815   -0.8960 H   0  0  0  0  0  0  0  0  0  0  0  0
   -1.3092    0.8683   -1.2750 H   0  0  0  0  0  0  0  0  0  0  0  0
   -1.0830    2.3124    0.3081 C   0  0  0  0  0  0  0  0  0  0  0  0
   -2.0594    2.1207    0.7527 H   0  0  0  0  0  0  0  0  0  0  0  0
   -0.3726    2.5258    1.1068 H   0  0  0  0  0  0  0  0  0  0  0  0
   -1.2018    3.5550   -0.5743 C   0  0  0  0  0  0  0  0  0  0  0  0
   -0.8813    3.5753   -1.7479 O   0  0  0  0  0  0  0  0  0  0  0  0
   -1.6822    4.6575   -0.0415 N   0  0  0  0  0  0  0  0  0  0  0  0
   -1.7391    5.4427   -0.6665 H   0  0  0  0  0  0  0  0  0  0  0  0
   -1.9631    4.6948    0.9174 H   0  0  0  0  0  0  0  0  0  0  0  0
   -0.0637    0.1284    1.8555 C   0  0  0  0  0  0  0  0  0  0  0  0
    1.0918   -0.0745    2.2236 O   0  0  0  0  0  0  0  0  0  0  0  0
   -1.0024    0.6217    2.6735 N   0  0  0  0  0  0  0  0  0  0  0  0
   -1.9213    0.7848    2.2938 H   0  0  0  0  0  0  0  0  0  0  0  0
   -0.7639    0.9676    4.0741 C   0  0  0  0  0  0  0  0  0  0  0  0
    0.0520    1.6916    4.1400 H   0  0  0  0  0  0  0  0  0  0  0  0
   -1.6626    1.3984    4.5182 H   0  0  0  0  0  0  0  0  0  0  0  0
   -0.4775    0.0737    4.6309 H   0  0  0  0  0  0  0  0  0  0  0  0
  5  6  2  0  0  0  0
  5  7  1  0  0  0  0
  2  3  1  0  0  0  0
  2  4  1  0  0  0  0
  2  5  1  0  0  0  0
  1  2  1  0  0  0  0
 22 23  2  0  0  0  0
 22 24  1  0  0  0  0
 19 20  1  0  0  0  0
 19 21  1  0  0  0  0
 17 18  2  0  0  0  0
 17 19  1  0  0  0  0
 14 15  1  0  0  0  0
 14 16  1  0  0  0  0
 14 17  1  0  0  0  0
 11 12  1  0  0  0  0
 11 13  1  0  0  0  0
 11 14  1  0  0  0  0
  9 10  1  0  0  0  0
  9 11  1  0  0  0  0
  9 22  1  0  0  0  0
  7  8  1  0  0  0  0
  7  9  1  0  0  0  0
 26 27  1  0  0  0  0
 26 28  1  0  0  0  0
 26 29  1  0  0  0  0
 24 25  1  0  0  0  0
 24 26  1  0  0  0  0
M  END
$$$$
default_name
  -OEChem-02102213163D

 29 28  0     1  0  0  0  0  0999 V2000
   -3.3998   -3.6239    1.3678 H   0  0  0  0  0  0  0  0  0  0  0  0
   -3.3608   -2.6749    0.8348 C   0  0  0  0  0  0  0  0  0  0  0  0
   -4.0988   -1.9909    1.2498 H   0  0  0  0  0  0  0  0  0  0  0  0
   -3.5618   -2.8419   -0.2222 H   0  0  0  0  0  0  0  0  0  0  0  0
   -1.9818   -2.0809    0.9918 C   0  0  0  0  0  0  0  0  0  0  0  0
   -1.1288   -2.6669    1.6468 O   0  0  0  0  0  0  0  0  0  0  0  0
   -1.7648   -0.9089    0.3998 N   0  0  0  0  0  0  0  0  0  0  0  0
   -2.5238   -0.4719   -0.1032 H   0  0  0  0  0  0  0  0  0  0  0  0
   -0.4848   -0.1959    0.4138 C   0  0  1  0  0  0  0  0  0  0  0  0
    0.2783   -0.8411   -0.0248 H   0  0  0  0  0  0  0  0  0  0  0  0
   -0.6101    1.0666   -0.4611 C   0  0  0  0  0  0  0  0  0  0  0  0
    0.3682    1.2815   -0.8960 H   0  0  0  0  0  0  0  0  0  0  0  0
   -1.3092    0.8683   -1.2750 H   0  0  0  0  0  0  0  0  0  0  0  0
   -1.0830    2.3124    0.3081 C   0  0  0  0  0  0  0  0  0  0  0  0
   -1.9120    2.0464    0.9636 H   0  0  0  0  0  0  0  0  0  0  0  0
   -0.2608    2.6838    0.9197 H   0  0  0  0  0  0  0  0  0  0  0  0
   -1.5498    3.4437   -0.6079 C   0  0  0  0  0  0  0  0  0  0  0  0
   -1.4817    3.3930   -1.8217 O   0  0  0  0  0  0  0  0  0  0  0  0
   -2.0584    4.5249   -0.0580 N   0  0  0  0  0  0  0  0  0  0  0  0
   -2.3496    5.2357   -0.7065 H   0  0  0  0  0  0  0  0  0  0  0  0
   -2.1399    4.6173    0.9342 H   0  0  0  0  0  0  0  0  0  0  0  0
   -0.0637    0.1284    1.8555 C   0  0  0  0  0  0  0  0  0  0  0  0
    1.0918   -0.0745    2.2236 O   0  0  0  0  0  0  0  0  0  0  0  0
   -1.0024    0.6217    2.6735 N   0  0  0  0  0  0  0  0  0  0  0  0
   -1.9213    0.7848    2.2938 H   0  0  0  0  0  0  0  0  0  0  0  0
   -0.7639    0.9676    4.0741 C   0  0  0  0  0  0  0  0  0  0  0  0
    0.0520    1.6916    4.1400 H   0  0  0  0  0  0  0  0  0  0  0  0
   -1.6626    1.3984    4.5182 H   0  0  0  0  0  0  0  0  0  0  0  0
   -0.4775    0.0737    4.6309 H   0  0  0  0  0  0  0  0  0  0  0  0
  5  6  2  0  0  0  0
  5  7  1  0  0  0  0
  2  3  1  0  0  0  0
  2  4  1  0  0  0  0
  2  5  1  0  0  0  0
  1  2  1  0  0  0  0
 22 23  2  0  0  0  0
 22 24  1  0  0  0  0
 19 20  1  0  0  0  0
 19 21  1  0  0  0  0
 17 18  2  0  0  0  0
 17 19  1  0  0  0  0
 14 15  1  0  0  0  0
 14 16  1  0  0  0  0
 14 17  1  0  0  0  0
 11 12  1  0  0  0  0
 11 13  1  0  0  0  0
 11 14  1  0  0  0  0
  9 10  1  0  0  0  0
  9 11  1  0  0  0  0
  9 22  1  0  0  0  0
  7  8  1  0  0  0  0
  7  9  1  0  0  0  0
 26 27  1  0  0  0  0
 26 28  1  0  0  0  0
 26 29  1  0  0  0  0
 24 25  1  0  0  0  0
 24 26  1  0  0  0  0
M  END
$$$$
default_name
  -OEChem-02102213163D

 29 28  0     1  0  0  0  0  0999 V2000
   -3.3998   -3.6239    1.3678 H   0  0  0  0  0  0  0  0  0  0  0  0
   -3.3608   -2.6749    0.8348 C   0  0  0  0  0  0  0  0  0  0  0  0
   -4.0988   -1.9909    1.2498 H   0  0  0  0  0  0  0  0  0  0  0  0
   -3.5618   -2.8419   -0.2222 H   0  0  0  0  0  0  0  0  0  0  0  0
   -1.9818   -2.0809    0.9918 C   0  0  0  0  0  0  0  0  0  0  0  0
   -1.1288   -2.6669    1.6468 O   0  0  0  0  0  0  0  0  0  0  0  0
   -1.7648   -0.9089    0.3998 N   0  0  0  0  0  0  0  0  0  0  0  0
   -2.5238   -0.4719   -0.1032 H   0  0  0  0  0  0  0  0  0  0  0  0
   -0.4848   -0.1959    0.4138 C   0  0  1  0  0  0  0  0  0  0  0  0
    0.2783   -0.8411   -0.0248 H   0  0  0  0  0  0  0  0  0  0  0  0
   -0.6101    1.0666   -0.4611 C   0  0  0  0  0  0  0  0  0  0  0  0
    0.3682    1.2815   -0.8960 H   0  0  0  0  0  0  0  0  0  0  0  0
   -1.3092    0.8683   -1.2750 H   0  0  0  0  0  0  0  0  0  0  0  0
   -1.0830    2.3124    0.3081 C   0  0  0  0  0  0  0  0  0  0  0  0
   -1.7158    2.0105    1.1424 H   0  0  0  0  0  0  0  0  0  0  0  0
   -0.2124    2.8359    0.7031 H   0  0  0  0  0  0  0  0  0  0  0  0
   -1.8785    3.2884   -0.5586 C   0  0  0  0  0  0  0  0  0  0  0  0
   -2.0536    3.1333   -1.7527 O   0  0  0  0  0  0  0  0  0  0  0  0
   -2.4082    4.3468    0.0154 N   0  0  0  0  0  0  0  0  0  0  0  0
   -2.9208    4.9535   -0.6007 H   0  0  0  0  0  0  0  0  0  0  0  0
   -2.2972    4.5209    0.9937 H   0  0  0  0  0  0  0  0  0  0  0  0
   -0.0637    0.1284    1.8555 C   0  0  0  0  0  0  0  0  0  0  0  0
    1.0918   -0.0745    2.2236 O   0  0  0  0  0  0  0  0  0  0  0  0
   -1.0024    0.6217    2.6735 N   0  0  0  0  0  0  0  0  0  0  0  0
   -1.9213    0.7848    2.2938 H   0  0  0  0  0  0  0  0  0  0  0  0
   -0.7639    0.9676    4.0741 C   0  0  0  0  0  0  0  0  0  0  0  0
    0.0520    1.6916    4.1400 H   0  0  0  0  0  0  0  0  0  0  0  0
   -1.6626    1.3984    4.5182 H   0  0  0  0  0  0  0  0  0  0  0  0
   -0.4775    0.0737    4.6309 H   0  0  0  0  0  0  0  0  0  0  0  0
  5  6  2  0  0  0  0
  5  7  1  0  0  0  0
  2  3  1  0  0  0  0
  2  4  1  0  0  0  0
  2  5  1  0  0  0  0
  1  2  1  0  0  0  0
 22 23  2  0  0  0  0
 22 24  1  0  0  0  0
 19 20  1  0  0  0  0
 19 21  1  0  0  0  0
 17 18  2  0  0  0  0
 17 19  1  0  0  0  0
 14 15  1  0  0  0  0
 14 16  1  0  0  0  0
 14 17  1  0  0  0  0
 11 12  1  0  0  0  0
 11 13  1  0  0  0  0
 11 14  1  0  0  0  0
  9 10  1  0  0  0  0
  9 11  1  0  0  0  0
  9 22  1  0  0  0  0
  7  8  1  0  0  0  0
  7  9  1  0  0  0  0
 26 27  1  0  0  0  0
 26 28  1  0  0  0  0
 26 29  1  0  0  0  0
 24 25  1  0  0  0  0
 24 26  1  0  0  0  0
M  END
$$$$
default_name
  -OEChem-02102213163D

 29 28  0     1  0  0  0  0  0999 V2000
   -3.3998   -3.6239    1.3678 H   0  0  0  0  0  0  0  0  0  0  0  0
   -3.3608   -2.6749    0.8348 C   0  0  0  0  0  0  0  0  0  0  0  0
   -4.0988   -1.9909    1.2498 H   0  0  0  0  0  0  0  0  0  0  0  0
   -3.5618   -2.8419   -0.2222 H   0  0  0  0  0  0  0  0  0  0  0  0
   -1.9818   -2.0809    0.9918 C   0  0  0  0  0  0  0  0  0  0  0  0
   -1.1288   -2.6669    1.6468 O   0  0  0  0  0  0  0  0  0  0  0  0
   -1.7648   -0.9089    0.3998 N   0  0  0  0  0  0  0  0  0  0  0  0
   -2.5238   -0.4719   -0.1032 H   0  0  0  0  0  0  0  0  0  0  0  0
   -0.4848   -0.1959    0.4138 C   0  0  1  0  0  0  0  0  0  0  0  0
    0.2783   -0.8411   -0.0248 H   0  0  0  0  0  0  0  0  0  0  0  0
   -0.6101    1.0666   -0.4611 C   0  0  0  0  0  0  0  0  0  0  0  0
    0.3682    1.2815   -0.8960 H   0  0  0  0  0  0  0  0  0  0  0  0
   -1.3092    0.8683   -1.2750 H   0  0  0  0  0  0  0  0  0  0  0  0
   -1.0830    2.3124    0.3081 C   0  0  0  0  0  0  0  0  0  0  0  0
   -1.4841    2.0154    1.2769 H   0  0  0  0  0  0  0  0  0  0  0  0
   -0.2307    2.9719    0.4716 H   0  0  0  0  0  0  0  0  0  0  0  0
   -2.1656    3.0999   -0.4298 C   0  0  0  0  0  0  0  0  0  0  0  0
   -2.5579    2.8140   -1.5455 O   0  0  0  0  0  0  0  0  0  0  0  0
   -2.7076    4.1354    0.1738 N   0  0  0  0  0  0  0  0  0  0  0  0
   -3.4140    4.6155   -0.3563 H   0  0  0  0  0  0  0  0  0  0  0  0
   -2.4241    4.4122    1.0918 H   0  0  0  0  0  0  0  0  0  0  0  0
   -0.0637    0.1284    1.8555 C   0  0  0  0  0  0  0  0  0  0  0  0
    1.0918   -0.0745    2.2236 O   0  0  0  0  0  0  0  0  0  0  0  0
   -1.0024    0.6217    2.6735 N   0  0  0  0  0  0  0  0  0  0  0  0
   -1.9213    0.7848    2.2938 H   0  0  0  0  0  0  0  0  0  0  0  0
   -0.7639    0.9676    4.0741 C   0  0  0  0  0  0  0  0  0  0  0  0
    0.0520    1.6916    4.1400 H   0  0  0  0  0  0  0  0  0  0  0  0
   -1.6626    1.3984    4.5182 H   0  0  0  0  0  0  0  0  0  0  0  0
   -0.4775    0.0737    4.6309 H   0  0  0  0  0  0  0  0  0  0  0  0
  5  6  2  0  0  0  0
  5  7  1  0  0  0  0
  2  3  1  0  0  0  0
  2  4  1  0  0  0  0
  2  5  1  0  0  0  0
  1  2  1  0  0  0  0
 22 23  2  0  0  0  0
 22 24  1  0  0  0  0
 19 20  1  0  0  0  0
 19 21  1  0  0  0  0
 17 18  2  0  0  0  0
 17 19  1  0  0  0  0
 14 15  1  0  0  0  0
 14 16  1  0  0  0  0
 14 17  1  0  0  0  0
 11 12  1  0  0  0  0
 11 13  1  0  0  0  0
 11 14  1  0  0  0  0
  9 10  1  0  0  0  0
  9 11  1  0  0  0  0
  9 22  1  0  0  0  0
  7  8  1  0  0  0  0
  7  9  1  0  0  0  0
 26 27  1  0  0  0  0
 26 28  1  0  0  0  0
 26 29  1  0  0  0  0
 24 25  1  0  0  0  0
 24 26  1  0  0  0  0
M  END
$$$$
default_name
  -OEChem-02102213163D

 29 28  0     1  0  0  0  0  0999 V2000
   -3.3998   -3.6239    1.3678 H   0  0  0  0  0  0  0  0  0  0  0  0
   -3.3608   -2.6749    0.8348 C   0  0  0  0  0  0  0  0  0  0  0  0
   -4.0988   -1.9909    1.2498 H   0  0  0  0  0  0  0  0  0  0  0  0
   -3.5618   -2.8419   -0.2222 H   0  0  0  0  0  0  0  0  0  0  0  0
   -1.9818   -2.0809    0.9918 C   0  0  0  0  0  0  0  0  0  0  0  0
   -1.1288   -2.6669    1.6468 O   0  0  0  0  0  0  0  0  0  0  0  0
   -1.7648   -0.9089    0.3998 N   0  0  0  0  0  0  0  0  0  0  0  0
   -2.5238   -0.4719   -0.1032 H   0  0  0  0  0  0  0  0  0  0  0  0
   -0.4848   -0.1959    0.4138 C   0  0  1  0  0  0  0  0  0  0  0  0
    0.2783   -0.8411   -0.0248 H   0  0  0  0  0  0  0  0  0  0  0  0
   -0.6101    1.0666   -0.4611 C   0  0  0  0  0  0  0  0  0  0  0  0
    0.3682    1.2815   -0.8960 H   0  0  0  0  0  0  0  0  0  0  0  0
   -1.3092    0.8683   -1.2750 H   0  0  0  0  0  0  0  0  0  0  0  0
   -1.0830    2.3124    0.3081 C   0  0  0  0  0  0  0  0  0  0  0  0
   -1.2329    2.0608    1.3578 H   0  0  0  0  0  0  0  0  0  0  0  0
   -0.3145    3.0825    0.2410 H   0  0  0  0  0  0  0  0  0  0  0  0
   -2.3916    2.8909   -0.2301 C   0  0  0  0  0  0  0  0  0  0  0  0
   -2.9603    2.4567   -1.2143 O   0  0  0  0  0  0  0  0  0  0  0  0
   -2.9363    3.9050    0.4063 N   0  0  0  0  0  0  0  0  0  0  0  0
   -3.7954    4.2446    0.0099 H   0  0  0  0  0  0  0  0  0  0  0  0
   -2.5121    4.2985    1.2218 H   0  0  0  0  0  0  0  0  0  0  0  0
   -0.0637    0.1284    1.8555 C   0  0  0  0  0  0  0  0  0  0  0  0
    1.0918   -0.0745    2.2236 O   0  0  0  0  0  0  0  0  0  0  0  0
   -1.0024    0.6217    2.6735 N   0  0  0  0  0  0  0  0  0  0  0  0
   -1.9213    0.7848    2.2938 H   0  0  0  0  0  0  0  0  0  0  0  0
   -0.7639    0.9676    4.0741 C   0  0  0  0  0  0  0  0  0  0  0  0
    0.0520    1.6916    4.1400 H   0  0  0  0  0  0  0  0  0  0  0  0
   -1.6626    1.3984    4.5182 H   0  0  0  0  0  0  0  0  0  0  0  0
   -0.4775    0.0737    4.6309 H   0  0  0  0  0  0  0  0  0  0  0  0
  5  6  2  0  0  0  0
  5  7  1  0  0  0  0
  2  3  1  0  0  0  0
  2  4  1  0  0  0  0
  2  5  1  0  0  0  0
  1  2  1  0  0  0  0
 22 23  2  0  0  0  0
 22 24  1  0  0  0  0
 19 20  1  0  0  0  0
 19 21  1  0  0  0  0
 17 18  2  0  0  0  0
 17 19  1  0  0  0  0
 14 15  1  0  0  0  0
 14 16  1  0  0  0  0
 14 17  1  0  0  0  0
 11 12  1  0  0  0  0
 11 13  1  0  0  0  0
 11 14  1  0  0  0  0
  9 10  1  0  0  0  0
  9 11  1  0  0  0  0
  9 22  1  0  0  0  0
  7  8  1  0  0  0  0
  7  9  1  0  0  0  0
 26 27  1  0  0  0  0
 26 28  1  0  0  0  0
 26 29  1  0  0  0  0
 24 25  1  0  0  0  0
 24 26  1  0  0  0  0
M  END
$$$$
default_name
  -OEChem-02102213163D

 29 28  0     1  0  0  0  0  0999 V2000
   -3.3998   -3.6239    1.3678 H   0  0  0  0  0  0  0  0  0  0  0  0
   -3.3608   -2.6749    0.8348 C   0  0  0  0  0  0  0  0  0  0  0  0
   -4.0988   -1.9909    1.2498 H   0  0  0  0  0  0  0  0  0  0  0  0
   -3.5618   -2.8419   -0.2222 H   0  0  0  0  0  0  0  0  0  0  0  0
   -1.9818   -2.0809    0.9918 C   0  0  0  0  0  0  0  0  0  0  0  0
   -1.1288   -2.6669    1.6468 O   0  0  0  0  0  0  0  0  0  0  0  0
   -1.7648   -0.9089    0.3998 N   0  0  0  0  0  0  0  0  0  0  0  0
   -2.5238   -0.4719   -0.1032 H   0  0  0  0  0  0  0  0  0  0  0  0
   -0.4848   -0.1959    0.4138 C   0  0  1  0  0  0  0  0  0  0  0  0
    0.2783   -0.8411   -0.0248 H   0  0  0  0  0  0  0  0  0  0  0  0
   -0.6101    1.0666   -0.4611 C   0  0  0  0  0  0  0  0  0  0  0  0
    0.3682    1.2815   -0.8960 H   0  0  0  0  0  0  0  0  0  0  0  0
   -1.3092    0.8683   -1.2750 H   0  0  0  0  0  0  0  0  0  0  0  0
   -1.0830    2.3124    0.3081 C   0  0  0  0  0  0  0  0  0  0  0  0
   -0.9791    2.1436    1.3797 H   0  0  0  0  0  0  0  0  0  0  0  0
   -0.4582    3.1601    0.0270 H   0  0  0  0  0  0  0  0  0  0  0  0
   -2.5409    2.6756    0.0267 C   0  0  0  0  0  0  0  0  0  0  0  0
   -3.2334    2.0859   -0.7816 O   0  0  0  0  0  0  0  0  0  0  0  0
   -3.0786    3.6714    0.6972 N   0  0  0  0  0  0  0  0  0  0  0  0
   -4.0390    3.8661    0.4731 H   0  0  0  0  0  0  0  0  0  0  0  0
   -2.5552    4.1877    1.3748 H   0  0  0  0  0  0  0  0  0  0  0  0
   -0.0637    0.1284    1.8555 C   0  0  0  0  0  0  0  0  0  0  0  0
    1.0918   -0.0745    2.2236 O   0  0  0  0  0  0  0  0  0  0  0  0
   -1.0024    0.6217    2.6735 N   0  0  0  0  0  0  0  0  0  0  0  0
   -1.9213    0.7848    2.2938 H   0  0  0  0  0  0  0  0  0  0  0  0
   -0.7639    0.9676    4.0741 C   0  0  0  0  0  0  0  0  0  0  0  0
    0.0520    1.6916    4.1400 H   0  0  0  0  0  0  0  0  0  0  0  0
   -1.6626    1.3984    4.5182 H   0  0  0  0  0  0  0  0  0  0  0  0
   -0.4775    0.0737    4.6309 H   0  0  0  0  0  0  0  0  0  0  0  0
  5  6  2  0  0  0  0
  5  7  1  0  0  0  0
  2  3  1  0  0  0  0
  2  4  1  0  0  0  0
  2  5  1  0  0  0  0
  1  2  1  0  0  0  0
 22 23  2  0  0  0  0
 22 24  1  0  0  0  0
 19 20  1  0  0  0  0
 19 21  1  0  0  0  0
 17 18  2  0  0  0  0
 17 19  1  0  0  0  0
 14 15  1  0  0  0  0
 14 16  1  0  0  0  0
 14 17  1  0  0  0  0
 11 12  1  0  0  0  0
 11 13  1  0  0  0  0
 11 14  1  0  0  0  0
  9 10  1  0  0  0  0
  9 11  1  0  0  0  0
  9 22  1  0  0  0  0
  7  8  1  0  0  0  0
  7  9  1  0  0  0  0
 26 27  1  0  0  0  0
 26 28  1  0  0  0  0
 26 29  1  0  0  0  0
 24 25  1  0  0  0  0
 24 26  1  0  0  0  0
M  END
$$$$
default_name
  -OEChem-02102213163D

 29 28  0     1  0  0  0  0  0999 V2000
   -3.3998   -3.6239    1.3678 H   0  0  0  0  0  0  0  0  0  0  0  0
   -3.3608   -2.6749    0.8348 C   0  0  0  0  0  0  0  0  0  0  0  0
   -4.0988   -1.9909    1.2498 H   0  0  0  0  0  0  0  0  0  0  0  0
   -3.5618   -2.8419   -0.2222 H   0  0  0  0  0  0  0  0  0  0  0  0
   -1.9818   -2.0809    0.9918 C   0  0  0  0  0  0  0  0  0  0  0  0
   -1.1288   -2.6669    1.6468 O   0  0  0  0  0  0  0  0  0  0  0  0
   -1.7648   -0.9089    0.3998 N   0  0  0  0  0  0  0  0  0  0  0  0
   -2.5238   -0.4719   -0.1032 H   0  0  0  0  0  0  0  0  0  0  0  0
   -0.4848   -0.1959    0.4138 C   0  0  1  0  0  0  0  0  0  0  0  0
    0.2783   -0.8411   -0.0248 H   0  0  0  0  0  0  0  0  0  0  0  0
   -0.6101    1.0666   -0.4611 C   0  0  0  0  0  0  0  0  0  0  0  0
    0.3682    1.2815   -0.8960 H   0  0  0  0  0  0  0  0  0  0  0  0
   -1.3092    0.8683   -1.2750 H   0  0  0  0  0  0  0  0  0  0  0  0
   -1.0830    2.3124    0.3081 C   0  0  0  0  0  0  0  0  0  0  0  0
   -0.7400    2.2582    1.3411 H   0  0  0  0  0  0  0  0  0  0  0  0
   -0.6518    3.1995   -0.1558 H   0  0  0  0  0  0  0  0  0  0  0  0
   -2.6035    2.4688    0.3232 C   0  0  0  0  0  0  0  0  0  0  0  0
   -3.3584    1.7269   -0.2770 O   0  0  0  0  0  0  0  0  0  0  0  0
   -3.1249    3.4505    1.0265 N   0  0  0  0  0  0  0  0  0  0  0  0
   -4.1283    3.5058    1.0017 H   0  0  0  0  0  0  0  0  0  0  0  0
   -2.5503    4.0872    1.5405 H   0  0  0  0  0  0  0  0  0  0  0  0
   -0.0637    0.1284    1.8555 C   0  0  0  0  0  0  0  0  0  0  0  0
    1.0918   -0.0745    2.2236 O   0  0  0  0  0  0  0  0  0  0  0  0
   -1.0024    0.6217    2.6735 N   0  0  0  0  0  0  0  0  0  0  0  0
   -1.9213    0.7848    2.2938 H   0  0  0  0  0  0  0  0  0  0  0  0
   -0.7639    0.9676    4.0741 C   0  0  0  0  0  0  0  0  0  0  0  0
    0.0520    1.6916    4.1400 H   0  0  0  0  0  0  0  0  0  0  0  0
   -1.6626    1.3984    4.5182 H   0  0  0  0  0  0  0  0  0  0  0  0
   -0.4775    0.0737    4.6309 H   0  0  0  0  0  0  0  0  0  0  0  0
  5  6  2  0  0  0  0
  5  7  1  0  0  0  0
  2  3  1  0  0  0  0
  2  4  1  0  0  0  0
  2  5  1  0  0  0  0
  1  2  1  0  0  0  0
 22 23  2  0  0  0  0
 22 24  1  0  0  0  0
 19 20  1  0  0  0  0
 19 21  1  0  0  0  0
 17 18  2  0  0  0  0
 17 19  1  0  0  0  0
 14 15  1  0  0  0  0
 14 16  1  0  0  0  0
 14 17  1  0  0  0  0
 11 12  1  0  0  0  0
 11 13  1  0  0  0  0
 11 14  1  0  0  0  0
  9 10  1  0  0  0  0
  9 11  1  0  0  0  0
  9 22  1  0  0  0  0
  7  8  1  0  0  0  0
  7  9  1  0  0  0  0
 26 27  1  0  0  0  0
 26 28  1  0  0  0  0
 26 29  1  0  0  0  0
 24 25  1  0  0  0  0
 24 26  1  0  0  0  0
M  END
$$$$
default_name
  -OEChem-02102213163D

 29 28  0     1  0  0  0  0  0999 V2000
   -3.3998   -3.6239    1.3678 H   0  0  0  0  0  0  0  0  0  0  0  0
   -3.3608   -2.6749    0.8348 C   0  0  0  0  0  0  0  0  0  0  0  0
   -4.0988   -1.9909    1.2498 H   0  0  0  0  0  0  0  0  0  0  0  0
   -3.5618   -2.8419   -0.2222 H   0  0  0  0  0  0  0  0  0  0  0  0
   -1.9818   -2.0809    0.9918 C   0  0  0  0  0  0  0  0  0  0  0  0
   -1.1288   -2.6669    1.6468 O   0  0  0  0  0  0  0  0  0  0  0  0
   -1.7648   -0.9089    0.3998 N   0  0  0  0  0  0  0  0  0  0  0  0
   -2.5238   -0.4719   -0.1032 H   0  0  0  0  0  0  0  0  0  0  0  0
   -0.4848   -0.1959    0.4138 C   0  0  1  0  0  0  0  0  0  0  0  0
    0.2783   -0.8411   -0.0248 H   0  0  0  0  0  0  0  0  0  0  0  0
   -0.6101    1.0666   -0.4611 C   0  0  0  0  0  0  0  0  0  0  0  0
    0.3682    1.2815   -0.8960 H   0  0  0  0  0  0  0  0  0  0  0  0
   -1.3092    0.8683   -1.2750 H   0  0  0  0  0  0  0  0  0  0  0  0
   -1.0830    2.3124    0.3081 C   0  0  0  0  0  0  0  0  0  0  0  0
   -0.5321    2.3967    1.2446 H   0  0  0  0  0  0  0  0  0  0  0  0
   -0.8821    3.1979   -0.2949 H   0  0  0  0  0  0  0  0  0  0  0  0
   -2.5751    2.2845    0.6391 C   0  0  0  0  0  0  0  0  0  0  0  0
   -3.3271    1.4040    0.2652 O   0  0  0  0  0  0  0  0  0  0  0  0
   -3.0720    3.2573    1.3720 N   0  0  0  0  0  0  0  0  0  0  0  0
   -4.0571    3.1884    1.5596 H   0  0  0  0  0  0  0  0  0  0  0  0
   -2.4980    4.0040    1.7075 H   0  0  0  0  0  0  0  0  0  0  0  0
   -0.0637    0.1284    1.8555 C   0  0  0  0  0  0  0  0  0  0  0  0
    1.0918   -0.0745    2.2236 O   0  0  0  0  0  0  0  0  0  0  0  0
   -1.0024    0.6217    2.6735 N   0  0  0  0  0  0  0  0  0  0  0  0
   -1.9213    0.7848    2.2938 H   0  0  0  0  0  0  0  0  0  0  0  0
   -0.7639    0.9676    4.0741 C   0  0  0  0  0  0  0  0  0  0  0  0
    0.0520    1.6916    4.1400 H   0  0  0  0  0  0  0  0  0  0  0  0
   -1.6626    1.3984    4.5182 H   0  0  0  0  0  0  0  0  0  0  0  0
   -0.4775    0.0737    4.6309 H   0  0  0  0  0  0  0  0  0  0  0  0
  5  6  2  0  0  0  0
  5  7  1  0  0  0  0
  2  3  1  0  0  0  0
  2  4  1  0  0  0  0
  2  5  1  0  0  0  0
  1  2  1  0  0  0  0
 22 23  2  0  0  0  0
 22 24  1  0  0  0  0
 19 20  1  0  0  0  0
 19 21  1  0  0  0  0
 17 18  2  0  0  0  0
 17 19  1  0  0  0  0
 14 15  1  0  0  0  0
 14 16  1  0  0  0  0
 14 17  1  0  0  0  0
 11 12  1  0  0  0  0
 11 13  1  0  0  0  0
 11 14  1  0  0  0  0
  9 10  1  0  0  0  0
  9 11  1  0  0  0  0
  9 22  1  0  0  0  0
  7  8  1  0  0  0  0
  7  9  1  0  0  0  0
 26 27  1  0  0  0  0
 26 28  1  0  0  0  0
 26 29  1  0  0  0  0
 24 25  1  0  0  0  0
 24 26  1  0  0  0  0
M  END
$$$$
default_name
  -OEChem-02102213163D

 29 28  0     1  0  0  0  0  0999 V2000
   -3.3998   -3.6239    1.3678 H   0  0  0  0  0  0  0  0  0  0  0  0
   -3.3608   -2.6749    0.8348 C   0  0  0  0  0  0  0  0  0  0  0  0
   -4.0988   -1.9909    1.2498 H   0  0  0  0  0  0  0  0  0  0  0  0
   -3.5618   -2.8419   -0.2222 H   0  0  0  0  0  0  0  0  0  0  0  0
   -1.9818   -2.0809    0.9918 C   0  0  0  0  0  0  0  0  0  0  0  0
   -1.1288   -2.6669    1.6468 O   0  0  0  0  0  0  0  0  0  0  0  0
   -1.7648   -0.9089    0.3998 N   0  0  0  0  0  0  0  0  0  0  0  0
   -2.5238   -0.4719   -0.1032 H   0  0  0  0  0  0  0  0  0  0  0  0
   -0.4848   -0.1959    0.4138 C   0  0  1  0  0  0  0  0  0  0  0  0
    0.2783   -0.8411   -0.0248 H   0  0  0  0  0  0  0  0  0  0  0  0
   -0.6101    1.0666   -0.4611 C   0  0  0  0  0  0  0  0  0  0  0  0
    0.3682    1.2815   -0.8960 H   0  0  0  0  0  0  0  0  0  0  0  0
   -1.3092    0.8683   -1.2750 H   0  0  0  0  0  0  0  0  0  0  0  0
   -1.0830    2.3124    0.3081 C   0  0  0  0  0  0  0  0  0  0  0  0
   -0.3693    2.5497    1.0968 H   0  0  0  0  0  0  0  0  0  0  0  0
   -1.1336    3.1555   -0.3808 H   0  0  0  0  0  0  0  0  0  0  0  0
   -2.4576    2.1353    0.9530 C   0  0  0  0  0  0  0  0  0  0  0  0
   -3.1413    1.1393    0.8081 O   0  0  0  0  0  0  0  0  0  0  0  0
   -2.9235    3.1050    1.7099 N   0  0  0  0  0  0  0  0  0  0  0  0
   -3.8304    2.9353    2.1089 H   0  0  0  0  0  0  0  0  0  0  0  0
   -2.4016    3.9437    1.8644 H   0  0  0  0  0  0  0  0  0  0  0  0
   -0.0637    0.1284    1.8555 C   0  0  0  0  0  0  0  0  0  0  0  0
    1.0918   -0.0745    2.2236 O   0  0  0  0  0  0  0  0  0  0  0  0
   -1.0024    0.6217    2.6735 N   0  0  0  0  0  0  0  0  0  0  0  0
   -1.9213    0.7848    2.2938 H   0  0  0  0  0  0  0  0  0  0  0  0
   -0.7639    0.9676    4.0741 C   0  0  0  0  0  0  0  0  0  0  0  0
    0.0520    1.6916    4.1400 H   0  0  0  0  0  0  0  0  0  0  0  0
   -1.6626    1.3984    4.5182 H   0  0  0  0  0  0  0  0  0  0  0  0
   -0.4775    0.0737    4.6309 H   0  0  0  0  0  0  0  0  0  0  0  0
  5  6  2  0  0  0  0
  5  7  1  0  0  0  0
  2  3  1  0  0  0  0
  2  4  1  0  0  0  0
  2  5  1  0  0  0  0
  1  2  1  0  0  0  0
 22 23  2  0  0  0  0
 22 24  1  0  0  0  0
 19 20  1  0  0  0  0
 19 21  1  0  0  0  0
 17 18  2  0  0  0  0
 17 19  1  0  0  0  0
 14 15  1  0  0  0  0
 14 16  1  0  0  0  0
 14 17  1  0  0  0  0
 11 12  1  0  0  0  0
 11 13  1  0  0  0  0
 11 14  1  0  0  0  0
  9 10  1  0  0  0  0
  9 11  1  0  0  0  0
  9 22  1  0  0  0  0
  7  8  1  0  0  0  0
  7  9  1  0  0  0  0
 26 27  1  0  0  0  0
 26 28  1  0  0  0  0
 26 29  1  0  0  0  0
 24 25  1  0  0  0  0
 24 26  1  0  0  0  0
M  END
$$$$
default_name
  -OEChem-02102213163D

 29 28  0     1  0  0  0  0  0999 V2000
   -3.3998   -3.6239    1.3678 H   0  0  0  0  0  0  0  0  0  0  0  0
   -3.3608   -2.6749    0.8348 C   0  0  0  0  0  0  0  0  0  0  0  0
   -4.0988   -1.9909    1.2498 H   0  0  0  0  0  0  0  0  0  0  0  0
   -3.5618   -2.8419   -0.2222 H   0  0  0  0  0  0  0  0  0  0  0  0
   -1.9818   -2.0809    0.9918 C   0  0  0  0  0  0  0  0  0  0  0  0
   -1.1288   -2.6669    1.6468 O   0  0  0  0  0  0  0  0  0  0  0  0
   -1.7648   -0.9089    0.3998 N   0  0  0  0  0  0  0  0  0  0  0  0
   -2.5238   -0.4719   -0.1032 H   0  0  0  0  0  0  0  0  0  0  0  0
   -0.4848   -0.1959    0.4138 C   0  0  1  0  0  0  0  0  0  0  0  0
    0.2783   -0.8411   -0.0248 H   0  0  0  0  0  0  0  0  0  0  0  0
   -0.6101    1.0666   -0.4611 C   0  0  0  0  0  0  0  0  0  0  0  0
    0.3682    1.2815   -0.8960 H   0  0  0  0  0  0  0  0  0  0  0  0
   -1.3092    0.8683   -1.2750 H   0  0  0  0  0  0  0  0  0  0  0  0
   -1.0830    2.3124    0.3081 C   0  0  0  0  0  0  0  0  0  0  0  0
   -0.2629    2.7068    0.9077 H   0  0  0  0  0  0  0  0  0  0  0  0
   -1.3891    3.0752   -0.4078 H   0  0  0  0  0  0  0  0  0  0  0  0
   -2.2590    2.0314    1.2434 C   0  0  0  0  0  0  0  0  0  0  0  0
   -2.8139    0.9508    1.3146 O   0  0  0  0  0  0  0  0  0  0  0  0
   -2.6896    3.0039    2.0173 N   0  0  0  0  0  0  0  0  0  0  0  0
   -3.4636    2.7638    2.6121 H   0  0  0  0  0  0  0  0  0  0  0  0
   -2.2678    3.9103    2.0006 H   0  0  0  0  0  0  0  0  0  0  0  0
   -0.0637    0.1284    1.8555 C   0  0  0  0  0  0  0  0  0  0  0  0
    1.0918   -0.0745    2.2236 O   0  0  0  0  0  0  0  0  0  0  0  0
   -1.0024    0.6217    2.6735 N   0  0  0  0  0  0  0  0  0  0  0  0
   -1.9213    0.7848    2.2938 H   0  0  0  0  0  0  0  0  0  0  0  0
   -0.7639    0.9676    4.0741 C   0  0  0  0  0  0  0  0  0  0  0  0
    0.0520    1.6916    4.1400 H   0  0  0  0  0  0  0  0  0  0  0  0
   -1.6626    1.3984    4.5182 H   0  0  0  0  0  0  0  0  0  0  0  0
   -0.4775    0.0737    4.6309 H   0  0  0  0  0  0  0  0  0  0  0  0
  5  6  2  0  0  0  0
  5  7  1  0  0  0  0
  2  3  1  0  0  0  0
  2  4  1  0  0  0  0
  2  5  1  0  0  0  0
  1  2  1  0  0  0  0
 22 23  2  0  0  0  0
 22 24  1  0  0  0  0
 19 20  1  0  0  0  0
 19 21  1  0  0  0  0
 17 18  2  0  0  0  0
 17 19  1  0  0  0  0
 14 15  1  0  0  0  0
 14 16  1  0  0  0  0
 14 17  1  0  0  0  0
 11 12  1  0  0  0  0
 11 13  1  0  0  0  0
 11 14  1  0  0  0  0
  9 10  1  0  0  0  0
  9 11  1  0  0  0  0
  9 22  1  0  0  0  0
  7  8  1  0  0  0  0
  7  9  1  0  0  0  0
 26 27  1  0  0  0  0
 26 28  1  0  0  0  0
 26 29  1  0  0  0  0
 24 25  1  0  0  0  0
 24 26  1  0  0  0  0
M  END
$$$$
default_name
  -OEChem-02102213163D

 29 28  0     1  0  0  0  0  0999 V2000
   -3.3998   -3.6239    1.3678 H   0  0  0  0  0  0  0  0  0  0  0  0
   -3.3608   -2.6749    0.8348 C   0  0  0  0  0  0  0  0  0  0  0  0
   -4.0988   -1.9909    1.2498 H   0  0  0  0  0  0  0  0  0  0  0  0
   -3.5618   -2.8419   -0.2222 H   0  0  0  0  0  0  0  0  0  0  0  0
   -1.9818   -2.0809    0.9918 C   0  0  0  0  0  0  0  0  0  0  0  0
   -1.1288   -2.6669    1.6468 O   0  0  0  0  0  0  0  0  0  0  0  0
   -1.7648   -0.9089    0.3998 N   0  0  0  0  0  0  0  0  0  0  0  0
   -2.5238   -0.4719   -0.1032 H   0  0  0  0  0  0  0  0  0  0  0  0
   -0.4848   -0.1959    0.4138 C   0  0  1  0  0  0  0  0  0  0  0  0
    0.2783   -0.8411   -0.0248 H   0  0  0  0  0  0  0  0  0  0  0  0
   -0.6101    1.0666   -0.4611 C   0  0  0  0  0  0  0  0  0  0  0  0
    0.3682    1.2815   -0.8960 H   0  0  0  0  0  0  0  0  0  0  0  0
   -1.3092    0.8683   -1.2750 H   0  0  0  0  0  0  0  0  0  0  0  0
   -1.0830    2.3124    0.3081 C   0  0  0  0  0  0  0  0  0  0  0  0
   -0.2201    2.8573    0.6903 H   0  0  0  0  0  0  0  0  0  0  0  0
   -1.6311    2.9624   -0.3739 H   0  0  0  0  0  0  0  0  0  0  0  0
   -1.9928    1.9798    1.4906 C   0  0  0  0  0  0  0  0  0  0  0  0
   -2.3671    0.8515    1.7502 O   0  0  0  0  0  0  0  0  0  0  0  0
   -2.3861    2.9611    2.2732 N   0  0  0  0  0  0  0  0  0  0  0  0
   -2.9816    2.6857    3.0349 H   0  0  0  0  0  0  0  0  0  0  0  0
   -2.1057    3.9063    2.1068 H   0  0  0  0  0  0  0  0  0  0  0  0
   -0.0637    0.1284    1.8555 C   0  0  0  0  0  0  0  0  0  0  0  0
    1.0918   -0.0745    2.2236 O   0  0  0  0  0  0  0  0  0  0  0  0
   -1.0024    0.6217    2.6735 N   0  0  0  0  0  0  0  0  0  0  0  0
   -1.9213    0.7848    2.2938 H   0  0  0  0  0  0  0  0  0  0  0  0
   -0.7639    0.9676    4.0741 C   0  0  0  0  0  0  0  0  0  0  0  0
    0.0520    1.6916    4.1400 H   0  0  0  0  0  0  0  0  0  0  0  0
   -1.6626    1.3984    4.5182 H   0  0  0  0  0  0  0  0  0  0  0  0
   -0.4775    0.0737    4.6309 H   0  0  0  0  0  0  0  0  0  0  0  0
  5  6  2  0  0  0  0
  5  7  1  0  0  0  0
  2  3  1  0  0  0  0
  2  4  1  0  0  0  0
  2  5  1  0  0  0  0
  1  2  1  0  0  0  0
 22 23  2  0  0  0  0
 22 24  1  0  0  0  0
 19 20  1  0  0  0  0
 19 21  1  0  0  0  0
 17 18  2  0  0  0  0
 17 19  1  0  0  0  0
 14 15  1  0  0  0  0
 14 16  1  0  0  0  0
 14 17  1  0  0  0  0
 11 12  1  0  0  0  0
 11 13  1  0  0  0  0
 11 14  1  0  0  0  0
  9 10  1  0  0  0  0
  9 11  1  0  0  0  0
  9 22  1  0  0  0  0
  7  8  1  0  0  0  0
  7  9  1  0  0  0  0
 26 27  1  0  0  0  0
 26 28  1  0  0  0  0
 26 29  1  0  0  0  0
 24 25  1  0  0  0  0
 24 26  1  0  0  0  0
M  END
$$$$
default_name
  -OEChem-02102213163D

 29 28  0     1  0  0  0  0  0999 V2000
   -3.3998   -3.6239    1.3678 H   0  0  0  0  0  0  0  0  0  0  0  0
   -3.3608   -2.6749    0.8348 C   0  0  0  0  0  0  0  0  0  0  0  0
   -4.0988   -1.9909    1.2498 H   0  0  0  0  0  0  0  0  0  0  0  0
   -3.5618   -2.8419   -0.2222 H   0  0  0  0  0  0  0  0  0  0  0  0
   -1.9818   -2.0809    0.9918 C   0  0  0  0  0  0  0  0  0  0  0  0
   -1.1288   -2.6669    1.6468 O   0  0  0  0  0  0  0  0  0  0  0  0
   -1.7648   -0.9089    0.3998 N   0  0  0  0  0  0  0  0  0  0  0  0
   -2.5238   -0.4719   -0.1032 H   0  0  0  0  0  0  0  0  0  0  0  0
   -0.4848   -0.1959    0.4138 C   0  0  1  0  0  0  0  0  0  0  0  0
    0.2783   -0.8411   -0.0248 H   0  0  0  0  0  0  0  0  0  0  0  0
   -0.6101    1.0666   -0.4611 C   0  0  0  0  0  0  0  0  0  0  0  0
    0.3682    1.2815   -0.8960 H   0  0  0  0  0  0  0  0  0  0  0  0
   -1.3092    0.8683   -1.2750 H   0  0  0  0  0  0  0  0  0  0  0  0
   -1.0830    2.3124    0.3081 C   0  0  0  0  0  0  0  0  0  0  0  0
   -0.2437    2.9910    0.4594 H   0  0  0  0  0  0  0  0  0  0  0  0
   -1.8432    2.8249   -0.2815 H   0  0  0  0  0  0  0  0  0  0  0  0
   -1.6773    1.9840    1.6777 C   0  0  0  0  0  0  0  0  0  0  0  0
   -1.8314    0.8479    2.0852 O   0  0  0  0  0  0  0  0  0  0  0  0
   -2.0338    2.9793    2.4603 N   0  0  0  0  0  0  0  0  0  0  0  0
   -2.4173    2.7062    3.3484 H   0  0  0  0  0  0  0  0  0  0  0  0
   -1.9264    3.9318    2.1757 H   0  0  0  0  0  0  0  0  0  0  0  0
   -0.0637    0.1284    1.8555 C   0  0  0  0  0  0  0  0  0  0  0  0
    1.0918   -0.0745    2.2236 O   0  0  0  0  0  0  0  0  0  0  0  0
   -1.0024    0.6217    2.6735 N   0  0  0  0  0  0  0  0  0  0  0  0
   -1.9213    0.7848    2.2938 H   0  0  0  0  0  0  0  0  0  0  0  0
   -0.7639    0.9676    4.0741 C   0  0  0  0  0  0  0  0  0  0  0  0
    0.0520    1.6916    4.1400 H   0  0  0  0  0  0  0  0  0  0  0  0
   -1.6626    1.3984    4.5182 H   0  0  0  0  0  0  0  0  0  0  0  0
   -0.4775    0.0737    4.6309 H   0  0  0  0  0  0  0  0  0  0  0  0
  5  6  2  0  0  0  0
  5  7  1  0  0  0  0
  2  3  1  0  0  0  0
  2  4  1  0  0  0  0
  2  5  1  0  0  0  0
  1  2  1  0  0  0  0
 22 23  2  0  0  0  0
 22 24  1  0  0  0  0
 19 20  1  0  0  0  0
 19 21  1  0  0  0  0
 17 18  2  0  0  0  0
 17 19  1  0  0  0  0
 14 15  1  0  0  0  0
 14 16  1  0  0  0  0
 14 17  1  0  0  0  0
 11 12  1  0  0  0  0
 11 13  1  0  0  0  0
 11 14  1  0  0  0  0
  9 10  1  0  0  0  0
  9 11  1  0  0  0  0
  9 22  1  0  0  0  0
  7  8  1  0  0  0  0
  7  9  1  0  0  0  0
 26 27  1  0  0  0  0
 26 28  1  0  0  0  0
 26 29  1  0  0  0  0
 24 25  1  0  0  0  0
 24 26  1  0  0  0  0
M  END
$$$$
default_name
  -OEChem-02102213163D

 29 28  0     1  0  0  0  0  0999 V2000
   -3.3998   -3.6239    1.3678 H   0  0  0  0  0  0  0  0  0  0  0  0
   -3.3608   -2.6749    0.8348 C   0  0  0  0  0  0  0  0  0  0  0  0
   -4.0988   -1.9909    1.2498 H   0  0  0  0  0  0  0  0  0  0  0  0
   -3.5618   -2.8419   -0.2222 H   0  0  0  0  0  0  0  0  0  0  0  0
   -1.9818   -2.0809    0.9918 C   0  0  0  0  0  0  0  0  0  0  0  0
   -1.1288   -2.6669    1.6468 O   0  0  0  0  0  0  0  0  0  0  0  0
   -1.7648   -0.9089    0.3998 N   0  0  0  0  0  0  0  0  0  0  0  0
   -2.5238   -0.4719   -0.1032 H   0  0  0  0  0  0  0  0  0  0  0  0
   -0.4848   -0.1959    0.4138 C   0  0  1  0  0  0  0  0  0  0  0  0
    0.2783   -0.8411   -0.0248 H   0  0  0  0  0  0  0  0  0  0  0  0
   -0.6101    1.0666   -0.4611 C   0  0  0  0  0  0  0  0  0  0  0  0
    0.3682    1.2815   -0.8960 H   0  0  0  0  0  0  0  0  0  0  0  0
   -1.3092    0.8683   -1.2750 H   0  0  0  0  0  0  0  0  0  0  0  0
   -1.0830    2.3124    0.3081 C   0  0  0  0  0  0  0  0  0  0  0  0
   -0.3323    3.0986    0.2306 H   0  0  0  0  0  0  0  0  0  0  0  0
   -2.0108    2.6719   -0.1368 H   0  0  0  0  0  0  0  0  0  0  0  0
   -1.3338    2.0438    1.7919 C   0  0  0  0  0  0  0  0  0  0  0  0
   -1.2433    0.9405    2.2968 O   0  0  0  0  0  0  0  0  0  0  0  0
   -1.6567    3.0574    2.5657 N   0  0  0  0  0  0  0  0  0  0  0  0
   -1.8092    2.8241    3.5315 H   0  0  0  0  0  0  0  0  0  0  0  0
   -1.7420    3.9851    2.2027 H   0  0  0  0  0  0  0  0  0  0  0  0
   -0.0637    0.1284    1.8555 C   0  0  0  0  0  0  0  0  0  0  0  0
    1.0918   -0.0745    2.2236 O   0  0  0  0  0  0  0  0  0  0  0  0
   -1.0024    0.6217    2.6735 N   0  0  0  0  0  0  0  0  0  0  0  0
   -1.9213    0.7848    2.2938 H   0  0  0  0  0  0  0  0  0  0  0  0
   -0.7639    0.9676    4.0741 C   0  0  0  0  0  0  0  0  0  0  0  0
    0.0520    1.6916    4.1400 H   0  0  0  0  0  0  0  0  0  0  0  0
   -1.6626    1.3984    4.5182 H   0  0  0  0  0  0  0  0  0  0  0  0
   -0.4775    0.0737    4.6309 H   0  0  0  0  0  0  0  0  0  0  0  0
  5  6  2  0  0  0  0
  5  7  1  0  0  0  0
  2  3  1  0  0  0  0
  2  4  1  0  0  0  0
  2  5  1  0  0  0  0
  1  2  1  0  0  0  0
 22 23  2  0  0  0  0
 22 24  1  0  0  0  0
 19 20  1  0  0  0  0
 19 21  1  0  0  0  0
 17 18  2  0  0  0  0
 17 19  1  0  0  0  0
 14 15  1  0  0  0  0
 14 16  1  0  0  0  0
 14 17  1  0  0  0  0
 11 12  1  0  0  0  0
 11 13  1  0  0  0  0
 11 14  1  0  0  0  0
  9 10  1  0  0  0  0
  9 11  1  0  0  0  0
  9 22  1  0  0  0  0
  7  8  1  0  0  0  0
  7  9  1  0  0  0  0
 26 27  1  0  0  0  0
 26 28  1  0  0  0  0
 26 29  1  0  0  0  0
 24 25  1  0  0  0  0
 24 26  1  0  0  0  0
M  END
$$$$
default_name
  -OEChem-02102213163D

 29 28  0     1  0  0  0  0  0999 V2000
   -3.3998   -3.6239    1.3678 H   0  0  0  0  0  0  0  0  0  0  0  0
   -3.3608   -2.6749    0.8348 C   0  0  0  0  0  0  0  0  0  0  0  0
   -4.0988   -1.9909    1.2498 H   0  0  0  0  0  0  0  0  0  0  0  0
   -3.5618   -2.8419   -0.2222 H   0  0  0  0  0  0  0  0  0  0  0  0
   -1.9818   -2.0809    0.9918 C   0  0  0  0  0  0  0  0  0  0  0  0
   -1.1288   -2.6669    1.6468 O   0  0  0  0  0  0  0  0  0  0  0  0
   -1.7648   -0.9089    0.3998 N   0  0  0  0  0  0  0  0  0  0  0  0
   -2.5238   -0.4719   -0.1032 H   0  0  0  0  0  0  0  0  0  0  0  0
   -0.4848   -0.1959    0.4138 C   0  0  1  0  0  0  0  0  0  0  0  0
    0.2783   -0.8411   -0.0248 H   0  0  0  0  0  0  0  0  0  0  0  0
   -0.6101    1.0666   -0.4611 C   0  0  0  0  0  0  0  0  0  0  0  0
    0.3682    1.2815   -0.8960 H   0  0  0  0  0  0  0  0  0  0  0  0
   -1.3092    0.8683   -1.2750 H   0  0  0  0  0  0  0  0  0  0  0  0
   -1.0830    2.3124    0.3081 C   0  0  0  0  0  0  0  0  0  0  0  0
   -0.4797    3.1729    0.0197 H   0  0  0  0  0  0  0  0  0  0  0  0
   -2.1227    2.5140    0.0502 H   0  0  0  0  0  0  0  0  0  0  0  0
   -0.9859    2.1552    1.8255 C   0  0  0  0  0  0  0  0  0  0  0  0
   -0.6429    1.1228    2.3706 O   0  0  0  0  0  0  0  0  0  0  0  0
   -1.2804    3.1900    2.5822 N   0  0  0  0  0  0  0  0  0  0  0  0
   -1.1987    3.0311    3.5714 H   0  0  0  0  0  0  0  0  0  0  0  0
   -1.5652    4.0626    2.1859 H   0  0  0  0  0  0  0  0  0  0  0  0
   -0.0637    0.1284    1.8555 C   0  0  0  0  0  0  0  0  0  0  0  0
    1.0918   -0.0745    2.2236 O   0  0  0  0  0  0  0  0  0  0  0  0
   -1.0024    0.6217    2.6735 N   0  0  0  0  0  0  0  0  0  0  0  0
   -1.9213    0.7848    2.2938 H   0  0  0  0  0  0  0  0  0  0  0  0
   -0.7639    0.9676    4.0741 C   0  0  0  0  0  0  0  0  0  0  0  0
    0.0520    1.6916    4.1400 H   0  0  0  0  0  0  0  0  0  0  0  0
   -1.6626    1.3984    4.5182 H   0  0  0  0  0  0  0  0  0  0  0  0
   -0.4775    0.0737    4.6309 H   0  0  0  0  0  0  0  0  0  0  0  0
  5  6  2  0  0  0  0
  5  7  1  0  0  0  0
  2  3  1  0  0  0  0
  2  4  1  0  0  0  0
  2  5  1  0  0  0  0
  1  2  1  0  0  0  0
 22 23  2  0  0  0  0
 22 24  1  0  0  0  0
 19 20  1  0  0  0  0
 19 21  1  0  0  0  0
 17 18  2  0  0  0  0
 17 19  1  0  0  0  0
 14 15  1  0  0  0  0
 14 16  1  0  0  0  0
 14 17  1  0  0  0  0
 11 12  1  0  0  0  0
 11 13  1  0  0  0  0
 11 14  1  0  0  0  0
  9 10  1  0  0  0  0
  9 11  1  0  0  0  0
  9 22  1  0  0  0  0
  7  8  1  0  0  0  0
  7  9  1  0  0  0  0
 26 27  1  0  0  0  0
 26 28  1  0  0  0  0
 26 29  1  0  0  0  0
 24 25  1  0  0  0  0
 24 26  1  0  0  0  0
M  END
$$$$
default_name
  -OEChem-02102213163D

 29 28  0     1  0  0  0  0  0999 V2000
   -3.3998   -3.6239    1.3678 H   0  0  0  0  0  0  0  0  0  0  0  0
   -3.3608   -2.6749    0.8348 C   0  0  0  0  0  0  0  0  0  0  0  0
   -4.0988   -1.9909    1.2498 H   0  0  0  0  0  0  0  0  0  0  0  0
   -3.5618   -2.8419   -0.2222 H   0  0  0  0  0  0  0  0  0  0  0  0
   -1.9818   -2.0809    0.9918 C   0  0  0  0  0  0  0  0  0  0  0  0
   -1.1288   -2.6669    1.6468 O   0  0  0  0  0  0  0  0  0  0  0  0
   -1.7648   -0.9089    0.3998 N   0  0  0  0  0  0  0  0  0  0  0  0
   -2.5238   -0.4719   -0.1032 H   0  0  0  0  0  0  0  0  0  0  0  0
   -0.4848   -0.1959    0.4138 C   0  0  1  0  0  0  0  0  0  0  0  0
    0.2783   -0.8411   -0.0248 H   0  0  0  0  0  0  0  0  0  0  0  0
   -0.6101    1.0666   -0.4611 C   0  0  0  0  0  0  0  0  0  0  0  0
    0.3682    1.2815   -0.8960 H   0  0  0  0  0  0  0  0  0  0  0  0
   -1.3092    0.8683   -1.2750 H   0  0  0  0  0  0  0  0  0  0  0  0
   -1.0830    2.3124    0.3081 C   0  0  0  0  0  0  0  0  0  0  0  0
   -0.6759    3.2089   -0.1591 H   0  0  0  0  0  0  0  0  0  0  0  0
   -2.1711    2.3618    0.2669 H   0  0  0  0  0  0  0  0  0  0  0  0
   -0.6572    2.3104    1.7762 C   0  0  0  0  0  0  0  0  0  0  0  0
   -0.0710    1.3825    2.3016 O   0  0  0  0  0  0  0  0  0  0  0  0
   -0.9307    3.3681    2.5088 N   0  0  0  0  0  0  0  0  0  0  0  0
   -0.6275    3.3132    3.4656 H   0  0  0  0  0  0  0  0  0  0  0  0
   -1.4080    4.1590    2.1264 H   0  0  0  0  0  0  0  0  0  0  0  0
   -0.0637    0.1284    1.8555 C   0  0  0  0  0  0  0  0  0  0  0  0
    1.0918   -0.0745    2.2236 O   0  0  0  0  0  0  0  0  0  0  0  0
   -1.0024    0.6217    2.6735 N   0  0  0  0  0  0  0  0  0  0  0  0
   -1.9213    0.7848    2.2938 H   0  0  0  0  0  0  0  0  0  0  0  0
   -0.7639    0.9676    4.0741 C   0  0  0  0  0  0  0  0  0  0  0  0
    0.0520    1.6916    4.1400 H   0  0  0  0  0  0  0  0  0  0  0  0
   -1.6626    1.3984    4.5182 H   0  0  0  0  0  0  0  0  0  0  0  0
   -0.4775    0.0737    4.6309 H   0  0  0  0  0  0  0  0  0  0  0  0
  5  6  2  0  0  0  0
  5  7  1  0  0  0  0
  2  3  1  0  0  0  0
  2  4  1  0  0  0  0
  2  5  1  0  0  0  0
  1  2  1  0  0  0  0
 22 23  2  0  0  0  0
 22 24  1  0  0  0  0
 19 20  1  0  0  0  0
 19 21  1  0  0  0  0
 17 18  2  0  0  0  0
 17 19  1  0  0  0  0
 14 15  1  0  0  0  0
 14 16  1  0  0  0  0
 14 17  1  0  0  0  0
 11 12  1  0  0  0  0
 11 13  1  0  0  0  0
 11 14  1  0  0  0  0
  9 10  1  0  0  0  0
  9 11  1  0  0  0  0
  9 22  1  0  0  0  0
  7  8  1  0  0  0  0
  7  9  1  0  0  0  0
 26 27  1  0  0  0  0
 26 28  1  0  0  0  0
 26 29  1  0  0  0  0
 24 25  1  0  0  0  0
 24 26  1  0  0  0  0
M  END
$$$$
default_name
  -OEChem-02102213163D

 29 28  0     1  0  0  0  0  0999 V2000
   -3.3998   -3.6239    1.3678 H   0  0  0  0  0  0  0  0  0  0  0  0
   -3.3608   -2.6749    0.8348 C   0  0  0  0  0  0  0  0  0  0  0  0
   -4.0988   -1.9909    1.2498 H   0  0  0  0  0  0  0  0  0  0  0  0
   -3.5618   -2.8419   -0.2222 H   0  0  0  0  0  0  0  0  0  0  0  0
   -1.9818   -2.0809    0.9918 C   0  0  0  0  0  0  0  0  0  0  0  0
   -1.1288   -2.6669    1.6468 O   0  0  0  0  0  0  0  0  0  0  0  0
   -1.7648   -0.9089    0.3998 N   0  0  0  0  0  0  0  0  0  0  0  0
   -2.5238   -0.4719   -0.1032 H   0  0  0  0  0  0  0  0  0  0  0  0
   -0.4848   -0.1959    0.4138 C   0  0  1  0  0  0  0  0  0  0  0  0
    0.2783   -0.8411   -0.0248 H   0  0  0  0  0  0  0  0  0  0  0  0
   -0.6101    1.0666   -0.4611 C   0  0  0  0  0  0  0  0  0  0  0  0
    0.3682    1.2815   -0.8960 H   0  0  0  0  0  0  0  0  0  0  0  0
   -1.3092    0.8683   -1.2750 H   0  0  0  0  0  0  0  0  0  0  0  0
   -1.0830    2.3124    0.3081 C   0  0  0  0  0  0  0  0  0  0  0  0
   -0.9075    3.2040   -0.2936 H   0  0  0  0  0  0  0  0  0  0  0  0
   -2.1527    2.2258    0.4984 H   0  0  0  0  0  0  0  0  0  0  0  0
   -0.3700    2.4989    1.6474 C   0  0  0  0  0  0  0  0  0  0  0  0
    0.4333    1.7018    2.0944 O   0  0  0  0  0  0  0  0  0  0  0  0
   -0.6312    3.5795    2.3504 N   0  0  0  0  0  0  0  0  0  0  0  0
   -0.1343    3.6513    3.2213 H   0  0  0  0  0  0  0  0  0  0  0  0
   -1.2810    4.2678    2.0283 H   0  0  0  0  0  0  0  0  0  0  0  0
   -0.0637    0.1284    1.8555 C   0  0  0  0  0  0  0  0  0  0  0  0
    1.0918   -0.0745    2.2236 O   0  0  0  0  0  0  0  0  0  0  0  0
   -1.0024    0.6217    2.6735 N   0  0  0  0  0  0  0  0  0  0  0  0
   -1.9213    0.7848    2.2938 H   0  0  0  0  0  0  0  0  0  0  0  0
   -0.7639    0.9676    4.0741 C   0  0  0  0  0  0  0  0  0  0  0  0
    0.0520    1.6916    4.1400 H   0  0  0  0  0  0  0  0  0  0  0  0
   -1.6626    1.3984    4.5182 H   0  0  0  0  0  0  0  0  0  0  0  0
   -0.4775    0.0737    4.6309 H   0  0  0  0  0  0  0  0  0  0  0  0
  5  6  2  0  0  0  0
  5  7  1  0  0  0  0
  2  3  1  0  0  0  0
  2  4  1  0  0  0  0
  2  5  1  0  0  0  0
  1  2  1  0  0  0  0
 22 23  2  0  0  0  0
 22 24  1  0  0  0  0
 19 20  1  0  0  0  0
 19 21  1  0  0  0  0
 17 18  2  0  0  0  0
 17 19  1  0  0  0  0
 14 15  1  0  0  0  0
 14 16  1  0  0  0  0
 14 17  1  0  0  0  0
 11 12  1  0  0  0  0
 11 13  1  0  0  0  0
 11 14  1  0  0  0  0
  9 10  1  0  0  0  0
  9 11  1  0  0  0  0
  9 22  1  0  0  0  0
  7  8  1  0  0  0  0
  7  9  1  0  0  0  0
 26 27  1  0  0  0  0
 26 28  1  0  0  0  0
 26 29  1  0  0  0  0
 24 25  1  0  0  0  0
 24 26  1  0  0  0  0
M  END
$$$$
default_name
  -OEChem-02102213163D

 29 28  0     1  0  0  0  0  0999 V2000
   -3.3998   -3.6239    1.3678 H   0  0  0  0  0  0  0  0  0  0  0  0
   -3.3608   -2.6749    0.8348 C   0  0  0  0  0  0  0  0  0  0  0  0
   -4.0988   -1.9909    1.2498 H   0  0  0  0  0  0  0  0  0  0  0  0
   -3.5618   -2.8419   -0.2222 H   0  0  0  0  0  0  0  0  0  0  0  0
   -1.9818   -2.0809    0.9918 C   0  0  0  0  0  0  0  0  0  0  0  0
   -1.1288   -2.6669    1.6468 O   0  0  0  0  0  0  0  0  0  0  0  0
   -1.7648   -0.9089    0.3998 N   0  0  0  0  0  0  0  0  0  0  0  0
   -2.5238   -0.4719   -0.1032 H   0  0  0  0  0  0  0  0  0  0  0  0
   -0.4848   -0.1959    0.4138 C   0  0  1  0  0  0  0  0  0  0  0  0
    0.2783   -0.8411   -0.0248 H   0  0  0  0  0  0  0  0  0  0  0  0
   -0.6101    1.0666   -0.4611 C   0  0  0  0  0  0  0  0  0  0  0  0
    0.3682    1.2815   -0.8960 H   0  0  0  0  0  0  0  0  0  0  0  0
   -1.3092    0.8683   -1.2750 H   0  0  0  0  0  0  0  0  0  0  0  0
   -1.0830    2.3124    0.3081 C   0  0  0  0  0  0  0  0  0  0  0  0
   -1.1588    3.1586   -0.3745 H   0  0  0  0  0  0  0  0  0  0  0  0
   -2.0689    2.1153    0.7290 H   0  0  0  0  0  0  0  0  0  0  0  0
   -0.1441    2.7079    1.4477 C   0  0  0  0  0  0  0  0  0  0  0  0
    0.8357    2.0591    1.7632 O   0  0  0  0  0  0  0  0  0  0  0  0
   -0.4026    3.8099    2.1179 N   0  0  0  0  0  0  0  0  0  0  0  0
    0.2470    4.0222    2.8550 H   0  0  0  0  0  0  0  0  0  0  0  0
   -1.1930    4.3815    1.8983 H   0  0  0  0  0  0  0  0  0  0  0  0
   -0.0637    0.1284    1.8555 C   0  0  0  0  0  0  0  0  0  0  0  0
    1.0918   -0.0745    2.2236 O   0  0  0  0  0  0  0  0  0  0  0  0
   -1.0024    0.6217    2.6735 N   0  0  0  0  0  0  0  0  0  0  0  0
   -1.9213    0.7848    2.2938 H   0  0  0  0  0  0  0  0  0  0  0  0
   -0.7639    0.9676    4.0741 C   0  0  0  0  0  0  0  0  0  0  0  0
    0.0520    1.6916    4.1400 H   0  0  0  0  0  0  0  0  0  0  0  0
   -1.6626    1.3984    4.5182 H   0  0  0  0  0  0  0  0  0  0  0  0
   -0.4775    0.0737    4.6309 H   0  0  0  0  0  0  0  0  0  0  0  0
  5  6  2  0  0  0  0
  5  7  1  0  0  0  0
  2  3  1  0  0  0  0
  2  4  1  0  0  0  0
  2  5  1  0  0  0  0
  1  2  1  0  0  0  0
 22 23  2  0  0  0  0
 22 24  1  0  0  0  0
 19 20  1  0  0  0  0
 19 21  1  0  0  0  0
 17 18  2  0  0  0  0
 17 19  1  0  0  0  0
 14 15  1  0  0  0  0
 14 16  1  0  0  0  0
 14 17  1  0  0  0  0
 11 12  1  0  0  0  0
 11 13  1  0  0  0  0
 11 14  1  0  0  0  0
  9 10  1  0  0  0  0
  9 11  1  0  0  0  0
  9 22  1  0  0  0  0
  7  8  1  0  0  0  0
  7  9  1  0  0  0  0
 26 27  1  0  0  0  0
 26 28  1  0  0  0  0
 26 29  1  0  0  0  0
 24 25  1  0  0  0  0
 24 26  1  0  0  0  0
M  END
$$$$
default_name
  -OEChem-02102213163D

 29 28  0     1  0  0  0  0  0999 V2000
   -3.3998   -3.6239    1.3678 H   0  0  0  0  0  0  0  0  0  0  0  0
   -3.3608   -2.6749    0.8348 C   0  0  0  0  0  0  0  0  0  0  0  0
   -4.0988   -1.9909    1.2498 H   0  0  0  0  0  0  0  0  0  0  0  0
   -3.5618   -2.8419   -0.2222 H   0  0  0  0  0  0  0  0  0  0  0  0
   -1.9818   -2.0809    0.9918 C   0  0  0  0  0  0  0  0  0  0  0  0
   -1.1288   -2.6669    1.6468 O   0  0  0  0  0  0  0  0  0  0  0  0
   -1.7648   -0.9089    0.3998 N   0  0  0  0  0  0  0  0  0  0  0  0
   -2.5238   -0.4719   -0.1032 H   0  0  0  0  0  0  0  0  0  0  0  0
   -0.4848   -0.1959    0.4138 C   0  0  1  0  0  0  0  0  0  0  0  0
    0.2783   -0.8411   -0.0248 H   0  0  0  0  0  0  0  0  0  0  0  0
   -0.6101    1.0666   -0.4611 C   0  0  0  0  0  0  0  0  0  0  0  0
    0.3682    1.2815   -0.8960 H   0  0  0  0  0  0  0  0  0  0  0  0
   -1.3092    0.8683   -1.2750 H   0  0  0  0  0  0  0  0  0  0  0  0
   -1.0830    2.3124    0.3081 C   0  0  0  0  0  0  0  0  0  0  0  0
   -1.4126    3.0757   -0.3964 H   0  0  0  0  0  0  0  0  0  0  0  0
   -1.9253    2.0376    0.9430 H   0  0  0  0  0  0  0  0  0  0  0  0
    0.0053    2.9232    1.1909 C   0  0  0  0  0  0  0  0  0  0  0  0
    1.1088    2.4299    1.3305 O   0  0  0  0  0  0  0  0  0  0  0  0
   -0.2603    4.0435    1.8270 N   0  0  0  0  0  0  0  0  0  0  0  0
    0.4907    4.4007    2.3918 H   0  0  0  0  0  0  0  0  0  0  0  0
   -1.1500    4.4923    1.7453 H   0  0  0  0  0  0  0  0  0  0  0  0
   -0.0637    0.1284    1.8555 C   0  0  0  0  0  0  0  0  0  0  0  0
    1.0918   -0.0745    2.2236 O   0  0  0  0  0  0  0  0  0  0  0  0
   -1.0024    0.6217    2.6735 N   0  0  0  0  0  0  0  0  0  0  0  0
   -1.9213    0.7848    2.2938 H   0  0  0  0  0  0  0  0  0  0  0  0
   -0.7639    0.9676    4.0741 C   0  0  0  0  0  0  0  0  0  0  0  0
    0.0520    1.6916    4.1400 H   0  0  0  0  0  0  0  0  0  0  0  0
   -1.6626    1.3984    4.5182 H   0  0  0  0  0  0  0  0  0  0  0  0
   -0.4775    0.0737    4.6309 H   0  0  0  0  0  0  0  0  0  0  0  0
  5  6  2  0  0  0  0
  5  7  1  0  0  0  0
  2  3  1  0  0  0  0
  2  4  1  0  0  0  0
  2  5  1  0  0  0  0
  1  2  1  0  0  0  0
 22 23  2  0  0  0  0
 22 24  1  0  0  0  0
 19 20  1  0  0  0  0
 19 21  1  0  0  0  0
 17 18  2  0  0  0  0
 17 19  1  0  0  0  0
 14 15  1  0  0  0  0
 14 16  1  0  0  0  0
 14 17  1  0  0  0  0
 11 12  1  0  0  0  0
 11 13  1  0  0  0  0
 11 14  1  0  0  0  0
  9 10  1  0  0  0  0
  9 11  1  0  0  0  0
  9 22  1  0  0  0  0
  7  8  1  0  0  0  0
  7  9  1  0  0  0  0
 26 27  1  0  0  0  0
 26 28  1  0  0  0  0
 26 29  1  0  0  0  0
 24 25  1  0  0  0  0
 24 26  1  0  0  0  0
M  END
$$$$
default_name
  -OEChem-02102213163D

 29 28  0     1  0  0  0  0  0999 V2000
   -3.3998   -3.6239    1.3678 H   0  0  0  0  0  0  0  0  0  0  0  0
   -3.3608   -2.6749    0.8348 C   0  0  0  0  0  0  0  0  0  0  0  0
   -4.0988   -1.9909    1.2498 H   0  0  0  0  0  0  0  0  0  0  0  0
   -3.5618   -2.8419   -0.2222 H   0  0  0  0  0  0  0  0  0  0  0  0
   -1.9818   -2.0809    0.9918 C   0  0  0  0  0  0  0  0  0  0  0  0
   -1.1288   -2.6669    1.6468 O   0  0  0  0  0  0  0  0  0  0  0  0
   -1.7648   -0.9089    0.3998 N   0  0  0  0  0  0  0  0  0  0  0  0
   -2.5238   -0.4719   -0.1032 H   0  0  0  0  0  0  0  0  0  0  0  0
   -0.4848   -0.1959    0.4138 C   0  0  1  0  0  0  0  0  0  0  0  0
    0.2783   -0.8411   -0.0248 H   0  0  0  0  0  0  0  0  0  0  0  0
   -0.6101    1.0666   -0.4611 C   0  0  0  0  0  0  0  0  0  0  0  0
    0.3682    1.2815   -0.8960 H   0  0  0  0  0  0  0  0  0  0  0  0
   -1.3092    0.8683   -1.2750 H   0  0  0  0  0  0  0  0  0  0  0  0
   -1.0830    2.3124    0.3081 C   0  0  0  0  0  0  0  0  0  0  0  0
   -1.6516    2.9612   -0.3578 H   0  0  0  0  0  0  0  0  0  0  0  0
   -1.7317    1.9983    1.1258 H   0  0  0  0  0  0  0  0  0  0  0  0
    0.0678    3.1300    0.8945 C   0  0  0  0  0  0  0  0  0  0  0  0
    1.2338    2.7889    0.8259 O   0  0  0  0  0  0  0  0  0  0  0  0
   -0.2140    4.2644    1.4977 N   0  0  0  0  0  0  0  0  0  0  0  0
    0.5800    4.7609    1.8633 H   0  0  0  0  0  0  0  0  0  0  0  0
   -1.1548    4.5927    1.5796 H   0  0  0  0  0  0  0  0  0  0  0  0
   -0.0637    0.1284    1.8555 C   0  0  0  0  0  0  0  0  0  0  0  0
    1.0918   -0.0745    2.2236 O   0  0  0  0  0  0  0  0  0  0  0  0
   -1.0024    0.6217    2.6735 N   0  0  0  0  0  0  0  0  0  0  0  0
   -1.9213    0.7848    2.2938 H   0  0  0  0  0  0  0  0  0  0  0  0
   -0.7639    0.9676    4.0741 C   0  0  0  0  0  0  0  0  0  0  0  0
    0.0520    1.6916    4.1400 H   0  0  0  0  0  0  0  0  0  0  0  0
   -1.6626    1.3984    4.5182 H   0  0  0  0  0  0  0  0  0  0  0  0
   -0.4775    0.0737    4.6309 H   0  0  0  0  0  0  0  0  0  0  0  0
  5  6  2  0  0  0  0
  5  7  1  0  0  0  0
  2  3  1  0  0  0  0
  2  4  1  0  0  0  0
  2  5  1  0  0  0  0
  1  2  1  0  0  0  0
 22 23  2  0  0  0  0
 22 24  1  0  0  0  0
 19 20  1  0  0  0  0
 19 21  1  0  0  0  0
 17 18  2  0  0  0  0
 17 19  1  0  0  0  0
 14 15  1  0  0  0  0
 14 16  1  0  0  0  0
 14 17  1  0  0  0  0
 11 12  1  0  0  0  0
 11 13  1  0  0  0  0
 11 14  1  0  0  0  0
  9 10  1  0  0  0  0
  9 11  1  0  0  0  0
  9 22  1  0  0  0  0
  7  8  1  0  0  0  0
  7  9  1  0  0  0  0
 26 27  1  0  0  0  0
 26 28  1  0  0  0  0
 26 29  1  0  0  0  0
 24 25  1  0  0  0  0
 24 26  1  0  0  0  0
M  END
$$$$
default_name
  -OEChem-02102213163D

 29 28  0     1  0  0  0  0  0999 V2000
   -3.3998   -3.6239    1.3678 H   0  0  0  0  0  0  0  0  0  0  0  0
   -3.3608   -2.6749    0.8348 C   0  0  0  0  0  0  0  0  0  0  0  0
   -4.0988   -1.9909    1.2498 H   0  0  0  0  0  0  0  0  0  0  0  0
   -3.5618   -2.8419   -0.2222 H   0  0  0  0  0  0  0  0  0  0  0  0
   -1.9818   -2.0809    0.9918 C   0  0  0  0  0  0  0  0  0  0  0  0
   -1.1288   -2.6669    1.6468 O   0  0  0  0  0  0  0  0  0  0  0  0
   -1.7648   -0.9089    0.3998 N   0  0  0  0  0  0  0  0  0  0  0  0
   -2.5238   -0.4719   -0.1032 H   0  0  0  0  0  0  0  0  0  0  0  0
   -0.4848   -0.1959    0.4138 C   0  0  1  0  0  0  0  0  0  0  0  0
    0.2783   -0.8411   -0.0248 H   0  0  0  0  0  0  0  0  0  0  0  0
   -0.6101    1.0666   -0.4611 C   0  0  0  0  0  0  0  0  0  0  0  0
    0.3682    1.2815   -0.8960 H   0  0  0  0  0  0  0  0  0  0  0  0
   -1.3092    0.8683   -1.2750 H   0  0  0  0  0  0  0  0  0  0  0  0
   -1.0830    2.3124    0.3081 C   0  0  0  0  0  0  0  0  0  0  0  0
   -1.8596    2.8227   -0.2613 H   0  0  0  0  0  0  0  0  0  0  0  0
   -1.5013    1.9998    1.2649 H   0  0  0  0  0  0  0  0  0  0  0  0
    0.0394    3.3143    0.5785 C   0  0  0  0  0  0  0  0  0  0  0  0
    1.2025    3.1118    0.2837 O   0  0  0  0  0  0  0  0  0  0  0  0
   -0.2668    4.4576    1.1522 N   0  0  0  0  0  0  0  0  0  0  0  0
    0.5088    5.0784    1.3053 H   0  0  0  0  0  0  0  0  0  0  0  0
   -1.2072    4.6760    1.4126 H   0  0  0  0  0  0  0  0  0  0  0  0
   -0.0637    0.1284    1.8555 C   0  0  0  0  0  0  0  0  0  0  0  0
    1.0918   -0.0745    2.2236 O   0  0  0  0  0  0  0  0  0  0  0  0
   -1.0024    0.6217    2.6735 N   0  0  0  0  0  0  0  0  0  0  0  0
   -1.9213    0.7848    2.2938 H   0  0  0  0  0  0  0  0  0  0  0  0
   -0.7639    0.9676    4.0741 C   0  0  0  0  0  0  0  0  0  0  0  0
    0.0520    1.6916    4.1400 H   0  0  0  0  0  0  0  0  0  0  0  0
   -1.6626    1.3984    4.5182 H   0  0  0  0  0  0  0  0  0  0  0  0
   -0.4775    0.0737    4.6309 H   0  0  0  0  0  0  0  0  0  0  0  0
  5  6  2  0  0  0  0
  5  7  1  0  0  0  0
  2  3  1  0  0  0  0
  2  4  1  0  0  0  0
  2  5  1  0  0  0  0
  1  2  1  0  0  0  0
 22 23  2  0  0  0  0
 22 24  1  0  0  0  0
 19 20  1  0  0  0  0
 19 21  1  0  0  0  0
 17 18  2  0  0  0  0
 17 19  1  0  0  0  0
 14 15  1  0  0  0  0
 14 16  1  0  0  0  0
 14 17  1  0  0  0  0
 11 12  1  0  0  0  0
 11 13  1  0  0  0  0
 11 14  1  0  0  0  0
  9 10  1  0  0  0  0
  9 11  1  0  0  0  0
  9 22  1  0  0  0  0
  7  8  1  0  0  0  0
  7  9  1  0  0  0  0
 26 27  1  0  0  0  0
 26 28  1  0  0  0  0
 26 29  1  0  0  0  0
 24 25  1  0  0  0  0
 24 26  1  0  0  0  0
M  END
$$$$
default_name
  -OEChem-02102213163D

 29 28  0     1  0  0  0  0  0999 V2000
   -3.3998   -3.6239    1.3678 H   0  0  0  0  0  0  0  0  0  0  0  0
   -3.3608   -2.6749    0.8348 C   0  0  0  0  0  0  0  0  0  0  0  0
   -4.0988   -1.9909    1.2498 H   0  0  0  0  0  0  0  0  0  0  0  0
   -3.5618   -2.8419   -0.2222 H   0  0  0  0  0  0  0  0  0  0  0  0
   -1.9818   -2.0809    0.9918 C   0  0  0  0  0  0  0  0  0  0  0  0
   -1.1288   -2.6669    1.6468 O   0  0  0  0  0  0  0  0  0  0  0  0
   -1.7648   -0.9089    0.3998 N   0  0  0  0  0  0  0  0  0  0  0  0
   -2.5238   -0.4719   -0.1032 H   0  0  0  0  0  0  0  0  0  0  0  0
   -0.4848   -0.1959    0.4138 C   0  0  1  0  0  0  0  0  0  0  0  0
    0.2783   -0.8411   -0.0248 H   0  0  0  0  0  0  0  0  0  0  0  0
   -0.6101    1.0666   -0.4611 C   0  0  0  0  0  0  0  0  0  0  0  0
    0.3682    1.2815   -0.8960 H   0  0  0  0  0  0  0  0  0  0  0  0
   -1.3092    0.8683   -1.2750 H   0  0  0  0  0  0  0  0  0  0  0  0
   -1.0830    2.3124    0.3081 C   0  0  0  0  0  0  0  0  0  0  0  0
   -2.0223    2.6696   -0.1135 H   0  0  0  0  0  0  0  0  0  0  0  0
   -1.2498    2.0422    1.3508 H   0  0  0  0  0  0  0  0  0  0  0  0
   -0.0781    3.4635    0.2646 C   0  0  0  0  0  0  0  0  0  0  0  0
    1.0167    3.3765   -0.2592 O   0  0  0  0  0  0  0  0  0  0  0  0
   -0.4153    4.6099    0.8143 N   0  0  0  0  0  0  0  0  0  0  0  0
    0.2821    5.3315    0.7561 H   0  0  0  0  0  0  0  0  0  0  0  0
   -1.3036    4.7363    1.2557 H   0  0  0  0  0  0  0  0  0  0  0  0
   -0.0637    0.1284    1.8555 C   0  0  0  0  0  0  0  0  0  0  0  0
    1.0918   -0.0745    2.2236 O   0  0  0  0  0  0  0  0  0  0  0  0
   -1.0024    0.6217    2.6735 N   0  0  0  0  0  0  0  0  0  0  0  0
   -1.9213    0.7848    2.2938 H   0  0  0  0  0  0  0  0  0  0  0  0
   -0.7639    0.9676    4.0741 C   0  0  0  0  0  0  0  0  0  0  0  0
    0.0520    1.6916    4.1400 H   0  0  0  0  0  0  0  0  0  0  0  0
   -1.6626    1.3984    4.5182 H   0  0  0  0  0  0  0  0  0  0  0  0
   -0.4775    0.0737    4.6309 H   0  0  0  0  0  0  0  0  0  0  0  0
  5  6  2  0  0  0  0
  5  7  1  0  0  0  0
  2  3  1  0  0  0  0
  2  4  1  0  0  0  0
  2  5  1  0  0  0  0
  1  2  1  0  0  0  0
 22 23  2  0  0  0  0
 22 24  1  0  0  0  0
 19 20  1  0  0  0  0
 19 21  1  0  0  0  0
 17 18  2  0  0  0  0
 17 19  1  0  0  0  0
 14 15  1  0  0  0  0
 14 16  1  0  0  0  0
 14 17  1  0  0  0  0
 11 12  1  0  0  0  0
 11 13  1  0  0  0  0
 11 14  1  0  0  0  0
  9 10  1  0  0  0  0
  9 11  1  0  0  0  0
  9 22  1  0  0  0  0
  7  8  1  0  0  0  0
  7  9  1  0  0  0  0
 26 27  1  0  0  0  0
 26 28  1  0  0  0  0
 26 29  1  0  0  0  0
 24 25  1  0  0  0  0
 24 26  1  0  0  0  0
M  END
$$$$
default_name
  -OEChem-02102213163D

 29 28  0     1  0  0  0  0  0999 V2000
   -3.3998   -3.6239    1.3678 H   0  0  0  0  0  0  0  0  0  0  0  0
   -3.3608   -2.6749    0.8348 C   0  0  0  0  0  0  0  0  0  0  0  0
   -4.0988   -1.9909    1.2498 H   0  0  0  0  0  0  0  0  0  0  0  0
   -3.5618   -2.8419   -0.2222 H   0  0  0  0  0  0  0  0  0  0  0  0
   -1.9818   -2.0809    0.9918 C   0  0  0  0  0  0  0  0  0  0  0  0
   -1.1288   -2.6669    1.6468 O   0  0  0  0  0  0  0  0  0  0  0  0
   -1.7648   -0.9089    0.3998 N   0  0  0  0  0  0  0  0  0  0  0  0
   -2.5238   -0.4719   -0.1032 H   0  0  0  0  0  0  0  0  0  0  0  0
   -0.4848   -0.1959    0.4138 C   0  0  1  0  0  0  0  0  0  0  0  0
    0.2783   -0.8411   -0.0248 H   0  0  0  0  0  0  0  0  0  0  0  0
   -0.6101    1.0666   -0.4611 C   0  0  0  0  0  0  0  0  0  0  0  0
    0.3682    1.2815   -0.8960 H   0  0  0  0  0  0  0  0  0  0  0  0
   -1.3092    0.8683   -1.2750 H   0  0  0  0  0  0  0  0  0  0  0  0
   -1.0830    2.3124    0.3081 C   0  0  0  0  0  0  0  0  0  0  0  0
   -2.1287    2.5125    0.0756 H   0  0  0  0  0  0  0  0  0  0  0  0
   -0.9944    2.1225    1.3778 H   0  0  0  0  0  0  0  0  0  0  0  0
   -0.2767    3.5674   -0.0258 C   0  0  0  0  0  0  0  0  0  0  0  0
    0.6893    3.5650   -0.7656 O   0  0  0  0  0  0  0  0  0  0  0  0
   -0.6493    4.7110    0.5069 N   0  0  0  0  0  0  0  0  0  0  0  0
   -0.0847    5.5030    0.2529 H   0  0  0  0  0  0  0  0  0  0  0  0
   -1.4373    4.7696    1.1194 H   0  0  0  0  0  0  0  0  0  0  0  0
   -0.0637    0.1284    1.8555 C   0  0  0  0  0  0  0  0  0  0  0  0
    1.0918   -0.0745    2.2236 O   0  0  0  0  0  0  0  0  0  0  0  0
   -1.0024    0.6217    2.6735 N   0  0  0  0  0  0  0  0  0  0  0  0
   -1.9213    0.7848    2.2938 H   0  0  0  0  0  0  0  0  0  0  0  0
   -0.7639    0.9676    4.0741 C   0  0  0  0  0  0  0  0  0  0  0  0
    0.0520    1.6916    4.1400 H   0  0  0  0  0  0  0  0  0  0  0  0
   -1.6626    1.3984    4.5182 H   0  0  0  0  0  0  0  0  0  0  0  0
   -0.4775    0.0737    4.6309 H   0  0  0  0  0  0  0  0  0  0  0  0
  5  6  2  0  0  0  0
  5  7  1  0  0  0  0
  2  3  1  0  0  0  0
  2  4  1  0  0  0  0
  2  5  1  0  0  0  0
  1  2  1  0  0  0  0
 22 23  2  0  0  0  0
 22 24  1  0  0  0  0
 19 20  1  0  0  0  0
 19 21  1  0  0  0  0
 17 18  2  0  0  0  0
 17 19  1  0  0  0  0
 14 15  1  0  0  0  0
 14 16  1  0  0  0  0
 14 17  1  0  0  0  0
 11 12  1  0  0  0  0
 11 13  1  0  0  0  0
 11 14  1  0  0  0  0
  9 10  1  0  0  0  0
  9 11  1  0  0  0  0
  9 22  1  0  0  0  0
  7  8  1  0  0  0  0
  7  9  1  0  0  0  0
 26 27  1  0  0  0  0
 26 28  1  0  0  0  0
 26 29  1  0  0  0  0
 24 25  1  0  0  0  0
 24 26  1  0  0  0  0
M  END
$$$$
default_name
  -OEChem-02102213163D

 29 28  0     1  0  0  0  0  0999 V2000
   -3.3998   -3.6239    1.3678 H   0  0  0  0  0  0  0  0  0  0  0  0
   -3.3608   -2.6749    0.8348 C   0  0  0  0  0  0  0  0  0  0  0  0
   -4.0988   -1.9909    1.2498 H   0  0  0  0  0  0  0  0  0  0  0  0
   -3.5618   -2.8419   -0.2222 H   0  0  0  0  0  0  0  0  0  0  0  0
   -1.9818   -2.0809    0.9918 C   0  0  0  0  0  0  0  0  0  0  0  0
   -1.1288   -2.6669    1.6468 O   0  0  0  0  0  0  0  0  0  0  0  0
   -1.7648   -0.9089    0.3998 N   0  0  0  0  0  0  0  0  0  0  0  0
   -2.5238   -0.4719   -0.1032 H   0  0  0  0  0  0  0  0  0  0  0  0
   -0.4848   -0.1959    0.4138 C   0  0  1  0  0  0  0  0  0  0  0  0
    0.2783   -0.8411   -0.0248 H   0  0  0  0  0  0  0  0  0  0  0  0
   -0.6101    1.0666   -0.4611 C   0  0  0  0  0  0  0  0  0  0  0  0
    0.3682    1.2815   -0.8960 H   0  0  0  0  0  0  0  0  0  0  0  0
   -1.3092    0.8683   -1.2750 H   0  0  0  0  0  0  0  0  0  0  0  0
   -1.0830    2.3124    0.3081 C   0  0  0  0  0  0  0  0  0  0  0  0
   -2.1716    2.3620    0.2930 H   0  0  0  0  0  0  0  0  0  0  0  0
   -0.7524    2.2353    1.3439 H   0  0  0  0  0  0  0  0  0  0  0  0
   -0.5428    3.6190   -0.2730 C   0  0  0  0  0  0  0  0  0  0  0  0
    0.2425    3.6643   -1.2012 O   0  0  0  0  0  0  0  0  0  0  0  0
   -0.9527    4.7538    0.2510 N   0  0  0  0  0  0  0  0  0  0  0  0
   -0.5667    5.5811   -0.1699 H   0  0  0  0  0  0  0  0  0  0  0  0
   -1.5994    4.7737    1.0133 H   0  0  0  0  0  0  0  0  0  0  0  0
   -0.0637    0.1284    1.8555 C   0  0  0  0  0  0  0  0  0  0  0  0
    1.0918   -0.0745    2.2236 O   0  0  0  0  0  0  0  0  0  0  0  0
   -1.0024    0.6217    2.6735 N   0  0  0  0  0  0  0  0  0  0  0  0
   -1.9213    0.7848    2.2938 H   0  0  0  0  0  0  0  0  0  0  0  0
   -0.7639    0.9676    4.0741 C   0  0  0  0  0  0  0  0  0  0  0  0
    0.0520    1.6916    4.1400 H   0  0  0  0  0  0  0  0  0  0  0  0
   -1.6626    1.3984    4.5182 H   0  0  0  0  0  0  0  0  0  0  0  0
   -0.4775    0.0737    4.6309 H   0  0  0  0  0  0  0  0  0  0  0  0
  5  6  2  0  0  0  0
  5  7  1  0  0  0  0
  2  3  1  0  0  0  0
  2  4  1  0  0  0  0
  2  5  1  0  0  0  0
  1  2  1  0  0  0  0
 22 23  2  0  0  0  0
 22 24  1  0  0  0  0
 19 20  1  0  0  0  0
 19 21  1  0  0  0  0
 17 18  2  0  0  0  0
 17 19  1  0  0  0  0
 14 15  1  0  0  0  0
 14 16  1  0  0  0  0
 14 17  1  0  0  0  0
 11 12  1  0  0  0  0
 11 13  1  0  0  0  0
 11 14  1  0  0  0  0
  9 10  1  0  0  0  0
  9 11  1  0  0  0  0
  9 22  1  0  0  0  0
  7  8  1  0  0  0  0
  7  9  1  0  0  0  0
 26 27  1  0  0  0  0
 26 28  1  0  0  0  0
 26 29  1  0  0  0  0
 24 25  1  0  0  0  0
 24 26  1  0  0  0  0
M  END
$$$$
default_name
  -OEChem-02102213163D

 29 28  0     1  0  0  0  0  0999 V2000
   -3.3998   -3.6239    1.3678 H   0  0  0  0  0  0  0  0  0  0  0  0
   -3.3608   -2.6749    0.8348 C   0  0  0  0  0  0  0  0  0  0  0  0
   -4.0988   -1.9909    1.2498 H   0  0  0  0  0  0  0  0  0  0  0  0
   -3.5618   -2.8419   -0.2222 H   0  0  0  0  0  0  0  0  0  0  0  0
   -1.9818   -2.0809    0.9918 C   0  0  0  0  0  0  0  0  0  0  0  0
   -1.1288   -2.6669    1.6468 O   0  0  0  0  0  0  0  0  0  0  0  0
   -1.7648   -0.9089    0.3998 N   0  0  0  0  0  0  0  0  0  0  0  0
   -2.5238   -0.4719   -0.1032 H   0  0  0  0  0  0  0  0  0  0  0  0
   -0.4848   -0.1959    0.4138 C   0  0  1  0  0  0  0  0  0  0  0  0
    0.2783   -0.8411   -0.0248 H   0  0  0  0  0  0  0  0  0  0  0  0
   -0.6101    1.0666   -0.4611 C   0  0  0  0  0  0  0  0  0  0  0  0
    0.3682    1.2815   -0.8960 H   0  0  0  0  0  0  0  0  0  0  0  0
   -1.3092    0.8683   -1.2750 H   0  0  0  0  0  0  0  0  0  0  0  0
   -1.0830    2.3124    0.3081 C   0  0  0  0  0  0  0  0  0  0  0  0
   -2.1479    2.2284    0.5239 H   0  0  0  0  0  0  0  0  0  0  0  0
   -0.5403    2.3729    1.2514 H   0  0  0  0  0  0  0  0  0  0  0  0
   -0.8584    3.6148   -0.4600 C   0  0  0  0  0  0  0  0  0  0  0  0
   -0.2932    3.6679   -1.5363 O   0  0  0  0  0  0  0  0  0  0  0  0
   -1.3050    4.7356    0.0639 N   0  0  0  0  0  0  0  0  0  0  0  0
   -1.1310    5.5605   -0.4835 H   0  0  0  0  0  0  0  0  0  0  0  0
   -1.7787    4.7482    0.9443 H   0  0  0  0  0  0  0  0  0  0  0  0
   -0.0637    0.1284    1.8555 C   0  0  0  0  0  0  0  0  0  0  0  0
    1.0918   -0.0745    2.2236 O   0  0  0  0  0  0  0  0  0  0  0  0
   -1.0024    0.6217    2.6735 N   0  0  0  0  0  0  0  0  0  0  0  0
   -1.9213    0.7848    2.2938 H   0  0  0  0  0  0  0  0  0  0  0  0
   -0.7639    0.9676    4.0741 C   0  0  0  0  0  0  0  0  0  0  0  0
    0.0520    1.6916    4.1400 H   0  0  0  0  0  0  0  0  0  0  0  0
   -1.6626    1.3984    4.5182 H   0  0  0  0  0  0  0  0  0  0  0  0
   -0.4775    0.0737    4.6309 H   0  0  0  0  0  0  0  0  0  0  0  0
  5  6  2  0  0  0  0
  5  7  1  0  0  0  0
  2  3  1  0  0  0  0
  2  4  1  0  0  0  0
  2  5  1  0  0  0  0
  1  2  1  0  0  0  0
 22 23  2  0  0  0  0
 22 24  1  0  0  0  0
 19 20  1  0  0  0  0
 19 21  1  0  0  0  0
 17 18  2  0  0  0  0
 17 19  1  0  0  0  0
 14 15  1  0  0  0  0
 14 16  1  0  0  0  0
 14 17  1  0  0  0  0
 11 12  1  0  0  0  0
 11 13  1  0  0  0  0
 11 14  1  0  0  0  0
  9 10  1  0  0  0  0
  9 11  1  0  0  0  0
  9 22  1  0  0  0  0
  7  8  1  0  0  0  0
  7  9  1  0  0  0  0
 26 27  1  0  0  0  0
 26 28  1  0  0  0  0
 26 29  1  0  0  0  0
 24 25  1  0  0  0  0
 24 26  1  0  0  0  0
M  END
$$$$
default_name
  -OEChem-02102213163D

 29 28  0     1  0  0  0  0  0999 V2000
   -3.3998   -3.6239    1.3678 H   0  0  0  0  0  0  0  0  0  0  0  0
   -3.3608   -2.6749    0.8348 C   0  0  0  0  0  0  0  0  0  0  0  0
   -4.0988   -1.9909    1.2498 H   0  0  0  0  0  0  0  0  0  0  0  0
   -3.5618   -2.8419   -0.2222 H   0  0  0  0  0  0  0  0  0  0  0  0
   -1.9818   -2.0809    0.9918 C   0  0  0  0  0  0  0  0  0  0  0  0
   -1.1288   -2.6669    1.6468 O   0  0  0  0  0  0  0  0  0  0  0  0
   -1.7648   -0.9089    0.3998 N   0  0  0  0  0  0  0  0  0  0  0  0
   -2.5238   -0.4719   -0.1032 H   0  0  0  0  0  0  0  0  0  0  0  0
   -0.4848   -0.1959    0.4138 C   0  0  1  0  0  0  0  0  0  0  0  0
    0.2783   -0.8411   -0.0248 H   0  0  0  0  0  0  0  0  0  0  0  0
   -0.6101    1.0666   -0.4611 C   0  0  0  0  0  0  0  0  0  0  0  0
    0.2732    1.1309   -1.0998 H   0  0  0  0  0  0  0  0  0  0  0  0
   -1.4880    0.9706   -1.1018 H   0  0  0  0  0  0  0  0  0  0  0  0
   -0.7225    2.3730    0.3439 C   0  0  0  0  0  0  0  0  0  0  0  0
   -1.5986    2.3315    0.9907 H   0  0  0  0  0  0  0  0  0  0  0  0
    0.1653    2.4822    0.9667 H   0  0  0  0  0  0  0  0  0  0  0  0
   -0.8460    3.6148   -0.5390 C   0  0  0  0  0  0  0  0  0  0  0  0
   -0.7841    3.5810   -1.7537 O   0  0  0  0  0  0  0  0  0  0  0  0
   -1.0368    4.7794    0.0419 N   0  0  0  0  0  0  0  0  0  0  0  0
   -1.1117    5.5610   -0.5857 H   0  0  0  0  0  0  0  0  0  0  0  0
   -1.0980    4.8632    1.0364 H   0  0  0  0  0  0  0  0  0  0  0  0
   -0.0637    0.1284    1.8555 C   0  0  0  0  0  0  0  0  0  0  0  0
    1.0918   -0.0745    2.2236 O   0  0  0  0  0  0  0  0  0  0  0  0
   -1.0024    0.6217    2.6735 N   0  0  0  0  0  0  0  0  0  0  0  0
   -1.9213    0.7848    2.2938 H   0  0  0  0  0  0  0  0  0  0  0  0
   -0.7639    0.9676    4.0741 C   0  0  0  0  0  0  0  0  0  0  0  0
    0.0520    1.6916    4.1400 H   0  0  0  0  0  0  0  0  0  0  0  0
   -1.6626    1.3984    4.5182 H   0  0  0  0  0  0  0  0  0  0  0  0
   -0.4775    0.0737    4.6309 H   0  0  0  0  0  0  0  0  0  0  0  0
  5  6  2  0  0  0  0
  5  7  1  0  0  0  0
  2  3  1  0  0  0  0
  2  4  1  0  0  0  0
  2  5  1  0  0  0  0
  1  2  1  0  0  0  0
 22 23  2  0  0  0  0
 22 24  1  0  0  0  0
 19 20  1  0  0  0  0
 19 21  1  0  0  0  0
 17 18  2  0  0  0  0
 17 19  1  0  0  0  0
 14 15  1  0  0  0  0
 14 16  1  0  0  0  0
 14 17  1  0  0  0  0
 11 12  1  0  0  0  0
 11 13  1  0  0  0  0
 11 14  1  0  0  0  0
  9 10  1  0  0  0  0
  9 11  1  0  0  0  0
  9 22  1  0  0  0  0
  7  8  1  0  0  0  0
  7  9  1  0  0  0  0
 26 27  1  0  0  0  0
 26 28  1  0  0  0  0
 26 29  1  0  0  0  0
 24 25  1  0  0  0  0
 24 26  1  0  0  0  0
M  END
$$$$
default_name
  -OEChem-02102213163D

 29 28  0     1  0  0  0  0  0999 V2000
   -3.3998   -3.6239    1.3678 H   0  0  0  0  0  0  0  0  0  0  0  0
   -3.3608   -2.6749    0.8348 C   0  0  0  0  0  0  0  0  0  0  0  0
   -4.0988   -1.9909    1.2498 H   0  0  0  0  0  0  0  0  0  0  0  0
   -3.5618   -2.8419   -0.2222 H   0  0  0  0  0  0  0  0  0  0  0  0
   -1.9818   -2.0809    0.9918 C   0  0  0  0  0  0  0  0  0  0  0  0
   -1.1288   -2.6669    1.6468 O   0  0  0  0  0  0  0  0  0  0  0  0
   -1.7648   -0.9089    0.3998 N   0  0  0  0  0  0  0  0  0  0  0  0
   -2.5238   -0.4719   -0.1032 H   0  0  0  0  0  0  0  0  0  0  0  0
   -0.4848   -0.1959    0.4138 C   0  0  1  0  0  0  0  0  0  0  0  0
    0.2783   -0.8411   -0.0248 H   0  0  0  0  0  0  0  0  0  0  0  0
   -0.6101    1.0666   -0.4611 C   0  0  0  0  0  0  0  0  0  0  0  0
    0.2732    1.1309   -1.0998 H   0  0  0  0  0  0  0  0  0  0  0  0
   -1.4880    0.9706   -1.1018 H   0  0  0  0  0  0  0  0  0  0  0  0
   -0.7225    2.3730    0.3439 C   0  0  0  0  0  0  0  0  0  0  0  0
   -1.4218    2.2371    1.1686 H   0  0  0  0  0  0  0  0  0  0  0  0
    0.2563    2.6207    0.7547 H   0  0  0  0  0  0  0  0  0  0  0  0
   -1.2055    3.5564   -0.4945 C   0  0  0  0  0  0  0  0  0  0  0  0
   -1.4064    3.4899   -1.6927 O   0  0  0  0  0  0  0  0  0  0  0  0
   -1.4231    4.7043    0.1099 N   0  0  0  0  0  0  0  0  0  0  0  0
   -1.7400    5.4472   -0.4886 H   0  0  0  0  0  0  0  0  0  0  0  0
   -1.2765    4.8130    1.0929 H   0  0  0  0  0  0  0  0  0  0  0  0
   -0.0637    0.1284    1.8555 C   0  0  0  0  0  0  0  0  0  0  0  0
    1.0918   -0.0745    2.2236 O   0  0  0  0  0  0  0  0  0  0  0  0
   -1.0024    0.6217    2.6735 N   0  0  0  0  0  0  0  0  0  0  0  0
   -1.9213    0.7848    2.2938 H   0  0  0  0  0  0  0  0  0  0  0  0
   -0.7639    0.9676    4.0741 C   0  0  0  0  0  0  0  0  0  0  0  0
    0.0520    1.6916    4.1400 H   0  0  0  0  0  0  0  0  0  0  0  0
   -1.6626    1.3984    4.5182 H   0  0  0  0  0  0  0  0  0  0  0  0
   -0.4775    0.0737    4.6309 H   0  0  0  0  0  0  0  0  0  0  0  0
  5  6  2  0  0  0  0
  5  7  1  0  0  0  0
  2  3  1  0  0  0  0
  2  4  1  0  0  0  0
  2  5  1  0  0  0  0
  1  2  1  0  0  0  0
 22 23  2  0  0  0  0
 22 24  1  0  0  0  0
 19 20  1  0  0  0  0
 19 21  1  0  0  0  0
 17 18  2  0  0  0  0
 17 19  1  0  0  0  0
 14 15  1  0  0  0  0
 14 16  1  0  0  0  0
 14 17  1  0  0  0  0
 11 12  1  0  0  0  0
 11 13  1  0  0  0  0
 11 14  1  0  0  0  0
  9 10  1  0  0  0  0
  9 11  1  0  0  0  0
  9 22  1  0  0  0  0
  7  8  1  0  0  0  0
  7  9  1  0  0  0  0
 26 27  1  0  0  0  0
 26 28  1  0  0  0  0
 26 29  1  0  0  0  0
 24 25  1  0  0  0  0
 24 26  1  0  0  0  0
M  END
$$$$
default_name
  -OEChem-02102213163D

 29 28  0     1  0  0  0  0  0999 V2000
   -3.3998   -3.6239    1.3678 H   0  0  0  0  0  0  0  0  0  0  0  0
   -3.3608   -2.6749    0.8348 C   0  0  0  0  0  0  0  0  0  0  0  0
   -4.0988   -1.9909    1.2498 H   0  0  0  0  0  0  0  0  0  0  0  0
   -3.5618   -2.8419   -0.2222 H   0  0  0  0  0  0  0  0  0  0  0  0
   -1.9818   -2.0809    0.9918 C   0  0  0  0  0  0  0  0  0  0  0  0
   -1.1288   -2.6669    1.6468 O   0  0  0  0  0  0  0  0  0  0  0  0
   -1.7648   -0.9089    0.3998 N   0  0  0  0  0  0  0  0  0  0  0  0
   -2.5238   -0.4719   -0.1032 H   0  0  0  0  0  0  0  0  0  0  0  0
   -0.4848   -0.1959    0.4138 C   0  0  1  0  0  0  0  0  0  0  0  0
    0.2783   -0.8411   -0.0248 H   0  0  0  0  0  0  0  0  0  0  0  0
   -0.6101    1.0666   -0.4611 C   0  0  0  0  0  0  0  0  0  0  0  0
    0.2732    1.1309   -1.0998 H   0  0  0  0  0  0  0  0  0  0  0  0
   -1.4880    0.9706   -1.1018 H   0  0  0  0  0  0  0  0  0  0  0  0
   -0.7225    2.3730    0.3439 C   0  0  0  0  0  0  0  0  0  0  0  0
   -1.1993    2.1732    1.3033 H   0  0  0  0  0  0  0  0  0  0  0  0
    0.2788    2.7628    0.5272 H   0  0  0  0  0  0  0  0  0  0  0  0
   -1.5350    3.4523   -0.3714 C   0  0  0  0  0  0  0  0  0  0  0  0
   -1.9817    3.3188   -1.4954 O   0  0  0  0  0  0  0  0  0  0  0  0
   -1.7711    4.5808    0.2618 N   0  0  0  0  0  0  0  0  0  0  0  0
   -2.3102    5.2540   -0.2546 H   0  0  0  0  0  0  0  0  0  0  0  0
   -1.4296    4.7415    1.1877 H   0  0  0  0  0  0  0  0  0  0  0  0
   -0.0637    0.1284    1.8555 C   0  0  0  0  0  0  0  0  0  0  0  0
    1.0918   -0.0745    2.2236 O   0  0  0  0  0  0  0  0  0  0  0  0
   -1.0024    0.6217    2.6735 N   0  0  0  0  0  0  0  0  0  0  0  0
   -1.9213    0.7848    2.2938 H   0  0  0  0  0  0  0  0  0  0  0  0
   -0.7639    0.9676    4.0741 C   0  0  0  0  0  0  0  0  0  0  0  0
    0.0520    1.6916    4.1400 H   0  0  0  0  0  0  0  0  0  0  0  0
   -1.6626    1.3984    4.5182 H   0  0  0  0  0  0  0  0  0  0  0  0
   -0.4775    0.0737    4.6309 H   0  0  0  0  0  0  0  0  0  0  0  0
  5  6  2  0  0  0  0
  5  7  1  0  0  0  0
  2  3  1  0  0  0  0
  2  4  1  0  0  0  0
  2  5  1  0  0  0  0
  1  2  1  0  0  0  0
 22 23  2  0  0  0  0
 22 24  1  0  0  0  0
 19 20  1  0  0  0  0
 19 21  1  0  0  0  0
 17 18  2  0  0  0  0
 17 19  1  0  0  0  0
 14 15  1  0  0  0  0
 14 16  1  0  0  0  0
 14 17  1  0  0  0  0
 11 12  1  0  0  0  0
 11 13  1  0  0  0  0
 11 14  1  0  0  0  0
  9 10  1  0  0  0  0
  9 11  1  0  0  0  0
  9 22  1  0  0  0  0
  7  8  1  0  0  0  0
  7  9  1  0  0  0  0
 26 27  1  0  0  0  0
 26 28  1  0  0  0  0
 26 29  1  0  0  0  0
 24 25  1  0  0  0  0
 24 26  1  0  0  0  0
M  END
$$$$
default_name
  -OEChem-02102213163D

 29 28  0     1  0  0  0  0  0999 V2000
   -3.3998   -3.6239    1.3678 H   0  0  0  0  0  0  0  0  0  0  0  0
   -3.3608   -2.6749    0.8348 C   0  0  0  0  0  0  0  0  0  0  0  0
   -4.0988   -1.9909    1.2498 H   0  0  0  0  0  0  0  0  0  0  0  0
   -3.5618   -2.8419   -0.2222 H   0  0  0  0  0  0  0  0  0  0  0  0
   -1.9818   -2.0809    0.9918 C   0  0  0  0  0  0  0  0  0  0  0  0
   -1.1288   -2.6669    1.6468 O   0  0  0  0  0  0  0  0  0  0  0  0
   -1.7648   -0.9089    0.3998 N   0  0  0  0  0  0  0  0  0  0  0  0
   -2.5238   -0.4719   -0.1032 H   0  0  0  0  0  0  0  0  0  0  0  0
   -0.4848   -0.1959    0.4138 C   0  0  1  0  0  0  0  0  0  0  0  0
    0.2783   -0.8411   -0.0248 H   0  0  0  0  0  0  0  0  0  0  0  0
   -0.6101    1.0666   -0.4611 C   0  0  0  0  0  0  0  0  0  0  0  0
    0.2732    1.1309   -1.0998 H   0  0  0  0  0  0  0  0  0  0  0  0
   -1.4880    0.9706   -1.1018 H   0  0  0  0  0  0  0  0  0  0  0  0
   -0.7225    2.3730    0.3439 C   0  0  0  0  0  0  0  0  0  0  0  0
   -0.9461    2.1442    1.3857 H   0  0  0  0  0  0  0  0  0  0  0  0
    0.2313    2.8988    0.2999 H   0  0  0  0  0  0  0  0  0  0  0  0
   -1.8122    3.3094   -0.1782 C   0  0  0  0  0  0  0  0  0  0  0  0
   -2.4709    3.0793   -1.1750 O   0  0  0  0  0  0  0  0  0  0  0  0
   -2.0571    4.4172    0.4873 N   0  0  0  0  0  0  0  0  0  0  0  0
   -2.7833    4.9946    0.1004 H   0  0  0  0  0  0  0  0  0  0  0  0
   -1.5471    4.6534    1.3142 H   0  0  0  0  0  0  0  0  0  0  0  0
   -0.0637    0.1284    1.8555 C   0  0  0  0  0  0  0  0  0  0  0  0
    1.0918   -0.0745    2.2236 O   0  0  0  0  0  0  0  0  0  0  0  0
   -1.0024    0.6217    2.6735 N   0  0  0  0  0  0  0  0  0  0  0  0
   -1.9213    0.7848    2.2938 H   0  0  0  0  0  0  0  0  0  0  0  0
   -0.7639    0.9676    4.0741 C   0  0  0  0  0  0  0  0  0  0  0  0
    0.0520    1.6916    4.1400 H   0  0  0  0  0  0  0  0  0  0  0  0
   -1.6626    1.3984    4.5182 H   0  0  0  0  0  0  0  0  0  0  0  0
   -0.4775    0.0737    4.6309 H   0  0  0  0  0  0  0  0  0  0  0  0
  5  6  2  0  0  0  0
  5  7  1  0  0  0  0
  2  3  1  0  0  0  0
  2  4  1  0  0  0  0
  2  5  1  0  0  0  0
  1  2  1  0  0  0  0
 22 23  2  0  0  0  0
 22 24  1  0  0  0  0
 19 20  1  0  0  0  0
 19 21  1  0  0  0  0
 17 18  2  0  0  0  0
 17 19  1  0  0  0  0
 14 15  1  0  0  0  0
 14 16  1  0  0  0  0
 14 17  1  0  0  0  0
 11 12  1  0  0  0  0
 11 13  1  0  0  0  0
 11 14  1  0  0  0  0
  9 10  1  0  0  0  0
  9 11  1  0  0  0  0
  9 22  1  0  0  0  0
  7  8  1  0  0  0  0
  7  9  1  0  0  0  0
 26 27  1  0  0  0  0
 26 28  1  0  0  0  0
 26 29  1  0  0  0  0
 24 25  1  0  0  0  0
 24 26  1  0  0  0  0
M  END
$$$$
default_name
  -OEChem-02102213163D

 29 28  0     1  0  0  0  0  0999 V2000
   -3.3998   -3.6239    1.3678 H   0  0  0  0  0  0  0  0  0  0  0  0
   -3.3608   -2.6749    0.8348 C   0  0  0  0  0  0  0  0  0  0  0  0
   -4.0988   -1.9909    1.2498 H   0  0  0  0  0  0  0  0  0  0  0  0
   -3.5618   -2.8419   -0.2222 H   0  0  0  0  0  0  0  0  0  0  0  0
   -1.9818   -2.0809    0.9918 C   0  0  0  0  0  0  0  0  0  0  0  0
   -1.1288   -2.6669    1.6468 O   0  0  0  0  0  0  0  0  0  0  0  0
   -1.7648   -0.9089    0.3998 N   0  0  0  0  0  0  0  0  0  0  0  0
   -2.5238   -0.4719   -0.1032 H   0  0  0  0  0  0  0  0  0  0  0  0
   -0.4848   -0.1959    0.4138 C   0  0  1  0  0  0  0  0  0  0  0  0
    0.2783   -0.8411   -0.0248 H   0  0  0  0  0  0  0  0  0  0  0  0
   -0.6101    1.0666   -0.4611 C   0  0  0  0  0  0  0  0  0  0  0  0
    0.2732    1.1309   -1.0998 H   0  0  0  0  0  0  0  0  0  0  0  0
   -1.4880    0.9706   -1.1018 H   0  0  0  0  0  0  0  0  0  0  0  0
   -0.7225    2.3730    0.3439 C   0  0  0  0  0  0  0  0  0  0  0  0
   -0.6794    2.1520    1.4102 H   0  0  0  0  0  0  0  0  0  0  0  0
    0.1170    3.0195    0.0881 H   0  0  0  0  0  0  0  0  0  0  0  0
   -2.0180    3.1374    0.0721 C   0  0  0  0  0  0  0  0  0  0  0  0
   -2.8406    2.7879   -0.7536 O   0  0  0  0  0  0  0  0  0  0  0  0
   -2.2617    4.2248    0.7711 N   0  0  0  0  0  0  0  0  0  0  0  0
   -3.1272    4.6867    0.5521 H   0  0  0  0  0  0  0  0  0  0  0  0
   -1.6208    4.5548    1.4639 H   0  0  0  0  0  0  0  0  0  0  0  0
   -0.0637    0.1284    1.8555 C   0  0  0  0  0  0  0  0  0  0  0  0
    1.0918   -0.0745    2.2236 O   0  0  0  0  0  0  0  0  0  0  0  0
   -1.0024    0.6217    2.6735 N   0  0  0  0  0  0  0  0  0  0  0  0
   -1.9213    0.7848    2.2938 H   0  0  0  0  0  0  0  0  0  0  0  0
   -0.7639    0.9676    4.0741 C   0  0  0  0  0  0  0  0  0  0  0  0
    0.0520    1.6916    4.1400 H   0  0  0  0  0  0  0  0  0  0  0  0
   -1.6626    1.3984    4.5182 H   0  0  0  0  0  0  0  0  0  0  0  0
   -0.4775    0.0737    4.6309 H   0  0  0  0  0  0  0  0  0  0  0  0
  5  6  2  0  0  0  0
  5  7  1  0  0  0  0
  2  3  1  0  0  0  0
  2  4  1  0  0  0  0
  2  5  1  0  0  0  0
  1  2  1  0  0  0  0
 22 23  2  0  0  0  0
 22 24  1  0  0  0  0
 19 20  1  0  0  0  0
 19 21  1  0  0  0  0
 17 18  2  0  0  0  0
 17 19  1  0  0  0  0
 14 15  1  0  0  0  0
 14 16  1  0  0  0  0
 14 17  1  0  0  0  0
 11 12  1  0  0  0  0
 11 13  1  0  0  0  0
 11 14  1  0  0  0  0
  9 10  1  0  0  0  0
  9 11  1  0  0  0  0
  9 22  1  0  0  0  0
  7  8  1  0  0  0  0
  7  9  1  0  0  0  0
 26 27  1  0  0  0  0
 26 28  1  0  0  0  0
 26 29  1  0  0  0  0
 24 25  1  0  0  0  0
 24 26  1  0  0  0  0
M  END
$$$$
default_name
  -OEChem-02102213163D

 29 28  0     1  0  0  0  0  0999 V2000
   -3.3998   -3.6239    1.3678 H   0  0  0  0  0  0  0  0  0  0  0  0
   -3.3608   -2.6749    0.8348 C   0  0  0  0  0  0  0  0  0  0  0  0
   -4.0988   -1.9909    1.2498 H   0  0  0  0  0  0  0  0  0  0  0  0
   -3.5618   -2.8419   -0.2222 H   0  0  0  0  0  0  0  0  0  0  0  0
   -1.9818   -2.0809    0.9918 C   0  0  0  0  0  0  0  0  0  0  0  0
   -1.1288   -2.6669    1.6468 O   0  0  0  0  0  0  0  0  0  0  0  0
   -1.7648   -0.9089    0.3998 N   0  0  0  0  0  0  0  0  0  0  0  0
   -2.5238   -0.4719   -0.1032 H   0  0  0  0  0  0  0  0  0  0  0  0
   -0.4848   -0.1959    0.4138 C   0  0  1  0  0  0  0  0  0  0  0  0
    0.2783   -0.8411   -0.0248 H   0  0  0  0  0  0  0  0  0  0  0  0
   -0.6101    1.0666   -0.4611 C   0  0  0  0  0  0  0  0  0  0  0  0
    0.2732    1.1309   -1.0998 H   0  0  0  0  0  0  0  0  0  0  0  0
   -1.4880    0.9706   -1.1018 H   0  0  0  0  0  0  0  0  0  0  0  0
   -0.7225    2.3730    0.3439 C   0  0  0  0  0  0  0  0  0  0  0  0
   -0.4176    2.1962    1.3751 H   0  0  0  0  0  0  0  0  0  0  0  0
   -0.0562    3.1165   -0.0935 H   0  0  0  0  0  0  0  0  0  0  0  0
   -2.1386    2.9482    0.3624 C   0  0  0  0  0  0  0  0  0  0  0  0
   -3.0656    2.4642   -0.2598 O   0  0  0  0  0  0  0  0  0  0  0  0
   -2.3708    4.0165    1.0938 N   0  0  0  0  0  0  0  0  0  0  0  0
   -3.3184    4.3512    1.0698 H   0  0  0  0  0  0  0  0  0  0  0  0
   -1.6457    4.4525    1.6266 H   0  0  0  0  0  0  0  0  0  0  0  0
   -0.0637    0.1284    1.8555 C   0  0  0  0  0  0  0  0  0  0  0  0
    1.0918   -0.0745    2.2236 O   0  0  0  0  0  0  0  0  0  0  0  0
   -1.0024    0.6217    2.6735 N   0  0  0  0  0  0  0  0  0  0  0  0
   -1.9213    0.7848    2.2938 H   0  0  0  0  0  0  0  0  0  0  0  0
   -0.7639    0.9676    4.0741 C   0  0  0  0  0  0  0  0  0  0  0  0
    0.0520    1.6916    4.1400 H   0  0  0  0  0  0  0  0  0  0  0  0
   -1.6626    1.3984    4.5182 H   0  0  0  0  0  0  0  0  0  0  0  0
   -0.4775    0.0737    4.6309 H   0  0  0  0  0  0  0  0  0  0  0  0
  5  6  2  0  0  0  0
  5  7  1  0  0  0  0
  2  3  1  0  0  0  0
  2  4  1  0  0  0  0
  2  5  1  0  0  0  0
  1  2  1  0  0  0  0
 22 23  2  0  0  0  0
 22 24  1  0  0  0  0
 19 20  1  0  0  0  0
 19 21  1  0  0  0  0
 17 18  2  0  0  0  0
 17 19  1  0  0  0  0
 14 15  1  0  0  0  0
 14 16  1  0  0  0  0
 14 17  1  0  0  0  0
 11 12  1  0  0  0  0
 11 13  1  0  0  0  0
 11 14  1  0  0  0  0
  9 10  1  0  0  0  0
  9 11  1  0  0  0  0
  9 22  1  0  0  0  0
  7  8  1  0  0  0  0
  7  9  1  0  0  0  0
 26 27  1  0  0  0  0
 26 28  1  0  0  0  0
 26 29  1  0  0  0  0
 24 25  1  0  0  0  0
 24 26  1  0  0  0  0
M  END
$$$$
default_name
  -OEChem-02102213163D

 29 28  0     1  0  0  0  0  0999 V2000
   -3.3998   -3.6239    1.3678 H   0  0  0  0  0  0  0  0  0  0  0  0
   -3.3608   -2.6749    0.8348 C   0  0  0  0  0  0  0  0  0  0  0  0
   -4.0988   -1.9909    1.2498 H   0  0  0  0  0  0  0  0  0  0  0  0
   -3.5618   -2.8419   -0.2222 H   0  0  0  0  0  0  0  0  0  0  0  0
   -1.9818   -2.0809    0.9918 C   0  0  0  0  0  0  0  0  0  0  0  0
   -1.1288   -2.6669    1.6468 O   0  0  0  0  0  0  0  0  0  0  0  0
   -1.7648   -0.9089    0.3998 N   0  0  0  0  0  0  0  0  0  0  0  0
   -2.5238   -0.4719   -0.1032 H   0  0  0  0  0  0  0  0  0  0  0  0
   -0.4848   -0.1959    0.4138 C   0  0  1  0  0  0  0  0  0  0  0  0
    0.2783   -0.8411   -0.0248 H   0  0  0  0  0  0  0  0  0  0  0  0
   -0.6101    1.0666   -0.4611 C   0  0  0  0  0  0  0  0  0  0  0  0
    0.2732    1.1309   -1.0998 H   0  0  0  0  0  0  0  0  0  0  0  0
   -1.4880    0.9706   -1.1018 H   0  0  0  0  0  0  0  0  0  0  0  0
   -0.7225    2.3730    0.3439 C   0  0  0  0  0  0  0  0  0  0  0  0
   -0.1783    2.2736    1.2829 H   0  0  0  0  0  0  0  0  0  0  0  0
   -0.2766    3.1834   -0.2328 H   0  0  0  0  0  0  0  0  0  0  0  0
   -2.1657    2.7546    0.6728 C   0  0  0  0  0  0  0  0  0  0  0  0
   -3.1306    2.1305    0.2728 O   0  0  0  0  0  0  0  0  0  0  0  0
   -2.3772    3.8067    1.4335 N   0  0  0  0  0  0  0  0  0  0  0  0
   -3.3439    4.0110    1.6183 H   0  0  0  0  0  0  0  0  0  0  0  0
   -1.6202    4.3533    1.7911 H   0  0  0  0  0  0  0  0  0  0  0  0
   -0.0637    0.1284    1.8555 C   0  0  0  0  0  0  0  0  0  0  0  0
    1.0918   -0.0745    2.2236 O   0  0  0  0  0  0  0  0  0  0  0  0
   -1.0024    0.6217    2.6735 N   0  0  0  0  0  0  0  0  0  0  0  0
   -1.9213    0.7848    2.2938 H   0  0  0  0  0  0  0  0  0  0  0  0
   -0.7639    0.9676    4.0741 C   0  0  0  0  0  0  0  0  0  0  0  0
    0.0520    1.6916    4.1400 H   0  0  0  0  0  0  0  0  0  0  0  0
   -1.6626    1.3984    4.5182 H   0  0  0  0  0  0  0  0  0  0  0  0
   -0.4775    0.0737    4.6309 H   0  0  0  0  0  0  0  0  0  0  0  0
  5  6  2  0  0  0  0
  5  7  1  0  0  0  0
  2  3  1  0  0  0  0
  2  4  1  0  0  0  0
  2  5  1  0  0  0  0
  1  2  1  0  0  0  0
 22 23  2  0  0  0  0
 22 24  1  0  0  0  0
 19 20  1  0  0  0  0
 19 21  1  0  0  0  0
 17 18  2  0  0  0  0
 17 19  1  0  0  0  0
 14 15  1  0  0  0  0
 14 16  1  0  0  0  0
 14 17  1  0  0  0  0
 11 12  1  0  0  0  0
 11 13  1  0  0  0  0
 11 14  1  0  0  0  0
  9 10  1  0  0  0  0
  9 11  1  0  0  0  0
  9 22  1  0  0  0  0
  7  8  1  0  0  0  0
  7  9  1  0  0  0  0
 26 27  1  0  0  0  0
 26 28  1  0  0  0  0
 26 29  1  0  0  0  0
 24 25  1  0  0  0  0
 24 26  1  0  0  0  0
M  END
$$$$
default_name
  -OEChem-02102213163D

 29 28  0     1  0  0  0  0  0999 V2000
   -3.3998   -3.6239    1.3678 H   0  0  0  0  0  0  0  0  0  0  0  0
   -3.3608   -2.6749    0.8348 C   0  0  0  0  0  0  0  0  0  0  0  0
   -4.0988   -1.9909    1.2498 H   0  0  0  0  0  0  0  0  0  0  0  0
   -3.5618   -2.8419   -0.2222 H   0  0  0  0  0  0  0  0  0  0  0  0
   -1.9818   -2.0809    0.9918 C   0  0  0  0  0  0  0  0  0  0  0  0
   -1.1288   -2.6669    1.6468 O   0  0  0  0  0  0  0  0  0  0  0  0
   -1.7648   -0.9089    0.3998 N   0  0  0  0  0  0  0  0  0  0  0  0
   -2.5238   -0.4719   -0.1032 H   0  0  0  0  0  0  0  0  0  0  0  0
   -0.4848   -0.1959    0.4138 C   0  0  1  0  0  0  0  0  0  0  0  0
    0.2783   -0.8411   -0.0248 H   0  0  0  0  0  0  0  0  0  0  0  0
   -0.6101    1.0666   -0.4611 C   0  0  0  0  0  0  0  0  0  0  0  0
    0.2732    1.1309   -1.0998 H   0  0  0  0  0  0  0  0  0  0  0  0
   -1.4880    0.9706   -1.1018 H   0  0  0  0  0  0  0  0  0  0  0  0
   -0.7225    2.3730    0.3439 C   0  0  0  0  0  0  0  0  0  0  0  0
    0.0220    2.3790    1.1397 H   0  0  0  0  0  0  0  0  0  0  0  0
   -0.5291    3.2155   -0.3201 H   0  0  0  0  0  0  0  0  0  0  0  0
   -2.0974    2.5698    0.9823 C   0  0  0  0  0  0  0  0  0  0  0  0
   -3.0311    1.8094    0.8078 O   0  0  0  0  0  0  0  0  0  0  0  0
   -2.2802    3.6096    1.7669 N   0  0  0  0  0  0  0  0  0  0  0  0
   -3.2019    3.6894    2.1601 H   0  0  0  0  0  0  0  0  0  0  0  0
   -1.5459    4.2640    1.9463 H   0  0  0  0  0  0  0  0  0  0  0  0
   -0.0637    0.1284    1.8555 C   0  0  0  0  0  0  0  0  0  0  0  0
    1.0918   -0.0745    2.2236 O   0  0  0  0  0  0  0  0  0  0  0  0
   -1.0024    0.6217    2.6735 N   0  0  0  0  0  0  0  0  0  0  0  0
   -1.9213    0.7848    2.2938 H   0  0  0  0  0  0  0  0  0  0  0  0
   -0.7639    0.9676    4.0741 C   0  0  0  0  0  0  0  0  0  0  0  0
    0.0520    1.6916    4.1400 H   0  0  0  0  0  0  0  0  0  0  0  0
   -1.6626    1.3984    4.5182 H   0  0  0  0  0  0  0  0  0  0  0  0
   -0.4775    0.0737    4.6309 H   0  0  0  0  0  0  0  0  0  0  0  0
  5  6  2  0  0  0  0
  5  7  1  0  0  0  0
  2  3  1  0  0  0  0
  2  4  1  0  0  0  0
  2  5  1  0  0  0  0
  1  2  1  0  0  0  0
 22 23  2  0  0  0  0
 22 24  1  0  0  0  0
 19 20  1  0  0  0  0
 19 21  1  0  0  0  0
 17 18  2  0  0  0  0
 17 19  1  0  0  0  0
 14 15  1  0  0  0  0
 14 16  1  0  0  0  0
 14 17  1  0  0  0  0
 11 12  1  0  0  0  0
 11 13  1  0  0  0  0
 11 14  1  0  0  0  0
  9 10  1  0  0  0  0
  9 11  1  0  0  0  0
  9 22  1  0  0  0  0
  7  8  1  0  0  0  0
  7  9  1  0  0  0  0
 26 27  1  0  0  0  0
 26 28  1  0  0  0  0
 26 29  1  0  0  0  0
 24 25  1  0  0  0  0
 24 26  1  0  0  0  0
M  END
$$$$
default_name
  -OEChem-02102213163D

 29 28  0     1  0  0  0  0  0999 V2000
   -3.3998   -3.6239    1.3678 H   0  0  0  0  0  0  0  0  0  0  0  0
   -3.3608   -2.6749    0.8348 C   0  0  0  0  0  0  0  0  0  0  0  0
   -4.0988   -1.9909    1.2498 H   0  0  0  0  0  0  0  0  0  0  0  0
   -3.5618   -2.8419   -0.2222 H   0  0  0  0  0  0  0  0  0  0  0  0
   -1.9818   -2.0809    0.9918 C   0  0  0  0  0  0  0  0  0  0  0  0
   -1.1288   -2.6669    1.6468 O   0  0  0  0  0  0  0  0  0  0  0  0
   -1.7648   -0.9089    0.3998 N   0  0  0  0  0  0  0  0  0  0  0  0
   -2.5238   -0.4719   -0.1032 H   0  0  0  0  0  0  0  0  0  0  0  0
   -0.4848   -0.1959    0.4138 C   0  0  1  0  0  0  0  0  0  0  0  0
    0.2783   -0.8411   -0.0248 H   0  0  0  0  0  0  0  0  0  0  0  0
   -0.6101    1.0666   -0.4611 C   0  0  0  0  0  0  0  0  0  0  0  0
    0.2732    1.1309   -1.0998 H   0  0  0  0  0  0  0  0  0  0  0  0
   -1.4880    0.9706   -1.1018 H   0  0  0  0  0  0  0  0  0  0  0  0
   -0.7225    2.3730    0.3439 C   0  0  0  0  0  0  0  0  0  0  0  0
    0.1698    2.5053    0.9554 H   0  0  0  0  0  0  0  0  0  0  0  0
   -0.7966    3.2106   -0.3496 H   0  0  0  0  0  0  0  0  0  0  0  0
   -1.9384    2.4063    1.2697 C   0  0  0  0  0  0  0  0  0  0  0  0
   -2.7740    1.5228    1.3088 O   0  0  0  0  0  0  0  0  0  0  0  0
   -2.0866    3.4386    2.0714 N   0  0  0  0  0  0  0  0  0  0  0  0
   -2.9022    3.4082    2.6583 H   0  0  0  0  0  0  0  0  0  0  0  0
   -1.4280    4.1908    2.0816 H   0  0  0  0  0  0  0  0  0  0  0  0
   -0.0637    0.1284    1.8555 C   0  0  0  0  0  0  0  0  0  0  0  0
    1.0918   -0.0745    2.2236 O   0  0  0  0  0  0  0  0  0  0  0  0
   -1.0024    0.6217    2.6735 N   0  0  0  0  0  0  0  0  0  0  0  0
   -1.9213    0.7848    2.2938 H   0  0  0  0  0  0  0  0  0  0  0  0
   -0.7639    0.9676    4.0741 C   0  0  0  0  0  0  0  0  0  0  0  0
    0.0520    1.6916    4.1400 H   0  0  0  0  0  0  0  0  0  0  0  0
   -1.6626    1.3984    4.5182 H   0  0  0  0  0  0  0  0  0  0  0  0
   -0.4775    0.0737    4.6309 H   0  0  0  0  0  0  0  0  0  0  0  0
  5  6  2  0  0  0  0
  5  7  1  0  0  0  0
  2  3  1  0  0  0  0
  2  4  1  0  0  0  0
  2  5  1  0  0  0  0
  1  2  1  0  0  0  0
 22 23  2  0  0  0  0
 22 24  1  0  0  0  0
 19 20  1  0  0  0  0
 19 21  1  0  0  0  0
 17 18  2  0  0  0  0
 17 19  1  0  0  0  0
 14 15  1  0  0  0  0
 14 16  1  0  0  0  0
 14 17  1  0  0  0  0
 11 12  1  0  0  0  0
 11 13  1  0  0  0  0
 11 14  1  0  0  0  0
  9 10  1  0  0  0  0
  9 11  1  0  0  0  0
  9 22  1  0  0  0  0
  7  8  1  0  0  0  0
  7  9  1  0  0  0  0
 26 27  1  0  0  0  0
 26 28  1  0  0  0  0
 26 29  1  0  0  0  0
 24 25  1  0  0  0  0
 24 26  1  0  0  0  0
M  END
$$$$
default_name
  -OEChem-02102213163D

 29 28  0     1  0  0  0  0  0999 V2000
   -3.3998   -3.6239    1.3678 H   0  0  0  0  0  0  0  0  0  0  0  0
   -3.3608   -2.6749    0.8348 C   0  0  0  0  0  0  0  0  0  0  0  0
   -4.0988   -1.9909    1.2498 H   0  0  0  0  0  0  0  0  0  0  0  0
   -3.5618   -2.8419   -0.2222 H   0  0  0  0  0  0  0  0  0  0  0  0
   -1.9818   -2.0809    0.9918 C   0  0  0  0  0  0  0  0  0  0  0  0
   -1.1288   -2.6669    1.6468 O   0  0  0  0  0  0  0  0  0  0  0  0
   -1.7648   -0.9089    0.3998 N   0  0  0  0  0  0  0  0  0  0  0  0
   -2.5238   -0.4719   -0.1032 H   0  0  0  0  0  0  0  0  0  0  0  0
   -0.4848   -0.1959    0.4138 C   0  0  1  0  0  0  0  0  0  0  0  0
    0.2783   -0.8411   -0.0248 H   0  0  0  0  0  0  0  0  0  0  0  0
   -0.6101    1.0666   -0.4611 C   0  0  0  0  0  0  0  0  0  0  0  0
    0.2732    1.1309   -1.0998 H   0  0  0  0  0  0  0  0  0  0  0  0
   -1.4880    0.9706   -1.1018 H   0  0  0  0  0  0  0  0  0  0  0  0
   -0.7225    2.3730    0.3439 C   0  0  0  0  0  0  0  0  0  0  0  0
    0.2550    2.6438    0.7425 H   0  0  0  0  0  0  0  0  0  0  0  0
   -1.0608    3.1692   -0.3192 H   0  0  0  0  0  0  0  0  0  0  0  0
   -1.6995    2.2755    1.5154 C   0  0  0  0  0  0  0  0  0  0  0  0
   -2.3768    1.2902    1.7416 O   0  0  0  0  0  0  0  0  0  0  0  0
   -1.8096    3.3054    2.3262 N   0  0  0  0  0  0  0  0  0  0  0  0
   -2.4650    3.1865    3.0790 H   0  0  0  0  0  0  0  0  0  0  0  0
   -1.2745    4.1386    2.1877 H   0  0  0  0  0  0  0  0  0  0  0  0
   -0.0637    0.1284    1.8555 C   0  0  0  0  0  0  0  0  0  0  0  0
    1.0918   -0.0745    2.2236 O   0  0  0  0  0  0  0  0  0  0  0  0
   -1.0024    0.6217    2.6735 N   0  0  0  0  0  0  0  0  0  0  0  0
   -1.9213    0.7848    2.2938 H   0  0  0  0  0  0  0  0  0  0  0  0
   -0.7639    0.9676    4.0741 C   0  0  0  0  0  0  0  0  0  0  0  0
    0.0520    1.6916    4.1400 H   0  0  0  0  0  0  0  0  0  0  0  0
   -1.6626    1.3984    4.5182 H   0  0  0  0  0  0  0  0  0  0  0  0
   -0.4775    0.0737    4.6309 H   0  0  0  0  0  0  0  0  0  0  0  0
  5  6  2  0  0  0  0
  5  7  1  0  0  0  0
  2  3  1  0  0  0  0
  2  4  1  0  0  0  0
  2  5  1  0  0  0  0
  1  2  1  0  0  0  0
 22 23  2  0  0  0  0
 22 24  1  0  0  0  0
 19 20  1  0  0  0  0
 19 21  1  0  0  0  0
 17 18  2  0  0  0  0
 17 19  1  0  0  0  0
 14 15  1  0  0  0  0
 14 16  1  0  0  0  0
 14 17  1  0  0  0  0
 11 12  1  0  0  0  0
 11 13  1  0  0  0  0
 11 14  1  0  0  0  0
  9 10  1  0  0  0  0
  9 11  1  0  0  0  0
  9 22  1  0  0  0  0
  7  8  1  0  0  0  0
  7  9  1  0  0  0  0
 26 27  1  0  0  0  0
 26 28  1  0  0  0  0
 26 29  1  0  0  0  0
 24 25  1  0  0  0  0
 24 26  1  0  0  0  0
M  END
$$$$
default_name
  -OEChem-02102213163D

 29 28  0     1  0  0  0  0  0999 V2000
   -3.3998   -3.6239    1.3678 H   0  0  0  0  0  0  0  0  0  0  0  0
   -3.3608   -2.6749    0.8348 C   0  0  0  0  0  0  0  0  0  0  0  0
   -4.0988   -1.9909    1.2498 H   0  0  0  0  0  0  0  0  0  0  0  0
   -3.5618   -2.8419   -0.2222 H   0  0  0  0  0  0  0  0  0  0  0  0
   -1.9818   -2.0809    0.9918 C   0  0  0  0  0  0  0  0  0  0  0  0
   -1.1288   -2.6669    1.6468 O   0  0  0  0  0  0  0  0  0  0  0  0
   -1.7648   -0.9089    0.3998 N   0  0  0  0  0  0  0  0  0  0  0  0
   -2.5238   -0.4719   -0.1032 H   0  0  0  0  0  0  0  0  0  0  0  0
   -0.4848   -0.1959    0.4138 C   0  0  1  0  0  0  0  0  0  0  0  0
    0.2783   -0.8411   -0.0248 H   0  0  0  0  0  0  0  0  0  0  0  0
   -0.6101    1.0666   -0.4611 C   0  0  0  0  0  0  0  0  0  0  0  0
    0.2732    1.1309   -1.0998 H   0  0  0  0  0  0  0  0  0  0  0  0
   -1.4880    0.9706   -1.1018 H   0  0  0  0  0  0  0  0  0  0  0  0
   -0.7225    2.3730    0.3439 C   0  0  0  0  0  0  0  0  0  0  0  0
    0.2717    2.7851    0.5156 H   0  0  0  0  0  0  0  0  0  0  0  0
   -1.3037    3.0940   -0.2310 H   0  0  0  0  0  0  0  0  0  0  0  0
   -1.3971    2.1860    1.7028 C   0  0  0  0  0  0  0  0  0  0  0  0
   -1.8665    1.1275    2.0768 O   0  0  0  0  0  0  0  0  0  0  0  0
   -1.4679    3.2191    2.5139 N   0  0  0  0  0  0  0  0  0  0  0  0
   -1.9204    3.0396    3.3935 H   0  0  0  0  0  0  0  0  0  0  0  0
   -1.0958    4.1110    2.2575 H   0  0  0  0  0  0  0  0  0  0  0  0
   -0.0637    0.1284    1.8555 C   0  0  0  0  0  0  0  0  0  0  0  0
    1.0918   -0.0745    2.2236 O   0  0  0  0  0  0  0  0  0  0  0  0
   -1.0024    0.6217    2.6735 N   0  0  0  0  0  0  0  0  0  0  0  0
   -1.9213    0.7848    2.2938 H   0  0  0  0  0  0  0  0  0  0  0  0
   -0.7639    0.9676    4.0741 C   0  0  0  0  0  0  0  0  0  0  0  0
    0.0520    1.6916    4.1400 H   0  0  0  0  0  0  0  0  0  0  0  0
   -1.6626    1.3984    4.5182 H   0  0  0  0  0  0  0  0  0  0  0  0
   -0.4775    0.0737    4.6309 H   0  0  0  0  0  0  0  0  0  0  0  0
  5  6  2  0  0  0  0
  5  7  1  0  0  0  0
  2  3  1  0  0  0  0
  2  4  1  0  0  0  0
  2  5  1  0  0  0  0
  1  2  1  0  0  0  0
 22 23  2  0  0  0  0
 22 24  1  0  0  0  0
 19 20  1  0  0  0  0
 19 21  1  0  0  0  0
 17 18  2  0  0  0  0
 17 19  1  0  0  0  0
 14 15  1  0  0  0  0
 14 16  1  0  0  0  0
 14 17  1  0  0  0  0
 11 12  1  0  0  0  0
 11 13  1  0  0  0  0
 11 14  1  0  0  0  0
  9 10  1  0  0  0  0
  9 11  1  0  0  0  0
  9 22  1  0  0  0  0
  7  8  1  0  0  0  0
  7  9  1  0  0  0  0
 26 27  1  0  0  0  0
 26 28  1  0  0  0  0
 26 29  1  0  0  0  0
 24 25  1  0  0  0  0
 24 26  1  0  0  0  0
M  END
$$$$
default_name
  -OEChem-02102213163D

 29 28  0     1  0  0  0  0  0999 V2000
   -3.3998   -3.6239    1.3678 H   0  0  0  0  0  0  0  0  0  0  0  0
   -3.3608   -2.6749    0.8348 C   0  0  0  0  0  0  0  0  0  0  0  0
   -4.0988   -1.9909    1.2498 H   0  0  0  0  0  0  0  0  0  0  0  0
   -3.5618   -2.8419   -0.2222 H   0  0  0  0  0  0  0  0  0  0  0  0
   -1.9818   -2.0809    0.9918 C   0  0  0  0  0  0  0  0  0  0  0  0
   -1.1288   -2.6669    1.6468 O   0  0  0  0  0  0  0  0  0  0  0  0
   -1.7648   -0.9089    0.3998 N   0  0  0  0  0  0  0  0  0  0  0  0
   -2.5238   -0.4719   -0.1032 H   0  0  0  0  0  0  0  0  0  0  0  0
   -0.4848   -0.1959    0.4138 C   0  0  1  0  0  0  0  0  0  0  0  0
    0.2783   -0.8411   -0.0248 H   0  0  0  0  0  0  0  0  0  0  0  0
   -0.6101    1.0666   -0.4611 C   0  0  0  0  0  0  0  0  0  0  0  0
    0.2732    1.1309   -1.0998 H   0  0  0  0  0  0  0  0  0  0  0  0
   -1.4880    0.9706   -1.1018 H   0  0  0  0  0  0  0  0  0  0  0  0
   -0.7225    2.3730    0.3439 C   0  0  0  0  0  0  0  0  0  0  0  0
    0.2189    2.9195    0.2900 H   0  0  0  0  0  0  0  0  0  0  0  0
   -1.5087    2.9901   -0.0910 H   0  0  0  0  0  0  0  0  0  0  0  0
   -1.0516    2.1441    1.8190 C   0  0  0  0  0  0  0  0  0  0  0  0
   -1.2778    1.0459    2.2915 O   0  0  0  0  0  0  0  0  0  0  0  0
   -1.0849    3.1855    2.6218 N   0  0  0  0  0  0  0  0  0  0  0  0
   -1.3052    2.9774    3.5803 H   0  0  0  0  0  0  0  0  0  0  0  0
   -0.9041    4.1098    2.2861 H   0  0  0  0  0  0  0  0  0  0  0  0
   -0.0637    0.1284    1.8555 C   0  0  0  0  0  0  0  0  0  0  0  0
    1.0918   -0.0745    2.2236 O   0  0  0  0  0  0  0  0  0  0  0  0
   -1.0024    0.6217    2.6735 N   0  0  0  0  0  0  0  0  0  0  0  0
   -1.9213    0.7848    2.2938 H   0  0  0  0  0  0  0  0  0  0  0  0
   -0.7639    0.9676    4.0741 C   0  0  0  0  0  0  0  0  0  0  0  0
    0.0520    1.6916    4.1400 H   0  0  0  0  0  0  0  0  0  0  0  0
   -1.6626    1.3984    4.5182 H   0  0  0  0  0  0  0  0  0  0  0  0
   -0.4775    0.0737    4.6309 H   0  0  0  0  0  0  0  0  0  0  0  0
  5  6  2  0  0  0  0
  5  7  1  0  0  0  0
  2  3  1  0  0  0  0
  2  4  1  0  0  0  0
  2  5  1  0  0  0  0
  1  2  1  0  0  0  0
 22 23  2  0  0  0  0
 22 24  1  0  0  0  0
 19 20  1  0  0  0  0
 19 21  1  0  0  0  0
 17 18  2  0  0  0  0
 17 19  1  0  0  0  0
 14 15  1  0  0  0  0
 14 16  1  0  0  0  0
 14 17  1  0  0  0  0
 11 12  1  0  0  0  0
 11 13  1  0  0  0  0
 11 14  1  0  0  0  0
  9 10  1  0  0  0  0
  9 11  1  0  0  0  0
  9 22  1  0  0  0  0
  7  8  1  0  0  0  0
  7  9  1  0  0  0  0
 26 27  1  0  0  0  0
 26 28  1  0  0  0  0
 26 29  1  0  0  0  0
 24 25  1  0  0  0  0
 24 26  1  0  0  0  0
M  END
$$$$
default_name
  -OEChem-02102213163D

 29 28  0     1  0  0  0  0  0999 V2000
   -3.3998   -3.6239    1.3678 H   0  0  0  0  0  0  0  0  0  0  0  0
   -3.3608   -2.6749    0.8348 C   0  0  0  0  0  0  0  0  0  0  0  0
   -4.0988   -1.9909    1.2498 H   0  0  0  0  0  0  0  0  0  0  0  0
   -3.5618   -2.8419   -0.2222 H   0  0  0  0  0  0  0  0  0  0  0  0
   -1.9818   -2.0809    0.9918 C   0  0  0  0  0  0  0  0  0  0  0  0
   -1.1288   -2.6669    1.6468 O   0  0  0  0  0  0  0  0  0  0  0  0
   -1.7648   -0.9089    0.3998 N   0  0  0  0  0  0  0  0  0  0  0  0
   -2.5238   -0.4719   -0.1032 H   0  0  0  0  0  0  0  0  0  0  0  0
   -0.4848   -0.1959    0.4138 C   0  0  1  0  0  0  0  0  0  0  0  0
    0.2783   -0.8411   -0.0248 H   0  0  0  0  0  0  0  0  0  0  0  0
   -0.6101    1.0666   -0.4611 C   0  0  0  0  0  0  0  0  0  0  0  0
    0.2732    1.1309   -1.0998 H   0  0  0  0  0  0  0  0  0  0  0  0
   -1.4880    0.9706   -1.1018 H   0  0  0  0  0  0  0  0  0  0  0  0
   -0.7225    2.3730    0.3439 C   0  0  0  0  0  0  0  0  0  0  0  0
    0.1000    3.0380    0.0812 H   0  0  0  0  0  0  0  0  0  0  0  0
   -1.6619    2.8646    0.0912 H   0  0  0  0  0  0  0  0  0  0  0  0
   -0.6867    2.1526    1.8561 C   0  0  0  0  0  0  0  0  0  0  0  0
   -0.6510    1.0507    2.3710 O   0  0  0  0  0  0  0  0  0  0  0  0
   -0.6868    3.2070    2.6425 N   0  0  0  0  0  0  0  0  0  0  0  0
   -0.6616    3.0041    3.6267 H   0  0  0  0  0  0  0  0  0  0  0  0
   -0.7126    4.1352    2.2717 H   0  0  0  0  0  0  0  0  0  0  0  0
   -0.0637    0.1284    1.8555 C   0  0  0  0  0  0  0  0  0  0  0  0
    1.0918   -0.0745    2.2236 O   0  0  0  0  0  0  0  0  0  0  0  0
   -1.0024    0.6217    2.6735 N   0  0  0  0  0  0  0  0  0  0  0  0
   -1.9213    0.7848    2.2938 H   0  0  0  0  0  0  0  0  0  0  0  0
   -0.7639    0.9676    4.0741 C   0  0  0  0  0  0  0  0  0  0  0  0
    0.0520    1.6916    4.1400 H   0  0  0  0  0  0  0  0  0  0  0  0
   -1.6626    1.3984    4.5182 H   0  0  0  0  0  0  0  0  0  0  0  0
   -0.4775    0.0737    4.6309 H   0  0  0  0  0  0  0  0  0  0  0  0
  5  6  2  0  0  0  0
  5  7  1  0  0  0  0
  2  3  1  0  0  0  0
  2  4  1  0  0  0  0
  2  5  1  0  0  0  0
  1  2  1  0  0  0  0
 22 23  2  0  0  0  0
 22 24  1  0  0  0  0
 19 20  1  0  0  0  0
 19 21  1  0  0  0  0
 17 18  2  0  0  0  0
 17 19  1  0  0  0  0
 14 15  1  0  0  0  0
 14 16  1  0  0  0  0
 14 17  1  0  0  0  0
 11 12  1  0  0  0  0
 11 13  1  0  0  0  0
 11 14  1  0  0  0  0
  9 10  1  0  0  0  0
  9 11  1  0  0  0  0
  9 22  1  0  0  0  0
  7  8  1  0  0  0  0
  7  9  1  0  0  0  0
 26 27  1  0  0  0  0
 26 28  1  0  0  0  0
 26 29  1  0  0  0  0
 24 25  1  0  0  0  0
 24 26  1  0  0  0  0
M  END
$$$$
default_name
  -OEChem-02102213163D

 29 28  0     1  0  0  0  0  0999 V2000
   -3.3998   -3.6239    1.3678 H   0  0  0  0  0  0  0  0  0  0  0  0
   -3.3608   -2.6749    0.8348 C   0  0  0  0  0  0  0  0  0  0  0  0
   -4.0988   -1.9909    1.2498 H   0  0  0  0  0  0  0  0  0  0  0  0
   -3.5618   -2.8419   -0.2222 H   0  0  0  0  0  0  0  0  0  0  0  0
   -1.9818   -2.0809    0.9918 C   0  0  0  0  0  0  0  0  0  0  0  0
   -1.1288   -2.6669    1.6468 O   0  0  0  0  0  0  0  0  0  0  0  0
   -1.7648   -0.9089    0.3998 N   0  0  0  0  0  0  0  0  0  0  0  0
   -2.5238   -0.4719   -0.1032 H   0  0  0  0  0  0  0  0  0  0  0  0
   -0.4848   -0.1959    0.4138 C   0  0  1  0  0  0  0  0  0  0  0  0
    0.2783   -0.8411   -0.0248 H   0  0  0  0  0  0  0  0  0  0  0  0
   -0.6101    1.0666   -0.4611 C   0  0  0  0  0  0  0  0  0  0  0  0
    0.2732    1.1309   -1.0998 H   0  0  0  0  0  0  0  0  0  0  0  0
   -1.4880    0.9706   -1.1018 H   0  0  0  0  0  0  0  0  0  0  0  0
   -0.7225    2.3730    0.3439 C   0  0  0  0  0  0  0  0  0  0  0  0
   -0.0767    3.1324   -0.0966 H   0  0  0  0  0  0  0  0  0  0  0  0
   -1.7529    2.7261    0.3033 H   0  0  0  0  0  0  0  0  0  0  0  0
   -0.3273    2.2109    1.8116 C   0  0  0  0  0  0  0  0  0  0  0  0
   -0.0288    1.1418    2.3101 O   0  0  0  0  0  0  0  0  0  0  0  0
   -0.3005    3.2821    2.5746 N   0  0  0  0  0  0  0  0  0  0  0  0
   -0.0333    3.1179    3.5297 H   0  0  0  0  0  0  0  0  0  0  0  0
   -0.5341    4.1854    2.2152 H   0  0  0  0  0  0  0  0  0  0  0  0
   -0.0637    0.1284    1.8555 C   0  0  0  0  0  0  0  0  0  0  0  0
    1.0918   -0.0745    2.2236 O   0  0  0  0  0  0  0  0  0  0  0  0
   -1.0024    0.6217    2.6735 N   0  0  0  0  0  0  0  0  0  0  0  0
   -1.9213    0.7848    2.2938 H   0  0  0  0  0  0  0  0  0  0  0  0
   -0.7639    0.9676    4.0741 C   0  0  0  0  0  0  0  0  0  0  0  0
    0.0520    1.6916    4.1400 H   0  0  0  0  0  0  0  0  0  0  0  0
   -1.6626    1.3984    4.5182 H   0  0  0  0  0  0  0  0  0  0  0  0
   -0.4775    0.0737    4.6309 H   0  0  0  0  0  0  0  0  0  0  0  0
  5  6  2  0  0  0  0
  5  7  1  0  0  0  0
  2  3  1  0  0  0  0
  2  4  1  0  0  0  0
  2  5  1  0  0  0  0
  1  2  1  0  0  0  0
 22 23  2  0  0  0  0
 22 24  1  0  0  0  0
 19 20  1  0  0  0  0
 19 21  1  0  0  0  0
 17 18  2  0  0  0  0
 17 19  1  0  0  0  0
 14 15  1  0  0  0  0
 14 16  1  0  0  0  0
 14 17  1  0  0  0  0
 11 12  1  0  0  0  0
 11 13  1  0  0  0  0
 11 14  1  0  0  0  0
  9 10  1  0  0  0  0
  9 11  1  0  0  0  0
  9 22  1  0  0  0  0
  7  8  1  0  0  0  0
  7  9  1  0  0  0  0
 26 27  1  0  0  0  0
 26 28  1  0  0  0  0
 26 29  1  0  0  0  0
 24 25  1  0  0  0  0
 24 26  1  0  0  0  0
M  END
$$$$
default_name
  -OEChem-02102213163D

 29 28  0     1  0  0  0  0  0999 V2000
   -3.3998   -3.6239    1.3678 H   0  0  0  0  0  0  0  0  0  0  0  0
   -3.3608   -2.6749    0.8348 C   0  0  0  0  0  0  0  0  0  0  0  0
   -4.0988   -1.9909    1.2498 H   0  0  0  0  0  0  0  0  0  0  0  0
   -3.5618   -2.8419   -0.2222 H   0  0  0  0  0  0  0  0  0  0  0  0
   -1.9818   -2.0809    0.9918 C   0  0  0  0  0  0  0  0  0  0  0  0
   -1.1288   -2.6669    1.6468 O   0  0  0  0  0  0  0  0  0  0  0  0
   -1.7648   -0.9089    0.3998 N   0  0  0  0  0  0  0  0  0  0  0  0
   -2.5238   -0.4719   -0.1032 H   0  0  0  0  0  0  0  0  0  0  0  0
   -0.4848   -0.1959    0.4138 C   0  0  1  0  0  0  0  0  0  0  0  0
    0.2783   -0.8411   -0.0248 H   0  0  0  0  0  0  0  0  0  0  0  0
   -0.6101    1.0666   -0.4611 C   0  0  0  0  0  0  0  0  0  0  0  0
    0.2732    1.1309   -1.0998 H   0  0  0  0  0  0  0  0  0  0  0  0
   -1.4880    0.9706   -1.1018 H   0  0  0  0  0  0  0  0  0  0  0  0
   -0.7225    2.3730    0.3439 C   0  0  0  0  0  0  0  0  0  0  0  0
   -0.2993    3.1962   -0.2313 H   0  0  0  0  0  0  0  0  0  0  0  0
   -1.7754    2.5840    0.5308 H   0  0  0  0  0  0  0  0  0  0  0  0
    0.0022    2.3151    1.6885 C   0  0  0  0  0  0  0  0  0  0  0  0
    0.5466    1.3129    2.1127 O   0  0  0  0  0  0  0  0  0  0  0  0
    0.0475    3.4056    2.4227 N   0  0  0  0  0  0  0  0  0  0  0  0
    0.5369    3.3111    3.2957 H   0  0  0  0  0  0  0  0  0  0  0  0
   -0.3809    4.2569    2.1204 H   0  0  0  0  0  0  0  0  0  0  0  0
   -0.0637    0.1284    1.8555 C   0  0  0  0  0  0  0  0  0  0  0  0
    1.0918   -0.0745    2.2236 O   0  0  0  0  0  0  0  0  0  0  0  0
   -1.0024    0.6217    2.6735 N   0  0  0  0  0  0  0  0  0  0  0  0
   -1.9213    0.7848    2.2938 H   0  0  0  0  0  0  0  0  0  0  0  0
   -0.7639    0.9676    4.0741 C   0  0  0  0  0  0  0  0  0  0  0  0
    0.0520    1.6916    4.1400 H   0  0  0  0  0  0  0  0  0  0  0  0
   -1.6626    1.3984    4.5182 H   0  0  0  0  0  0  0  0  0  0  0  0
   -0.4775    0.0737    4.6309 H   0  0  0  0  0  0  0  0  0  0  0  0
  5  6  2  0  0  0  0
  5  7  1  0  0  0  0
  2  3  1  0  0  0  0
  2  4  1  0  0  0  0
  2  5  1  0  0  0  0
  1  2  1  0  0  0  0
 22 23  2  0  0  0  0
 22 24  1  0  0  0  0
 19 20  1  0  0  0  0
 19 21  1  0  0  0  0
 17 18  2  0  0  0  0
 17 19  1  0  0  0  0
 14 15  1  0  0  0  0
 14 16  1  0  0  0  0
 14 17  1  0  0  0  0
 11 12  1  0  0  0  0
 11 13  1  0  0  0  0
 11 14  1  0  0  0  0
  9 10  1  0  0  0  0
  9 11  1  0  0  0  0
  9 22  1  0  0  0  0
  7  8  1  0  0  0  0
  7  9  1  0  0  0  0
 26 27  1  0  0  0  0
 26 28  1  0  0  0  0
 26 29  1  0  0  0  0
 24 25  1  0  0  0  0
 24 26  1  0  0  0  0
M  END
$$$$
default_name
  -OEChem-02102213163D

 29 28  0     1  0  0  0  0  0999 V2000
   -3.3998   -3.6239    1.3678 H   0  0  0  0  0  0  0  0  0  0  0  0
   -3.3608   -2.6749    0.8348 C   0  0  0  0  0  0  0  0  0  0  0  0
   -4.0988   -1.9909    1.2498 H   0  0  0  0  0  0  0  0  0  0  0  0
   -3.5618   -2.8419   -0.2222 H   0  0  0  0  0  0  0  0  0  0  0  0
   -1.9818   -2.0809    0.9918 C   0  0  0  0  0  0  0  0  0  0  0  0
   -1.1288   -2.6669    1.6468 O   0  0  0  0  0  0  0  0  0  0  0  0
   -1.7648   -0.9089    0.3998 N   0  0  0  0  0  0  0  0  0  0  0  0
   -2.5238   -0.4719   -0.1032 H   0  0  0  0  0  0  0  0  0  0  0  0
   -0.4848   -0.1959    0.4138 C   0  0  1  0  0  0  0  0  0  0  0  0
    0.2783   -0.8411   -0.0248 H   0  0  0  0  0  0  0  0  0  0  0  0
   -0.6101    1.0666   -0.4611 C   0  0  0  0  0  0  0  0  0  0  0  0
    0.2732    1.1309   -1.0998 H   0  0  0  0  0  0  0  0  0  0  0  0
   -1.4880    0.9706   -1.1018 H   0  0  0  0  0  0  0  0  0  0  0  0
   -0.7225    2.3730    0.3439 C   0  0  0  0  0  0  0  0  0  0  0  0
   -0.5525    3.2252   -0.3137 H   0  0  0  0  0  0  0  0  0  0  0  0
   -1.7279    2.4480    0.7581 H   0  0  0  0  0  0  0  0  0  0  0  0
    0.2794    2.4580    1.4953 C   0  0  0  0  0  0  0  0  0  0  0  0
    1.0358    1.5523    1.7924 O   0  0  0  0  0  0  0  0  0  0  0  0
    0.3335    3.5692    2.1972 N   0  0  0  0  0  0  0  0  0  0  0  0
    1.0100    3.5705    2.9407 H   0  0  0  0  0  0  0  0  0  0  0  0
   -0.2635    4.3450    1.9939 H   0  0  0  0  0  0  0  0  0  0  0  0
   -0.0637    0.1284    1.8555 C   0  0  0  0  0  0  0  0  0  0  0  0
    1.0918   -0.0745    2.2236 O   0  0  0  0  0  0  0  0  0  0  0  0
   -1.0024    0.6217    2.6735 N   0  0  0  0  0  0  0  0  0  0  0  0
   -1.9213    0.7848    2.2938 H   0  0  0  0  0  0  0  0  0  0  0  0
   -0.7639    0.9676    4.0741 C   0  0  0  0  0  0  0  0  0  0  0  0
    0.0520    1.6916    4.1400 H   0  0  0  0  0  0  0  0  0  0  0  0
   -1.6626    1.3984    4.5182 H   0  0  0  0  0  0  0  0  0  0  0  0
   -0.4775    0.0737    4.6309 H   0  0  0  0  0  0  0  0  0  0  0  0
  5  6  2  0  0  0  0
  5  7  1  0  0  0  0
  2  3  1  0  0  0  0
  2  4  1  0  0  0  0
  2  5  1  0  0  0  0
  1  2  1  0  0  0  0
 22 23  2  0  0  0  0
 22 24  1  0  0  0  0
 19 20  1  0  0  0  0
 19 21  1  0  0  0  0
 17 18  2  0  0  0  0
 17 19  1  0  0  0  0
 14 15  1  0  0  0  0
 14 16  1  0  0  0  0
 14 17  1  0  0  0  0
 11 12  1  0  0  0  0
 11 13  1  0  0  0  0
 11 14  1  0  0  0  0
  9 10  1  0  0  0  0
  9 11  1  0  0  0  0
  9 22  1  0  0  0  0
  7  8  1  0  0  0  0
  7  9  1  0  0  0  0
 26 27  1  0  0  0  0
 26 28  1  0  0  0  0
 26 29  1  0  0  0  0
 24 25  1  0  0  0  0
 24 26  1  0  0  0  0
M  END
$$$$
default_name
  -OEChem-02102213163D

 29 28  0     1  0  0  0  0  0999 V2000
   -3.3998   -3.6239    1.3678 H   0  0  0  0  0  0  0  0  0  0  0  0
   -3.3608   -2.6749    0.8348 C   0  0  0  0  0  0  0  0  0  0  0  0
   -4.0988   -1.9909    1.2498 H   0  0  0  0  0  0  0  0  0  0  0  0
   -3.5618   -2.8419   -0.2222 H   0  0  0  0  0  0  0  0  0  0  0  0
   -1.9818   -2.0809    0.9918 C   0  0  0  0  0  0  0  0  0  0  0  0
   -1.1288   -2.6669    1.6468 O   0  0  0  0  0  0  0  0  0  0  0  0
   -1.7648   -0.9089    0.3998 N   0  0  0  0  0  0  0  0  0  0  0  0
   -2.5238   -0.4719   -0.1032 H   0  0  0  0  0  0  0  0  0  0  0  0
   -0.4848   -0.1959    0.4138 C   0  0  1  0  0  0  0  0  0  0  0  0
    0.2783   -0.8411   -0.0248 H   0  0  0  0  0  0  0  0  0  0  0  0
   -0.6101    1.0666   -0.4611 C   0  0  0  0  0  0  0  0  0  0  0  0
    0.2732    1.1309   -1.0998 H   0  0  0  0  0  0  0  0  0  0  0  0
   -1.4880    0.9706   -1.1018 H   0  0  0  0  0  0  0  0  0  0  0  0
   -0.7225    2.3730    0.3439 C   0  0  0  0  0  0  0  0  0  0  0  0
   -0.8191    3.2174   -0.3383 H   0  0  0  0  0  0  0  0  0  0  0  0
   -1.6136    2.3274    0.9698 H   0  0  0  0  0  0  0  0  0  0  0  0
    0.4853    2.6299    1.2450 C   0  0  0  0  0  0  0  0  0  0  0  0
    1.4054    1.8438    1.3709 O   0  0  0  0  0  0  0  0  0  0  0  0
    0.5381    3.7616    1.9134 N   0  0  0  0  0  0  0  0  0  0  0  0
    1.3539    3.8784    2.4890 H   0  0  0  0  0  0  0  0  0  0  0  0
   -0.1898    4.4436    1.8442 H   0  0  0  0  0  0  0  0  0  0  0  0
   -0.0637    0.1284    1.8555 C   0  0  0  0  0  0  0  0  0  0  0  0
    1.0918   -0.0745    2.2236 O   0  0  0  0  0  0  0  0  0  0  0  0
   -1.0024    0.6217    2.6735 N   0  0  0  0  0  0  0  0  0  0  0  0
   -1.9213    0.7848    2.2938 H   0  0  0  0  0  0  0  0  0  0  0  0
   -0.7639    0.9676    4.0741 C   0  0  0  0  0  0  0  0  0  0  0  0
    0.0520    1.6916    4.1400 H   0  0  0  0  0  0  0  0  0  0  0  0
   -1.6626    1.3984    4.5182 H   0  0  0  0  0  0  0  0  0  0  0  0
   -0.4775    0.0737    4.6309 H   0  0  0  0  0  0  0  0  0  0  0  0
  5  6  2  0  0  0  0
  5  7  1  0  0  0  0
  2  3  1  0  0  0  0
  2  4  1  0  0  0  0
  2  5  1  0  0  0  0
  1  2  1  0  0  0  0
 22 23  2  0  0  0  0
 22 24  1  0  0  0  0
 19 20  1  0  0  0  0
 19 21  1  0  0  0  0
 17 18  2  0  0  0  0
 17 19  1  0  0  0  0
 14 15  1  0  0  0  0
 14 16  1  0  0  0  0
 14 17  1  0  0  0  0
 11 12  1  0  0  0  0
 11 13  1  0  0  0  0
 11 14  1  0  0  0  0
  9 10  1  0  0  0  0
  9 11  1  0  0  0  0
  9 22  1  0  0  0  0
  7  8  1  0  0  0  0
  7  9  1  0  0  0  0
 26 27  1  0  0  0  0
 26 28  1  0  0  0  0
 26 29  1  0  0  0  0
 24 25  1  0  0  0  0
 24 26  1  0  0  0  0
M  END
$$$$
default_name
  -OEChem-02102213163D

 29 28  0     1  0  0  0  0  0999 V2000
   -3.3998   -3.6239    1.3678 H   0  0  0  0  0  0  0  0  0  0  0  0
   -3.3608   -2.6749    0.8348 C   0  0  0  0  0  0  0  0  0  0  0  0
   -4.0988   -1.9909    1.2498 H   0  0  0  0  0  0  0  0  0  0  0  0
   -3.5618   -2.8419   -0.2222 H   0  0  0  0  0  0  0  0  0  0  0  0
   -1.9818   -2.0809    0.9918 C   0  0  0  0  0  0  0  0  0  0  0  0
   -1.1288   -2.6669    1.6468 O   0  0  0  0  0  0  0  0  0  0  0  0
   -1.7648   -0.9089    0.3998 N   0  0  0  0  0  0  0  0  0  0  0  0
   -2.5238   -0.4719   -0.1032 H   0  0  0  0  0  0  0  0  0  0  0  0
   -0.4848   -0.1959    0.4138 C   0  0  1  0  0  0  0  0  0  0  0  0
    0.2783   -0.8411   -0.0248 H   0  0  0  0  0  0  0  0  0  0  0  0
   -0.6101    1.0666   -0.4611 C   0  0  0  0  0  0  0  0  0  0  0  0
    0.2732    1.1309   -1.0998 H   0  0  0  0  0  0  0  0  0  0  0  0
   -1.4880    0.9706   -1.1018 H   0  0  0  0  0  0  0  0  0  0  0  0
   -0.7225    2.3730    0.3439 C   0  0  0  0  0  0  0  0  0  0  0  0
   -1.0810    3.1733   -0.3032 H   0  0  0  0  0  0  0  0  0  0  0  0
   -1.4404    2.2303    1.1515 H   0  0  0  0  0  0  0  0  0  0  0  0
    0.6059    2.8192    0.9547 C   0  0  0  0  0  0  0  0  0  0  0  0
    1.6305    2.1675    0.8771 O   0  0  0  0  0  0  0  0  0  0  0  0
    0.6473    3.9699    1.5907 N   0  0  0  0  0  0  0  0  0  0  0  0
    1.5451    4.2139    1.9712 H   0  0  0  0  0  0  0  0  0  0  0  0
   -0.1649    4.5459    1.6815 H   0  0  0  0  0  0  0  0  0  0  0  0
   -0.0637    0.1284    1.8555 C   0  0  0  0  0  0  0  0  0  0  0  0
    1.0918   -0.0745    2.2236 O   0  0  0  0  0  0  0  0  0  0  0  0
   -1.0024    0.6217    2.6735 N   0  0  0  0  0  0  0  0  0  0  0  0
   -1.9213    0.7848    2.2938 H   0  0  0  0  0  0  0  0  0  0  0  0
   -0.7639    0.9676    4.0741 C   0  0  0  0  0  0  0  0  0  0  0  0
    0.0520    1.6916    4.1400 H   0  0  0  0  0  0  0  0  0  0  0  0
   -1.6626    1.3984    4.5182 H   0  0  0  0  0  0  0  0  0  0  0  0
   -0.4775    0.0737    4.6309 H   0  0  0  0  0  0  0  0  0  0  0  0
  5  6  2  0  0  0  0
  5  7  1  0  0  0  0
  2  3  1  0  0  0  0
  2  4  1  0  0  0  0
  2  5  1  0  0  0  0
  1  2  1  0  0  0  0
 22 23  2  0  0  0  0
 22 24  1  0  0  0  0
 19 20  1  0  0  0  0
 19 21  1  0  0  0  0
 17 18  2  0  0  0  0
 17 19  1  0  0  0  0
 14 15  1  0  0  0  0
 14 16  1  0  0  0  0
 14 17  1  0  0  0  0
 11 12  1  0  0  0  0
 11 13  1  0  0  0  0
 11 14  1  0  0  0  0
  9 10  1  0  0  0  0
  9 11  1  0  0  0  0
  9 22  1  0  0  0  0
  7  8  1  0  0  0  0
  7  9  1  0  0  0  0
 26 27  1  0  0  0  0
 26 28  1  0  0  0  0
 26 29  1  0  0  0  0
 24 25  1  0  0  0  0
 24 26  1  0  0  0  0
M  END
$$$$
default_name
  -OEChem-02102213163D

 29 28  0     1  0  0  0  0  0999 V2000
   -3.3998   -3.6239    1.3678 H   0  0  0  0  0  0  0  0  0  0  0  0
   -3.3608   -2.6749    0.8348 C   0  0  0  0  0  0  0  0  0  0  0  0
   -4.0988   -1.9909    1.2498 H   0  0  0  0  0  0  0  0  0  0  0  0
   -3.5618   -2.8419   -0.2222 H   0  0  0  0  0  0  0  0  0  0  0  0
   -1.9818   -2.0809    0.9918 C   0  0  0  0  0  0  0  0  0  0  0  0
   -1.1288   -2.6669    1.6468 O   0  0  0  0  0  0  0  0  0  0  0  0
   -1.7648   -0.9089    0.3998 N   0  0  0  0  0  0  0  0  0  0  0  0
   -2.5238   -0.4719   -0.1032 H   0  0  0  0  0  0  0  0  0  0  0  0
   -0.4848   -0.1959    0.4138 C   0  0  1  0  0  0  0  0  0  0  0  0
    0.2783   -0.8411   -0.0248 H   0  0  0  0  0  0  0  0  0  0  0  0
   -0.6101    1.0666   -0.4611 C   0  0  0  0  0  0  0  0  0  0  0  0
    0.2732    1.1309   -1.0998 H   0  0  0  0  0  0  0  0  0  0  0  0
   -1.4880    0.9706   -1.1018 H   0  0  0  0  0  0  0  0  0  0  0  0
   -0.7225    2.3730    0.3439 C   0  0  0  0  0  0  0  0  0  0  0  0
   -1.3202    3.0959   -0.2109 H   0  0  0  0  0  0  0  0  0  0  0  0
   -1.2200    2.1634    1.2908 H   0  0  0  0  0  0  0  0  0  0  0  0
    0.6329    3.0128    0.6443 C   0  0  0  0  0  0  0  0  0  0  0  0
    1.6955    2.5012    0.3445 O   0  0  0  0  0  0  0  0  0  0  0  0
    0.6536    4.1797    1.2510 N   0  0  0  0  0  0  0  0  0  0  0  0
    1.5706    4.5541    1.4228 H   0  0  0  0  0  0  0  0  0  0  0  0
   -0.1904    4.6451    1.5170 H   0  0  0  0  0  0  0  0  0  0  0  0
   -0.0637    0.1284    1.8555 C   0  0  0  0  0  0  0  0  0  0  0  0
    1.0918   -0.0745    2.2236 O   0  0  0  0  0  0  0  0  0  0  0  0
   -1.0024    0.6217    2.6735 N   0  0  0  0  0  0  0  0  0  0  0  0
   -1.9213    0.7848    2.2938 H   0  0  0  0  0  0  0  0  0  0  0  0
   -0.7639    0.9676    4.0741 C   0  0  0  0  0  0  0  0  0  0  0  0
    0.0520    1.6916    4.1400 H   0  0  0  0  0  0  0  0  0  0  0  0
   -1.6626    1.3984    4.5182 H   0  0  0  0  0  0  0  0  0  0  0  0
   -0.4775    0.0737    4.6309 H   0  0  0  0  0  0  0  0  0  0  0  0
  5  6  2  0  0  0  0
  5  7  1  0  0  0  0
  2  3  1  0  0  0  0
  2  4  1  0  0  0  0
  2  5  1  0  0  0  0
  1  2  1  0  0  0  0
 22 23  2  0  0  0  0
 22 24  1  0  0  0  0
 19 20  1  0  0  0  0
 19 21  1  0  0  0  0
 17 18  2  0  0  0  0
 17 19  1  0  0  0  0
 14 15  1  0  0  0  0
 14 16  1  0  0  0  0
 14 17  1  0  0  0  0
 11 12  1  0  0  0  0
 11 13  1  0  0  0  0
 11 14  1  0  0  0  0
  9 10  1  0  0  0  0
  9 11  1  0  0  0  0
  9 22  1  0  0  0  0
  7  8  1  0  0  0  0
  7  9  1  0  0  0  0
 26 27  1  0  0  0  0
 26 28  1  0  0  0  0
 26 29  1  0  0  0  0
 24 25  1  0  0  0  0
 24 26  1  0  0  0  0
M  END
$$$$
default_name
  -OEChem-02102213163D

 29 28  0     1  0  0  0  0  0999 V2000
   -3.3998   -3.6239    1.3678 H   0  0  0  0  0  0  0  0  0  0  0  0
   -3.3608   -2.6749    0.8348 C   0  0  0  0  0  0  0  0  0  0  0  0
   -4.0988   -1.9909    1.2498 H   0  0  0  0  0  0  0  0  0  0  0  0
   -3.5618   -2.8419   -0.2222 H   0  0  0  0  0  0  0  0  0  0  0  0
   -1.9818   -2.0809    0.9918 C   0  0  0  0  0  0  0  0  0  0  0  0
   -1.1288   -2.6669    1.6468 O   0  0  0  0  0  0  0  0  0  0  0  0
   -1.7648   -0.9089    0.3998 N   0  0  0  0  0  0  0  0  0  0  0  0
   -2.5238   -0.4719   -0.1032 H   0  0  0  0  0  0  0  0  0  0  0  0
   -0.4848   -0.1959    0.4138 C   0  0  1  0  0  0  0  0  0  0  0  0
    0.2783   -0.8411   -0.0248 H   0  0  0  0  0  0  0  0  0  0  0  0
   -0.6101    1.0666   -0.4611 C   0  0  0  0  0  0  0  0  0  0  0  0
    0.2732    1.1309   -1.0998 H   0  0  0  0  0  0  0  0  0  0  0  0
   -1.4880    0.9706   -1.1018 H   0  0  0  0  0  0  0  0  0  0  0  0
   -0.7225    2.3730    0.3439 C   0  0  0  0  0  0  0  0  0  0  0  0
   -1.5206    2.9904   -0.0678 H   0  0  0  0  0  0  0  0  0  0  0  0
   -0.9675    2.1313    1.3781 H   0  0  0  0  0  0  0  0  0  0  0  0
    0.5646    3.1976    0.3349 C   0  0  0  0  0  0  0  0  0  0  0  0
    1.5960    2.8223   -0.1905 O   0  0  0  0  0  0  0  0  0  0  0  0
    0.5567    4.3768    0.9176 N   0  0  0  0  0  0  0  0  0  0  0  0
    1.4286    4.8757    0.8810 H   0  0  0  0  0  0  0  0  0  0  0  0
   -0.2646    4.7344    1.3618 H   0  0  0  0  0  0  0  0  0  0  0  0
   -0.0637    0.1284    1.8555 C   0  0  0  0  0  0  0  0  0  0  0  0
    1.0918   -0.0745    2.2236 O   0  0  0  0  0  0  0  0  0  0  0  0
   -1.0024    0.6217    2.6735 N   0  0  0  0  0  0  0  0  0  0  0  0
   -1.9213    0.7848    2.2938 H   0  0  0  0  0  0  0  0  0  0  0  0
   -0.7639    0.9676    4.0741 C   0  0  0  0  0  0  0  0  0  0  0  0
    0.0520    1.6916    4.1400 H   0  0  0  0  0  0  0  0  0  0  0  0
   -1.6626    1.3984    4.5182 H   0  0  0  0  0  0  0  0  0  0  0  0
   -0.4775    0.0737    4.6309 H   0  0  0  0  0  0  0  0  0  0  0  0
  5  6  2  0  0  0  0
  5  7  1  0  0  0  0
  2  3  1  0  0  0  0
  2  4  1  0  0  0  0
  2  5  1  0  0  0  0
  1  2  1  0  0  0  0
 22 23  2  0  0  0  0
 22 24  1  0  0  0  0
 19 20  1  0  0  0  0
 19 21  1  0  0  0  0
 17 18  2  0  0  0  0
 17 19  1  0  0  0  0
 14 15  1  0  0  0  0
 14 16  1  0  0  0  0
 14 17  1  0  0  0  0
 11 12  1  0  0  0  0
 11 13  1  0  0  0  0
 11 14  1  0  0  0  0
  9 10  1  0  0  0  0
  9 11  1  0  0  0  0
  9 22  1  0  0  0  0
  7  8  1  0  0  0  0
  7  9  1  0  0  0  0
 26 27  1  0  0  0  0
 26 28  1  0  0  0  0
 26 29  1  0  0  0  0
 24 25  1  0  0  0  0
 24 26  1  0  0  0  0
M  END
$$$$
default_name
  -OEChem-02102213163D

 29 28  0     1  0  0  0  0  0999 V2000
   -3.3998   -3.6239    1.3678 H   0  0  0  0  0  0  0  0  0  0  0  0
   -3.3608   -2.6749    0.8348 C   0  0  0  0  0  0  0  0  0  0  0  0
   -4.0988   -1.9909    1.2498 H   0  0  0  0  0  0  0  0  0  0  0  0
   -3.5618   -2.8419   -0.2222 H   0  0  0  0  0  0  0  0  0  0  0  0
   -1.9818   -2.0809    0.9918 C   0  0  0  0  0  0  0  0  0  0  0  0
   -1.1288   -2.6669    1.6468 O   0  0  0  0  0  0  0  0  0  0  0  0
   -1.7648   -0.9089    0.3998 N   0  0  0  0  0  0  0  0  0  0  0  0
   -2.5238   -0.4719   -0.1032 H   0  0  0  0  0  0  0  0  0  0  0  0
   -0.4848   -0.1959    0.4138 C   0  0  1  0  0  0  0  0  0  0  0  0
    0.2783   -0.8411   -0.0248 H   0  0  0  0  0  0  0  0  0  0  0  0
   -0.6101    1.0666   -0.4611 C   0  0  0  0  0  0  0  0  0  0  0  0
    0.2732    1.1309   -1.0998 H   0  0  0  0  0  0  0  0  0  0  0  0
   -1.4880    0.9706   -1.1018 H   0  0  0  0  0  0  0  0  0  0  0  0
   -0.7225    2.3730    0.3439 C   0  0  0  0  0  0  0  0  0  0  0  0
   -1.6684    2.8642    0.1165 H   0  0  0  0  0  0  0  0  0  0  0  0
   -0.7000    2.1362    1.4076 H   0  0  0  0  0  0  0  0  0  0  0  0
    0.4056    3.3610    0.0475 C   0  0  0  0  0  0  0  0  0  0  0  0
    1.3389    3.1089   -0.6915 O   0  0  0  0  0  0  0  0  0  0  0  0
    0.3631    4.5478    0.6131 N   0  0  0  0  0  0  0  0  0  0  0  0
    1.1288    5.1569    0.3828 H   0  0  0  0  0  0  0  0  0  0  0  0
   -0.3825    4.8076    1.2265 H   0  0  0  0  0  0  0  0  0  0  0  0
   -0.0637    0.1284    1.8555 C   0  0  0  0  0  0  0  0  0  0  0  0
    1.0918   -0.0745    2.2236 O   0  0  0  0  0  0  0  0  0  0  0  0
   -1.0024    0.6217    2.6735 N   0  0  0  0  0  0  0  0  0  0  0  0
   -1.9213    0.7848    2.2938 H   0  0  0  0  0  0  0  0  0  0  0  0
   -0.7639    0.9676    4.0741 C   0  0  0  0  0  0  0  0  0  0  0  0
    0.0520    1.6916    4.1400 H   0  0  0  0  0  0  0  0  0  0  0  0
   -1.6626    1.3984    4.5182 H   0  0  0  0  0  0  0  0  0  0  0  0
   -0.4775    0.0737    4.6309 H   0  0  0  0  0  0  0  0  0  0  0  0
  5  6  2  0  0  0  0
  5  7  1  0  0  0  0
  2  3  1  0  0  0  0
  2  4  1  0  0  0  0
  2  5  1  0  0  0  0
  1  2  1  0  0  0  0
 22 23  2  0  0  0  0
 22 24  1  0  0  0  0
 19 20  1  0  0  0  0
 19 21  1  0  0  0  0
 17 18  2  0  0  0  0
 17 19  1  0  0  0  0
 14 15  1  0  0  0  0
 14 16  1  0  0  0  0
 14 17  1  0  0  0  0
 11 12  1  0  0  0  0
 11 13  1  0  0  0  0
 11 14  1  0  0  0  0
  9 10  1  0  0  0  0
  9 11  1  0  0  0  0
  9 22  1  0  0  0  0
  7  8  1  0  0  0  0
  7  9  1  0  0  0  0
 26 27  1  0  0  0  0
 26 28  1  0  0  0  0
 26 29  1  0  0  0  0
 24 25  1  0  0  0  0
 24 26  1  0  0  0  0
M  END
$$$$
default_name
  -OEChem-02102213163D

 29 28  0     1  0  0  0  0  0999 V2000
   -3.3998   -3.6239    1.3678 H   0  0  0  0  0  0  0  0  0  0  0  0
   -3.3608   -2.6749    0.8348 C   0  0  0  0  0  0  0  0  0  0  0  0
   -4.0988   -1.9909    1.2498 H   0  0  0  0  0  0  0  0  0  0  0  0
   -3.5618   -2.8419   -0.2222 H   0  0  0  0  0  0  0  0  0  0  0  0
   -1.9818   -2.0809    0.9918 C   0  0  0  0  0  0  0  0  0  0  0  0
   -1.1288   -2.6669    1.6468 O   0  0  0  0  0  0  0  0  0  0  0  0
   -1.7648   -0.9089    0.3998 N   0  0  0  0  0  0  0  0  0  0  0  0
   -2.5238   -0.4719   -0.1032 H   0  0  0  0  0  0  0  0  0  0  0  0
   -0.4848   -0.1959    0.4138 C   0  0  1  0  0  0  0  0  0  0  0  0
    0.2783   -0.8411   -0.0248 H   0  0  0  0  0  0  0  0  0  0  0  0
   -0.6101    1.0666   -0.4611 C   0  0  0  0  0  0  0  0  0  0  0  0
    0.2732    1.1309   -1.0998 H   0  0  0  0  0  0  0  0  0  0  0  0
   -1.4880    0.9706   -1.1018 H   0  0  0  0  0  0  0  0  0  0  0  0
   -0.7225    2.3730    0.3439 C   0  0  0  0  0  0  0  0  0  0  0  0
   -1.7535    2.7257    0.3294 H   0  0  0  0  0  0  0  0  0  0  0  0
   -0.4358    2.1776    1.3772 H   0  0  0  0  0  0  0  0  0  0  0  0
    0.1668    3.4919   -0.1983 C   0  0  0  0  0  0  0  0  0  0  0  0
    0.9417    3.3415   -1.1243 O   0  0  0  0  0  0  0  0  0  0  0  0
    0.0860    4.6810    0.3583 N   0  0  0  0  0  0  0  0  0  0  0  0
    0.6917    5.3786   -0.0379 H   0  0  0  0  0  0  0  0  0  0  0  0
   -0.5361    4.8598    1.1204 H   0  0  0  0  0  0  0  0  0  0  0  0
   -0.0637    0.1284    1.8555 C   0  0  0  0  0  0  0  0  0  0  0  0
    1.0918   -0.0745    2.2236 O   0  0  0  0  0  0  0  0  0  0  0  0
   -1.0024    0.6217    2.6735 N   0  0  0  0  0  0  0  0  0  0  0  0
   -1.9213    0.7848    2.2938 H   0  0  0  0  0  0  0  0  0  0  0  0
   -0.7639    0.9676    4.0741 C   0  0  0  0  0  0  0  0  0  0  0  0
    0.0520    1.6916    4.1400 H   0  0  0  0  0  0  0  0  0  0  0  0
   -1.6626    1.3984    4.5182 H   0  0  0  0  0  0  0  0  0  0  0  0
   -0.4775    0.0737    4.6309 H   0  0  0  0  0  0  0  0  0  0  0  0
  5  6  2  0  0  0  0
  5  7  1  0  0  0  0
  2  3  1  0  0  0  0
  2  4  1  0  0  0  0
  2  5  1  0  0  0  0
  1  2  1  0  0  0  0
 22 23  2  0  0  0  0
 22 24  1  0  0  0  0
 19 20  1  0  0  0  0
 19 21  1  0  0  0  0
 17 18  2  0  0  0  0
 17 19  1  0  0  0  0
 14 15  1  0  0  0  0
 14 16  1  0  0  0  0
 14 17  1  0  0  0  0
 11 12  1  0  0  0  0
 11 13  1  0  0  0  0
 11 14  1  0  0  0  0
  9 10  1  0  0  0  0
  9 11  1  0  0  0  0
  9 22  1  0  0  0  0
  7  8  1  0  0  0  0
  7  9  1  0  0  0  0
 26 27  1  0  0  0  0
 26 28  1  0  0  0  0
 26 29  1  0  0  0  0
 24 25  1  0  0  0  0
 24 26  1  0  0  0  0
M  END
$$$$
default_name
  -OEChem-02102213163D

 29 28  0     1  0  0  0  0  0999 V2000
   -3.3998   -3.6239    1.3678 H   0  0  0  0  0  0  0  0  0  0  0  0
   -3.3608   -2.6749    0.8348 C   0  0  0  0  0  0  0  0  0  0  0  0
   -4.0988   -1.9909    1.2498 H   0  0  0  0  0  0  0  0  0  0  0  0
   -3.5618   -2.8419   -0.2222 H   0  0  0  0  0  0  0  0  0  0  0  0
   -1.9818   -2.0809    0.9918 C   0  0  0  0  0  0  0  0  0  0  0  0
   -1.1288   -2.6669    1.6468 O   0  0  0  0  0  0  0  0  0  0  0  0
   -1.7648   -0.9089    0.3998 N   0  0  0  0  0  0  0  0  0  0  0  0
   -2.5238   -0.4719   -0.1032 H   0  0  0  0  0  0  0  0  0  0  0  0
   -0.4848   -0.1959    0.4138 C   0  0  1  0  0  0  0  0  0  0  0  0
    0.2783   -0.8411   -0.0248 H   0  0  0  0  0  0  0  0  0  0  0  0
   -0.6101    1.0666   -0.4611 C   0  0  0  0  0  0  0  0  0  0  0  0
    0.2732    1.1309   -1.0998 H   0  0  0  0  0  0  0  0  0  0  0  0
   -1.4880    0.9706   -1.1018 H   0  0  0  0  0  0  0  0  0  0  0  0
   -0.7225    2.3730    0.3439 C   0  0  0  0  0  0  0  0  0  0  0  0
   -1.7703    2.5844    0.5564 H   0  0  0  0  0  0  0  0  0  0  0  0
   -0.1929    2.2529    1.2890 H   0  0  0  0  0  0  0  0  0  0  0  0
   -0.1357    3.5814   -0.3857 C   0  0  0  0  0  0  0  0  0  0  0  0
    0.4313    3.5041   -1.4595 O   0  0  0  0  0  0  0  0  0  0  0  0
   -0.2557    4.7673    0.1705 N   0  0  0  0  0  0  0  0  0  0  0  0
    0.1470    5.5255   -0.3524 H   0  0  0  0  0  0  0  0  0  0  0  0
   -0.7148    4.8874    1.0506 H   0  0  0  0  0  0  0  0  0  0  0  0
   -0.0637    0.1284    1.8555 C   0  0  0  0  0  0  0  0  0  0  0  0
    1.0918   -0.0745    2.2236 O   0  0  0  0  0  0  0  0  0  0  0  0
   -1.0024    0.6217    2.6735 N   0  0  0  0  0  0  0  0  0  0  0  0
   -1.9213    0.7848    2.2938 H   0  0  0  0  0  0  0  0  0  0  0  0
   -0.7639    0.9676    4.0741 C   0  0  0  0  0  0  0  0  0  0  0  0
    0.0520    1.6916    4.1400 H   0  0  0  0  0  0  0  0  0  0  0  0
   -1.6626    1.3984    4.5182 H   0  0  0  0  0  0  0  0  0  0  0  0
   -0.4775    0.0737    4.6309 H   0  0  0  0  0  0  0  0  0  0  0  0
  5  6  2  0  0  0  0
  5  7  1  0  0  0  0
  2  3  1  0  0  0  0
  2  4  1  0  0  0  0
  2  5  1  0  0  0  0
  1  2  1  0  0  0  0
 22 23  2  0  0  0  0
 22 24  1  0  0  0  0
 19 20  1  0  0  0  0
 19 21  1  0  0  0  0
 17 18  2  0  0  0  0
 17 19  1  0  0  0  0
 14 15  1  0  0  0  0
 14 16  1  0  0  0  0
 14 17  1  0  0  0  0
 11 12  1  0  0  0  0
 11 13  1  0  0  0  0
 11 14  1  0  0  0  0
  9 10  1  0  0  0  0
  9 11  1  0  0  0  0
  9 22  1  0  0  0  0
  7  8  1  0  0  0  0
  7  9  1  0  0  0  0
 26 27  1  0  0  0  0
 26 28  1  0  0  0  0
 26 29  1  0  0  0  0
 24 25  1  0  0  0  0
 24 26  1  0  0  0  0
M  END
$$$$
default_name
  -OEChem-02102213163D

 29 28  0     1  0  0  0  0  0999 V2000
   -3.3998   -3.6239    1.3678 H   0  0  0  0  0  0  0  0  0  0  0  0
   -3.3608   -2.6749    0.8348 C   0  0  0  0  0  0  0  0  0  0  0  0
   -4.0988   -1.9909    1.2498 H   0  0  0  0  0  0  0  0  0  0  0  0
   -3.5618   -2.8419   -0.2222 H   0  0  0  0  0  0  0  0  0  0  0  0
   -1.9818   -2.0809    0.9918 C   0  0  0  0  0  0  0  0  0  0  0  0
   -1.1288   -2.6669    1.6468 O   0  0  0  0  0  0  0  0  0  0  0  0
   -1.7648   -0.9089    0.3998 N   0  0  0  0  0  0  0  0  0  0  0  0
   -2.5238   -0.4719   -0.1032 H   0  0  0  0  0  0  0  0  0  0  0  0
   -0.4848   -0.1959    0.4138 C   0  0  1  0  0  0  0  0  0  0  0  0
    0.2783   -0.8411   -0.0248 H   0  0  0  0  0  0  0  0  0  0  0  0
   -0.6101    1.0666   -0.4611 C   0  0  0  0  0  0  0  0  0  0  0  0
    0.2732    1.1309   -1.0998 H   0  0  0  0  0  0  0  0  0  0  0  0
   -1.4880    0.9706   -1.1018 H   0  0  0  0  0  0  0  0  0  0  0  0
   -0.7225    2.3730    0.3439 C   0  0  0  0  0  0  0  0  0  0  0  0
   -1.7174    2.4499    0.7819 H   0  0  0  0  0  0  0  0  0  0  0  0
    0.0121    2.3567    1.1490 H   0  0  0  0  0  0  0  0  0  0  0  0
   -0.4811    3.6233   -0.5019 C   0  0  0  0  0  0  0  0  0  0  0  0
   -0.1573    3.5858   -1.6742 O   0  0  0  0  0  0  0  0  0  0  0  0
   -0.6386    4.8009    0.0626 N   0  0  0  0  0  0  0  0  0  0  0  0
   -0.4681    5.5877   -0.5392 H   0  0  0  0  0  0  0  0  0  0  0  0
   -0.9064    4.8886    1.0220 H   0  0  0  0  0  0  0  0  0  0  0  0
   -0.0637    0.1284    1.8555 C   0  0  0  0  0  0  0  0  0  0  0  0
    1.0918   -0.0745    2.2236 O   0  0  0  0  0  0  0  0  0  0  0  0
   -1.0024    0.6217    2.6735 N   0  0  0  0  0  0  0  0  0  0  0  0
   -1.9213    0.7848    2.2938 H   0  0  0  0  0  0  0  0  0  0  0  0
   -0.7639    0.9676    4.0741 C   0  0  0  0  0  0  0  0  0  0  0  0
    0.0520    1.6916    4.1400 H   0  0  0  0  0  0  0  0  0  0  0  0
   -1.6626    1.3984    4.5182 H   0  0  0  0  0  0  0  0  0  0  0  0
   -0.4775    0.0737    4.6309 H   0  0  0  0  0  0  0  0  0  0  0  0
  5  6  2  0  0  0  0
  5  7  1  0  0  0  0
  2  3  1  0  0  0  0
  2  4  1  0  0  0  0
  2  5  1  0  0  0  0
  1  2  1  0  0  0  0
 22 23  2  0  0  0  0
 22 24  1  0  0  0  0
 19 20  1  0  0  0  0
 19 21  1  0  0  0  0
 17 18  2  0  0  0  0
 17 19  1  0  0  0  0
 14 15  1  0  0  0  0
 14 16  1  0  0  0  0
 14 17  1  0  0  0  0
 11 12  1  0  0  0  0
 11 13  1  0  0  0  0
 11 14  1  0  0  0  0
  9 10  1  0  0  0  0
  9 11  1  0  0  0  0
  9 22  1  0  0  0  0
  7  8  1  0  0  0  0
  7  9  1  0  0  0  0
 26 27  1  0  0  0  0
 26 28  1  0  0  0  0
 26 29  1  0  0  0  0
 24 25  1  0  0  0  0
 24 26  1  0  0  0  0
M  END
$$$$
default_name
  -OEChem-02102213163D

 29 28  0     1  0  0  0  0  0999 V2000
   -3.3998   -3.6239    1.3678 H   0  0  0  0  0  0  0  0  0  0  0  0
   -3.3608   -2.6749    0.8348 C   0  0  0  0  0  0  0  0  0  0  0  0
   -4.0988   -1.9909    1.2498 H   0  0  0  0  0  0  0  0  0  0  0  0
   -3.5618   -2.8419   -0.2222 H   0  0  0  0  0  0  0  0  0  0  0  0
   -1.9818   -2.0809    0.9918 C   0  0  0  0  0  0  0  0  0  0  0  0
   -1.1288   -2.6669    1.6468 O   0  0  0  0  0  0  0  0  0  0  0  0
   -1.7648   -0.9089    0.3998 N   0  0  0  0  0  0  0  0  0  0  0  0
   -2.5238   -0.4719   -0.1032 H   0  0  0  0  0  0  0  0  0  0  0  0
   -0.4848   -0.1959    0.4138 C   0  0  1  0  0  0  0  0  0  0  0  0
    0.2783   -0.8411   -0.0248 H   0  0  0  0  0  0  0  0  0  0  0  0
   -0.6101    1.0666   -0.4611 C   0  0  0  0  0  0  0  0  0  0  0  0
    0.1162    0.9950   -1.2734 H   0  0  0  0  0  0  0  0  0  0  0  0
   -1.6091    1.0993   -0.8987 H   0  0  0  0  0  0  0  0  0  0  0  0
   -0.3577    2.3794    0.3007 C   0  0  0  0  0  0  0  0  0  0  0  0
   -1.0720    2.4723    1.1186 H   0  0  0  0  0  0  0  0  0  0  0  0
    0.6488    2.3581    0.7183 H   0  0  0  0  0  0  0  0  0  0  0  0
   -0.4861    3.6210   -0.5816 C   0  0  0  0  0  0  0  0  0  0  0  0
   -0.6906    3.5720   -1.7801 O   0  0  0  0  0  0  0  0  0  0  0  0
   -0.3778    4.8041   -0.0169 N   0  0  0  0  0  0  0  0  0  0  0  0
   -0.4712    5.5849   -0.6431 H   0  0  0  0  0  0  0  0  0  0  0  0
   -0.2124    4.9013    0.9644 H   0  0  0  0  0  0  0  0  0  0  0  0
   -0.0637    0.1284    1.8555 C   0  0  0  0  0  0  0  0  0  0  0  0
    1.0918   -0.0745    2.2236 O   0  0  0  0  0  0  0  0  0  0  0  0
   -1.0024    0.6217    2.6735 N   0  0  0  0  0  0  0  0  0  0  0  0
   -1.9213    0.7848    2.2938 H   0  0  0  0  0  0  0  0  0  0  0  0
   -0.7639    0.9676    4.0741 C   0  0  0  0  0  0  0  0  0  0  0  0
    0.0520    1.6916    4.1400 H   0  0  0  0  0  0  0  0  0  0  0  0
   -1.6626    1.3984    4.5182 H   0  0  0  0  0  0  0  0  0  0  0  0
   -0.4775    0.0737    4.6309 H   0  0  0  0  0  0  0  0  0  0  0  0
  5  6  2  0  0  0  0
  5  7  1  0  0  0  0
  2  3  1  0  0  0  0
  2  4  1  0  0  0  0
  2  5  1  0  0  0  0
  1  2  1  0  0  0  0
 22 23  2  0  0  0  0
 22 24  1  0  0  0  0
 19 20  1  0  0  0  0
 19 21  1  0  0  0  0
 17 18  2  0  0  0  0
 17 19  1  0  0  0  0
 14 15  1  0  0  0  0
 14 16  1  0  0  0  0
 14 17  1  0  0  0  0
 11 12  1  0  0  0  0
 11 13  1  0  0  0  0
 11 14  1  0  0  0  0
  9 10  1  0  0  0  0
  9 11  1  0  0  0  0
  9 22  1  0  0  0  0
  7  8  1  0  0  0  0
  7  9  1  0  0  0  0
 26 27  1  0  0  0  0
 26 28  1  0  0  0  0
 26 29  1  0  0  0  0
 24 25  1  0  0  0  0
 24 26  1  0  0  0  0
M  END
$$$$
default_name
  -OEChem-02102213163D

 29 28  0     1  0  0  0  0  0999 V2000
   -3.3998   -3.6239    1.3678 H   0  0  0  0  0  0  0  0  0  0  0  0
   -3.3608   -2.6749    0.8348 C   0  0  0  0  0  0  0  0  0  0  0  0
   -4.0988   -1.9909    1.2498 H   0  0  0  0  0  0  0  0  0  0  0  0
   -3.5618   -2.8419   -0.2222 H   0  0  0  0  0  0  0  0  0  0  0  0
   -1.9818   -2.0809    0.9918 C   0  0  0  0  0  0  0  0  0  0  0  0
   -1.1288   -2.6669    1.6468 O   0  0  0  0  0  0  0  0  0  0  0  0
   -1.7648   -0.9089    0.3998 N   0  0  0  0  0  0  0  0  0  0  0  0
   -2.5238   -0.4719   -0.1032 H   0  0  0  0  0  0  0  0  0  0  0  0
   -0.4848   -0.1959    0.4138 C   0  0  1  0  0  0  0  0  0  0  0  0
    0.2783   -0.8411   -0.0248 H   0  0  0  0  0  0  0  0  0  0  0  0
   -0.6101    1.0666   -0.4611 C   0  0  0  0  0  0  0  0  0  0  0  0
    0.1162    0.9950   -1.2734 H   0  0  0  0  0  0  0  0  0  0  0  0
   -1.6091    1.0993   -0.8987 H   0  0  0  0  0  0  0  0  0  0  0  0
   -0.3577    2.3794    0.3007 C   0  0  0  0  0  0  0  0  0  0  0  0
   -0.8770    2.3536    1.2586 H   0  0  0  0  0  0  0  0  0  0  0  0
    0.7114    2.4804    0.4869 H   0  0  0  0  0  0  0  0  0  0  0  0
   -0.8323    3.6172   -0.4603 C   0  0  0  0  0  0  0  0  0  0  0  0
   -1.2919    3.5751   -1.5862 O   0  0  0  0  0  0  0  0  0  0  0  0
   -0.7474    4.7878    0.1335 N   0  0  0  0  0  0  0  0  0  0  0  0
   -1.0740    5.5665   -0.4118 H   0  0  0  0  0  0  0  0  0  0  0  0
   -0.3800    4.8786    1.0590 H   0  0  0  0  0  0  0  0  0  0  0  0
   -0.0637    0.1284    1.8555 C   0  0  0  0  0  0  0  0  0  0  0  0
    1.0918   -0.0745    2.2236 O   0  0  0  0  0  0  0  0  0  0  0  0
   -1.0024    0.6217    2.6735 N   0  0  0  0  0  0  0  0  0  0  0  0
   -1.9213    0.7848    2.2938 H   0  0  0  0  0  0  0  0  0  0  0  0
   -0.7639    0.9676    4.0741 C   0  0  0  0  0  0  0  0  0  0  0  0
    0.0520    1.6916    4.1400 H   0  0  0  0  0  0  0  0  0  0  0  0
   -1.6626    1.3984    4.5182 H   0  0  0  0  0  0  0  0  0  0  0  0
   -0.4775    0.0737    4.6309 H   0  0  0  0  0  0  0  0  0  0  0  0
  5  6  2  0  0  0  0
  5  7  1  0  0  0  0
  2  3  1  0  0  0  0
  2  4  1  0  0  0  0
  2  5  1  0  0  0  0
  1  2  1  0  0  0  0
 22 23  2  0  0  0  0
 22 24  1  0  0  0  0
 19 20  1  0  0  0  0
 19 21  1  0  0  0  0
 17 18  2  0  0  0  0
 17 19  1  0  0  0  0
 14 15  1  0  0  0  0
 14 16  1  0  0  0  0
 14 17  1  0  0  0  0
 11 12  1  0  0  0  0
 11 13  1  0  0  0  0
 11 14  1  0  0  0  0
  9 10  1  0  0  0  0
  9 11  1  0  0  0  0
  9 22  1  0  0  0  0
  7  8  1  0  0  0  0
  7  9  1  0  0  0  0
 26 27  1  0  0  0  0
 26 28  1  0  0  0  0
 26 29  1  0  0  0  0
 24 25  1  0  0  0  0
 24 26  1  0  0  0  0
M  END
$$$$
default_name
  -OEChem-02102213163D

 29 28  0     1  0  0  0  0  0999 V2000
   -3.3998   -3.6239    1.3678 H   0  0  0  0  0  0  0  0  0  0  0  0
   -3.3608   -2.6749    0.8348 C   0  0  0  0  0  0  0  0  0  0  0  0
   -4.0988   -1.9909    1.2498 H   0  0  0  0  0  0  0  0  0  0  0  0
   -3.5618   -2.8419   -0.2222 H   0  0  0  0  0  0  0  0  0  0  0  0
   -1.9818   -2.0809    0.9918 C   0  0  0  0  0  0  0  0  0  0  0  0
   -1.1288   -2.6669    1.6468 O   0  0  0  0  0  0  0  0  0  0  0  0
   -1.7648   -0.9089    0.3998 N   0  0  0  0  0  0  0  0  0  0  0  0
   -2.5238   -0.4719   -0.1032 H   0  0  0  0  0  0  0  0  0  0  0  0
   -0.4848   -0.1959    0.4138 C   0  0  1  0  0  0  0  0  0  0  0  0
    0.2783   -0.8411   -0.0248 H   0  0  0  0  0  0  0  0  0  0  0  0
   -0.6101    1.0666   -0.4611 C   0  0  0  0  0  0  0  0  0  0  0  0
    0.1162    0.9950   -1.2734 H   0  0  0  0  0  0  0  0  0  0  0  0
   -1.6091    1.0993   -0.8987 H   0  0  0  0  0  0  0  0  0  0  0  0
   -0.3577    2.3794    0.3007 C   0  0  0  0  0  0  0  0  0  0  0  0
   -0.6424    2.2579    1.3457 H   0  0  0  0  0  0  0  0  0  0  0  0
    0.7051    2.6163    0.2547 H   0  0  0  0  0  0  0  0  0  0  0  0
   -1.1395    3.5640   -0.2669 C   0  0  0  0  0  0  0  0  0  0  0  0
   -1.8304    3.4928   -1.2659 O   0  0  0  0  0  0  0  0  0  0  0  0
   -1.0690    4.7184    0.3597 N   0  0  0  0  0  0  0  0  0  0  0  0
   -1.6028    5.4618   -0.0561 H   0  0  0  0  0  0  0  0  0  0  0  0
   -0.5181    4.8312    1.1865 H   0  0  0  0  0  0  0  0  0  0  0  0
   -0.0637    0.1284    1.8555 C   0  0  0  0  0  0  0  0  0  0  0  0
    1.0918   -0.0745    2.2236 O   0  0  0  0  0  0  0  0  0  0  0  0
   -1.0024    0.6217    2.6735 N   0  0  0  0  0  0  0  0  0  0  0  0
   -1.9213    0.7848    2.2938 H   0  0  0  0  0  0  0  0  0  0  0  0
   -0.7639    0.9676    4.0741 C   0  0  0  0  0  0  0  0  0  0  0  0
    0.0520    1.6916    4.1400 H   0  0  0  0  0  0  0  0  0  0  0  0
   -1.6626    1.3984    4.5182 H   0  0  0  0  0  0  0  0  0  0  0  0
   -0.4775    0.0737    4.6309 H   0  0  0  0  0  0  0  0  0  0  0  0
  5  6  2  0  0  0  0
  5  7  1  0  0  0  0
  2  3  1  0  0  0  0
  2  4  1  0  0  0  0
  2  5  1  0  0  0  0
  1  2  1  0  0  0  0
 22 23  2  0  0  0  0
 22 24  1  0  0  0  0
 19 20  1  0  0  0  0
 19 21  1  0  0  0  0
 17 18  2  0  0  0  0
 17 19  1  0  0  0  0
 14 15  1  0  0  0  0
 14 16  1  0  0  0  0
 14 17  1  0  0  0  0
 11 12  1  0  0  0  0
 11 13  1  0  0  0  0
 11 14  1  0  0  0  0
  9 10  1  0  0  0  0
  9 11  1  0  0  0  0
  9 22  1  0  0  0  0
  7  8  1  0  0  0  0
  7  9  1  0  0  0  0
 26 27  1  0  0  0  0
 26 28  1  0  0  0  0
 26 29  1  0  0  0  0
 24 25  1  0  0  0  0
 24 26  1  0  0  0  0
M  END
$$$$
default_name
  -OEChem-02102213163D

 29 28  0     1  0  0  0  0  0999 V2000
   -3.3998   -3.6239    1.3678 H   0  0  0  0  0  0  0  0  0  0  0  0
   -3.3608   -2.6749    0.8348 C   0  0  0  0  0  0  0  0  0  0  0  0
   -4.0988   -1.9909    1.2498 H   0  0  0  0  0  0  0  0  0  0  0  0
   -3.5618   -2.8419   -0.2222 H   0  0  0  0  0  0  0  0  0  0  0  0
   -1.9818   -2.0809    0.9918 C   0  0  0  0  0  0  0  0  0  0  0  0
   -1.1288   -2.6669    1.6468 O   0  0  0  0  0  0  0  0  0  0  0  0
   -1.7648   -0.9089    0.3998 N   0  0  0  0  0  0  0  0  0  0  0  0
   -2.5238   -0.4719   -0.1032 H   0  0  0  0  0  0  0  0  0  0  0  0
   -0.4848   -0.1959    0.4138 C   0  0  1  0  0  0  0  0  0  0  0  0
    0.2783   -0.8411   -0.0248 H   0  0  0  0  0  0  0  0  0  0  0  0
   -0.6101    1.0666   -0.4611 C   0  0  0  0  0  0  0  0  0  0  0  0
    0.1162    0.9950   -1.2734 H   0  0  0  0  0  0  0  0  0  0  0  0
   -1.6091    1.0993   -0.8987 H   0  0  0  0  0  0  0  0  0  0  0  0
   -0.3577    2.3794    0.3007 C   0  0  0  0  0  0  0  0  0  0  0  0
   -0.3843    2.1919    1.3740 H   0  0  0  0  0  0  0  0  0  0  0  0
    0.6304    2.7567    0.0376 H   0  0  0  0  0  0  0  0  0  0  0  0
   -1.3866    3.4650   -0.0145 C   0  0  0  0  0  0  0  0  0  0  0  0
   -2.2692    3.3307   -0.8412 O   0  0  0  0  0  0  0  0  0  0  0  0
   -1.3208    4.6005    0.6463 N   0  0  0  0  0  0  0  0  0  0  0  0
   -2.0216    5.2777    0.3998 H   0  0  0  0  0  0  0  0  0  0  0  0
   -0.6173    4.7623    1.3380 H   0  0  0  0  0  0  0  0  0  0  0  0
   -0.0637    0.1284    1.8555 C   0  0  0  0  0  0  0  0  0  0  0  0
    1.0918   -0.0745    2.2236 O   0  0  0  0  0  0  0  0  0  0  0  0
   -1.0024    0.6217    2.6735 N   0  0  0  0  0  0  0  0  0  0  0  0
   -1.9213    0.7848    2.2938 H   0  0  0  0  0  0  0  0  0  0  0  0
   -0.7639    0.9676    4.0741 C   0  0  0  0  0  0  0  0  0  0  0  0
    0.0520    1.6916    4.1400 H   0  0  0  0  0  0  0  0  0  0  0  0
   -1.6626    1.3984    4.5182 H   0  0  0  0  0  0  0  0  0  0  0  0
   -0.4775    0.0737    4.6309 H   0  0  0  0  0  0  0  0  0  0  0  0
  5  6  2  0  0  0  0
  5  7  1  0  0  0  0
  2  3  1  0  0  0  0
  2  4  1  0  0  0  0
  2  5  1  0  0  0  0
  1  2  1  0  0  0  0
 22 23  2  0  0  0  0
 22 24  1  0  0  0  0
 19 20  1  0  0  0  0
 19 21  1  0  0  0  0
 17 18  2  0  0  0  0
 17 19  1  0  0  0  0
 14 15  1  0  0  0  0
 14 16  1  0  0  0  0
 14 17  1  0  0  0  0
 11 12  1  0  0  0  0
 11 13  1  0  0  0  0
 11 14  1  0  0  0  0
  9 10  1  0  0  0  0
  9 11  1  0  0  0  0
  9 22  1  0  0  0  0
  7  8  1  0  0  0  0
  7  9  1  0  0  0  0
 26 27  1  0  0  0  0
 26 28  1  0  0  0  0
 26 29  1  0  0  0  0
 24 25  1  0  0  0  0
 24 26  1  0  0  0  0
M  END
$$$$
default_name
  -OEChem-02102213163D

 29 28  0     1  0  0  0  0  0999 V2000
   -3.3998   -3.6239    1.3678 H   0  0  0  0  0  0  0  0  0  0  0  0
   -3.3608   -2.6749    0.8348 C   0  0  0  0  0  0  0  0  0  0  0  0
   -4.0988   -1.9909    1.2498 H   0  0  0  0  0  0  0  0  0  0  0  0
   -3.5618   -2.8419   -0.2222 H   0  0  0  0  0  0  0  0  0  0  0  0
   -1.9818   -2.0809    0.9918 C   0  0  0  0  0  0  0  0  0  0  0  0
   -1.1288   -2.6669    1.6468 O   0  0  0  0  0  0  0  0  0  0  0  0
   -1.7648   -0.9089    0.3998 N   0  0  0  0  0  0  0  0  0  0  0  0
   -2.5238   -0.4719   -0.1032 H   0  0  0  0  0  0  0  0  0  0  0  0
   -0.4848   -0.1959    0.4138 C   0  0  1  0  0  0  0  0  0  0  0  0
    0.2783   -0.8411   -0.0248 H   0  0  0  0  0  0  0  0  0  0  0  0
   -0.6101    1.0666   -0.4611 C   0  0  0  0  0  0  0  0  0  0  0  0
    0.1162    0.9950   -1.2734 H   0  0  0  0  0  0  0  0  0  0  0  0
   -1.6091    1.0993   -0.8987 H   0  0  0  0  0  0  0  0  0  0  0  0
   -0.3577    2.3794    0.3007 C   0  0  0  0  0  0  0  0  0  0  0  0
   -0.1204    2.1600    1.3415 H   0  0  0  0  0  0  0  0  0  0  0  0
    0.4922    2.8919   -0.1496 H   0  0  0  0  0  0  0  0  0  0  0  0
   -1.5569    3.3271    0.2797 C   0  0  0  0  0  0  0  0  0  0  0  0
   -2.5786    3.0998   -0.3410 O   0  0  0  0  0  0  0  0  0  0  0  0
   -1.4857    4.4422    0.9737 N   0  0  0  0  0  0  0  0  0  0  0  0
   -2.3019    5.0269    0.9248 H   0  0  0  0  0  0  0  0  0  0  0  0
   -0.6708    4.6766    1.5034 H   0  0  0  0  0  0  0  0  0  0  0  0
   -0.0637    0.1284    1.8555 C   0  0  0  0  0  0  0  0  0  0  0  0
    1.0918   -0.0745    2.2236 O   0  0  0  0  0  0  0  0  0  0  0  0
   -1.0024    0.6217    2.6735 N   0  0  0  0  0  0  0  0  0  0  0  0
   -1.9213    0.7848    2.2938 H   0  0  0  0  0  0  0  0  0  0  0  0
   -0.7639    0.9676    4.0741 C   0  0  0  0  0  0  0  0  0  0  0  0
    0.0520    1.6916    4.1400 H   0  0  0  0  0  0  0  0  0  0  0  0
   -1.6626    1.3984    4.5182 H   0  0  0  0  0  0  0  0  0  0  0  0
   -0.4775    0.0737    4.6309 H   0  0  0  0  0  0  0  0  0  0  0  0
  5  6  2  0  0  0  0
  5  7  1  0  0  0  0
  2  3  1  0  0  0  0
  2  4  1  0  0  0  0
  2  5  1  0  0  0  0
  1  2  1  0  0  0  0
 22 23  2  0  0  0  0
 22 24  1  0  0  0  0
 19 20  1  0  0  0  0
 19 21  1  0  0  0  0
 17 18  2  0  0  0  0
 17 19  1  0  0  0  0
 14 15  1  0  0  0  0
 14 16  1  0  0  0  0
 14 17  1  0  0  0  0
 11 12  1  0  0  0  0
 11 13  1  0  0  0  0
 11 14  1  0  0  0  0
  9 10  1  0  0  0  0
  9 11  1  0  0  0  0
  9 22  1  0  0  0  0
  7  8  1  0  0  0  0
  7  9  1  0  0  0  0
 26 27  1  0  0  0  0
 26 28  1  0  0  0  0
 26 29  1  0  0  0  0
 24 25  1  0  0  0  0
 24 26  1  0  0  0  0
M  END
$$$$
default_name
  -OEChem-02102213163D

 29 28  0     1  0  0  0  0  0999 V2000
   -3.3998   -3.6239    1.3678 H   0  0  0  0  0  0  0  0  0  0  0  0
   -3.3608   -2.6749    0.8348 C   0  0  0  0  0  0  0  0  0  0  0  0
   -4.0988   -1.9909    1.2498 H   0  0  0  0  0  0  0  0  0  0  0  0
   -3.5618   -2.8419   -0.2222 H   0  0  0  0  0  0  0  0  0  0  0  0
   -1.9818   -2.0809    0.9918 C   0  0  0  0  0  0  0  0  0  0  0  0
   -1.1288   -2.6669    1.6468 O   0  0  0  0  0  0  0  0  0  0  0  0
   -1.7648   -0.9089    0.3998 N   0  0  0  0  0  0  0  0  0  0  0  0
   -2.5238   -0.4719   -0.1032 H   0  0  0  0  0  0  0  0  0  0  0  0
   -0.4848   -0.1959    0.4138 C   0  0  1  0  0  0  0  0  0  0  0  0
    0.2783   -0.8411   -0.0248 H   0  0  0  0  0  0  0  0  0  0  0  0
   -0.6101    1.0666   -0.4611 C   0  0  0  0  0  0  0  0  0  0  0  0
    0.1162    0.9950   -1.2734 H   0  0  0  0  0  0  0  0  0  0  0  0
   -1.6091    1.0993   -0.8987 H   0  0  0  0  0  0  0  0  0  0  0  0
   -0.3577    2.3794    0.3007 C   0  0  0  0  0  0  0  0  0  0  0  0
    0.1315    2.1643    1.2505 H   0  0  0  0  0  0  0  0  0  0  0  0
    0.3001    3.0128   -0.2942 H   0  0  0  0  0  0  0  0  0  0  0  0
   -1.6388    3.1595    0.5956 C   0  0  0  0  0  0  0  0  0  0  0  0
   -2.7373    2.8160    0.2008 O   0  0  0  0  0  0  0  0  0  0  0  0
   -1.5524    4.2543    1.3196 N   0  0  0  0  0  0  0  0  0  0  0  0
   -2.4246    4.7264    1.4832 H   0  0  0  0  0  0  0  0  0  0  0  0
   -0.6749    4.5799    1.6714 H   0  0  0  0  0  0  0  0  0  0  0  0
   -0.0637    0.1284    1.8555 C   0  0  0  0  0  0  0  0  0  0  0  0
    1.0918   -0.0745    2.2236 O   0  0  0  0  0  0  0  0  0  0  0  0
   -1.0024    0.6217    2.6735 N   0  0  0  0  0  0  0  0  0  0  0  0
   -1.9213    0.7848    2.2938 H   0  0  0  0  0  0  0  0  0  0  0  0
   -0.7639    0.9676    4.0741 C   0  0  0  0  0  0  0  0  0  0  0  0
    0.0520    1.6916    4.1400 H   0  0  0  0  0  0  0  0  0  0  0  0
   -1.6626    1.3984    4.5182 H   0  0  0  0  0  0  0  0  0  0  0  0
   -0.4775    0.0737    4.6309 H   0  0  0  0  0  0  0  0  0  0  0  0
  5  6  2  0  0  0  0
  5  7  1  0  0  0  0
  2  3  1  0  0  0  0
  2  4  1  0  0  0  0
  2  5  1  0  0  0  0
  1  2  1  0  0  0  0
 22 23  2  0  0  0  0
 22 24  1  0  0  0  0
 19 20  1  0  0  0  0
 19 21  1  0  0  0  0
 17 18  2  0  0  0  0
 17 19  1  0  0  0  0
 14 15  1  0  0  0  0
 14 16  1  0  0  0  0
 14 17  1  0  0  0  0
 11 12  1  0  0  0  0
 11 13  1  0  0  0  0
 11 14  1  0  0  0  0
  9 10  1  0  0  0  0
  9 11  1  0  0  0  0
  9 22  1  0  0  0  0
  7  8  1  0  0  0  0
  7  9  1  0  0  0  0
 26 27  1  0  0  0  0
 26 28  1  0  0  0  0
 26 29  1  0  0  0  0
 24 25  1  0  0  0  0
 24 26  1  0  0  0  0
M  END
$$$$
default_name
  -OEChem-02102213163D

 29 28  0     1  0  0  0  0  0999 V2000
   -3.3998   -3.6239    1.3678 H   0  0  0  0  0  0  0  0  0  0  0  0
   -3.3608   -2.6749    0.8348 C   0  0  0  0  0  0  0  0  0  0  0  0
   -4.0988   -1.9909    1.2498 H   0  0  0  0  0  0  0  0  0  0  0  0
   -3.5618   -2.8419   -0.2222 H   0  0  0  0  0  0  0  0  0  0  0  0
   -1.9818   -2.0809    0.9918 C   0  0  0  0  0  0  0  0  0  0  0  0
   -1.1288   -2.6669    1.6468 O   0  0  0  0  0  0  0  0  0  0  0  0
   -1.7648   -0.9089    0.3998 N   0  0  0  0  0  0  0  0  0  0  0  0
   -2.5238   -0.4719   -0.1032 H   0  0  0  0  0  0  0  0  0  0  0  0
   -0.4848   -0.1959    0.4138 C   0  0  1  0  0  0  0  0  0  0  0  0
    0.2783   -0.8411   -0.0248 H   0  0  0  0  0  0  0  0  0  0  0  0
   -0.6101    1.0666   -0.4611 C   0  0  0  0  0  0  0  0  0  0  0  0
    0.1162    0.9950   -1.2734 H   0  0  0  0  0  0  0  0  0  0  0  0
   -1.6091    1.0993   -0.8987 H   0  0  0  0  0  0  0  0  0  0  0  0
   -0.3577    2.3794    0.3007 C   0  0  0  0  0  0  0  0  0  0  0  0
    0.3542    2.2047    1.1072 H   0  0  0  0  0  0  0  0  0  0  0  0
    0.0671    3.1111   -0.3864 H   0  0  0  0  0  0  0  0  0  0  0  0
   -1.6267    2.9737    0.9117 C   0  0  0  0  0  0  0  0  0  0  0  0
   -2.7346    2.4984    0.7470 O   0  0  0  0  0  0  0  0  0  0  0  0
   -1.5163    4.0495    1.6605 N   0  0  0  0  0  0  0  0  0  0  0  0
   -2.3813    4.3967    2.0370 H   0  0  0  0  0  0  0  0  0  0  0  0
   -0.6295    4.4789    1.8304 H   0  0  0  0  0  0  0  0  0  0  0  0
   -0.0637    0.1284    1.8555 C   0  0  0  0  0  0  0  0  0  0  0  0
    1.0918   -0.0745    2.2236 O   0  0  0  0  0  0  0  0  0  0  0  0
   -1.0024    0.6217    2.6735 N   0  0  0  0  0  0  0  0  0  0  0  0
   -1.9213    0.7848    2.2938 H   0  0  0  0  0  0  0  0  0  0  0  0
   -0.7639    0.9676    4.0741 C   0  0  0  0  0  0  0  0  0  0  0  0
    0.0520    1.6916    4.1400 H   0  0  0  0  0  0  0  0  0  0  0  0
   -1.6626    1.3984    4.5182 H   0  0  0  0  0  0  0  0  0  0  0  0
   -0.4775    0.0737    4.6309 H   0  0  0  0  0  0  0  0  0  0  0  0
  5  6  2  0  0  0  0
  5  7  1  0  0  0  0
  2  3  1  0  0  0  0
  2  4  1  0  0  0  0
  2  5  1  0  0  0  0
  1  2  1  0  0  0  0
 22 23  2  0  0  0  0
 22 24  1  0  0  0  0
 19 20  1  0  0  0  0
 19 21  1  0  0  0  0
 17 18  2  0  0  0  0
 17 19  1  0  0  0  0
 14 15  1  0  0  0  0
 14 16  1  0  0  0  0
 14 17  1  0  0  0  0
 11 12  1  0  0  0  0
 11 13  1  0  0  0  0
 11 14  1  0  0  0  0
  9 10  1  0  0  0  0
  9 11  1  0  0  0  0
  9 22  1  0  0  0  0
  7  8  1  0  0  0  0
  7  9  1  0  0  0  0
 26 27  1  0  0  0  0
 26 28  1  0  0  0  0
 26 29  1  0  0  0  0
 24 25  1  0  0  0  0
 24 26  1  0  0  0  0
M  END
$$$$
default_name
  -OEChem-02102213163D

 29 28  0     1  0  0  0  0  0999 V2000
   -3.3998   -3.6239    1.3678 H   0  0  0  0  0  0  0  0  0  0  0  0
   -3.3608   -2.6749    0.8348 C   0  0  0  0  0  0  0  0  0  0  0  0
   -4.0988   -1.9909    1.2498 H   0  0  0  0  0  0  0  0  0  0  0  0
   -3.5618   -2.8419   -0.2222 H   0  0  0  0  0  0  0  0  0  0  0  0
   -1.9818   -2.0809    0.9918 C   0  0  0  0  0  0  0  0  0  0  0  0
   -1.1288   -2.6669    1.6468 O   0  0  0  0  0  0  0  0  0  0  0  0
   -1.7648   -0.9089    0.3998 N   0  0  0  0  0  0  0  0  0  0  0  0
   -2.5238   -0.4719   -0.1032 H   0  0  0  0  0  0  0  0  0  0  0  0
   -0.4848   -0.1959    0.4138 C   0  0  1  0  0  0  0  0  0  0  0  0
    0.2783   -0.8411   -0.0248 H   0  0  0  0  0  0  0  0  0  0  0  0
   -0.6101    1.0666   -0.4611 C   0  0  0  0  0  0  0  0  0  0  0  0
    0.1162    0.9950   -1.2734 H   0  0  0  0  0  0  0  0  0  0  0  0
   -1.6091    1.0993   -0.8987 H   0  0  0  0  0  0  0  0  0  0  0  0
   -0.3577    2.3794    0.3007 C   0  0  0  0  0  0  0  0  0  0  0  0
    0.5324    2.2783    0.9213 H   0  0  0  0  0  0  0  0  0  0  0  0
   -0.1909    3.1800   -0.4197 H   0  0  0  0  0  0  0  0  0  0  0  0
   -1.5213    2.7823    1.2065 C   0  0  0  0  0  0  0  0  0  0  0  0
   -2.5707    2.1689    1.2606 O   0  0  0  0  0  0  0  0  0  0  0  0
   -1.3799    3.8419    1.9731 N   0  0  0  0  0  0  0  0  0  0  0  0
   -2.1749    4.0603    2.5482 H   0  0  0  0  0  0  0  0  0  0  0  0
   -0.5375    4.3804    1.9696 H   0  0  0  0  0  0  0  0  0  0  0  0
   -0.0637    0.1284    1.8555 C   0  0  0  0  0  0  0  0  0  0  0  0
    1.0918   -0.0745    2.2236 O   0  0  0  0  0  0  0  0  0  0  0  0
   -1.0024    0.6217    2.6735 N   0  0  0  0  0  0  0  0  0  0  0  0
   -1.9213    0.7848    2.2938 H   0  0  0  0  0  0  0  0  0  0  0  0
   -0.7639    0.9676    4.0741 C   0  0  0  0  0  0  0  0  0  0  0  0
    0.0520    1.6916    4.1400 H   0  0  0  0  0  0  0  0  0  0  0  0
   -1.6626    1.3984    4.5182 H   0  0  0  0  0  0  0  0  0  0  0  0
   -0.4775    0.0737    4.6309 H   0  0  0  0  0  0  0  0  0  0  0  0
  5  6  2  0  0  0  0
  5  7  1  0  0  0  0
  2  3  1  0  0  0  0
  2  4  1  0  0  0  0
  2  5  1  0  0  0  0
  1  2  1  0  0  0  0
 22 23  2  0  0  0  0
 22 24  1  0  0  0  0
 19 20  1  0  0  0  0
 19 21  1  0  0  0  0
 17 18  2  0  0  0  0
 17 19  1  0  0  0  0
 14 15  1  0  0  0  0
 14 16  1  0  0  0  0
 14 17  1  0  0  0  0
 11 12  1  0  0  0  0
 11 13  1  0  0  0  0
 11 14  1  0  0  0  0
  9 10  1  0  0  0  0
  9 11  1  0  0  0  0
  9 22  1  0  0  0  0
  7  8  1  0  0  0  0
  7  9  1  0  0  0  0
 26 27  1  0  0  0  0
 26 28  1  0  0  0  0
 26 29  1  0  0  0  0
 24 25  1  0  0  0  0
 24 26  1  0  0  0  0
M  END
$$$$
default_name
  -OEChem-02102213163D

 29 28  0     1  0  0  0  0  0999 V2000
   -3.3998   -3.6239    1.3678 H   0  0  0  0  0  0  0  0  0  0  0  0
   -3.3608   -2.6749    0.8348 C   0  0  0  0  0  0  0  0  0  0  0  0
   -4.0988   -1.9909    1.2498 H   0  0  0  0  0  0  0  0  0  0  0  0
   -3.5618   -2.8419   -0.2222 H   0  0  0  0  0  0  0  0  0  0  0  0
   -1.9818   -2.0809    0.9918 C   0  0  0  0  0  0  0  0  0  0  0  0
   -1.1288   -2.6669    1.6468 O   0  0  0  0  0  0  0  0  0  0  0  0
   -1.7648   -0.9089    0.3998 N   0  0  0  0  0  0  0  0  0  0  0  0
   -2.5238   -0.4719   -0.1032 H   0  0  0  0  0  0  0  0  0  0  0  0
   -0.4848   -0.1959    0.4138 C   0  0  1  0  0  0  0  0  0  0  0  0
    0.2783   -0.8411   -0.0248 H   0  0  0  0  0  0  0  0  0  0  0  0
   -0.6101    1.0666   -0.4611 C   0  0  0  0  0  0  0  0  0  0  0  0
    0.1162    0.9950   -1.2734 H   0  0  0  0  0  0  0  0  0  0  0  0
   -1.6091    1.0993   -0.8987 H   0  0  0  0  0  0  0  0  0  0  0  0
   -0.3577    2.3794    0.3007 C   0  0  0  0  0  0  0  0  0  0  0  0
    0.6541    2.3802    0.7055 H   0  0  0  0  0  0  0  0  0  0  0  0
   -0.4563    3.2150   -0.3921 H   0  0  0  0  0  0  0  0  0  0  0  0
   -1.3299    2.5985    1.4598 C   0  0  0  0  0  0  0  0  0  0  0  0
   -2.2568    1.8497    1.7065 O   0  0  0  0  0  0  0  0  0  0  0  0
   -1.1526    3.6455    2.2361 N   0  0  0  0  0  0  0  0  0  0  0  0
   -1.8195    3.7401    2.9822 H   0  0  0  0  0  0  0  0  0  0  0  0
   -0.4053    4.2911    2.0797 H   0  0  0  0  0  0  0  0  0  0  0  0
   -0.0637    0.1284    1.8555 C   0  0  0  0  0  0  0  0  0  0  0  0
    1.0918   -0.0745    2.2236 O   0  0  0  0  0  0  0  0  0  0  0  0
   -1.0024    0.6217    2.6735 N   0  0  0  0  0  0  0  0  0  0  0  0
   -1.9213    0.7848    2.2938 H   0  0  0  0  0  0  0  0  0  0  0  0
   -0.7639    0.9676    4.0741 C   0  0  0  0  0  0  0  0  0  0  0  0
    0.0520    1.6916    4.1400 H   0  0  0  0  0  0  0  0  0  0  0  0
   -1.6626    1.3984    4.5182 H   0  0  0  0  0  0  0  0  0  0  0  0
   -0.4775    0.0737    4.6309 H   0  0  0  0  0  0  0  0  0  0  0  0
  5  6  2  0  0  0  0
  5  7  1  0  0  0  0
  2  3  1  0  0  0  0
  2  4  1  0  0  0  0
  2  5  1  0  0  0  0
  1  2  1  0  0  0  0
 22 23  2  0  0  0  0
 22 24  1  0  0  0  0
 19 20  1  0  0  0  0
 19 21  1  0  0  0  0
 17 18  2  0  0  0  0
 17 19  1  0  0  0  0
 14 15  1  0  0  0  0
 14 16  1  0  0  0  0
 14 17  1  0  0  0  0
 11 12  1  0  0  0  0
 11 13  1  0  0  0  0
 11 14  1  0  0  0  0
  9 10  1  0  0  0  0
  9 11  1  0  0  0  0
  9 22  1  0  0  0  0
  7  8  1  0  0  0  0
  7  9  1  0  0  0  0
 26 27  1  0  0  0  0
 26 28  1  0  0  0  0
 26 29  1  0  0  0  0
 24 25  1  0  0  0  0
 24 26  1  0  0  0  0
M  END
$$$$
default_name
  -OEChem-02102213163D

 29 28  0     1  0  0  0  0  0999 V2000
   -3.3998   -3.6239    1.3678 H   0  0  0  0  0  0  0  0  0  0  0  0
   -3.3608   -2.6749    0.8348 C   0  0  0  0  0  0  0  0  0  0  0  0
   -4.0988   -1.9909    1.2498 H   0  0  0  0  0  0  0  0  0  0  0  0
   -3.5618   -2.8419   -0.2222 H   0  0  0  0  0  0  0  0  0  0  0  0
   -1.9818   -2.0809    0.9918 C   0  0  0  0  0  0  0  0  0  0  0  0
   -1.1288   -2.6669    1.6468 O   0  0  0  0  0  0  0  0  0  0  0  0
   -1.7648   -0.9089    0.3998 N   0  0  0  0  0  0  0  0  0  0  0  0
   -2.5238   -0.4719   -0.1032 H   0  0  0  0  0  0  0  0  0  0  0  0
   -0.4848   -0.1959    0.4138 C   0  0  1  0  0  0  0  0  0  0  0  0
    0.2783   -0.8411   -0.0248 H   0  0  0  0  0  0  0  0  0  0  0  0
   -0.6101    1.0666   -0.4611 C   0  0  0  0  0  0  0  0  0  0  0  0
    0.1162    0.9950   -1.2734 H   0  0  0  0  0  0  0  0  0  0  0  0
   -1.6091    1.0993   -0.8987 H   0  0  0  0  0  0  0  0  0  0  0  0
   -0.3577    2.3794    0.3007 C   0  0  0  0  0  0  0  0  0  0  0  0
    0.7110    2.5033    0.4745 H   0  0  0  0  0  0  0  0  0  0  0  0
   -0.7111    3.2136   -0.3052 H   0  0  0  0  0  0  0  0  0  0  0  0
   -1.0656    2.4347    1.6544 C   0  0  0  0  0  0  0  0  0  0  0  0
   -1.8141    1.5627    2.0543 O   0  0  0  0  0  0  0  0  0  0  0  0
   -0.8497    3.4738    2.4316 N   0  0  0  0  0  0  0  0  0  0  0  0
   -1.3394    3.4580    3.3094 H   0  0  0  0  0  0  0  0  0  0  0  0
   -0.2418    4.2171    2.1530 H   0  0  0  0  0  0  0  0  0  0  0  0
   -0.0637    0.1284    1.8555 C   0  0  0  0  0  0  0  0  0  0  0  0
    1.0918   -0.0745    2.2236 O   0  0  0  0  0  0  0  0  0  0  0  0
   -1.0024    0.6217    2.6735 N   0  0  0  0  0  0  0  0  0  0  0  0
   -1.9213    0.7848    2.2938 H   0  0  0  0  0  0  0  0  0  0  0  0
   -0.7639    0.9676    4.0741 C   0  0  0  0  0  0  0  0  0  0  0  0
    0.0520    1.6916    4.1400 H   0  0  0  0  0  0  0  0  0  0  0  0
   -1.6626    1.3984    4.5182 H   0  0  0  0  0  0  0  0  0  0  0  0
   -0.4775    0.0737    4.6309 H   0  0  0  0  0  0  0  0  0  0  0  0
  5  6  2  0  0  0  0
  5  7  1  0  0  0  0
  2  3  1  0  0  0  0
  2  4  1  0  0  0  0
  2  5  1  0  0  0  0
  1  2  1  0  0  0  0
 22 23  2  0  0  0  0
 22 24  1  0  0  0  0
 19 20  1  0  0  0  0
 19 21  1  0  0  0  0
 17 18  2  0  0  0  0
 17 19  1  0  0  0  0
 14 15  1  0  0  0  0
 14 16  1  0  0  0  0
 14 17  1  0  0  0  0
 11 12  1  0  0  0  0
 11 13  1  0  0  0  0
 11 14  1  0  0  0  0
  9 10  1  0  0  0  0
  9 11  1  0  0  0  0
  9 22  1  0  0  0  0
  7  8  1  0  0  0  0
  7  9  1  0  0  0  0
 26 27  1  0  0  0  0
 26 28  1  0  0  0  0
 26 29  1  0  0  0  0
 24 25  1  0  0  0  0
 24 26  1  0  0  0  0
M  END
$$$$
default_name
  -OEChem-02102213163D

 29 28  0     1  0  0  0  0  0999 V2000
   -3.3998   -3.6239    1.3678 H   0  0  0  0  0  0  0  0  0  0  0  0
   -3.3608   -2.6749    0.8348 C   0  0  0  0  0  0  0  0  0  0  0  0
   -4.0988   -1.9909    1.2498 H   0  0  0  0  0  0  0  0  0  0  0  0
   -3.5618   -2.8419   -0.2222 H   0  0  0  0  0  0  0  0  0  0  0  0
   -1.9818   -2.0809    0.9918 C   0  0  0  0  0  0  0  0  0  0  0  0
   -1.1288   -2.6669    1.6468 O   0  0  0  0  0  0  0  0  0  0  0  0
   -1.7648   -0.9089    0.3998 N   0  0  0  0  0  0  0  0  0  0  0  0
   -2.5238   -0.4719   -0.1032 H   0  0  0  0  0  0  0  0  0  0  0  0
   -0.4848   -0.1959    0.4138 C   0  0  1  0  0  0  0  0  0  0  0  0
    0.2783   -0.8411   -0.0248 H   0  0  0  0  0  0  0  0  0  0  0  0
   -0.6101    1.0666   -0.4611 C   0  0  0  0  0  0  0  0  0  0  0  0
    0.1162    0.9950   -1.2734 H   0  0  0  0  0  0  0  0  0  0  0  0
   -1.6091    1.0993   -0.8987 H   0  0  0  0  0  0  0  0  0  0  0  0
   -0.3577    2.3794    0.3007 C   0  0  0  0  0  0  0  0  0  0  0  0
    0.6991    2.6393    0.2440 H   0  0  0  0  0  0  0  0  0  0  0  0
   -0.9378    3.1759   -0.1652 H   0  0  0  0  0  0  0  0  0  0  0  0
   -0.7463    2.3021    1.7771 C   0  0  0  0  0  0  0  0  0  0  0  0
   -1.2730    1.3275    2.2803 O   0  0  0  0  0  0  0  0  0  0  0  0
   -0.4920    3.3384    2.5463 N   0  0  0  0  0  0  0  0  0  0  0  0
   -0.7673    3.2330    3.5074 H   0  0  0  0  0  0  0  0  0  0  0  0
   -0.0583    4.1635    2.1846 H   0  0  0  0  0  0  0  0  0  0  0  0
   -0.0637    0.1284    1.8555 C   0  0  0  0  0  0  0  0  0  0  0  0
    1.0918   -0.0745    2.2236 O   0  0  0  0  0  0  0  0  0  0  0  0
   -1.0024    0.6217    2.6735 N   0  0  0  0  0  0  0  0  0  0  0  0
   -1.9213    0.7848    2.2938 H   0  0  0  0  0  0  0  0  0  0  0  0
   -0.7639    0.9676    4.0741 C   0  0  0  0  0  0  0  0  0  0  0  0
    0.0520    1.6916    4.1400 H   0  0  0  0  0  0  0  0  0  0  0  0
   -1.6626    1.3984    4.5182 H   0  0  0  0  0  0  0  0  0  0  0  0
   -0.4775    0.0737    4.6309 H   0  0  0  0  0  0  0  0  0  0  0  0
  5  6  2  0  0  0  0
  5  7  1  0  0  0  0
  2  3  1  0  0  0  0
  2  4  1  0  0  0  0
  2  5  1  0  0  0  0
  1  2  1  0  0  0  0
 22 23  2  0  0  0  0
 22 24  1  0  0  0  0
 19 20  1  0  0  0  0
 19 21  1  0  0  0  0
 17 18  2  0  0  0  0
 17 19  1  0  0  0  0
 14 15  1  0  0  0  0
 14 16  1  0  0  0  0
 14 17  1  0  0  0  0
 11 12  1  0  0  0  0
 11 13  1  0  0  0  0
 11 14  1  0  0  0  0
  9 10  1  0  0  0  0
  9 11  1  0  0  0  0
  9 22  1  0  0  0  0
  7  8  1  0  0  0  0
  7  9  1  0  0  0  0
 26 27  1  0  0  0  0
 26 28  1  0  0  0  0
 26 29  1  0  0  0  0
 24 25  1  0  0  0  0
 24 26  1  0  0  0  0
M  END
$$$$
default_name
  -OEChem-02102213163D

 29 28  0     1  0  0  0  0  0999 V2000
   -3.3998   -3.6239    1.3678 H   0  0  0  0  0  0  0  0  0  0  0  0
   -3.3608   -2.6749    0.8348 C   0  0  0  0  0  0  0  0  0  0  0  0
   -4.0988   -1.9909    1.2498 H   0  0  0  0  0  0  0  0  0  0  0  0
   -3.5618   -2.8419   -0.2222 H   0  0  0  0  0  0  0  0  0  0  0  0
   -1.9818   -2.0809    0.9918 C   0  0  0  0  0  0  0  0  0  0  0  0
   -1.1288   -2.6669    1.6468 O   0  0  0  0  0  0  0  0  0  0  0  0
   -1.7648   -0.9089    0.3998 N   0  0  0  0  0  0  0  0  0  0  0  0
   -2.5238   -0.4719   -0.1032 H   0  0  0  0  0  0  0  0  0  0  0  0
   -0.4848   -0.1959    0.4138 C   0  0  1  0  0  0  0  0  0  0  0  0
    0.2783   -0.8411   -0.0248 H   0  0  0  0  0  0  0  0  0  0  0  0
   -0.6101    1.0666   -0.4611 C   0  0  0  0  0  0  0  0  0  0  0  0
    0.1162    0.9950   -1.2734 H   0  0  0  0  0  0  0  0  0  0  0  0
   -1.6091    1.0993   -0.8987 H   0  0  0  0  0  0  0  0  0  0  0  0
   -0.3577    2.3794    0.3007 C   0  0  0  0  0  0  0  0  0  0  0  0
    0.6193    2.7790    0.0298 H   0  0  0  0  0  0  0  0  0  0  0  0
   -1.1210    3.1045    0.0186 H   0  0  0  0  0  0  0  0  0  0  0  0
   -0.3938    2.2098    1.8195 C   0  0  0  0  0  0  0  0  0  0  0  0
   -0.6703    1.1601    2.3692 O   0  0  0  0  0  0  0  0  0  0  0  0
   -0.1038    3.2487    2.5724 N   0  0  0  0  0  0  0  0  0  0  0  0
   -0.1421    3.0807    3.5627 H   0  0  0  0  0  0  0  0  0  0  0  0
    0.1328    4.1339    2.1722 H   0  0  0  0  0  0  0  0  0  0  0  0
   -0.0637    0.1284    1.8555 C   0  0  0  0  0  0  0  0  0  0  0  0
    1.0918   -0.0745    2.2236 O   0  0  0  0  0  0  0  0  0  0  0  0
   -1.0024    0.6217    2.6735 N   0  0  0  0  0  0  0  0  0  0  0  0
   -1.9213    0.7848    2.2938 H   0  0  0  0  0  0  0  0  0  0  0  0
   -0.7639    0.9676    4.0741 C   0  0  0  0  0  0  0  0  0  0  0  0
    0.0520    1.6916    4.1400 H   0  0  0  0  0  0  0  0  0  0  0  0
   -1.6626    1.3984    4.5182 H   0  0  0  0  0  0  0  0  0  0  0  0
   -0.4775    0.0737    4.6309 H   0  0  0  0  0  0  0  0  0  0  0  0
  5  6  2  0  0  0  0
  5  7  1  0  0  0  0
  2  3  1  0  0  0  0
  2  4  1  0  0  0  0
  2  5  1  0  0  0  0
  1  2  1  0  0  0  0
 22 23  2  0  0  0  0
 22 24  1  0  0  0  0
 19 20  1  0  0  0  0
 19 21  1  0  0  0  0
 17 18  2  0  0  0  0
 17 19  1  0  0  0  0
 14 15  1  0  0  0  0
 14 16  1  0  0  0  0
 14 17  1  0  0  0  0
 11 12  1  0  0  0  0
 11 13  1  0  0  0  0
 11 14  1  0  0  0  0
  9 10  1  0  0  0  0
  9 11  1  0  0  0  0
  9 22  1  0  0  0  0
  7  8  1  0  0  0  0
  7  9  1  0  0  0  0
 26 27  1  0  0  0  0
 26 28  1  0  0  0  0
 26 29  1  0  0  0  0
 24 25  1  0  0  0  0
 24 26  1  0  0  0  0
M  END
$$$$
default_name
  -OEChem-02102213163D

 29 28  0     1  0  0  0  0  0999 V2000
   -3.3998   -3.6239    1.3678 H   0  0  0  0  0  0  0  0  0  0  0  0
   -3.3608   -2.6749    0.8348 C   0  0  0  0  0  0  0  0  0  0  0  0
   -4.0988   -1.9909    1.2498 H   0  0  0  0  0  0  0  0  0  0  0  0
   -3.5618   -2.8419   -0.2222 H   0  0  0  0  0  0  0  0  0  0  0  0
   -1.9818   -2.0809    0.9918 C   0  0  0  0  0  0  0  0  0  0  0  0
   -1.1288   -2.6669    1.6468 O   0  0  0  0  0  0  0  0  0  0  0  0
   -1.7648   -0.9089    0.3998 N   0  0  0  0  0  0  0  0  0  0  0  0
   -2.5238   -0.4719   -0.1032 H   0  0  0  0  0  0  0  0  0  0  0  0
   -0.4848   -0.1959    0.4138 C   0  0  1  0  0  0  0  0  0  0  0  0
    0.2783   -0.8411   -0.0248 H   0  0  0  0  0  0  0  0  0  0  0  0
   -0.6101    1.0666   -0.4611 C   0  0  0  0  0  0  0  0  0  0  0  0
    0.1162    0.9950   -1.2734 H   0  0  0  0  0  0  0  0  0  0  0  0
   -1.6091    1.0993   -0.8987 H   0  0  0  0  0  0  0  0  0  0  0  0
   -0.3577    2.3794    0.3007 C   0  0  0  0  0  0  0  0  0  0  0  0
    0.4770    2.9128   -0.1535 H   0  0  0  0  0  0  0  0  0  0  0  0
   -1.2483    3.0042    0.2335 H   0  0  0  0  0  0  0  0  0  0  0  0
   -0.0321    2.1639    1.7786 C   0  0  0  0  0  0  0  0  0  0  0  0
   -0.0470    1.0718    2.3148 O   0  0  0  0  0  0  0  0  0  0  0  0
    0.2884    3.2106    2.5080 N   0  0  0  0  0  0  0  0  0  0  0  0
    0.4936    3.0113    3.4717 H   0  0  0  0  0  0  0  0  0  0  0  0
    0.3185    4.1303    2.1169 H   0  0  0  0  0  0  0  0  0  0  0  0
   -0.0637    0.1284    1.8555 C   0  0  0  0  0  0  0  0  0  0  0  0
    1.0918   -0.0745    2.2236 O   0  0  0  0  0  0  0  0  0  0  0  0
   -1.0024    0.6217    2.6735 N   0  0  0  0  0  0  0  0  0  0  0  0
   -1.9213    0.7848    2.2938 H   0  0  0  0  0  0  0  0  0  0  0  0
   -0.7639    0.9676    4.0741 C   0  0  0  0  0  0  0  0  0  0  0  0
    0.0520    1.6916    4.1400 H   0  0  0  0  0  0  0  0  0  0  0  0
   -1.6626    1.3984    4.5182 H   0  0  0  0  0  0  0  0  0  0  0  0
   -0.4775    0.0737    4.6309 H   0  0  0  0  0  0  0  0  0  0  0  0
  5  6  2  0  0  0  0
  5  7  1  0  0  0  0
  2  3  1  0  0  0  0
  2  4  1  0  0  0  0
  2  5  1  0  0  0  0
  1  2  1  0  0  0  0
 22 23  2  0  0  0  0
 22 24  1  0  0  0  0
 19 20  1  0  0  0  0
 19 21  1  0  0  0  0
 17 18  2  0  0  0  0
 17 19  1  0  0  0  0
 14 15  1  0  0  0  0
 14 16  1  0  0  0  0
 14 17  1  0  0  0  0
 11 12  1  0  0  0  0
 11 13  1  0  0  0  0
 11 14  1  0  0  0  0
  9 10  1  0  0  0  0
  9 11  1  0  0  0  0
  9 22  1  0  0  0  0
  7  8  1  0  0  0  0
  7  9  1  0  0  0  0
 26 27  1  0  0  0  0
 26 28  1  0  0  0  0
 26 29  1  0  0  0  0
 24 25  1  0  0  0  0
 24 26  1  0  0  0  0
M  END
$$$$
default_name
  -OEChem-02102213163D

 29 28  0     1  0  0  0  0  0999 V2000
   -3.3998   -3.6239    1.3678 H   0  0  0  0  0  0  0  0  0  0  0  0
   -3.3608   -2.6749    0.8348 C   0  0  0  0  0  0  0  0  0  0  0  0
   -4.0988   -1.9909    1.2498 H   0  0  0  0  0  0  0  0  0  0  0  0
   -3.5618   -2.8419   -0.2222 H   0  0  0  0  0  0  0  0  0  0  0  0
   -1.9818   -2.0809    0.9918 C   0  0  0  0  0  0  0  0  0  0  0  0
   -1.1288   -2.6669    1.6468 O   0  0  0  0  0  0  0  0  0  0  0  0
   -1.7648   -0.9089    0.3998 N   0  0  0  0  0  0  0  0  0  0  0  0
   -2.5238   -0.4719   -0.1032 H   0  0  0  0  0  0  0  0  0  0  0  0
   -0.4848   -0.1959    0.4138 C   0  0  1  0  0  0  0  0  0  0  0  0
    0.2783   -0.8411   -0.0248 H   0  0  0  0  0  0  0  0  0  0  0  0
   -0.6101    1.0666   -0.4611 C   0  0  0  0  0  0  0  0  0  0  0  0
    0.1162    0.9950   -1.2734 H   0  0  0  0  0  0  0  0  0  0  0  0
   -1.6091    1.0993   -0.8987 H   0  0  0  0  0  0  0  0  0  0  0  0
   -0.3577    2.3794    0.3007 C   0  0  0  0  0  0  0  0  0  0  0  0
    0.2819    3.0315   -0.2935 H   0  0  0  0  0  0  0  0  0  0  0  0
   -1.3109    2.8820    0.4649 H   0  0  0  0  0  0  0  0  0  0  0  0
    0.3141    2.1677    1.6574 C   0  0  0  0  0  0  0  0  0  0  0  0
    0.5544    1.0687    2.1209 O   0  0  0  0  0  0  0  0  0  0  0  0
    0.6579    3.2269    2.3576 N   0  0  0  0  0  0  0  0  0  0  0  0
    1.0964    3.0296    3.2404 H   0  0  0  0  0  0  0  0  0  0  0  0
    0.4861    4.1530    2.0223 H   0  0  0  0  0  0  0  0  0  0  0  0
   -0.0637    0.1284    1.8555 C   0  0  0  0  0  0  0  0  0  0  0  0
    1.0918   -0.0745    2.2236 O   0  0  0  0  0  0  0  0  0  0  0  0
   -1.0024    0.6217    2.6735 N   0  0  0  0  0  0  0  0  0  0  0  0
   -1.9213    0.7848    2.2938 H   0  0  0  0  0  0  0  0  0  0  0  0
   -0.7639    0.9676    4.0741 C   0  0  0  0  0  0  0  0  0  0  0  0
    0.0520    1.6916    4.1400 H   0  0  0  0  0  0  0  0  0  0  0  0
   -1.6626    1.3984    4.5182 H   0  0  0  0  0  0  0  0  0  0  0  0
   -0.4775    0.0737    4.6309 H   0  0  0  0  0  0  0  0  0  0  0  0
  5  6  2  0  0  0  0
  5  7  1  0  0  0  0
  2  3  1  0  0  0  0
  2  4  1  0  0  0  0
  2  5  1  0  0  0  0
  1  2  1  0  0  0  0
 22 23  2  0  0  0  0
 22 24  1  0  0  0  0
 19 20  1  0  0  0  0
 19 21  1  0  0  0  0
 17 18  2  0  0  0  0
 17 19  1  0  0  0  0
 14 15  1  0  0  0  0
 14 16  1  0  0  0  0
 14 17  1  0  0  0  0
 11 12  1  0  0  0  0
 11 13  1  0  0  0  0
 11 14  1  0  0  0  0
  9 10  1  0  0  0  0
  9 11  1  0  0  0  0
  9 22  1  0  0  0  0
  7  8  1  0  0  0  0
  7  9  1  0  0  0  0
 26 27  1  0  0  0  0
 26 28  1  0  0  0  0
 26 29  1  0  0  0  0
 24 25  1  0  0  0  0
 24 26  1  0  0  0  0
M  END
$$$$
default_name
  -OEChem-02102213163D

 29 28  0     1  0  0  0  0  0999 V2000
   -3.3998   -3.6239    1.3678 H   0  0  0  0  0  0  0  0  0  0  0  0
   -3.3608   -2.6749    0.8348 C   0  0  0  0  0  0  0  0  0  0  0  0
   -4.0988   -1.9909    1.2498 H   0  0  0  0  0  0  0  0  0  0  0  0
   -3.5618   -2.8419   -0.2222 H   0  0  0  0  0  0  0  0  0  0  0  0
   -1.9818   -2.0809    0.9918 C   0  0  0  0  0  0  0  0  0  0  0  0
   -1.1288   -2.6669    1.6468 O   0  0  0  0  0  0  0  0  0  0  0  0
   -1.7648   -0.9089    0.3998 N   0  0  0  0  0  0  0  0  0  0  0  0
   -2.5238   -0.4719   -0.1032 H   0  0  0  0  0  0  0  0  0  0  0  0
   -0.4848   -0.1959    0.4138 C   0  0  1  0  0  0  0  0  0  0  0  0
    0.2783   -0.8411   -0.0248 H   0  0  0  0  0  0  0  0  0  0  0  0
   -0.6101    1.0666   -0.4611 C   0  0  0  0  0  0  0  0  0  0  0  0
    0.1162    0.9950   -1.2734 H   0  0  0  0  0  0  0  0  0  0  0  0
   -1.6091    1.0993   -0.8987 H   0  0  0  0  0  0  0  0  0  0  0  0
   -0.3577    2.3794    0.3007 C   0  0  0  0  0  0  0  0  0  0  0  0
    0.0474    3.1272   -0.3807 H   0  0  0  0  0  0  0  0  0  0  0  0
   -1.3046    2.7460    0.6971 H   0  0  0  0  0  0  0  0  0  0  0  0
    0.6213    2.2209    1.4639 C   0  0  0  0  0  0  0  0  0  0  0  0
    1.0928    1.1510    1.8007 O   0  0  0  0  0  0  0  0  0  0  0  0
    0.9796    3.2963    2.1314 N   0  0  0  0  0  0  0  0  0  0  0  0
    1.6252    3.1344    2.8847 H   0  0  0  0  0  0  0  0  0  0  0  0
    0.6242    4.2004    1.8948 H   0  0  0  0  0  0  0  0  0  0  0  0
   -0.0637    0.1284    1.8555 C   0  0  0  0  0  0  0  0  0  0  0  0
    1.0918   -0.0745    2.2236 O   0  0  0  0  0  0  0  0  0  0  0  0
   -1.0024    0.6217    2.6735 N   0  0  0  0  0  0  0  0  0  0  0  0
   -1.9213    0.7848    2.2938 H   0  0  0  0  0  0  0  0  0  0  0  0
   -0.7639    0.9676    4.0741 C   0  0  0  0  0  0  0  0  0  0  0  0
    0.0520    1.6916    4.1400 H   0  0  0  0  0  0  0  0  0  0  0  0
   -1.6626    1.3984    4.5182 H   0  0  0  0  0  0  0  0  0  0  0  0
   -0.4775    0.0737    4.6309 H   0  0  0  0  0  0  0  0  0  0  0  0
  5  6  2  0  0  0  0
  5  7  1  0  0  0  0
  2  3  1  0  0  0  0
  2  4  1  0  0  0  0
  2  5  1  0  0  0  0
  1  2  1  0  0  0  0
 22 23  2  0  0  0  0
 22 24  1  0  0  0  0
 19 20  1  0  0  0  0
 19 21  1  0  0  0  0
 17 18  2  0  0  0  0
 17 19  1  0  0  0  0
 14 15  1  0  0  0  0
 14 16  1  0  0  0  0
 14 17  1  0  0  0  0
 11 12  1  0  0  0  0
 11 13  1  0  0  0  0
 11 14  1  0  0  0  0
  9 10  1  0  0  0  0
  9 11  1  0  0  0  0
  9 22  1  0  0  0  0
  7  8  1  0  0  0  0
  7  9  1  0  0  0  0
 26 27  1  0  0  0  0
 26 28  1  0  0  0  0
 26 29  1  0  0  0  0
 24 25  1  0  0  0  0
 24 26  1  0  0  0  0
M  END
$$$$
default_name
  -OEChem-02102213163D

 29 28  0     1  0  0  0  0  0999 V2000
   -3.3998   -3.6239    1.3678 H   0  0  0  0  0  0  0  0  0  0  0  0
   -3.3608   -2.6749    0.8348 C   0  0  0  0  0  0  0  0  0  0  0  0
   -4.0988   -1.9909    1.2498 H   0  0  0  0  0  0  0  0  0  0  0  0
   -3.5618   -2.8419   -0.2222 H   0  0  0  0  0  0  0  0  0  0  0  0
   -1.9818   -2.0809    0.9918 C   0  0  0  0  0  0  0  0  0  0  0  0
   -1.1288   -2.6669    1.6468 O   0  0  0  0  0  0  0  0  0  0  0  0
   -1.7648   -0.9089    0.3998 N   0  0  0  0  0  0  0  0  0  0  0  0
   -2.5238   -0.4719   -0.1032 H   0  0  0  0  0  0  0  0  0  0  0  0
   -0.4848   -0.1959    0.4138 C   0  0  1  0  0  0  0  0  0  0  0  0
    0.2783   -0.8411   -0.0248 H   0  0  0  0  0  0  0  0  0  0  0  0
   -0.6101    1.0666   -0.4611 C   0  0  0  0  0  0  0  0  0  0  0  0
    0.1162    0.9950   -1.2734 H   0  0  0  0  0  0  0  0  0  0  0  0
   -1.6091    1.0993   -0.8987 H   0  0  0  0  0  0  0  0  0  0  0  0
   -0.3577    2.3794    0.3007 C   0  0  0  0  0  0  0  0  0  0  0  0
   -0.2107    3.1932   -0.4089 H   0  0  0  0  0  0  0  0  0  0  0  0
   -1.2298    2.6056    0.9142 H   0  0  0  0  0  0  0  0  0  0  0  0
    0.8684    2.3199    1.2115 C   0  0  0  0  0  0  0  0  0  0  0  0
    1.5316    1.3131    1.3760 O   0  0  0  0  0  0  0  0  0  0  0  0
    1.2314    3.4142    1.8449 N   0  0  0  0  0  0  0  0  0  0  0  0
    2.0440    3.3185    2.4288 H   0  0  0  0  0  0  0  0  0  0  0  0
    0.7234    4.2693    1.7432 H   0  0  0  0  0  0  0  0  0  0  0  0
   -0.0637    0.1284    1.8555 C   0  0  0  0  0  0  0  0  0  0  0  0
    1.0918   -0.0745    2.2236 O   0  0  0  0  0  0  0  0  0  0  0  0
   -1.0024    0.6217    2.6735 N   0  0  0  0  0  0  0  0  0  0  0  0
   -1.9213    0.7848    2.2938 H   0  0  0  0  0  0  0  0  0  0  0  0
   -0.7639    0.9676    4.0741 C   0  0  0  0  0  0  0  0  0  0  0  0
    0.0520    1.6916    4.1400 H   0  0  0  0  0  0  0  0  0  0  0  0
   -1.6626    1.3984    4.5182 H   0  0  0  0  0  0  0  0  0  0  0  0
   -0.4775    0.0737    4.6309 H   0  0  0  0  0  0  0  0  0  0  0  0
  5  6  2  0  0  0  0
  5  7  1  0  0  0  0
  2  3  1  0  0  0  0
  2  4  1  0  0  0  0
  2  5  1  0  0  0  0
  1  2  1  0  0  0  0
 22 23  2  0  0  0  0
 22 24  1  0  0  0  0
 19 20  1  0  0  0  0
 19 21  1  0  0  0  0
 17 18  2  0  0  0  0
 17 19  1  0  0  0  0
 14 15  1  0  0  0  0
 14 16  1  0  0  0  0
 14 17  1  0  0  0  0
 11 12  1  0  0  0  0
 11 13  1  0  0  0  0
 11 14  1  0  0  0  0
  9 10  1  0  0  0  0
  9 11  1  0  0  0  0
  9 22  1  0  0  0  0
  7  8  1  0  0  0  0
  7  9  1  0  0  0  0
 26 27  1  0  0  0  0
 26 28  1  0  0  0  0
 26 29  1  0  0  0  0
 24 25  1  0  0  0  0
 24 26  1  0  0  0  0
M  END
$$$$
default_name
  -OEChem-02102213163D

 29 28  0     1  0  0  0  0  0999 V2000
   -3.3998   -3.6239    1.3678 H   0  0  0  0  0  0  0  0  0  0  0  0
   -3.3608   -2.6749    0.8348 C   0  0  0  0  0  0  0  0  0  0  0  0
   -4.0988   -1.9909    1.2498 H   0  0  0  0  0  0  0  0  0  0  0  0
   -3.5618   -2.8419   -0.2222 H   0  0  0  0  0  0  0  0  0  0  0  0
   -1.9818   -2.0809    0.9918 C   0  0  0  0  0  0  0  0  0  0  0  0
   -1.1288   -2.6669    1.6468 O   0  0  0  0  0  0  0  0  0  0  0  0
   -1.7648   -0.9089    0.3998 N   0  0  0  0  0  0  0  0  0  0  0  0
   -2.5238   -0.4719   -0.1032 H   0  0  0  0  0  0  0  0  0  0  0  0
   -0.4848   -0.1959    0.4138 C   0  0  1  0  0  0  0  0  0  0  0  0
    0.2783   -0.8411   -0.0248 H   0  0  0  0  0  0  0  0  0  0  0  0
   -0.6101    1.0666   -0.4611 C   0  0  0  0  0  0  0  0  0  0  0  0
    0.1162    0.9950   -1.2734 H   0  0  0  0  0  0  0  0  0  0  0  0
   -1.6091    1.0993   -0.8987 H   0  0  0  0  0  0  0  0  0  0  0  0
   -0.3577    2.3794    0.3007 C   0  0  0  0  0  0  0  0  0  0  0  0
   -0.4747    3.2251   -0.3765 H   0  0  0  0  0  0  0  0  0  0  0  0
   -1.0916    2.4704    1.1015 H   0  0  0  0  0  0  0  0  0  0  0  0
    1.0388    2.4579    0.9174 C   0  0  0  0  0  0  0  0  0  0  0  0
    1.8410    1.5439    0.8757 O   0  0  0  0  0  0  0  0  0  0  0  0
    1.3963    3.5725    1.5175 N   0  0  0  0  0  0  0  0  0  0  0  0
    2.3243    3.5693    1.9037 H   0  0  0  0  0  0  0  0  0  0  0  0
    0.7769    4.3550    1.5778 H   0  0  0  0  0  0  0  0  0  0  0  0
   -0.0637    0.1284    1.8555 C   0  0  0  0  0  0  0  0  0  0  0  0
    1.0918   -0.0745    2.2236 O   0  0  0  0  0  0  0  0  0  0  0  0
   -1.0024    0.6217    2.6735 N   0  0  0  0  0  0  0  0  0  0  0  0
   -1.9213    0.7848    2.2938 H   0  0  0  0  0  0  0  0  0  0  0  0
   -0.7639    0.9676    4.0741 C   0  0  0  0  0  0  0  0  0  0  0  0
    0.0520    1.6916    4.1400 H   0  0  0  0  0  0  0  0  0  0  0  0
   -1.6626    1.3984    4.5182 H   0  0  0  0  0  0  0  0  0  0  0  0
   -0.4775    0.0737    4.6309 H   0  0  0  0  0  0  0  0  0  0  0  0
  5  6  2  0  0  0  0
  5  7  1  0  0  0  0
  2  3  1  0  0  0  0
  2  4  1  0  0  0  0
  2  5  1  0  0  0  0
  1  2  1  0  0  0  0
 22 23  2  0  0  0  0
 22 24  1  0  0  0  0
 19 20  1  0  0  0  0
 19 21  1  0  0  0  0
 17 18  2  0  0  0  0
 17 19  1  0  0  0  0
 14 15  1  0  0  0  0
 14 16  1  0  0  0  0
 14 17  1  0  0  0  0
 11 12  1  0  0  0  0
 11 13  1  0  0  0  0
 11 14  1  0  0  0  0
  9 10  1  0  0  0  0
  9 11  1  0  0  0  0
  9 22  1  0  0  0  0
  7  8  1  0  0  0  0
  7  9  1  0  0  0  0
 26 27  1  0  0  0  0
 26 28  1  0  0  0  0
 26 29  1  0  0  0  0
 24 25  1  0  0  0  0
 24 26  1  0  0  0  0
M  END
$$$$
default_name
  -OEChem-02102213163D

 29 28  0     1  0  0  0  0  0999 V2000
   -3.3998   -3.6239    1.3678 H   0  0  0  0  0  0  0  0  0  0  0  0
   -3.3608   -2.6749    0.8348 C   0  0  0  0  0  0  0  0  0  0  0  0
   -4.0988   -1.9909    1.2498 H   0  0  0  0  0  0  0  0  0  0  0  0
   -3.5618   -2.8419   -0.2222 H   0  0  0  0  0  0  0  0  0  0  0  0
   -1.9818   -2.0809    0.9918 C   0  0  0  0  0  0  0  0  0  0  0  0
   -1.1288   -2.6669    1.6468 O   0  0  0  0  0  0  0  0  0  0  0  0
   -1.7648   -0.9089    0.3998 N   0  0  0  0  0  0  0  0  0  0  0  0
   -2.5238   -0.4719   -0.1032 H   0  0  0  0  0  0  0  0  0  0  0  0
   -0.4848   -0.1959    0.4138 C   0  0  1  0  0  0  0  0  0  0  0  0
    0.2783   -0.8411   -0.0248 H   0  0  0  0  0  0  0  0  0  0  0  0
   -0.6101    1.0666   -0.4611 C   0  0  0  0  0  0  0  0  0  0  0  0
    0.1162    0.9950   -1.2734 H   0  0  0  0  0  0  0  0  0  0  0  0
   -1.6091    1.0993   -0.8987 H   0  0  0  0  0  0  0  0  0  0  0  0
   -0.3577    2.3794    0.3007 C   0  0  0  0  0  0  0  0  0  0  0  0
   -0.7266    3.2208   -0.2855 H   0  0  0  0  0  0  0  0  0  0  0  0
   -0.8995    2.3495    1.2461 H   0  0  0  0  0  0  0  0  0  0  0  0
    1.1206    2.6255    0.6015 C   0  0  0  0  0  0  0  0  0  0  0  0
    1.9997    1.8278    0.3340 O   0  0  0  0  0  0  0  0  0  0  0  0
    1.4629    3.7604    1.1715 N   0  0  0  0  0  0  0  0  0  0  0  0
    2.4470    3.8698    1.3453 H   0  0  0  0  0  0  0  0  0  0  0  0
    0.7810    4.4517    1.4099 H   0  0  0  0  0  0  0  0  0  0  0  0
   -0.0637    0.1284    1.8555 C   0  0  0  0  0  0  0  0  0  0  0  0
    1.0918   -0.0745    2.2236 O   0  0  0  0  0  0  0  0  0  0  0  0
   -1.0024    0.6217    2.6735 N   0  0  0  0  0  0  0  0  0  0  0  0
   -1.9213    0.7848    2.2938 H   0  0  0  0  0  0  0  0  0  0  0  0
   -0.7639    0.9676    4.0741 C   0  0  0  0  0  0  0  0  0  0  0  0
    0.0520    1.6916    4.1400 H   0  0  0  0  0  0  0  0  0  0  0  0
   -1.6626    1.3984    4.5182 H   0  0  0  0  0  0  0  0  0  0  0  0
   -0.4775    0.0737    4.6309 H   0  0  0  0  0  0  0  0  0  0  0  0
  5  6  2  0  0  0  0
  5  7  1  0  0  0  0
  2  3  1  0  0  0  0
  2  4  1  0  0  0  0
  2  5  1  0  0  0  0
  1  2  1  0  0  0  0
 22 23  2  0  0  0  0
 22 24  1  0  0  0  0
 19 20  1  0  0  0  0
 19 21  1  0  0  0  0
 17 18  2  0  0  0  0
 17 19  1  0  0  0  0
 14 15  1  0  0  0  0
 14 16  1  0  0  0  0
 14 17  1  0  0  0  0
 11 12  1  0  0  0  0
 11 13  1  0  0  0  0
 11 14  1  0  0  0  0
  9 10  1  0  0  0  0
  9 11  1  0  0  0  0
  9 22  1  0  0  0  0
  7  8  1  0  0  0  0
  7  9  1  0  0  0  0
 26 27  1  0  0  0  0
 26 28  1  0  0  0  0
 26 29  1  0  0  0  0
 24 25  1  0  0  0  0
 24 26  1  0  0  0  0
M  END
$$$$
default_name
  -OEChem-02102213163D

 29 28  0     1  0  0  0  0  0999 V2000
   -3.3998   -3.6239    1.3678 H   0  0  0  0  0  0  0  0  0  0  0  0
   -3.3608   -2.6749    0.8348 C   0  0  0  0  0  0  0  0  0  0  0  0
   -4.0988   -1.9909    1.2498 H   0  0  0  0  0  0  0  0  0  0  0  0
   -3.5618   -2.8419   -0.2222 H   0  0  0  0  0  0  0  0  0  0  0  0
   -1.9818   -2.0809    0.9918 C   0  0  0  0  0  0  0  0  0  0  0  0
   -1.1288   -2.6669    1.6468 O   0  0  0  0  0  0  0  0  0  0  0  0
   -1.7648   -0.9089    0.3998 N   0  0  0  0  0  0  0  0  0  0  0  0
   -2.5238   -0.4719   -0.1032 H   0  0  0  0  0  0  0  0  0  0  0  0
   -0.4848   -0.1959    0.4138 C   0  0  1  0  0  0  0  0  0  0  0  0
    0.2783   -0.8411   -0.0248 H   0  0  0  0  0  0  0  0  0  0  0  0
   -0.6101    1.0666   -0.4611 C   0  0  0  0  0  0  0  0  0  0  0  0
    0.1162    0.9950   -1.2734 H   0  0  0  0  0  0  0  0  0  0  0  0
   -1.6091    1.0993   -0.8987 H   0  0  0  0  0  0  0  0  0  0  0  0
   -0.3577    2.3794    0.3007 C   0  0  0  0  0  0  0  0  0  0  0  0
   -0.9492    3.1804   -0.1422 H   0  0  0  0  0  0  0  0  0  0  0  0
   -0.6665    2.2513    1.3382 H   0  0  0  0  0  0  0  0  0  0  0  0
    1.1085    2.8113    0.2854 C   0  0  0  0  0  0  0  0  0  0  0  0
    1.9970    2.1453   -0.2122 O   0  0  0  0  0  0  0  0  0  0  0  0
    1.4269    3.9652    0.8306 N   0  0  0  0  0  0  0  0  0  0  0  0
    2.4036    4.1994    0.7916 H   0  0  0  0  0  0  0  0  0  0  0  0
    0.7356    4.5527    1.2509 H   0  0  0  0  0  0  0  0  0  0  0  0
   -0.0637    0.1284    1.8555 C   0  0  0  0  0  0  0  0  0  0  0  0
    1.0918   -0.0745    2.2236 O   0  0  0  0  0  0  0  0  0  0  0  0
   -1.0024    0.6217    2.6735 N   0  0  0  0  0  0  0  0  0  0  0  0
   -1.9213    0.7848    2.2938 H   0  0  0  0  0  0  0  0  0  0  0  0
   -0.7639    0.9676    4.0741 C   0  0  0  0  0  0  0  0  0  0  0  0
    0.0520    1.6916    4.1400 H   0  0  0  0  0  0  0  0  0  0  0  0
   -1.6626    1.3984    4.5182 H   0  0  0  0  0  0  0  0  0  0  0  0
   -0.4775    0.0737    4.6309 H   0  0  0  0  0  0  0  0  0  0  0  0
  5  6  2  0  0  0  0
  5  7  1  0  0  0  0
  2  3  1  0  0  0  0
  2  4  1  0  0  0  0
  2  5  1  0  0  0  0
  1  2  1  0  0  0  0
 22 23  2  0  0  0  0
 22 24  1  0  0  0  0
 19 20  1  0  0  0  0
 19 21  1  0  0  0  0
 17 18  2  0  0  0  0
 17 19  1  0  0  0  0
 14 15  1  0  0  0  0
 14 16  1  0  0  0  0
 14 17  1  0  0  0  0
 11 12  1  0  0  0  0
 11 13  1  0  0  0  0
 11 14  1  0  0  0  0
  9 10  1  0  0  0  0
  9 11  1  0  0  0  0
  9 22  1  0  0  0  0
  7  8  1  0  0  0  0
  7  9  1  0  0  0  0
 26 27  1  0  0  0  0
 26 28  1  0  0  0  0
 26 29  1  0  0  0  0
 24 25  1  0  0  0  0
 24 26  1  0  0  0  0
M  END
$$$$
default_name
  -OEChem-02102213163D

 29 28  0     1  0  0  0  0  0999 V2000
   -3.3998   -3.6239    1.3678 H   0  0  0  0  0  0  0  0  0  0  0  0
   -3.3608   -2.6749    0.8348 C   0  0  0  0  0  0  0  0  0  0  0  0
   -4.0988   -1.9909    1.2498 H   0  0  0  0  0  0  0  0  0  0  0  0
   -3.5618   -2.8419   -0.2222 H   0  0  0  0  0  0  0  0  0  0  0  0
   -1.9818   -2.0809    0.9918 C   0  0  0  0  0  0  0  0  0  0  0  0
   -1.1288   -2.6669    1.6468 O   0  0  0  0  0  0  0  0  0  0  0  0
   -1.7648   -0.9089    0.3998 N   0  0  0  0  0  0  0  0  0  0  0  0
   -2.5238   -0.4719   -0.1032 H   0  0  0  0  0  0  0  0  0  0  0  0
   -0.4848   -0.1959    0.4138 C   0  0  1  0  0  0  0  0  0  0  0  0
    0.2783   -0.8411   -0.0248 H   0  0  0  0  0  0  0  0  0  0  0  0
   -0.6101    1.0666   -0.4611 C   0  0  0  0  0  0  0  0  0  0  0  0
    0.1162    0.9950   -1.2734 H   0  0  0  0  0  0  0  0  0  0  0  0
   -1.6091    1.0993   -0.8987 H   0  0  0  0  0  0  0  0  0  0  0  0
   -0.3577    2.3794    0.3007 C   0  0  0  0  0  0  0  0  0  0  0  0
   -1.1275    3.1068    0.0438 H   0  0  0  0  0  0  0  0  0  0  0  0
   -0.4085    2.1823    1.3715 H   0  0  0  0  0  0  0  0  0  0  0  0
    1.0031    3.0026   -0.0094 C   0  0  0  0  0  0  0  0  0  0  0  0
    1.8331    2.4749   -0.7258 O   0  0  0  0  0  0  0  0  0  0  0  0
    1.2905    4.1728    0.5180 N   0  0  0  0  0  0  0  0  0  0  0  0
    2.1973    4.5358    0.2804 H   0  0  0  0  0  0  0  0  0  0  0  0
    0.6436    4.6512    1.1116 H   0  0  0  0  0  0  0  0  0  0  0  0
   -0.0637    0.1284    1.8555 C   0  0  0  0  0  0  0  0  0  0  0  0
    1.0918   -0.0745    2.2236 O   0  0  0  0  0  0  0  0  0  0  0  0
   -1.0024    0.6217    2.6735 N   0  0  0  0  0  0  0  0  0  0  0  0
   -1.9213    0.7848    2.2938 H   0  0  0  0  0  0  0  0  0  0  0  0
   -0.7639    0.9676    4.0741 C   0  0  0  0  0  0  0  0  0  0  0  0
    0.0520    1.6916    4.1400 H   0  0  0  0  0  0  0  0  0  0  0  0
   -1.6626    1.3984    4.5182 H   0  0  0  0  0  0  0  0  0  0  0  0
   -0.4775    0.0737    4.6309 H   0  0  0  0  0  0  0  0  0  0  0  0
  5  6  2  0  0  0  0
  5  7  1  0  0  0  0
  2  3  1  0  0  0  0
  2  4  1  0  0  0  0
  2  5  1  0  0  0  0
  1  2  1  0  0  0  0
 22 23  2  0  0  0  0
 22 24  1  0  0  0  0
 19 20  1  0  0  0  0
 19 21  1  0  0  0  0
 17 18  2  0  0  0  0
 17 19  1  0  0  0  0
 14 15  1  0  0  0  0
 14 16  1  0  0  0  0
 14 17  1  0  0  0  0
 11 12  1  0  0  0  0
 11 13  1  0  0  0  0
 11 14  1  0  0  0  0
  9 10  1  0  0  0  0
  9 11  1  0  0  0  0
  9 22  1  0  0  0  0
  7  8  1  0  0  0  0
  7  9  1  0  0  0  0
 26 27  1  0  0  0  0
 26 28  1  0  0  0  0
 26 29  1  0  0  0  0
 24 25  1  0  0  0  0
 24 26  1  0  0  0  0
M  END
$$$$
default_name
  -OEChem-02102213163D

 29 28  0     1  0  0  0  0  0999 V2000
   -3.3998   -3.6239    1.3678 H   0  0  0  0  0  0  0  0  0  0  0  0
   -3.3608   -2.6749    0.8348 C   0  0  0  0  0  0  0  0  0  0  0  0
   -4.0988   -1.9909    1.2498 H   0  0  0  0  0  0  0  0  0  0  0  0
   -3.5618   -2.8419   -0.2222 H   0  0  0  0  0  0  0  0  0  0  0  0
   -1.9818   -2.0809    0.9918 C   0  0  0  0  0  0  0  0  0  0  0  0
   -1.1288   -2.6669    1.6468 O   0  0  0  0  0  0  0  0  0  0  0  0
   -1.7648   -0.9089    0.3998 N   0  0  0  0  0  0  0  0  0  0  0  0
   -2.5238   -0.4719   -0.1032 H   0  0  0  0  0  0  0  0  0  0  0  0
   -0.4848   -0.1959    0.4138 C   0  0  1  0  0  0  0  0  0  0  0  0
    0.2783   -0.8411   -0.0248 H   0  0  0  0  0  0  0  0  0  0  0  0
   -0.6101    1.0666   -0.4611 C   0  0  0  0  0  0  0  0  0  0  0  0
    0.1162    0.9950   -1.2734 H   0  0  0  0  0  0  0  0  0  0  0  0
   -1.6091    1.0993   -0.8987 H   0  0  0  0  0  0  0  0  0  0  0  0
   -0.3577    2.3794    0.3007 C   0  0  0  0  0  0  0  0  0  0  0  0
   -1.2492    3.0049    0.2596 H   0  0  0  0  0  0  0  0  0  0  0  0
   -0.1431    2.1473    1.3439 H   0  0  0  0  0  0  0  0  0  0  0  0
    0.8118    3.1864   -0.2627 C   0  0  0  0  0  0  0  0  0  0  0  0
    1.5192    2.7941   -1.1717 O   0  0  0  0  0  0  0  0  0  0  0  0
    1.0632    4.3692    0.2550 N   0  0  0  0  0  0  0  0  0  0  0  0
    1.8419    4.8560   -0.1536 H   0  0  0  0  0  0  0  0  0  0  0  0
    0.5114    4.7405    1.0016 H   0  0  0  0  0  0  0  0  0  0  0  0
   -0.0637    0.1284    1.8555 C   0  0  0  0  0  0  0  0  0  0  0  0
    1.0918   -0.0745    2.2236 O   0  0  0  0  0  0  0  0  0  0  0  0
   -1.0024    0.6217    2.6735 N   0  0  0  0  0  0  0  0  0  0  0  0
   -1.9213    0.7848    2.2938 H   0  0  0  0  0  0  0  0  0  0  0  0
   -0.7639    0.9676    4.0741 C   0  0  0  0  0  0  0  0  0  0  0  0
    0.0520    1.6916    4.1400 H   0  0  0  0  0  0  0  0  0  0  0  0
   -1.6626    1.3984    4.5182 H   0  0  0  0  0  0  0  0  0  0  0  0
   -0.4775    0.0737    4.6309 H   0  0  0  0  0  0  0  0  0  0  0  0
  5  6  2  0  0  0  0
  5  7  1  0  0  0  0
  2  3  1  0  0  0  0
  2  4  1  0  0  0  0
  2  5  1  0  0  0  0
  1  2  1  0  0  0  0
 22 23  2  0  0  0  0
 22 24  1  0  0  0  0
 19 20  1  0  0  0  0
 19 21  1  0  0  0  0
 17 18  2  0  0  0  0
 17 19  1  0  0  0  0
 14 15  1  0  0  0  0
 14 16  1  0  0  0  0
 14 17  1  0  0  0  0
 11 12  1  0  0  0  0
 11 13  1  0  0  0  0
 11 14  1  0  0  0  0
  9 10  1  0  0  0  0
  9 11  1  0  0  0  0
  9 22  1  0  0  0  0
  7  8  1  0  0  0  0
  7  9  1  0  0  0  0
 26 27  1  0  0  0  0
 26 28  1  0  0  0  0
 26 29  1  0  0  0  0
 24 25  1  0  0  0  0
 24 26  1  0  0  0  0
M  END
$$$$
default_name
  -OEChem-02102213163D

 29 28  0     1  0  0  0  0  0999 V2000
   -3.3998   -3.6239    1.3678 H   0  0  0  0  0  0  0  0  0  0  0  0
   -3.3608   -2.6749    0.8348 C   0  0  0  0  0  0  0  0  0  0  0  0
   -4.0988   -1.9909    1.2498 H   0  0  0  0  0  0  0  0  0  0  0  0
   -3.5618   -2.8419   -0.2222 H   0  0  0  0  0  0  0  0  0  0  0  0
   -1.9818   -2.0809    0.9918 C   0  0  0  0  0  0  0  0  0  0  0  0
   -1.1288   -2.6669    1.6468 O   0  0  0  0  0  0  0  0  0  0  0  0
   -1.7648   -0.9089    0.3998 N   0  0  0  0  0  0  0  0  0  0  0  0
   -2.5238   -0.4719   -0.1032 H   0  0  0  0  0  0  0  0  0  0  0  0
   -0.4848   -0.1959    0.4138 C   0  0  1  0  0  0  0  0  0  0  0  0
    0.2783   -0.8411   -0.0248 H   0  0  0  0  0  0  0  0  0  0  0  0
   -0.6101    1.0666   -0.4611 C   0  0  0  0  0  0  0  0  0  0  0  0
    0.1162    0.9950   -1.2734 H   0  0  0  0  0  0  0  0  0  0  0  0
   -1.6091    1.0993   -0.8987 H   0  0  0  0  0  0  0  0  0  0  0  0
   -0.3577    2.3794    0.3007 C   0  0  0  0  0  0  0  0  0  0  0  0
   -1.3060    2.8818    0.4906 H   0  0  0  0  0  0  0  0  0  0  0  0
    0.1117    2.1487    1.2570 H   0  0  0  0  0  0  0  0  0  0  0  0
    0.5474    3.3502   -0.4574 C   0  0  0  0  0  0  0  0  0  0  0  0
    1.0766    3.0810   -1.5195 O   0  0  0  0  0  0  0  0  0  0  0  0
    0.7603    4.5409    0.0595 N   0  0  0  0  0  0  0  0  0  0  0  0
    1.3618    5.1382   -0.4808 H   0  0  0  0  0  0  0  0  0  0  0  0
    0.3479    4.8145    0.9283 H   0  0  0  0  0  0  0  0  0  0  0  0
   -0.0637    0.1284    1.8555 C   0  0  0  0  0  0  0  0  0  0  0  0
    1.0918   -0.0745    2.2236 O   0  0  0  0  0  0  0  0  0  0  0  0
   -1.0024    0.6217    2.6735 N   0  0  0  0  0  0  0  0  0  0  0  0
   -1.9213    0.7848    2.2938 H   0  0  0  0  0  0  0  0  0  0  0  0
   -0.7639    0.9676    4.0741 C   0  0  0  0  0  0  0  0  0  0  0  0
    0.0520    1.6916    4.1400 H   0  0  0  0  0  0  0  0  0  0  0  0
   -1.6626    1.3984    4.5182 H   0  0  0  0  0  0  0  0  0  0  0  0
   -0.4775    0.0737    4.6309 H   0  0  0  0  0  0  0  0  0  0  0  0
  5  6  2  0  0  0  0
  5  7  1  0  0  0  0
  2  3  1  0  0  0  0
  2  4  1  0  0  0  0
  2  5  1  0  0  0  0
  1  2  1  0  0  0  0
 22 23  2  0  0  0  0
 22 24  1  0  0  0  0
 19 20  1  0  0  0  0
 19 21  1  0  0  0  0
 17 18  2  0  0  0  0
 17 19  1  0  0  0  0
 14 15  1  0  0  0  0
 14 16  1  0  0  0  0
 14 17  1  0  0  0  0
 11 12  1  0  0  0  0
 11 13  1  0  0  0  0
 11 14  1  0  0  0  0
  9 10  1  0  0  0  0
  9 11  1  0  0  0  0
  9 22  1  0  0  0  0
  7  8  1  0  0  0  0
  7  9  1  0  0  0  0
 26 27  1  0  0  0  0
 26 28  1  0  0  0  0
 26 29  1  0  0  0  0
 24 25  1  0  0  0  0
 24 26  1  0  0  0  0
M  END
$$$$
default_name
  -OEChem-02102213163D

 29 28  0     1  0  0  0  0  0999 V2000
   -3.3998   -3.6239    1.3678 H   0  0  0  0  0  0  0  0  0  0  0  0
   -3.3608   -2.6749    0.8348 C   0  0  0  0  0  0  0  0  0  0  0  0
   -4.0988   -1.9909    1.2498 H   0  0  0  0  0  0  0  0  0  0  0  0
   -3.5618   -2.8419   -0.2222 H   0  0  0  0  0  0  0  0  0  0  0  0
   -1.9818   -2.0809    0.9918 C   0  0  0  0  0  0  0  0  0  0  0  0
   -1.1288   -2.6669    1.6468 O   0  0  0  0  0  0  0  0  0  0  0  0
   -1.7648   -0.9089    0.3998 N   0  0  0  0  0  0  0  0  0  0  0  0
   -2.5238   -0.4719   -0.1032 H   0  0  0  0  0  0  0  0  0  0  0  0
   -0.4848   -0.1959    0.4138 C   0  0  1  0  0  0  0  0  0  0  0  0
    0.2783   -0.8411   -0.0248 H   0  0  0  0  0  0  0  0  0  0  0  0
   -0.6101    1.0666   -0.4611 C   0  0  0  0  0  0  0  0  0  0  0  0
    0.1162    0.9950   -1.2734 H   0  0  0  0  0  0  0  0  0  0  0  0
   -1.6091    1.0993   -0.8987 H   0  0  0  0  0  0  0  0  0  0  0  0
   -0.3577    2.3794    0.3007 C   0  0  0  0  0  0  0  0  0  0  0  0
   -1.2941    2.7458    0.7210 H   0  0  0  0  0  0  0  0  0  0  0  0
    0.3384    2.1864    1.1170 H   0  0  0  0  0  0  0  0  0  0  0  0
    0.2281    3.4828   -0.5801 C   0  0  0  0  0  0  0  0  0  0  0  0
    0.5354    3.3162   -1.7456 O   0  0  0  0  0  0  0  0  0  0  0  0
    0.4026    4.6762   -0.0552 N   0  0  0  0  0  0  0  0  0  0  0  0
    0.7896    5.3631   -0.6788 H   0  0  0  0  0  0  0  0  0  0  0  0
    0.1644    4.8681    0.8967 H   0  0  0  0  0  0  0  0  0  0  0  0
   -0.0637    0.1284    1.8555 C   0  0  0  0  0  0  0  0  0  0  0  0
    1.0918   -0.0745    2.2236 O   0  0  0  0  0  0  0  0  0  0  0  0
   -1.0024    0.6217    2.6735 N   0  0  0  0  0  0  0  0  0  0  0  0
   -1.9213    0.7848    2.2938 H   0  0  0  0  0  0  0  0  0  0  0  0
   -0.7639    0.9676    4.0741 C   0  0  0  0  0  0  0  0  0  0  0  0
    0.0520    1.6916    4.1400 H   0  0  0  0  0  0  0  0  0  0  0  0
   -1.6626    1.3984    4.5182 H   0  0  0  0  0  0  0  0  0  0  0  0
   -0.4775    0.0737    4.6309 H   0  0  0  0  0  0  0  0  0  0  0  0
  5  6  2  0  0  0  0
  5  7  1  0  0  0  0
  2  3  1  0  0  0  0
  2  4  1  0  0  0  0
  2  5  1  0  0  0  0
  1  2  1  0  0  0  0
 22 23  2  0  0  0  0
 22 24  1  0  0  0  0
 19 20  1  0  0  0  0
 19 21  1  0  0  0  0
 17 18  2  0  0  0  0
 17 19  1  0  0  0  0
 14 15  1  0  0  0  0
 14 16  1  0  0  0  0
 14 17  1  0  0  0  0
 11 12  1  0  0  0  0
 11 13  1  0  0  0  0
 11 14  1  0  0  0  0
  9 10  1  0  0  0  0
  9 11  1  0  0  0  0
  9 22  1  0  0  0  0
  7  8  1  0  0  0  0
  7  9  1  0  0  0  0
 26 27  1  0  0  0  0
 26 28  1  0  0  0  0
 26 29  1  0  0  0  0
 24 25  1  0  0  0  0
 24 26  1  0  0  0  0
M  END
$$$$
default_name
  -OEChem-02102213163D

 29 28  0     1  0  0  0  0  0999 V2000
   -3.3998   -3.6239    1.3678 H   0  0  0  0  0  0  0  0  0  0  0  0
   -3.3608   -2.6749    0.8348 C   0  0  0  0  0  0  0  0  0  0  0  0
   -4.0988   -1.9909    1.2498 H   0  0  0  0  0  0  0  0  0  0  0  0
   -3.5618   -2.8419   -0.2222 H   0  0  0  0  0  0  0  0  0  0  0  0
   -1.9818   -2.0809    0.9918 C   0  0  0  0  0  0  0  0  0  0  0  0
   -1.1288   -2.6669    1.6468 O   0  0  0  0  0  0  0  0  0  0  0  0
   -1.7648   -0.9089    0.3998 N   0  0  0  0  0  0  0  0  0  0  0  0
   -2.5238   -0.4719   -0.1032 H   0  0  0  0  0  0  0  0  0  0  0  0
   -0.4848   -0.1959    0.4138 C   0  0  1  0  0  0  0  0  0  0  0  0
    0.2783   -0.8411   -0.0248 H   0  0  0  0  0  0  0  0  0  0  0  0
   -0.6101    1.0666   -0.4611 C   0  0  0  0  0  0  0  0  0  0  0  0
    0.1162    0.9950   -1.2734 H   0  0  0  0  0  0  0  0  0  0  0  0
   -1.6091    1.0993   -0.8987 H   0  0  0  0  0  0  0  0  0  0  0  0
   -0.3577    2.3794    0.3007 C   0  0  0  0  0  0  0  0  0  0  0  0
   -1.2143    2.6061    0.9352 H   0  0  0  0  0  0  0  0  0  0  0  0
    0.5216    2.2578    0.9332 H   0  0  0  0  0  0  0  0  0  0  0  0
   -0.1244    3.5752   -0.6224 C   0  0  0  0  0  0  0  0  0  0  0  0
   -0.0673    3.4837   -1.8344 O   0  0  0  0  0  0  0  0  0  0  0  0
    0.0144    4.7660   -0.0813 N   0  0  0  0  0  0  0  0  0  0  0  0
    0.1644    5.5155   -0.7341 H   0  0  0  0  0  0  0  0  0  0  0  0
   -0.0267    4.8977    0.9090 H   0  0  0  0  0  0  0  0  0  0  0  0
   -0.0637    0.1284    1.8555 C   0  0  0  0  0  0  0  0  0  0  0  0
    1.0918   -0.0745    2.2236 O   0  0  0  0  0  0  0  0  0  0  0  0
   -1.0024    0.6217    2.6735 N   0  0  0  0  0  0  0  0  0  0  0  0
   -1.9213    0.7848    2.2938 H   0  0  0  0  0  0  0  0  0  0  0  0
   -0.7639    0.9676    4.0741 C   0  0  0  0  0  0  0  0  0  0  0  0
    0.0520    1.6916    4.1400 H   0  0  0  0  0  0  0  0  0  0  0  0
   -1.6626    1.3984    4.5182 H   0  0  0  0  0  0  0  0  0  0  0  0
   -0.4775    0.0737    4.6309 H   0  0  0  0  0  0  0  0  0  0  0  0
  5  6  2  0  0  0  0
  5  7  1  0  0  0  0
  2  3  1  0  0  0  0
  2  4  1  0  0  0  0
  2  5  1  0  0  0  0
  1  2  1  0  0  0  0
 22 23  2  0  0  0  0
 22 24  1  0  0  0  0
 19 20  1  0  0  0  0
 19 21  1  0  0  0  0
 17 18  2  0  0  0  0
 17 19  1  0  0  0  0
 14 15  1  0  0  0  0
 14 16  1  0  0  0  0
 14 17  1  0  0  0  0
 11 12  1  0  0  0  0
 11 13  1  0  0  0  0
 11 14  1  0  0  0  0
  9 10  1  0  0  0  0
  9 11  1  0  0  0  0
  9 22  1  0  0  0  0
  7  8  1  0  0  0  0
  7  9  1  0  0  0  0
 26 27  1  0  0  0  0
 26 28  1  0  0  0  0
 26 29  1  0  0  0  0
 24 25  1  0  0  0  0
 24 26  1  0  0  0  0
M  END
$$$$
default_name
  -OEChem-02102213163D

 29 28  0     1  0  0  0  0  0999 V2000
   -3.3998   -3.6239    1.3678 H   0  0  0  0  0  0  0  0  0  0  0  0
   -3.3608   -2.6749    0.8348 C   0  0  0  0  0  0  0  0  0  0  0  0
   -4.0988   -1.9909    1.2498 H   0  0  0  0  0  0  0  0  0  0  0  0
   -3.5618   -2.8419   -0.2222 H   0  0  0  0  0  0  0  0  0  0  0  0
   -1.9818   -2.0809    0.9918 C   0  0  0  0  0  0  0  0  0  0  0  0
   -1.1288   -2.6669    1.6468 O   0  0  0  0  0  0  0  0  0  0  0  0
   -1.7648   -0.9089    0.3998 N   0  0  0  0  0  0  0  0  0  0  0  0
   -2.5238   -0.4719   -0.1032 H   0  0  0  0  0  0  0  0  0  0  0  0
   -0.4848   -0.1959    0.4138 C   0  0  1  0  0  0  0  0  0  0  0  0
    0.2783   -0.8411   -0.0248 H   0  0  0  0  0  0  0  0  0  0  0  0
   -0.6101    1.0666   -0.4611 C   0  0  0  0  0  0  0  0  0  0  0  0
   -0.0922    0.8832   -1.4048 H   0  0  0  0  0  0  0  0  0  0  0  0
   -1.6640    1.2457   -0.6795 H   0  0  0  0  0  0  0  0  0  0  0  0
   -0.0137    2.3310    0.1816 C   0  0  0  0  0  0  0  0  0  0  0  0
   -0.5156    2.5337    1.1274 H   0  0  0  0  0  0  0  0  0  0  0  0
    1.0450    2.1619    0.3785 H   0  0  0  0  0  0  0  0  0  0  0  0
   -0.1465    3.5732   -0.6992 C   0  0  0  0  0  0  0  0  0  0  0  0
   -0.6072    3.5490   -1.8251 O   0  0  0  0  0  0  0  0  0  0  0  0
    0.2498    4.7298   -0.2140 N   0  0  0  0  0  0  0  0  0  0  0  0
    0.1388    5.5125   -0.8349 H   0  0  0  0  0  0  0  0  0  0  0  0
    0.6333    4.8064    0.7062 H   0  0  0  0  0  0  0  0  0  0  0  0
   -0.0637    0.1284    1.8555 C   0  0  0  0  0  0  0  0  0  0  0  0
    1.0918   -0.0745    2.2236 O   0  0  0  0  0  0  0  0  0  0  0  0
   -1.0024    0.6217    2.6735 N   0  0  0  0  0  0  0  0  0  0  0  0
   -1.9213    0.7848    2.2938 H   0  0  0  0  0  0  0  0  0  0  0  0
   -0.7639    0.9676    4.0741 C   0  0  0  0  0  0  0  0  0  0  0  0
    0.0520    1.6916    4.1400 H   0  0  0  0  0  0  0  0  0  0  0  0
   -1.6626    1.3984    4.5182 H   0  0  0  0  0  0  0  0  0  0  0  0
   -0.4775    0.0737    4.6309 H   0  0  0  0  0  0  0  0  0  0  0  0
  5  6  2  0  0  0  0
  5  7  1  0  0  0  0
  2  3  1  0  0  0  0
  2  4  1  0  0  0  0
  2  5  1  0  0  0  0
  1  2  1  0  0  0  0
 22 23  2  0  0  0  0
 22 24  1  0  0  0  0
 19 20  1  0  0  0  0
 19 21  1  0  0  0  0
 17 18  2  0  0  0  0
 17 19  1  0  0  0  0
 14 15  1  0  0  0  0
 14 16  1  0  0  0  0
 14 17  1  0  0  0  0
 11 12  1  0  0  0  0
 11 13  1  0  0  0  0
 11 14  1  0  0  0  0
  9 10  1  0  0  0  0
  9 11  1  0  0  0  0
  9 22  1  0  0  0  0
  7  8  1  0  0  0  0
  7  9  1  0  0  0  0
 26 27  1  0  0  0  0
 26 28  1  0  0  0  0
 26 29  1  0  0  0  0
 24 25  1  0  0  0  0
 24 26  1  0  0  0  0
M  END
$$$$
default_name
  -OEChem-02102213163D

 29 28  0     1  0  0  0  0  0999 V2000
   -3.3998   -3.6239    1.3678 H   0  0  0  0  0  0  0  0  0  0  0  0
   -3.3608   -2.6749    0.8348 C   0  0  0  0  0  0  0  0  0  0  0  0
   -4.0988   -1.9909    1.2498 H   0  0  0  0  0  0  0  0  0  0  0  0
   -3.5618   -2.8419   -0.2222 H   0  0  0  0  0  0  0  0  0  0  0  0
   -1.9818   -2.0809    0.9918 C   0  0  0  0  0  0  0  0  0  0  0  0
   -1.1288   -2.6669    1.6468 O   0  0  0  0  0  0  0  0  0  0  0  0
   -1.7648   -0.9089    0.3998 N   0  0  0  0  0  0  0  0  0  0  0  0
   -2.5238   -0.4719   -0.1032 H   0  0  0  0  0  0  0  0  0  0  0  0
   -0.4848   -0.1959    0.4138 C   0  0  1  0  0  0  0  0  0  0  0  0
    0.2783   -0.8411   -0.0248 H   0  0  0  0  0  0  0  0  0  0  0  0
   -0.6101    1.0666   -0.4611 C   0  0  0  0  0  0  0  0  0  0  0  0
   -0.0922    0.8832   -1.4048 H   0  0  0  0  0  0  0  0  0  0  0  0
   -1.6640    1.2457   -0.6795 H   0  0  0  0  0  0  0  0  0  0  0  0
   -0.0137    2.3310    0.1816 C   0  0  0  0  0  0  0  0  0  0  0  0
   -0.3144    2.3879    1.2275 H   0  0  0  0  0  0  0  0  0  0  0  0
    1.0737    2.2723    0.1347 H   0  0  0  0  0  0  0  0  0  0  0  0
   -0.4557    3.6218   -0.5077 C   0  0  0  0  0  0  0  0  0  0  0  0
   -1.1463    3.6428   -1.5093 O   0  0  0  0  0  0  0  0  0  0  0  0
   -0.0774    4.7697    0.0113 N   0  0  0  0  0  0  0  0  0  0  0  0
   -0.3968    5.5856   -0.4814 H   0  0  0  0  0  0  0  0  0  0  0  0
    0.4883    4.8094    0.8348 H   0  0  0  0  0  0  0  0  0  0  0  0
   -0.0637    0.1284    1.8555 C   0  0  0  0  0  0  0  0  0  0  0  0
    1.0918   -0.0745    2.2236 O   0  0  0  0  0  0  0  0  0  0  0  0
   -1.0024    0.6217    2.6735 N   0  0  0  0  0  0  0  0  0  0  0  0
   -1.9213    0.7848    2.2938 H   0  0  0  0  0  0  0  0  0  0  0  0
   -0.7639    0.9676    4.0741 C   0  0  0  0  0  0  0  0  0  0  0  0
    0.0520    1.6916    4.1400 H   0  0  0  0  0  0  0  0  0  0  0  0
   -1.6626    1.3984    4.5182 H   0  0  0  0  0  0  0  0  0  0  0  0
   -0.4775    0.0737    4.6309 H   0  0  0  0  0  0  0  0  0  0  0  0
  5  6  2  0  0  0  0
  5  7  1  0  0  0  0
  2  3  1  0  0  0  0
  2  4  1  0  0  0  0
  2  5  1  0  0  0  0
  1  2  1  0  0  0  0
 22 23  2  0  0  0  0
 22 24  1  0  0  0  0
 19 20  1  0  0  0  0
 19 21  1  0  0  0  0
 17 18  2  0  0  0  0
 17 19  1  0  0  0  0
 14 15  1  0  0  0  0
 14 16  1  0  0  0  0
 14 17  1  0  0  0  0
 11 12  1  0  0  0  0
 11 13  1  0  0  0  0
 11 14  1  0  0  0  0
  9 10  1  0  0  0  0
  9 11  1  0  0  0  0
  9 22  1  0  0  0  0
  7  8  1  0  0  0  0
  7  9  1  0  0  0  0
 26 27  1  0  0  0  0
 26 28  1  0  0  0  0
 26 29  1  0  0  0  0
 24 25  1  0  0  0  0
 24 26  1  0  0  0  0
M  END
$$$$
default_name
  -OEChem-02102213163D

 29 28  0     1  0  0  0  0  0999 V2000
   -3.3998   -3.6239    1.3678 H   0  0  0  0  0  0  0  0  0  0  0  0
   -3.3608   -2.6749    0.8348 C   0  0  0  0  0  0  0  0  0  0  0  0
   -4.0988   -1.9909    1.2498 H   0  0  0  0  0  0  0  0  0  0  0  0
   -3.5618   -2.8419   -0.2222 H   0  0  0  0  0  0  0  0  0  0  0  0
   -1.9818   -2.0809    0.9918 C   0  0  0  0  0  0  0  0  0  0  0  0
   -1.1288   -2.6669    1.6468 O   0  0  0  0  0  0  0  0  0  0  0  0
   -1.7648   -0.9089    0.3998 N   0  0  0  0  0  0  0  0  0  0  0  0
   -2.5238   -0.4719   -0.1032 H   0  0  0  0  0  0  0  0  0  0  0  0
   -0.4848   -0.1959    0.4138 C   0  0  1  0  0  0  0  0  0  0  0  0
    0.2783   -0.8411   -0.0248 H   0  0  0  0  0  0  0  0  0  0  0  0
   -0.6101    1.0666   -0.4611 C   0  0  0  0  0  0  0  0  0  0  0  0
   -0.0922    0.8832   -1.4048 H   0  0  0  0  0  0  0  0  0  0  0  0
   -1.6640    1.2457   -0.6795 H   0  0  0  0  0  0  0  0  0  0  0  0
   -0.0137    2.3310    0.1816 C   0  0  0  0  0  0  0  0  0  0  0  0
   -0.0831    2.2588    1.2668 H   0  0  0  0  0  0  0  0  0  0  0  0
    1.0377    2.4065   -0.0958 H   0  0  0  0  0  0  0  0  0  0  0  0
   -0.7188    3.6160   -0.2521 C   0  0  0  0  0  0  0  0  0  0  0  0
   -1.6100    3.6435   -1.0801 O   0  0  0  0  0  0  0  0  0  0  0  0
   -0.3499    4.7502    0.3026 N   0  0  0  0  0  0  0  0  0  0  0  0
   -0.8469    5.5627   -0.0188 H   0  0  0  0  0  0  0  0  0  0  0  0
    0.3752    4.7838    0.9901 H   0  0  0  0  0  0  0  0  0  0  0  0
   -0.0637    0.1284    1.8555 C   0  0  0  0  0  0  0  0  0  0  0  0
    1.0918   -0.0745    2.2236 O   0  0  0  0  0  0  0  0  0  0  0  0
   -1.0024    0.6217    2.6735 N   0  0  0  0  0  0  0  0  0  0  0  0
   -1.9213    0.7848    2.2938 H   0  0  0  0  0  0  0  0  0  0  0  0
   -0.7639    0.9676    4.0741 C   0  0  0  0  0  0  0  0  0  0  0  0
    0.0520    1.6916    4.1400 H   0  0  0  0  0  0  0  0  0  0  0  0
   -1.6626    1.3984    4.5182 H   0  0  0  0  0  0  0  0  0  0  0  0
   -0.4775    0.0737    4.6309 H   0  0  0  0  0  0  0  0  0  0  0  0
  5  6  2  0  0  0  0
  5  7  1  0  0  0  0
  2  3  1  0  0  0  0
  2  4  1  0  0  0  0
  2  5  1  0  0  0  0
  1  2  1  0  0  0  0
 22 23  2  0  0  0  0
 22 24  1  0  0  0  0
 19 20  1  0  0  0  0
 19 21  1  0  0  0  0
 17 18  2  0  0  0  0
 17 19  1  0  0  0  0
 14 15  1  0  0  0  0
 14 16  1  0  0  0  0
 14 17  1  0  0  0  0
 11 12  1  0  0  0  0
 11 13  1  0  0  0  0
 11 14  1  0  0  0  0
  9 10  1  0  0  0  0
  9 11  1  0  0  0  0
  9 22  1  0  0  0  0
  7  8  1  0  0  0  0
  7  9  1  0  0  0  0
 26 27  1  0  0  0  0
 26 28  1  0  0  0  0
 26 29  1  0  0  0  0
 24 25  1  0  0  0  0
 24 26  1  0  0  0  0
M  END
$$$$
default_name
  -OEChem-02102213163D

 29 28  0     1  0  0  0  0  0999 V2000
   -3.3998   -3.6239    1.3678 H   0  0  0  0  0  0  0  0  0  0  0  0
   -3.3608   -2.6749    0.8348 C   0  0  0  0  0  0  0  0  0  0  0  0
   -4.0988   -1.9909    1.2498 H   0  0  0  0  0  0  0  0  0  0  0  0
   -3.5618   -2.8419   -0.2222 H   0  0  0  0  0  0  0  0  0  0  0  0
   -1.9818   -2.0809    0.9918 C   0  0  0  0  0  0  0  0  0  0  0  0
   -1.1288   -2.6669    1.6468 O   0  0  0  0  0  0  0  0  0  0  0  0
   -1.7648   -0.9089    0.3998 N   0  0  0  0  0  0  0  0  0  0  0  0
   -2.5238   -0.4719   -0.1032 H   0  0  0  0  0  0  0  0  0  0  0  0
   -0.4848   -0.1959    0.4138 C   0  0  1  0  0  0  0  0  0  0  0  0
    0.2783   -0.8411   -0.0248 H   0  0  0  0  0  0  0  0  0  0  0  0
   -0.6101    1.0666   -0.4611 C   0  0  0  0  0  0  0  0  0  0  0  0
   -0.0922    0.8832   -1.4048 H   0  0  0  0  0  0  0  0  0  0  0  0
   -1.6640    1.2457   -0.6795 H   0  0  0  0  0  0  0  0  0  0  0  0
   -0.0137    2.3310    0.1816 C   0  0  0  0  0  0  0  0  0  0  0  0
    0.1628    2.1551    1.2425 H   0  0  0  0  0  0  0  0  0  0  0  0
    0.9394    2.5553   -0.2974 H   0  0  0  0  0  0  0  0  0  0  0  0
   -0.9180    3.5563    0.0501 C   0  0  0  0  0  0  0  0  0  0  0  0
   -1.9668    3.5509   -0.5668 O   0  0  0  0  0  0  0  0  0  0  0  0
   -0.5491    4.6727    0.6398 N   0  0  0  0  0  0  0  0  0  0  0  0
   -1.1808    5.4456    0.5216 H   0  0  0  0  0  0  0  0  0  0  0  0
    0.3018    4.7313    1.1616 H   0  0  0  0  0  0  0  0  0  0  0  0
   -0.0637    0.1284    1.8555 C   0  0  0  0  0  0  0  0  0  0  0  0
    1.0918   -0.0745    2.2236 O   0  0  0  0  0  0  0  0  0  0  0  0
   -1.0024    0.6217    2.6735 N   0  0  0  0  0  0  0  0  0  0  0  0
   -1.9213    0.7848    2.2938 H   0  0  0  0  0  0  0  0  0  0  0  0
   -0.7639    0.9676    4.0741 C   0  0  0  0  0  0  0  0  0  0  0  0
    0.0520    1.6916    4.1400 H   0  0  0  0  0  0  0  0  0  0  0  0
   -1.6626    1.3984    4.5182 H   0  0  0  0  0  0  0  0  0  0  0  0
   -0.4775    0.0737    4.6309 H   0  0  0  0  0  0  0  0  0  0  0  0
  5  6  2  0  0  0  0
  5  7  1  0  0  0  0
  2  3  1  0  0  0  0
  2  4  1  0  0  0  0
  2  5  1  0  0  0  0
  1  2  1  0  0  0  0
 22 23  2  0  0  0  0
 22 24  1  0  0  0  0
 19 20  1  0  0  0  0
 19 21  1  0  0  0  0
 17 18  2  0  0  0  0
 17 19  1  0  0  0  0
 14 15  1  0  0  0  0
 14 16  1  0  0  0  0
 14 17  1  0  0  0  0
 11 12  1  0  0  0  0
 11 13  1  0  0  0  0
 11 14  1  0  0  0  0
  9 10  1  0  0  0  0
  9 11  1  0  0  0  0
  9 22  1  0  0  0  0
  7  8  1  0  0  0  0
  7  9  1  0  0  0  0
 26 27  1  0  0  0  0
 26 28  1  0  0  0  0
 26 29  1  0  0  0  0
 24 25  1  0  0  0  0
 24 26  1  0  0  0  0
M  END
$$$$
default_name
  -OEChem-02102213163D

 29 28  0     1  0  0  0  0  0999 V2000
   -3.3998   -3.6239    1.3678 H   0  0  0  0  0  0  0  0  0  0  0  0
   -3.3608   -2.6749    0.8348 C   0  0  0  0  0  0  0  0  0  0  0  0
   -4.0988   -1.9909    1.2498 H   0  0  0  0  0  0  0  0  0  0  0  0
   -3.5618   -2.8419   -0.2222 H   0  0  0  0  0  0  0  0  0  0  0  0
   -1.9818   -2.0809    0.9918 C   0  0  0  0  0  0  0  0  0  0  0  0
   -1.1288   -2.6669    1.6468 O   0  0  0  0  0  0  0  0  0  0  0  0
   -1.7648   -0.9089    0.3998 N   0  0  0  0  0  0  0  0  0  0  0  0
   -2.5238   -0.4719   -0.1032 H   0  0  0  0  0  0  0  0  0  0  0  0
   -0.4848   -0.1959    0.4138 C   0  0  1  0  0  0  0  0  0  0  0  0
    0.2783   -0.8411   -0.0248 H   0  0  0  0  0  0  0  0  0  0  0  0
   -0.6101    1.0666   -0.4611 C   0  0  0  0  0  0  0  0  0  0  0  0
   -0.0922    0.8832   -1.4048 H   0  0  0  0  0  0  0  0  0  0  0  0
   -1.6640    1.2457   -0.6795 H   0  0  0  0  0  0  0  0  0  0  0  0
   -0.0137    2.3310    0.1816 C   0  0  0  0  0  0  0  0  0  0  0  0
    0.4062    2.0840    1.1565 H   0  0  0  0  0  0  0  0  0  0  0  0
    0.7855    2.7086   -0.4562 H   0  0  0  0  0  0  0  0  0  0  0  0
   -1.0397    3.4468    0.3784 C   0  0  0  0  0  0  0  0  0  0  0  0
   -2.1922    3.3713   -0.0045 O   0  0  0  0  0  0  0  0  0  0  0  0
   -0.6613    4.5425    1.0002 N   0  0  0  0  0  0  0  0  0  0  0  0
   -1.3758    5.2422    1.1027 H   0  0  0  0  0  0  0  0  0  0  0  0
    0.2731    4.6554    1.3376 H   0  0  0  0  0  0  0  0  0  0  0  0
   -0.0637    0.1284    1.8555 C   0  0  0  0  0  0  0  0  0  0  0  0
    1.0918   -0.0745    2.2236 O   0  0  0  0  0  0  0  0  0  0  0  0
   -1.0024    0.6217    2.6735 N   0  0  0  0  0  0  0  0  0  0  0  0
   -1.9213    0.7848    2.2938 H   0  0  0  0  0  0  0  0  0  0  0  0
   -0.7639    0.9676    4.0741 C   0  0  0  0  0  0  0  0  0  0  0  0
    0.0520    1.6916    4.1400 H   0  0  0  0  0  0  0  0  0  0  0  0
   -1.6626    1.3984    4.5182 H   0  0  0  0  0  0  0  0  0  0  0  0
   -0.4775    0.0737    4.6309 H   0  0  0  0  0  0  0  0  0  0  0  0
  5  6  2  0  0  0  0
  5  7  1  0  0  0  0
  2  3  1  0  0  0  0
  2  4  1  0  0  0  0
  2  5  1  0  0  0  0
  1  2  1  0  0  0  0
 22 23  2  0  0  0  0
 22 24  1  0  0  0  0
 19 20  1  0  0  0  0
 19 21  1  0  0  0  0
 17 18  2  0  0  0  0
 17 19  1  0  0  0  0
 14 15  1  0  0  0  0
 14 16  1  0  0  0  0
 14 17  1  0  0  0  0
 11 12  1  0  0  0  0
 11 13  1  0  0  0  0
 11 14  1  0  0  0  0
  9 10  1  0  0  0  0
  9 11  1  0  0  0  0
  9 22  1  0  0  0  0
  7  8  1  0  0  0  0
  7  9  1  0  0  0  0
 26 27  1  0  0  0  0
 26 28  1  0  0  0  0
 26 29  1  0  0  0  0
 24 25  1  0  0  0  0
 24 26  1  0  0  0  0
M  END
$$$$
default_name
  -OEChem-02102213163D

 29 28  0     1  0  0  0  0  0999 V2000
   -3.3998   -3.6239    1.3678 H   0  0  0  0  0  0  0  0  0  0  0  0
   -3.3608   -2.6749    0.8348 C   0  0  0  0  0  0  0  0  0  0  0  0
   -4.0988   -1.9909    1.2498 H   0  0  0  0  0  0  0  0  0  0  0  0
   -3.5618   -2.8419   -0.2222 H   0  0  0  0  0  0  0  0  0  0  0  0
   -1.9818   -2.0809    0.9918 C   0  0  0  0  0  0  0  0  0  0  0  0
   -1.1288   -2.6669    1.6468 O   0  0  0  0  0  0  0  0  0  0  0  0
   -1.7648   -0.9089    0.3998 N   0  0  0  0  0  0  0  0  0  0  0  0
   -2.5238   -0.4719   -0.1032 H   0  0  0  0  0  0  0  0  0  0  0  0
   -0.4848   -0.1959    0.4138 C   0  0  1  0  0  0  0  0  0  0  0  0
    0.2783   -0.8411   -0.0248 H   0  0  0  0  0  0  0  0  0  0  0  0
   -0.6101    1.0666   -0.4611 C   0  0  0  0  0  0  0  0  0  0  0  0
   -0.0922    0.8832   -1.4048 H   0  0  0  0  0  0  0  0  0  0  0  0
   -1.6640    1.2457   -0.6795 H   0  0  0  0  0  0  0  0  0  0  0  0
   -0.0137    2.3310    0.1816 C   0  0  0  0  0  0  0  0  0  0  0  0
    0.6308    2.0503    1.0144 H   0  0  0  0  0  0  0  0  0  0  0  0
    0.5864    2.8561   -0.5615 H   0  0  0  0  0  0  0  0  0  0  0  0
   -1.0755    3.2950    0.7105 C   0  0  0  0  0  0  0  0  0  0  0  0
   -2.2709    3.1172    0.5686 O   0  0  0  0  0  0  0  0  0  0  0  0
   -0.6790    4.3684    1.3591 N   0  0  0  0  0  0  0  0  0  0  0  0
   -1.4185    4.9663    1.6852 H   0  0  0  0  0  0  0  0  0  0  0  0
    0.2910    4.5613    1.5061 H   0  0  0  0  0  0  0  0  0  0  0  0
   -0.0637    0.1284    1.8555 C   0  0  0  0  0  0  0  0  0  0  0  0
    1.0918   -0.0745    2.2236 O   0  0  0  0  0  0  0  0  0  0  0  0
   -1.0024    0.6217    2.6735 N   0  0  0  0  0  0  0  0  0  0  0  0
   -1.9213    0.7848    2.2938 H   0  0  0  0  0  0  0  0  0  0  0  0
   -0.7639    0.9676    4.0741 C   0  0  0  0  0  0  0  0  0  0  0  0
    0.0520    1.6916    4.1400 H   0  0  0  0  0  0  0  0  0  0  0  0
   -1.6626    1.3984    4.5182 H   0  0  0  0  0  0  0  0  0  0  0  0
   -0.4775    0.0737    4.6309 H   0  0  0  0  0  0  0  0  0  0  0  0
  5  6  2  0  0  0  0
  5  7  1  0  0  0  0
  2  3  1  0  0  0  0
  2  4  1  0  0  0  0
  2  5  1  0  0  0  0
  1  2  1  0  0  0  0
 22 23  2  0  0  0  0
 22 24  1  0  0  0  0
 19 20  1  0  0  0  0
 19 21  1  0  0  0  0
 17 18  2  0  0  0  0
 17 19  1  0  0  0  0
 14 15  1  0  0  0  0
 14 16  1  0  0  0  0
 14 17  1  0  0  0  0
 11 12  1  0  0  0  0
 11 13  1  0  0  0  0
 11 14  1  0  0  0  0
  9 10  1  0  0  0  0
  9 11  1  0  0  0  0
  9 22  1  0  0  0  0
  7  8  1  0  0  0  0
  7  9  1  0  0  0  0
 26 27  1  0  0  0  0
 26 28  1  0  0  0  0
 26 29  1  0  0  0  0
 24 25  1  0  0  0  0
 24 26  1  0  0  0  0
M  END
$$$$
default_name
  -OEChem-02102213163D

 29 28  0     1  0  0  0  0  0999 V2000
   -3.3998   -3.6239    1.3678 H   0  0  0  0  0  0  0  0  0  0  0  0
   -3.3608   -2.6749    0.8348 C   0  0  0  0  0  0  0  0  0  0  0  0
   -4.0988   -1.9909    1.2498 H   0  0  0  0  0  0  0  0  0  0  0  0
   -3.5618   -2.8419   -0.2222 H   0  0  0  0  0  0  0  0  0  0  0  0
   -1.9818   -2.0809    0.9918 C   0  0  0  0  0  0  0  0  0  0  0  0
   -1.1288   -2.6669    1.6468 O   0  0  0  0  0  0  0  0  0  0  0  0
   -1.7648   -0.9089    0.3998 N   0  0  0  0  0  0  0  0  0  0  0  0
   -2.5238   -0.4719   -0.1032 H   0  0  0  0  0  0  0  0  0  0  0  0
   -0.4848   -0.1959    0.4138 C   0  0  1  0  0  0  0  0  0  0  0  0
    0.2783   -0.8411   -0.0248 H   0  0  0  0  0  0  0  0  0  0  0  0
   -0.6101    1.0666   -0.4611 C   0  0  0  0  0  0  0  0  0  0  0  0
   -0.0922    0.8832   -1.4048 H   0  0  0  0  0  0  0  0  0  0  0  0
   -1.6640    1.2457   -0.6795 H   0  0  0  0  0  0  0  0  0  0  0  0
   -0.0137    2.3310    0.1816 C   0  0  0  0  0  0  0  0  0  0  0  0
    0.8212    2.0563    0.8260 H   0  0  0  0  0  0  0  0  0  0  0  0
    0.3559    2.9875   -0.6061 H   0  0  0  0  0  0  0  0  0  0  0  0
   -1.0231    3.1111    1.0236 C   0  0  0  0  0  0  0  0  0  0  0  0
   -2.1975    2.8056    1.1134 O   0  0  0  0  0  0  0  0  0  0  0  0
   -0.6010    4.1623    1.6921 N   0  0  0  0  0  0  0  0  0  0  0  0
   -1.3060    4.6367    2.2291 H   0  0  0  0  0  0  0  0  0  0  0  0
    0.3542    4.4555    1.6556 H   0  0  0  0  0  0  0  0  0  0  0  0
   -0.0637    0.1284    1.8555 C   0  0  0  0  0  0  0  0  0  0  0  0
    1.0918   -0.0745    2.2236 O   0  0  0  0  0  0  0  0  0  0  0  0
   -1.0024    0.6217    2.6735 N   0  0  0  0  0  0  0  0  0  0  0  0
   -1.9213    0.7848    2.2938 H   0  0  0  0  0  0  0  0  0  0  0  0
   -0.7639    0.9676    4.0741 C   0  0  0  0  0  0  0  0  0  0  0  0
    0.0520    1.6916    4.1400 H   0  0  0  0  0  0  0  0  0  0  0  0
   -1.6626    1.3984    4.5182 H   0  0  0  0  0  0  0  0  0  0  0  0
   -0.4775    0.0737    4.6309 H   0  0  0  0  0  0  0  0  0  0  0  0
  5  6  2  0  0  0  0
  5  7  1  0  0  0  0
  2  3  1  0  0  0  0
  2  4  1  0  0  0  0
  2  5  1  0  0  0  0
  1  2  1  0  0  0  0
 22 23  2  0  0  0  0
 22 24  1  0  0  0  0
 19 20  1  0  0  0  0
 19 21  1  0  0  0  0
 17 18  2  0  0  0  0
 17 19  1  0  0  0  0
 14 15  1  0  0  0  0
 14 16  1  0  0  0  0
 14 17  1  0  0  0  0
 11 12  1  0  0  0  0
 11 13  1  0  0  0  0
 11 14  1  0  0  0  0
  9 10  1  0  0  0  0
  9 11  1  0  0  0  0
  9 22  1  0  0  0  0
  7  8  1  0  0  0  0
  7  9  1  0  0  0  0
 26 27  1  0  0  0  0
 26 28  1  0  0  0  0
 26 29  1  0  0  0  0
 24 25  1  0  0  0  0
 24 26  1  0  0  0  0
M  END
$$$$
default_name
  -OEChem-02102213163D

 29 28  0     1  0  0  0  0  0999 V2000
   -3.3998   -3.6239    1.3678 H   0  0  0  0  0  0  0  0  0  0  0  0
   -3.3608   -2.6749    0.8348 C   0  0  0  0  0  0  0  0  0  0  0  0
   -4.0988   -1.9909    1.2498 H   0  0  0  0  0  0  0  0  0  0  0  0
   -3.5618   -2.8419   -0.2222 H   0  0  0  0  0  0  0  0  0  0  0  0
   -1.9818   -2.0809    0.9918 C   0  0  0  0  0  0  0  0  0  0  0  0
   -1.1288   -2.6669    1.6468 O   0  0  0  0  0  0  0  0  0  0  0  0
   -1.7648   -0.9089    0.3998 N   0  0  0  0  0  0  0  0  0  0  0  0
   -2.5238   -0.4719   -0.1032 H   0  0  0  0  0  0  0  0  0  0  0  0
   -0.4848   -0.1959    0.4138 C   0  0  1  0  0  0  0  0  0  0  0  0
    0.2783   -0.8411   -0.0248 H   0  0  0  0  0  0  0  0  0  0  0  0
   -0.6101    1.0666   -0.4611 C   0  0  0  0  0  0  0  0  0  0  0  0
   -0.0922    0.8832   -1.4048 H   0  0  0  0  0  0  0  0  0  0  0  0
   -1.6640    1.2457   -0.6795 H   0  0  0  0  0  0  0  0  0  0  0  0
   -0.0137    2.3310    0.1816 C   0  0  0  0  0  0  0  0  0  0  0  0
    0.9643    2.1015    0.6042 H   0  0  0  0  0  0  0  0  0  0  0  0
    0.1094    3.0940   -0.5869 H   0  0  0  0  0  0  0  0  0  0  0  0
   -0.8861    2.9077    1.2964 C   0  0  0  0  0  0  0  0  0  0  0  0
   -1.9772    2.4580    1.5928 O   0  0  0  0  0  0  0  0  0  0  0  0
   -0.4325    3.9383    1.9765 N   0  0  0  0  0  0  0  0  0  0  0  0
   -1.0461    4.2759    2.6976 H   0  0  0  0  0  0  0  0  0  0  0  0
    0.4586    4.3451    1.7759 H   0  0  0  0  0  0  0  0  0  0  0  0
   -0.0637    0.1284    1.8555 C   0  0  0  0  0  0  0  0  0  0  0  0
    1.0918   -0.0745    2.2236 O   0  0  0  0  0  0  0  0  0  0  0  0
   -1.0024    0.6217    2.6735 N   0  0  0  0  0  0  0  0  0  0  0  0
   -1.9213    0.7848    2.2938 H   0  0  0  0  0  0  0  0  0  0  0  0
   -0.7639    0.9676    4.0741 C   0  0  0  0  0  0  0  0  0  0  0  0
    0.0520    1.6916    4.1400 H   0  0  0  0  0  0  0  0  0  0  0  0
   -1.6626    1.3984    4.5182 H   0  0  0  0  0  0  0  0  0  0  0  0
   -0.4775    0.0737    4.6309 H   0  0  0  0  0  0  0  0  0  0  0  0
  5  6  2  0  0  0  0
  5  7  1  0  0  0  0
  2  3  1  0  0  0  0
  2  4  1  0  0  0  0
  2  5  1  0  0  0  0
  1  2  1  0  0  0  0
 22 23  2  0  0  0  0
 22 24  1  0  0  0  0
 19 20  1  0  0  0  0
 19 21  1  0  0  0  0
 17 18  2  0  0  0  0
 17 19  1  0  0  0  0
 14 15  1  0  0  0  0
 14 16  1  0  0  0  0
 14 17  1  0  0  0  0
 11 12  1  0  0  0  0
 11 13  1  0  0  0  0
 11 14  1  0  0  0  0
  9 10  1  0  0  0  0
  9 11  1  0  0  0  0
  9 22  1  0  0  0  0
  7  8  1  0  0  0  0
  7  9  1  0  0  0  0
 26 27  1  0  0  0  0
 26 28  1  0  0  0  0
 26 29  1  0  0  0  0
 24 25  1  0  0  0  0
 24 26  1  0  0  0  0
M  END
$$$$
default_name
  -OEChem-02102213163D

 29 28  0     1  0  0  0  0  0999 V2000
   -3.3998   -3.6239    1.3678 H   0  0  0  0  0  0  0  0  0  0  0  0
   -3.3608   -2.6749    0.8348 C   0  0  0  0  0  0  0  0  0  0  0  0
   -4.0988   -1.9909    1.2498 H   0  0  0  0  0  0  0  0  0  0  0  0
   -3.5618   -2.8419   -0.2222 H   0  0  0  0  0  0  0  0  0  0  0  0
   -1.9818   -2.0809    0.9918 C   0  0  0  0  0  0  0  0  0  0  0  0
   -1.1288   -2.6669    1.6468 O   0  0  0  0  0  0  0  0  0  0  0  0
   -1.7648   -0.9089    0.3998 N   0  0  0  0  0  0  0  0  0  0  0  0
   -2.5238   -0.4719   -0.1032 H   0  0  0  0  0  0  0  0  0  0  0  0
   -0.4848   -0.1959    0.4138 C   0  0  1  0  0  0  0  0  0  0  0  0
    0.2783   -0.8411   -0.0248 H   0  0  0  0  0  0  0  0  0  0  0  0
   -0.6101    1.0666   -0.4611 C   0  0  0  0  0  0  0  0  0  0  0  0
   -0.0922    0.8832   -1.4048 H   0  0  0  0  0  0  0  0  0  0  0  0
   -1.6640    1.2457   -0.6795 H   0  0  0  0  0  0  0  0  0  0  0  0
   -0.0137    2.3310    0.1816 C   0  0  0  0  0  0  0  0  0  0  0  0
    1.0505    2.1829    0.3640 H   0  0  0  0  0  0  0  0  0  0  0  0
   -0.1360    3.1683   -0.5053 H   0  0  0  0  0  0  0  0  0  0  0  0
   -0.6737    2.6988    1.5104 C   0  0  0  0  0  0  0  0  0  0  0  0
   -1.6247    2.0979    1.9741 O   0  0  0  0  0  0  0  0  0  0  0  0
   -0.1851    3.7116    2.1928 N   0  0  0  0  0  0  0  0  0  0  0  0
   -0.6564    3.9086    3.0586 H   0  0  0  0  0  0  0  0  0  0  0  0
    0.5969    4.2376    1.8589 H   0  0  0  0  0  0  0  0  0  0  0  0
   -0.0637    0.1284    1.8555 C   0  0  0  0  0  0  0  0  0  0  0  0
    1.0918   -0.0745    2.2236 O   0  0  0  0  0  0  0  0  0  0  0  0
   -1.0024    0.6217    2.6735 N   0  0  0  0  0  0  0  0  0  0  0  0
   -1.9213    0.7848    2.2938 H   0  0  0  0  0  0  0  0  0  0  0  0
   -0.7639    0.9676    4.0741 C   0  0  0  0  0  0  0  0  0  0  0  0
    0.0520    1.6916    4.1400 H   0  0  0  0  0  0  0  0  0  0  0  0
   -1.6626    1.3984    4.5182 H   0  0  0  0  0  0  0  0  0  0  0  0
   -0.4775    0.0737    4.6309 H   0  0  0  0  0  0  0  0  0  0  0  0
  5  6  2  0  0  0  0
  5  7  1  0  0  0  0
  2  3  1  0  0  0  0
  2  4  1  0  0  0  0
  2  5  1  0  0  0  0
  1  2  1  0  0  0  0
 22 23  2  0  0  0  0
 22 24  1  0  0  0  0
 19 20  1  0  0  0  0
 19 21  1  0  0  0  0
 17 18  2  0  0  0  0
 17 19  1  0  0  0  0
 14 15  1  0  0  0  0
 14 16  1  0  0  0  0
 14 17  1  0  0  0  0
 11 12  1  0  0  0  0
 11 13  1  0  0  0  0
 11 14  1  0  0  0  0
  9 10  1  0  0  0  0
  9 11  1  0  0  0  0
  9 22  1  0  0  0  0
  7  8  1  0  0  0  0
  7  9  1  0  0  0  0
 26 27  1  0  0  0  0
 26 28  1  0  0  0  0
 26 29  1  0  0  0  0
 24 25  1  0  0  0  0
 24 26  1  0  0  0  0
M  END
$$$$
default_name
  -OEChem-02102213163D

 29 28  0     1  0  0  0  0  0999 V2000
   -3.3998   -3.6239    1.3678 H   0  0  0  0  0  0  0  0  0  0  0  0
   -3.3608   -2.6749    0.8348 C   0  0  0  0  0  0  0  0  0  0  0  0
   -4.0988   -1.9909    1.2498 H   0  0  0  0  0  0  0  0  0  0  0  0
   -3.5618   -2.8419   -0.2222 H   0  0  0  0  0  0  0  0  0  0  0  0
   -1.9818   -2.0809    0.9918 C   0  0  0  0  0  0  0  0  0  0  0  0
   -1.1288   -2.6669    1.6468 O   0  0  0  0  0  0  0  0  0  0  0  0
   -1.7648   -0.9089    0.3998 N   0  0  0  0  0  0  0  0  0  0  0  0
   -2.5238   -0.4719   -0.1032 H   0  0  0  0  0  0  0  0  0  0  0  0
   -0.4848   -0.1959    0.4138 C   0  0  1  0  0  0  0  0  0  0  0  0
    0.2783   -0.8411   -0.0248 H   0  0  0  0  0  0  0  0  0  0  0  0
   -0.6101    1.0666   -0.4611 C   0  0  0  0  0  0  0  0  0  0  0  0
   -0.0922    0.8832   -1.4048 H   0  0  0  0  0  0  0  0  0  0  0  0
   -1.6640    1.2457   -0.6795 H   0  0  0  0  0  0  0  0  0  0  0  0
   -0.0137    2.3310    0.1816 C   0  0  0  0  0  0  0  0  0  0  0  0
    1.0739    2.2950    0.1218 H   0  0  0  0  0  0  0  0  0  0  0  0
   -0.3638    3.2054   -0.3668 H   0  0  0  0  0  0  0  0  0  0  0  0
   -0.4004    2.4984    1.6510 C   0  0  0  0  0  0  0  0  0  0  0  0
   -1.1643    1.7499    2.2313 O   0  0  0  0  0  0  0  0  0  0  0  0
    0.1245    3.4976    2.3264 N   0  0  0  0  0  0  0  0  0  0  0  0
   -0.1634    3.5596    3.2875 H   0  0  0  0  0  0  0  0  0  0  0  0
    0.7598    4.1405    1.8988 H   0  0  0  0  0  0  0  0  0  0  0  0
   -0.0637    0.1284    1.8555 C   0  0  0  0  0  0  0  0  0  0  0  0
    1.0918   -0.0745    2.2236 O   0  0  0  0  0  0  0  0  0  0  0  0
   -1.0024    0.6217    2.6735 N   0  0  0  0  0  0  0  0  0  0  0  0
   -1.9213    0.7848    2.2938 H   0  0  0  0  0  0  0  0  0  0  0  0
   -0.7639    0.9676    4.0741 C   0  0  0  0  0  0  0  0  0  0  0  0
    0.0520    1.6916    4.1400 H   0  0  0  0  0  0  0  0  0  0  0  0
   -1.6626    1.3984    4.5182 H   0  0  0  0  0  0  0  0  0  0  0  0
   -0.4775    0.0737    4.6309 H   0  0  0  0  0  0  0  0  0  0  0  0
  5  6  2  0  0  0  0
  5  7  1  0  0  0  0
  2  3  1  0  0  0  0
  2  4  1  0  0  0  0
  2  5  1  0  0  0  0
  1  2  1  0  0  0  0
 22 23  2  0  0  0  0
 22 24  1  0  0  0  0
 19 20  1  0  0  0  0
 19 21  1  0  0  0  0
 17 18  2  0  0  0  0
 17 19  1  0  0  0  0
 14 15  1  0  0  0  0
 14 16  1  0  0  0  0
 14 17  1  0  0  0  0
 11 12  1  0  0  0  0
 11 13  1  0  0  0  0
 11 14  1  0  0  0  0
  9 10  1  0  0  0  0
  9 11  1  0  0  0  0
  9 22  1  0  0  0  0
  7  8  1  0  0  0  0
  7  9  1  0  0  0  0
 26 27  1  0  0  0  0
 26 28  1  0  0  0  0
 26 29  1  0  0  0  0
 24 25  1  0  0  0  0
 24 26  1  0  0  0  0
M  END
$$$$
default_name
  -OEChem-02102213163D

 29 28  0     1  0  0  0  0  0999 V2000
   -3.3998   -3.6239    1.3678 H   0  0  0  0  0  0  0  0  0  0  0  0
   -3.3608   -2.6749    0.8348 C   0  0  0  0  0  0  0  0  0  0  0  0
   -4.0988   -1.9909    1.2498 H   0  0  0  0  0  0  0  0  0  0  0  0
   -3.5618   -2.8419   -0.2222 H   0  0  0  0  0  0  0  0  0  0  0  0
   -1.9818   -2.0809    0.9918 C   0  0  0  0  0  0  0  0  0  0  0  0
   -1.1288   -2.6669    1.6468 O   0  0  0  0  0  0  0  0  0  0  0  0
   -1.7648   -0.9089    0.3998 N   0  0  0  0  0  0  0  0  0  0  0  0
   -2.5238   -0.4719   -0.1032 H   0  0  0  0  0  0  0  0  0  0  0  0
   -0.4848   -0.1959    0.4138 C   0  0  1  0  0  0  0  0  0  0  0  0
    0.2783   -0.8411   -0.0248 H   0  0  0  0  0  0  0  0  0  0  0  0
   -0.6101    1.0666   -0.4611 C   0  0  0  0  0  0  0  0  0  0  0  0
   -0.0922    0.8832   -1.4048 H   0  0  0  0  0  0  0  0  0  0  0  0
   -1.6640    1.2457   -0.6795 H   0  0  0  0  0  0  0  0  0  0  0  0
   -0.0137    2.3310    0.1816 C   0  0  0  0  0  0  0  0  0  0  0  0
    1.0329    2.4301   -0.1058 H   0  0  0  0  0  0  0  0  0  0  0  0
   -0.5584    3.2027   -0.1809 H   0  0  0  0  0  0  0  0  0  0  0  0
   -0.0849    2.3203    1.7085 C   0  0  0  0  0  0  0  0  0  0  0  0
   -0.6273    1.4378    2.3469 O   0  0  0  0  0  0  0  0  0  0  0  0
    0.4750    3.3110    2.3682 N   0  0  0  0  0  0  0  0  0  0  0  0
    0.3991    3.2529    3.3688 H   0  0  0  0  0  0  0  0  0  0  0  0
    0.9361    4.0602    1.8930 H   0  0  0  0  0  0  0  0  0  0  0  0
   -0.0637    0.1284    1.8555 C   0  0  0  0  0  0  0  0  0  0  0  0
    1.0918   -0.0745    2.2236 O   0  0  0  0  0  0  0  0  0  0  0  0
   -1.0024    0.6217    2.6735 N   0  0  0  0  0  0  0  0  0  0  0  0
   -1.9213    0.7848    2.2938 H   0  0  0  0  0  0  0  0  0  0  0  0
   -0.7639    0.9676    4.0741 C   0  0  0  0  0  0  0  0  0  0  0  0
    0.0520    1.6916    4.1400 H   0  0  0  0  0  0  0  0  0  0  0  0
   -1.6626    1.3984    4.5182 H   0  0  0  0  0  0  0  0  0  0  0  0
   -0.4775    0.0737    4.6309 H   0  0  0  0  0  0  0  0  0  0  0  0
  5  6  2  0  0  0  0
  5  7  1  0  0  0  0
  2  3  1  0  0  0  0
  2  4  1  0  0  0  0
  2  5  1  0  0  0  0
  1  2  1  0  0  0  0
 22 23  2  0  0  0  0
 22 24  1  0  0  0  0
 19 20  1  0  0  0  0
 19 21  1  0  0  0  0
 17 18  2  0  0  0  0
 17 19  1  0  0  0  0
 14 15  1  0  0  0  0
 14 16  1  0  0  0  0
 14 17  1  0  0  0  0
 11 12  1  0  0  0  0
 11 13  1  0  0  0  0
 11 14  1  0  0  0  0
  9 10  1  0  0  0  0
  9 11  1  0  0  0  0
  9 22  1  0  0  0  0
  7  8  1  0  0  0  0
  7  9  1  0  0  0  0
 26 27  1  0  0  0  0
 26 28  1  0  0  0  0
 26 29  1  0  0  0  0
 24 25  1  0  0  0  0
 24 26  1  0  0  0  0
M  END
$$$$
default_name
  -OEChem-02102213163D

 29 28  0     1  0  0  0  0  0999 V2000
   -3.3998   -3.6239    1.3678 H   0  0  0  0  0  0  0  0  0  0  0  0
   -3.3608   -2.6749    0.8348 C   0  0  0  0  0  0  0  0  0  0  0  0
   -4.0988   -1.9909    1.2498 H   0  0  0  0  0  0  0  0  0  0  0  0
   -3.5618   -2.8419   -0.2222 H   0  0  0  0  0  0  0  0  0  0  0  0
   -1.9818   -2.0809    0.9918 C   0  0  0  0  0  0  0  0  0  0  0  0
   -1.1288   -2.6669    1.6468 O   0  0  0  0  0  0  0  0  0  0  0  0
   -1.7648   -0.9089    0.3998 N   0  0  0  0  0  0  0  0  0  0  0  0
   -2.5238   -0.4719   -0.1032 H   0  0  0  0  0  0  0  0  0  0  0  0
   -0.4848   -0.1959    0.4138 C   0  0  1  0  0  0  0  0  0  0  0  0
    0.2783   -0.8411   -0.0248 H   0  0  0  0  0  0  0  0  0  0  0  0
   -0.6101    1.0666   -0.4611 C   0  0  0  0  0  0  0  0  0  0  0  0
   -0.0922    0.8832   -1.4048 H   0  0  0  0  0  0  0  0  0  0  0  0
   -1.6640    1.2457   -0.6795 H   0  0  0  0  0  0  0  0  0  0  0  0
   -0.0137    2.3310    0.1816 C   0  0  0  0  0  0  0  0  0  0  0  0
    0.9302    2.5789   -0.3035 H   0  0  0  0  0  0  0  0  0  0  0  0
   -0.7065    3.1604    0.0398 H   0  0  0  0  0  0  0  0  0  0  0  0
    0.2514    2.1766    1.6791 C   0  0  0  0  0  0  0  0  0  0  0  0
   -0.0502    1.1827    2.3131 O   0  0  0  0  0  0  0  0  0  0  0  0
    0.8426    3.1645    2.3152 N   0  0  0  0  0  0  0  0  0  0  0  0
    0.9929    3.0093    3.2970 H   0  0  0  0  0  0  0  0  0  0  0  0
    1.1139    4.0024    1.8419 H   0  0  0  0  0  0  0  0  0  0  0  0
   -0.0637    0.1284    1.8555 C   0  0  0  0  0  0  0  0  0  0  0  0
    1.0918   -0.0745    2.2236 O   0  0  0  0  0  0  0  0  0  0  0  0
   -1.0024    0.6217    2.6735 N   0  0  0  0  0  0  0  0  0  0  0  0
   -1.9213    0.7848    2.2938 H   0  0  0  0  0  0  0  0  0  0  0  0
   -0.7639    0.9676    4.0741 C   0  0  0  0  0  0  0  0  0  0  0  0
    0.0520    1.6916    4.1400 H   0  0  0  0  0  0  0  0  0  0  0  0
   -1.6626    1.3984    4.5182 H   0  0  0  0  0  0  0  0  0  0  0  0
   -0.4775    0.0737    4.6309 H   0  0  0  0  0  0  0  0  0  0  0  0
  5  6  2  0  0  0  0
  5  7  1  0  0  0  0
  2  3  1  0  0  0  0
  2  4  1  0  0  0  0
  2  5  1  0  0  0  0
  1  2  1  0  0  0  0
 22 23  2  0  0  0  0
 22 24  1  0  0  0  0
 19 20  1  0  0  0  0
 19 21  1  0  0  0  0
 17 18  2  0  0  0  0
 17 19  1  0  0  0  0
 14 15  1  0  0  0  0
 14 16  1  0  0  0  0
 14 17  1  0  0  0  0
 11 12  1  0  0  0  0
 11 13  1  0  0  0  0
 11 14  1  0  0  0  0
  9 10  1  0  0  0  0
  9 11  1  0  0  0  0
  9 22  1  0  0  0  0
  7  8  1  0  0  0  0
  7  9  1  0  0  0  0
 26 27  1  0  0  0  0
 26 28  1  0  0  0  0
 26 29  1  0  0  0  0
 24 25  1  0  0  0  0
 24 26  1  0  0  0  0
M  END
$$$$
default_name
  -OEChem-02102213163D

 29 28  0     1  0  0  0  0  0999 V2000
   -3.3998   -3.6239    1.3678 H   0  0  0  0  0  0  0  0  0  0  0  0
   -3.3608   -2.6749    0.8348 C   0  0  0  0  0  0  0  0  0  0  0  0
   -4.0988   -1.9909    1.2498 H   0  0  0  0  0  0  0  0  0  0  0  0
   -3.5618   -2.8419   -0.2222 H   0  0  0  0  0  0  0  0  0  0  0  0
   -1.9818   -2.0809    0.9918 C   0  0  0  0  0  0  0  0  0  0  0  0
   -1.1288   -2.6669    1.6468 O   0  0  0  0  0  0  0  0  0  0  0  0
   -1.7648   -0.9089    0.3998 N   0  0  0  0  0  0  0  0  0  0  0  0
   -2.5238   -0.4719   -0.1032 H   0  0  0  0  0  0  0  0  0  0  0  0
   -0.4848   -0.1959    0.4138 C   0  0  1  0  0  0  0  0  0  0  0  0
    0.2783   -0.8411   -0.0248 H   0  0  0  0  0  0  0  0  0  0  0  0
   -0.6101    1.0666   -0.4611 C   0  0  0  0  0  0  0  0  0  0  0  0
   -0.0922    0.8832   -1.4048 H   0  0  0  0  0  0  0  0  0  0  0  0
   -1.6640    1.2457   -0.6795 H   0  0  0  0  0  0  0  0  0  0  0  0
   -0.0137    2.3310    0.1816 C   0  0  0  0  0  0  0  0  0  0  0  0
    0.7729    2.7315   -0.4576 H   0  0  0  0  0  0  0  0  0  0  0  0
   -0.7980    3.0813    0.2802 H   0  0  0  0  0  0  0  0  0  0  0  0
    0.5855    2.0771    1.5648 C   0  0  0  0  0  0  0  0  0  0  0  0
    0.5276    1.0022    2.1320 O   0  0  0  0  0  0  0  0  0  0  0  0
    1.2023    3.0680    2.1712 N   0  0  0  0  0  0  0  0  0  0  0  0
    1.5776    2.8454    3.0768 H   0  0  0  0  0  0  0  0  0  0  0  0
    1.2809    3.9709    1.7489 H   0  0  0  0  0  0  0  0  0  0  0  0
   -0.0637    0.1284    1.8555 C   0  0  0  0  0  0  0  0  0  0  0  0
    1.0918   -0.0745    2.2236 O   0  0  0  0  0  0  0  0  0  0  0  0
   -1.0024    0.6217    2.6735 N   0  0  0  0  0  0  0  0  0  0  0  0
   -1.9213    0.7848    2.2938 H   0  0  0  0  0  0  0  0  0  0  0  0
   -0.7639    0.9676    4.0741 C   0  0  0  0  0  0  0  0  0  0  0  0
    0.0520    1.6916    4.1400 H   0  0  0  0  0  0  0  0  0  0  0  0
   -1.6626    1.3984    4.5182 H   0  0  0  0  0  0  0  0  0  0  0  0
   -0.4775    0.0737    4.6309 H   0  0  0  0  0  0  0  0  0  0  0  0
  5  6  2  0  0  0  0
  5  7  1  0  0  0  0
  2  3  1  0  0  0  0
  2  4  1  0  0  0  0
  2  5  1  0  0  0  0
  1  2  1  0  0  0  0
 22 23  2  0  0  0  0
 22 24  1  0  0  0  0
 19 20  1  0  0  0  0
 19 21  1  0  0  0  0
 17 18  2  0  0  0  0
 17 19  1  0  0  0  0
 14 15  1  0  0  0  0
 14 16  1  0  0  0  0
 14 17  1  0  0  0  0
 11 12  1  0  0  0  0
 11 13  1  0  0  0  0
 11 14  1  0  0  0  0
  9 10  1  0  0  0  0
  9 11  1  0  0  0  0
  9 22  1  0  0  0  0
  7  8  1  0  0  0  0
  7  9  1  0  0  0  0
 26 27  1  0  0  0  0
 26 28  1  0  0  0  0
 26 29  1  0  0  0  0
 24 25  1  0  0  0  0
 24 26  1  0  0  0  0
M  END
$$$$
default_name
  -OEChem-02102213163D

 29 28  0     1  0  0  0  0  0999 V2000
   -3.3998   -3.6239    1.3678 H   0  0  0  0  0  0  0  0  0  0  0  0
   -3.3608   -2.6749    0.8348 C   0  0  0  0  0  0  0  0  0  0  0  0
   -4.0988   -1.9909    1.2498 H   0  0  0  0  0  0  0  0  0  0  0  0
   -3.5618   -2.8419   -0.2222 H   0  0  0  0  0  0  0  0  0  0  0  0
   -1.9818   -2.0809    0.9918 C   0  0  0  0  0  0  0  0  0  0  0  0
   -1.1288   -2.6669    1.6468 O   0  0  0  0  0  0  0  0  0  0  0  0
   -1.7648   -0.9089    0.3998 N   0  0  0  0  0  0  0  0  0  0  0  0
   -2.5238   -0.4719   -0.1032 H   0  0  0  0  0  0  0  0  0  0  0  0
   -0.4848   -0.1959    0.4138 C   0  0  1  0  0  0  0  0  0  0  0  0
    0.2783   -0.8411   -0.0248 H   0  0  0  0  0  0  0  0  0  0  0  0
   -0.6101    1.0666   -0.4611 C   0  0  0  0  0  0  0  0  0  0  0  0
   -0.0922    0.8832   -1.4048 H   0  0  0  0  0  0  0  0  0  0  0  0
   -1.6640    1.2457   -0.6795 H   0  0  0  0  0  0  0  0  0  0  0  0
   -0.0137    2.3310    0.1816 C   0  0  0  0  0  0  0  0  0  0  0  0
    0.5717    2.8773   -0.5577 H   0  0  0  0  0  0  0  0  0  0  0  0
   -0.8267    2.9710    0.5240 H   0  0  0  0  0  0  0  0  0  0  0  0
    0.8946    2.0285    1.3733 C   0  0  0  0  0  0  0  0  0  0  0  0
    1.0668    0.9084    1.8161 O   0  0  0  0  0  0  0  0  0  0  0  0
    1.5296    3.0281    1.9459 N   0  0  0  0  0  0  0  0  0  0  0  0
    2.1132    2.7723    2.7233 H   0  0  0  0  0  0  0  0  0  0  0  0
    1.4259    3.9678    1.6203 H   0  0  0  0  0  0  0  0  0  0  0  0
   -0.0637    0.1284    1.8555 C   0  0  0  0  0  0  0  0  0  0  0  0
    1.0918   -0.0745    2.2236 O   0  0  0  0  0  0  0  0  0  0  0  0
   -1.0024    0.6217    2.6735 N   0  0  0  0  0  0  0  0  0  0  0  0
   -1.9213    0.7848    2.2938 H   0  0  0  0  0  0  0  0  0  0  0  0
   -0.7639    0.9676    4.0741 C   0  0  0  0  0  0  0  0  0  0  0  0
    0.0520    1.6916    4.1400 H   0  0  0  0  0  0  0  0  0  0  0  0
   -1.6626    1.3984    4.5182 H   0  0  0  0  0  0  0  0  0  0  0  0
   -0.4775    0.0737    4.6309 H   0  0  0  0  0  0  0  0  0  0  0  0
  5  6  2  0  0  0  0
  5  7  1  0  0  0  0
  2  3  1  0  0  0  0
  2  4  1  0  0  0  0
  2  5  1  0  0  0  0
  1  2  1  0  0  0  0
 22 23  2  0  0  0  0
 22 24  1  0  0  0  0
 19 20  1  0  0  0  0
 19 21  1  0  0  0  0
 17 18  2  0  0  0  0
 17 19  1  0  0  0  0
 14 15  1  0  0  0  0
 14 16  1  0  0  0  0
 14 17  1  0  0  0  0
 11 12  1  0  0  0  0
 11 13  1  0  0  0  0
 11 14  1  0  0  0  0
  9 10  1  0  0  0  0
  9 11  1  0  0  0  0
  9 22  1  0  0  0  0
  7  8  1  0  0  0  0
  7  9  1  0  0  0  0
 26 27  1  0  0  0  0
 26 28  1  0  0  0  0
 26 29  1  0  0  0  0
 24 25  1  0  0  0  0
 24 26  1  0  0  0  0
M  END
$$$$
default_name
  -OEChem-02102213163D

 29 28  0     1  0  0  0  0  0999 V2000
   -3.3998   -3.6239    1.3678 H   0  0  0  0  0  0  0  0  0  0  0  0
   -3.3608   -2.6749    0.8348 C   0  0  0  0  0  0  0  0  0  0  0  0
   -4.0988   -1.9909    1.2498 H   0  0  0  0  0  0  0  0  0  0  0  0
   -3.5618   -2.8419   -0.2222 H   0  0  0  0  0  0  0  0  0  0  0  0
   -1.9818   -2.0809    0.9918 C   0  0  0  0  0  0  0  0  0  0  0  0
   -1.1288   -2.6669    1.6468 O   0  0  0  0  0  0  0  0  0  0  0  0
   -1.7648   -0.9089    0.3998 N   0  0  0  0  0  0  0  0  0  0  0  0
   -2.5238   -0.4719   -0.1032 H   0  0  0  0  0  0  0  0  0  0  0  0
   -0.4848   -0.1959    0.4138 C   0  0  1  0  0  0  0  0  0  0  0  0
    0.2783   -0.8411   -0.0248 H   0  0  0  0  0  0  0  0  0  0  0  0
   -0.6101    1.0666   -0.4611 C   0  0  0  0  0  0  0  0  0  0  0  0
   -0.0922    0.8832   -1.4048 H   0  0  0  0  0  0  0  0  0  0  0  0
   -1.6640    1.2457   -0.6795 H   0  0  0  0  0  0  0  0  0  0  0  0
   -0.0137    2.3310    0.1816 C   0  0  0  0  0  0  0  0  0  0  0  0
    0.3404    3.0064   -0.5969 H   0  0  0  0  0  0  0  0  0  0  0  0
   -0.7907    2.8368    0.7545 H   0  0  0  0  0  0  0  0  0  0  0  0
    1.1578    2.0343    1.1177 C   0  0  0  0  0  0  0  0  0  0  0  0
    1.5305    0.9077    1.3870 O   0  0  0  0  0  0  0  0  0  0  0  0
    1.8021    3.0476    1.6547 N   0  0  0  0  0  0  0  0  0  0  0  0
    2.5633    2.7952    2.2607 H   0  0  0  0  0  0  0  0  0  0  0  0
    1.5390    3.9934    1.4650 H   0  0  0  0  0  0  0  0  0  0  0  0
   -0.0637    0.1284    1.8555 C   0  0  0  0  0  0  0  0  0  0  0  0
    1.0918   -0.0745    2.2236 O   0  0  0  0  0  0  0  0  0  0  0  0
   -1.0024    0.6217    2.6735 N   0  0  0  0  0  0  0  0  0  0  0  0
   -1.9213    0.7848    2.2938 H   0  0  0  0  0  0  0  0  0  0  0  0
   -0.7639    0.9676    4.0741 C   0  0  0  0  0  0  0  0  0  0  0  0
    0.0520    1.6916    4.1400 H   0  0  0  0  0  0  0  0  0  0  0  0
   -1.6626    1.3984    4.5182 H   0  0  0  0  0  0  0  0  0  0  0  0
   -0.4775    0.0737    4.6309 H   0  0  0  0  0  0  0  0  0  0  0  0
  5  6  2  0  0  0  0
  5  7  1  0  0  0  0
  2  3  1  0  0  0  0
  2  4  1  0  0  0  0
  2  5  1  0  0  0  0
  1  2  1  0  0  0  0
 22 23  2  0  0  0  0
 22 24  1  0  0  0  0
 19 20  1  0  0  0  0
 19 21  1  0  0  0  0
 17 18  2  0  0  0  0
 17 19  1  0  0  0  0
 14 15  1  0  0  0  0
 14 16  1  0  0  0  0
 14 17  1  0  0  0  0
 11 12  1  0  0  0  0
 11 13  1  0  0  0  0
 11 14  1  0  0  0  0
  9 10  1  0  0  0  0
  9 11  1  0  0  0  0
  9 22  1  0  0  0  0
  7  8  1  0  0  0  0
  7  9  1  0  0  0  0
 26 27  1  0  0  0  0
 26 28  1  0  0  0  0
 26 29  1  0  0  0  0
 24 25  1  0  0  0  0
 24 26  1  0  0  0  0
M  END
$$$$
default_name
  -OEChem-02102213163D

 29 28  0     1  0  0  0  0  0999 V2000
   -3.3998   -3.6239    1.3678 H   0  0  0  0  0  0  0  0  0  0  0  0
   -3.3608   -2.6749    0.8348 C   0  0  0  0  0  0  0  0  0  0  0  0
   -4.0988   -1.9909    1.2498 H   0  0  0  0  0  0  0  0  0  0  0  0
   -3.5618   -2.8419   -0.2222 H   0  0  0  0  0  0  0  0  0  0  0  0
   -1.9818   -2.0809    0.9918 C   0  0  0  0  0  0  0  0  0  0  0  0
   -1.1288   -2.6669    1.6468 O   0  0  0  0  0  0  0  0  0  0  0  0
   -1.7648   -0.9089    0.3998 N   0  0  0  0  0  0  0  0  0  0  0  0
   -2.5238   -0.4719   -0.1032 H   0  0  0  0  0  0  0  0  0  0  0  0
   -0.4848   -0.1959    0.4138 C   0  0  1  0  0  0  0  0  0  0  0  0
    0.2783   -0.8411   -0.0248 H   0  0  0  0  0  0  0  0  0  0  0  0
   -0.6101    1.0666   -0.4611 C   0  0  0  0  0  0  0  0  0  0  0  0
   -0.0922    0.8832   -1.4048 H   0  0  0  0  0  0  0  0  0  0  0  0
   -1.6640    1.2457   -0.6795 H   0  0  0  0  0  0  0  0  0  0  0  0
   -0.0137    2.3310    0.1816 C   0  0  0  0  0  0  0  0  0  0  0  0
    0.0945    3.1101   -0.5727 H   0  0  0  0  0  0  0  0  0  0  0  0
   -0.6924    2.6880    0.9561 H   0  0  0  0  0  0  0  0  0  0  0  0
    1.3570    2.0940    0.8155 C   0  0  0  0  0  0  0  0  0  0  0  0
    1.8872    1.0003    0.8737 O   0  0  0  0  0  0  0  0  0  0  0  0
    2.0012    3.1251    1.3174 N   0  0  0  0  0  0  0  0  0  0  0  0
    2.8972    2.9123    1.7204 H   0  0  0  0  0  0  0  0  0  0  0  0
    1.6124    4.0460    1.2935 H   0  0  0  0  0  0  0  0  0  0  0  0
   -0.0637    0.1284    1.8555 C   0  0  0  0  0  0  0  0  0  0  0  0
    1.0918   -0.0745    2.2236 O   0  0  0  0  0  0  0  0  0  0  0  0
   -1.0024    0.6217    2.6735 N   0  0  0  0  0  0  0  0  0  0  0  0
   -1.9213    0.7848    2.2938 H   0  0  0  0  0  0  0  0  0  0  0  0
   -0.7639    0.9676    4.0741 C   0  0  0  0  0  0  0  0  0  0  0  0
    0.0520    1.6916    4.1400 H   0  0  0  0  0  0  0  0  0  0  0  0
   -1.6626    1.3984    4.5182 H   0  0  0  0  0  0  0  0  0  0  0  0
   -0.4775    0.0737    4.6309 H   0  0  0  0  0  0  0  0  0  0  0  0
  5  6  2  0  0  0  0
  5  7  1  0  0  0  0
  2  3  1  0  0  0  0
  2  4  1  0  0  0  0
  2  5  1  0  0  0  0
  1  2  1  0  0  0  0
 22 23  2  0  0  0  0
 22 24  1  0  0  0  0
 19 20  1  0  0  0  0
 19 21  1  0  0  0  0
 17 18  2  0  0  0  0
 17 19  1  0  0  0  0
 14 15  1  0  0  0  0
 14 16  1  0  0  0  0
 14 17  1  0  0  0  0
 11 12  1  0  0  0  0
 11 13  1  0  0  0  0
 11 14  1  0  0  0  0
  9 10  1  0  0  0  0
  9 11  1  0  0  0  0
  9 22  1  0  0  0  0
  7  8  1  0  0  0  0
  7  9  1  0  0  0  0
 26 27  1  0  0  0  0
 26 28  1  0  0  0  0
 26 29  1  0  0  0  0
 24 25  1  0  0  0  0
 24 26  1  0  0  0  0
M  END
$$$$
default_name
  -OEChem-02102213163D

 29 28  0     1  0  0  0  0  0999 V2000
   -3.3998   -3.6239    1.3678 H   0  0  0  0  0  0  0  0  0  0  0  0
   -3.3608   -2.6749    0.8348 C   0  0  0  0  0  0  0  0  0  0  0  0
   -4.0988   -1.9909    1.2498 H   0  0  0  0  0  0  0  0  0  0  0  0
   -3.5618   -2.8419   -0.2222 H   0  0  0  0  0  0  0  0  0  0  0  0
   -1.9818   -2.0809    0.9918 C   0  0  0  0  0  0  0  0  0  0  0  0
   -1.1288   -2.6669    1.6468 O   0  0  0  0  0  0  0  0  0  0  0  0
   -1.7648   -0.9089    0.3998 N   0  0  0  0  0  0  0  0  0  0  0  0
   -2.5238   -0.4719   -0.1032 H   0  0  0  0  0  0  0  0  0  0  0  0
   -0.4848   -0.1959    0.4138 C   0  0  1  0  0  0  0  0  0  0  0  0
    0.2783   -0.8411   -0.0248 H   0  0  0  0  0  0  0  0  0  0  0  0
   -0.6101    1.0666   -0.4611 C   0  0  0  0  0  0  0  0  0  0  0  0
   -0.0922    0.8832   -1.4048 H   0  0  0  0  0  0  0  0  0  0  0  0
   -1.6640    1.2457   -0.6795 H   0  0  0  0  0  0  0  0  0  0  0  0
   -0.0137    2.3310    0.1816 C   0  0  0  0  0  0  0  0  0  0  0  0
   -0.1489    3.1812   -0.4866 H   0  0  0  0  0  0  0  0  0  0  0  0
   -0.5385    2.5346    1.1149 H   0  0  0  0  0  0  0  0  0  0  0  0
    1.4787    2.2035    0.4872 C   0  0  0  0  0  0  0  0  0  0  0  0
    2.1126    1.1798    0.3114 O   0  0  0  0  0  0  0  0  0  0  0  0
    2.1135    3.2553    0.9570 N   0  0  0  0  0  0  0  0  0  0  0  0
    3.0921    3.1157    1.1392 H   0  0  0  0  0  0  0  0  0  0  0  0
    1.6411    4.1219    1.1175 H   0  0  0  0  0  0  0  0  0  0  0  0
   -0.0637    0.1284    1.8555 C   0  0  0  0  0  0  0  0  0  0  0  0
    1.0918   -0.0745    2.2236 O   0  0  0  0  0  0  0  0  0  0  0  0
   -1.0024    0.6217    2.6735 N   0  0  0  0  0  0  0  0  0  0  0  0
   -1.9213    0.7848    2.2938 H   0  0  0  0  0  0  0  0  0  0  0  0
   -0.7639    0.9676    4.0741 C   0  0  0  0  0  0  0  0  0  0  0  0
    0.0520    1.6916    4.1400 H   0  0  0  0  0  0  0  0  0  0  0  0
   -1.6626    1.3984    4.5182 H   0  0  0  0  0  0  0  0  0  0  0  0
   -0.4775    0.0737    4.6309 H   0  0  0  0  0  0  0  0  0  0  0  0
  5  6  2  0  0  0  0
  5  7  1  0  0  0  0
  2  3  1  0  0  0  0
  2  4  1  0  0  0  0
  2  5  1  0  0  0  0
  1  2  1  0  0  0  0
 22 23  2  0  0  0  0
 22 24  1  0  0  0  0
 19 20  1  0  0  0  0
 19 21  1  0  0  0  0
 17 18  2  0  0  0  0
 17 19  1  0  0  0  0
 14 15  1  0  0  0  0
 14 16  1  0  0  0  0
 14 17  1  0  0  0  0
 11 12  1  0  0  0  0
 11 13  1  0  0  0  0
 11 14  1  0  0  0  0
  9 10  1  0  0  0  0
  9 11  1  0  0  0  0
  9 22  1  0  0  0  0
  7  8  1  0  0  0  0
  7  9  1  0  0  0  0
 26 27  1  0  0  0  0
 26 28  1  0  0  0  0
 26 29  1  0  0  0  0
 24 25  1  0  0  0  0
 24 26  1  0  0  0  0
M  END
$$$$
default_name
  -OEChem-02102213163D

 29 28  0     1  0  0  0  0  0999 V2000
   -3.3998   -3.6239    1.3678 H   0  0  0  0  0  0  0  0  0  0  0  0
   -3.3608   -2.6749    0.8348 C   0  0  0  0  0  0  0  0  0  0  0  0
   -4.0988   -1.9909    1.2498 H   0  0  0  0  0  0  0  0  0  0  0  0
   -3.5618   -2.8419   -0.2222 H   0  0  0  0  0  0  0  0  0  0  0  0
   -1.9818   -2.0809    0.9918 C   0  0  0  0  0  0  0  0  0  0  0  0
   -1.1288   -2.6669    1.6468 O   0  0  0  0  0  0  0  0  0  0  0  0
   -1.7648   -0.9089    0.3998 N   0  0  0  0  0  0  0  0  0  0  0  0
   -2.5238   -0.4719   -0.1032 H   0  0  0  0  0  0  0  0  0  0  0  0
   -0.4848   -0.1959    0.4138 C   0  0  1  0  0  0  0  0  0  0  0  0
    0.2783   -0.8411   -0.0248 H   0  0  0  0  0  0  0  0  0  0  0  0
   -0.6101    1.0666   -0.4611 C   0  0  0  0  0  0  0  0  0  0  0  0
   -0.0922    0.8832   -1.4048 H   0  0  0  0  0  0  0  0  0  0  0  0
   -1.6640    1.2457   -0.6795 H   0  0  0  0  0  0  0  0  0  0  0  0
   -0.0137    2.3310    0.1816 C   0  0  0  0  0  0  0  0  0  0  0  0
   -0.3735    3.2149   -0.3445 H   0  0  0  0  0  0  0  0  0  0  0  0
   -0.3395    2.3872    1.2202 H   0  0  0  0  0  0  0  0  0  0  0  0
    1.5145    2.3553    0.1551 C   0  0  0  0  0  0  0  0  0  0  0  0
    2.1913    1.4340   -0.2617 O   0  0  0  0  0  0  0  0  0  0  0  0
    2.1312    3.4294    0.5981 N   0  0  0  0  0  0  0  0  0  0  0  0
    3.1348    3.3917    0.5568 H   0  0  0  0  0  0  0  0  0  0  0  0
    1.6233    4.2159    0.9490 H   0  0  0  0  0  0  0  0  0  0  0  0
   -0.0637    0.1284    1.8555 C   0  0  0  0  0  0  0  0  0  0  0  0
    1.0918   -0.0745    2.2236 O   0  0  0  0  0  0  0  0  0  0  0  0
   -1.0024    0.6217    2.6735 N   0  0  0  0  0  0  0  0  0  0  0  0
   -1.9213    0.7848    2.2938 H   0  0  0  0  0  0  0  0  0  0  0  0
   -0.7639    0.9676    4.0741 C   0  0  0  0  0  0  0  0  0  0  0  0
    0.0520    1.6916    4.1400 H   0  0  0  0  0  0  0  0  0  0  0  0
   -1.6626    1.3984    4.5182 H   0  0  0  0  0  0  0  0  0  0  0  0
   -0.4775    0.0737    4.6309 H   0  0  0  0  0  0  0  0  0  0  0  0
  5  6  2  0  0  0  0
  5  7  1  0  0  0  0
  2  3  1  0  0  0  0
  2  4  1  0  0  0  0
  2  5  1  0  0  0  0
  1  2  1  0  0  0  0
 22 23  2  0  0  0  0
 22 24  1  0  0  0  0
 19 20  1  0  0  0  0
 19 21  1  0  0  0  0
 17 18  2  0  0  0  0
 17 19  1  0  0  0  0
 14 15  1  0  0  0  0
 14 16  1  0  0  0  0
 14 17  1  0  0  0  0
 11 12  1  0  0  0  0
 11 13  1  0  0  0  0
 11 14  1  0  0  0  0
  9 10  1  0  0  0  0
  9 11  1  0  0  0  0
  9 22  1  0  0  0  0
  7  8  1  0  0  0  0
  7  9  1  0  0  0  0
 26 27  1  0  0  0  0
 26 28  1  0  0  0  0
 26 29  1  0  0  0  0
 24 25  1  0  0  0  0
 24 26  1  0  0  0  0
M  END
$$$$
default_name
  -OEChem-02102213163D

 29 28  0     1  0  0  0  0  0999 V2000
   -3.3998   -3.6239    1.3678 H   0  0  0  0  0  0  0  0  0  0  0  0
   -3.3608   -2.6749    0.8348 C   0  0  0  0  0  0  0  0  0  0  0  0
   -4.0988   -1.9909    1.2498 H   0  0  0  0  0  0  0  0  0  0  0  0
   -3.5618   -2.8419   -0.2222 H   0  0  0  0  0  0  0  0  0  0  0  0
   -1.9818   -2.0809    0.9918 C   0  0  0  0  0  0  0  0  0  0  0  0
   -1.1288   -2.6669    1.6468 O   0  0  0  0  0  0  0  0  0  0  0  0
   -1.7648   -0.9089    0.3998 N   0  0  0  0  0  0  0  0  0  0  0  0
   -2.5238   -0.4719   -0.1032 H   0  0  0  0  0  0  0  0  0  0  0  0
   -0.4848   -0.1959    0.4138 C   0  0  1  0  0  0  0  0  0  0  0  0
    0.2783   -0.8411   -0.0248 H   0  0  0  0  0  0  0  0  0  0  0  0
   -0.6101    1.0666   -0.4611 C   0  0  0  0  0  0  0  0  0  0  0  0
   -0.0922    0.8832   -1.4048 H   0  0  0  0  0  0  0  0  0  0  0  0
   -1.6640    1.2457   -0.6795 H   0  0  0  0  0  0  0  0  0  0  0  0
   -0.0137    2.3310    0.1816 C   0  0  0  0  0  0  0  0  0  0  0  0
   -0.5639    3.2089   -0.1562 H   0  0  0  0  0  0  0  0  0  0  0  0
   -0.1089    2.2558    1.2648 H   0  0  0  0  0  0  0  0  0  0  0  0
    1.4621    2.5392   -0.1580 C   0  0  0  0  0  0  0  0  0  0  0  0
    2.1180    1.7456   -0.8065 O   0  0  0  0  0  0  0  0  0  0  0  0
    2.0531    3.6355    0.2651 N   0  0  0  0  0  0  0  0  0  0  0  0
    3.0224    3.7212    0.0128 H   0  0  0  0  0  0  0  0  0  0  0  0
    1.5600    4.3218    0.7995 H   0  0  0  0  0  0  0  0  0  0  0  0
   -0.0637    0.1284    1.8555 C   0  0  0  0  0  0  0  0  0  0  0  0
    1.0918   -0.0745    2.2236 O   0  0  0  0  0  0  0  0  0  0  0  0
   -1.0024    0.6217    2.6735 N   0  0  0  0  0  0  0  0  0  0  0  0
   -1.9213    0.7848    2.2938 H   0  0  0  0  0  0  0  0  0  0  0  0
   -0.7639    0.9676    4.0741 C   0  0  0  0  0  0  0  0  0  0  0  0
    0.0520    1.6916    4.1400 H   0  0  0  0  0  0  0  0  0  0  0  0
   -1.6626    1.3984    4.5182 H   0  0  0  0  0  0  0  0  0  0  0  0
   -0.4775    0.0737    4.6309 H   0  0  0  0  0  0  0  0  0  0  0  0
  5  6  2  0  0  0  0
  5  7  1  0  0  0  0
  2  3  1  0  0  0  0
  2  4  1  0  0  0  0
  2  5  1  0  0  0  0
  1  2  1  0  0  0  0
 22 23  2  0  0  0  0
 22 24  1  0  0  0  0
 19 20  1  0  0  0  0
 19 21  1  0  0  0  0
 17 18  2  0  0  0  0
 17 19  1  0  0  0  0
 14 15  1  0  0  0  0
 14 16  1  0  0  0  0
 14 17  1  0  0  0  0
 11 12  1  0  0  0  0
 11 13  1  0  0  0  0
 11 14  1  0  0  0  0
  9 10  1  0  0  0  0
  9 11  1  0  0  0  0
  9 22  1  0  0  0  0
  7  8  1  0  0  0  0
  7  9  1  0  0  0  0
 26 27  1  0  0  0  0
 26 28  1  0  0  0  0
 26 29  1  0  0  0  0
 24 25  1  0  0  0  0
 24 26  1  0  0  0  0
M  END
$$$$
default_name
  -OEChem-02102213163D

 29 28  0     1  0  0  0  0  0999 V2000
   -3.3998   -3.6239    1.3678 H   0  0  0  0  0  0  0  0  0  0  0  0
   -3.3608   -2.6749    0.8348 C   0  0  0  0  0  0  0  0  0  0  0  0
   -4.0988   -1.9909    1.2498 H   0  0  0  0  0  0  0  0  0  0  0  0
   -3.5618   -2.8419   -0.2222 H   0  0  0  0  0  0  0  0  0  0  0  0
   -1.9818   -2.0809    0.9918 C   0  0  0  0  0  0  0  0  0  0  0  0
   -1.1288   -2.6669    1.6468 O   0  0  0  0  0  0  0  0  0  0  0  0
   -1.7648   -0.9089    0.3998 N   0  0  0  0  0  0  0  0  0  0  0  0
   -2.5238   -0.4719   -0.1032 H   0  0  0  0  0  0  0  0  0  0  0  0
   -0.4848   -0.1959    0.4138 C   0  0  1  0  0  0  0  0  0  0  0  0
    0.2783   -0.8411   -0.0248 H   0  0  0  0  0  0  0  0  0  0  0  0
   -0.6101    1.0666   -0.4611 C   0  0  0  0  0  0  0  0  0  0  0  0
   -0.0922    0.8832   -1.4048 H   0  0  0  0  0  0  0  0  0  0  0  0
   -1.6640    1.2457   -0.6795 H   0  0  0  0  0  0  0  0  0  0  0  0
   -0.0137    2.3310    0.1816 C   0  0  0  0  0  0  0  0  0  0  0  0
   -0.7070    3.1637    0.0657 H   0  0  0  0  0  0  0  0  0  0  0  0
    0.1375    2.1493    1.2456 H   0  0  0  0  0  0  0  0  0  0  0  0
    1.3251    2.7426   -0.4308 C   0  0  0  0  0  0  0  0  0  0  0  0
    1.8976    2.0932   -1.2859 O   0  0  0  0  0  0  0  0  0  0  0  0
    1.8847    3.8595   -0.0192 N   0  0  0  0  0  0  0  0  0  0  0  0
    2.7625    4.0820   -0.4556 H   0  0  0  0  0  0  0  0  0  0  0  0
    1.4556    4.4322    0.6792 H   0  0  0  0  0  0  0  0  0  0  0  0
   -0.0637    0.1284    1.8555 C   0  0  0  0  0  0  0  0  0  0  0  0
    1.0918   -0.0745    2.2236 O   0  0  0  0  0  0  0  0  0  0  0  0
   -1.0024    0.6217    2.6735 N   0  0  0  0  0  0  0  0  0  0  0  0
   -1.9213    0.7848    2.2938 H   0  0  0  0  0  0  0  0  0  0  0  0
   -0.7639    0.9676    4.0741 C   0  0  0  0  0  0  0  0  0  0  0  0
    0.0520    1.6916    4.1400 H   0  0  0  0  0  0  0  0  0  0  0  0
   -1.6626    1.3984    4.5182 H   0  0  0  0  0  0  0  0  0  0  0  0
   -0.4775    0.0737    4.6309 H   0  0  0  0  0  0  0  0  0  0  0  0
  5  6  2  0  0  0  0
  5  7  1  0  0  0  0
  2  3  1  0  0  0  0
  2  4  1  0  0  0  0
  2  5  1  0  0  0  0
  1  2  1  0  0  0  0
 22 23  2  0  0  0  0
 22 24  1  0  0  0  0
 19 20  1  0  0  0  0
 19 21  1  0  0  0  0
 17 18  2  0  0  0  0
 17 19  1  0  0  0  0
 14 15  1  0  0  0  0
 14 16  1  0  0  0  0
 14 17  1  0  0  0  0
 11 12  1  0  0  0  0
 11 13  1  0  0  0  0
 11 14  1  0  0  0  0
  9 10  1  0  0  0  0
  9 11  1  0  0  0  0
  9 22  1  0  0  0  0
  7  8  1  0  0  0  0
  7  9  1  0  0  0  0
 26 27  1  0  0  0  0
 26 28  1  0  0  0  0
 26 29  1  0  0  0  0
 24 25  1  0  0  0  0
 24 26  1  0  0  0  0
M  END
$$$$
default_name
  -OEChem-02102213163D

 29 28  0     1  0  0  0  0  0999 V2000
   -3.3998   -3.6239    1.3678 H   0  0  0  0  0  0  0  0  0  0  0  0
   -3.3608   -2.6749    0.8348 C   0  0  0  0  0  0  0  0  0  0  0  0
   -4.0988   -1.9909    1.2498 H   0  0  0  0  0  0  0  0  0  0  0  0
   -3.5618   -2.8419   -0.2222 H   0  0  0  0  0  0  0  0  0  0  0  0
   -1.9818   -2.0809    0.9918 C   0  0  0  0  0  0  0  0  0  0  0  0
   -1.1288   -2.6669    1.6468 O   0  0  0  0  0  0  0  0  0  0  0  0
   -1.7648   -0.9089    0.3998 N   0  0  0  0  0  0  0  0  0  0  0  0
   -2.5238   -0.4719   -0.1032 H   0  0  0  0  0  0  0  0  0  0  0  0
   -0.4848   -0.1959    0.4138 C   0  0  1  0  0  0  0  0  0  0  0  0
    0.2783   -0.8411   -0.0248 H   0  0  0  0  0  0  0  0  0  0  0  0
   -0.6101    1.0666   -0.4611 C   0  0  0  0  0  0  0  0  0  0  0  0
   -0.0922    0.8832   -1.4048 H   0  0  0  0  0  0  0  0  0  0  0  0
   -1.6640    1.2457   -0.6795 H   0  0  0  0  0  0  0  0  0  0  0  0
   -0.0137    2.3310    0.1816 C   0  0  0  0  0  0  0  0  0  0  0  0
   -0.7932    3.0823    0.3059 H   0  0  0  0  0  0  0  0  0  0  0  0
    0.3830    2.0749    1.1640 H   0  0  0  0  0  0  0  0  0  0  0  0
    1.1127    2.9515   -0.6448 C   0  0  0  0  0  0  0  0  0  0  0  0
    1.5452    2.4533   -1.6672 O   0  0  0  0  0  0  0  0  0  0  0  0
    1.6372    4.0863   -0.2356 N   0  0  0  0  0  0  0  0  0  0  0  0
    2.3728    4.4493   -0.8166 H   0  0  0  0  0  0  0  0  0  0  0  0
    1.3173    4.5396    0.5962 H   0  0  0  0  0  0  0  0  0  0  0  0
   -0.0637    0.1284    1.8555 C   0  0  0  0  0  0  0  0  0  0  0  0
    1.0918   -0.0745    2.2236 O   0  0  0  0  0  0  0  0  0  0  0  0
   -1.0024    0.6217    2.6735 N   0  0  0  0  0  0  0  0  0  0  0  0
   -1.9213    0.7848    2.2938 H   0  0  0  0  0  0  0  0  0  0  0  0
   -0.7639    0.9676    4.0741 C   0  0  0  0  0  0  0  0  0  0  0  0
    0.0520    1.6916    4.1400 H   0  0  0  0  0  0  0  0  0  0  0  0
   -1.6626    1.3984    4.5182 H   0  0  0  0  0  0  0  0  0  0  0  0
   -0.4775    0.0737    4.6309 H   0  0  0  0  0  0  0  0  0  0  0  0
  5  6  2  0  0  0  0
  5  7  1  0  0  0  0
  2  3  1  0  0  0  0
  2  4  1  0  0  0  0
  2  5  1  0  0  0  0
  1  2  1  0  0  0  0
 22 23  2  0  0  0  0
 22 24  1  0  0  0  0
 19 20  1  0  0  0  0
 19 21  1  0  0  0  0
 17 18  2  0  0  0  0
 17 19  1  0  0  0  0
 14 15  1  0  0  0  0
 14 16  1  0  0  0  0
 14 17  1  0  0  0  0
 11 12  1  0  0  0  0
 11 13  1  0  0  0  0
 11 14  1  0  0  0  0
  9 10  1  0  0  0  0
  9 11  1  0  0  0  0
  9 22  1  0  0  0  0
  7  8  1  0  0  0  0
  7  9  1  0  0  0  0
 26 27  1  0  0  0  0
 26 28  1  0  0  0  0
 26 29  1  0  0  0  0
 24 25  1  0  0  0  0
 24 26  1  0  0  0  0
M  END
$$$$
default_name
  -OEChem-02102213163D

 29 28  0     1  0  0  0  0  0999 V2000
   -3.3998   -3.6239    1.3678 H   0  0  0  0  0  0  0  0  0  0  0  0
   -3.3608   -2.6749    0.8348 C   0  0  0  0  0  0  0  0  0  0  0  0
   -4.0988   -1.9909    1.2498 H   0  0  0  0  0  0  0  0  0  0  0  0
   -3.5618   -2.8419   -0.2222 H   0  0  0  0  0  0  0  0  0  0  0  0
   -1.9818   -2.0809    0.9918 C   0  0  0  0  0  0  0  0  0  0  0  0
   -1.1288   -2.6669    1.6468 O   0  0  0  0  0  0  0  0  0  0  0  0
   -1.7648   -0.9089    0.3998 N   0  0  0  0  0  0  0  0  0  0  0  0
   -2.5238   -0.4719   -0.1032 H   0  0  0  0  0  0  0  0  0  0  0  0
   -0.4848   -0.1959    0.4138 C   0  0  1  0  0  0  0  0  0  0  0  0
    0.2783   -0.8411   -0.0248 H   0  0  0  0  0  0  0  0  0  0  0  0
   -0.6101    1.0666   -0.4611 C   0  0  0  0  0  0  0  0  0  0  0  0
   -0.0922    0.8832   -1.4048 H   0  0  0  0  0  0  0  0  0  0  0  0
   -1.6640    1.2457   -0.6795 H   0  0  0  0  0  0  0  0  0  0  0  0
   -0.0137    2.3310    0.1816 C   0  0  0  0  0  0  0  0  0  0  0  0
   -0.8166    2.9702    0.5480 H   0  0  0  0  0  0  0  0  0  0  0  0
    0.6108    2.0379    1.0255 H   0  0  0  0  0  0  0  0  0  0  0  0
    0.8394    3.1519   -0.7854 C   0  0  0  0  0  0  0  0  0  0  0  0
    1.0848    2.8013   -1.9244 O   0  0  0  0  0  0  0  0  0  0  0  0
    1.3277    4.3002   -0.3692 N   0  0  0  0  0  0  0  0  0  0  0  0
    1.8798    4.7983   -1.0456 H   0  0  0  0  0  0  0  0  0  0  0  0
    1.1544    4.6368    0.5563 H   0  0  0  0  0  0  0  0  0  0  0  0
   -0.0637    0.1284    1.8555 C   0  0  0  0  0  0  0  0  0  0  0  0
    1.0918   -0.0745    2.2236 O   0  0  0  0  0  0  0  0  0  0  0  0
   -1.0024    0.6217    2.6735 N   0  0  0  0  0  0  0  0  0  0  0  0
   -1.9213    0.7848    2.2938 H   0  0  0  0  0  0  0  0  0  0  0  0
   -0.7639    0.9676    4.0741 C   0  0  0  0  0  0  0  0  0  0  0  0
    0.0520    1.6916    4.1400 H   0  0  0  0  0  0  0  0  0  0  0  0
   -1.6626    1.3984    4.5182 H   0  0  0  0  0  0  0  0  0  0  0  0
   -0.4775    0.0737    4.6309 H   0  0  0  0  0  0  0  0  0  0  0  0
  5  6  2  0  0  0  0
  5  7  1  0  0  0  0
  2  3  1  0  0  0  0
  2  4  1  0  0  0  0
  2  5  1  0  0  0  0
  1  2  1  0  0  0  0
 22 23  2  0  0  0  0
 22 24  1  0  0  0  0
 19 20  1  0  0  0  0
 19 21  1  0  0  0  0
 17 18  2  0  0  0  0
 17 19  1  0  0  0  0
 14 15  1  0  0  0  0
 14 16  1  0  0  0  0
 14 17  1  0  0  0  0
 11 12  1  0  0  0  0
 11 13  1  0  0  0  0
 11 14  1  0  0  0  0
  9 10  1  0  0  0  0
  9 11  1  0  0  0  0
  9 22  1  0  0  0  0
  7  8  1  0  0  0  0
  7  9  1  0  0  0  0
 26 27  1  0  0  0  0
 26 28  1  0  0  0  0
 26 29  1  0  0  0  0
 24 25  1  0  0  0  0
 24 26  1  0  0  0  0
M  END
$$$$
default_name
  -OEChem-02102213163D

 29 28  0     1  0  0  0  0  0999 V2000
   -3.3998   -3.6239    1.3678 H   0  0  0  0  0  0  0  0  0  0  0  0
   -3.3608   -2.6749    0.8348 C   0  0  0  0  0  0  0  0  0  0  0  0
   -4.0988   -1.9909    1.2498 H   0  0  0  0  0  0  0  0  0  0  0  0
   -3.5618   -2.8419   -0.2222 H   0  0  0  0  0  0  0  0  0  0  0  0
   -1.9818   -2.0809    0.9918 C   0  0  0  0  0  0  0  0  0  0  0  0
   -1.1288   -2.6669    1.6468 O   0  0  0  0  0  0  0  0  0  0  0  0
   -1.7648   -0.9089    0.3998 N   0  0  0  0  0  0  0  0  0  0  0  0
   -2.5238   -0.4719   -0.1032 H   0  0  0  0  0  0  0  0  0  0  0  0
   -0.4848   -0.1959    0.4138 C   0  0  1  0  0  0  0  0  0  0  0  0
    0.2783   -0.8411   -0.0248 H   0  0  0  0  0  0  0  0  0  0  0  0
   -0.6101    1.0666   -0.4611 C   0  0  0  0  0  0  0  0  0  0  0  0
   -0.0922    0.8832   -1.4048 H   0  0  0  0  0  0  0  0  0  0  0  0
   -1.6640    1.2457   -0.6795 H   0  0  0  0  0  0  0  0  0  0  0  0
   -0.0137    2.3310    0.1816 C   0  0  0  0  0  0  0  0  0  0  0  0
   -0.7756    2.8351    0.7757 H   0  0  0  0  0  0  0  0  0  0  0  0
    0.8053    2.0406    0.8396 H   0  0  0  0  0  0  0  0  0  0  0  0
    0.5239    3.3300   -0.8429 C   0  0  0  0  0  0  0  0  0  0  0  0
    0.5477    3.1134   -2.0400 O   0  0  0  0  0  0  0  0  0  0  0  0
    0.9772    4.4868   -0.4109 N   0  0  0  0  0  0  0  0  0  0  0  0
    1.3173    5.1050   -1.1269 H   0  0  0  0  0  0  0  0  0  0  0  0
    0.9781    4.7170    0.5621 H   0  0  0  0  0  0  0  0  0  0  0  0
   -0.0637    0.1284    1.8555 C   0  0  0  0  0  0  0  0  0  0  0  0
    1.0918   -0.0745    2.2236 O   0  0  0  0  0  0  0  0  0  0  0  0
   -1.0024    0.6217    2.6735 N   0  0  0  0  0  0  0  0  0  0  0  0
   -1.9213    0.7848    2.2938 H   0  0  0  0  0  0  0  0  0  0  0  0
   -0.7639    0.9676    4.0741 C   0  0  0  0  0  0  0  0  0  0  0  0
    0.0520    1.6916    4.1400 H   0  0  0  0  0  0  0  0  0  0  0  0
   -1.6626    1.3984    4.5182 H   0  0  0  0  0  0  0  0  0  0  0  0
   -0.4775    0.0737    4.6309 H   0  0  0  0  0  0  0  0  0  0  0  0
  5  6  2  0  0  0  0
  5  7  1  0  0  0  0
  2  3  1  0  0  0  0
  2  4  1  0  0  0  0
  2  5  1  0  0  0  0
  1  2  1  0  0  0  0
 22 23  2  0  0  0  0
 22 24  1  0  0  0  0
 19 20  1  0  0  0  0
 19 21  1  0  0  0  0
 17 18  2  0  0  0  0
 17 19  1  0  0  0  0
 14 15  1  0  0  0  0
 14 16  1  0  0  0  0
 14 17  1  0  0  0  0
 11 12  1  0  0  0  0
 11 13  1  0  0  0  0
 11 14  1  0  0  0  0
  9 10  1  0  0  0  0
  9 11  1  0  0  0  0
  9 22  1  0  0  0  0
  7  8  1  0  0  0  0
  7  9  1  0  0  0  0
 26 27  1  0  0  0  0
 26 28  1  0  0  0  0
 26 29  1  0  0  0  0
 24 25  1  0  0  0  0
 24 26  1  0  0  0  0
M  END
$$$$
default_name
  -OEChem-02102213163D

 29 28  0     1  0  0  0  0  0999 V2000
   -3.3998   -3.6239    1.3678 H   0  0  0  0  0  0  0  0  0  0  0  0
   -3.3608   -2.6749    0.8348 C   0  0  0  0  0  0  0  0  0  0  0  0
   -4.0988   -1.9909    1.2498 H   0  0  0  0  0  0  0  0  0  0  0  0
   -3.5618   -2.8419   -0.2222 H   0  0  0  0  0  0  0  0  0  0  0  0
   -1.9818   -2.0809    0.9918 C   0  0  0  0  0  0  0  0  0  0  0  0
   -1.1288   -2.6669    1.6468 O   0  0  0  0  0  0  0  0  0  0  0  0
   -1.7648   -0.9089    0.3998 N   0  0  0  0  0  0  0  0  0  0  0  0
   -2.5238   -0.4719   -0.1032 H   0  0  0  0  0  0  0  0  0  0  0  0
   -0.4848   -0.1959    0.4138 C   0  0  1  0  0  0  0  0  0  0  0  0
    0.2783   -0.8411   -0.0248 H   0  0  0  0  0  0  0  0  0  0  0  0
   -0.6101    1.0666   -0.4611 C   0  0  0  0  0  0  0  0  0  0  0  0
   -0.0922    0.8832   -1.4048 H   0  0  0  0  0  0  0  0  0  0  0  0
   -1.6640    1.2457   -0.6795 H   0  0  0  0  0  0  0  0  0  0  0  0
   -0.0137    2.3310    0.1816 C   0  0  0  0  0  0  0  0  0  0  0  0
   -0.6729    2.6863    0.9733 H   0  0  0  0  0  0  0  0  0  0  0  0
    0.9534    2.0829    0.6189 H   0  0  0  0  0  0  0  0  0  0  0  0
    0.1876    3.4737   -0.8135 C   0  0  0  0  0  0  0  0  0  0  0  0
   -0.0294    3.3685   -2.0062 O   0  0  0  0  0  0  0  0  0  0  0  0
    0.6095    4.6333   -0.3580 N   0  0  0  0  0  0  0  0  0  0  0  0
    0.7235    5.3486   -1.0550 H   0  0  0  0  0  0  0  0  0  0  0  0
    0.8004    4.7749    0.6132 H   0  0  0  0  0  0  0  0  0  0  0  0
   -0.0637    0.1284    1.8555 C   0  0  0  0  0  0  0  0  0  0  0  0
    1.0918   -0.0745    2.2236 O   0  0  0  0  0  0  0  0  0  0  0  0
   -1.0024    0.6217    2.6735 N   0  0  0  0  0  0  0  0  0  0  0  0
   -1.9213    0.7848    2.2938 H   0  0  0  0  0  0  0  0  0  0  0  0
   -0.7639    0.9676    4.0741 C   0  0  0  0  0  0  0  0  0  0  0  0
    0.0520    1.6916    4.1400 H   0  0  0  0  0  0  0  0  0  0  0  0
   -1.6626    1.3984    4.5182 H   0  0  0  0  0  0  0  0  0  0  0  0
   -0.4775    0.0737    4.6309 H   0  0  0  0  0  0  0  0  0  0  0  0
  5  6  2  0  0  0  0
  5  7  1  0  0  0  0
  2  3  1  0  0  0  0
  2  4  1  0  0  0  0
  2  5  1  0  0  0  0
  1  2  1  0  0  0  0
 22 23  2  0  0  0  0
 22 24  1  0  0  0  0
 19 20  1  0  0  0  0
 19 21  1  0  0  0  0
 17 18  2  0  0  0  0
 17 19  1  0  0  0  0
 14 15  1  0  0  0  0
 14 16  1  0  0  0  0
 14 17  1  0  0  0  0
 11 12  1  0  0  0  0
 11 13  1  0  0  0  0
 11 14  1  0  0  0  0
  9 10  1  0  0  0  0
  9 11  1  0  0  0  0
  9 22  1  0  0  0  0
  7  8  1  0  0  0  0
  7  9  1  0  0  0  0
 26 27  1  0  0  0  0
 26 28  1  0  0  0  0
 26 29  1  0  0  0  0
 24 25  1  0  0  0  0
 24 26  1  0  0  0  0
M  END
$$$$
default_name
  -OEChem-02102213163D

 29 28  0     1  0  0  0  0  0999 V2000
   -3.3998   -3.6239    1.3678 H   0  0  0  0  0  0  0  0  0  0  0  0
   -3.3608   -2.6749    0.8348 C   0  0  0  0  0  0  0  0  0  0  0  0
   -4.0988   -1.9909    1.2498 H   0  0  0  0  0  0  0  0  0  0  0  0
   -3.5618   -2.8419   -0.2222 H   0  0  0  0  0  0  0  0  0  0  0  0
   -1.9818   -2.0809    0.9918 C   0  0  0  0  0  0  0  0  0  0  0  0
   -1.1288   -2.6669    1.6468 O   0  0  0  0  0  0  0  0  0  0  0  0
   -1.7648   -0.9089    0.3998 N   0  0  0  0  0  0  0  0  0  0  0  0
   -2.5238   -0.4719   -0.1032 H   0  0  0  0  0  0  0  0  0  0  0  0
   -0.4848   -0.1959    0.4138 C   0  0  1  0  0  0  0  0  0  0  0  0
    0.2783   -0.8411   -0.0248 H   0  0  0  0  0  0  0  0  0  0  0  0
   -0.6101    1.0666   -0.4611 C   0  0  0  0  0  0  0  0  0  0  0  0
   -0.3379    0.8031   -1.4853 H   0  0  0  0  0  0  0  0  0  0  0  0
   -1.6491    1.3998   -0.4593 H   0  0  0  0  0  0  0  0  0  0  0  0
    0.2863    2.2311   -0.0054 C   0  0  0  0  0  0  0  0  0  0  0  0
    0.0327    2.5115    1.0167 H   0  0  0  0  0  0  0  0  0  0  0  0
    1.3267    1.9071   -0.0297 H   0  0  0  0  0  0  0  0  0  0  0  0
    0.1495    3.4747   -0.8838 C   0  0  0  0  0  0  0  0  0  0  0  0
   -0.5395    3.5137   -1.8859 O   0  0  0  0  0  0  0  0  0  0  0  0
    0.8034    4.5618   -0.5358 N   0  0  0  0  0  0  0  0  0  0  0  0
    0.6767    5.3490   -1.1479 H   0  0  0  0  0  0  0  0  0  0  0  0
    1.3815    4.5850    0.2796 H   0  0  0  0  0  0  0  0  0  0  0  0
   -0.0637    0.1284    1.8555 C   0  0  0  0  0  0  0  0  0  0  0  0
    1.0918   -0.0745    2.2236 O   0  0  0  0  0  0  0  0  0  0  0  0
   -1.0024    0.6217    2.6735 N   0  0  0  0  0  0  0  0  0  0  0  0
   -1.9213    0.7848    2.2938 H   0  0  0  0  0  0  0  0  0  0  0  0
   -0.7639    0.9676    4.0741 C   0  0  0  0  0  0  0  0  0  0  0  0
    0.0520    1.6916    4.1400 H   0  0  0  0  0  0  0  0  0  0  0  0
   -1.6626    1.3984    4.5182 H   0  0  0  0  0  0  0  0  0  0  0  0
   -0.4775    0.0737    4.6309 H   0  0  0  0  0  0  0  0  0  0  0  0
  5  6  2  0  0  0  0
  5  7  1  0  0  0  0
  2  3  1  0  0  0  0
  2  4  1  0  0  0  0
  2  5  1  0  0  0  0
  1  2  1  0  0  0  0
 22 23  2  0  0  0  0
 22 24  1  0  0  0  0
 19 20  1  0  0  0  0
 19 21  1  0  0  0  0
 17 18  2  0  0  0  0
 17 19  1  0  0  0  0
 14 15  1  0  0  0  0
 14 16  1  0  0  0  0
 14 17  1  0  0  0  0
 11 12  1  0  0  0  0
 11 13  1  0  0  0  0
 11 14  1  0  0  0  0
  9 10  1  0  0  0  0
  9 11  1  0  0  0  0
  9 22  1  0  0  0  0
  7  8  1  0  0  0  0
  7  9  1  0  0  0  0
 26 27  1  0  0  0  0
 26 28  1  0  0  0  0
 26 29  1  0  0  0  0
 24 25  1  0  0  0  0
 24 26  1  0  0  0  0
M  END
$$$$
default_name
  -OEChem-02102213163D

 29 28  0     1  0  0  0  0  0999 V2000
   -3.3998   -3.6239    1.3678 H   0  0  0  0  0  0  0  0  0  0  0  0
   -3.3608   -2.6749    0.8348 C   0  0  0  0  0  0  0  0  0  0  0  0
   -4.0988   -1.9909    1.2498 H   0  0  0  0  0  0  0  0  0  0  0  0
   -3.5618   -2.8419   -0.2222 H   0  0  0  0  0  0  0  0  0  0  0  0
   -1.9818   -2.0809    0.9918 C   0  0  0  0  0  0  0  0  0  0  0  0
   -1.1288   -2.6669    1.6468 O   0  0  0  0  0  0  0  0  0  0  0  0
   -1.7648   -0.9089    0.3998 N   0  0  0  0  0  0  0  0  0  0  0  0
   -2.5238   -0.4719   -0.1032 H   0  0  0  0  0  0  0  0  0  0  0  0
   -0.4848   -0.1959    0.4138 C   0  0  1  0  0  0  0  0  0  0  0  0
    0.2783   -0.8411   -0.0248 H   0  0  0  0  0  0  0  0  0  0  0  0
   -0.6101    1.0666   -0.4611 C   0  0  0  0  0  0  0  0  0  0  0  0
   -0.3379    0.8031   -1.4853 H   0  0  0  0  0  0  0  0  0  0  0  0
   -1.6491    1.3998   -0.4593 H   0  0  0  0  0  0  0  0  0  0  0  0
    0.2863    2.2311   -0.0054 C   0  0  0  0  0  0  0  0  0  0  0  0
    0.2274    2.3378    1.0775 H   0  0  0  0  0  0  0  0  0  0  0  0
    1.3184    2.0107   -0.2779 H   0  0  0  0  0  0  0  0  0  0  0  0
   -0.1012    3.5698   -0.6334 C   0  0  0  0  0  0  0  0  0  0  0  0
   -0.9794    3.6885   -1.4673 O   0  0  0  0  0  0  0  0  0  0  0  0
    0.5411    4.6512   -0.2484 N   0  0  0  0  0  0  0  0  0  0  0  0
    0.2453    5.5030   -0.6926 H   0  0  0  0  0  0  0  0  0  0  0  0
    1.2693    4.6104    0.4356 H   0  0  0  0  0  0  0  0  0  0  0  0
   -0.0637    0.1284    1.8555 C   0  0  0  0  0  0  0  0  0  0  0  0
    1.0918   -0.0745    2.2236 O   0  0  0  0  0  0  0  0  0  0  0  0
   -1.0024    0.6217    2.6735 N   0  0  0  0  0  0  0  0  0  0  0  0
   -1.9213    0.7848    2.2938 H   0  0  0  0  0  0  0  0  0  0  0  0
   -0.7639    0.9676    4.0741 C   0  0  0  0  0  0  0  0  0  0  0  0
    0.0520    1.6916    4.1400 H   0  0  0  0  0  0  0  0  0  0  0  0
   -1.6626    1.3984    4.5182 H   0  0  0  0  0  0  0  0  0  0  0  0
   -0.4775    0.0737    4.6309 H   0  0  0  0  0  0  0  0  0  0  0  0
  5  6  2  0  0  0  0
  5  7  1  0  0  0  0
  2  3  1  0  0  0  0
  2  4  1  0  0  0  0
  2  5  1  0  0  0  0
  1  2  1  0  0  0  0
 22 23  2  0  0  0  0
 22 24  1  0  0  0  0
 19 20  1  0  0  0  0
 19 21  1  0  0  0  0
 17 18  2  0  0  0  0
 17 19  1  0  0  0  0
 14 15  1  0  0  0  0
 14 16  1  0  0  0  0
 14 17  1  0  0  0  0
 11 12  1  0  0  0  0
 11 13  1  0  0  0  0
 11 14  1  0  0  0  0
  9 10  1  0  0  0  0
  9 11  1  0  0  0  0
  9 22  1  0  0  0  0
  7  8  1  0  0  0  0
  7  9  1  0  0  0  0
 26 27  1  0  0  0  0
 26 28  1  0  0  0  0
 26 29  1  0  0  0  0
 24 25  1  0  0  0  0
 24 26  1  0  0  0  0
M  END
$$$$
default_name
  -OEChem-02102213163D

 29 28  0     1  0  0  0  0  0999 V2000
   -3.3998   -3.6239    1.3678 H   0  0  0  0  0  0  0  0  0  0  0  0
   -3.3608   -2.6749    0.8348 C   0  0  0  0  0  0  0  0  0  0  0  0
   -4.0988   -1.9909    1.2498 H   0  0  0  0  0  0  0  0  0  0  0  0
   -3.5618   -2.8419   -0.2222 H   0  0  0  0  0  0  0  0  0  0  0  0
   -1.9818   -2.0809    0.9918 C   0  0  0  0  0  0  0  0  0  0  0  0
   -1.1288   -2.6669    1.6468 O   0  0  0  0  0  0  0  0  0  0  0  0
   -1.7648   -0.9089    0.3998 N   0  0  0  0  0  0  0  0  0  0  0  0
   -2.5238   -0.4719   -0.1032 H   0  0  0  0  0  0  0  0  0  0  0  0
   -0.4848   -0.1959    0.4138 C   0  0  1  0  0  0  0  0  0  0  0  0
    0.2783   -0.8411   -0.0248 H   0  0  0  0  0  0  0  0  0  0  0  0
   -0.6101    1.0666   -0.4611 C   0  0  0  0  0  0  0  0  0  0  0  0
   -0.3379    0.8031   -1.4853 H   0  0  0  0  0  0  0  0  0  0  0  0
   -1.6491    1.3998   -0.4593 H   0  0  0  0  0  0  0  0  0  0  0  0
    0.2863    2.2311   -0.0054 C   0  0  0  0  0  0  0  0  0  0  0  0
    0.4406    2.1758    1.0719 H   0  0  0  0  0  0  0  0  0  0  0  0
    1.2538    2.1475   -0.5005 H   0  0  0  0  0  0  0  0  0  0  0  0
   -0.3017    3.6047   -0.3282 C   0  0  0  0  0  0  0  0  0  0  0  0
   -1.3357    3.7605   -0.9504 O   0  0  0  0  0  0  0  0  0  0  0  0
    0.3373    4.6741    0.0942 N   0  0  0  0  0  0  0  0  0  0  0  0
   -0.0940    5.5500   -0.1451 H   0  0  0  0  0  0  0  0  0  0  0  0
    1.1896    4.6027    0.6120 H   0  0  0  0  0  0  0  0  0  0  0  0
   -0.0637    0.1284    1.8555 C   0  0  0  0  0  0  0  0  0  0  0  0
    1.0918   -0.0745    2.2236 O   0  0  0  0  0  0  0  0  0  0  0  0
   -1.0024    0.6217    2.6735 N   0  0  0  0  0  0  0  0  0  0  0  0
   -1.9213    0.7848    2.2938 H   0  0  0  0  0  0  0  0  0  0  0  0
   -0.7639    0.9676    4.0741 C   0  0  0  0  0  0  0  0  0  0  0  0
    0.0520    1.6916    4.1400 H   0  0  0  0  0  0  0  0  0  0  0  0
   -1.6626    1.3984    4.5182 H   0  0  0  0  0  0  0  0  0  0  0  0
   -0.4775    0.0737    4.6309 H   0  0  0  0  0  0  0  0  0  0  0  0
  5  6  2  0  0  0  0
  5  7  1  0  0  0  0
  2  3  1  0  0  0  0
  2  4  1  0  0  0  0
  2  5  1  0  0  0  0
  1  2  1  0  0  0  0
 22 23  2  0  0  0  0
 22 24  1  0  0  0  0
 19 20  1  0  0  0  0
 19 21  1  0  0  0  0
 17 18  2  0  0  0  0
 17 19  1  0  0  0  0
 14 15  1  0  0  0  0
 14 16  1  0  0  0  0
 14 17  1  0  0  0  0
 11 12  1  0  0  0  0
 11 13  1  0  0  0  0
 11 14  1  0  0  0  0
  9 10  1  0  0  0  0
  9 11  1  0  0  0  0
  9 22  1  0  0  0  0
  7  8  1  0  0  0  0
  7  9  1  0  0  0  0
 26 27  1  0  0  0  0
 26 28  1  0  0  0  0
 26 29  1  0  0  0  0
 24 25  1  0  0  0  0
 24 26  1  0  0  0  0
M  END
$$$$
default_name
  -OEChem-02102213163D

 29 28  0     1  0  0  0  0  0999 V2000
   -3.3998   -3.6239    1.3678 H   0  0  0  0  0  0  0  0  0  0  0  0
   -3.3608   -2.6749    0.8348 C   0  0  0  0  0  0  0  0  0  0  0  0
   -4.0988   -1.9909    1.2498 H   0  0  0  0  0  0  0  0  0  0  0  0
   -3.5618   -2.8419   -0.2222 H   0  0  0  0  0  0  0  0  0  0  0  0
   -1.9818   -2.0809    0.9918 C   0  0  0  0  0  0  0  0  0  0  0  0
   -1.1288   -2.6669    1.6468 O   0  0  0  0  0  0  0  0  0  0  0  0
   -1.7648   -0.9089    0.3998 N   0  0  0  0  0  0  0  0  0  0  0  0
   -2.5238   -0.4719   -0.1032 H   0  0  0  0  0  0  0  0  0  0  0  0
   -0.4848   -0.1959    0.4138 C   0  0  1  0  0  0  0  0  0  0  0  0
    0.2783   -0.8411   -0.0248 H   0  0  0  0  0  0  0  0  0  0  0  0
   -0.6101    1.0666   -0.4611 C   0  0  0  0  0  0  0  0  0  0  0  0
   -0.3379    0.8031   -1.4853 H   0  0  0  0  0  0  0  0  0  0  0  0
   -1.6491    1.3998   -0.4593 H   0  0  0  0  0  0  0  0  0  0  0  0
    0.2863    2.2311   -0.0054 C   0  0  0  0  0  0  0  0  0  0  0  0
    0.6580    2.0365    1.0004 H   0  0  0  0  0  0  0  0  0  0  0  0
    1.1373    2.3083   -0.6822 H   0  0  0  0  0  0  0  0  0  0  0  0
   -0.4382    3.5770    0.0112 C   0  0  0  0  0  0  0  0  0  0  0  0
   -1.5841    3.7249   -0.3706 O   0  0  0  0  0  0  0  0  0  0  0  0
    0.2057    4.6289    0.4685 N   0  0  0  0  0  0  0  0  0  0  0  0
   -0.3182    5.4868    0.4574 H   0  0  0  0  0  0  0  0  0  0  0  0
    1.1477    4.5626    0.7970 H   0  0  0  0  0  0  0  0  0  0  0  0
   -0.0637    0.1284    1.8555 C   0  0  0  0  0  0  0  0  0  0  0  0
    1.0918   -0.0745    2.2236 O   0  0  0  0  0  0  0  0  0  0  0  0
   -1.0024    0.6217    2.6735 N   0  0  0  0  0  0  0  0  0  0  0  0
   -1.9213    0.7848    2.2938 H   0  0  0  0  0  0  0  0  0  0  0  0
   -0.7639    0.9676    4.0741 C   0  0  0  0  0  0  0  0  0  0  0  0
    0.0520    1.6916    4.1400 H   0  0  0  0  0  0  0  0  0  0  0  0
   -1.6626    1.3984    4.5182 H   0  0  0  0  0  0  0  0  0  0  0  0
   -0.4775    0.0737    4.6309 H   0  0  0  0  0  0  0  0  0  0  0  0
  5  6  2  0  0  0  0
  5  7  1  0  0  0  0
  2  3  1  0  0  0  0
  2  4  1  0  0  0  0
  2  5  1  0  0  0  0
  1  2  1  0  0  0  0
 22 23  2  0  0  0  0
 22 24  1  0  0  0  0
 19 20  1  0  0  0  0
 19 21  1  0  0  0  0
 17 18  2  0  0  0  0
 17 19  1  0  0  0  0
 14 15  1  0  0  0  0
 14 16  1  0  0  0  0
 14 17  1  0  0  0  0
 11 12  1  0  0  0  0
 11 13  1  0  0  0  0
 11 14  1  0  0  0  0
  9 10  1  0  0  0  0
  9 11  1  0  0  0  0
  9 22  1  0  0  0  0
  7  8  1  0  0  0  0
  7  9  1  0  0  0  0
 26 27  1  0  0  0  0
 26 28  1  0  0  0  0
 26 29  1  0  0  0  0
 24 25  1  0  0  0  0
 24 26  1  0  0  0  0
M  END
$$$$
default_name
  -OEChem-02102213163D

 29 28  0     1  0  0  0  0  0999 V2000
   -3.3998   -3.6239    1.3678 H   0  0  0  0  0  0  0  0  0  0  0  0
   -3.3608   -2.6749    0.8348 C   0  0  0  0  0  0  0  0  0  0  0  0
   -4.0988   -1.9909    1.2498 H   0  0  0  0  0  0  0  0  0  0  0  0
   -3.5618   -2.8419   -0.2222 H   0  0  0  0  0  0  0  0  0  0  0  0
   -1.9818   -2.0809    0.9918 C   0  0  0  0  0  0  0  0  0  0  0  0
   -1.1288   -2.6669    1.6468 O   0  0  0  0  0  0  0  0  0  0  0  0
   -1.7648   -0.9089    0.3998 N   0  0  0  0  0  0  0  0  0  0  0  0
   -2.5238   -0.4719   -0.1032 H   0  0  0  0  0  0  0  0  0  0  0  0
   -0.4848   -0.1959    0.4138 C   0  0  1  0  0  0  0  0  0  0  0  0
    0.2783   -0.8411   -0.0248 H   0  0  0  0  0  0  0  0  0  0  0  0
   -0.6101    1.0666   -0.4611 C   0  0  0  0  0  0  0  0  0  0  0  0
   -0.3379    0.8031   -1.4853 H   0  0  0  0  0  0  0  0  0  0  0  0
   -1.6491    1.3998   -0.4593 H   0  0  0  0  0  0  0  0  0  0  0  0
    0.2863    2.2311   -0.0054 C   0  0  0  0  0  0  0  0  0  0  0  0
    0.8645    1.9294    0.8676 H   0  0  0  0  0  0  0  0  0  0  0  0
    0.9768    2.4820   -0.8106 H   0  0  0  0  0  0  0  0  0  0  0  0
   -0.5015    3.4886    0.3616 C   0  0  0  0  0  0  0  0  0  0  0  0
   -1.7077    3.5839    0.2328 O   0  0  0  0  0  0  0  0  0  0  0  0
    0.1554    4.5188    0.8490 N   0  0  0  0  0  0  0  0  0  0  0  0
   -0.4118    5.3177    1.0737 H   0  0  0  0  0  0  0  0  0  0  0  0
    1.1465    4.4928    0.9777 H   0  0  0  0  0  0  0  0  0  0  0  0
   -0.0637    0.1284    1.8555 C   0  0  0  0  0  0  0  0  0  0  0  0
    1.0918   -0.0745    2.2236 O   0  0  0  0  0  0  0  0  0  0  0  0
   -1.0024    0.6217    2.6735 N   0  0  0  0  0  0  0  0  0  0  0  0
   -1.9213    0.7848    2.2938 H   0  0  0  0  0  0  0  0  0  0  0  0
   -0.7639    0.9676    4.0741 C   0  0  0  0  0  0  0  0  0  0  0  0
    0.0520    1.6916    4.1400 H   0  0  0  0  0  0  0  0  0  0  0  0
   -1.6626    1.3984    4.5182 H   0  0  0  0  0  0  0  0  0  0  0  0
   -0.4775    0.0737    4.6309 H   0  0  0  0  0  0  0  0  0  0  0  0
  5  6  2  0  0  0  0
  5  7  1  0  0  0  0
  2  3  1  0  0  0  0
  2  4  1  0  0  0  0
  2  5  1  0  0  0  0
  1  2  1  0  0  0  0
 22 23  2  0  0  0  0
 22 24  1  0  0  0  0
 19 20  1  0  0  0  0
 19 21  1  0  0  0  0
 17 18  2  0  0  0  0
 17 19  1  0  0  0  0
 14 15  1  0  0  0  0
 14 16  1  0  0  0  0
 14 17  1  0  0  0  0
 11 12  1  0  0  0  0
 11 13  1  0  0  0  0
 11 14  1  0  0  0  0
  9 10  1  0  0  0  0
  9 11  1  0  0  0  0
  9 22  1  0  0  0  0
  7  8  1  0  0  0  0
  7  9  1  0  0  0  0
 26 27  1  0  0  0  0
 26 28  1  0  0  0  0
 26 29  1  0  0  0  0
 24 25  1  0  0  0  0
 24 26  1  0  0  0  0
M  END
$$$$
default_name
  -OEChem-02102213163D

 29 28  0     1  0  0  0  0  0999 V2000
   -3.3998   -3.6239    1.3678 H   0  0  0  0  0  0  0  0  0  0  0  0
   -3.3608   -2.6749    0.8348 C   0  0  0  0  0  0  0  0  0  0  0  0
   -4.0988   -1.9909    1.2498 H   0  0  0  0  0  0  0  0  0  0  0  0
   -3.5618   -2.8419   -0.2222 H   0  0  0  0  0  0  0  0  0  0  0  0
   -1.9818   -2.0809    0.9918 C   0  0  0  0  0  0  0  0  0  0  0  0
   -1.1288   -2.6669    1.6468 O   0  0  0  0  0  0  0  0  0  0  0  0
   -1.7648   -0.9089    0.3998 N   0  0  0  0  0  0  0  0  0  0  0  0
   -2.5238   -0.4719   -0.1032 H   0  0  0  0  0  0  0  0  0  0  0  0
   -0.4848   -0.1959    0.4138 C   0  0  1  0  0  0  0  0  0  0  0  0
    0.2783   -0.8411   -0.0248 H   0  0  0  0  0  0  0  0  0  0  0  0
   -0.6101    1.0666   -0.4611 C   0  0  0  0  0  0  0  0  0  0  0  0
   -0.3379    0.8031   -1.4853 H   0  0  0  0  0  0  0  0  0  0  0  0
   -1.6491    1.3998   -0.4593 H   0  0  0  0  0  0  0  0  0  0  0  0
    0.2863    2.2311   -0.0054 C   0  0  0  0  0  0  0  0  0  0  0  0
    1.0463    1.8618    0.6828 H   0  0  0  0  0  0  0  0  0  0  0  0
    0.7833    2.6570   -0.8770 H   0  0  0  0  0  0  0  0  0  0  0  0
   -0.4872    3.3456    0.6991 C   0  0  0  0  0  0  0  0  0  0  0  0
   -1.6981    3.3473    0.8186 O   0  0  0  0  0  0  0  0  0  0  0  0
    0.1897    4.3512    1.2097 N   0  0  0  0  0  0  0  0  0  0  0  0
   -0.3685    5.0543    1.6618 H   0  0  0  0  0  0  0  0  0  0  0  0
    1.1862    4.3979    1.1420 H   0  0  0  0  0  0  0  0  0  0  0  0
   -0.0637    0.1284    1.8555 C   0  0  0  0  0  0  0  0  0  0  0  0
    1.0918   -0.0745    2.2236 O   0  0  0  0  0  0  0  0  0  0  0  0
   -1.0024    0.6217    2.6735 N   0  0  0  0  0  0  0  0  0  0  0  0
   -1.9213    0.7848    2.2938 H   0  0  0  0  0  0  0  0  0  0  0  0
   -0.7639    0.9676    4.0741 C   0  0  0  0  0  0  0  0  0  0  0  0
    0.0520    1.6916    4.1400 H   0  0  0  0  0  0  0  0  0  0  0  0
   -1.6626    1.3984    4.5182 H   0  0  0  0  0  0  0  0  0  0  0  0
   -0.4775    0.0737    4.6309 H   0  0  0  0  0  0  0  0  0  0  0  0
  5  6  2  0  0  0  0
  5  7  1  0  0  0  0
  2  3  1  0  0  0  0
  2  4  1  0  0  0  0
  2  5  1  0  0  0  0
  1  2  1  0  0  0  0
 22 23  2  0  0  0  0
 22 24  1  0  0  0  0
 19 20  1  0  0  0  0
 19 21  1  0  0  0  0
 17 18  2  0  0  0  0
 17 19  1  0  0  0  0
 14 15  1  0  0  0  0
 14 16  1  0  0  0  0
 14 17  1  0  0  0  0
 11 12  1  0  0  0  0
 11 13  1  0  0  0  0
 11 14  1  0  0  0  0
  9 10  1  0  0  0  0
  9 11  1  0  0  0  0
  9 22  1  0  0  0  0
  7  8  1  0  0  0  0
  7  9  1  0  0  0  0
 26 27  1  0  0  0  0
 26 28  1  0  0  0  0
 26 29  1  0  0  0  0
 24 25  1  0  0  0  0
 24 26  1  0  0  0  0
M  END
$$$$
default_name
  -OEChem-02102213163D

 29 28  0     1  0  0  0  0  0999 V2000
   -3.3998   -3.6239    1.3678 H   0  0  0  0  0  0  0  0  0  0  0  0
   -3.3608   -2.6749    0.8348 C   0  0  0  0  0  0  0  0  0  0  0  0
   -4.0988   -1.9909    1.2498 H   0  0  0  0  0  0  0  0  0  0  0  0
   -3.5618   -2.8419   -0.2222 H   0  0  0  0  0  0  0  0  0  0  0  0
   -1.9818   -2.0809    0.9918 C   0  0  0  0  0  0  0  0  0  0  0  0
   -1.1288   -2.6669    1.6468 O   0  0  0  0  0  0  0  0  0  0  0  0
   -1.7648   -0.9089    0.3998 N   0  0  0  0  0  0  0  0  0  0  0  0
   -2.5238   -0.4719   -0.1032 H   0  0  0  0  0  0  0  0  0  0  0  0
   -0.4848   -0.1959    0.4138 C   0  0  1  0  0  0  0  0  0  0  0  0
    0.2783   -0.8411   -0.0248 H   0  0  0  0  0  0  0  0  0  0  0  0
   -0.6101    1.0666   -0.4611 C   0  0  0  0  0  0  0  0  0  0  0  0
   -0.3379    0.8031   -1.4853 H   0  0  0  0  0  0  0  0  0  0  0  0
   -1.6491    1.3998   -0.4593 H   0  0  0  0  0  0  0  0  0  0  0  0
    0.2863    2.2311   -0.0054 C   0  0  0  0  0  0  0  0  0  0  0  0
    1.1908    1.8383    0.4585 H   0  0  0  0  0  0  0  0  0  0  0  0
    0.5701    2.8211   -0.8769 H   0  0  0  0  0  0  0  0  0  0  0  0
   -0.3963    3.1576    1.0007 C   0  0  0  0  0  0  0  0  0  0  0  0
   -1.5559    3.0312    1.3469 O   0  0  0  0  0  0  0  0  0  0  0  0
    0.3065    4.1375    1.5262 N   0  0  0  0  0  0  0  0  0  0  0  0
   -0.1914    4.7145    2.1817 H   0  0  0  0  0  0  0  0  0  0  0  0
    1.2639    4.2846    1.2787 H   0  0  0  0  0  0  0  0  0  0  0  0
   -0.0637    0.1284    1.8555 C   0  0  0  0  0  0  0  0  0  0  0  0
    1.0918   -0.0745    2.2236 O   0  0  0  0  0  0  0  0  0  0  0  0
   -1.0024    0.6217    2.6735 N   0  0  0  0  0  0  0  0  0  0  0  0
   -1.9213    0.7848    2.2938 H   0  0  0  0  0  0  0  0  0  0  0  0
   -0.7639    0.9676    4.0741 C   0  0  0  0  0  0  0  0  0  0  0  0
    0.0520    1.6916    4.1400 H   0  0  0  0  0  0  0  0  0  0  0  0
   -1.6626    1.3984    4.5182 H   0  0  0  0  0  0  0  0  0  0  0  0
   -0.4775    0.0737    4.6309 H   0  0  0  0  0  0  0  0  0  0  0  0
  5  6  2  0  0  0  0
  5  7  1  0  0  0  0
  2  3  1  0  0  0  0
  2  4  1  0  0  0  0
  2  5  1  0  0  0  0
  1  2  1  0  0  0  0
 22 23  2  0  0  0  0
 22 24  1  0  0  0  0
 19 20  1  0  0  0  0
 19 21  1  0  0  0  0
 17 18  2  0  0  0  0
 17 19  1  0  0  0  0
 14 15  1  0  0  0  0
 14 16  1  0  0  0  0
 14 17  1  0  0  0  0
 11 12  1  0  0  0  0
 11 13  1  0  0  0  0
 11 14  1  0  0  0  0
  9 10  1  0  0  0  0
  9 11  1  0  0  0  0
  9 22  1  0  0  0  0
  7  8  1  0  0  0  0
  7  9  1  0  0  0  0
 26 27  1  0  0  0  0
 26 28  1  0  0  0  0
 26 29  1  0  0  0  0
 24 25  1  0  0  0  0
 24 26  1  0  0  0  0
M  END
$$$$
default_name
  -OEChem-02102213163D

 29 28  0     1  0  0  0  0  0999 V2000
   -3.3998   -3.6239    1.3678 H   0  0  0  0  0  0  0  0  0  0  0  0
   -3.3608   -2.6749    0.8348 C   0  0  0  0  0  0  0  0  0  0  0  0
   -4.0988   -1.9909    1.2498 H   0  0  0  0  0  0  0  0  0  0  0  0
   -3.5618   -2.8419   -0.2222 H   0  0  0  0  0  0  0  0  0  0  0  0
   -1.9818   -2.0809    0.9918 C   0  0  0  0  0  0  0  0  0  0  0  0
   -1.1288   -2.6669    1.6468 O   0  0  0  0  0  0  0  0  0  0  0  0
   -1.7648   -0.9089    0.3998 N   0  0  0  0  0  0  0  0  0  0  0  0
   -2.5238   -0.4719   -0.1032 H   0  0  0  0  0  0  0  0  0  0  0  0
   -0.4848   -0.1959    0.4138 C   0  0  1  0  0  0  0  0  0  0  0  0
    0.2783   -0.8411   -0.0248 H   0  0  0  0  0  0  0  0  0  0  0  0
   -0.6101    1.0666   -0.4611 C   0  0  0  0  0  0  0  0  0  0  0  0
   -0.3379    0.8031   -1.4853 H   0  0  0  0  0  0  0  0  0  0  0  0
   -1.6491    1.3998   -0.4593 H   0  0  0  0  0  0  0  0  0  0  0  0
    0.2863    2.2311   -0.0054 C   0  0  0  0  0  0  0  0  0  0  0  0
    1.2883    1.8605    0.2100 H   0  0  0  0  0  0  0  0  0  0  0  0
    0.3515    2.9633   -0.8103 H   0  0  0  0  0  0  0  0  0  0  0  0
   -0.2350    2.9374    1.2459 C   0  0  0  0  0  0  0  0  0  0  0  0
   -1.2909    2.6570    1.7817 O   0  0  0  0  0  0  0  0  0  0  0  0
    0.4976    3.8923    1.7768 N   0  0  0  0  0  0  0  0  0  0  0  0
    0.1076    4.3215    2.5979 H   0  0  0  0  0  0  0  0  0  0  0  0
    1.3745    4.1605    1.3784 H   0  0  0  0  0  0  0  0  0  0  0  0
   -0.0637    0.1284    1.8555 C   0  0  0  0  0  0  0  0  0  0  0  0
    1.0918   -0.0745    2.2236 O   0  0  0  0  0  0  0  0  0  0  0  0
   -1.0024    0.6217    2.6735 N   0  0  0  0  0  0  0  0  0  0  0  0
   -1.9213    0.7848    2.2938 H   0  0  0  0  0  0  0  0  0  0  0  0
   -0.7639    0.9676    4.0741 C   0  0  0  0  0  0  0  0  0  0  0  0
    0.0520    1.6916    4.1400 H   0  0  0  0  0  0  0  0  0  0  0  0
   -1.6626    1.3984    4.5182 H   0  0  0  0  0  0  0  0  0  0  0  0
   -0.4775    0.0737    4.6309 H   0  0  0  0  0  0  0  0  0  0  0  0
  5  6  2  0  0  0  0
  5  7  1  0  0  0  0
  2  3  1  0  0  0  0
  2  4  1  0  0  0  0
  2  5  1  0  0  0  0
  1  2  1  0  0  0  0
 22 23  2  0  0  0  0
 22 24  1  0  0  0  0
 19 20  1  0  0  0  0
 19 21  1  0  0  0  0
 17 18  2  0  0  0  0
 17 19  1  0  0  0  0
 14 15  1  0  0  0  0
 14 16  1  0  0  0  0
 14 17  1  0  0  0  0
 11 12  1  0  0  0  0
 11 13  1  0  0  0  0
 11 14  1  0  0  0  0
  9 10  1  0  0  0  0
  9 11  1  0  0  0  0
  9 22  1  0  0  0  0
  7  8  1  0  0  0  0
  7  9  1  0  0  0  0
 26 27  1  0  0  0  0
 26 28  1  0  0  0  0
 26 29  1  0  0  0  0
 24 25  1  0  0  0  0
 24 26  1  0  0  0  0
M  END
$$$$
default_name
  -OEChem-02102213163D

 29 28  0     1  0  0  0  0  0999 V2000
   -3.3998   -3.6239    1.3678 H   0  0  0  0  0  0  0  0  0  0  0  0
   -3.3608   -2.6749    0.8348 C   0  0  0  0  0  0  0  0  0  0  0  0
   -4.0988   -1.9909    1.2498 H   0  0  0  0  0  0  0  0  0  0  0  0
   -3.5618   -2.8419   -0.2222 H   0  0  0  0  0  0  0  0  0  0  0  0
   -1.9818   -2.0809    0.9918 C   0  0  0  0  0  0  0  0  0  0  0  0
   -1.1288   -2.6669    1.6468 O   0  0  0  0  0  0  0  0  0  0  0  0
   -1.7648   -0.9089    0.3998 N   0  0  0  0  0  0  0  0  0  0  0  0
   -2.5238   -0.4719   -0.1032 H   0  0  0  0  0  0  0  0  0  0  0  0
   -0.4848   -0.1959    0.4138 C   0  0  1  0  0  0  0  0  0  0  0  0
    0.2783   -0.8411   -0.0248 H   0  0  0  0  0  0  0  0  0  0  0  0
   -0.6101    1.0666   -0.4611 C   0  0  0  0  0  0  0  0  0  0  0  0
   -0.3379    0.8031   -1.4853 H   0  0  0  0  0  0  0  0  0  0  0  0
   -1.6491    1.3998   -0.4593 H   0  0  0  0  0  0  0  0  0  0  0  0
    0.2863    2.2311   -0.0054 C   0  0  0  0  0  0  0  0  0  0  0  0
    1.3320    1.9269   -0.0458 H   0  0  0  0  0  0  0  0  0  0  0  0
    0.1425    3.0738   -0.6816 H   0  0  0  0  0  0  0  0  0  0  0  0
   -0.0143    2.7002    1.4180 C   0  0  0  0  0  0  0  0  0  0  0  0
   -0.9211    2.2504    2.0933 O   0  0  0  0  0  0  0  0  0  0  0  0
    0.7501    3.6323    1.9444 N   0  0  0  0  0  0  0  0  0  0  0  0
    0.5081    3.9020    2.8821 H   0  0  0  0  0  0  0  0  0  0  0  0
    1.5103    4.0341    1.4343 H   0  0  0  0  0  0  0  0  0  0  0  0
   -0.0637    0.1284    1.8555 C   0  0  0  0  0  0  0  0  0  0  0  0
    1.0918   -0.0745    2.2236 O   0  0  0  0  0  0  0  0  0  0  0  0
   -1.0024    0.6217    2.6735 N   0  0  0  0  0  0  0  0  0  0  0  0
   -1.9213    0.7848    2.2938 H   0  0  0  0  0  0  0  0  0  0  0  0
   -0.7639    0.9676    4.0741 C   0  0  0  0  0  0  0  0  0  0  0  0
    0.0520    1.6916    4.1400 H   0  0  0  0  0  0  0  0  0  0  0  0
   -1.6626    1.3984    4.5182 H   0  0  0  0  0  0  0  0  0  0  0  0
   -0.4775    0.0737    4.6309 H   0  0  0  0  0  0  0  0  0  0  0  0
  5  6  2  0  0  0  0
  5  7  1  0  0  0  0
  2  3  1  0  0  0  0
  2  4  1  0  0  0  0
  2  5  1  0  0  0  0
  1  2  1  0  0  0  0
 22 23  2  0  0  0  0
 22 24  1  0  0  0  0
 19 20  1  0  0  0  0
 19 21  1  0  0  0  0
 17 18  2  0  0  0  0
 17 19  1  0  0  0  0
 14 15  1  0  0  0  0
 14 16  1  0  0  0  0
 14 17  1  0  0  0  0
 11 12  1  0  0  0  0
 11 13  1  0  0  0  0
 11 14  1  0  0  0  0
  9 10  1  0  0  0  0
  9 11  1  0  0  0  0
  9 22  1  0  0  0  0
  7  8  1  0  0  0  0
  7  9  1  0  0  0  0
 26 27  1  0  0  0  0
 26 28  1  0  0  0  0
 26 29  1  0  0  0  0
 24 25  1  0  0  0  0
 24 26  1  0  0  0  0
M  END
$$$$
default_name
  -OEChem-02102213163D

 29 28  0     1  0  0  0  0  0999 V2000
   -3.3998   -3.6239    1.3678 H   0  0  0  0  0  0  0  0  0  0  0  0
   -3.3608   -2.6749    0.8348 C   0  0  0  0  0  0  0  0  0  0  0  0
   -4.0988   -1.9909    1.2498 H   0  0  0  0  0  0  0  0  0  0  0  0
   -3.5618   -2.8419   -0.2222 H   0  0  0  0  0  0  0  0  0  0  0  0
   -1.9818   -2.0809    0.9918 C   0  0  0  0  0  0  0  0  0  0  0  0
   -1.1288   -2.6669    1.6468 O   0  0  0  0  0  0  0  0  0  0  0  0
   -1.7648   -0.9089    0.3998 N   0  0  0  0  0  0  0  0  0  0  0  0
   -2.5238   -0.4719   -0.1032 H   0  0  0  0  0  0  0  0  0  0  0  0
   -0.4848   -0.1959    0.4138 C   0  0  1  0  0  0  0  0  0  0  0  0
    0.2783   -0.8411   -0.0248 H   0  0  0  0  0  0  0  0  0  0  0  0
   -0.6101    1.0666   -0.4611 C   0  0  0  0  0  0  0  0  0  0  0  0
   -0.3379    0.8031   -1.4853 H   0  0  0  0  0  0  0  0  0  0  0  0
   -1.6491    1.3998   -0.4593 H   0  0  0  0  0  0  0  0  0  0  0  0
    0.2863    2.2311   -0.0054 C   0  0  0  0  0  0  0  0  0  0  0  0
    1.3191    2.0330   -0.2914 H   0  0  0  0  0  0  0  0  0  0  0  0
   -0.0426    3.1452   -0.4998 H   0  0  0  0  0  0  0  0  0  0  0  0
    0.2508    2.4620    1.5052 C   0  0  0  0  0  0  0  0  0  0  0  0
   -0.4716    1.8390    2.2605 O   0  0  0  0  0  0  0  0  0  0  0  0
    1.0467    3.3753    2.0177 N   0  0  0  0  0  0  0  0  0  0  0  0
    0.9828    3.4846    3.0149 H   0  0  0  0  0  0  0  0  0  0  0  0
    1.6622    3.9139    1.4426 H   0  0  0  0  0  0  0  0  0  0  0  0
   -0.0637    0.1284    1.8555 C   0  0  0  0  0  0  0  0  0  0  0  0
    1.0918   -0.0745    2.2236 O   0  0  0  0  0  0  0  0  0  0  0  0
   -1.0024    0.6217    2.6735 N   0  0  0  0  0  0  0  0  0  0  0  0
   -1.9213    0.7848    2.2938 H   0  0  0  0  0  0  0  0  0  0  0  0
   -0.7639    0.9676    4.0741 C   0  0  0  0  0  0  0  0  0  0  0  0
    0.0520    1.6916    4.1400 H   0  0  0  0  0  0  0  0  0  0  0  0
   -1.6626    1.3984    4.5182 H   0  0  0  0  0  0  0  0  0  0  0  0
   -0.4775    0.0737    4.6309 H   0  0  0  0  0  0  0  0  0  0  0  0
  5  6  2  0  0  0  0
  5  7  1  0  0  0  0
  2  3  1  0  0  0  0
  2  4  1  0  0  0  0
  2  5  1  0  0  0  0
  1  2  1  0  0  0  0
 22 23  2  0  0  0  0
 22 24  1  0  0  0  0
 19 20  1  0  0  0  0
 19 21  1  0  0  0  0
 17 18  2  0  0  0  0
 17 19  1  0  0  0  0
 14 15  1  0  0  0  0
 14 16  1  0  0  0  0
 14 17  1  0  0  0  0
 11 12  1  0  0  0  0
 11 13  1  0  0  0  0
 11 14  1  0  0  0  0
  9 10  1  0  0  0  0
  9 11  1  0  0  0  0
  9 22  1  0  0  0  0
  7  8  1  0  0  0  0
  7  9  1  0  0  0  0
 26 27  1  0  0  0  0
 26 28  1  0  0  0  0
 26 29  1  0  0  0  0
 24 25  1  0  0  0  0
 24 26  1  0  0  0  0
M  END
$$$$
default_name
  -OEChem-02102213163D

 29 28  0     1  0  0  0  0  0999 V2000
   -3.3998   -3.6239    1.3678 H   0  0  0  0  0  0  0  0  0  0  0  0
   -3.3608   -2.6749    0.8348 C   0  0  0  0  0  0  0  0  0  0  0  0
   -4.0988   -1.9909    1.2498 H   0  0  0  0  0  0  0  0  0  0  0  0
   -3.5618   -2.8419   -0.2222 H   0  0  0  0  0  0  0  0  0  0  0  0
   -1.9818   -2.0809    0.9918 C   0  0  0  0  0  0  0  0  0  0  0  0
   -1.1288   -2.6669    1.6468 O   0  0  0  0  0  0  0  0  0  0  0  0
   -1.7648   -0.9089    0.3998 N   0  0  0  0  0  0  0  0  0  0  0  0
   -2.5238   -0.4719   -0.1032 H   0  0  0  0  0  0  0  0  0  0  0  0
   -0.4848   -0.1959    0.4138 C   0  0  1  0  0  0  0  0  0  0  0  0
    0.2783   -0.8411   -0.0248 H   0  0  0  0  0  0  0  0  0  0  0  0
   -0.6101    1.0666   -0.4611 C   0  0  0  0  0  0  0  0  0  0  0  0
   -0.3379    0.8031   -1.4853 H   0  0  0  0  0  0  0  0  0  0  0  0
   -1.6491    1.3998   -0.4593 H   0  0  0  0  0  0  0  0  0  0  0  0
    0.2863    2.2311   -0.0054 C   0  0  0  0  0  0  0  0  0  0  0  0
    1.2504    2.1715   -0.5102 H   0  0  0  0  0  0  0  0  0  0  0  0
   -0.1913    3.1725   -0.2771 H   0  0  0  0  0  0  0  0  0  0  0  0
    0.5421    2.2392    1.5016 C   0  0  0  0  0  0  0  0  0  0  0  0
    0.0268    1.4508    2.2720 O   0  0  0  0  0  0  0  0  0  0  0  0
    1.3673    3.1387    1.9916 N   0  0  0  0  0  0  0  0  0  0  0  0
    1.4993    3.0978    2.9873 H   0  0  0  0  0  0  0  0  0  0  0  0
    1.8197    3.8083    1.4028 H   0  0  0  0  0  0  0  0  0  0  0  0
   -0.0637    0.1284    1.8555 C   0  0  0  0  0  0  0  0  0  0  0  0
    1.0918   -0.0745    2.2236 O   0  0  0  0  0  0  0  0  0  0  0  0
   -1.0024    0.6217    2.6735 N   0  0  0  0  0  0  0  0  0  0  0  0
   -1.9213    0.7848    2.2938 H   0  0  0  0  0  0  0  0  0  0  0  0
   -0.7639    0.9676    4.0741 C   0  0  0  0  0  0  0  0  0  0  0  0
    0.0520    1.6916    4.1400 H   0  0  0  0  0  0  0  0  0  0  0  0
   -1.6626    1.3984    4.5182 H   0  0  0  0  0  0  0  0  0  0  0  0
   -0.4775    0.0737    4.6309 H   0  0  0  0  0  0  0  0  0  0  0  0
  5  6  2  0  0  0  0
  5  7  1  0  0  0  0
  2  3  1  0  0  0  0
  2  4  1  0  0  0  0
  2  5  1  0  0  0  0
  1  2  1  0  0  0  0
 22 23  2  0  0  0  0
 22 24  1  0  0  0  0
 19 20  1  0  0  0  0
 19 21  1  0  0  0  0
 17 18  2  0  0  0  0
 17 19  1  0  0  0  0
 14 15  1  0  0  0  0
 14 16  1  0  0  0  0
 14 17  1  0  0  0  0
 11 12  1  0  0  0  0
 11 13  1  0  0  0  0
 11 14  1  0  0  0  0
  9 10  1  0  0  0  0
  9 11  1  0  0  0  0
  9 22  1  0  0  0  0
  7  8  1  0  0  0  0
  7  9  1  0  0  0  0
 26 27  1  0  0  0  0
 26 28  1  0  0  0  0
 26 29  1  0  0  0  0
 24 25  1  0  0  0  0
 24 26  1  0  0  0  0
M  END
$$$$
default_name
  -OEChem-02102213163D

 29 28  0     1  0  0  0  0  0999 V2000
   -3.3998   -3.6239    1.3678 H   0  0  0  0  0  0  0  0  0  0  0  0
   -3.3608   -2.6749    0.8348 C   0  0  0  0  0  0  0  0  0  0  0  0
   -4.0988   -1.9909    1.2498 H   0  0  0  0  0  0  0  0  0  0  0  0
   -3.5618   -2.8419   -0.2222 H   0  0  0  0  0  0  0  0  0  0  0  0
   -1.9818   -2.0809    0.9918 C   0  0  0  0  0  0  0  0  0  0  0  0
   -1.1288   -2.6669    1.6468 O   0  0  0  0  0  0  0  0  0  0  0  0
   -1.7648   -0.9089    0.3998 N   0  0  0  0  0  0  0  0  0  0  0  0
   -2.5238   -0.4719   -0.1032 H   0  0  0  0  0  0  0  0  0  0  0  0
   -0.4848   -0.1959    0.4138 C   0  0  1  0  0  0  0  0  0  0  0  0
    0.2783   -0.8411   -0.0248 H   0  0  0  0  0  0  0  0  0  0  0  0
   -0.6101    1.0666   -0.4611 C   0  0  0  0  0  0  0  0  0  0  0  0
   -0.3379    0.8031   -1.4853 H   0  0  0  0  0  0  0  0  0  0  0  0
   -1.6491    1.3998   -0.4593 H   0  0  0  0  0  0  0  0  0  0  0  0
    0.2863    2.2311   -0.0054 C   0  0  0  0  0  0  0  0  0  0  0  0
    1.1305    2.3330   -0.6871 H   0  0  0  0  0  0  0  0  0  0  0  0
   -0.2933    3.1539   -0.0288 H   0  0  0  0  0  0  0  0  0  0  0  0
    0.8400    2.0467    1.4074 C   0  0  0  0  0  0  0  0  0  0  0  0
    0.5402    1.1123    2.1269 O   0  0  0  0  0  0  0  0  0  0  0  0
    1.6900    2.9387    1.8680 N   0  0  0  0  0  0  0  0  0  0  0  0
    2.0224    2.7679    2.8011 H   0  0  0  0  0  0  0  0  0  0  0  0
    1.9721    3.7243    1.3175 H   0  0  0  0  0  0  0  0  0  0  0  0
   -0.0637    0.1284    1.8555 C   0  0  0  0  0  0  0  0  0  0  0  0
    1.0918   -0.0745    2.2236 O   0  0  0  0  0  0  0  0  0  0  0  0
   -1.0024    0.6217    2.6735 N   0  0  0  0  0  0  0  0  0  0  0  0
   -1.9213    0.7848    2.2938 H   0  0  0  0  0  0  0  0  0  0  0  0
   -0.7639    0.9676    4.0741 C   0  0  0  0  0  0  0  0  0  0  0  0
    0.0520    1.6916    4.1400 H   0  0  0  0  0  0  0  0  0  0  0  0
   -1.6626    1.3984    4.5182 H   0  0  0  0  0  0  0  0  0  0  0  0
   -0.4775    0.0737    4.6309 H   0  0  0  0  0  0  0  0  0  0  0  0
  5  6  2  0  0  0  0
  5  7  1  0  0  0  0
  2  3  1  0  0  0  0
  2  4  1  0  0  0  0
  2  5  1  0  0  0  0
  1  2  1  0  0  0  0
 22 23  2  0  0  0  0
 22 24  1  0  0  0  0
 19 20  1  0  0  0  0
 19 21  1  0  0  0  0
 17 18  2  0  0  0  0
 17 19  1  0  0  0  0
 14 15  1  0  0  0  0
 14 16  1  0  0  0  0
 14 17  1  0  0  0  0
 11 12  1  0  0  0  0
 11 13  1  0  0  0  0
 11 14  1  0  0  0  0
  9 10  1  0  0  0  0
  9 11  1  0  0  0  0
  9 22  1  0  0  0  0
  7  8  1  0  0  0  0
  7  9  1  0  0  0  0
 26 27  1  0  0  0  0
 26 28  1  0  0  0  0
 26 29  1  0  0  0  0
 24 25  1  0  0  0  0
 24 26  1  0  0  0  0
M  END
$$$$
default_name
  -OEChem-02102213163D

 29 28  0     1  0  0  0  0  0999 V2000
   -3.3998   -3.6239    1.3678 H   0  0  0  0  0  0  0  0  0  0  0  0
   -3.3608   -2.6749    0.8348 C   0  0  0  0  0  0  0  0  0  0  0  0
   -4.0988   -1.9909    1.2498 H   0  0  0  0  0  0  0  0  0  0  0  0
   -3.5618   -2.8419   -0.2222 H   0  0  0  0  0  0  0  0  0  0  0  0
   -1.9818   -2.0809    0.9918 C   0  0  0  0  0  0  0  0  0  0  0  0
   -1.1288   -2.6669    1.6468 O   0  0  0  0  0  0  0  0  0  0  0  0
   -1.7648   -0.9089    0.3998 N   0  0  0  0  0  0  0  0  0  0  0  0
   -2.5238   -0.4719   -0.1032 H   0  0  0  0  0  0  0  0  0  0  0  0
   -0.4848   -0.1959    0.4138 C   0  0  1  0  0  0  0  0  0  0  0  0
    0.2783   -0.8411   -0.0248 H   0  0  0  0  0  0  0  0  0  0  0  0
   -0.6101    1.0666   -0.4611 C   0  0  0  0  0  0  0  0  0  0  0  0
   -0.3379    0.8031   -1.4853 H   0  0  0  0  0  0  0  0  0  0  0  0
   -1.6491    1.3998   -0.4593 H   0  0  0  0  0  0  0  0  0  0  0  0
    0.2863    2.2311   -0.0054 C   0  0  0  0  0  0  0  0  0  0  0  0
    0.9677    2.5065   -0.8102 H   0  0  0  0  0  0  0  0  0  0  0  0
   -0.3418    3.0907    0.2283 H   0  0  0  0  0  0  0  0  0  0  0  0
    1.1239    1.8979    1.2291 C   0  0  0  0  0  0  0  0  0  0  0  0
    1.0337    0.8466    1.8351 O   0  0  0  0  0  0  0  0  0  0  0  0
    1.9928    2.7889    1.6551 N   0  0  0  0  0  0  0  0  0  0  0  0
    2.5165    2.5175    2.4690 H   0  0  0  0  0  0  0  0  0  0  0  0
    2.1091    3.6677    1.1926 H   0  0  0  0  0  0  0  0  0  0  0  0
   -0.0637    0.1284    1.8555 C   0  0  0  0  0  0  0  0  0  0  0  0
    1.0918   -0.0745    2.2236 O   0  0  0  0  0  0  0  0  0  0  0  0
   -1.0024    0.6217    2.6735 N   0  0  0  0  0  0  0  0  0  0  0  0
   -1.9213    0.7848    2.2938 H   0  0  0  0  0  0  0  0  0  0  0  0
   -0.7639    0.9676    4.0741 C   0  0  0  0  0  0  0  0  0  0  0  0
    0.0520    1.6916    4.1400 H   0  0  0  0  0  0  0  0  0  0  0  0
   -1.6626    1.3984    4.5182 H   0  0  0  0  0  0  0  0  0  0  0  0
   -0.4775    0.0737    4.6309 H   0  0  0  0  0  0  0  0  0  0  0  0
  5  6  2  0  0  0  0
  5  7  1  0  0  0  0
  2  3  1  0  0  0  0
  2  4  1  0  0  0  0
  2  5  1  0  0  0  0
  1  2  1  0  0  0  0
 22 23  2  0  0  0  0
 22 24  1  0  0  0  0
 19 20  1  0  0  0  0
 19 21  1  0  0  0  0
 17 18  2  0  0  0  0
 17 19  1  0  0  0  0
 14 15  1  0  0  0  0
 14 16  1  0  0  0  0
 14 17  1  0  0  0  0
 11 12  1  0  0  0  0
 11 13  1  0  0  0  0
 11 14  1  0  0  0  0
  9 10  1  0  0  0  0
  9 11  1  0  0  0  0
  9 22  1  0  0  0  0
  7  8  1  0  0  0  0
  7  9  1  0  0  0  0
 26 27  1  0  0  0  0
 26 28  1  0  0  0  0
 26 29  1  0  0  0  0
 24 25  1  0  0  0  0
 24 26  1  0  0  0  0
M  END
$$$$
default_name
  -OEChem-02102213163D

 29 28  0     1  0  0  0  0  0999 V2000
   -3.3998   -3.6239    1.3678 H   0  0  0  0  0  0  0  0  0  0  0  0
   -3.3608   -2.6749    0.8348 C   0  0  0  0  0  0  0  0  0  0  0  0
   -4.0988   -1.9909    1.2498 H   0  0  0  0  0  0  0  0  0  0  0  0
   -3.5618   -2.8419   -0.2222 H   0  0  0  0  0  0  0  0  0  0  0  0
   -1.9818   -2.0809    0.9918 C   0  0  0  0  0  0  0  0  0  0  0  0
   -1.1288   -2.6669    1.6468 O   0  0  0  0  0  0  0  0  0  0  0  0
   -1.7648   -0.9089    0.3998 N   0  0  0  0  0  0  0  0  0  0  0  0
   -2.5238   -0.4719   -0.1032 H   0  0  0  0  0  0  0  0  0  0  0  0
   -0.4848   -0.1959    0.4138 C   0  0  1  0  0  0  0  0  0  0  0  0
    0.2783   -0.8411   -0.0248 H   0  0  0  0  0  0  0  0  0  0  0  0
   -0.6101    1.0666   -0.4611 C   0  0  0  0  0  0  0  0  0  0  0  0
   -0.3379    0.8031   -1.4853 H   0  0  0  0  0  0  0  0  0  0  0  0
   -1.6491    1.3998   -0.4593 H   0  0  0  0  0  0  0  0  0  0  0  0
    0.2863    2.2311   -0.0054 C   0  0  0  0  0  0  0  0  0  0  0  0
    0.7730    2.6802   -0.8710 H   0  0  0  0  0  0  0  0  0  0  0  0
   -0.3335    2.9871    0.4766 H   0  0  0  0  0  0  0  0  0  0  0  0
    1.3747    1.8028    0.9787 C   0  0  0  0  0  0  0  0  0  0  0  0
    1.4735    0.6718    1.4165 O   0  0  0  0  0  0  0  0  0  0  0  0
    2.2550    2.6995    1.3676 N   0  0  0  0  0  0  0  0  0  0  0  0
    2.9480    2.3635    2.0137 H   0  0  0  0  0  0  0  0  0  0  0  0
    2.2213    3.6423    1.0367 H   0  0  0  0  0  0  0  0  0  0  0  0
   -0.0637    0.1284    1.8555 C   0  0  0  0  0  0  0  0  0  0  0  0
    1.0918   -0.0745    2.2236 O   0  0  0  0  0  0  0  0  0  0  0  0
   -1.0024    0.6217    2.6735 N   0  0  0  0  0  0  0  0  0  0  0  0
   -1.9213    0.7848    2.2938 H   0  0  0  0  0  0  0  0  0  0  0  0
   -0.7639    0.9676    4.0741 C   0  0  0  0  0  0  0  0  0  0  0  0
    0.0520    1.6916    4.1400 H   0  0  0  0  0  0  0  0  0  0  0  0
   -1.6626    1.3984    4.5182 H   0  0  0  0  0  0  0  0  0  0  0  0
   -0.4775    0.0737    4.6309 H   0  0  0  0  0  0  0  0  0  0  0  0
  5  6  2  0  0  0  0
  5  7  1  0  0  0  0
  2  3  1  0  0  0  0
  2  4  1  0  0  0  0
  2  5  1  0  0  0  0
  1  2  1  0  0  0  0
 22 23  2  0  0  0  0
 22 24  1  0  0  0  0
 19 20  1  0  0  0  0
 19 21  1  0  0  0  0
 17 18  2  0  0  0  0
 17 19  1  0  0  0  0
 14 15  1  0  0  0  0
 14 16  1  0  0  0  0
 14 17  1  0  0  0  0
 11 12  1  0  0  0  0
 11 13  1  0  0  0  0
 11 14  1  0  0  0  0
  9 10  1  0  0  0  0
  9 11  1  0  0  0  0
  9 22  1  0  0  0  0
  7  8  1  0  0  0  0
  7  9  1  0  0  0  0
 26 27  1  0  0  0  0
 26 28  1  0  0  0  0
 26 29  1  0  0  0  0
 24 25  1  0  0  0  0
 24 26  1  0  0  0  0
M  END
$$$$
default_name
  -OEChem-02102213163D

 29 28  0     1  0  0  0  0  0999 V2000
   -3.3998   -3.6239    1.3678 H   0  0  0  0  0  0  0  0  0  0  0  0
   -3.3608   -2.6749    0.8348 C   0  0  0  0  0  0  0  0  0  0  0  0
   -4.0988   -1.9909    1.2498 H   0  0  0  0  0  0  0  0  0  0  0  0
   -3.5618   -2.8419   -0.2222 H   0  0  0  0  0  0  0  0  0  0  0  0
   -1.9818   -2.0809    0.9918 C   0  0  0  0  0  0  0  0  0  0  0  0
   -1.1288   -2.6669    1.6468 O   0  0  0  0  0  0  0  0  0  0  0  0
   -1.7648   -0.9089    0.3998 N   0  0  0  0  0  0  0  0  0  0  0  0
   -2.5238   -0.4719   -0.1032 H   0  0  0  0  0  0  0  0  0  0  0  0
   -0.4848   -0.1959    0.4138 C   0  0  1  0  0  0  0  0  0  0  0  0
    0.2783   -0.8411   -0.0248 H   0  0  0  0  0  0  0  0  0  0  0  0
   -0.6101    1.0666   -0.4611 C   0  0  0  0  0  0  0  0  0  0  0  0
   -0.3379    0.8031   -1.4853 H   0  0  0  0  0  0  0  0  0  0  0  0
   -1.6491    1.3998   -0.4593 H   0  0  0  0  0  0  0  0  0  0  0  0
    0.2863    2.2311   -0.0054 C   0  0  0  0  0  0  0  0  0  0  0  0
    0.5598    2.8421   -0.8654 H   0  0  0  0  0  0  0  0  0  0  0  0
   -0.2689    2.8503    0.6991 H   0  0  0  0  0  0  0  0  0  0  0  0
    1.5752    1.7679    0.6735 C   0  0  0  0  0  0  0  0  0  0  0  0
    1.8298    0.5998    0.8996 O   0  0  0  0  0  0  0  0  0  0  0  0
    2.4589    2.6766    1.0251 N   0  0  0  0  0  0  0  0  0  0  0  0
    3.2873    2.3165    1.4662 H   0  0  0  0  0  0  0  0  0  0  0  0
    2.3010    3.6500    0.8602 H   0  0  0  0  0  0  0  0  0  0  0  0
   -0.0637    0.1284    1.8555 C   0  0  0  0  0  0  0  0  0  0  0  0
    1.0918   -0.0745    2.2236 O   0  0  0  0  0  0  0  0  0  0  0  0
   -1.0024    0.6217    2.6735 N   0  0  0  0  0  0  0  0  0  0  0  0
   -1.9213    0.7848    2.2938 H   0  0  0  0  0  0  0  0  0  0  0  0
   -0.7639    0.9676    4.0741 C   0  0  0  0  0  0  0  0  0  0  0  0
    0.0520    1.6916    4.1400 H   0  0  0  0  0  0  0  0  0  0  0  0
   -1.6626    1.3984    4.5182 H   0  0  0  0  0  0  0  0  0  0  0  0
   -0.4775    0.0737    4.6309 H   0  0  0  0  0  0  0  0  0  0  0  0
  5  6  2  0  0  0  0
  5  7  1  0  0  0  0
  2  3  1  0  0  0  0
  2  4  1  0  0  0  0
  2  5  1  0  0  0  0
  1  2  1  0  0  0  0
 22 23  2  0  0  0  0
 22 24  1  0  0  0  0
 19 20  1  0  0  0  0
 19 21  1  0  0  0  0
 17 18  2  0  0  0  0
 17 19  1  0  0  0  0
 14 15  1  0  0  0  0
 14 16  1  0  0  0  0
 14 17  1  0  0  0  0
 11 12  1  0  0  0  0
 11 13  1  0  0  0  0
 11 14  1  0  0  0  0
  9 10  1  0  0  0  0
  9 11  1  0  0  0  0
  9 22  1  0  0  0  0
  7  8  1  0  0  0  0
  7  9  1  0  0  0  0
 26 27  1  0  0  0  0
 26 28  1  0  0  0  0
 26 29  1  0  0  0  0
 24 25  1  0  0  0  0
 24 26  1  0  0  0  0
M  END
$$$$
default_name
  -OEChem-02102213163D

 29 28  0     1  0  0  0  0  0999 V2000
   -3.3998   -3.6239    1.3678 H   0  0  0  0  0  0  0  0  0  0  0  0
   -3.3608   -2.6749    0.8348 C   0  0  0  0  0  0  0  0  0  0  0  0
   -4.0988   -1.9909    1.2498 H   0  0  0  0  0  0  0  0  0  0  0  0
   -3.5618   -2.8419   -0.2222 H   0  0  0  0  0  0  0  0  0  0  0  0
   -1.9818   -2.0809    0.9918 C   0  0  0  0  0  0  0  0  0  0  0  0
   -1.1288   -2.6669    1.6468 O   0  0  0  0  0  0  0  0  0  0  0  0
   -1.7648   -0.9089    0.3998 N   0  0  0  0  0  0  0  0  0  0  0  0
   -2.5238   -0.4719   -0.1032 H   0  0  0  0  0  0  0  0  0  0  0  0
   -0.4848   -0.1959    0.4138 C   0  0  1  0  0  0  0  0  0  0  0  0
    0.2783   -0.8411   -0.0248 H   0  0  0  0  0  0  0  0  0  0  0  0
   -0.6101    1.0666   -0.4611 C   0  0  0  0  0  0  0  0  0  0  0  0
   -0.3379    0.8031   -1.4853 H   0  0  0  0  0  0  0  0  0  0  0  0
   -1.6491    1.3998   -0.4593 H   0  0  0  0  0  0  0  0  0  0  0  0
    0.2863    2.2311   -0.0054 C   0  0  0  0  0  0  0  0  0  0  0  0
    0.3425    2.9814   -0.7938 H   0  0  0  0  0  0  0  0  0  0  0  0
   -0.1524    2.6895    0.8808 H   0  0  0  0  0  0  0  0  0  0  0  0
    1.7117    1.7956    0.3341 C   0  0  0  0  0  0  0  0  0  0  0  0
    2.0782    0.6354    0.3198 O   0  0  0  0  0  0  0  0  0  0  0  0
    2.5905    2.7217    0.6508 N   0  0  0  0  0  0  0  0  0  0  0  0
    3.5114    2.3797    0.8637 H   0  0  0  0  0  0  0  0  0  0  0  0
    2.3429    3.6901    0.6753 H   0  0  0  0  0  0  0  0  0  0  0  0
   -0.0637    0.1284    1.8555 C   0  0  0  0  0  0  0  0  0  0  0  0
    1.0918   -0.0745    2.2236 O   0  0  0  0  0  0  0  0  0  0  0  0
   -1.0024    0.6217    2.6735 N   0  0  0  0  0  0  0  0  0  0  0  0
   -1.9213    0.7848    2.2938 H   0  0  0  0  0  0  0  0  0  0  0  0
   -0.7639    0.9676    4.0741 C   0  0  0  0  0  0  0  0  0  0  0  0
    0.0520    1.6916    4.1400 H   0  0  0  0  0  0  0  0  0  0  0  0
   -1.6626    1.3984    4.5182 H   0  0  0  0  0  0  0  0  0  0  0  0
   -0.4775    0.0737    4.6309 H   0  0  0  0  0  0  0  0  0  0  0  0
  5  6  2  0  0  0  0
  5  7  1  0  0  0  0
  2  3  1  0  0  0  0
  2  4  1  0  0  0  0
  2  5  1  0  0  0  0
  1  2  1  0  0  0  0
 22 23  2  0  0  0  0
 22 24  1  0  0  0  0
 19 20  1  0  0  0  0
 19 21  1  0  0  0  0
 17 18  2  0  0  0  0
 17 19  1  0  0  0  0
 14 15  1  0  0  0  0
 14 16  1  0  0  0  0
 14 17  1  0  0  0  0
 11 12  1  0  0  0  0
 11 13  1  0  0  0  0
 11 14  1  0  0  0  0
  9 10  1  0  0  0  0
  9 11  1  0  0  0  0
  9 22  1  0  0  0  0
  7  8  1  0  0  0  0
  7  9  1  0  0  0  0
 26 27  1  0  0  0  0
 26 28  1  0  0  0  0
 26 29  1  0  0  0  0
 24 25  1  0  0  0  0
 24 26  1  0  0  0  0
M  END
$$$$
default_name
  -OEChem-02102213163D

 29 28  0     1  0  0  0  0  0999 V2000
   -3.3998   -3.6239    1.3678 H   0  0  0  0  0  0  0  0  0  0  0  0
   -3.3608   -2.6749    0.8348 C   0  0  0  0  0  0  0  0  0  0  0  0
   -4.0988   -1.9909    1.2498 H   0  0  0  0  0  0  0  0  0  0  0  0
   -3.5618   -2.8419   -0.2222 H   0  0  0  0  0  0  0  0  0  0  0  0
   -1.9818   -2.0809    0.9918 C   0  0  0  0  0  0  0  0  0  0  0  0
   -1.1288   -2.6669    1.6468 O   0  0  0  0  0  0  0  0  0  0  0  0
   -1.7648   -0.9089    0.3998 N   0  0  0  0  0  0  0  0  0  0  0  0
   -2.5238   -0.4719   -0.1032 H   0  0  0  0  0  0  0  0  0  0  0  0
   -0.4848   -0.1959    0.4138 C   0  0  1  0  0  0  0  0  0  0  0  0
    0.2783   -0.8411   -0.0248 H   0  0  0  0  0  0  0  0  0  0  0  0
   -0.6101    1.0666   -0.4611 C   0  0  0  0  0  0  0  0  0  0  0  0
   -0.3379    0.8031   -1.4853 H   0  0  0  0  0  0  0  0  0  0  0  0
   -1.6491    1.3998   -0.4593 H   0  0  0  0  0  0  0  0  0  0  0  0
    0.2863    2.2311   -0.0054 C   0  0  0  0  0  0  0  0  0  0  0  0
    0.1359    3.0885   -0.6611 H   0  0  0  0  0  0  0  0  0  0  0  0
    0.0081    2.5157    1.0092 H   0  0  0  0  0  0  0  0  0  0  0  0
    1.7750    1.8840   -0.0163 C   0  0  0  0  0  0  0  0  0  0  0  0
    2.2018    0.7764   -0.2836 O   0  0  0  0  0  0  0  0  0  0  0  0
    2.6408    2.8319    0.2703 N   0  0  0  0  0  0  0  0  0  0  0  0
    3.6051    2.5487    0.2475 H   0  0  0  0  0  0  0  0  0  0  0  0
    2.3441    3.7600    0.4945 H   0  0  0  0  0  0  0  0  0  0  0  0
   -0.0637    0.1284    1.8555 C   0  0  0  0  0  0  0  0  0  0  0  0
    1.0918   -0.0745    2.2236 O   0  0  0  0  0  0  0  0  0  0  0  0
   -1.0024    0.6217    2.6735 N   0  0  0  0  0  0  0  0  0  0  0  0
   -1.9213    0.7848    2.2938 H   0  0  0  0  0  0  0  0  0  0  0  0
   -0.7639    0.9676    4.0741 C   0  0  0  0  0  0  0  0  0  0  0  0
    0.0520    1.6916    4.1400 H   0  0  0  0  0  0  0  0  0  0  0  0
   -1.6626    1.3984    4.5182 H   0  0  0  0  0  0  0  0  0  0  0  0
   -0.4775    0.0737    4.6309 H   0  0  0  0  0  0  0  0  0  0  0  0
  5  6  2  0  0  0  0
  5  7  1  0  0  0  0
  2  3  1  0  0  0  0
  2  4  1  0  0  0  0
  2  5  1  0  0  0  0
  1  2  1  0  0  0  0
 22 23  2  0  0  0  0
 22 24  1  0  0  0  0
 19 20  1  0  0  0  0
 19 21  1  0  0  0  0
 17 18  2  0  0  0  0
 17 19  1  0  0  0  0
 14 15  1  0  0  0  0
 14 16  1  0  0  0  0
 14 17  1  0  0  0  0
 11 12  1  0  0  0  0
 11 13  1  0  0  0  0
 11 14  1  0  0  0  0
  9 10  1  0  0  0  0
  9 11  1  0  0  0  0
  9 22  1  0  0  0  0
  7  8  1  0  0  0  0
  7  9  1  0  0  0  0
 26 27  1  0  0  0  0
 26 28  1  0  0  0  0
 26 29  1  0  0  0  0
 24 25  1  0  0  0  0
 24 26  1  0  0  0  0
M  END
$$$$
default_name
  -OEChem-02102213163D

 29 28  0     1  0  0  0  0  0999 V2000
   -3.3998   -3.6239    1.3678 H   0  0  0  0  0  0  0  0  0  0  0  0
   -3.3608   -2.6749    0.8348 C   0  0  0  0  0  0  0  0  0  0  0  0
   -4.0988   -1.9909    1.2498 H   0  0  0  0  0  0  0  0  0  0  0  0
   -3.5618   -2.8419   -0.2222 H   0  0  0  0  0  0  0  0  0  0  0  0
   -1.9818   -2.0809    0.9918 C   0  0  0  0  0  0  0  0  0  0  0  0
   -1.1288   -2.6669    1.6468 O   0  0  0  0  0  0  0  0  0  0  0  0
   -1.7648   -0.9089    0.3998 N   0  0  0  0  0  0  0  0  0  0  0  0
   -2.5238   -0.4719   -0.1032 H   0  0  0  0  0  0  0  0  0  0  0  0
   -0.4848   -0.1959    0.4138 C   0  0  1  0  0  0  0  0  0  0  0  0
    0.2783   -0.8411   -0.0248 H   0  0  0  0  0  0  0  0  0  0  0  0
   -0.6101    1.0666   -0.4611 C   0  0  0  0  0  0  0  0  0  0  0  0
   -0.3379    0.8031   -1.4853 H   0  0  0  0  0  0  0  0  0  0  0  0
   -1.6491    1.3998   -0.4593 H   0  0  0  0  0  0  0  0  0  0  0  0
    0.2863    2.2311   -0.0054 C   0  0  0  0  0  0  0  0  0  0  0  0
   -0.0459    3.1561   -0.4763 H   0  0  0  0  0  0  0  0  0  0  0  0
    0.2015    2.3408    1.0757 H   0  0  0  0  0  0  0  0  0  0  0  0
    1.7607    2.0271   -0.3538 C   0  0  0  0  0  0  0  0  0  0  0  0
    2.1922    1.0130   -0.8694 O   0  0  0  0  0  0  0  0  0  0  0  0
    2.6064    2.9995   -0.0905 N   0  0  0  0  0  0  0  0  0  0  0  0
    3.5618    2.8122   -0.3407 H   0  0  0  0  0  0  0  0  0  0  0  0
    2.3044    3.8548    0.3302 H   0  0  0  0  0  0  0  0  0  0  0  0
   -0.0637    0.1284    1.8555 C   0  0  0  0  0  0  0  0  0  0  0  0
    1.0918   -0.0745    2.2236 O   0  0  0  0  0  0  0  0  0  0  0  0
   -1.0024    0.6217    2.6735 N   0  0  0  0  0  0  0  0  0  0  0  0
   -1.9213    0.7848    2.2938 H   0  0  0  0  0  0  0  0  0  0  0  0
   -0.7639    0.9676    4.0741 C   0  0  0  0  0  0  0  0  0  0  0  0
    0.0520    1.6916    4.1400 H   0  0  0  0  0  0  0  0  0  0  0  0
   -1.6626    1.3984    4.5182 H   0  0  0  0  0  0  0  0  0  0  0  0
   -0.4775    0.0737    4.6309 H   0  0  0  0  0  0  0  0  0  0  0  0
  5  6  2  0  0  0  0
  5  7  1  0  0  0  0
  2  3  1  0  0  0  0
  2  4  1  0  0  0  0
  2  5  1  0  0  0  0
  1  2  1  0  0  0  0
 22 23  2  0  0  0  0
 22 24  1  0  0  0  0
 19 20  1  0  0  0  0
 19 21  1  0  0  0  0
 17 18  2  0  0  0  0
 17 19  1  0  0  0  0
 14 15  1  0  0  0  0
 14 16  1  0  0  0  0
 14 17  1  0  0  0  0
 11 12  1  0  0  0  0
 11 13  1  0  0  0  0
 11 14  1  0  0  0  0
  9 10  1  0  0  0  0
  9 11  1  0  0  0  0
  9 22  1  0  0  0  0
  7  8  1  0  0  0  0
  7  9  1  0  0  0  0
 26 27  1  0  0  0  0
 26 28  1  0  0  0  0
 26 29  1  0  0  0  0
 24 25  1  0  0  0  0
 24 26  1  0  0  0  0
M  END
$$$$
default_name
  -OEChem-02102213163D

 29 28  0     1  0  0  0  0  0999 V2000
   -3.3998   -3.6239    1.3678 H   0  0  0  0  0  0  0  0  0  0  0  0
   -3.3608   -2.6749    0.8348 C   0  0  0  0  0  0  0  0  0  0  0  0
   -4.0988   -1.9909    1.2498 H   0  0  0  0  0  0  0  0  0  0  0  0
   -3.5618   -2.8419   -0.2222 H   0  0  0  0  0  0  0  0  0  0  0  0
   -1.9818   -2.0809    0.9918 C   0  0  0  0  0  0  0  0  0  0  0  0
   -1.1288   -2.6669    1.6468 O   0  0  0  0  0  0  0  0  0  0  0  0
   -1.7648   -0.9089    0.3998 N   0  0  0  0  0  0  0  0  0  0  0  0
   -2.5238   -0.4719   -0.1032 H   0  0  0  0  0  0  0  0  0  0  0  0
   -0.4848   -0.1959    0.4138 C   0  0  1  0  0  0  0  0  0  0  0  0
    0.2783   -0.8411   -0.0248 H   0  0  0  0  0  0  0  0  0  0  0  0
   -0.6101    1.0666   -0.4611 C   0  0  0  0  0  0  0  0  0  0  0  0
   -0.3379    0.8031   -1.4853 H   0  0  0  0  0  0  0  0  0  0  0  0
   -1.6491    1.3998   -0.4593 H   0  0  0  0  0  0  0  0  0  0  0  0
    0.2863    2.2311   -0.0054 C   0  0  0  0  0  0  0  0  0  0  0  0
   -0.1904    3.1796   -0.2520 H   0  0  0  0  0  0  0  0  0  0  0  0
    0.4148    2.1767    1.0755 H   0  0  0  0  0  0  0  0  0  0  0  0
    1.6698    2.2151   -0.6554 C   0  0  0  0  0  0  0  0  0  0  0  0
    2.0501    1.3291   -1.3977 O   0  0  0  0  0  0  0  0  0  0  0  0
    2.4897    3.2132   -0.4069 N   0  0  0  0  0  0  0  0  0  0  0  0
    3.3847    3.1520   -0.8606 H   0  0  0  0  0  0  0  0  0  0  0  0
    2.2267    3.9681    0.1935 H   0  0  0  0  0  0  0  0  0  0  0  0
   -0.0637    0.1284    1.8555 C   0  0  0  0  0  0  0  0  0  0  0  0
    1.0918   -0.0745    2.2236 O   0  0  0  0  0  0  0  0  0  0  0  0
   -1.0024    0.6217    2.6735 N   0  0  0  0  0  0  0  0  0  0  0  0
   -1.9213    0.7848    2.2938 H   0  0  0  0  0  0  0  0  0  0  0  0
   -0.7639    0.9676    4.0741 C   0  0  0  0  0  0  0  0  0  0  0  0
    0.0520    1.6916    4.1400 H   0  0  0  0  0  0  0  0  0  0  0  0
   -1.6626    1.3984    4.5182 H   0  0  0  0  0  0  0  0  0  0  0  0
   -0.4775    0.0737    4.6309 H   0  0  0  0  0  0  0  0  0  0  0  0
  5  6  2  0  0  0  0
  5  7  1  0  0  0  0
  2  3  1  0  0  0  0
  2  4  1  0  0  0  0
  2  5  1  0  0  0  0
  1  2  1  0  0  0  0
 22 23  2  0  0  0  0
 22 24  1  0  0  0  0
 19 20  1  0  0  0  0
 19 21  1  0  0  0  0
 17 18  2  0  0  0  0
 17 19  1  0  0  0  0
 14 15  1  0  0  0  0
 14 16  1  0  0  0  0
 14 17  1  0  0  0  0
 11 12  1  0  0  0  0
 11 13  1  0  0  0  0
 11 14  1  0  0  0  0
  9 10  1  0  0  0  0
  9 11  1  0  0  0  0
  9 22  1  0  0  0  0
  7  8  1  0  0  0  0
  7  9  1  0  0  0  0
 26 27  1  0  0  0  0
 26 28  1  0  0  0  0
 26 29  1  0  0  0  0
 24 25  1  0  0  0  0
 24 26  1  0  0  0  0
M  END
$$$$
default_name
  -OEChem-02102213163D

 29 28  0     1  0  0  0  0  0999 V2000
   -3.3998   -3.6239    1.3678 H   0  0  0  0  0  0  0  0  0  0  0  0
   -3.3608   -2.6749    0.8348 C   0  0  0  0  0  0  0  0  0  0  0  0
   -4.0988   -1.9909    1.2498 H   0  0  0  0  0  0  0  0  0  0  0  0
   -3.5618   -2.8419   -0.2222 H   0  0  0  0  0  0  0  0  0  0  0  0
   -1.9818   -2.0809    0.9918 C   0  0  0  0  0  0  0  0  0  0  0  0
   -1.1288   -2.6669    1.6468 O   0  0  0  0  0  0  0  0  0  0  0  0
   -1.7648   -0.9089    0.3998 N   0  0  0  0  0  0  0  0  0  0  0  0
   -2.5238   -0.4719   -0.1032 H   0  0  0  0  0  0  0  0  0  0  0  0
   -0.4848   -0.1959    0.4138 C   0  0  1  0  0  0  0  0  0  0  0  0
    0.2783   -0.8411   -0.0248 H   0  0  0  0  0  0  0  0  0  0  0  0
   -0.6101    1.0666   -0.4611 C   0  0  0  0  0  0  0  0  0  0  0  0
   -0.3379    0.8031   -1.4853 H   0  0  0  0  0  0  0  0  0  0  0  0
   -1.6491    1.3998   -0.4593 H   0  0  0  0  0  0  0  0  0  0  0  0
    0.2863    2.2311   -0.0054 C   0  0  0  0  0  0  0  0  0  0  0  0
   -0.2879    3.1574   -0.0035 H   0  0  0  0  0  0  0  0  0  0  0  0
    0.6334    2.0345    1.0089 H   0  0  0  0  0  0  0  0  0  0  0  0
    1.5085    2.4352   -0.9006 C   0  0  0  0  0  0  0  0  0  0  0  0
    1.7851    1.7033   -1.8325 O   0  0  0  0  0  0  0  0  0  0  0  0
    2.2986    3.4583   -0.6575 N   0  0  0  0  0  0  0  0  0  0  0  0
    3.0857    3.5450   -1.2768 H   0  0  0  0  0  0  0  0  0  0  0  0
    2.1161    4.0922    0.0939 H   0  0  0  0  0  0  0  0  0  0  0  0
   -0.0637    0.1284    1.8555 C   0  0  0  0  0  0  0  0  0  0  0  0
    1.0918   -0.0745    2.2236 O   0  0  0  0  0  0  0  0  0  0  0  0
   -1.0024    0.6217    2.6735 N   0  0  0  0  0  0  0  0  0  0  0  0
   -1.9213    0.7848    2.2938 H   0  0  0  0  0  0  0  0  0  0  0  0
   -0.7639    0.9676    4.0741 C   0  0  0  0  0  0  0  0  0  0  0  0
    0.0520    1.6916    4.1400 H   0  0  0  0  0  0  0  0  0  0  0  0
   -1.6626    1.3984    4.5182 H   0  0  0  0  0  0  0  0  0  0  0  0
   -0.4775    0.0737    4.6309 H   0  0  0  0  0  0  0  0  0  0  0  0
  5  6  2  0  0  0  0
  5  7  1  0  0  0  0
  2  3  1  0  0  0  0
  2  4  1  0  0  0  0
  2  5  1  0  0  0  0
  1  2  1  0  0  0  0
 22 23  2  0  0  0  0
 22 24  1  0  0  0  0
 19 20  1  0  0  0  0
 19 21  1  0  0  0  0
 17 18  2  0  0  0  0
 17 19  1  0  0  0  0
 14 15  1  0  0  0  0
 14 16  1  0  0  0  0
 14 17  1  0  0  0  0
 11 12  1  0  0  0  0
 11 13  1  0  0  0  0
 11 14  1  0  0  0  0
  9 10  1  0  0  0  0
  9 11  1  0  0  0  0
  9 22  1  0  0  0  0
  7  8  1  0  0  0  0
  7  9  1  0  0  0  0
 26 27  1  0  0  0  0
 26 28  1  0  0  0  0
 26 29  1  0  0  0  0
 24 25  1  0  0  0  0
 24 26  1  0  0  0  0
M  END
$$$$
default_name
  -OEChem-02102213163D

 29 28  0     1  0  0  0  0  0999 V2000
   -3.3998   -3.6239    1.3678 H   0  0  0  0  0  0  0  0  0  0  0  0
   -3.3608   -2.6749    0.8348 C   0  0  0  0  0  0  0  0  0  0  0  0
   -4.0988   -1.9909    1.2498 H   0  0  0  0  0  0  0  0  0  0  0  0
   -3.5618   -2.8419   -0.2222 H   0  0  0  0  0  0  0  0  0  0  0  0
   -1.9818   -2.0809    0.9918 C   0  0  0  0  0  0  0  0  0  0  0  0
   -1.1288   -2.6669    1.6468 O   0  0  0  0  0  0  0  0  0  0  0  0
   -1.7648   -0.9089    0.3998 N   0  0  0  0  0  0  0  0  0  0  0  0
   -2.5238   -0.4719   -0.1032 H   0  0  0  0  0  0  0  0  0  0  0  0
   -0.4848   -0.1959    0.4138 C   0  0  1  0  0  0  0  0  0  0  0  0
    0.2783   -0.8411   -0.0248 H   0  0  0  0  0  0  0  0  0  0  0  0
   -0.6101    1.0666   -0.4611 C   0  0  0  0  0  0  0  0  0  0  0  0
   -0.3379    0.8031   -1.4853 H   0  0  0  0  0  0  0  0  0  0  0  0
   -1.6491    1.3998   -0.4593 H   0  0  0  0  0  0  0  0  0  0  0  0
    0.2863    2.2311   -0.0054 C   0  0  0  0  0  0  0  0  0  0  0  0
   -0.3316    3.0910    0.2523 H   0  0  0  0  0  0  0  0  0  0  0  0
    0.8424    1.9239    0.8803 H   0  0  0  0  0  0  0  0  0  0  0  0
    1.2878    2.6724   -1.0727 C   0  0  0  0  0  0  0  0  0  0  0  0
    1.4152    2.1099   -2.1441 O   0  0  0  0  0  0  0  0  0  0  0  0
    2.0461    3.7183   -0.8252 N   0  0  0  0  0  0  0  0  0  0  0  0
    2.6852    3.9645   -1.5610 H   0  0  0  0  0  0  0  0  0  0  0  0
    1.9803    4.2186    0.0380 H   0  0  0  0  0  0  0  0  0  0  0  0
   -0.0637    0.1284    1.8555 C   0  0  0  0  0  0  0  0  0  0  0  0
    1.0918   -0.0745    2.2236 O   0  0  0  0  0  0  0  0  0  0  0  0
   -1.0024    0.6217    2.6735 N   0  0  0  0  0  0  0  0  0  0  0  0
   -1.9213    0.7848    2.2938 H   0  0  0  0  0  0  0  0  0  0  0  0
   -0.7639    0.9676    4.0741 C   0  0  0  0  0  0  0  0  0  0  0  0
    0.0520    1.6916    4.1400 H   0  0  0  0  0  0  0  0  0  0  0  0
   -1.6626    1.3984    4.5182 H   0  0  0  0  0  0  0  0  0  0  0  0
   -0.4775    0.0737    4.6309 H   0  0  0  0  0  0  0  0  0  0  0  0
  5  6  2  0  0  0  0
  5  7  1  0  0  0  0
  2  3  1  0  0  0  0
  2  4  1  0  0  0  0
  2  5  1  0  0  0  0
  1  2  1  0  0  0  0
 22 23  2  0  0  0  0
 22 24  1  0  0  0  0
 19 20  1  0  0  0  0
 19 21  1  0  0  0  0
 17 18  2  0  0  0  0
 17 19  1  0  0  0  0
 14 15  1  0  0  0  0
 14 16  1  0  0  0  0
 14 17  1  0  0  0  0
 11 12  1  0  0  0  0
 11 13  1  0  0  0  0
 11 14  1  0  0  0  0
  9 10  1  0  0  0  0
  9 11  1  0  0  0  0
  9 22  1  0  0  0  0
  7  8  1  0  0  0  0
  7  9  1  0  0  0  0
 26 27  1  0  0  0  0
 26 28  1  0  0  0  0
 26 29  1  0  0  0  0
 24 25  1  0  0  0  0
 24 26  1  0  0  0  0
M  END
$$$$
default_name
  -OEChem-02102213163D

 29 28  0     1  0  0  0  0  0999 V2000
   -3.3998   -3.6239    1.3678 H   0  0  0  0  0  0  0  0  0  0  0  0
   -3.3608   -2.6749    0.8348 C   0  0  0  0  0  0  0  0  0  0  0  0
   -4.0988   -1.9909    1.2498 H   0  0  0  0  0  0  0  0  0  0  0  0
   -3.5618   -2.8419   -0.2222 H   0  0  0  0  0  0  0  0  0  0  0  0
   -1.9818   -2.0809    0.9918 C   0  0  0  0  0  0  0  0  0  0  0  0
   -1.1288   -2.6669    1.6468 O   0  0  0  0  0  0  0  0  0  0  0  0
   -1.7648   -0.9089    0.3998 N   0  0  0  0  0  0  0  0  0  0  0  0
   -2.5238   -0.4719   -0.1032 H   0  0  0  0  0  0  0  0  0  0  0  0
   -0.4848   -0.1959    0.4138 C   0  0  1  0  0  0  0  0  0  0  0  0
    0.2783   -0.8411   -0.0248 H   0  0  0  0  0  0  0  0  0  0  0  0
   -0.6101    1.0666   -0.4611 C   0  0  0  0  0  0  0  0  0  0  0  0
   -0.3379    0.8031   -1.4853 H   0  0  0  0  0  0  0  0  0  0  0  0
   -1.6491    1.3998   -0.4593 H   0  0  0  0  0  0  0  0  0  0  0  0
    0.2863    2.2311   -0.0054 C   0  0  0  0  0  0  0  0  0  0  0  0
   -0.3187    2.9849    0.4979 H   0  0  0  0  0  0  0  0  0  0  0  0
    1.0275    1.8526    0.6984 H   0  0  0  0  0  0  0  0  0  0  0  0
    1.0227    2.9106   -1.1599 C   0  0  0  0  0  0  0  0  0  0  0  0
    0.9658    2.5213   -2.3113 O   0  0  0  0  0  0  0  0  0  0  0  0
    1.7495    3.9753   -0.8985 N   0  0  0  0  0  0  0  0  0  0  0  0
    2.2105    4.3819   -1.6938 H   0  0  0  0  0  0  0  0  0  0  0  0
    1.8285    4.3388    0.0296 H   0  0  0  0  0  0  0  0  0  0  0  0
   -0.0637    0.1284    1.8555 C   0  0  0  0  0  0  0  0  0  0  0  0
    1.0918   -0.0745    2.2236 O   0  0  0  0  0  0  0  0  0  0  0  0
   -1.0024    0.6217    2.6735 N   0  0  0  0  0  0  0  0  0  0  0  0
   -1.9213    0.7848    2.2938 H   0  0  0  0  0  0  0  0  0  0  0  0
   -0.7639    0.9676    4.0741 C   0  0  0  0  0  0  0  0  0  0  0  0
    0.0520    1.6916    4.1400 H   0  0  0  0  0  0  0  0  0  0  0  0
   -1.6626    1.3984    4.5182 H   0  0  0  0  0  0  0  0  0  0  0  0
   -0.4775    0.0737    4.6309 H   0  0  0  0  0  0  0  0  0  0  0  0
  5  6  2  0  0  0  0
  5  7  1  0  0  0  0
  2  3  1  0  0  0  0
  2  4  1  0  0  0  0
  2  5  1  0  0  0  0
  1  2  1  0  0  0  0
 22 23  2  0  0  0  0
 22 24  1  0  0  0  0
 19 20  1  0  0  0  0
 19 21  1  0  0  0  0
 17 18  2  0  0  0  0
 17 19  1  0  0  0  0
 14 15  1  0  0  0  0
 14 16  1  0  0  0  0
 14 17  1  0  0  0  0
 11 12  1  0  0  0  0
 11 13  1  0  0  0  0
 11 14  1  0  0  0  0
  9 10  1  0  0  0  0
  9 11  1  0  0  0  0
  9 22  1  0  0  0  0
  7  8  1  0  0  0  0
  7  9  1  0  0  0  0
 26 27  1  0  0  0  0
 26 28  1  0  0  0  0
 26 29  1  0  0  0  0
 24 25  1  0  0  0  0
 24 26  1  0  0  0  0
M  END
$$$$
default_name
  -OEChem-02102213163D

 29 28  0     1  0  0  0  0  0999 V2000
   -3.3998   -3.6239    1.3678 H   0  0  0  0  0  0  0  0  0  0  0  0
   -3.3608   -2.6749    0.8348 C   0  0  0  0  0  0  0  0  0  0  0  0
   -4.0988   -1.9909    1.2498 H   0  0  0  0  0  0  0  0  0  0  0  0
   -3.5618   -2.8419   -0.2222 H   0  0  0  0  0  0  0  0  0  0  0  0
   -1.9818   -2.0809    0.9918 C   0  0  0  0  0  0  0  0  0  0  0  0
   -1.1288   -2.6669    1.6468 O   0  0  0  0  0  0  0  0  0  0  0  0
   -1.7648   -0.9089    0.3998 N   0  0  0  0  0  0  0  0  0  0  0  0
   -2.5238   -0.4719   -0.1032 H   0  0  0  0  0  0  0  0  0  0  0  0
   -0.4848   -0.1959    0.4138 C   0  0  1  0  0  0  0  0  0  0  0  0
    0.2783   -0.8411   -0.0248 H   0  0  0  0  0  0  0  0  0  0  0  0
   -0.6101    1.0666   -0.4611 C   0  0  0  0  0  0  0  0  0  0  0  0
   -0.3379    0.8031   -1.4853 H   0  0  0  0  0  0  0  0  0  0  0  0
   -1.6491    1.3998   -0.4593 H   0  0  0  0  0  0  0  0  0  0  0  0
    0.2863    2.2311   -0.0054 C   0  0  0  0  0  0  0  0  0  0  0  0
   -0.2500    2.8464    0.7167 H   0  0  0  0  0  0  0  0  0  0  0  0
    1.1761    1.8253    0.4757 H   0  0  0  0  0  0  0  0  0  0  0  0
    0.7313    3.1335   -1.1563 C   0  0  0  0  0  0  0  0  0  0  0  0
    0.4673    2.9095   -2.3228 O   0  0  0  0  0  0  0  0  0  0  0  0
    1.4289    4.2119   -0.8724 N   0  0  0  0  0  0  0  0  0  0  0  0
    1.6940    4.7687   -1.6662 H   0  0  0  0  0  0  0  0  0  0  0  0
    1.6709    4.4445    0.0695 H   0  0  0  0  0  0  0  0  0  0  0  0
   -0.0637    0.1284    1.8555 C   0  0  0  0  0  0  0  0  0  0  0  0
    1.0918   -0.0745    2.2236 O   0  0  0  0  0  0  0  0  0  0  0  0
   -1.0024    0.6217    2.6735 N   0  0  0  0  0  0  0  0  0  0  0  0
   -1.9213    0.7848    2.2938 H   0  0  0  0  0  0  0  0  0  0  0  0
   -0.7639    0.9676    4.0741 C   0  0  0  0  0  0  0  0  0  0  0  0
    0.0520    1.6916    4.1400 H   0  0  0  0  0  0  0  0  0  0  0  0
   -1.6626    1.3984    4.5182 H   0  0  0  0  0  0  0  0  0  0  0  0
   -0.4775    0.0737    4.6309 H   0  0  0  0  0  0  0  0  0  0  0  0
  5  6  2  0  0  0  0
  5  7  1  0  0  0  0
  2  3  1  0  0  0  0
  2  4  1  0  0  0  0
  2  5  1  0  0  0  0
  1  2  1  0  0  0  0
 22 23  2  0  0  0  0
 22 24  1  0  0  0  0
 19 20  1  0  0  0  0
 19 21  1  0  0  0  0
 17 18  2  0  0  0  0
 17 19  1  0  0  0  0
 14 15  1  0  0  0  0
 14 16  1  0  0  0  0
 14 17  1  0  0  0  0
 11 12  1  0  0  0  0
 11 13  1  0  0  0  0
 11 14  1  0  0  0  0
  9 10  1  0  0  0  0
  9 11  1  0  0  0  0
  9 22  1  0  0  0  0
  7  8  1  0  0  0  0
  7  9  1  0  0  0  0
 26 27  1  0  0  0  0
 26 28  1  0  0  0  0
 26 29  1  0  0  0  0
 24 25  1  0  0  0  0
 24 26  1  0  0  0  0
M  END
$$$$
default_name
  -OEChem-02102213163D

 29 28  0     1  0  0  0  0  0999 V2000
   -3.3998   -3.6239    1.3678 H   0  0  0  0  0  0  0  0  0  0  0  0
   -3.3608   -2.6749    0.8348 C   0  0  0  0  0  0  0  0  0  0  0  0
   -4.0988   -1.9909    1.2498 H   0  0  0  0  0  0  0  0  0  0  0  0
   -3.5618   -2.8419   -0.2222 H   0  0  0  0  0  0  0  0  0  0  0  0
   -1.9818   -2.0809    0.9918 C   0  0  0  0  0  0  0  0  0  0  0  0
   -1.1288   -2.6669    1.6468 O   0  0  0  0  0  0  0  0  0  0  0  0
   -1.7648   -0.9089    0.3998 N   0  0  0  0  0  0  0  0  0  0  0  0
   -2.5238   -0.4719   -0.1032 H   0  0  0  0  0  0  0  0  0  0  0  0
   -0.4848   -0.1959    0.4138 C   0  0  1  0  0  0  0  0  0  0  0  0
    0.2783   -0.8411   -0.0248 H   0  0  0  0  0  0  0  0  0  0  0  0
   -0.6101    1.0666   -0.4611 C   0  0  0  0  0  0  0  0  0  0  0  0
   -0.3379    0.8031   -1.4853 H   0  0  0  0  0  0  0  0  0  0  0  0
   -1.6491    1.3998   -0.4593 H   0  0  0  0  0  0  0  0  0  0  0  0
    0.2863    2.2311   -0.0054 C   0  0  0  0  0  0  0  0  0  0  0  0
   -0.1301    2.6849    0.8936 H   0  0  0  0  0  0  0  0  0  0  0  0
    1.2782    1.8439    0.2274 H   0  0  0  0  0  0  0  0  0  0  0  0
    0.4335    3.3259   -1.0621 C   0  0  0  0  0  0  0  0  0  0  0  0
   -0.0461    3.2480   -2.1776 O   0  0  0  0  0  0  0  0  0  0  0  0
    1.1062    4.4119   -0.7487 N   0  0  0  0  0  0  0  0  0  0  0  0
    1.1709    5.0986   -1.4800 H   0  0  0  0  0  0  0  0  0  0  0  0
    1.5185    4.5285    0.1547 H   0  0  0  0  0  0  0  0  0  0  0  0
   -0.0637    0.1284    1.8555 C   0  0  0  0  0  0  0  0  0  0  0  0
    1.0918   -0.0745    2.2236 O   0  0  0  0  0  0  0  0  0  0  0  0
   -1.0024    0.6217    2.6735 N   0  0  0  0  0  0  0  0  0  0  0  0
   -1.9213    0.7848    2.2938 H   0  0  0  0  0  0  0  0  0  0  0  0
   -0.7639    0.9676    4.0741 C   0  0  0  0  0  0  0  0  0  0  0  0
    0.0520    1.6916    4.1400 H   0  0  0  0  0  0  0  0  0  0  0  0
   -1.6626    1.3984    4.5182 H   0  0  0  0  0  0  0  0  0  0  0  0
   -0.4775    0.0737    4.6309 H   0  0  0  0  0  0  0  0  0  0  0  0
  5  6  2  0  0  0  0
  5  7  1  0  0  0  0
  2  3  1  0  0  0  0
  2  4  1  0  0  0  0
  2  5  1  0  0  0  0
  1  2  1  0  0  0  0
 22 23  2  0  0  0  0
 22 24  1  0  0  0  0
 19 20  1  0  0  0  0
 19 21  1  0  0  0  0
 17 18  2  0  0  0  0
 17 19  1  0  0  0  0
 14 15  1  0  0  0  0
 14 16  1  0  0  0  0
 14 17  1  0  0  0  0
 11 12  1  0  0  0  0
 11 13  1  0  0  0  0
 11 14  1  0  0  0  0
  9 10  1  0  0  0  0
  9 11  1  0  0  0  0
  9 22  1  0  0  0  0
  7  8  1  0  0  0  0
  7  9  1  0  0  0  0
 26 27  1  0  0  0  0
 26 28  1  0  0  0  0
 26 29  1  0  0  0  0
 24 25  1  0  0  0  0
 24 26  1  0  0  0  0
M  END
$$$$
default_name
  -OEChem-02102213163D

 29 28  0     1  0  0  0  0  0999 V2000
   -3.3998   -3.6239    1.3678 H   0  0  0  0  0  0  0  0  0  0  0  0
   -3.3608   -2.6749    0.8348 C   0  0  0  0  0  0  0  0  0  0  0  0
   -4.0988   -1.9909    1.2498 H   0  0  0  0  0  0  0  0  0  0  0  0
   -3.5618   -2.8419   -0.2222 H   0  0  0  0  0  0  0  0  0  0  0  0
   -1.9818   -2.0809    0.9918 C   0  0  0  0  0  0  0  0  0  0  0  0
   -1.1288   -2.6669    1.6468 O   0  0  0  0  0  0  0  0  0  0  0  0
   -1.7648   -0.9089    0.3998 N   0  0  0  0  0  0  0  0  0  0  0  0
   -2.5238   -0.4719   -0.1032 H   0  0  0  0  0  0  0  0  0  0  0  0
   -0.4848   -0.1959    0.4138 C   0  0  1  0  0  0  0  0  0  0  0  0
    0.2783   -0.8411   -0.0248 H   0  0  0  0  0  0  0  0  0  0  0  0
   -0.6101    1.0666   -0.4611 C   0  0  0  0  0  0  0  0  0  0  0  0
   -0.6040    0.7601   -1.5092 H   0  0  0  0  0  0  0  0  0  0  0  0
   -1.5653    1.5510   -0.2530 H   0  0  0  0  0  0  0  0  0  0  0  0
    0.5218    2.0867   -0.2476 C   0  0  0  0  0  0  0  0  0  0  0  0
    0.5356    2.4071    0.7939 H   0  0  0  0  0  0  0  0  0  0  0  0
    1.4749    1.6110   -0.4783 H   0  0  0  0  0  0  0  0  0  0  0  0
    0.3819    3.3322   -1.1227 C   0  0  0  0  0  0  0  0  0  0  0  0
   -0.4923    3.4683   -1.9581 O   0  0  0  0  0  0  0  0  0  0  0  0
    1.2452    4.3113   -0.9606 N   0  0  0  0  0  0  0  0  0  0  0  0
    1.1059    5.1055   -1.5609 H   0  0  0  0  0  0  0  0  0  0  0  0
    1.9813    4.2523   -0.2865 H   0  0  0  0  0  0  0  0  0  0  0  0
   -0.0637    0.1284    1.8555 C   0  0  0  0  0  0  0  0  0  0  0  0
    1.0918   -0.0745    2.2236 O   0  0  0  0  0  0  0  0  0  0  0  0
   -1.0024    0.6217    2.6735 N   0  0  0  0  0  0  0  0  0  0  0  0
   -1.9213    0.7848    2.2938 H   0  0  0  0  0  0  0  0  0  0  0  0
   -0.7639    0.9676    4.0741 C   0  0  0  0  0  0  0  0  0  0  0  0
    0.0520    1.6916    4.1400 H   0  0  0  0  0  0  0  0  0  0  0  0
   -1.6626    1.3984    4.5182 H   0  0  0  0  0  0  0  0  0  0  0  0
   -0.4775    0.0737    4.6309 H   0  0  0  0  0  0  0  0  0  0  0  0
  5  6  2  0  0  0  0
  5  7  1  0  0  0  0
  2  3  1  0  0  0  0
  2  4  1  0  0  0  0
  2  5  1  0  0  0  0
  1  2  1  0  0  0  0
 22 23  2  0  0  0  0
 22 24  1  0  0  0  0
 19 20  1  0  0  0  0
 19 21  1  0  0  0  0
 17 18  2  0  0  0  0
 17 19  1  0  0  0  0
 14 15  1  0  0  0  0
 14 16  1  0  0  0  0
 14 17  1  0  0  0  0
 11 12  1  0  0  0  0
 11 13  1  0  0  0  0
 11 14  1  0  0  0  0
  9 10  1  0  0  0  0
  9 11  1  0  0  0  0
  9 22  1  0  0  0  0
  7  8  1  0  0  0  0
  7  9  1  0  0  0  0
 26 27  1  0  0  0  0
 26 28  1  0  0  0  0
 26 29  1  0  0  0  0
 24 25  1  0  0  0  0
 24 26  1  0  0  0  0
M  END
$$$$
default_name
  -OEChem-02102213163D

 29 28  0     1  0  0  0  0  0999 V2000
   -3.3998   -3.6239    1.3678 H   0  0  0  0  0  0  0  0  0  0  0  0
   -3.3608   -2.6749    0.8348 C   0  0  0  0  0  0  0  0  0  0  0  0
   -4.0988   -1.9909    1.2498 H   0  0  0  0  0  0  0  0  0  0  0  0
   -3.5618   -2.8419   -0.2222 H   0  0  0  0  0  0  0  0  0  0  0  0
   -1.9818   -2.0809    0.9918 C   0  0  0  0  0  0  0  0  0  0  0  0
   -1.1288   -2.6669    1.6468 O   0  0  0  0  0  0  0  0  0  0  0  0
   -1.7648   -0.9089    0.3998 N   0  0  0  0  0  0  0  0  0  0  0  0
   -2.5238   -0.4719   -0.1032 H   0  0  0  0  0  0  0  0  0  0  0  0
   -0.4848   -0.1959    0.4138 C   0  0  1  0  0  0  0  0  0  0  0  0
    0.2783   -0.8411   -0.0248 H   0  0  0  0  0  0  0  0  0  0  0  0
   -0.6101    1.0666   -0.4611 C   0  0  0  0  0  0  0  0  0  0  0  0
   -0.6040    0.7601   -1.5092 H   0  0  0  0  0  0  0  0  0  0  0  0
   -1.5653    1.5510   -0.2530 H   0  0  0  0  0  0  0  0  0  0  0  0
    0.5218    2.0867   -0.2476 C   0  0  0  0  0  0  0  0  0  0  0  0
    0.7116    2.2066    0.8188 H   0  0  0  0  0  0  0  0  0  0  0  0
    1.4288    1.7133   -0.7229 H   0  0  0  0  0  0  0  0  0  0  0  0
    0.2068    3.4649   -0.8289 C   0  0  0  0  0  0  0  0  0  0  0  0
   -0.8025    3.7090   -1.4631 O   0  0  0  0  0  0  0  0  0  0  0  0
    1.0661    4.4403   -0.6278 N   0  0  0  0  0  0  0  0  0  0  0  0
    0.8087    5.3244   -1.0310 H   0  0  0  0  0  0  0  0  0  0  0  0
    1.9099    4.2949   -0.1115 H   0  0  0  0  0  0  0  0  0  0  0  0
   -0.0637    0.1284    1.8555 C   0  0  0  0  0  0  0  0  0  0  0  0
    1.0918   -0.0745    2.2236 O   0  0  0  0  0  0  0  0  0  0  0  0
   -1.0024    0.6217    2.6735 N   0  0  0  0  0  0  0  0  0  0  0  0
   -1.9213    0.7848    2.2938 H   0  0  0  0  0  0  0  0  0  0  0  0
   -0.7639    0.9676    4.0741 C   0  0  0  0  0  0  0  0  0  0  0  0
    0.0520    1.6916    4.1400 H   0  0  0  0  0  0  0  0  0  0  0  0
   -1.6626    1.3984    4.5182 H   0  0  0  0  0  0  0  0  0  0  0  0
   -0.4775    0.0737    4.6309 H   0  0  0  0  0  0  0  0  0  0  0  0
  5  6  2  0  0  0  0
  5  7  1  0  0  0  0
  2  3  1  0  0  0  0
  2  4  1  0  0  0  0
  2  5  1  0  0  0  0
  1  2  1  0  0  0  0
 22 23  2  0  0  0  0
 22 24  1  0  0  0  0
 19 20  1  0  0  0  0
 19 21  1  0  0  0  0
 17 18  2  0  0  0  0
 17 19  1  0  0  0  0
 14 15  1  0  0  0  0
 14 16  1  0  0  0  0
 14 17  1  0  0  0  0
 11 12  1  0  0  0  0
 11 13  1  0  0  0  0
 11 14  1  0  0  0  0
  9 10  1  0  0  0  0
  9 11  1  0  0  0  0
  9 22  1  0  0  0  0
  7  8  1  0  0  0  0
  7  9  1  0  0  0  0
 26 27  1  0  0  0  0
 26 28  1  0  0  0  0
 26 29  1  0  0  0  0
 24 25  1  0  0  0  0
 24 26  1  0  0  0  0
M  END
$$$$
default_name
  -OEChem-02102213163D

 29 28  0     1  0  0  0  0  0999 V2000
   -3.3998   -3.6239    1.3678 H   0  0  0  0  0  0  0  0  0  0  0  0
   -3.3608   -2.6749    0.8348 C   0  0  0  0  0  0  0  0  0  0  0  0
   -4.0988   -1.9909    1.2498 H   0  0  0  0  0  0  0  0  0  0  0  0
   -3.5618   -2.8419   -0.2222 H   0  0  0  0  0  0  0  0  0  0  0  0
   -1.9818   -2.0809    0.9918 C   0  0  0  0  0  0  0  0  0  0  0  0
   -1.1288   -2.6669    1.6468 O   0  0  0  0  0  0  0  0  0  0  0  0
   -1.7648   -0.9089    0.3998 N   0  0  0  0  0  0  0  0  0  0  0  0
   -2.5238   -0.4719   -0.1032 H   0  0  0  0  0  0  0  0  0  0  0  0
   -0.4848   -0.1959    0.4138 C   0  0  1  0  0  0  0  0  0  0  0  0
    0.2783   -0.8411   -0.0248 H   0  0  0  0  0  0  0  0  0  0  0  0
   -0.6101    1.0666   -0.4611 C   0  0  0  0  0  0  0  0  0  0  0  0
   -0.6040    0.7601   -1.5092 H   0  0  0  0  0  0  0  0  0  0  0  0
   -1.5653    1.5510   -0.2530 H   0  0  0  0  0  0  0  0  0  0  0  0
    0.5218    2.0867   -0.2476 C   0  0  0  0  0  0  0  0  0  0  0  0
    0.8930    2.0146    0.7745 H   0  0  0  0  0  0  0  0  0  0  0  0
    1.3386    1.8571   -0.9318 H   0  0  0  0  0  0  0  0  0  0  0  0
    0.0834    3.5309   -0.4898 C   0  0  0  0  0  0  0  0  0  0  0  0
   -1.0259    3.8360   -0.8859 O   0  0  0  0  0  0  0  0  0  0  0  0
    0.9456    4.4952   -0.2511 N   0  0  0  0  0  0  0  0  0  0  0  0
    0.6046    5.4244   -0.4264 H   0  0  0  0  0  0  0  0  0  0  0  0
    1.8694    4.3002    0.0780 H   0  0  0  0  0  0  0  0  0  0  0  0
   -0.0637    0.1284    1.8555 C   0  0  0  0  0  0  0  0  0  0  0  0
    1.0918   -0.0745    2.2236 O   0  0  0  0  0  0  0  0  0  0  0  0
   -1.0024    0.6217    2.6735 N   0  0  0  0  0  0  0  0  0  0  0  0
   -1.9213    0.7848    2.2938 H   0  0  0  0  0  0  0  0  0  0  0  0
   -0.7639    0.9676    4.0741 C   0  0  0  0  0  0  0  0  0  0  0  0
    0.0520    1.6916    4.1400 H   0  0  0  0  0  0  0  0  0  0  0  0
   -1.6626    1.3984    4.5182 H   0  0  0  0  0  0  0  0  0  0  0  0
   -0.4775    0.0737    4.6309 H   0  0  0  0  0  0  0  0  0  0  0  0
  5  6  2  0  0  0  0
  5  7  1  0  0  0  0
  2  3  1  0  0  0  0
  2  4  1  0  0  0  0
  2  5  1  0  0  0  0
  1  2  1  0  0  0  0
 22 23  2  0  0  0  0
 22 24  1  0  0  0  0
 19 20  1  0  0  0  0
 19 21  1  0  0  0  0
 17 18  2  0  0  0  0
 17 19  1  0  0  0  0
 14 15  1  0  0  0  0
 14 16  1  0  0  0  0
 14 17  1  0  0  0  0
 11 12  1  0  0  0  0
 11 13  1  0  0  0  0
 11 14  1  0  0  0  0
  9 10  1  0  0  0  0
  9 11  1  0  0  0  0
  9 22  1  0  0  0  0
  7  8  1  0  0  0  0
  7  9  1  0  0  0  0
 26 27  1  0  0  0  0
 26 28  1  0  0  0  0
 26 29  1  0  0  0  0
 24 25  1  0  0  0  0
 24 26  1  0  0  0  0
M  END
$$$$
default_name
  -OEChem-02102213163D

 29 28  0     1  0  0  0  0  0999 V2000
   -3.3998   -3.6239    1.3678 H   0  0  0  0  0  0  0  0  0  0  0  0
   -3.3608   -2.6749    0.8348 C   0  0  0  0  0  0  0  0  0  0  0  0
   -4.0988   -1.9909    1.2498 H   0  0  0  0  0  0  0  0  0  0  0  0
   -3.5618   -2.8419   -0.2222 H   0  0  0  0  0  0  0  0  0  0  0  0
   -1.9818   -2.0809    0.9918 C   0  0  0  0  0  0  0  0  0  0  0  0
   -1.1288   -2.6669    1.6468 O   0  0  0  0  0  0  0  0  0  0  0  0
   -1.7648   -0.9089    0.3998 N   0  0  0  0  0  0  0  0  0  0  0  0
   -2.5238   -0.4719   -0.1032 H   0  0  0  0  0  0  0  0  0  0  0  0
   -0.4848   -0.1959    0.4138 C   0  0  1  0  0  0  0  0  0  0  0  0
    0.2783   -0.8411   -0.0248 H   0  0  0  0  0  0  0  0  0  0  0  0
   -0.6101    1.0666   -0.4611 C   0  0  0  0  0  0  0  0  0  0  0  0
   -0.6040    0.7601   -1.5092 H   0  0  0  0  0  0  0  0  0  0  0  0
   -1.5653    1.5510   -0.2530 H   0  0  0  0  0  0  0  0  0  0  0  0
    0.5218    2.0867   -0.2476 C   0  0  0  0  0  0  0  0  0  0  0  0
    1.0675    1.8441    0.6639 H   0  0  0  0  0  0  0  0  0  0  0  0
    1.2105    2.0325   -1.0907 H   0  0  0  0  0  0  0  0  0  0  0  0
    0.0200    3.5257   -0.1285 C   0  0  0  0  0  0  0  0  0  0  0  0
   -1.1472    3.8409   -0.2658 O   0  0  0  0  0  0  0  0  0  0  0  0
    0.8919    4.4721    0.1439 N   0  0  0  0  0  0  0  0  0  0  0  0
    0.5076    5.3985    0.2116 H   0  0  0  0  0  0  0  0  0  0  0  0
    1.8626    4.2677    0.2689 H   0  0  0  0  0  0  0  0  0  0  0  0
   -0.0637    0.1284    1.8555 C   0  0  0  0  0  0  0  0  0  0  0  0
    1.0918   -0.0745    2.2236 O   0  0  0  0  0  0  0  0  0  0  0  0
   -1.0024    0.6217    2.6735 N   0  0  0  0  0  0  0  0  0  0  0  0
   -1.9213    0.7848    2.2938 H   0  0  0  0  0  0  0  0  0  0  0  0
   -0.7639    0.9676    4.0741 C   0  0  0  0  0  0  0  0  0  0  0  0
    0.0520    1.6916    4.1400 H   0  0  0  0  0  0  0  0  0  0  0  0
   -1.6626    1.3984    4.5182 H   0  0  0  0  0  0  0  0  0  0  0  0
   -0.4775    0.0737    4.6309 H   0  0  0  0  0  0  0  0  0  0  0  0
  5  6  2  0  0  0  0
  5  7  1  0  0  0  0
  2  3  1  0  0  0  0
  2  4  1  0  0  0  0
  2  5  1  0  0  0  0
  1  2  1  0  0  0  0
 22 23  2  0  0  0  0
 22 24  1  0  0  0  0
 19 20  1  0  0  0  0
 19 21  1  0  0  0  0
 17 18  2  0  0  0  0
 17 19  1  0  0  0  0
 14 15  1  0  0  0  0
 14 16  1  0  0  0  0
 14 17  1  0  0  0  0
 11 12  1  0  0  0  0
 11 13  1  0  0  0  0
 11 14  1  0  0  0  0
  9 10  1  0  0  0  0
  9 11  1  0  0  0  0
  9 22  1  0  0  0  0
  7  8  1  0  0  0  0
  7  9  1  0  0  0  0
 26 27  1  0  0  0  0
 26 28  1  0  0  0  0
 26 29  1  0  0  0  0
 24 25  1  0  0  0  0
 24 26  1  0  0  0  0
M  END
$$$$
default_name
  -OEChem-02102213163D

 29 28  0     1  0  0  0  0  0999 V2000
   -3.3998   -3.6239    1.3678 H   0  0  0  0  0  0  0  0  0  0  0  0
   -3.3608   -2.6749    0.8348 C   0  0  0  0  0  0  0  0  0  0  0  0
   -4.0988   -1.9909    1.2498 H   0  0  0  0  0  0  0  0  0  0  0  0
   -3.5618   -2.8419   -0.2222 H   0  0  0  0  0  0  0  0  0  0  0  0
   -1.9818   -2.0809    0.9918 C   0  0  0  0  0  0  0  0  0  0  0  0
   -1.1288   -2.6669    1.6468 O   0  0  0  0  0  0  0  0  0  0  0  0
   -1.7648   -0.9089    0.3998 N   0  0  0  0  0  0  0  0  0  0  0  0
   -2.5238   -0.4719   -0.1032 H   0  0  0  0  0  0  0  0  0  0  0  0
   -0.4848   -0.1959    0.4138 C   0  0  1  0  0  0  0  0  0  0  0  0
    0.2783   -0.8411   -0.0248 H   0  0  0  0  0  0  0  0  0  0  0  0
   -0.6101    1.0666   -0.4611 C   0  0  0  0  0  0  0  0  0  0  0  0
   -0.6040    0.7601   -1.5092 H   0  0  0  0  0  0  0  0  0  0  0  0
   -1.5653    1.5510   -0.2530 H   0  0  0  0  0  0  0  0  0  0  0  0
    0.5218    2.0867   -0.2476 C   0  0  0  0  0  0  0  0  0  0  0  0
    1.2232    1.7067    0.4948 H   0  0  0  0  0  0  0  0  0  0  0  0
    1.0532    2.2276   -1.1888 H   0  0  0  0  0  0  0  0  0  0  0  0
    0.0209    3.4496    0.2303 C   0  0  0  0  0  0  0  0  0  0  0  0
   -1.1582    3.7231    0.3549 O   0  0  0  0  0  0  0  0  0  0  0  0
    0.9087    4.3727    0.5302 N   0  0  0  0  0  0  0  0  0  0  0  0
    0.5243    5.2485    0.8396 H   0  0  0  0  0  0  0  0  0  0  0  0
    1.8900    4.1998    0.4484 H   0  0  0  0  0  0  0  0  0  0  0  0
   -0.0637    0.1284    1.8555 C   0  0  0  0  0  0  0  0  0  0  0  0
    1.0918   -0.0745    2.2236 O   0  0  0  0  0  0  0  0  0  0  0  0
   -1.0024    0.6217    2.6735 N   0  0  0  0  0  0  0  0  0  0  0  0
   -1.9213    0.7848    2.2938 H   0  0  0  0  0  0  0  0  0  0  0  0
   -0.7639    0.9676    4.0741 C   0  0  0  0  0  0  0  0  0  0  0  0
    0.0520    1.6916    4.1400 H   0  0  0  0  0  0  0  0  0  0  0  0
   -1.6626    1.3984    4.5182 H   0  0  0  0  0  0  0  0  0  0  0  0
   -0.4775    0.0737    4.6309 H   0  0  0  0  0  0  0  0  0  0  0  0
  5  6  2  0  0  0  0
  5  7  1  0  0  0  0
  2  3  1  0  0  0  0
  2  4  1  0  0  0  0
  2  5  1  0  0  0  0
  1  2  1  0  0  0  0
 22 23  2  0  0  0  0
 22 24  1  0  0  0  0
 19 20  1  0  0  0  0
 19 21  1  0  0  0  0
 17 18  2  0  0  0  0
 17 19  1  0  0  0  0
 14 15  1  0  0  0  0
 14 16  1  0  0  0  0
 14 17  1  0  0  0  0
 11 12  1  0  0  0  0
 11 13  1  0  0  0  0
 11 14  1  0  0  0  0
  9 10  1  0  0  0  0
  9 11  1  0  0  0  0
  9 22  1  0  0  0  0
  7  8  1  0  0  0  0
  7  9  1  0  0  0  0
 26 27  1  0  0  0  0
 26 28  1  0  0  0  0
 26 29  1  0  0  0  0
 24 25  1  0  0  0  0
 24 26  1  0  0  0  0
M  END
$$$$
default_name
  -OEChem-02102213163D

 29 28  0     1  0  0  0  0  0999 V2000
   -3.3998   -3.6239    1.3678 H   0  0  0  0  0  0  0  0  0  0  0  0
   -3.3608   -2.6749    0.8348 C   0  0  0  0  0  0  0  0  0  0  0  0
   -4.0988   -1.9909    1.2498 H   0  0  0  0  0  0  0  0  0  0  0  0
   -3.5618   -2.8419   -0.2222 H   0  0  0  0  0  0  0  0  0  0  0  0
   -1.9818   -2.0809    0.9918 C   0  0  0  0  0  0  0  0  0  0  0  0
   -1.1288   -2.6669    1.6468 O   0  0  0  0  0  0  0  0  0  0  0  0
   -1.7648   -0.9089    0.3998 N   0  0  0  0  0  0  0  0  0  0  0  0
   -2.5238   -0.4719   -0.1032 H   0  0  0  0  0  0  0  0  0  0  0  0
   -0.4848   -0.1959    0.4138 C   0  0  1  0  0  0  0  0  0  0  0  0
    0.2783   -0.8411   -0.0248 H   0  0  0  0  0  0  0  0  0  0  0  0
   -0.6101    1.0666   -0.4611 C   0  0  0  0  0  0  0  0  0  0  0  0
   -0.6040    0.7601   -1.5092 H   0  0  0  0  0  0  0  0  0  0  0  0
   -1.5653    1.5510   -0.2530 H   0  0  0  0  0  0  0  0  0  0  0  0
    0.5218    2.0867   -0.2476 C   0  0  0  0  0  0  0  0  0  0  0  0
    1.3496    1.6117    0.2785 H   0  0  0  0  0  0  0  0  0  0  0  0
    0.8774    2.4291   -1.2194 H   0  0  0  0  0  0  0  0  0  0  0  0
    0.0861    3.3077    0.5623 C   0  0  0  0  0  0  0  0  0  0  0  0
   -1.0580    3.4908    0.9339 O   0  0  0  0  0  0  0  0  0  0  0  0
    0.9947    4.2037    0.8816 N   0  0  0  0  0  0  0  0  0  0  0  0
    0.6536    4.9847    1.4148 H   0  0  0  0  0  0  0  0  0  0  0  0
    1.9497    4.1010    0.6040 H   0  0  0  0  0  0  0  0  0  0  0  0
   -0.0637    0.1284    1.8555 C   0  0  0  0  0  0  0  0  0  0  0  0
    1.0918   -0.0745    2.2236 O   0  0  0  0  0  0  0  0  0  0  0  0
   -1.0024    0.6217    2.6735 N   0  0  0  0  0  0  0  0  0  0  0  0
   -1.9213    0.7848    2.2938 H   0  0  0  0  0  0  0  0  0  0  0  0
   -0.7639    0.9676    4.0741 C   0  0  0  0  0  0  0  0  0  0  0  0
    0.0520    1.6916    4.1400 H   0  0  0  0  0  0  0  0  0  0  0  0
   -1.6626    1.3984    4.5182 H   0  0  0  0  0  0  0  0  0  0  0  0
   -0.4775    0.0737    4.6309 H   0  0  0  0  0  0  0  0  0  0  0  0
  5  6  2  0  0  0  0
  5  7  1  0  0  0  0
  2  3  1  0  0  0  0
  2  4  1  0  0  0  0
  2  5  1  0  0  0  0
  1  2  1  0  0  0  0
 22 23  2  0  0  0  0
 22 24  1  0  0  0  0
 19 20  1  0  0  0  0
 19 21  1  0  0  0  0
 17 18  2  0  0  0  0
 17 19  1  0  0  0  0
 14 15  1  0  0  0  0
 14 16  1  0  0  0  0
 14 17  1  0  0  0  0
 11 12  1  0  0  0  0
 11 13  1  0  0  0  0
 11 14  1  0  0  0  0
  9 10  1  0  0  0  0
  9 11  1  0  0  0  0
  9 22  1  0  0  0  0
  7  8  1  0  0  0  0
  7  9  1  0  0  0  0
 26 27  1  0  0  0  0
 26 28  1  0  0  0  0
 26 29  1  0  0  0  0
 24 25  1  0  0  0  0
 24 26  1  0  0  0  0
M  END
$$$$
default_name
  -OEChem-02102213163D

 29 28  0     1  0  0  0  0  0999 V2000
   -3.3998   -3.6239    1.3678 H   0  0  0  0  0  0  0  0  0  0  0  0
   -3.3608   -2.6749    0.8348 C   0  0  0  0  0  0  0  0  0  0  0  0
   -4.0988   -1.9909    1.2498 H   0  0  0  0  0  0  0  0  0  0  0  0
   -3.5618   -2.8419   -0.2222 H   0  0  0  0  0  0  0  0  0  0  0  0
   -1.9818   -2.0809    0.9918 C   0  0  0  0  0  0  0  0  0  0  0  0
   -1.1288   -2.6669    1.6468 O   0  0  0  0  0  0  0  0  0  0  0  0
   -1.7648   -0.9089    0.3998 N   0  0  0  0  0  0  0  0  0  0  0  0
   -2.5238   -0.4719   -0.1032 H   0  0  0  0  0  0  0  0  0  0  0  0
   -0.4848   -0.1959    0.4138 C   0  0  1  0  0  0  0  0  0  0  0  0
    0.2783   -0.8411   -0.0248 H   0  0  0  0  0  0  0  0  0  0  0  0
   -0.6101    1.0666   -0.4611 C   0  0  0  0  0  0  0  0  0  0  0  0
   -0.6040    0.7601   -1.5092 H   0  0  0  0  0  0  0  0  0  0  0  0
   -1.5653    1.5510   -0.2530 H   0  0  0  0  0  0  0  0  0  0  0  0
    0.5218    2.0867   -0.2476 C   0  0  0  0  0  0  0  0  0  0  0  0
    1.4379    1.5658    0.0298 H   0  0  0  0  0  0  0  0  0  0  0  0
    0.6951    2.6232   -1.1804 H   0  0  0  0  0  0  0  0  0  0  0  0
    0.2112    3.1098    0.8448 C   0  0  0  0  0  0  0  0  0  0  0  0
   -0.8535    3.1597    1.4317 O   0  0  0  0  0  0  0  0  0  0  0  0
    1.1441    3.9767    1.1741 N   0  0  0  0  0  0  0  0  0  0  0  0
    0.8866    4.6249    1.8979 H   0  0  0  0  0  0  0  0  0  0  0  0
    2.0376    3.9780    0.7253 H   0  0  0  0  0  0  0  0  0  0  0  0
   -0.0637    0.1284    1.8555 C   0  0  0  0  0  0  0  0  0  0  0  0
    1.0918   -0.0745    2.2236 O   0  0  0  0  0  0  0  0  0  0  0  0
   -1.0024    0.6217    2.6735 N   0  0  0  0  0  0  0  0  0  0  0  0
   -1.9213    0.7848    2.2938 H   0  0  0  0  0  0  0  0  0  0  0  0
   -0.7639    0.9676    4.0741 C   0  0  0  0  0  0  0  0  0  0  0  0
    0.0520    1.6916    4.1400 H   0  0  0  0  0  0  0  0  0  0  0  0
   -1.6626    1.3984    4.5182 H   0  0  0  0  0  0  0  0  0  0  0  0
   -0.4775    0.0737    4.6309 H   0  0  0  0  0  0  0  0  0  0  0  0
  5  6  2  0  0  0  0
  5  7  1  0  0  0  0
  2  3  1  0  0  0  0
  2  4  1  0  0  0  0
  2  5  1  0  0  0  0
  1  2  1  0  0  0  0
 22 23  2  0  0  0  0
 22 24  1  0  0  0  0
 19 20  1  0  0  0  0
 19 21  1  0  0  0  0
 17 18  2  0  0  0  0
 17 19  1  0  0  0  0
 14 15  1  0  0  0  0
 14 16  1  0  0  0  0
 14 17  1  0  0  0  0
 11 12  1  0  0  0  0
 11 13  1  0  0  0  0
 11 14  1  0  0  0  0
  9 10  1  0  0  0  0
  9 11  1  0  0  0  0
  9 22  1  0  0  0  0
  7  8  1  0  0  0  0
  7  9  1  0  0  0  0
 26 27  1  0  0  0  0
 26 28  1  0  0  0  0
 26 29  1  0  0  0  0
 24 25  1  0  0  0  0
 24 26  1  0  0  0  0
M  END
$$$$
default_name
  -OEChem-02102213163D

 29 28  0     1  0  0  0  0  0999 V2000
   -3.3998   -3.6239    1.3678 H   0  0  0  0  0  0  0  0  0  0  0  0
   -3.3608   -2.6749    0.8348 C   0  0  0  0  0  0  0  0  0  0  0  0
   -4.0988   -1.9909    1.2498 H   0  0  0  0  0  0  0  0  0  0  0  0
   -3.5618   -2.8419   -0.2222 H   0  0  0  0  0  0  0  0  0  0  0  0
   -1.9818   -2.0809    0.9918 C   0  0  0  0  0  0  0  0  0  0  0  0
   -1.1288   -2.6669    1.6468 O   0  0  0  0  0  0  0  0  0  0  0  0
   -1.7648   -0.9089    0.3998 N   0  0  0  0  0  0  0  0  0  0  0  0
   -2.5238   -0.4719   -0.1032 H   0  0  0  0  0  0  0  0  0  0  0  0
   -0.4848   -0.1959    0.4138 C   0  0  1  0  0  0  0  0  0  0  0  0
    0.2783   -0.8411   -0.0248 H   0  0  0  0  0  0  0  0  0  0  0  0
   -0.6101    1.0666   -0.4611 C   0  0  0  0  0  0  0  0  0  0  0  0
   -0.6040    0.7601   -1.5092 H   0  0  0  0  0  0  0  0  0  0  0  0
   -1.5653    1.5510   -0.2530 H   0  0  0  0  0  0  0  0  0  0  0  0
    0.5218    2.0867   -0.2476 C   0  0  0  0  0  0  0  0  0  0  0  0
    1.4822    1.5719   -0.2343 H   0  0  0  0  0  0  0  0  0  0  0  0
    0.5187    2.7967   -1.0746 H   0  0  0  0  0  0  0  0  0  0  0  0
    0.3876    2.8694    1.0585 C   0  0  0  0  0  0  0  0  0  0  0  0
   -0.5587    2.7525    1.8145 O   0  0  0  0  0  0  0  0  0  0  0  0
    1.3468    3.7070    1.3877 N   0  0  0  0  0  0  0  0  0  0  0  0
    1.2076    4.1938    2.2561 H   0  0  0  0  0  0  0  0  0  0  0  0
    2.1478    3.8393    0.8040 H   0  0  0  0  0  0  0  0  0  0  0  0
   -0.0637    0.1284    1.8555 C   0  0  0  0  0  0  0  0  0  0  0  0
    1.0918   -0.0745    2.2236 O   0  0  0  0  0  0  0  0  0  0  0  0
   -1.0024    0.6217    2.6735 N   0  0  0  0  0  0  0  0  0  0  0  0
   -1.9213    0.7848    2.2938 H   0  0  0  0  0  0  0  0  0  0  0  0
   -0.7639    0.9676    4.0741 C   0  0  0  0  0  0  0  0  0  0  0  0
    0.0520    1.6916    4.1400 H   0  0  0  0  0  0  0  0  0  0  0  0
   -1.6626    1.3984    4.5182 H   0  0  0  0  0  0  0  0  0  0  0  0
   -0.4775    0.0737    4.6309 H   0  0  0  0  0  0  0  0  0  0  0  0
  5  6  2  0  0  0  0
  5  7  1  0  0  0  0
  2  3  1  0  0  0  0
  2  4  1  0  0  0  0
  2  5  1  0  0  0  0
  1  2  1  0  0  0  0
 22 23  2  0  0  0  0
 22 24  1  0  0  0  0
 19 20  1  0  0  0  0
 19 21  1  0  0  0  0
 17 18  2  0  0  0  0
 17 19  1  0  0  0  0
 14 15  1  0  0  0  0
 14 16  1  0  0  0  0
 14 17  1  0  0  0  0
 11 12  1  0  0  0  0
 11 13  1  0  0  0  0
 11 14  1  0  0  0  0
  9 10  1  0  0  0  0
  9 11  1  0  0  0  0
  9 22  1  0  0  0  0
  7  8  1  0  0  0  0
  7  9  1  0  0  0  0
 26 27  1  0  0  0  0
 26 28  1  0  0  0  0
 26 29  1  0  0  0  0
 24 25  1  0  0  0  0
 24 26  1  0  0  0  0
M  END
$$$$
default_name
  -OEChem-02102213163D

 29 28  0     1  0  0  0  0  0999 V2000
   -3.3998   -3.6239    1.3678 H   0  0  0  0  0  0  0  0  0  0  0  0
   -3.3608   -2.6749    0.8348 C   0  0  0  0  0  0  0  0  0  0  0  0
   -4.0988   -1.9909    1.2498 H   0  0  0  0  0  0  0  0  0  0  0  0
   -3.5618   -2.8419   -0.2222 H   0  0  0  0  0  0  0  0  0  0  0  0
   -1.9818   -2.0809    0.9918 C   0  0  0  0  0  0  0  0  0  0  0  0
   -1.1288   -2.6669    1.6468 O   0  0  0  0  0  0  0  0  0  0  0  0
   -1.7648   -0.9089    0.3998 N   0  0  0  0  0  0  0  0  0  0  0  0
   -2.5238   -0.4719   -0.1032 H   0  0  0  0  0  0  0  0  0  0  0  0
   -0.4848   -0.1959    0.4138 C   0  0  1  0  0  0  0  0  0  0  0  0
    0.2783   -0.8411   -0.0248 H   0  0  0  0  0  0  0  0  0  0  0  0
   -0.6101    1.0666   -0.4611 C   0  0  0  0  0  0  0  0  0  0  0  0
   -0.6040    0.7601   -1.5092 H   0  0  0  0  0  0  0  0  0  0  0  0
   -1.5653    1.5510   -0.2530 H   0  0  0  0  0  0  0  0  0  0  0  0
    0.5218    2.0867   -0.2476 C   0  0  0  0  0  0  0  0  0  0  0  0
    1.4794    1.6297   -0.4959 H   0  0  0  0  0  0  0  0  0  0  0  0
    0.3603    2.9379   -0.9090 H   0  0  0  0  0  0  0  0  0  0  0  0
    0.6032    2.6028    1.1889 C   0  0  0  0  0  0  0  0  0  0  0  0
   -0.1937    2.2968    2.0561 O   0  0  0  0  0  0  0  0  0  0  0  0
    1.5890    3.4132    1.5080 N   0  0  0  0  0  0  0  0  0  0  0  0
    1.5945    3.7208    2.4649 H   0  0  0  0  0  0  0  0  0  0  0  0
    2.2727    3.6943    0.8347 H   0  0  0  0  0  0  0  0  0  0  0  0
   -0.0637    0.1284    1.8555 C   0  0  0  0  0  0  0  0  0  0  0  0
    1.0918   -0.0745    2.2236 O   0  0  0  0  0  0  0  0  0  0  0  0
   -1.0024    0.6217    2.6735 N   0  0  0  0  0  0  0  0  0  0  0  0
   -1.9213    0.7848    2.2938 H   0  0  0  0  0  0  0  0  0  0  0  0
   -0.7639    0.9676    4.0741 C   0  0  0  0  0  0  0  0  0  0  0  0
    0.0520    1.6916    4.1400 H   0  0  0  0  0  0  0  0  0  0  0  0
   -1.6626    1.3984    4.5182 H   0  0  0  0  0  0  0  0  0  0  0  0
   -0.4775    0.0737    4.6309 H   0  0  0  0  0  0  0  0  0  0  0  0
  5  6  2  0  0  0  0
  5  7  1  0  0  0  0
  2  3  1  0  0  0  0
  2  4  1  0  0  0  0
  2  5  1  0  0  0  0
  1  2  1  0  0  0  0
 22 23  2  0  0  0  0
 22 24  1  0  0  0  0
 19 20  1  0  0  0  0
 19 21  1  0  0  0  0
 17 18  2  0  0  0  0
 17 19  1  0  0  0  0
 14 15  1  0  0  0  0
 14 16  1  0  0  0  0
 14 17  1  0  0  0  0
 11 12  1  0  0  0  0
 11 13  1  0  0  0  0
 11 14  1  0  0  0  0
  9 10  1  0  0  0  0
  9 11  1  0  0  0  0
  9 22  1  0  0  0  0
  7  8  1  0  0  0  0
  7  9  1  0  0  0  0
 26 27  1  0  0  0  0
 26 28  1  0  0  0  0
 26 29  1  0  0  0  0
 24 25  1  0  0  0  0
 24 26  1  0  0  0  0
M  END
$$$$
default_name
  -OEChem-02102213163D

 29 28  0     1  0  0  0  0  0999 V2000
   -3.3998   -3.6239    1.3678 H   0  0  0  0  0  0  0  0  0  0  0  0
   -3.3608   -2.6749    0.8348 C   0  0  0  0  0  0  0  0  0  0  0  0
   -4.0988   -1.9909    1.2498 H   0  0  0  0  0  0  0  0  0  0  0  0
   -3.5618   -2.8419   -0.2222 H   0  0  0  0  0  0  0  0  0  0  0  0
   -1.9818   -2.0809    0.9918 C   0  0  0  0  0  0  0  0  0  0  0  0
   -1.1288   -2.6669    1.6468 O   0  0  0  0  0  0  0  0  0  0  0  0
   -1.7648   -0.9089    0.3998 N   0  0  0  0  0  0  0  0  0  0  0  0
   -2.5238   -0.4719   -0.1032 H   0  0  0  0  0  0  0  0  0  0  0  0
   -0.4848   -0.1959    0.4138 C   0  0  1  0  0  0  0  0  0  0  0  0
    0.2783   -0.8411   -0.0248 H   0  0  0  0  0  0  0  0  0  0  0  0
   -0.6101    1.0666   -0.4611 C   0  0  0  0  0  0  0  0  0  0  0  0
   -0.6040    0.7601   -1.5092 H   0  0  0  0  0  0  0  0  0  0  0  0
   -1.5653    1.5510   -0.2530 H   0  0  0  0  0  0  0  0  0  0  0  0
    0.5218    2.0867   -0.2476 C   0  0  0  0  0  0  0  0  0  0  0  0
    1.4298    1.7352   -0.7370 H   0  0  0  0  0  0  0  0  0  0  0  0
    0.2306    3.0370   -0.6950 H   0  0  0  0  0  0  0  0  0  0  0  0
    0.8435    2.3282    1.2271 C   0  0  0  0  0  0  0  0  0  0  0  0
    0.2168    1.8238    2.1400 O   0  0  0  0  0  0  0  0  0  0  0  0
    1.8541    3.1152    1.5266 N   0  0  0  0  0  0  0  0  0  0  0  0
    2.0211    3.2379    2.5102 H   0  0  0  0  0  0  0  0  0  0  0  0
    2.4038    3.5529    0.8153 H   0  0  0  0  0  0  0  0  0  0  0  0
   -0.0637    0.1284    1.8555 C   0  0  0  0  0  0  0  0  0  0  0  0
    1.0918   -0.0745    2.2236 O   0  0  0  0  0  0  0  0  0  0  0  0
   -1.0024    0.6217    2.6735 N   0  0  0  0  0  0  0  0  0  0  0  0
   -1.9213    0.7848    2.2938 H   0  0  0  0  0  0  0  0  0  0  0  0
   -0.7639    0.9676    4.0741 C   0  0  0  0  0  0  0  0  0  0  0  0
    0.0520    1.6916    4.1400 H   0  0  0  0  0  0  0  0  0  0  0  0
   -1.6626    1.3984    4.5182 H   0  0  0  0  0  0  0  0  0  0  0  0
   -0.4775    0.0737    4.6309 H   0  0  0  0  0  0  0  0  0  0  0  0
  5  6  2  0  0  0  0
  5  7  1  0  0  0  0
  2  3  1  0  0  0  0
  2  4  1  0  0  0  0
  2  5  1  0  0  0  0
  1  2  1  0  0  0  0
 22 23  2  0  0  0  0
 22 24  1  0  0  0  0
 19 20  1  0  0  0  0
 19 21  1  0  0  0  0
 17 18  2  0  0  0  0
 17 19  1  0  0  0  0
 14 15  1  0  0  0  0
 14 16  1  0  0  0  0
 14 17  1  0  0  0  0
 11 12  1  0  0  0  0
 11 13  1  0  0  0  0
 11 14  1  0  0  0  0
  9 10  1  0  0  0  0
  9 11  1  0  0  0  0
  9 22  1  0  0  0  0
  7  8  1  0  0  0  0
  7  9  1  0  0  0  0
 26 27  1  0  0  0  0
 26 28  1  0  0  0  0
 26 29  1  0  0  0  0
 24 25  1  0  0  0  0
 24 26  1  0  0  0  0
M  END
$$$$
default_name
  -OEChem-02102213163D

 29 28  0     1  0  0  0  0  0999 V2000
   -3.3998   -3.6239    1.3678 H   0  0  0  0  0  0  0  0  0  0  0  0
   -3.3608   -2.6749    0.8348 C   0  0  0  0  0  0  0  0  0  0  0  0
   -4.0988   -1.9909    1.2498 H   0  0  0  0  0  0  0  0  0  0  0  0
   -3.5618   -2.8419   -0.2222 H   0  0  0  0  0  0  0  0  0  0  0  0
   -1.9818   -2.0809    0.9918 C   0  0  0  0  0  0  0  0  0  0  0  0
   -1.1288   -2.6669    1.6468 O   0  0  0  0  0  0  0  0  0  0  0  0
   -1.7648   -0.9089    0.3998 N   0  0  0  0  0  0  0  0  0  0  0  0
   -2.5238   -0.4719   -0.1032 H   0  0  0  0  0  0  0  0  0  0  0  0
   -0.4848   -0.1959    0.4138 C   0  0  1  0  0  0  0  0  0  0  0  0
    0.2783   -0.8411   -0.0248 H   0  0  0  0  0  0  0  0  0  0  0  0
   -0.6101    1.0666   -0.4611 C   0  0  0  0  0  0  0  0  0  0  0  0
   -0.6040    0.7601   -1.5092 H   0  0  0  0  0  0  0  0  0  0  0  0
   -1.5653    1.5510   -0.2530 H   0  0  0  0  0  0  0  0  0  0  0  0
    0.5218    2.0867   -0.2476 C   0  0  0  0  0  0  0  0  0  0  0  0
    1.3367    1.8813   -0.9413 H   0  0  0  0  0  0  0  0  0  0  0  0
    0.1385    3.0873   -0.4472 H   0  0  0  0  0  0  0  0  0  0  0  0
    1.0920    2.0643    1.1705 C   0  0  0  0  0  0  0  0  0  0  0  0
    0.6446    1.3657    2.0606 O   0  0  0  0  0  0  0  0  0  0  0  0
    2.1240    2.8332    1.4424 N   0  0  0  0  0  0  0  0  0  0  0  0
    2.4583    2.7783    2.3888 H   0  0  0  0  0  0  0  0  0  0  0  0
    2.5322    3.4247    0.7472 H   0  0  0  0  0  0  0  0  0  0  0  0
   -0.0637    0.1284    1.8555 C   0  0  0  0  0  0  0  0  0  0  0  0
    1.0918   -0.0745    2.2236 O   0  0  0  0  0  0  0  0  0  0  0  0
   -1.0024    0.6217    2.6735 N   0  0  0  0  0  0  0  0  0  0  0  0
   -1.9213    0.7848    2.2938 H   0  0  0  0  0  0  0  0  0  0  0  0
   -0.7639    0.9676    4.0741 C   0  0  0  0  0  0  0  0  0  0  0  0
    0.0520    1.6916    4.1400 H   0  0  0  0  0  0  0  0  0  0  0  0
   -1.6626    1.3984    4.5182 H   0  0  0  0  0  0  0  0  0  0  0  0
   -0.4775    0.0737    4.6309 H   0  0  0  0  0  0  0  0  0  0  0  0
  5  6  2  0  0  0  0
  5  7  1  0  0  0  0
  2  3  1  0  0  0  0
  2  4  1  0  0  0  0
  2  5  1  0  0  0  0
  1  2  1  0  0  0  0
 22 23  2  0  0  0  0
 22 24  1  0  0  0  0
 19 20  1  0  0  0  0
 19 21  1  0  0  0  0
 17 18  2  0  0  0  0
 17 19  1  0  0  0  0
 14 15  1  0  0  0  0
 14 16  1  0  0  0  0
 14 17  1  0  0  0  0
 11 12  1  0  0  0  0
 11 13  1  0  0  0  0
 11 14  1  0  0  0  0
  9 10  1  0  0  0  0
  9 11  1  0  0  0  0
  9 22  1  0  0  0  0
  7  8  1  0  0  0  0
  7  9  1  0  0  0  0
 26 27  1  0  0  0  0
 26 28  1  0  0  0  0
 26 29  1  0  0  0  0
 24 25  1  0  0  0  0
 24 26  1  0  0  0  0
M  END
$$$$
default_name
  -OEChem-02102213163D

 29 28  0     1  0  0  0  0  0999 V2000
   -3.3998   -3.6239    1.3678 H   0  0  0  0  0  0  0  0  0  0  0  0
   -3.3608   -2.6749    0.8348 C   0  0  0  0  0  0  0  0  0  0  0  0
   -4.0988   -1.9909    1.2498 H   0  0  0  0  0  0  0  0  0  0  0  0
   -3.5618   -2.8419   -0.2222 H   0  0  0  0  0  0  0  0  0  0  0  0
   -1.9818   -2.0809    0.9918 C   0  0  0  0  0  0  0  0  0  0  0  0
   -1.1288   -2.6669    1.6468 O   0  0  0  0  0  0  0  0  0  0  0  0
   -1.7648   -0.9089    0.3998 N   0  0  0  0  0  0  0  0  0  0  0  0
   -2.5238   -0.4719   -0.1032 H   0  0  0  0  0  0  0  0  0  0  0  0
   -0.4848   -0.1959    0.4138 C   0  0  1  0  0  0  0  0  0  0  0  0
    0.2783   -0.8411   -0.0248 H   0  0  0  0  0  0  0  0  0  0  0  0
   -0.6101    1.0666   -0.4611 C   0  0  0  0  0  0  0  0  0  0  0  0
   -0.6040    0.7601   -1.5092 H   0  0  0  0  0  0  0  0  0  0  0  0
   -1.5653    1.5510   -0.2530 H   0  0  0  0  0  0  0  0  0  0  0  0
    0.5218    2.0867   -0.2476 C   0  0  0  0  0  0  0  0  0  0  0  0
    1.2065    2.0579   -1.0949 H   0  0  0  0  0  0  0  0  0  0  0  0
    0.0902    3.0855   -0.1824 H   0  0  0  0  0  0  0  0  0  0  0  0
    1.3318    1.8291    1.0229 C   0  0  0  0  0  0  0  0  0  0  0  0
    1.0607    0.9537    1.8233 O   0  0  0  0  0  0  0  0  0  0  0  0
    2.3804    2.5867    1.2610 N   0  0  0  0  0  0  0  0  0  0  0  0
    2.8762    2.3731    2.1090 H   0  0  0  0  0  0  0  0  0  0  0  0
    2.6491    3.3185    0.6349 H   0  0  0  0  0  0  0  0  0  0  0  0
   -0.0637    0.1284    1.8555 C   0  0  0  0  0  0  0  0  0  0  0  0
    1.0918   -0.0745    2.2236 O   0  0  0  0  0  0  0  0  0  0  0  0
   -1.0024    0.6217    2.6735 N   0  0  0  0  0  0  0  0  0  0  0  0
   -1.9213    0.7848    2.2938 H   0  0  0  0  0  0  0  0  0  0  0  0
   -0.7639    0.9676    4.0741 C   0  0  0  0  0  0  0  0  0  0  0  0
    0.0520    1.6916    4.1400 H   0  0  0  0  0  0  0  0  0  0  0  0
   -1.6626    1.3984    4.5182 H   0  0  0  0  0  0  0  0  0  0  0  0
   -0.4775    0.0737    4.6309 H   0  0  0  0  0  0  0  0  0  0  0  0
  5  6  2  0  0  0  0
  5  7  1  0  0  0  0
  2  3  1  0  0  0  0
  2  4  1  0  0  0  0
  2  5  1  0  0  0  0
  1  2  1  0  0  0  0
 22 23  2  0  0  0  0
 22 24  1  0  0  0  0
 19 20  1  0  0  0  0
 19 21  1  0  0  0  0
 17 18  2  0  0  0  0
 17 19  1  0  0  0  0
 14 15  1  0  0  0  0
 14 16  1  0  0  0  0
 14 17  1  0  0  0  0
 11 12  1  0  0  0  0
 11 13  1  0  0  0  0
 11 14  1  0  0  0  0
  9 10  1  0  0  0  0
  9 11  1  0  0  0  0
  9 22  1  0  0  0  0
  7  8  1  0  0  0  0
  7  9  1  0  0  0  0
 26 27  1  0  0  0  0
 26 28  1  0  0  0  0
 26 29  1  0  0  0  0
 24 25  1  0  0  0  0
 24 26  1  0  0  0  0
M  END
$$$$
default_name
  -OEChem-02102213163D

 29 28  0     1  0  0  0  0  0999 V2000
   -3.3998   -3.6239    1.3678 H   0  0  0  0  0  0  0  0  0  0  0  0
   -3.3608   -2.6749    0.8348 C   0  0  0  0  0  0  0  0  0  0  0  0
   -4.0988   -1.9909    1.2498 H   0  0  0  0  0  0  0  0  0  0  0  0
   -3.5618   -2.8419   -0.2222 H   0  0  0  0  0  0  0  0  0  0  0  0
   -1.9818   -2.0809    0.9918 C   0  0  0  0  0  0  0  0  0  0  0  0
   -1.1288   -2.6669    1.6468 O   0  0  0  0  0  0  0  0  0  0  0  0
   -1.7648   -0.9089    0.3998 N   0  0  0  0  0  0  0  0  0  0  0  0
   -2.5238   -0.4719   -0.1032 H   0  0  0  0  0  0  0  0  0  0  0  0
   -0.4848   -0.1959    0.4138 C   0  0  1  0  0  0  0  0  0  0  0  0
    0.2783   -0.8411   -0.0248 H   0  0  0  0  0  0  0  0  0  0  0  0
   -0.6101    1.0666   -0.4611 C   0  0  0  0  0  0  0  0  0  0  0  0
   -0.6040    0.7601   -1.5092 H   0  0  0  0  0  0  0  0  0  0  0  0
   -1.5653    1.5510   -0.2530 H   0  0  0  0  0  0  0  0  0  0  0  0
    0.5218    2.0867   -0.2476 C   0  0  0  0  0  0  0  0  0  0  0  0
    1.0480    2.2531   -1.1873 H   0  0  0  0  0  0  0  0  0  0  0  0
    0.0891    3.0315    0.0812 H   0  0  0  0  0  0  0  0  0  0  0  0
    1.5465    1.6387    0.7944 C   0  0  0  0  0  0  0  0  0  0  0  0
    1.4367    0.6158    1.4442 O   0  0  0  0  0  0  0  0  0  0  0  0
    2.6058    2.3923    0.9949 N   0  0  0  0  0  0  0  0  0  0  0  0
    3.2465    2.0500    1.6898 H   0  0  0  0  0  0  0  0  0  0  0  0
    2.7466    3.2414    0.4862 H   0  0  0  0  0  0  0  0  0  0  0  0
   -0.0637    0.1284    1.8555 C   0  0  0  0  0  0  0  0  0  0  0  0
    1.0918   -0.0745    2.2236 O   0  0  0  0  0  0  0  0  0  0  0  0
   -1.0024    0.6217    2.6735 N   0  0  0  0  0  0  0  0  0  0  0  0
   -1.9213    0.7848    2.2938 H   0  0  0  0  0  0  0  0  0  0  0  0
   -0.7639    0.9676    4.0741 C   0  0  0  0  0  0  0  0  0  0  0  0
    0.0520    1.6916    4.1400 H   0  0  0  0  0  0  0  0  0  0  0  0
   -1.6626    1.3984    4.5182 H   0  0  0  0  0  0  0  0  0  0  0  0
   -0.4775    0.0737    4.6309 H   0  0  0  0  0  0  0  0  0  0  0  0
  5  6  2  0  0  0  0
  5  7  1  0  0  0  0
  2  3  1  0  0  0  0
  2  4  1  0  0  0  0
  2  5  1  0  0  0  0
  1  2  1  0  0  0  0
 22 23  2  0  0  0  0
 22 24  1  0  0  0  0
 19 20  1  0  0  0  0
 19 21  1  0  0  0  0
 17 18  2  0  0  0  0
 17 19  1  0  0  0  0
 14 15  1  0  0  0  0
 14 16  1  0  0  0  0
 14 17  1  0  0  0  0
 11 12  1  0  0  0  0
 11 13  1  0  0  0  0
 11 14  1  0  0  0  0
  9 10  1  0  0  0  0
  9 11  1  0  0  0  0
  9 22  1  0  0  0  0
  7  8  1  0  0  0  0
  7  9  1  0  0  0  0
 26 27  1  0  0  0  0
 26 28  1  0  0  0  0
 26 29  1  0  0  0  0
 24 25  1  0  0  0  0
 24 26  1  0  0  0  0
M  END
$$$$
default_name
  -OEChem-02102213163D

 29 28  0     1  0  0  0  0  0999 V2000
   -3.3998   -3.6239    1.3678 H   0  0  0  0  0  0  0  0  0  0  0  0
   -3.3608   -2.6749    0.8348 C   0  0  0  0  0  0  0  0  0  0  0  0
   -4.0988   -1.9909    1.2498 H   0  0  0  0  0  0  0  0  0  0  0  0
   -3.5618   -2.8419   -0.2222 H   0  0  0  0  0  0  0  0  0  0  0  0
   -1.9818   -2.0809    0.9918 C   0  0  0  0  0  0  0  0  0  0  0  0
   -1.1288   -2.6669    1.6468 O   0  0  0  0  0  0  0  0  0  0  0  0
   -1.7648   -0.9089    0.3998 N   0  0  0  0  0  0  0  0  0  0  0  0
   -2.5238   -0.4719   -0.1032 H   0  0  0  0  0  0  0  0  0  0  0  0
   -0.4848   -0.1959    0.4138 C   0  0  1  0  0  0  0  0  0  0  0  0
    0.2783   -0.8411   -0.0248 H   0  0  0  0  0  0  0  0  0  0  0  0
   -0.6101    1.0666   -0.4611 C   0  0  0  0  0  0  0  0  0  0  0  0
   -0.6040    0.7601   -1.5092 H   0  0  0  0  0  0  0  0  0  0  0  0
   -1.5653    1.5510   -0.2530 H   0  0  0  0  0  0  0  0  0  0  0  0
    0.5218    2.0867   -0.2476 C   0  0  0  0  0  0  0  0  0  0  0  0
    0.8721    2.4536   -1.2122 H   0  0  0  0  0  0  0  0  0  0  0  0
    0.1352    2.9292    0.3258 H   0  0  0  0  0  0  0  0  0  0  0  0
    1.7216    1.5059    0.5006 C   0  0  0  0  0  0  0  0  0  0  0  0
    1.7470    0.3751    0.9492 O   0  0  0  0  0  0  0  0  0  0  0  0
    2.7849    2.2632    0.6621 N   0  0  0  0  0  0  0  0  0  0  0  0
    3.5438    1.8310    1.1599 H   0  0  0  0  0  0  0  0  0  0  0  0
    2.8180    3.1988    0.3111 H   0  0  0  0  0  0  0  0  0  0  0  0
   -0.0637    0.1284    1.8555 C   0  0  0  0  0  0  0  0  0  0  0  0
    1.0918   -0.0745    2.2236 O   0  0  0  0  0  0  0  0  0  0  0  0
   -1.0024    0.6217    2.6735 N   0  0  0  0  0  0  0  0  0  0  0  0
   -1.9213    0.7848    2.2938 H   0  0  0  0  0  0  0  0  0  0  0  0
   -0.7639    0.9676    4.0741 C   0  0  0  0  0  0  0  0  0  0  0  0
    0.0520    1.6916    4.1400 H   0  0  0  0  0  0  0  0  0  0  0  0
   -1.6626    1.3984    4.5182 H   0  0  0  0  0  0  0  0  0  0  0  0
   -0.4775    0.0737    4.6309 H   0  0  0  0  0  0  0  0  0  0  0  0
  5  6  2  0  0  0  0
  5  7  1  0  0  0  0
  2  3  1  0  0  0  0
  2  4  1  0  0  0  0
  2  5  1  0  0  0  0
  1  2  1  0  0  0  0
 22 23  2  0  0  0  0
 22 24  1  0  0  0  0
 19 20  1  0  0  0  0
 19 21  1  0  0  0  0
 17 18  2  0  0  0  0
 17 19  1  0  0  0  0
 14 15  1  0  0  0  0
 14 16  1  0  0  0  0
 14 17  1  0  0  0  0
 11 12  1  0  0  0  0
 11 13  1  0  0  0  0
 11 14  1  0  0  0  0
  9 10  1  0  0  0  0
  9 11  1  0  0  0  0
  9 22  1  0  0  0  0
  7  8  1  0  0  0  0
  7  9  1  0  0  0  0
 26 27  1  0  0  0  0
 26 28  1  0  0  0  0
 26 29  1  0  0  0  0
 24 25  1  0  0  0  0
 24 26  1  0  0  0  0
M  END
$$$$
default_name
  -OEChem-02102213163D

 29 28  0     1  0  0  0  0  0999 V2000
   -3.3998   -3.6239    1.3678 H   0  0  0  0  0  0  0  0  0  0  0  0
   -3.3608   -2.6749    0.8348 C   0  0  0  0  0  0  0  0  0  0  0  0
   -4.0988   -1.9909    1.2498 H   0  0  0  0  0  0  0  0  0  0  0  0
   -3.5618   -2.8419   -0.2222 H   0  0  0  0  0  0  0  0  0  0  0  0
   -1.9818   -2.0809    0.9918 C   0  0  0  0  0  0  0  0  0  0  0  0
   -1.1288   -2.6669    1.6468 O   0  0  0  0  0  0  0  0  0  0  0  0
   -1.7648   -0.9089    0.3998 N   0  0  0  0  0  0  0  0  0  0  0  0
   -2.5238   -0.4719   -0.1032 H   0  0  0  0  0  0  0  0  0  0  0  0
   -0.4848   -0.1959    0.4138 C   0  0  1  0  0  0  0  0  0  0  0  0
    0.2783   -0.8411   -0.0248 H   0  0  0  0  0  0  0  0  0  0  0  0
   -0.6101    1.0666   -0.4611 C   0  0  0  0  0  0  0  0  0  0  0  0
   -0.6040    0.7601   -1.5092 H   0  0  0  0  0  0  0  0  0  0  0  0
   -1.5653    1.5510   -0.2530 H   0  0  0  0  0  0  0  0  0  0  0  0
    0.5218    2.0867   -0.2476 C   0  0  0  0  0  0  0  0  0  0  0  0
    0.6906    2.6456   -1.1678 H   0  0  0  0  0  0  0  0  0  0  0  0
    0.2254    2.7854    0.5347 H   0  0  0  0  0  0  0  0  0  0  0  0
    1.8450    1.4399    0.1615 C   0  0  0  0  0  0  0  0  0  0  0  0
    1.9703    0.2481    0.3719 O   0  0  0  0  0  0  0  0  0  0  0  0
    2.9054    2.2084    0.2854 N   0  0  0  0  0  0  0  0  0  0  0  0
    3.7479    1.7310    0.5553 H   0  0  0  0  0  0  0  0  0  0  0  0
    2.8584    3.1936    0.1217 H   0  0  0  0  0  0  0  0  0  0  0  0
   -0.0637    0.1284    1.8555 C   0  0  0  0  0  0  0  0  0  0  0  0
    1.0918   -0.0745    2.2236 O   0  0  0  0  0  0  0  0  0  0  0  0
   -1.0024    0.6217    2.6735 N   0  0  0  0  0  0  0  0  0  0  0  0
   -1.9213    0.7848    2.2938 H   0  0  0  0  0  0  0  0  0  0  0  0
   -0.7639    0.9676    4.0741 C   0  0  0  0  0  0  0  0  0  0  0  0
    0.0520    1.6916    4.1400 H   0  0  0  0  0  0  0  0  0  0  0  0
   -1.6626    1.3984    4.5182 H   0  0  0  0  0  0  0  0  0  0  0  0
   -0.4775    0.0737    4.6309 H   0  0  0  0  0  0  0  0  0  0  0  0
  5  6  2  0  0  0  0
  5  7  1  0  0  0  0
  2  3  1  0  0  0  0
  2  4  1  0  0  0  0
  2  5  1  0  0  0  0
  1  2  1  0  0  0  0
 22 23  2  0  0  0  0
 22 24  1  0  0  0  0
 19 20  1  0  0  0  0
 19 21  1  0  0  0  0
 17 18  2  0  0  0  0
 17 19  1  0  0  0  0
 14 15  1  0  0  0  0
 14 16  1  0  0  0  0
 14 17  1  0  0  0  0
 11 12  1  0  0  0  0
 11 13  1  0  0  0  0
 11 14  1  0  0  0  0
  9 10  1  0  0  0  0
  9 11  1  0  0  0  0
  9 22  1  0  0  0  0
  7  8  1  0  0  0  0
  7  9  1  0  0  0  0
 26 27  1  0  0  0  0
 26 28  1  0  0  0  0
 26 29  1  0  0  0  0
 24 25  1  0  0  0  0
 24 26  1  0  0  0  0
M  END
$$$$
default_name
  -OEChem-02102213163D

 29 28  0     1  0  0  0  0  0999 V2000
   -3.3998   -3.6239    1.3678 H   0  0  0  0  0  0  0  0  0  0  0  0
   -3.3608   -2.6749    0.8348 C   0  0  0  0  0  0  0  0  0  0  0  0
   -4.0988   -1.9909    1.2498 H   0  0  0  0  0  0  0  0  0  0  0  0
   -3.5618   -2.8419   -0.2222 H   0  0  0  0  0  0  0  0  0  0  0  0
   -1.9818   -2.0809    0.9918 C   0  0  0  0  0  0  0  0  0  0  0  0
   -1.1288   -2.6669    1.6468 O   0  0  0  0  0  0  0  0  0  0  0  0
   -1.7648   -0.9089    0.3998 N   0  0  0  0  0  0  0  0  0  0  0  0
   -2.5238   -0.4719   -0.1032 H   0  0  0  0  0  0  0  0  0  0  0  0
   -0.4848   -0.1959    0.4138 C   0  0  1  0  0  0  0  0  0  0  0  0
    0.2783   -0.8411   -0.0248 H   0  0  0  0  0  0  0  0  0  0  0  0
   -0.6101    1.0666   -0.4611 C   0  0  0  0  0  0  0  0  0  0  0  0
   -0.6040    0.7601   -1.5092 H   0  0  0  0  0  0  0  0  0  0  0  0
   -1.5653    1.5510   -0.2530 H   0  0  0  0  0  0  0  0  0  0  0  0
    0.5218    2.0867   -0.2476 C   0  0  0  0  0  0  0  0  0  0  0  0
    0.5161    2.8161   -1.0573 H   0  0  0  0  0  0  0  0  0  0  0  0
    0.3535    2.6100    0.6936 H   0  0  0  0  0  0  0  0  0  0  0  0
    1.9084    1.4452   -0.1998 C   0  0  0  0  0  0  0  0  0  0  0  0
    2.0916    0.2432   -0.2481 O   0  0  0  0  0  0  0  0  0  0  0  0
    2.9591    2.2314   -0.1096 N   0  0  0  0  0  0  0  0  0  0  0  0
    3.8449    1.7569   -0.0827 H   0  0  0  0  0  0  0  0  0  0  0  0
    2.8652    3.2260   -0.0693 H   0  0  0  0  0  0  0  0  0  0  0  0
   -0.0637    0.1284    1.8555 C   0  0  0  0  0  0  0  0  0  0  0  0
    1.0918   -0.0745    2.2236 O   0  0  0  0  0  0  0  0  0  0  0  0
   -1.0024    0.6217    2.6735 N   0  0  0  0  0  0  0  0  0  0  0  0
   -1.9213    0.7848    2.2938 H   0  0  0  0  0  0  0  0  0  0  0  0
   -0.7639    0.9676    4.0741 C   0  0  0  0  0  0  0  0  0  0  0  0
    0.0520    1.6916    4.1400 H   0  0  0  0  0  0  0  0  0  0  0  0
   -1.6626    1.3984    4.5182 H   0  0  0  0  0  0  0  0  0  0  0  0
   -0.4775    0.0737    4.6309 H   0  0  0  0  0  0  0  0  0  0  0  0
  5  6  2  0  0  0  0
  5  7  1  0  0  0  0
  2  3  1  0  0  0  0
  2  4  1  0  0  0  0
  2  5  1  0  0  0  0
  1  2  1  0  0  0  0
 22 23  2  0  0  0  0
 22 24  1  0  0  0  0
 19 20  1  0  0  0  0
 19 21  1  0  0  0  0
 17 18  2  0  0  0  0
 17 19  1  0  0  0  0
 14 15  1  0  0  0  0
 14 16  1  0  0  0  0
 14 17  1  0  0  0  0
 11 12  1  0  0  0  0
 11 13  1  0  0  0  0
 11 14  1  0  0  0  0
  9 10  1  0  0  0  0
  9 11  1  0  0  0  0
  9 22  1  0  0  0  0
  7  8  1  0  0  0  0
  7  9  1  0  0  0  0
 26 27  1  0  0  0  0
 26 28  1  0  0  0  0
 26 29  1  0  0  0  0
 24 25  1  0  0  0  0
 24 26  1  0  0  0  0
M  END
$$$$
default_name
  -OEChem-02102213163D

 29 28  0     1  0  0  0  0  0999 V2000
   -3.3998   -3.6239    1.3678 H   0  0  0  0  0  0  0  0  0  0  0  0
   -3.3608   -2.6749    0.8348 C   0  0  0  0  0  0  0  0  0  0  0  0
   -4.0988   -1.9909    1.2498 H   0  0  0  0  0  0  0  0  0  0  0  0
   -3.5618   -2.8419   -0.2222 H   0  0  0  0  0  0  0  0  0  0  0  0
   -1.9818   -2.0809    0.9918 C   0  0  0  0  0  0  0  0  0  0  0  0
   -1.1288   -2.6669    1.6468 O   0  0  0  0  0  0  0  0  0  0  0  0
   -1.7648   -0.9089    0.3998 N   0  0  0  0  0  0  0  0  0  0  0  0
   -2.5238   -0.4719   -0.1032 H   0  0  0  0  0  0  0  0  0  0  0  0
   -0.4848   -0.1959    0.4138 C   0  0  1  0  0  0  0  0  0  0  0  0
    0.2783   -0.8411   -0.0248 H   0  0  0  0  0  0  0  0  0  0  0  0
   -0.6101    1.0666   -0.4611 C   0  0  0  0  0  0  0  0  0  0  0  0
   -0.6040    0.7601   -1.5092 H   0  0  0  0  0  0  0  0  0  0  0  0
   -1.5653    1.5510   -0.2530 H   0  0  0  0  0  0  0  0  0  0  0  0
    0.5218    2.0867   -0.2476 C   0  0  0  0  0  0  0  0  0  0  0  0
    0.3604    2.9535   -0.8881 H   0  0  0  0  0  0  0  0  0  0  0  0
    0.5108    2.4149    0.7917 H   0  0  0  0  0  0  0  0  0  0  0  0
    1.9075    1.5213   -0.5587 C   0  0  0  0  0  0  0  0  0  0  0  0
    2.1026    0.3610   -0.8688 O   0  0  0  0  0  0  0  0  0  0  0  0
    2.9423    2.3308   -0.4959 N   0  0  0  0  0  0  0  0  0  0  0  0
    3.8281    1.9069   -0.7107 H   0  0  0  0  0  0  0  0  0  0  0  0
    2.8378    3.2940   -0.2487 H   0  0  0  0  0  0  0  0  0  0  0  0
   -0.0637    0.1284    1.8555 C   0  0  0  0  0  0  0  0  0  0  0  0
    1.0918   -0.0745    2.2236 O   0  0  0  0  0  0  0  0  0  0  0  0
   -1.0024    0.6217    2.6735 N   0  0  0  0  0  0  0  0  0  0  0  0
   -1.9213    0.7848    2.2938 H   0  0  0  0  0  0  0  0  0  0  0  0
   -0.7639    0.9676    4.0741 C   0  0  0  0  0  0  0  0  0  0  0  0
    0.0520    1.6916    4.1400 H   0  0  0  0  0  0  0  0  0  0  0  0
   -1.6626    1.3984    4.5182 H   0  0  0  0  0  0  0  0  0  0  0  0
   -0.4775    0.0737    4.6309 H   0  0  0  0  0  0  0  0  0  0  0  0
  5  6  2  0  0  0  0
  5  7  1  0  0  0  0
  2  3  1  0  0  0  0
  2  4  1  0  0  0  0
  2  5  1  0  0  0  0
  1  2  1  0  0  0  0
 22 23  2  0  0  0  0
 22 24  1  0  0  0  0
 19 20  1  0  0  0  0
 19 21  1  0  0  0  0
 17 18  2  0  0  0  0
 17 19  1  0  0  0  0
 14 15  1  0  0  0  0
 14 16  1  0  0  0  0
 14 17  1  0  0  0  0
 11 12  1  0  0  0  0
 11 13  1  0  0  0  0
 11 14  1  0  0  0  0
  9 10  1  0  0  0  0
  9 11  1  0  0  0  0
  9 22  1  0  0  0  0
  7  8  1  0  0  0  0
  7  9  1  0  0  0  0
 26 27  1  0  0  0  0
 26 28  1  0  0  0  0
 26 29  1  0  0  0  0
 24 25  1  0  0  0  0
 24 26  1  0  0  0  0
M  END
$$$$
default_name
  -OEChem-02102213163D

 29 28  0     1  0  0  0  0  0999 V2000
   -3.3998   -3.6239    1.3678 H   0  0  0  0  0  0  0  0  0  0  0  0
   -3.3608   -2.6749    0.8348 C   0  0  0  0  0  0  0  0  0  0  0  0
   -4.0988   -1.9909    1.2498 H   0  0  0  0  0  0  0  0  0  0  0  0
   -3.5618   -2.8419   -0.2222 H   0  0  0  0  0  0  0  0  0  0  0  0
   -1.9818   -2.0809    0.9918 C   0  0  0  0  0  0  0  0  0  0  0  0
   -1.1288   -2.6669    1.6468 O   0  0  0  0  0  0  0  0  0  0  0  0
   -1.7648   -0.9089    0.3998 N   0  0  0  0  0  0  0  0  0  0  0  0
   -2.5238   -0.4719   -0.1032 H   0  0  0  0  0  0  0  0  0  0  0  0
   -0.4848   -0.1959    0.4138 C   0  0  1  0  0  0  0  0  0  0  0  0
    0.2783   -0.8411   -0.0248 H   0  0  0  0  0  0  0  0  0  0  0  0
   -0.6101    1.0666   -0.4611 C   0  0  0  0  0  0  0  0  0  0  0  0
   -0.6040    0.7601   -1.5092 H   0  0  0  0  0  0  0  0  0  0  0  0
   -1.5653    1.5510   -0.2530 H   0  0  0  0  0  0  0  0  0  0  0  0
    0.5218    2.0867   -0.2476 C   0  0  0  0  0  0  0  0  0  0  0  0
    0.2340    3.0484   -0.6718 H   0  0  0  0  0  0  0  0  0  0  0  0
    0.6866    2.2134    0.8223 H   0  0  0  0  0  0  0  0  0  0  0  0
    1.8423    1.6632   -0.8907 C   0  0  0  0  0  0  0  0  0  0  0  0
    2.0024    0.5933   -1.4478 O   0  0  0  0  0  0  0  0  0  0  0  0
    2.8563    2.4998   -0.8473 N   0  0  0  0  0  0  0  0  0  0  0  0
    3.6988    2.1708   -1.2859 H   0  0  0  0  0  0  0  0  0  0  0  0
    2.7781    3.3928   -0.4044 H   0  0  0  0  0  0  0  0  0  0  0  0
   -0.0637    0.1284    1.8555 C   0  0  0  0  0  0  0  0  0  0  0  0
    1.0918   -0.0745    2.2236 O   0  0  0  0  0  0  0  0  0  0  0  0
   -1.0024    0.6217    2.6735 N   0  0  0  0  0  0  0  0  0  0  0  0
   -1.9213    0.7848    2.2938 H   0  0  0  0  0  0  0  0  0  0  0  0
   -0.7639    0.9676    4.0741 C   0  0  0  0  0  0  0  0  0  0  0  0
    0.0520    1.6916    4.1400 H   0  0  0  0  0  0  0  0  0  0  0  0
   -1.6626    1.3984    4.5182 H   0  0  0  0  0  0  0  0  0  0  0  0
   -0.4775    0.0737    4.6309 H   0  0  0  0  0  0  0  0  0  0  0  0
  5  6  2  0  0  0  0
  5  7  1  0  0  0  0
  2  3  1  0  0  0  0
  2  4  1  0  0  0  0
  2  5  1  0  0  0  0
  1  2  1  0  0  0  0
 22 23  2  0  0  0  0
 22 24  1  0  0  0  0
 19 20  1  0  0  0  0
 19 21  1  0  0  0  0
 17 18  2  0  0  0  0
 17 19  1  0  0  0  0
 14 15  1  0  0  0  0
 14 16  1  0  0  0  0
 14 17  1  0  0  0  0
 11 12  1  0  0  0  0
 11 13  1  0  0  0  0
 11 14  1  0  0  0  0
  9 10  1  0  0  0  0
  9 11  1  0  0  0  0
  9 22  1  0  0  0  0
  7  8  1  0  0  0  0
  7  9  1  0  0  0  0
 26 27  1  0  0  0  0
 26 28  1  0  0  0  0
 26 29  1  0  0  0  0
 24 25  1  0  0  0  0
 24 26  1  0  0  0  0
M  END
$$$$
default_name
  -OEChem-02102213163D

 29 28  0     1  0  0  0  0  0999 V2000
   -3.3998   -3.6239    1.3678 H   0  0  0  0  0  0  0  0  0  0  0  0
   -3.3608   -2.6749    0.8348 C   0  0  0  0  0  0  0  0  0  0  0  0
   -4.0988   -1.9909    1.2498 H   0  0  0  0  0  0  0  0  0  0  0  0
   -3.5618   -2.8419   -0.2222 H   0  0  0  0  0  0  0  0  0  0  0  0
   -1.9818   -2.0809    0.9918 C   0  0  0  0  0  0  0  0  0  0  0  0
   -1.1288   -2.6669    1.6468 O   0  0  0  0  0  0  0  0  0  0  0  0
   -1.7648   -0.9089    0.3998 N   0  0  0  0  0  0  0  0  0  0  0  0
   -2.5238   -0.4719   -0.1032 H   0  0  0  0  0  0  0  0  0  0  0  0
   -0.4848   -0.1959    0.4138 C   0  0  1  0  0  0  0  0  0  0  0  0
    0.2783   -0.8411   -0.0248 H   0  0  0  0  0  0  0  0  0  0  0  0
   -0.6101    1.0666   -0.4611 C   0  0  0  0  0  0  0  0  0  0  0  0
   -0.6040    0.7601   -1.5092 H   0  0  0  0  0  0  0  0  0  0  0  0
   -1.5653    1.5510   -0.2530 H   0  0  0  0  0  0  0  0  0  0  0  0
    0.5218    2.0867   -0.2476 C   0  0  0  0  0  0  0  0  0  0  0  0
    0.1457    3.0944   -0.4232 H   0  0  0  0  0  0  0  0  0  0  0  0
    0.8689    2.0193    0.7834 H   0  0  0  0  0  0  0  0  0  0  0  0
    1.7172    1.8610   -1.1731 C   0  0  0  0  0  0  0  0  0  0  0  0
    1.7979    0.9244   -1.9456 O   0  0  0  0  0  0  0  0  0  0  0  0
    2.7069    2.7269   -1.1398 N   0  0  0  0  0  0  0  0  0  0  0  0
    3.4658    2.5305   -1.7690 H   0  0  0  0  0  0  0  0  0  0  0  0
    2.6902    3.5157   -0.5257 H   0  0  0  0  0  0  0  0  0  0  0  0
   -0.0637    0.1284    1.8555 C   0  0  0  0  0  0  0  0  0  0  0  0
    1.0918   -0.0745    2.2236 O   0  0  0  0  0  0  0  0  0  0  0  0
   -1.0024    0.6217    2.6735 N   0  0  0  0  0  0  0  0  0  0  0  0
   -1.9213    0.7848    2.2938 H   0  0  0  0  0  0  0  0  0  0  0  0
   -0.7639    0.9676    4.0741 C   0  0  0  0  0  0  0  0  0  0  0  0
    0.0520    1.6916    4.1400 H   0  0  0  0  0  0  0  0  0  0  0  0
   -1.6626    1.3984    4.5182 H   0  0  0  0  0  0  0  0  0  0  0  0
   -0.4775    0.0737    4.6309 H   0  0  0  0  0  0  0  0  0  0  0  0
  5  6  2  0  0  0  0
  5  7  1  0  0  0  0
  2  3  1  0  0  0  0
  2  4  1  0  0  0  0
  2  5  1  0  0  0  0
  1  2  1  0  0  0  0
 22 23  2  0  0  0  0
 22 24  1  0  0  0  0
 19 20  1  0  0  0  0
 19 21  1  0  0  0  0
 17 18  2  0  0  0  0
 17 19  1  0  0  0  0
 14 15  1  0  0  0  0
 14 16  1  0  0  0  0
 14 17  1  0  0  0  0
 11 12  1  0  0  0  0
 11 13  1  0  0  0  0
 11 14  1  0  0  0  0
  9 10  1  0  0  0  0
  9 11  1  0  0  0  0
  9 22  1  0  0  0  0
  7  8  1  0  0  0  0
  7  9  1  0  0  0  0
 26 27  1  0  0  0  0
 26 28  1  0  0  0  0
 26 29  1  0  0  0  0
 24 25  1  0  0  0  0
 24 26  1  0  0  0  0
M  END
$$$$
default_name
  -OEChem-02102213163D

 29 28  0     1  0  0  0  0  0999 V2000
   -3.3998   -3.6239    1.3678 H   0  0  0  0  0  0  0  0  0  0  0  0
   -3.3608   -2.6749    0.8348 C   0  0  0  0  0  0  0  0  0  0  0  0
   -4.0988   -1.9909    1.2498 H   0  0  0  0  0  0  0  0  0  0  0  0
   -3.5618   -2.8419   -0.2222 H   0  0  0  0  0  0  0  0  0  0  0  0
   -1.9818   -2.0809    0.9918 C   0  0  0  0  0  0  0  0  0  0  0  0
   -1.1288   -2.6669    1.6468 O   0  0  0  0  0  0  0  0  0  0  0  0
   -1.7648   -0.9089    0.3998 N   0  0  0  0  0  0  0  0  0  0  0  0
   -2.5238   -0.4719   -0.1032 H   0  0  0  0  0  0  0  0  0  0  0  0
   -0.4848   -0.1959    0.4138 C   0  0  1  0  0  0  0  0  0  0  0  0
    0.2783   -0.8411   -0.0248 H   0  0  0  0  0  0  0  0  0  0  0  0
   -0.6101    1.0666   -0.4611 C   0  0  0  0  0  0  0  0  0  0  0  0
   -0.6040    0.7601   -1.5092 H   0  0  0  0  0  0  0  0  0  0  0  0
   -1.5653    1.5510   -0.2530 H   0  0  0  0  0  0  0  0  0  0  0  0
    0.5218    2.0867   -0.2476 C   0  0  0  0  0  0  0  0  0  0  0  0
    0.1014    3.0883   -0.1590 H   0  0  0  0  0  0  0  0  0  0  0  0
    1.0453    1.8458    0.6775 H   0  0  0  0  0  0  0  0  0  0  0  0
    1.5408    2.1015   -1.3869 C   0  0  0  0  0  0  0  0  0  0  0  0
    1.5031    1.3316   -2.3284 O   0  0  0  0  0  0  0  0  0  0  0  0
    2.5042    2.9965   -1.3534 N   0  0  0  0  0  0  0  0  0  0  0  0
    3.1448    2.9616   -2.1272 H   0  0  0  0  0  0  0  0  0  0  0  0
    2.5800    3.6544   -0.6044 H   0  0  0  0  0  0  0  0  0  0  0  0
   -0.0637    0.1284    1.8555 C   0  0  0  0  0  0  0  0  0  0  0  0
    1.0918   -0.0745    2.2236 O   0  0  0  0  0  0  0  0  0  0  0  0
   -1.0024    0.6217    2.6735 N   0  0  0  0  0  0  0  0  0  0  0  0
   -1.9213    0.7848    2.2938 H   0  0  0  0  0  0  0  0  0  0  0  0
   -0.7639    0.9676    4.0741 C   0  0  0  0  0  0  0  0  0  0  0  0
    0.0520    1.6916    4.1400 H   0  0  0  0  0  0  0  0  0  0  0  0
   -1.6626    1.3984    4.5182 H   0  0  0  0  0  0  0  0  0  0  0  0
   -0.4775    0.0737    4.6309 H   0  0  0  0  0  0  0  0  0  0  0  0
  5  6  2  0  0  0  0
  5  7  1  0  0  0  0
  2  3  1  0  0  0  0
  2  4  1  0  0  0  0
  2  5  1  0  0  0  0
  1  2  1  0  0  0  0
 22 23  2  0  0  0  0
 22 24  1  0  0  0  0
 19 20  1  0  0  0  0
 19 21  1  0  0  0  0
 17 18  2  0  0  0  0
 17 19  1  0  0  0  0
 14 15  1  0  0  0  0
 14 16  1  0  0  0  0
 14 17  1  0  0  0  0
 11 12  1  0  0  0  0
 11 13  1  0  0  0  0
 11 14  1  0  0  0  0
  9 10  1  0  0  0  0
  9 11  1  0  0  0  0
  9 22  1  0  0  0  0
  7  8  1  0  0  0  0
  7  9  1  0  0  0  0
 26 27  1  0  0  0  0
 26 28  1  0  0  0  0
 26 29  1  0  0  0  0
 24 25  1  0  0  0  0
 24 26  1  0  0  0  0
M  END
$$$$
default_name
  -OEChem-02102213163D

 29 28  0     1  0  0  0  0  0999 V2000
   -3.3998   -3.6239    1.3678 H   0  0  0  0  0  0  0  0  0  0  0  0
   -3.3608   -2.6749    0.8348 C   0  0  0  0  0  0  0  0  0  0  0  0
   -4.0988   -1.9909    1.2498 H   0  0  0  0  0  0  0  0  0  0  0  0
   -3.5618   -2.8419   -0.2222 H   0  0  0  0  0  0  0  0  0  0  0  0
   -1.9818   -2.0809    0.9918 C   0  0  0  0  0  0  0  0  0  0  0  0
   -1.1288   -2.6669    1.6468 O   0  0  0  0  0  0  0  0  0  0  0  0
   -1.7648   -0.9089    0.3998 N   0  0  0  0  0  0  0  0  0  0  0  0
   -2.5238   -0.4719   -0.1032 H   0  0  0  0  0  0  0  0  0  0  0  0
   -0.4848   -0.1959    0.4138 C   0  0  1  0  0  0  0  0  0  0  0  0
    0.2783   -0.8411   -0.0248 H   0  0  0  0  0  0  0  0  0  0  0  0
   -0.6101    1.0666   -0.4611 C   0  0  0  0  0  0  0  0  0  0  0  0
   -0.6040    0.7601   -1.5092 H   0  0  0  0  0  0  0  0  0  0  0  0
   -1.5653    1.5510   -0.2530 H   0  0  0  0  0  0  0  0  0  0  0  0
    0.5218    2.0867   -0.2476 C   0  0  0  0  0  0  0  0  0  0  0  0
    0.1042    3.0305    0.1025 H   0  0  0  0  0  0  0  0  0  0  0  0
    1.2037    1.7046    0.5120 H   0  0  0  0  0  0  0  0  0  0  0  0
    1.3252    2.3681   -1.5173 C   0  0  0  0  0  0  0  0  0  0  0  0
    1.1381    1.7873   -2.5700 O   0  0  0  0  0  0  0  0  0  0  0  0
    2.2620    3.2904   -1.4737 N   0  0  0  0  0  0  0  0  0  0  0  0
    2.7579    3.4347   -2.3361 H   0  0  0  0  0  0  0  0  0  0  0  0
    2.4552    3.7994   -0.6351 H   0  0  0  0  0  0  0  0  0  0  0  0
   -0.0637    0.1284    1.8555 C   0  0  0  0  0  0  0  0  0  0  0  0
    1.0918   -0.0745    2.2236 O   0  0  0  0  0  0  0  0  0  0  0  0
   -1.0024    0.6217    2.6735 N   0  0  0  0  0  0  0  0  0  0  0  0
   -1.9213    0.7848    2.2938 H   0  0  0  0  0  0  0  0  0  0  0  0
   -0.7639    0.9676    4.0741 C   0  0  0  0  0  0  0  0  0  0  0  0
    0.0520    1.6916    4.1400 H   0  0  0  0  0  0  0  0  0  0  0  0
   -1.6626    1.3984    4.5182 H   0  0  0  0  0  0  0  0  0  0  0  0
   -0.4775    0.0737    4.6309 H   0  0  0  0  0  0  0  0  0  0  0  0
  5  6  2  0  0  0  0
  5  7  1  0  0  0  0
  2  3  1  0  0  0  0
  2  4  1  0  0  0  0
  2  5  1  0  0  0  0
  1  2  1  0  0  0  0
 22 23  2  0  0  0  0
 22 24  1  0  0  0  0
 19 20  1  0  0  0  0
 19 21  1  0  0  0  0
 17 18  2  0  0  0  0
 17 19  1  0  0  0  0
 14 15  1  0  0  0  0
 14 16  1  0  0  0  0
 14 17  1  0  0  0  0
 11 12  1  0  0  0  0
 11 13  1  0  0  0  0
 11 14  1  0  0  0  0
  9 10  1  0  0  0  0
  9 11  1  0  0  0  0
  9 22  1  0  0  0  0
  7  8  1  0  0  0  0
  7  9  1  0  0  0  0
 26 27  1  0  0  0  0
 26 28  1  0  0  0  0
 26 29  1  0  0  0  0
 24 25  1  0  0  0  0
 24 26  1  0  0  0  0
M  END
$$$$
default_name
  -OEChem-02102213163D

 29 28  0     1  0  0  0  0  0999 V2000
   -3.3998   -3.6239    1.3678 H   0  0  0  0  0  0  0  0  0  0  0  0
   -3.3608   -2.6749    0.8348 C   0  0  0  0  0  0  0  0  0  0  0  0
   -4.0988   -1.9909    1.2498 H   0  0  0  0  0  0  0  0  0  0  0  0
   -3.5618   -2.8419   -0.2222 H   0  0  0  0  0  0  0  0  0  0  0  0
   -1.9818   -2.0809    0.9918 C   0  0  0  0  0  0  0  0  0  0  0  0
   -1.1288   -2.6669    1.6468 O   0  0  0  0  0  0  0  0  0  0  0  0
   -1.7648   -0.9089    0.3998 N   0  0  0  0  0  0  0  0  0  0  0  0
   -2.5238   -0.4719   -0.1032 H   0  0  0  0  0  0  0  0  0  0  0  0
   -0.4848   -0.1959    0.4138 C   0  0  1  0  0  0  0  0  0  0  0  0
    0.2783   -0.8411   -0.0248 H   0  0  0  0  0  0  0  0  0  0  0  0
   -0.6101    1.0666   -0.4611 C   0  0  0  0  0  0  0  0  0  0  0  0
   -0.6040    0.7601   -1.5092 H   0  0  0  0  0  0  0  0  0  0  0  0
   -1.5653    1.5510   -0.2530 H   0  0  0  0  0  0  0  0  0  0  0  0
    0.5218    2.0867   -0.2476 C   0  0  0  0  0  0  0  0  0  0  0  0
    0.1538    2.9250    0.3437 H   0  0  0  0  0  0  0  0  0  0  0  0
    1.3334    1.6055    0.2980 H   0  0  0  0  0  0  0  0  0  0  0  0
    1.0849    2.6427   -1.5554 C   0  0  0  0  0  0  0  0  0  0  0  0
    0.7276    2.2603   -2.6539 O   0  0  0  0  0  0  0  0  0  0  0  0
    1.9970    3.5884   -1.4923 N   0  0  0  0  0  0  0  0  0  0  0  0
    2.3313    3.9175   -2.3813 H   0  0  0  0  0  0  0  0  0  0  0  0
    2.3241    3.9408   -0.6157 H   0  0  0  0  0  0  0  0  0  0  0  0
   -0.0637    0.1284    1.8555 C   0  0  0  0  0  0  0  0  0  0  0  0
    1.0918   -0.0745    2.2236 O   0  0  0  0  0  0  0  0  0  0  0  0
   -1.0024    0.6217    2.6735 N   0  0  0  0  0  0  0  0  0  0  0  0
   -1.9213    0.7848    2.2938 H   0  0  0  0  0  0  0  0  0  0  0  0
   -0.7639    0.9676    4.0741 C   0  0  0  0  0  0  0  0  0  0  0  0
    0.0520    1.6916    4.1400 H   0  0  0  0  0  0  0  0  0  0  0  0
   -1.6626    1.3984    4.5182 H   0  0  0  0  0  0  0  0  0  0  0  0
   -0.4775    0.0737    4.6309 H   0  0  0  0  0  0  0  0  0  0  0  0
  5  6  2  0  0  0  0
  5  7  1  0  0  0  0
  2  3  1  0  0  0  0
  2  4  1  0  0  0  0
  2  5  1  0  0  0  0
  1  2  1  0  0  0  0
 22 23  2  0  0  0  0
 22 24  1  0  0  0  0
 19 20  1  0  0  0  0
 19 21  1  0  0  0  0
 17 18  2  0  0  0  0
 17 19  1  0  0  0  0
 14 15  1  0  0  0  0
 14 16  1  0  0  0  0
 14 17  1  0  0  0  0
 11 12  1  0  0  0  0
 11 13  1  0  0  0  0
 11 14  1  0  0  0  0
  9 10  1  0  0  0  0
  9 11  1  0  0  0  0
  9 22  1  0  0  0  0
  7  8  1  0  0  0  0
  7  9  1  0  0  0  0
 26 27  1  0  0  0  0
 26 28  1  0  0  0  0
 26 29  1  0  0  0  0
 24 25  1  0  0  0  0
 24 26  1  0  0  0  0
M  END
$$$$
default_name
  -OEChem-02102213163D

 29 28  0     1  0  0  0  0  0999 V2000
   -3.3998   -3.6239    1.3678 H   0  0  0  0  0  0  0  0  0  0  0  0
   -3.3608   -2.6749    0.8348 C   0  0  0  0  0  0  0  0  0  0  0  0
   -4.0988   -1.9909    1.2498 H   0  0  0  0  0  0  0  0  0  0  0  0
   -3.5618   -2.8419   -0.2222 H   0  0  0  0  0  0  0  0  0  0  0  0
   -1.9818   -2.0809    0.9918 C   0  0  0  0  0  0  0  0  0  0  0  0
   -1.1288   -2.6669    1.6468 O   0  0  0  0  0  0  0  0  0  0  0  0
   -1.7648   -0.9089    0.3998 N   0  0  0  0  0  0  0  0  0  0  0  0
   -2.5238   -0.4719   -0.1032 H   0  0  0  0  0  0  0  0  0  0  0  0
   -0.4848   -0.1959    0.4138 C   0  0  1  0  0  0  0  0  0  0  0  0
    0.2783   -0.8411   -0.0248 H   0  0  0  0  0  0  0  0  0  0  0  0
   -0.6101    1.0666   -0.4611 C   0  0  0  0  0  0  0  0  0  0  0  0
   -0.6040    0.7601   -1.5092 H   0  0  0  0  0  0  0  0  0  0  0  0
   -1.5653    1.5510   -0.2530 H   0  0  0  0  0  0  0  0  0  0  0  0
    0.5218    2.0867   -0.2476 C   0  0  0  0  0  0  0  0  0  0  0  0
    0.2469    2.7789    0.5480 H   0  0  0  0  0  0  0  0  0  0  0  0
    1.4255    1.5551    0.0502 H   0  0  0  0  0  0  0  0  0  0  0  0
    0.8364    2.9066   -1.4988 C   0  0  0  0  0  0  0  0  0  0  0  0
    0.2998    2.7184   -2.5745 O   0  0  0  0  0  0  0  0  0  0  0  0
    1.7270    3.8703   -1.4081 N   0  0  0  0  0  0  0  0  0  0  0  0
    1.8941    4.3772   -2.2599 H   0  0  0  0  0  0  0  0  0  0  0  0
    2.1957    4.0690   -0.5475 H   0  0  0  0  0  0  0  0  0  0  0  0
   -0.0637    0.1284    1.8555 C   0  0  0  0  0  0  0  0  0  0  0  0
    1.0918   -0.0745    2.2236 O   0  0  0  0  0  0  0  0  0  0  0  0
   -1.0024    0.6217    2.6735 N   0  0  0  0  0  0  0  0  0  0  0  0
   -1.9213    0.7848    2.2938 H   0  0  0  0  0  0  0  0  0  0  0  0
   -0.7639    0.9676    4.0741 C   0  0  0  0  0  0  0  0  0  0  0  0
    0.0520    1.6916    4.1400 H   0  0  0  0  0  0  0  0  0  0  0  0
   -1.6626    1.3984    4.5182 H   0  0  0  0  0  0  0  0  0  0  0  0
   -0.4775    0.0737    4.6309 H   0  0  0  0  0  0  0  0  0  0  0  0
  5  6  2  0  0  0  0
  5  7  1  0  0  0  0
  2  3  1  0  0  0  0
  2  4  1  0  0  0  0
  2  5  1  0  0  0  0
  1  2  1  0  0  0  0
 22 23  2  0  0  0  0
 22 24  1  0  0  0  0
 19 20  1  0  0  0  0
 19 21  1  0  0  0  0
 17 18  2  0  0  0  0
 17 19  1  0  0  0  0
 14 15  1  0  0  0  0
 14 16  1  0  0  0  0
 14 17  1  0  0  0  0
 11 12  1  0  0  0  0
 11 13  1  0  0  0  0
 11 14  1  0  0  0  0
  9 10  1  0  0  0  0
  9 11  1  0  0  0  0
  9 22  1  0  0  0  0
  7  8  1  0  0  0  0
  7  9  1  0  0  0  0
 26 27  1  0  0  0  0
 26 28  1  0  0  0  0
 26 29  1  0  0  0  0
 24 25  1  0  0  0  0
 24 26  1  0  0  0  0
M  END
$$$$
default_name
  -OEChem-02102213163D

 29 28  0     1  0  0  0  0  0999 V2000
   -3.3998   -3.6239    1.3678 H   0  0  0  0  0  0  0  0  0  0  0  0
   -3.3608   -2.6749    0.8348 C   0  0  0  0  0  0  0  0  0  0  0  0
   -4.0988   -1.9909    1.2498 H   0  0  0  0  0  0  0  0  0  0  0  0
   -3.5618   -2.8419   -0.2222 H   0  0  0  0  0  0  0  0  0  0  0  0
   -1.9818   -2.0809    0.9918 C   0  0  0  0  0  0  0  0  0  0  0  0
   -1.1288   -2.6669    1.6468 O   0  0  0  0  0  0  0  0  0  0  0  0
   -1.7648   -0.9089    0.3998 N   0  0  0  0  0  0  0  0  0  0  0  0
   -2.5238   -0.4719   -0.1032 H   0  0  0  0  0  0  0  0  0  0  0  0
   -0.4848   -0.1959    0.4138 C   0  0  1  0  0  0  0  0  0  0  0  0
    0.2783   -0.8411   -0.0248 H   0  0  0  0  0  0  0  0  0  0  0  0
   -0.6101    1.0666   -0.4611 C   0  0  0  0  0  0  0  0  0  0  0  0
   -0.6040    0.7601   -1.5092 H   0  0  0  0  0  0  0  0  0  0  0  0
   -1.5653    1.5510   -0.2530 H   0  0  0  0  0  0  0  0  0  0  0  0
    0.5218    2.0867   -0.2476 C   0  0  0  0  0  0  0  0  0  0  0  0
    0.3771    2.6022    0.7016 H   0  0  0  0  0  0  0  0  0  0  0  0
    1.4738    1.5570   -0.2146 H   0  0  0  0  0  0  0  0  0  0  0  0
    0.5966    3.1417   -1.3512 C   0  0  0  0  0  0  0  0  0  0  0  0
   -0.1163    3.1304   -2.3372 O   0  0  0  0  0  0  0  0  0  0  0  0
    1.4706    4.1169   -1.2267 N   0  0  0  0  0  0  0  0  0  0  0  0
    1.4762    4.7824   -1.9801 H   0  0  0  0  0  0  0  0  0  0  0  0
    2.0788    4.1753   -0.4352 H   0  0  0  0  0  0  0  0  0  0  0  0
   -0.0637    0.1284    1.8555 C   0  0  0  0  0  0  0  0  0  0  0  0
    1.0918   -0.0745    2.2236 O   0  0  0  0  0  0  0  0  0  0  0  0
   -1.0024    0.6217    2.6735 N   0  0  0  0  0  0  0  0  0  0  0  0
   -1.9213    0.7848    2.2938 H   0  0  0  0  0  0  0  0  0  0  0  0
   -0.7639    0.9676    4.0741 C   0  0  0  0  0  0  0  0  0  0  0  0
    0.0520    1.6916    4.1400 H   0  0  0  0  0  0  0  0  0  0  0  0
   -1.6626    1.3984    4.5182 H   0  0  0  0  0  0  0  0  0  0  0  0
   -0.4775    0.0737    4.6309 H   0  0  0  0  0  0  0  0  0  0  0  0
  5  6  2  0  0  0  0
  5  7  1  0  0  0  0
  2  3  1  0  0  0  0
  2  4  1  0  0  0  0
  2  5  1  0  0  0  0
  1  2  1  0  0  0  0
 22 23  2  0  0  0  0
 22 24  1  0  0  0  0
 19 20  1  0  0  0  0
 19 21  1  0  0  0  0
 17 18  2  0  0  0  0
 17 19  1  0  0  0  0
 14 15  1  0  0  0  0
 14 16  1  0  0  0  0
 14 17  1  0  0  0  0
 11 12  1  0  0  0  0
 11 13  1  0  0  0  0
 11 14  1  0  0  0  0
  9 10  1  0  0  0  0
  9 11  1  0  0  0  0
  9 22  1  0  0  0  0
  7  8  1  0  0  0  0
  7  9  1  0  0  0  0
 26 27  1  0  0  0  0
 26 28  1  0  0  0  0
 26 29  1  0  0  0  0
 24 25  1  0  0  0  0
 24 26  1  0  0  0  0
M  END
$$$$
