default_name
  -OEChem-02102213163D

 29 28  0     1  0  0  0  0  0999 V2000
   -3.3998   -3.6239    1.3678 H   0  0  0  0  0  0  0  0  0  0  0  0
   -3.3608   -2.6749    0.8348 C   0  0  0  0  0  0  0  0  0  0  0  0
   -4.0988   -1.9909    1.2498 H   0  0  0  0  0  0  0  0  0  0  0  0
   -3.5618   -2.8419   -0.2222 H   0  0  0  0  0  0  0  0  0  0  0  0
   -1.9818   -2.0809    0.9918 C   0  0  0  0  0  0  0  0  0  0  0  0
   -1.1288   -2.6669    1.6468 O   0  0  0  0  0  0  0  0  0  0  0  0
   -1.7648   -0.9089    0.3998 N   0  0  0  0  0  0  0  0  0  0  0  0
   -2.5238   -0.4719   -0.1032 H   0  0  0  0  0  0  0  0  0  0  0  0
   -0.4848   -0.1959    0.4138 C   0  0  1  0  0  0  0  0  0  0  0  0
    0.1386   -0.6144    1.2058 H   0  0  0  0  0  0  0  0  0  0  0  0
    0.2271   -0.4272   -0.9334 C   0  0  0  0  0  0  0  0  0  0  0  0
    0.3808   -1.5008   -1.0607 H   0  0  0  0  0  0  0  0  0  0  0  0
   -0.4167   -0.0766   -1.7415 H   0  0  0  0  0  0  0  0  0  0  0  0
    1.5919    0.2745   -1.0447 C   0  0  0  0  0  0  0  0  0  0  0  0
    1.4632    1.3495   -0.9197 H   0  0  0  0  0  0  0  0  0  0  0  0
    2.2441   -0.0925   -0.2523 H   0  0  0  0  0  0  0  0  0  0  0  0
    2.2838    0.0348   -2.3865 C   0  0  0  0  0  0  0  0  0  0  0  0
    1.8366   -0.6987   -3.2483 O   0  0  0  0  0  0  0  0  0  0  0  0
    3.4167    0.6583   -2.6268 N   0  0  0  0  0  0  0  0  0  0  0  0
    3.8272    0.4649   -3.5238 H   0  0  0  0  0  0  0  0  0  0  0  0
    3.8267    1.2743   -1.9544 H   0  0  0  0  0  0  0  0  0  0  0  0
   -0.7011    1.2952    0.7149 C   0  0  0  0  0  0  0  0  0  0  0  0
   -1.5917    1.9198    0.1415 O   0  0  0  0  0  0  0  0  0  0  0  0
    0.1191    1.8675    1.6055 N   0  0  0  0  0  0  0  0  0  0  0  0
    0.8092    1.2861    2.0537 H   0  0  0  0  0  0  0  0  0  0  0  0
    0.0509    3.2769    1.9894 C   0  0  0  0  0  0  0  0  0  0  0  0
   -0.9494    3.5076    2.3640 H   0  0  0  0  0  0  0  0  0  0  0  0
    0.7844    3.4956    2.7668 H   0  0  0  0  0  0  0  0  0  0  0  0
    0.2468    3.9058    1.1193 H   0  0  0  0  0  0  0  0  0  0  0  0
  5  6  2  0  0  0  0
  5  7  1  0  0  0  0
  2  3  1  0  0  0  0
  2  4  1  0  0  0  0
  2  5  1  0  0  0  0
  1  2  1  0  0  0  0
 22 23  2  0  0  0  0
 22 24  1  0  0  0  0
 19 20  1  0  0  0  0
 19 21  1  0  0  0  0
 17 18  2  0  0  0  0
 17 19  1  0  0  0  0
 14 15  1  0  0  0  0
 14 16  1  0  0  0  0
 14 17  1  0  0  0  0
 11 12  1  0  0  0  0
 11 13  1  0  0  0  0
 11 14  1  0  0  0  0
  9 10  1  0  0  0  0
  9 11  1  0  0  0  0
  9 22  1  0  0  0  0
  7  8  1  0  0  0  0
  7  9  1  0  0  0  0
 26 27  1  0  0  0  0
 26 28  1  0  0  0  0
 26 29  1  0  0  0  0
 24 25  1  0  0  0  0
 24 26  1  0  0  0  0
M  END
$$$$
default_name
  -OEChem-02102213163D

 29 28  0     1  0  0  0  0  0999 V2000
   -3.3998   -3.6239    1.3678 H   0  0  0  0  0  0  0  0  0  0  0  0
   -3.3608   -2.6749    0.8348 C   0  0  0  0  0  0  0  0  0  0  0  0
   -4.0988   -1.9909    1.2498 H   0  0  0  0  0  0  0  0  0  0  0  0
   -3.5618   -2.8419   -0.2222 H   0  0  0  0  0  0  0  0  0  0  0  0
   -1.9818   -2.0809    0.9918 C   0  0  0  0  0  0  0  0  0  0  0  0
   -1.1288   -2.6669    1.6468 O   0  0  0  0  0  0  0  0  0  0  0  0
   -1.7648   -0.9089    0.3998 N   0  0  0  0  0  0  0  0  0  0  0  0
   -2.5238   -0.4719   -0.1032 H   0  0  0  0  0  0  0  0  0  0  0  0
   -0.4848   -0.1959    0.4138 C   0  0  1  0  0  0  0  0  0  0  0  0
    0.1386   -0.6144    1.2058 H   0  0  0  0  0  0  0  0  0  0  0  0
    0.2271   -0.4272   -0.9334 C   0  0  0  0  0  0  0  0  0  0  0  0
    0.3808   -1.5008   -1.0607 H   0  0  0  0  0  0  0  0  0  0  0  0
   -0.4167   -0.0766   -1.7415 H   0  0  0  0  0  0  0  0  0  0  0  0
    1.5919    0.2745   -1.0447 C   0  0  0  0  0  0  0  0  0  0  0  0
    1.5136    1.2923   -0.6629 H   0  0  0  0  0  0  0  0  0  0  0  0
    2.3192   -0.2687   -0.4414 H   0  0  0  0  0  0  0  0  0  0  0  0
    2.1155    0.3474   -2.4790 C   0  0  0  0  0  0  0  0  0  0  0  0
    1.5479   -0.1653   -3.4254 O   0  0  0  0  0  0  0  0  0  0  0  0
    3.2327    1.0040   -2.7049 N   0  0  0  0  0  0  0  0  0  0  0  0
    3.5300    1.0207   -3.6650 H   0  0  0  0  0  0  0  0  0  0  0  0
    3.7376    1.4461   -1.9638 H   0  0  0  0  0  0  0  0  0  0  0  0
   -0.7011    1.2952    0.7149 C   0  0  0  0  0  0  0  0  0  0  0  0
   -1.5917    1.9198    0.1415 O   0  0  0  0  0  0  0  0  0  0  0  0
    0.1191    1.8675    1.6055 N   0  0  0  0  0  0  0  0  0  0  0  0
    0.8092    1.2861    2.0537 H   0  0  0  0  0  0  0  0  0  0  0  0
    0.0509    3.2769    1.9894 C   0  0  0  0  0  0  0  0  0  0  0  0
   -0.9494    3.5076    2.3640 H   0  0  0  0  0  0  0  0  0  0  0  0
    0.7844    3.4956    2.7668 H   0  0  0  0  0  0  0  0  0  0  0  0
    0.2468    3.9058    1.1193 H   0  0  0  0  0  0  0  0  0  0  0  0
  5  6  2  0  0  0  0
  5  7  1  0  0  0  0
  2  3  1  0  0  0  0
  2  4  1  0  0  0  0
  2  5  1  0  0  0  0
  1  2  1  0  0  0  0
 22 23  2  0  0  0  0
 22 24  1  0  0  0  0
 19 20  1  0  0  0  0
 19 21  1  0  0  0  0
 17 18  2  0  0  0  0
 17 19  1  0  0  0  0
 14 15  1  0  0  0  0
 14 16  1  0  0  0  0
 14 17  1  0  0  0  0
 11 12  1  0  0  0  0
 11 13  1  0  0  0  0
 11 14  1  0  0  0  0
  9 10  1  0  0  0  0
  9 11  1  0  0  0  0
  9 22  1  0  0  0  0
  7  8  1  0  0  0  0
  7  9  1  0  0  0  0
 26 27  1  0  0  0  0
 26 28  1  0  0  0  0
 26 29  1  0  0  0  0
 24 25  1  0  0  0  0
 24 26  1  0  0  0  0
M  END
$$$$
default_name
  -OEChem-02102213163D

 29 28  0     1  0  0  0  0  0999 V2000
   -3.3998   -3.6239    1.3678 H   0  0  0  0  0  0  0  0  0  0  0  0
   -3.3608   -2.6749    0.8348 C   0  0  0  0  0  0  0  0  0  0  0  0
   -4.0988   -1.9909    1.2498 H   0  0  0  0  0  0  0  0  0  0  0  0
   -3.5618   -2.8419   -0.2222 H   0  0  0  0  0  0  0  0  0  0  0  0
   -1.9818   -2.0809    0.9918 C   0  0  0  0  0  0  0  0  0  0  0  0
   -1.1288   -2.6669    1.6468 O   0  0  0  0  0  0  0  0  0  0  0  0
   -1.7648   -0.9089    0.3998 N   0  0  0  0  0  0  0  0  0  0  0  0
   -2.5238   -0.4719   -0.1032 H   0  0  0  0  0  0  0  0  0  0  0  0
   -0.4848   -0.1959    0.4138 C   0  0  1  0  0  0  0  0  0  0  0  0
    0.1386   -0.6144    1.2058 H   0  0  0  0  0  0  0  0  0  0  0  0
    0.2271   -0.4272   -0.9334 C   0  0  0  0  0  0  0  0  0  0  0  0
    0.3808   -1.5008   -1.0607 H   0  0  0  0  0  0  0  0  0  0  0  0
   -0.4167   -0.0766   -1.7415 H   0  0  0  0  0  0  0  0  0  0  0  0
    1.5919    0.2745   -1.0447 C   0  0  0  0  0  0  0  0  0  0  0  0
    1.5915    1.1771   -0.4340 H   0  0  0  0  0  0  0  0  0  0  0  0
    2.3661   -0.3968   -0.6734 H   0  0  0  0  0  0  0  0  0  0  0  0
    1.9479    0.6737   -2.4767 C   0  0  0  0  0  0  0  0  0  0  0  0
    1.2581    0.3960   -3.4399 O   0  0  0  0  0  0  0  0  0  0  0  0
    3.0521    1.3592   -2.6793 N   0  0  0  0  0  0  0  0  0  0  0  0
    3.2366    1.5955   -3.6388 H   0  0  0  0  0  0  0  0  0  0  0  0
    3.6536    1.6159   -1.9230 H   0  0  0  0  0  0  0  0  0  0  0  0
   -0.7011    1.2952    0.7149 C   0  0  0  0  0  0  0  0  0  0  0  0
   -1.5917    1.9198    0.1415 O   0  0  0  0  0  0  0  0  0  0  0  0
    0.1191    1.8675    1.6055 N   0  0  0  0  0  0  0  0  0  0  0  0
    0.8092    1.2861    2.0537 H   0  0  0  0  0  0  0  0  0  0  0  0
    0.0509    3.2769    1.9894 C   0  0  0  0  0  0  0  0  0  0  0  0
   -0.9494    3.5076    2.3640 H   0  0  0  0  0  0  0  0  0  0  0  0
    0.7844    3.4956    2.7668 H   0  0  0  0  0  0  0  0  0  0  0  0
    0.2468    3.9058    1.1193 H   0  0  0  0  0  0  0  0  0  0  0  0
  5  6  2  0  0  0  0
  5  7  1  0  0  0  0
  2  3  1  0  0  0  0
  2  4  1  0  0  0  0
  2  5  1  0  0  0  0
  1  2  1  0  0  0  0
 22 23  2  0  0  0  0
 22 24  1  0  0  0  0
 19 20  1  0  0  0  0
 19 21  1  0  0  0  0
 17 18  2  0  0  0  0
 17 19  1  0  0  0  0
 14 15  1  0  0  0  0
 14 16  1  0  0  0  0
 14 17  1  0  0  0  0
 11 12  1  0  0  0  0
 11 13  1  0  0  0  0
 11 14  1  0  0  0  0
  9 10  1  0  0  0  0
  9 11  1  0  0  0  0
  9 22  1  0  0  0  0
  7  8  1  0  0  0  0
  7  9  1  0  0  0  0
 26 27  1  0  0  0  0
 26 28  1  0  0  0  0
 26 29  1  0  0  0  0
 24 25  1  0  0  0  0
 24 26  1  0  0  0  0
M  END
$$$$
default_name
  -OEChem-02102213163D

 29 28  0     1  0  0  0  0  0999 V2000
   -3.3998   -3.6239    1.3678 H   0  0  0  0  0  0  0  0  0  0  0  0
   -3.3608   -2.6749    0.8348 C   0  0  0  0  0  0  0  0  0  0  0  0
   -4.0988   -1.9909    1.2498 H   0  0  0  0  0  0  0  0  0  0  0  0
   -3.5618   -2.8419   -0.2222 H   0  0  0  0  0  0  0  0  0  0  0  0
   -1.9818   -2.0809    0.9918 C   0  0  0  0  0  0  0  0  0  0  0  0
   -1.1288   -2.6669    1.6468 O   0  0  0  0  0  0  0  0  0  0  0  0
   -1.7648   -0.9089    0.3998 N   0  0  0  0  0  0  0  0  0  0  0  0
   -2.5238   -0.4719   -0.1032 H   0  0  0  0  0  0  0  0  0  0  0  0
   -0.4848   -0.1959    0.4138 C   0  0  1  0  0  0  0  0  0  0  0  0
    0.1386   -0.6144    1.2058 H   0  0  0  0  0  0  0  0  0  0  0  0
    0.2271   -0.4272   -0.9334 C   0  0  0  0  0  0  0  0  0  0  0  0
    0.3808   -1.5008   -1.0607 H   0  0  0  0  0  0  0  0  0  0  0  0
   -0.4167   -0.0766   -1.7415 H   0  0  0  0  0  0  0  0  0  0  0  0
    1.5919    0.2745   -1.0447 C   0  0  0  0  0  0  0  0  0  0  0  0
    1.6916    1.0119   -0.2484 H   0  0  0  0  0  0  0  0  0  0  0  0
    2.3817   -0.4681   -0.9325 H   0  0  0  0  0  0  0  0  0  0  0  0
    1.7924    0.9915   -2.3798 C   0  0  0  0  0  0  0  0  0  0  0  0
    0.9870    0.9469   -3.2908 O   0  0  0  0  0  0  0  0  0  0  0  0
    2.8874    1.6998   -2.5517 N   0  0  0  0  0  0  0  0  0  0  0  0
    2.9670    2.1501   -3.4468 H   0  0  0  0  0  0  0  0  0  0  0  0
    3.5805    1.7722   -1.8347 H   0  0  0  0  0  0  0  0  0  0  0  0
   -0.7011    1.2952    0.7149 C   0  0  0  0  0  0  0  0  0  0  0  0
   -1.5917    1.9198    0.1415 O   0  0  0  0  0  0  0  0  0  0  0  0
    0.1191    1.8675    1.6055 N   0  0  0  0  0  0  0  0  0  0  0  0
    0.8092    1.2861    2.0537 H   0  0  0  0  0  0  0  0  0  0  0  0
    0.0509    3.2769    1.9894 C   0  0  0  0  0  0  0  0  0  0  0  0
   -0.9494    3.5076    2.3640 H   0  0  0  0  0  0  0  0  0  0  0  0
    0.7844    3.4956    2.7668 H   0  0  0  0  0  0  0  0  0  0  0  0
    0.2468    3.9058    1.1193 H   0  0  0  0  0  0  0  0  0  0  0  0
  5  6  2  0  0  0  0
  5  7  1  0  0  0  0
  2  3  1  0  0  0  0
  2  4  1  0  0  0  0
  2  5  1  0  0  0  0
  1  2  1  0  0  0  0
 22 23  2  0  0  0  0
 22 24  1  0  0  0  0
 19 20  1  0  0  0  0
 19 21  1  0  0  0  0
 17 18  2  0  0  0  0
 17 19  1  0  0  0  0
 14 15  1  0  0  0  0
 14 16  1  0  0  0  0
 14 17  1  0  0  0  0
 11 12  1  0  0  0  0
 11 13  1  0  0  0  0
 11 14  1  0  0  0  0
  9 10  1  0  0  0  0
  9 11  1  0  0  0  0
  9 22  1  0  0  0  0
  7  8  1  0  0  0  0
  7  9  1  0  0  0  0
 26 27  1  0  0  0  0
 26 28  1  0  0  0  0
 26 29  1  0  0  0  0
 24 25  1  0  0  0  0
 24 26  1  0  0  0  0
M  END
$$$$
default_name
  -OEChem-02102213163D

 29 28  0     1  0  0  0  0  0999 V2000
   -3.3998   -3.6239    1.3678 H   0  0  0  0  0  0  0  0  0  0  0  0
   -3.3608   -2.6749    0.8348 C   0  0  0  0  0  0  0  0  0  0  0  0
   -4.0988   -1.9909    1.2498 H   0  0  0  0  0  0  0  0  0  0  0  0
   -3.5618   -2.8419   -0.2222 H   0  0  0  0  0  0  0  0  0  0  0  0
   -1.9818   -2.0809    0.9918 C   0  0  0  0  0  0  0  0  0  0  0  0
   -1.1288   -2.6669    1.6468 O   0  0  0  0  0  0  0  0  0  0  0  0
   -1.7648   -0.9089    0.3998 N   0  0  0  0  0  0  0  0  0  0  0  0
   -2.5238   -0.4719   -0.1032 H   0  0  0  0  0  0  0  0  0  0  0  0
   -0.4848   -0.1959    0.4138 C   0  0  1  0  0  0  0  0  0  0  0  0
    0.1386   -0.6144    1.2058 H   0  0  0  0  0  0  0  0  0  0  0  0
    0.2271   -0.4272   -0.9334 C   0  0  0  0  0  0  0  0  0  0  0  0
    0.3808   -1.5008   -1.0607 H   0  0  0  0  0  0  0  0  0  0  0  0
   -0.4167   -0.0766   -1.7415 H   0  0  0  0  0  0  0  0  0  0  0  0
    1.5919    0.2745   -1.0447 C   0  0  0  0  0  0  0  0  0  0  0  0
    1.8071    0.8078   -0.1190 H   0  0  0  0  0  0  0  0  0  0  0  0
    2.3648   -0.4779   -1.2009 H   0  0  0  0  0  0  0  0  0  0  0  0
    1.6595    1.2792   -2.1948 C   0  0  0  0  0  0  0  0  0  0  0  0
    0.7530    1.4499   -2.9884 O   0  0  0  0  0  0  0  0  0  0  0  0
    2.7497    2.0026   -2.3307 N   0  0  0  0  0  0  0  0  0  0  0  0
    2.7397    2.6469   -3.1023 H   0  0  0  0  0  0  0  0  0  0  0  0
    3.5232    1.9042   -1.7049 H   0  0  0  0  0  0  0  0  0  0  0  0
   -0.7011    1.2952    0.7149 C   0  0  0  0  0  0  0  0  0  0  0  0
   -1.5917    1.9198    0.1415 O   0  0  0  0  0  0  0  0  0  0  0  0
    0.1191    1.8675    1.6055 N   0  0  0  0  0  0  0  0  0  0  0  0
    0.8092    1.2861    2.0537 H   0  0  0  0  0  0  0  0  0  0  0  0
    0.0509    3.2769    1.9894 C   0  0  0  0  0  0  0  0  0  0  0  0
   -0.9494    3.5076    2.3640 H   0  0  0  0  0  0  0  0  0  0  0  0
    0.7844    3.4956    2.7668 H   0  0  0  0  0  0  0  0  0  0  0  0
    0.2468    3.9058    1.1193 H   0  0  0  0  0  0  0  0  0  0  0  0
  5  6  2  0  0  0  0
  5  7  1  0  0  0  0
  2  3  1  0  0  0  0
  2  4  1  0  0  0  0
  2  5  1  0  0  0  0
  1  2  1  0  0  0  0
 22 23  2  0  0  0  0
 22 24  1  0  0  0  0
 19 20  1  0  0  0  0
 19 21  1  0  0  0  0
 17 18  2  0  0  0  0
 17 19  1  0  0  0  0
 14 15  1  0  0  0  0
 14 16  1  0  0  0  0
 14 17  1  0  0  0  0
 11 12  1  0  0  0  0
 11 13  1  0  0  0  0
 11 14  1  0  0  0  0
  9 10  1  0  0  0  0
  9 11  1  0  0  0  0
  9 22  1  0  0  0  0
  7  8  1  0  0  0  0
  7  9  1  0  0  0  0
 26 27  1  0  0  0  0
 26 28  1  0  0  0  0
 26 29  1  0  0  0  0
 24 25  1  0  0  0  0
 24 26  1  0  0  0  0
M  END
$$$$
default_name
  -OEChem-02102213163D

 29 28  0     1  0  0  0  0  0999 V2000
   -3.3998   -3.6239    1.3678 H   0  0  0  0  0  0  0  0  0  0  0  0
   -3.3608   -2.6749    0.8348 C   0  0  0  0  0  0  0  0  0  0  0  0
   -4.0988   -1.9909    1.2498 H   0  0  0  0  0  0  0  0  0  0  0  0
   -3.5618   -2.8419   -0.2222 H   0  0  0  0  0  0  0  0  0  0  0  0
   -1.9818   -2.0809    0.9918 C   0  0  0  0  0  0  0  0  0  0  0  0
   -1.1288   -2.6669    1.6468 O   0  0  0  0  0  0  0  0  0  0  0  0
   -1.7648   -0.9089    0.3998 N   0  0  0  0  0  0  0  0  0  0  0  0
   -2.5238   -0.4719   -0.1032 H   0  0  0  0  0  0  0  0  0  0  0  0
   -0.4848   -0.1959    0.4138 C   0  0  1  0  0  0  0  0  0  0  0  0
    0.1386   -0.6144    1.2058 H   0  0  0  0  0  0  0  0  0  0  0  0
    0.2271   -0.4272   -0.9334 C   0  0  0  0  0  0  0  0  0  0  0  0
    0.3808   -1.5008   -1.0607 H   0  0  0  0  0  0  0  0  0  0  0  0
   -0.4167   -0.0766   -1.7415 H   0  0  0  0  0  0  0  0  0  0  0  0
    1.5919    0.2745   -1.0447 C   0  0  0  0  0  0  0  0  0  0  0  0
    1.9301    0.5788   -0.0544 H   0  0  0  0  0  0  0  0  0  0  0  0
    2.3167   -0.4254   -1.4604 H   0  0  0  0  0  0  0  0  0  0  0  0
    1.5585    1.5171   -1.9345 C   0  0  0  0  0  0  0  0  0  0  0  0
    0.5722    1.8708   -2.5531 O   0  0  0  0  0  0  0  0  0  0  0  0
    2.6485    2.2469   -2.0316 N   0  0  0  0  0  0  0  0  0  0  0  0
    2.5701    3.0519   -2.6286 H   0  0  0  0  0  0  0  0  0  0  0  0
    3.4857    2.0030   -1.5424 H   0  0  0  0  0  0  0  0  0  0  0  0
   -0.7011    1.2952    0.7149 C   0  0  0  0  0  0  0  0  0  0  0  0
   -1.5917    1.9198    0.1415 O   0  0  0  0  0  0  0  0  0  0  0  0
    0.1191    1.8675    1.6055 N   0  0  0  0  0  0  0  0  0  0  0  0
    0.8092    1.2861    2.0537 H   0  0  0  0  0  0  0  0  0  0  0  0
    0.0509    3.2769    1.9894 C   0  0  0  0  0  0  0  0  0  0  0  0
   -0.9494    3.5076    2.3640 H   0  0  0  0  0  0  0  0  0  0  0  0
    0.7844    3.4956    2.7668 H   0  0  0  0  0  0  0  0  0  0  0  0
    0.2468    3.9058    1.1193 H   0  0  0  0  0  0  0  0  0  0  0  0
  5  6  2  0  0  0  0
  5  7  1  0  0  0  0
  2  3  1  0  0  0  0
  2  4  1  0  0  0  0
  2  5  1  0  0  0  0
  1  2  1  0  0  0  0
 22 23  2  0  0  0  0
 22 24  1  0  0  0  0
 19 20  1  0  0  0  0
 19 21  1  0  0  0  0
 17 18  2  0  0  0  0
 17 19  1  0  0  0  0
 14 15  1  0  0  0  0
 14 16  1  0  0  0  0
 14 17  1  0  0  0  0
 11 12  1  0  0  0  0
 11 13  1  0  0  0  0
 11 14  1  0  0  0  0
  9 10  1  0  0  0  0
  9 11  1  0  0  0  0
  9 22  1  0  0  0  0
  7  8  1  0  0  0  0
  7  9  1  0  0  0  0
 26 27  1  0  0  0  0
 26 28  1  0  0  0  0
 26 29  1  0  0  0  0
 24 25  1  0  0  0  0
 24 26  1  0  0  0  0
M  END
$$$$
default_name
  -OEChem-02102213163D

 29 28  0     1  0  0  0  0  0999 V2000
   -3.3998   -3.6239    1.3678 H   0  0  0  0  0  0  0  0  0  0  0  0
   -3.3608   -2.6749    0.8348 C   0  0  0  0  0  0  0  0  0  0  0  0
   -4.0988   -1.9909    1.2498 H   0  0  0  0  0  0  0  0  0  0  0  0
   -3.5618   -2.8419   -0.2222 H   0  0  0  0  0  0  0  0  0  0  0  0
   -1.9818   -2.0809    0.9918 C   0  0  0  0  0  0  0  0  0  0  0  0
   -1.1288   -2.6669    1.6468 O   0  0  0  0  0  0  0  0  0  0  0  0
   -1.7648   -0.9089    0.3998 N   0  0  0  0  0  0  0  0  0  0  0  0
   -2.5238   -0.4719   -0.1032 H   0  0  0  0  0  0  0  0  0  0  0  0
   -0.4848   -0.1959    0.4138 C   0  0  1  0  0  0  0  0  0  0  0  0
    0.1386   -0.6144    1.2058 H   0  0  0  0  0  0  0  0  0  0  0  0
    0.2271   -0.4272   -0.9334 C   0  0  0  0  0  0  0  0  0  0  0  0
    0.3808   -1.5008   -1.0607 H   0  0  0  0  0  0  0  0  0  0  0  0
   -0.4167   -0.0766   -1.7415 H   0  0  0  0  0  0  0  0  0  0  0  0
    1.5919    0.2745   -1.0447 C   0  0  0  0  0  0  0  0  0  0  0  0
    2.0522    0.3404   -0.0591 H   0  0  0  0  0  0  0  0  0  0  0  0
    2.2405   -0.3142   -1.6934 H   0  0  0  0  0  0  0  0  0  0  0  0
    1.4960    1.6890   -1.6165 C   0  0  0  0  0  0  0  0  0  0  0  0
    0.4567    2.1807   -2.0147 O   0  0  0  0  0  0  0  0  0  0  0  0
    2.5906    2.4161   -1.6746 N   0  0  0  0  0  0  0  0  0  0  0  0
    2.4698    3.3375   -2.0580 H   0  0  0  0  0  0  0  0  0  0  0  0
    3.4704    2.0618   -1.3584 H   0  0  0  0  0  0  0  0  0  0  0  0
   -0.7011    1.2952    0.7149 C   0  0  0  0  0  0  0  0  0  0  0  0
   -1.5917    1.9198    0.1415 O   0  0  0  0  0  0  0  0  0  0  0  0
    0.1191    1.8675    1.6055 N   0  0  0  0  0  0  0  0  0  0  0  0
    0.8092    1.2861    2.0537 H   0  0  0  0  0  0  0  0  0  0  0  0
    0.0509    3.2769    1.9894 C   0  0  0  0  0  0  0  0  0  0  0  0
   -0.9494    3.5076    2.3640 H   0  0  0  0  0  0  0  0  0  0  0  0
    0.7844    3.4956    2.7668 H   0  0  0  0  0  0  0  0  0  0  0  0
    0.2468    3.9058    1.1193 H   0  0  0  0  0  0  0  0  0  0  0  0
  5  6  2  0  0  0  0
  5  7  1  0  0  0  0
  2  3  1  0  0  0  0
  2  4  1  0  0  0  0
  2  5  1  0  0  0  0
  1  2  1  0  0  0  0
 22 23  2  0  0  0  0
 22 24  1  0  0  0  0
 19 20  1  0  0  0  0
 19 21  1  0  0  0  0
 17 18  2  0  0  0  0
 17 19  1  0  0  0  0
 14 15  1  0  0  0  0
 14 16  1  0  0  0  0
 14 17  1  0  0  0  0
 11 12  1  0  0  0  0
 11 13  1  0  0  0  0
 11 14  1  0  0  0  0
  9 10  1  0  0  0  0
  9 11  1  0  0  0  0
  9 22  1  0  0  0  0
  7  8  1  0  0  0  0
  7  9  1  0  0  0  0
 26 27  1  0  0  0  0
 26 28  1  0  0  0  0
 26 29  1  0  0  0  0
 24 25  1  0  0  0  0
 24 26  1  0  0  0  0
M  END
$$$$
default_name
  -OEChem-02102213163D

 29 28  0     1  0  0  0  0  0999 V2000
   -3.3998   -3.6239    1.3678 H   0  0  0  0  0  0  0  0  0  0  0  0
   -3.3608   -2.6749    0.8348 C   0  0  0  0  0  0  0  0  0  0  0  0
   -4.0988   -1.9909    1.2498 H   0  0  0  0  0  0  0  0  0  0  0  0
   -3.5618   -2.8419   -0.2222 H   0  0  0  0  0  0  0  0  0  0  0  0
   -1.9818   -2.0809    0.9918 C   0  0  0  0  0  0  0  0  0  0  0  0
   -1.1288   -2.6669    1.6468 O   0  0  0  0  0  0  0  0  0  0  0  0
   -1.7648   -0.9089    0.3998 N   0  0  0  0  0  0  0  0  0  0  0  0
   -2.5238   -0.4719   -0.1032 H   0  0  0  0  0  0  0  0  0  0  0  0
   -0.4848   -0.1959    0.4138 C   0  0  1  0  0  0  0  0  0  0  0  0
    0.1386   -0.6144    1.2058 H   0  0  0  0  0  0  0  0  0  0  0  0
    0.2271   -0.4272   -0.9334 C   0  0  0  0  0  0  0  0  0  0  0  0
    0.3808   -1.5008   -1.0607 H   0  0  0  0  0  0  0  0  0  0  0  0
   -0.4167   -0.0766   -1.7415 H   0  0  0  0  0  0  0  0  0  0  0  0
    1.5919    0.2745   -1.0447 C   0  0  0  0  0  0  0  0  0  0  0  0
    2.1652    0.1090   -0.1328 H   0  0  0  0  0  0  0  0  0  0  0  0
    2.1415   -0.1518   -1.8838 H   0  0  0  0  0  0  0  0  0  0  0  0
    1.4765    1.7832   -1.2624 C   0  0  0  0  0  0  0  0  0  0  0  0
    0.4145    2.3586   -1.4099 O   0  0  0  0  0  0  0  0  0  0  0  0
    2.5800    2.4987   -1.2841 N   0  0  0  0  0  0  0  0  0  0  0  0
    2.4456    3.4842   -1.4295 H   0  0  0  0  0  0  0  0  0  0  0  0
    3.4786    2.0766   -1.1653 H   0  0  0  0  0  0  0  0  0  0  0  0
   -0.7011    1.2952    0.7149 C   0  0  0  0  0  0  0  0  0  0  0  0
   -1.5917    1.9198    0.1415 O   0  0  0  0  0  0  0  0  0  0  0  0
    0.1191    1.8675    1.6055 N   0  0  0  0  0  0  0  0  0  0  0  0
    0.8092    1.2861    2.0537 H   0  0  0  0  0  0  0  0  0  0  0  0
    0.0509    3.2769    1.9894 C   0  0  0  0  0  0  0  0  0  0  0  0
   -0.9494    3.5076    2.3640 H   0  0  0  0  0  0  0  0  0  0  0  0
    0.7844    3.4956    2.7668 H   0  0  0  0  0  0  0  0  0  0  0  0
    0.2468    3.9058    1.1193 H   0  0  0  0  0  0  0  0  0  0  0  0
  5  6  2  0  0  0  0
  5  7  1  0  0  0  0
  2  3  1  0  0  0  0
  2  4  1  0  0  0  0
  2  5  1  0  0  0  0
  1  2  1  0  0  0  0
 22 23  2  0  0  0  0
 22 24  1  0  0  0  0
 19 20  1  0  0  0  0
 19 21  1  0  0  0  0
 17 18  2  0  0  0  0
 17 19  1  0  0  0  0
 14 15  1  0  0  0  0
 14 16  1  0  0  0  0
 14 17  1  0  0  0  0
 11 12  1  0  0  0  0
 11 13  1  0  0  0  0
 11 14  1  0  0  0  0
  9 10  1  0  0  0  0
  9 11  1  0  0  0  0
  9 22  1  0  0  0  0
  7  8  1  0  0  0  0
  7  9  1  0  0  0  0
 26 27  1  0  0  0  0
 26 28  1  0  0  0  0
 26 29  1  0  0  0  0
 24 25  1  0  0  0  0
 24 26  1  0  0  0  0
M  END
$$$$
default_name
  -OEChem-02102213163D

 29 28  0     1  0  0  0  0  0999 V2000
   -3.3998   -3.6239    1.3678 H   0  0  0  0  0  0  0  0  0  0  0  0
   -3.3608   -2.6749    0.8348 C   0  0  0  0  0  0  0  0  0  0  0  0
   -4.0988   -1.9909    1.2498 H   0  0  0  0  0  0  0  0  0  0  0  0
   -3.5618   -2.8419   -0.2222 H   0  0  0  0  0  0  0  0  0  0  0  0
   -1.9818   -2.0809    0.9918 C   0  0  0  0  0  0  0  0  0  0  0  0
   -1.1288   -2.6669    1.6468 O   0  0  0  0  0  0  0  0  0  0  0  0
   -1.7648   -0.9089    0.3998 N   0  0  0  0  0  0  0  0  0  0  0  0
   -2.5238   -0.4719   -0.1032 H   0  0  0  0  0  0  0  0  0  0  0  0
   -0.4848   -0.1959    0.4138 C   0  0  1  0  0  0  0  0  0  0  0  0
    0.1386   -0.6144    1.2058 H   0  0  0  0  0  0  0  0  0  0  0  0
    0.2271   -0.4272   -0.9334 C   0  0  0  0  0  0  0  0  0  0  0  0
    0.3808   -1.5008   -1.0607 H   0  0  0  0  0  0  0  0  0  0  0  0
   -0.4167   -0.0766   -1.7415 H   0  0  0  0  0  0  0  0  0  0  0  0
    1.5919    0.2745   -1.0447 C   0  0  0  0  0  0  0  0  0  0  0  0
    2.2613   -0.0997   -0.2705 H   0  0  0  0  0  0  0  0  0  0  0  0
    2.0264    0.0505   -2.0189 H   0  0  0  0  0  0  0  0  0  0  0  0
    1.5011    1.7932   -0.8965 C   0  0  0  0  0  0  0  0  0  0  0  0
    0.4485    2.3925   -0.7799 O   0  0  0  0  0  0  0  0  0  0  0  0
    2.6174    2.4890   -0.8867 N   0  0  0  0  0  0  0  0  0  0  0  0
    2.4991    3.4822   -0.7859 H   0  0  0  0  0  0  0  0  0  0  0  0
    3.5095    2.0465   -0.9764 H   0  0  0  0  0  0  0  0  0  0  0  0
   -0.7011    1.2952    0.7149 C   0  0  0  0  0  0  0  0  0  0  0  0
   -1.5917    1.9198    0.1415 O   0  0  0  0  0  0  0  0  0  0  0  0
    0.1191    1.8675    1.6055 N   0  0  0  0  0  0  0  0  0  0  0  0
    0.8092    1.2861    2.0537 H   0  0  0  0  0  0  0  0  0  0  0  0
    0.0509    3.2769    1.9894 C   0  0  0  0  0  0  0  0  0  0  0  0
   -0.9494    3.5076    2.3640 H   0  0  0  0  0  0  0  0  0  0  0  0
    0.7844    3.4956    2.7668 H   0  0  0  0  0  0  0  0  0  0  0  0
    0.2468    3.9058    1.1193 H   0  0  0  0  0  0  0  0  0  0  0  0
  5  6  2  0  0  0  0
  5  7  1  0  0  0  0
  2  3  1  0  0  0  0
  2  4  1  0  0  0  0
  2  5  1  0  0  0  0
  1  2  1  0  0  0  0
 22 23  2  0  0  0  0
 22 24  1  0  0  0  0
 19 20  1  0  0  0  0
 19 21  1  0  0  0  0
 17 18  2  0  0  0  0
 17 19  1  0  0  0  0
 14 15  1  0  0  0  0
 14 16  1  0  0  0  0
 14 17  1  0  0  0  0
 11 12  1  0  0  0  0
 11 13  1  0  0  0  0
 11 14  1  0  0  0  0
  9 10  1  0  0  0  0
  9 11  1  0  0  0  0
  9 22  1  0  0  0  0
  7  8  1  0  0  0  0
  7  9  1  0  0  0  0
 26 27  1  0  0  0  0
 26 28  1  0  0  0  0
 26 29  1  0  0  0  0
 24 25  1  0  0  0  0
 24 26  1  0  0  0  0
M  END
$$$$
default_name
  -OEChem-02102213163D

 29 28  0     1  0  0  0  0  0999 V2000
   -3.3998   -3.6239    1.3678 H   0  0  0  0  0  0  0  0  0  0  0  0
   -3.3608   -2.6749    0.8348 C   0  0  0  0  0  0  0  0  0  0  0  0
   -4.0988   -1.9909    1.2498 H   0  0  0  0  0  0  0  0  0  0  0  0
   -3.5618   -2.8419   -0.2222 H   0  0  0  0  0  0  0  0  0  0  0  0
   -1.9818   -2.0809    0.9918 C   0  0  0  0  0  0  0  0  0  0  0  0
   -1.1288   -2.6669    1.6468 O   0  0  0  0  0  0  0  0  0  0  0  0
   -1.7648   -0.9089    0.3998 N   0  0  0  0  0  0  0  0  0  0  0  0
   -2.5238   -0.4719   -0.1032 H   0  0  0  0  0  0  0  0  0  0  0  0
   -0.4848   -0.1959    0.4138 C   0  0  1  0  0  0  0  0  0  0  0  0
    0.1386   -0.6144    1.2058 H   0  0  0  0  0  0  0  0  0  0  0  0
    0.2271   -0.4272   -0.9334 C   0  0  0  0  0  0  0  0  0  0  0  0
    0.3808   -1.5008   -1.0607 H   0  0  0  0  0  0  0  0  0  0  0  0
   -0.4167   -0.0766   -1.7415 H   0  0  0  0  0  0  0  0  0  0  0  0
    1.5919    0.2745   -1.0447 C   0  0  0  0  0  0  0  0  0  0  0  0
    2.3340   -0.2716   -0.4627 H   0  0  0  0  0  0  0  0  0  0  0  0
    1.9031    0.2792   -2.0893 H   0  0  0  0  0  0  0  0  0  0  0  0
    1.5683    1.7185   -0.5437 C   0  0  0  0  0  0  0  0  0  0  0  0
    0.5564    2.2799   -0.1676 O   0  0  0  0  0  0  0  0  0  0  0  0
    2.7002    2.3877   -0.5094 N   0  0  0  0  0  0  0  0  0  0  0  0
    2.6268    3.3314   -0.1709 H   0  0  0  0  0  0  0  0  0  0  0  0
    3.5610    1.9734   -0.8044 H   0  0  0  0  0  0  0  0  0  0  0  0
   -0.7011    1.2952    0.7149 C   0  0  0  0  0  0  0  0  0  0  0  0
   -1.5917    1.9198    0.1415 O   0  0  0  0  0  0  0  0  0  0  0  0
    0.1191    1.8675    1.6055 N   0  0  0  0  0  0  0  0  0  0  0  0
    0.8092    1.2861    2.0537 H   0  0  0  0  0  0  0  0  0  0  0  0
    0.0509    3.2769    1.9894 C   0  0  0  0  0  0  0  0  0  0  0  0
   -0.9494    3.5076    2.3640 H   0  0  0  0  0  0  0  0  0  0  0  0
    0.7844    3.4956    2.7668 H   0  0  0  0  0  0  0  0  0  0  0  0
    0.2468    3.9058    1.1193 H   0  0  0  0  0  0  0  0  0  0  0  0
  5  6  2  0  0  0  0
  5  7  1  0  0  0  0
  2  3  1  0  0  0  0
  2  4  1  0  0  0  0
  2  5  1  0  0  0  0
  1  2  1  0  0  0  0
 22 23  2  0  0  0  0
 22 24  1  0  0  0  0
 19 20  1  0  0  0  0
 19 21  1  0  0  0  0
 17 18  2  0  0  0  0
 17 19  1  0  0  0  0
 14 15  1  0  0  0  0
 14 16  1  0  0  0  0
 14 17  1  0  0  0  0
 11 12  1  0  0  0  0
 11 13  1  0  0  0  0
 11 14  1  0  0  0  0
  9 10  1  0  0  0  0
  9 11  1  0  0  0  0
  9 22  1  0  0  0  0
  7  8  1  0  0  0  0
  7  9  1  0  0  0  0
 26 27  1  0  0  0  0
 26 28  1  0  0  0  0
 26 29  1  0  0  0  0
 24 25  1  0  0  0  0
 24 26  1  0  0  0  0
M  END
$$$$
default_name
  -OEChem-02102213163D

 29 28  0     1  0  0  0  0  0999 V2000
   -3.3998   -3.6239    1.3678 H   0  0  0  0  0  0  0  0  0  0  0  0
   -3.3608   -2.6749    0.8348 C   0  0  0  0  0  0  0  0  0  0  0  0
   -4.0988   -1.9909    1.2498 H   0  0  0  0  0  0  0  0  0  0  0  0
   -3.5618   -2.8419   -0.2222 H   0  0  0  0  0  0  0  0  0  0  0  0
   -1.9818   -2.0809    0.9918 C   0  0  0  0  0  0  0  0  0  0  0  0
   -1.1288   -2.6669    1.6468 O   0  0  0  0  0  0  0  0  0  0  0  0
   -1.7648   -0.9089    0.3998 N   0  0  0  0  0  0  0  0  0  0  0  0
   -2.5238   -0.4719   -0.1032 H   0  0  0  0  0  0  0  0  0  0  0  0
   -0.4848   -0.1959    0.4138 C   0  0  1  0  0  0  0  0  0  0  0  0
    0.1386   -0.6144    1.2058 H   0  0  0  0  0  0  0  0  0  0  0  0
    0.2271   -0.4272   -0.9334 C   0  0  0  0  0  0  0  0  0  0  0  0
    0.3808   -1.5008   -1.0607 H   0  0  0  0  0  0  0  0  0  0  0  0
   -0.4167   -0.0766   -1.7415 H   0  0  0  0  0  0  0  0  0  0  0  0
    1.5919    0.2745   -1.0447 C   0  0  0  0  0  0  0  0  0  0  0  0
    2.3783   -0.3947   -0.6964 H   0  0  0  0  0  0  0  0  0  0  0  0
    1.7800    0.5185   -2.0902 H   0  0  0  0  0  0  0  0  0  0  0  0
    1.6735    1.5641   -0.2280 C   0  0  0  0  0  0  0  0  0  0  0  0
    0.7307    2.0285    0.3853 O   0  0  0  0  0  0  0  0  0  0  0  0
    2.8229    2.2017   -0.1781 N   0  0  0  0  0  0  0  0  0  0  0  0
    2.8199    3.0422    0.3734 H   0  0  0  0  0  0  0  0  0  0  0  0
    3.6298    1.8624   -0.6612 H   0  0  0  0  0  0  0  0  0  0  0  0
   -0.7011    1.2952    0.7149 C   0  0  0  0  0  0  0  0  0  0  0  0
   -1.5917    1.9198    0.1415 O   0  0  0  0  0  0  0  0  0  0  0  0
    0.1191    1.8675    1.6055 N   0  0  0  0  0  0  0  0  0  0  0  0
    0.8092    1.2861    2.0537 H   0  0  0  0  0  0  0  0  0  0  0  0
    0.0509    3.2769    1.9894 C   0  0  0  0  0  0  0  0  0  0  0  0
   -0.9494    3.5076    2.3640 H   0  0  0  0  0  0  0  0  0  0  0  0
    0.7844    3.4956    2.7668 H   0  0  0  0  0  0  0  0  0  0  0  0
    0.2468    3.9058    1.1193 H   0  0  0  0  0  0  0  0  0  0  0  0
  5  6  2  0  0  0  0
  5  7  1  0  0  0  0
  2  3  1  0  0  0  0
  2  4  1  0  0  0  0
  2  5  1  0  0  0  0
  1  2  1  0  0  0  0
 22 23  2  0  0  0  0
 22 24  1  0  0  0  0
 19 20  1  0  0  0  0
 19 21  1  0  0  0  0
 17 18  2  0  0  0  0
 17 19  1  0  0  0  0
 14 15  1  0  0  0  0
 14 16  1  0  0  0  0
 14 17  1  0  0  0  0
 11 12  1  0  0  0  0
 11 13  1  0  0  0  0
 11 14  1  0  0  0  0
  9 10  1  0  0  0  0
  9 11  1  0  0  0  0
  9 22  1  0  0  0  0
  7  8  1  0  0  0  0
  7  9  1  0  0  0  0
 26 27  1  0  0  0  0
 26 28  1  0  0  0  0
 26 29  1  0  0  0  0
 24 25  1  0  0  0  0
 24 26  1  0  0  0  0
M  END
$$$$
default_name
  -OEChem-02102213163D

 29 28  0     1  0  0  0  0  0999 V2000
   -3.3998   -3.6239    1.3678 H   0  0  0  0  0  0  0  0  0  0  0  0
   -3.3608   -2.6749    0.8348 C   0  0  0  0  0  0  0  0  0  0  0  0
   -4.0988   -1.9909    1.2498 H   0  0  0  0  0  0  0  0  0  0  0  0
   -3.5618   -2.8419   -0.2222 H   0  0  0  0  0  0  0  0  0  0  0  0
   -1.9818   -2.0809    0.9918 C   0  0  0  0  0  0  0  0  0  0  0  0
   -1.1288   -2.6669    1.6468 O   0  0  0  0  0  0  0  0  0  0  0  0
   -1.7648   -0.9089    0.3998 N   0  0  0  0  0  0  0  0  0  0  0  0
   -2.5238   -0.4719   -0.1032 H   0  0  0  0  0  0  0  0  0  0  0  0
   -0.4848   -0.1959    0.4138 C   0  0  1  0  0  0  0  0  0  0  0  0
    0.1386   -0.6144    1.2058 H   0  0  0  0  0  0  0  0  0  0  0  0
    0.2271   -0.4272   -0.9334 C   0  0  0  0  0  0  0  0  0  0  0  0
    0.3808   -1.5008   -1.0607 H   0  0  0  0  0  0  0  0  0  0  0  0
   -0.4167   -0.0766   -1.7415 H   0  0  0  0  0  0  0  0  0  0  0  0
    1.5919    0.2745   -1.0447 C   0  0  0  0  0  0  0  0  0  0  0  0
    2.3911   -0.4609   -0.9557 H   0  0  0  0  0  0  0  0  0  0  0  0
    1.6654    0.7522   -2.0217 H   0  0  0  0  0  0  0  0  0  0  0  0
    1.8094    1.3405    0.0291 C   0  0  0  0  0  0  0  0  0  0  0  0
    0.9597    1.6555    0.8410 O   0  0  0  0  0  0  0  0  0  0  0  0
    2.9770    1.9437    0.0848 N   0  0  0  0  0  0  0  0  0  0  0  0
    3.0652    2.6343    0.8099 H   0  0  0  0  0  0  0  0  0  0  0  0
    3.7110    1.7210   -0.5565 H   0  0  0  0  0  0  0  0  0  0  0  0
   -0.7011    1.2952    0.7149 C   0  0  0  0  0  0  0  0  0  0  0  0
   -1.5917    1.9198    0.1415 O   0  0  0  0  0  0  0  0  0  0  0  0
    0.1191    1.8675    1.6055 N   0  0  0  0  0  0  0  0  0  0  0  0
    0.8092    1.2861    2.0537 H   0  0  0  0  0  0  0  0  0  0  0  0
    0.0509    3.2769    1.9894 C   0  0  0  0  0  0  0  0  0  0  0  0
   -0.9494    3.5076    2.3640 H   0  0  0  0  0  0  0  0  0  0  0  0
    0.7844    3.4956    2.7668 H   0  0  0  0  0  0  0  0  0  0  0  0
    0.2468    3.9058    1.1193 H   0  0  0  0  0  0  0  0  0  0  0  0
  5  6  2  0  0  0  0
  5  7  1  0  0  0  0
  2  3  1  0  0  0  0
  2  4  1  0  0  0  0
  2  5  1  0  0  0  0
  1  2  1  0  0  0  0
 22 23  2  0  0  0  0
 22 24  1  0  0  0  0
 19 20  1  0  0  0  0
 19 21  1  0  0  0  0
 17 18  2  0  0  0  0
 17 19  1  0  0  0  0
 14 15  1  0  0  0  0
 14 16  1  0  0  0  0
 14 17  1  0  0  0  0
 11 12  1  0  0  0  0
 11 13  1  0  0  0  0
 11 14  1  0  0  0  0
  9 10  1  0  0  0  0
  9 11  1  0  0  0  0
  9 22  1  0  0  0  0
  7  8  1  0  0  0  0
  7  9  1  0  0  0  0
 26 27  1  0  0  0  0
 26 28  1  0  0  0  0
 26 29  1  0  0  0  0
 24 25  1  0  0  0  0
 24 26  1  0  0  0  0
M  END
$$$$
default_name
  -OEChem-02102213163D

 29 28  0     1  0  0  0  0  0999 V2000
   -3.3998   -3.6239    1.3678 H   0  0  0  0  0  0  0  0  0  0  0  0
   -3.3608   -2.6749    0.8348 C   0  0  0  0  0  0  0  0  0  0  0  0
   -4.0988   -1.9909    1.2498 H   0  0  0  0  0  0  0  0  0  0  0  0
   -3.5618   -2.8419   -0.2222 H   0  0  0  0  0  0  0  0  0  0  0  0
   -1.9818   -2.0809    0.9918 C   0  0  0  0  0  0  0  0  0  0  0  0
   -1.1288   -2.6669    1.6468 O   0  0  0  0  0  0  0  0  0  0  0  0
   -1.7648   -0.9089    0.3998 N   0  0  0  0  0  0  0  0  0  0  0  0
   -2.5238   -0.4719   -0.1032 H   0  0  0  0  0  0  0  0  0  0  0  0
   -0.4848   -0.1959    0.4138 C   0  0  1  0  0  0  0  0  0  0  0  0
    0.1386   -0.6144    1.2058 H   0  0  0  0  0  0  0  0  0  0  0  0
    0.2271   -0.4272   -0.9334 C   0  0  0  0  0  0  0  0  0  0  0  0
    0.3808   -1.5008   -1.0607 H   0  0  0  0  0  0  0  0  0  0  0  0
   -0.4167   -0.0766   -1.7415 H   0  0  0  0  0  0  0  0  0  0  0  0
    1.5919    0.2745   -1.0447 C   0  0  0  0  0  0  0  0  0  0  0  0
    2.3717   -0.4655   -1.2228 H   0  0  0  0  0  0  0  0  0  0  0  0
    1.5672    0.9643   -1.8883 H   0  0  0  0  0  0  0  0  0  0  0  0
    1.9669    1.0629    0.2101 C   0  0  0  0  0  0  0  0  0  0  0  0
    1.2276    1.1863    1.1686 O   0  0  0  0  0  0  0  0  0  0  0  0
    3.1520    1.6312    0.2613 N   0  0  0  0  0  0  0  0  0  0  0  0
    3.3461    2.1355    1.1090 H   0  0  0  0  0  0  0  0  0  0  0  0
    3.7992    1.5589   -0.4974 H   0  0  0  0  0  0  0  0  0  0  0  0
   -0.7011    1.2952    0.7149 C   0  0  0  0  0  0  0  0  0  0  0  0
   -1.5917    1.9198    0.1415 O   0  0  0  0  0  0  0  0  0  0  0  0
    0.1191    1.8675    1.6055 N   0  0  0  0  0  0  0  0  0  0  0  0
    0.8092    1.2861    2.0537 H   0  0  0  0  0  0  0  0  0  0  0  0
    0.0509    3.2769    1.9894 C   0  0  0  0  0  0  0  0  0  0  0  0
   -0.9494    3.5076    2.3640 H   0  0  0  0  0  0  0  0  0  0  0  0
    0.7844    3.4956    2.7668 H   0  0  0  0  0  0  0  0  0  0  0  0
    0.2468    3.9058    1.1193 H   0  0  0  0  0  0  0  0  0  0  0  0
  5  6  2  0  0  0  0
  5  7  1  0  0  0  0
  2  3  1  0  0  0  0
  2  4  1  0  0  0  0
  2  5  1  0  0  0  0
  1  2  1  0  0  0  0
 22 23  2  0  0  0  0
 22 24  1  0  0  0  0
 19 20  1  0  0  0  0
 19 21  1  0  0  0  0
 17 18  2  0  0  0  0
 17 19  1  0  0  0  0
 14 15  1  0  0  0  0
 14 16  1  0  0  0  0
 14 17  1  0  0  0  0
 11 12  1  0  0  0  0
 11 13  1  0  0  0  0
 11 14  1  0  0  0  0
  9 10  1  0  0  0  0
  9 11  1  0  0  0  0
  9 22  1  0  0  0  0
  7  8  1  0  0  0  0
  7  9  1  0  0  0  0
 26 27  1  0  0  0  0
 26 28  1  0  0  0  0
 26 29  1  0  0  0  0
 24 25  1  0  0  0  0
 24 26  1  0  0  0  0
M  END
$$$$
default_name
  -OEChem-02102213163D

 29 28  0     1  0  0  0  0  0999 V2000
   -3.3998   -3.6239    1.3678 H   0  0  0  0  0  0  0  0  0  0  0  0
   -3.3608   -2.6749    0.8348 C   0  0  0  0  0  0  0  0  0  0  0  0
   -4.0988   -1.9909    1.2498 H   0  0  0  0  0  0  0  0  0  0  0  0
   -3.5618   -2.8419   -0.2222 H   0  0  0  0  0  0  0  0  0  0  0  0
   -1.9818   -2.0809    0.9918 C   0  0  0  0  0  0  0  0  0  0  0  0
   -1.1288   -2.6669    1.6468 O   0  0  0  0  0  0  0  0  0  0  0  0
   -1.7648   -0.9089    0.3998 N   0  0  0  0  0  0  0  0  0  0  0  0
   -2.5238   -0.4719   -0.1032 H   0  0  0  0  0  0  0  0  0  0  0  0
   -0.4848   -0.1959    0.4138 C   0  0  1  0  0  0  0  0  0  0  0  0
    0.1386   -0.6144    1.2058 H   0  0  0  0  0  0  0  0  0  0  0  0
    0.2271   -0.4272   -0.9334 C   0  0  0  0  0  0  0  0  0  0  0  0
    0.3808   -1.5008   -1.0607 H   0  0  0  0  0  0  0  0  0  0  0  0
   -0.4167   -0.0766   -1.7415 H   0  0  0  0  0  0  0  0  0  0  0  0
    1.5919    0.2745   -1.0447 C   0  0  0  0  0  0  0  0  0  0  0  0
    2.3214   -0.4083   -1.4796 H   0  0  0  0  0  0  0  0  0  0  0  0
    1.4921    1.1404   -1.6992 H   0  0  0  0  0  0  0  0  0  0  0  0
    2.1352    0.7503    0.3025 C   0  0  0  0  0  0  0  0  0  0  0  0
    1.5163    0.6529    1.3457 O   0  0  0  0  0  0  0  0  0  0  0  0
    3.3361    1.2856    0.3394 N   0  0  0  0  0  0  0  0  0  0  0  0
    3.6434    1.5798    1.2502 H   0  0  0  0  0  0  0  0  0  0  0  0
    3.8884    1.3871   -0.4879 H   0  0  0  0  0  0  0  0  0  0  0  0
   -0.7011    1.2952    0.7149 C   0  0  0  0  0  0  0  0  0  0  0  0
   -1.5917    1.9198    0.1415 O   0  0  0  0  0  0  0  0  0  0  0  0
    0.1191    1.8675    1.6055 N   0  0  0  0  0  0  0  0  0  0  0  0
    0.8092    1.2861    2.0537 H   0  0  0  0  0  0  0  0  0  0  0  0
    0.0509    3.2769    1.9894 C   0  0  0  0  0  0  0  0  0  0  0  0
   -0.9494    3.5076    2.3640 H   0  0  0  0  0  0  0  0  0  0  0  0
    0.7844    3.4956    2.7668 H   0  0  0  0  0  0  0  0  0  0  0  0
    0.2468    3.9058    1.1193 H   0  0  0  0  0  0  0  0  0  0  0  0
  5  6  2  0  0  0  0
  5  7  1  0  0  0  0
  2  3  1  0  0  0  0
  2  4  1  0  0  0  0
  2  5  1  0  0  0  0
  1  2  1  0  0  0  0
 22 23  2  0  0  0  0
 22 24  1  0  0  0  0
 19 20  1  0  0  0  0
 19 21  1  0  0  0  0
 17 18  2  0  0  0  0
 17 19  1  0  0  0  0
 14 15  1  0  0  0  0
 14 16  1  0  0  0  0
 14 17  1  0  0  0  0
 11 12  1  0  0  0  0
 11 13  1  0  0  0  0
 11 14  1  0  0  0  0
  9 10  1  0  0  0  0
  9 11  1  0  0  0  0
  9 22  1  0  0  0  0
  7  8  1  0  0  0  0
  7  9  1  0  0  0  0
 26 27  1  0  0  0  0
 26 28  1  0  0  0  0
 26 29  1  0  0  0  0
 24 25  1  0  0  0  0
 24 26  1  0  0  0  0
M  END
$$$$
default_name
  -OEChem-02102213163D

 29 28  0     1  0  0  0  0  0999 V2000
   -3.3998   -3.6239    1.3678 H   0  0  0  0  0  0  0  0  0  0  0  0
   -3.3608   -2.6749    0.8348 C   0  0  0  0  0  0  0  0  0  0  0  0
   -4.0988   -1.9909    1.2498 H   0  0  0  0  0  0  0  0  0  0  0  0
   -3.5618   -2.8419   -0.2222 H   0  0  0  0  0  0  0  0  0  0  0  0
   -1.9818   -2.0809    0.9918 C   0  0  0  0  0  0  0  0  0  0  0  0
   -1.1288   -2.6669    1.6468 O   0  0  0  0  0  0  0  0  0  0  0  0
   -1.7648   -0.9089    0.3998 N   0  0  0  0  0  0  0  0  0  0  0  0
   -2.5238   -0.4719   -0.1032 H   0  0  0  0  0  0  0  0  0  0  0  0
   -0.4848   -0.1959    0.4138 C   0  0  1  0  0  0  0  0  0  0  0  0
    0.1386   -0.6144    1.2058 H   0  0  0  0  0  0  0  0  0  0  0  0
    0.2271   -0.4272   -0.9334 C   0  0  0  0  0  0  0  0  0  0  0  0
    0.3808   -1.5008   -1.0607 H   0  0  0  0  0  0  0  0  0  0  0  0
   -0.4167   -0.0766   -1.7415 H   0  0  0  0  0  0  0  0  0  0  0  0
    1.5919    0.2745   -1.0447 C   0  0  0  0  0  0  0  0  0  0  0  0
    2.2435   -0.2932   -1.7086 H   0  0  0  0  0  0  0  0  0  0  0  0
    1.4452    1.2685   -1.4672 H   0  0  0  0  0  0  0  0  0  0  0  0
    2.3028    0.4240    0.3002 C   0  0  0  0  0  0  0  0  0  0  0  0
    1.8061    0.0916    1.3602 O   0  0  0  0  0  0  0  0  0  0  0  0
    3.5167    0.9304    0.3138 N   0  0  0  0  0  0  0  0  0  0  0  0
    3.9368    1.0050    1.2240 H   0  0  0  0  0  0  0  0  0  0  0  0
    3.9723    1.2172   -0.5287 H   0  0  0  0  0  0  0  0  0  0  0  0
   -0.7011    1.2952    0.7149 C   0  0  0  0  0  0  0  0  0  0  0  0
   -1.5917    1.9198    0.1415 O   0  0  0  0  0  0  0  0  0  0  0  0
    0.1191    1.8675    1.6055 N   0  0  0  0  0  0  0  0  0  0  0  0
    0.8092    1.2861    2.0537 H   0  0  0  0  0  0  0  0  0  0  0  0
    0.0509    3.2769    1.9894 C   0  0  0  0  0  0  0  0  0  0  0  0
   -0.9494    3.5076    2.3640 H   0  0  0  0  0  0  0  0  0  0  0  0
    0.7844    3.4956    2.7668 H   0  0  0  0  0  0  0  0  0  0  0  0
    0.2468    3.9058    1.1193 H   0  0  0  0  0  0  0  0  0  0  0  0
  5  6  2  0  0  0  0
  5  7  1  0  0  0  0
  2  3  1  0  0  0  0
  2  4  1  0  0  0  0
  2  5  1  0  0  0  0
  1  2  1  0  0  0  0
 22 23  2  0  0  0  0
 22 24  1  0  0  0  0
 19 20  1  0  0  0  0
 19 21  1  0  0  0  0
 17 18  2  0  0  0  0
 17 19  1  0  0  0  0
 14 15  1  0  0  0  0
 14 16  1  0  0  0  0
 14 17  1  0  0  0  0
 11 12  1  0  0  0  0
 11 13  1  0  0  0  0
 11 14  1  0  0  0  0
  9 10  1  0  0  0  0
  9 11  1  0  0  0  0
  9 22  1  0  0  0  0
  7  8  1  0  0  0  0
  7  9  1  0  0  0  0
 26 27  1  0  0  0  0
 26 28  1  0  0  0  0
 26 29  1  0  0  0  0
 24 25  1  0  0  0  0
 24 26  1  0  0  0  0
M  END
$$$$
default_name
  -OEChem-02102213163D

 29 28  0     1  0  0  0  0  0999 V2000
   -3.3998   -3.6239    1.3678 H   0  0  0  0  0  0  0  0  0  0  0  0
   -3.3608   -2.6749    0.8348 C   0  0  0  0  0  0  0  0  0  0  0  0
   -4.0988   -1.9909    1.2498 H   0  0  0  0  0  0  0  0  0  0  0  0
   -3.5618   -2.8419   -0.2222 H   0  0  0  0  0  0  0  0  0  0  0  0
   -1.9818   -2.0809    0.9918 C   0  0  0  0  0  0  0  0  0  0  0  0
   -1.1288   -2.6669    1.6468 O   0  0  0  0  0  0  0  0  0  0  0  0
   -1.7648   -0.9089    0.3998 N   0  0  0  0  0  0  0  0  0  0  0  0
   -2.5238   -0.4719   -0.1032 H   0  0  0  0  0  0  0  0  0  0  0  0
   -0.4848   -0.1959    0.4138 C   0  0  1  0  0  0  0  0  0  0  0  0
    0.1386   -0.6144    1.2058 H   0  0  0  0  0  0  0  0  0  0  0  0
    0.2271   -0.4272   -0.9334 C   0  0  0  0  0  0  0  0  0  0  0  0
    0.3808   -1.5008   -1.0607 H   0  0  0  0  0  0  0  0  0  0  0  0
   -0.4167   -0.0766   -1.7415 H   0  0  0  0  0  0  0  0  0  0  0  0
    1.5919    0.2745   -1.0447 C   0  0  0  0  0  0  0  0  0  0  0  0
    2.1434   -0.1279   -1.8941 H   0  0  0  0  0  0  0  0  0  0  0  0
    1.4296    1.3399   -1.2082 H   0  0  0  0  0  0  0  0  0  0  0  0
    2.4583    0.1061    0.2033 C   0  0  0  0  0  0  0  0  0  0  0  0
    2.0772   -0.4593    1.2111 O   0  0  0  0  0  0  0  0  0  0  0  0
    3.6814    0.5898    0.1861 N   0  0  0  0  0  0  0  0  0  0  0  0
    4.2063    0.4503    1.0320 H   0  0  0  0  0  0  0  0  0  0  0  0
    4.0455    1.0610   -0.6170 H   0  0  0  0  0  0  0  0  0  0  0  0
   -0.7011    1.2952    0.7149 C   0  0  0  0  0  0  0  0  0  0  0  0
   -1.5917    1.9198    0.1415 O   0  0  0  0  0  0  0  0  0  0  0  0
    0.1191    1.8675    1.6055 N   0  0  0  0  0  0  0  0  0  0  0  0
    0.8092    1.2861    2.0537 H   0  0  0  0  0  0  0  0  0  0  0  0
    0.0509    3.2769    1.9894 C   0  0  0  0  0  0  0  0  0  0  0  0
   -0.9494    3.5076    2.3640 H   0  0  0  0  0  0  0  0  0  0  0  0
    0.7844    3.4956    2.7668 H   0  0  0  0  0  0  0  0  0  0  0  0
    0.2468    3.9058    1.1193 H   0  0  0  0  0  0  0  0  0  0  0  0
  5  6  2  0  0  0  0
  5  7  1  0  0  0  0
  2  3  1  0  0  0  0
  2  4  1  0  0  0  0
  2  5  1  0  0  0  0
  1  2  1  0  0  0  0
 22 23  2  0  0  0  0
 22 24  1  0  0  0  0
 19 20  1  0  0  0  0
 19 21  1  0  0  0  0
 17 18  2  0  0  0  0
 17 19  1  0  0  0  0
 14 15  1  0  0  0  0
 14 16  1  0  0  0  0
 14 17  1  0  0  0  0
 11 12  1  0  0  0  0
 11 13  1  0  0  0  0
 11 14  1  0  0  0  0
  9 10  1  0  0  0  0
  9 11  1  0  0  0  0
  9 22  1  0  0  0  0
  7  8  1  0  0  0  0
  7  9  1  0  0  0  0
 26 27  1  0  0  0  0
 26 28  1  0  0  0  0
 26 29  1  0  0  0  0
 24 25  1  0  0  0  0
 24 26  1  0  0  0  0
M  END
$$$$
default_name
  -OEChem-02102213163D

 29 28  0     1  0  0  0  0  0999 V2000
   -3.3998   -3.6239    1.3678 H   0  0  0  0  0  0  0  0  0  0  0  0
   -3.3608   -2.6749    0.8348 C   0  0  0  0  0  0  0  0  0  0  0  0
   -4.0988   -1.9909    1.2498 H   0  0  0  0  0  0  0  0  0  0  0  0
   -3.5618   -2.8419   -0.2222 H   0  0  0  0  0  0  0  0  0  0  0  0
   -1.9818   -2.0809    0.9918 C   0  0  0  0  0  0  0  0  0  0  0  0
   -1.1288   -2.6669    1.6468 O   0  0  0  0  0  0  0  0  0  0  0  0
   -1.7648   -0.9089    0.3998 N   0  0  0  0  0  0  0  0  0  0  0  0
   -2.5238   -0.4719   -0.1032 H   0  0  0  0  0  0  0  0  0  0  0  0
   -0.4848   -0.1959    0.4138 C   0  0  1  0  0  0  0  0  0  0  0  0
    0.1386   -0.6144    1.2058 H   0  0  0  0  0  0  0  0  0  0  0  0
    0.2271   -0.4272   -0.9334 C   0  0  0  0  0  0  0  0  0  0  0  0
    0.3808   -1.5008   -1.0607 H   0  0  0  0  0  0  0  0  0  0  0  0
   -0.4167   -0.0766   -1.7415 H   0  0  0  0  0  0  0  0  0  0  0  0
    1.5919    0.2745   -1.0447 C   0  0  0  0  0  0  0  0  0  0  0  0
    2.0279    0.0762   -2.0236 H   0  0  0  0  0  0  0  0  0  0  0  0
    1.4465    1.3496   -0.9397 H   0  0  0  0  0  0  0  0  0  0  0  0
    2.5911   -0.1815    0.0184 C   0  0  0  0  0  0  0  0  0  0  0  0
    2.3112   -0.9623    0.9087 O   0  0  0  0  0  0  0  0  0  0  0  0
    3.8191    0.2870   -0.0348 N   0  0  0  0  0  0  0  0  0  0  0  0
    4.4336   -0.0464    0.6874 H   0  0  0  0  0  0  0  0  0  0  0  0
    4.1028    0.9290   -0.7469 H   0  0  0  0  0  0  0  0  0  0  0  0
   -0.7011    1.2952    0.7149 C   0  0  0  0  0  0  0  0  0  0  0  0
   -1.5917    1.9198    0.1415 O   0  0  0  0  0  0  0  0  0  0  0  0
    0.1191    1.8675    1.6055 N   0  0  0  0  0  0  0  0  0  0  0  0
    0.8092    1.2861    2.0537 H   0  0  0  0  0  0  0  0  0  0  0  0
    0.0509    3.2769    1.9894 C   0  0  0  0  0  0  0  0  0  0  0  0
   -0.9494    3.5076    2.3640 H   0  0  0  0  0  0  0  0  0  0  0  0
    0.7844    3.4956    2.7668 H   0  0  0  0  0  0  0  0  0  0  0  0
    0.2468    3.9058    1.1193 H   0  0  0  0  0  0  0  0  0  0  0  0
  5  6  2  0  0  0  0
  5  7  1  0  0  0  0
  2  3  1  0  0  0  0
  2  4  1  0  0  0  0
  2  5  1  0  0  0  0
  1  2  1  0  0  0  0
 22 23  2  0  0  0  0
 22 24  1  0  0  0  0
 19 20  1  0  0  0  0
 19 21  1  0  0  0  0
 17 18  2  0  0  0  0
 17 19  1  0  0  0  0
 14 15  1  0  0  0  0
 14 16  1  0  0  0  0
 14 17  1  0  0  0  0
 11 12  1  0  0  0  0
 11 13  1  0  0  0  0
 11 14  1  0  0  0  0
  9 10  1  0  0  0  0
  9 11  1  0  0  0  0
  9 22  1  0  0  0  0
  7  8  1  0  0  0  0
  7  9  1  0  0  0  0
 26 27  1  0  0  0  0
 26 28  1  0  0  0  0
 26 29  1  0  0  0  0
 24 25  1  0  0  0  0
 24 26  1  0  0  0  0
M  END
$$$$
default_name
  -OEChem-02102213163D

 29 28  0     1  0  0  0  0  0999 V2000
   -3.3998   -3.6239    1.3678 H   0  0  0  0  0  0  0  0  0  0  0  0
   -3.3608   -2.6749    0.8348 C   0  0  0  0  0  0  0  0  0  0  0  0
   -4.0988   -1.9909    1.2498 H   0  0  0  0  0  0  0  0  0  0  0  0
   -3.5618   -2.8419   -0.2222 H   0  0  0  0  0  0  0  0  0  0  0  0
   -1.9818   -2.0809    0.9918 C   0  0  0  0  0  0  0  0  0  0  0  0
   -1.1288   -2.6669    1.6468 O   0  0  0  0  0  0  0  0  0  0  0  0
   -1.7648   -0.9089    0.3998 N   0  0  0  0  0  0  0  0  0  0  0  0
   -2.5238   -0.4719   -0.1032 H   0  0  0  0  0  0  0  0  0  0  0  0
   -0.4848   -0.1959    0.4138 C   0  0  1  0  0  0  0  0  0  0  0  0
    0.1386   -0.6144    1.2058 H   0  0  0  0  0  0  0  0  0  0  0  0
    0.2271   -0.4272   -0.9334 C   0  0  0  0  0  0  0  0  0  0  0  0
    0.3808   -1.5008   -1.0607 H   0  0  0  0  0  0  0  0  0  0  0  0
   -0.4167   -0.0766   -1.7415 H   0  0  0  0  0  0  0  0  0  0  0  0
    1.5919    0.2745   -1.0447 C   0  0  0  0  0  0  0  0  0  0  0  0
    1.9049    0.3052   -2.0881 H   0  0  0  0  0  0  0  0  0  0  0  0
    1.4946    1.2971   -0.6802 H   0  0  0  0  0  0  0  0  0  0  0  0
    2.6922   -0.4194   -0.2420 C   0  0  0  0  0  0  0  0  0  0  0  0
    2.4921   -1.3831    0.4734 O   0  0  0  0  0  0  0  0  0  0  0  0
    3.9203    0.0427   -0.3339 N   0  0  0  0  0  0  0  0  0  0  0  0
    4.6032   -0.4514    0.2137 H   0  0  0  0  0  0  0  0  0  0  0  0
    4.1403    0.8302   -0.9093 H   0  0  0  0  0  0  0  0  0  0  0  0
   -0.7011    1.2952    0.7149 C   0  0  0  0  0  0  0  0  0  0  0  0
   -1.5917    1.9198    0.1415 O   0  0  0  0  0  0  0  0  0  0  0  0
    0.1191    1.8675    1.6055 N   0  0  0  0  0  0  0  0  0  0  0  0
    0.8092    1.2861    2.0537 H   0  0  0  0  0  0  0  0  0  0  0  0
    0.0509    3.2769    1.9894 C   0  0  0  0  0  0  0  0  0  0  0  0
   -0.9494    3.5076    2.3640 H   0  0  0  0  0  0  0  0  0  0  0  0
    0.7844    3.4956    2.7668 H   0  0  0  0  0  0  0  0  0  0  0  0
    0.2468    3.9058    1.1193 H   0  0  0  0  0  0  0  0  0  0  0  0
  5  6  2  0  0  0  0
  5  7  1  0  0  0  0
  2  3  1  0  0  0  0
  2  4  1  0  0  0  0
  2  5  1  0  0  0  0
  1  2  1  0  0  0  0
 22 23  2  0  0  0  0
 22 24  1  0  0  0  0
 19 20  1  0  0  0  0
 19 21  1  0  0  0  0
 17 18  2  0  0  0  0
 17 19  1  0  0  0  0
 14 15  1  0  0  0  0
 14 16  1  0  0  0  0
 14 17  1  0  0  0  0
 11 12  1  0  0  0  0
 11 13  1  0  0  0  0
 11 14  1  0  0  0  0
  9 10  1  0  0  0  0
  9 11  1  0  0  0  0
  9 22  1  0  0  0  0
  7  8  1  0  0  0  0
  7  9  1  0  0  0  0
 26 27  1  0  0  0  0
 26 28  1  0  0  0  0
 26 29  1  0  0  0  0
 24 25  1  0  0  0  0
 24 26  1  0  0  0  0
M  END
$$$$
default_name
  -OEChem-02102213163D

 29 28  0     1  0  0  0  0  0999 V2000
   -3.3998   -3.6239    1.3678 H   0  0  0  0  0  0  0  0  0  0  0  0
   -3.3608   -2.6749    0.8348 C   0  0  0  0  0  0  0  0  0  0  0  0
   -4.0988   -1.9909    1.2498 H   0  0  0  0  0  0  0  0  0  0  0  0
   -3.5618   -2.8419   -0.2222 H   0  0  0  0  0  0  0  0  0  0  0  0
   -1.9818   -2.0809    0.9918 C   0  0  0  0  0  0  0  0  0  0  0  0
   -1.1288   -2.6669    1.6468 O   0  0  0  0  0  0  0  0  0  0  0  0
   -1.7648   -0.9089    0.3998 N   0  0  0  0  0  0  0  0  0  0  0  0
   -2.5238   -0.4719   -0.1032 H   0  0  0  0  0  0  0  0  0  0  0  0
   -0.4848   -0.1959    0.4138 C   0  0  1  0  0  0  0  0  0  0  0  0
    0.1386   -0.6144    1.2058 H   0  0  0  0  0  0  0  0  0  0  0  0
    0.2271   -0.4272   -0.9334 C   0  0  0  0  0  0  0  0  0  0  0  0
    0.3808   -1.5008   -1.0607 H   0  0  0  0  0  0  0  0  0  0  0  0
   -0.4167   -0.0766   -1.7415 H   0  0  0  0  0  0  0  0  0  0  0  0
    1.5919    0.2745   -1.0447 C   0  0  0  0  0  0  0  0  0  0  0  0
    1.7827    0.5435   -2.0834 H   0  0  0  0  0  0  0  0  0  0  0  0
    1.5708    1.1859   -0.4473 H   0  0  0  0  0  0  0  0  0  0  0  0
    2.7546   -0.5913   -0.5600 C   0  0  0  0  0  0  0  0  0  0  0  0
    2.6075   -1.6931   -0.0650 O   0  0  0  0  0  0  0  0  0  0  0  0
    3.9782   -0.1265   -0.6909 N   0  0  0  0  0  0  0  0  0  0  0  0
    4.7035   -0.7370   -0.3568 H   0  0  0  0  0  0  0  0  0  0  0  0
    4.1555    0.7714   -1.0934 H   0  0  0  0  0  0  0  0  0  0  0  0
   -0.7011    1.2952    0.7149 C   0  0  0  0  0  0  0  0  0  0  0  0
   -1.5917    1.9198    0.1415 O   0  0  0  0  0  0  0  0  0  0  0  0
    0.1191    1.8675    1.6055 N   0  0  0  0  0  0  0  0  0  0  0  0
    0.8092    1.2861    2.0537 H   0  0  0  0  0  0  0  0  0  0  0  0
    0.0509    3.2769    1.9894 C   0  0  0  0  0  0  0  0  0  0  0  0
   -0.9494    3.5076    2.3640 H   0  0  0  0  0  0  0  0  0  0  0  0
    0.7844    3.4956    2.7668 H   0  0  0  0  0  0  0  0  0  0  0  0
    0.2468    3.9058    1.1193 H   0  0  0  0  0  0  0  0  0  0  0  0
  5  6  2  0  0  0  0
  5  7  1  0  0  0  0
  2  3  1  0  0  0  0
  2  4  1  0  0  0  0
  2  5  1  0  0  0  0
  1  2  1  0  0  0  0
 22 23  2  0  0  0  0
 22 24  1  0  0  0  0
 19 20  1  0  0  0  0
 19 21  1  0  0  0  0
 17 18  2  0  0  0  0
 17 19  1  0  0  0  0
 14 15  1  0  0  0  0
 14 16  1  0  0  0  0
 14 17  1  0  0  0  0
 11 12  1  0  0  0  0
 11 13  1  0  0  0  0
 11 14  1  0  0  0  0
  9 10  1  0  0  0  0
  9 11  1  0  0  0  0
  9 22  1  0  0  0  0
  7  8  1  0  0  0  0
  7  9  1  0  0  0  0
 26 27  1  0  0  0  0
 26 28  1  0  0  0  0
 26 29  1  0  0  0  0
 24 25  1  0  0  0  0
 24 26  1  0  0  0  0
M  END
$$$$
default_name
  -OEChem-02102213163D

 29 28  0     1  0  0  0  0  0999 V2000
   -3.3998   -3.6239    1.3678 H   0  0  0  0  0  0  0  0  0  0  0  0
   -3.3608   -2.6749    0.8348 C   0  0  0  0  0  0  0  0  0  0  0  0
   -4.0988   -1.9909    1.2498 H   0  0  0  0  0  0  0  0  0  0  0  0
   -3.5618   -2.8419   -0.2222 H   0  0  0  0  0  0  0  0  0  0  0  0
   -1.9818   -2.0809    0.9918 C   0  0  0  0  0  0  0  0  0  0  0  0
   -1.1288   -2.6669    1.6468 O   0  0  0  0  0  0  0  0  0  0  0  0
   -1.7648   -0.9089    0.3998 N   0  0  0  0  0  0  0  0  0  0  0  0
   -2.5238   -0.4719   -0.1032 H   0  0  0  0  0  0  0  0  0  0  0  0
   -0.4848   -0.1959    0.4138 C   0  0  1  0  0  0  0  0  0  0  0  0
    0.1386   -0.6144    1.2058 H   0  0  0  0  0  0  0  0  0  0  0  0
    0.2271   -0.4272   -0.9334 C   0  0  0  0  0  0  0  0  0  0  0  0
    0.3808   -1.5008   -1.0607 H   0  0  0  0  0  0  0  0  0  0  0  0
   -0.4167   -0.0766   -1.7415 H   0  0  0  0  0  0  0  0  0  0  0  0
    1.5919    0.2745   -1.0447 C   0  0  0  0  0  0  0  0  0  0  0  0
    1.6697    0.7749   -2.0097 H   0  0  0  0  0  0  0  0  0  0  0  0
    1.6698    1.0236   -0.2568 H   0  0  0  0  0  0  0  0  0  0  0  0
    2.7742   -0.6855   -0.9140 C   0  0  0  0  0  0  0  0  0  0  0  0
    2.6497   -1.8710   -0.6698 O   0  0  0  0  0  0  0  0  0  0  0  0
    3.9888   -0.2091   -1.0814 N   0  0  0  0  0  0  0  0  0  0  0  0
    4.7277   -0.8838   -0.9853 H   0  0  0  0  0  0  0  0  0  0  0  0
    4.1474    0.7566   -1.2864 H   0  0  0  0  0  0  0  0  0  0  0  0
   -0.7011    1.2952    0.7149 C   0  0  0  0  0  0  0  0  0  0  0  0
   -1.5917    1.9198    0.1415 O   0  0  0  0  0  0  0  0  0  0  0  0
    0.1191    1.8675    1.6055 N   0  0  0  0  0  0  0  0  0  0  0  0
    0.8092    1.2861    2.0537 H   0  0  0  0  0  0  0  0  0  0  0  0
    0.0509    3.2769    1.9894 C   0  0  0  0  0  0  0  0  0  0  0  0
   -0.9494    3.5076    2.3640 H   0  0  0  0  0  0  0  0  0  0  0  0
    0.7844    3.4956    2.7668 H   0  0  0  0  0  0  0  0  0  0  0  0
    0.2468    3.9058    1.1193 H   0  0  0  0  0  0  0  0  0  0  0  0
  5  6  2  0  0  0  0
  5  7  1  0  0  0  0
  2  3  1  0  0  0  0
  2  4  1  0  0  0  0
  2  5  1  0  0  0  0
  1  2  1  0  0  0  0
 22 23  2  0  0  0  0
 22 24  1  0  0  0  0
 19 20  1  0  0  0  0
 19 21  1  0  0  0  0
 17 18  2  0  0  0  0
 17 19  1  0  0  0  0
 14 15  1  0  0  0  0
 14 16  1  0  0  0  0
 14 17  1  0  0  0  0
 11 12  1  0  0  0  0
 11 13  1  0  0  0  0
 11 14  1  0  0  0  0
  9 10  1  0  0  0  0
  9 11  1  0  0  0  0
  9 22  1  0  0  0  0
  7  8  1  0  0  0  0
  7  9  1  0  0  0  0
 26 27  1  0  0  0  0
 26 28  1  0  0  0  0
 26 29  1  0  0  0  0
 24 25  1  0  0  0  0
 24 26  1  0  0  0  0
M  END
$$$$
default_name
  -OEChem-02102213163D

 29 28  0     1  0  0  0  0  0999 V2000
   -3.3998   -3.6239    1.3678 H   0  0  0  0  0  0  0  0  0  0  0  0
   -3.3608   -2.6749    0.8348 C   0  0  0  0  0  0  0  0  0  0  0  0
   -4.0988   -1.9909    1.2498 H   0  0  0  0  0  0  0  0  0  0  0  0
   -3.5618   -2.8419   -0.2222 H   0  0  0  0  0  0  0  0  0  0  0  0
   -1.9818   -2.0809    0.9918 C   0  0  0  0  0  0  0  0  0  0  0  0
   -1.1288   -2.6669    1.6468 O   0  0  0  0  0  0  0  0  0  0  0  0
   -1.7648   -0.9089    0.3998 N   0  0  0  0  0  0  0  0  0  0  0  0
   -2.5238   -0.4719   -0.1032 H   0  0  0  0  0  0  0  0  0  0  0  0
   -0.4848   -0.1959    0.4138 C   0  0  1  0  0  0  0  0  0  0  0  0
    0.1386   -0.6144    1.2058 H   0  0  0  0  0  0  0  0  0  0  0  0
    0.2271   -0.4272   -0.9334 C   0  0  0  0  0  0  0  0  0  0  0  0
    0.3808   -1.5008   -1.0607 H   0  0  0  0  0  0  0  0  0  0  0  0
   -0.4167   -0.0766   -1.7415 H   0  0  0  0  0  0  0  0  0  0  0  0
    1.5919    0.2745   -1.0447 C   0  0  0  0  0  0  0  0  0  0  0  0
    1.5736    0.9837   -1.8720 H   0  0  0  0  0  0  0  0  0  0  0  0
    1.7849    0.8212   -0.1217 H   0  0  0  0  0  0  0  0  0  0  0  0
    2.7495   -0.6956   -1.2799 C   0  0  0  0  0  0  0  0  0  0  0  0
    2.6157   -1.9048   -1.2998 O   0  0  0  0  0  0  0  0  0  0  0  0
    3.9514   -0.1994   -1.4788 N   0  0  0  0  0  0  0  0  0  0  0  0
    4.6742   -0.8817   -1.6290 H   0  0  0  0  0  0  0  0  0  0  0  0
    4.1165    0.7867   -1.4754 H   0  0  0  0  0  0  0  0  0  0  0  0
   -0.7011    1.2952    0.7149 C   0  0  0  0  0  0  0  0  0  0  0  0
   -1.5917    1.9198    0.1415 O   0  0  0  0  0  0  0  0  0  0  0  0
    0.1191    1.8675    1.6055 N   0  0  0  0  0  0  0  0  0  0  0  0
    0.8092    1.2861    2.0537 H   0  0  0  0  0  0  0  0  0  0  0  0
    0.0509    3.2769    1.9894 C   0  0  0  0  0  0  0  0  0  0  0  0
   -0.9494    3.5076    2.3640 H   0  0  0  0  0  0  0  0  0  0  0  0
    0.7844    3.4956    2.7668 H   0  0  0  0  0  0  0  0  0  0  0  0
    0.2468    3.9058    1.1193 H   0  0  0  0  0  0  0  0  0  0  0  0
  5  6  2  0  0  0  0
  5  7  1  0  0  0  0
  2  3  1  0  0  0  0
  2  4  1  0  0  0  0
  2  5  1  0  0  0  0
  1  2  1  0  0  0  0
 22 23  2  0  0  0  0
 22 24  1  0  0  0  0
 19 20  1  0  0  0  0
 19 21  1  0  0  0  0
 17 18  2  0  0  0  0
 17 19  1  0  0  0  0
 14 15  1  0  0  0  0
 14 16  1  0  0  0  0
 14 17  1  0  0  0  0
 11 12  1  0  0  0  0
 11 13  1  0  0  0  0
 11 14  1  0  0  0  0
  9 10  1  0  0  0  0
  9 11  1  0  0  0  0
  9 22  1  0  0  0  0
  7  8  1  0  0  0  0
  7  9  1  0  0  0  0
 26 27  1  0  0  0  0
 26 28  1  0  0  0  0
 26 29  1  0  0  0  0
 24 25  1  0  0  0  0
 24 26  1  0  0  0  0
M  END
$$$$
default_name
  -OEChem-02102213163D

 29 28  0     1  0  0  0  0  0999 V2000
   -3.3998   -3.6239    1.3678 H   0  0  0  0  0  0  0  0  0  0  0  0
   -3.3608   -2.6749    0.8348 C   0  0  0  0  0  0  0  0  0  0  0  0
   -4.0988   -1.9909    1.2498 H   0  0  0  0  0  0  0  0  0  0  0  0
   -3.5618   -2.8419   -0.2222 H   0  0  0  0  0  0  0  0  0  0  0  0
   -1.9818   -2.0809    0.9918 C   0  0  0  0  0  0  0  0  0  0  0  0
   -1.1288   -2.6669    1.6468 O   0  0  0  0  0  0  0  0  0  0  0  0
   -1.7648   -0.9089    0.3998 N   0  0  0  0  0  0  0  0  0  0  0  0
   -2.5238   -0.4719   -0.1032 H   0  0  0  0  0  0  0  0  0  0  0  0
   -0.4848   -0.1959    0.4138 C   0  0  1  0  0  0  0  0  0  0  0  0
    0.1386   -0.6144    1.2058 H   0  0  0  0  0  0  0  0  0  0  0  0
    0.2271   -0.4272   -0.9334 C   0  0  0  0  0  0  0  0  0  0  0  0
    0.3808   -1.5008   -1.0607 H   0  0  0  0  0  0  0  0  0  0  0  0
   -0.4167   -0.0766   -1.7415 H   0  0  0  0  0  0  0  0  0  0  0  0
    1.5919    0.2745   -1.0447 C   0  0  0  0  0  0  0  0  0  0  0  0
    1.5010    1.1555   -1.6798 H   0  0  0  0  0  0  0  0  0  0  0  0
    1.9082    0.5926   -0.0513 H   0  0  0  0  0  0  0  0  0  0  0  0
    2.6823   -0.6209   -1.6327 C   0  0  0  0  0  0  0  0  0  0  0  0
    2.5079   -1.7922   -1.9121 O   0  0  0  0  0  0  0  0  0  0  0  0
    3.8686   -0.0981   -1.8561 N   0  0  0  0  0  0  0  0  0  0  0  0
    4.5465   -0.7310   -2.2439 H   0  0  0  0  0  0  0  0  0  0  0  0
    4.0649    0.8598   -1.6473 H   0  0  0  0  0  0  0  0  0  0  0  0
   -0.7011    1.2952    0.7149 C   0  0  0  0  0  0  0  0  0  0  0  0
   -1.5917    1.9198    0.1415 O   0  0  0  0  0  0  0  0  0  0  0  0
    0.1191    1.8675    1.6055 N   0  0  0  0  0  0  0  0  0  0  0  0
    0.8092    1.2861    2.0537 H   0  0  0  0  0  0  0  0  0  0  0  0
    0.0509    3.2769    1.9894 C   0  0  0  0  0  0  0  0  0  0  0  0
   -0.9494    3.5076    2.3640 H   0  0  0  0  0  0  0  0  0  0  0  0
    0.7844    3.4956    2.7668 H   0  0  0  0  0  0  0  0  0  0  0  0
    0.2468    3.9058    1.1193 H   0  0  0  0  0  0  0  0  0  0  0  0
  5  6  2  0  0  0  0
  5  7  1  0  0  0  0
  2  3  1  0  0  0  0
  2  4  1  0  0  0  0
  2  5  1  0  0  0  0
  1  2  1  0  0  0  0
 22 23  2  0  0  0  0
 22 24  1  0  0  0  0
 19 20  1  0  0  0  0
 19 21  1  0  0  0  0
 17 18  2  0  0  0  0
 17 19  1  0  0  0  0
 14 15  1  0  0  0  0
 14 16  1  0  0  0  0
 14 17  1  0  0  0  0
 11 12  1  0  0  0  0
 11 13  1  0  0  0  0
 11 14  1  0  0  0  0
  9 10  1  0  0  0  0
  9 11  1  0  0  0  0
  9 22  1  0  0  0  0
  7  8  1  0  0  0  0
  7  9  1  0  0  0  0
 26 27  1  0  0  0  0
 26 28  1  0  0  0  0
 26 29  1  0  0  0  0
 24 25  1  0  0  0  0
 24 26  1  0  0  0  0
M  END
$$$$
default_name
  -OEChem-02102213163D

 29 28  0     1  0  0  0  0  0999 V2000
   -3.3998   -3.6239    1.3678 H   0  0  0  0  0  0  0  0  0  0  0  0
   -3.3608   -2.6749    0.8348 C   0  0  0  0  0  0  0  0  0  0  0  0
   -4.0988   -1.9909    1.2498 H   0  0  0  0  0  0  0  0  0  0  0  0
   -3.5618   -2.8419   -0.2222 H   0  0  0  0  0  0  0  0  0  0  0  0
   -1.9818   -2.0809    0.9918 C   0  0  0  0  0  0  0  0  0  0  0  0
   -1.1288   -2.6669    1.6468 O   0  0  0  0  0  0  0  0  0  0  0  0
   -1.7648   -0.9089    0.3998 N   0  0  0  0  0  0  0  0  0  0  0  0
   -2.5238   -0.4719   -0.1032 H   0  0  0  0  0  0  0  0  0  0  0  0
   -0.4848   -0.1959    0.4138 C   0  0  1  0  0  0  0  0  0  0  0  0
    0.1386   -0.6144    1.2058 H   0  0  0  0  0  0  0  0  0  0  0  0
    0.2271   -0.4272   -0.9334 C   0  0  0  0  0  0  0  0  0  0  0  0
    0.3808   -1.5008   -1.0607 H   0  0  0  0  0  0  0  0  0  0  0  0
   -0.4167   -0.0766   -1.7415 H   0  0  0  0  0  0  0  0  0  0  0  0
    1.5919    0.2745   -1.0447 C   0  0  0  0  0  0  0  0  0  0  0  0
    1.4567    1.2787   -1.4461 H   0  0  0  0  0  0  0  0  0  0  0  0
    2.0313    0.3533   -0.0504 H   0  0  0  0  0  0  0  0  0  0  0  0
    2.5772   -0.4664   -1.9485 C   0  0  0  0  0  0  0  0  0  0  0  0
    2.3335   -1.5409   -2.4650 O   0  0  0  0  0  0  0  0  0  0  0  0
    3.7459    0.0879   -2.1874 N   0  0  0  0  0  0  0  0  0  0  0  0
    4.3534   -0.4418   -2.7882 H   0  0  0  0  0  0  0  0  0  0  0  0
    3.9962    0.9708   -1.7905 H   0  0  0  0  0  0  0  0  0  0  0  0
   -0.7011    1.2952    0.7149 C   0  0  0  0  0  0  0  0  0  0  0  0
   -1.5917    1.9198    0.1415 O   0  0  0  0  0  0  0  0  0  0  0  0
    0.1191    1.8675    1.6055 N   0  0  0  0  0  0  0  0  0  0  0  0
    0.8092    1.2861    2.0537 H   0  0  0  0  0  0  0  0  0  0  0  0
    0.0509    3.2769    1.9894 C   0  0  0  0  0  0  0  0  0  0  0  0
   -0.9494    3.5076    2.3640 H   0  0  0  0  0  0  0  0  0  0  0  0
    0.7844    3.4956    2.7668 H   0  0  0  0  0  0  0  0  0  0  0  0
    0.2468    3.9058    1.1193 H   0  0  0  0  0  0  0  0  0  0  0  0
  5  6  2  0  0  0  0
  5  7  1  0  0  0  0
  2  3  1  0  0  0  0
  2  4  1  0  0  0  0
  2  5  1  0  0  0  0
  1  2  1  0  0  0  0
 22 23  2  0  0  0  0
 22 24  1  0  0  0  0
 19 20  1  0  0  0  0
 19 21  1  0  0  0  0
 17 18  2  0  0  0  0
 17 19  1  0  0  0  0
 14 15  1  0  0  0  0
 14 16  1  0  0  0  0
 14 17  1  0  0  0  0
 11 12  1  0  0  0  0
 11 13  1  0  0  0  0
 11 14  1  0  0  0  0
  9 10  1  0  0  0  0
  9 11  1  0  0  0  0
  9 22  1  0  0  0  0
  7  8  1  0  0  0  0
  7  9  1  0  0  0  0
 26 27  1  0  0  0  0
 26 28  1  0  0  0  0
 26 29  1  0  0  0  0
 24 25  1  0  0  0  0
 24 26  1  0  0  0  0
M  END
$$$$
default_name
  -OEChem-02102213163D

 29 28  0     1  0  0  0  0  0999 V2000
   -3.3998   -3.6239    1.3678 H   0  0  0  0  0  0  0  0  0  0  0  0
   -3.3608   -2.6749    0.8348 C   0  0  0  0  0  0  0  0  0  0  0  0
   -4.0988   -1.9909    1.2498 H   0  0  0  0  0  0  0  0  0  0  0  0
   -3.5618   -2.8419   -0.2222 H   0  0  0  0  0  0  0  0  0  0  0  0
   -1.9818   -2.0809    0.9918 C   0  0  0  0  0  0  0  0  0  0  0  0
   -1.1288   -2.6669    1.6468 O   0  0  0  0  0  0  0  0  0  0  0  0
   -1.7648   -0.9089    0.3998 N   0  0  0  0  0  0  0  0  0  0  0  0
   -2.5238   -0.4719   -0.1032 H   0  0  0  0  0  0  0  0  0  0  0  0
   -0.4848   -0.1959    0.4138 C   0  0  1  0  0  0  0  0  0  0  0  0
    0.1386   -0.6144    1.2058 H   0  0  0  0  0  0  0  0  0  0  0  0
    0.2271   -0.4272   -0.9334 C   0  0  0  0  0  0  0  0  0  0  0  0
    0.3808   -1.5008   -1.0607 H   0  0  0  0  0  0  0  0  0  0  0  0
   -0.4167   -0.0766   -1.7415 H   0  0  0  0  0  0  0  0  0  0  0  0
    1.5919    0.2745   -1.0447 C   0  0  0  0  0  0  0  0  0  0  0  0
    1.4438    1.3448   -1.1869 H   0  0  0  0  0  0  0  0  0  0  0  0
    2.1459    0.1196   -0.1189 H   0  0  0  0  0  0  0  0  0  0  0  0
    2.4412   -0.2428   -2.2056 C   0  0  0  0  0  0  0  0  0  0  0  0
    2.1046   -1.1679   -2.9207 O   0  0  0  0  0  0  0  0  0  0  0  0
    3.5918    0.3459   -2.4503 N   0  0  0  0  0  0  0  0  0  0  0  0
    4.1081   -0.0339   -3.2247 H   0  0  0  0  0  0  0  0  0  0  0  0
    3.9149    1.1121   -1.8952 H   0  0  0  0  0  0  0  0  0  0  0  0
   -0.7011    1.2952    0.7149 C   0  0  0  0  0  0  0  0  0  0  0  0
   -1.5917    1.9198    0.1415 O   0  0  0  0  0  0  0  0  0  0  0  0
    0.1191    1.8675    1.6055 N   0  0  0  0  0  0  0  0  0  0  0  0
    0.8092    1.2861    2.0537 H   0  0  0  0  0  0  0  0  0  0  0  0
    0.0509    3.2769    1.9894 C   0  0  0  0  0  0  0  0  0  0  0  0
   -0.9494    3.5076    2.3640 H   0  0  0  0  0  0  0  0  0  0  0  0
    0.7844    3.4956    2.7668 H   0  0  0  0  0  0  0  0  0  0  0  0
    0.2468    3.9058    1.1193 H   0  0  0  0  0  0  0  0  0  0  0  0
  5  6  2  0  0  0  0
  5  7  1  0  0  0  0
  2  3  1  0  0  0  0
  2  4  1  0  0  0  0
  2  5  1  0  0  0  0
  1  2  1  0  0  0  0
 22 23  2  0  0  0  0
 22 24  1  0  0  0  0
 19 20  1  0  0  0  0
 19 21  1  0  0  0  0
 17 18  2  0  0  0  0
 17 19  1  0  0  0  0
 14 15  1  0  0  0  0
 14 16  1  0  0  0  0
 14 17  1  0  0  0  0
 11 12  1  0  0  0  0
 11 13  1  0  0  0  0
 11 14  1  0  0  0  0
  9 10  1  0  0  0  0
  9 11  1  0  0  0  0
  9 22  1  0  0  0  0
  7  8  1  0  0  0  0
  7  9  1  0  0  0  0
 26 27  1  0  0  0  0
 26 28  1  0  0  0  0
 26 29  1  0  0  0  0
 24 25  1  0  0  0  0
 24 26  1  0  0  0  0
M  END
$$$$
default_name
  -OEChem-02102213163D

 29 28  0     1  0  0  0  0  0999 V2000
   -3.3998   -3.6239    1.3678 H   0  0  0  0  0  0  0  0  0  0  0  0
   -3.3608   -2.6749    0.8348 C   0  0  0  0  0  0  0  0  0  0  0  0
   -4.0988   -1.9909    1.2498 H   0  0  0  0  0  0  0  0  0  0  0  0
   -3.5618   -2.8419   -0.2222 H   0  0  0  0  0  0  0  0  0  0  0  0
   -1.9818   -2.0809    0.9918 C   0  0  0  0  0  0  0  0  0  0  0  0
   -1.1288   -2.6669    1.6468 O   0  0  0  0  0  0  0  0  0  0  0  0
   -1.7648   -0.9089    0.3998 N   0  0  0  0  0  0  0  0  0  0  0  0
   -2.5238   -0.4719   -0.1032 H   0  0  0  0  0  0  0  0  0  0  0  0
   -0.4848   -0.1959    0.4138 C   0  0  1  0  0  0  0  0  0  0  0  0
    0.1386   -0.6144    1.2058 H   0  0  0  0  0  0  0  0  0  0  0  0
    0.2271   -0.4272   -0.9334 C   0  0  0  0  0  0  0  0  0  0  0  0
    0.1430   -1.4855   -1.1890 H   0  0  0  0  0  0  0  0  0  0  0  0
   -0.2784    0.1519   -1.7077 H   0  0  0  0  0  0  0  0  0  0  0  0
    1.7183   -0.0480   -0.9226 C   0  0  0  0  0  0  0  0  0  0  0  0
    1.8271    1.0061   -0.6685 H   0  0  0  0  0  0  0  0  0  0  0  0
    2.2291   -0.6432   -0.1657 H   0  0  0  0  0  0  0  0  0  0  0  0
    2.4085   -0.2836   -2.2660 C   0  0  0  0  0  0  0  0  0  0  0  0
    1.8544   -0.7912   -3.2230 O   0  0  0  0  0  0  0  0  0  0  0  0
    3.6633    0.0879   -2.3986 N   0  0  0  0  0  0  0  0  0  0  0  0
    4.0667   -0.0897   -3.3021 H   0  0  0  0  0  0  0  0  0  0  0  0
    4.1649    0.5122   -1.6449 H   0  0  0  0  0  0  0  0  0  0  0  0
   -0.7011    1.2952    0.7149 C   0  0  0  0  0  0  0  0  0  0  0  0
   -1.5917    1.9198    0.1415 O   0  0  0  0  0  0  0  0  0  0  0  0
    0.1191    1.8675    1.6055 N   0  0  0  0  0  0  0  0  0  0  0  0
    0.8092    1.2861    2.0537 H   0  0  0  0  0  0  0  0  0  0  0  0
    0.0509    3.2769    1.9894 C   0  0  0  0  0  0  0  0  0  0  0  0
   -0.9494    3.5076    2.3640 H   0  0  0  0  0  0  0  0  0  0  0  0
    0.7844    3.4956    2.7668 H   0  0  0  0  0  0  0  0  0  0  0  0
    0.2468    3.9058    1.1193 H   0  0  0  0  0  0  0  0  0  0  0  0
  5  6  2  0  0  0  0
  5  7  1  0  0  0  0
  2  3  1  0  0  0  0
  2  4  1  0  0  0  0
  2  5  1  0  0  0  0
  1  2  1  0  0  0  0
 22 23  2  0  0  0  0
 22 24  1  0  0  0  0
 19 20  1  0  0  0  0
 19 21  1  0  0  0  0
 17 18  2  0  0  0  0
 17 19  1  0  0  0  0
 14 15  1  0  0  0  0
 14 16  1  0  0  0  0
 14 17  1  0  0  0  0
 11 12  1  0  0  0  0
 11 13  1  0  0  0  0
 11 14  1  0  0  0  0
  9 10  1  0  0  0  0
  9 11  1  0  0  0  0
  9 22  1  0  0  0  0
  7  8  1  0  0  0  0
  7  9  1  0  0  0  0
 26 27  1  0  0  0  0
 26 28  1  0  0  0  0
 26 29  1  0  0  0  0
 24 25  1  0  0  0  0
 24 26  1  0  0  0  0
M  END
$$$$
default_name
  -OEChem-02102213163D

 29 28  0     1  0  0  0  0  0999 V2000
   -3.3998   -3.6239    1.3678 H   0  0  0  0  0  0  0  0  0  0  0  0
   -3.3608   -2.6749    0.8348 C   0  0  0  0  0  0  0  0  0  0  0  0
   -4.0988   -1.9909    1.2498 H   0  0  0  0  0  0  0  0  0  0  0  0
   -3.5618   -2.8419   -0.2222 H   0  0  0  0  0  0  0  0  0  0  0  0
   -1.9818   -2.0809    0.9918 C   0  0  0  0  0  0  0  0  0  0  0  0
   -1.1288   -2.6669    1.6468 O   0  0  0  0  0  0  0  0  0  0  0  0
   -1.7648   -0.9089    0.3998 N   0  0  0  0  0  0  0  0  0  0  0  0
   -2.5238   -0.4719   -0.1032 H   0  0  0  0  0  0  0  0  0  0  0  0
   -0.4848   -0.1959    0.4138 C   0  0  1  0  0  0  0  0  0  0  0  0
    0.1386   -0.6144    1.2058 H   0  0  0  0  0  0  0  0  0  0  0  0
    0.2271   -0.4272   -0.9334 C   0  0  0  0  0  0  0  0  0  0  0  0
    0.1430   -1.4855   -1.1890 H   0  0  0  0  0  0  0  0  0  0  0  0
   -0.2784    0.1519   -1.7077 H   0  0  0  0  0  0  0  0  0  0  0  0
    1.7183   -0.0480   -0.9226 C   0  0  0  0  0  0  0  0  0  0  0  0
    1.8498    0.9098   -0.4196 H   0  0  0  0  0  0  0  0  0  0  0  0
    2.2727   -0.8088   -0.3733 H   0  0  0  0  0  0  0  0  0  0  0  0
    2.3196    0.0677   -2.3232 C   0  0  0  0  0  0  0  0  0  0  0  0
    1.7022   -0.1892   -3.3397 O   0  0  0  0  0  0  0  0  0  0  0  0
    3.5657    0.4731   -2.4378 N   0  0  0  0  0  0  0  0  0  0  0  0
    3.9093    0.5318   -3.3807 H   0  0  0  0  0  0  0  0  0  0  0  0
    4.1171    0.6998   -1.6352 H   0  0  0  0  0  0  0  0  0  0  0  0
   -0.7011    1.2952    0.7149 C   0  0  0  0  0  0  0  0  0  0  0  0
   -1.5917    1.9198    0.1415 O   0  0  0  0  0  0  0  0  0  0  0  0
    0.1191    1.8675    1.6055 N   0  0  0  0  0  0  0  0  0  0  0  0
    0.8092    1.2861    2.0537 H   0  0  0  0  0  0  0  0  0  0  0  0
    0.0509    3.2769    1.9894 C   0  0  0  0  0  0  0  0  0  0  0  0
   -0.9494    3.5076    2.3640 H   0  0  0  0  0  0  0  0  0  0  0  0
    0.7844    3.4956    2.7668 H   0  0  0  0  0  0  0  0  0  0  0  0
    0.2468    3.9058    1.1193 H   0  0  0  0  0  0  0  0  0  0  0  0
  5  6  2  0  0  0  0
  5  7  1  0  0  0  0
  2  3  1  0  0  0  0
  2  4  1  0  0  0  0
  2  5  1  0  0  0  0
  1  2  1  0  0  0  0
 22 23  2  0  0  0  0
 22 24  1  0  0  0  0
 19 20  1  0  0  0  0
 19 21  1  0  0  0  0
 17 18  2  0  0  0  0
 17 19  1  0  0  0  0
 14 15  1  0  0  0  0
 14 16  1  0  0  0  0
 14 17  1  0  0  0  0
 11 12  1  0  0  0  0
 11 13  1  0  0  0  0
 11 14  1  0  0  0  0
  9 10  1  0  0  0  0
  9 11  1  0  0  0  0
  9 22  1  0  0  0  0
  7  8  1  0  0  0  0
  7  9  1  0  0  0  0
 26 27  1  0  0  0  0
 26 28  1  0  0  0  0
 26 29  1  0  0  0  0
 24 25  1  0  0  0  0
 24 26  1  0  0  0  0
M  END
$$$$
default_name
  -OEChem-02102213163D

 29 28  0     1  0  0  0  0  0999 V2000
   -3.3998   -3.6239    1.3678 H   0  0  0  0  0  0  0  0  0  0  0  0
   -3.3608   -2.6749    0.8348 C   0  0  0  0  0  0  0  0  0  0  0  0
   -4.0988   -1.9909    1.2498 H   0  0  0  0  0  0  0  0  0  0  0  0
   -3.5618   -2.8419   -0.2222 H   0  0  0  0  0  0  0  0  0  0  0  0
   -1.9818   -2.0809    0.9918 C   0  0  0  0  0  0  0  0  0  0  0  0
   -1.1288   -2.6669    1.6468 O   0  0  0  0  0  0  0  0  0  0  0  0
   -1.7648   -0.9089    0.3998 N   0  0  0  0  0  0  0  0  0  0  0  0
   -2.5238   -0.4719   -0.1032 H   0  0  0  0  0  0  0  0  0  0  0  0
   -0.4848   -0.1959    0.4138 C   0  0  1  0  0  0  0  0  0  0  0  0
    0.1386   -0.6144    1.2058 H   0  0  0  0  0  0  0  0  0  0  0  0
    0.2271   -0.4272   -0.9334 C   0  0  0  0  0  0  0  0  0  0  0  0
    0.1430   -1.4855   -1.1890 H   0  0  0  0  0  0  0  0  0  0  0  0
   -0.2784    0.1519   -1.7077 H   0  0  0  0  0  0  0  0  0  0  0  0
    1.7183   -0.0480   -0.9226 C   0  0  0  0  0  0  0  0  0  0  0  0
    1.8878    0.7543   -0.2048 H   0  0  0  0  0  0  0  0  0  0  0  0
    2.3019   -0.9167   -0.6181 H   0  0  0  0  0  0  0  0  0  0  0  0
    2.2294    0.4213   -2.2846 C   0  0  0  0  0  0  0  0  0  0  0  0
    1.5466    0.4213   -3.2918 O   0  0  0  0  0  0  0  0  0  0  0  0
    3.4681    0.8548   -2.3729 N   0  0  0  0  0  0  0  0  0  0  0  0
    3.7510    1.1514   -3.2907 H   0  0  0  0  0  0  0  0  0  0  0  0
    4.0713    0.8784   -1.5757 H   0  0  0  0  0  0  0  0  0  0  0  0
   -0.7011    1.2952    0.7149 C   0  0  0  0  0  0  0  0  0  0  0  0
   -1.5917    1.9198    0.1415 O   0  0  0  0  0  0  0  0  0  0  0  0
    0.1191    1.8675    1.6055 N   0  0  0  0  0  0  0  0  0  0  0  0
    0.8092    1.2861    2.0537 H   0  0  0  0  0  0  0  0  0  0  0  0
    0.0509    3.2769    1.9894 C   0  0  0  0  0  0  0  0  0  0  0  0
   -0.9494    3.5076    2.3640 H   0  0  0  0  0  0  0  0  0  0  0  0
    0.7844    3.4956    2.7668 H   0  0  0  0  0  0  0  0  0  0  0  0
    0.2468    3.9058    1.1193 H   0  0  0  0  0  0  0  0  0  0  0  0
  5  6  2  0  0  0  0
  5  7  1  0  0  0  0
  2  3  1  0  0  0  0
  2  4  1  0  0  0  0
  2  5  1  0  0  0  0
  1  2  1  0  0  0  0
 22 23  2  0  0  0  0
 22 24  1  0  0  0  0
 19 20  1  0  0  0  0
 19 21  1  0  0  0  0
 17 18  2  0  0  0  0
 17 19  1  0  0  0  0
 14 15  1  0  0  0  0
 14 16  1  0  0  0  0
 14 17  1  0  0  0  0
 11 12  1  0  0  0  0
 11 13  1  0  0  0  0
 11 14  1  0  0  0  0
  9 10  1  0  0  0  0
  9 11  1  0  0  0  0
  9 22  1  0  0  0  0
  7  8  1  0  0  0  0
  7  9  1  0  0  0  0
 26 27  1  0  0  0  0
 26 28  1  0  0  0  0
 26 29  1  0  0  0  0
 24 25  1  0  0  0  0
 24 26  1  0  0  0  0
M  END
$$$$
default_name
  -OEChem-02102213163D

 29 28  0     1  0  0  0  0  0999 V2000
   -3.3998   -3.6239    1.3678 H   0  0  0  0  0  0  0  0  0  0  0  0
   -3.3608   -2.6749    0.8348 C   0  0  0  0  0  0  0  0  0  0  0  0
   -4.0988   -1.9909    1.2498 H   0  0  0  0  0  0  0  0  0  0  0  0
   -3.5618   -2.8419   -0.2222 H   0  0  0  0  0  0  0  0  0  0  0  0
   -1.9818   -2.0809    0.9918 C   0  0  0  0  0  0  0  0  0  0  0  0
   -1.1288   -2.6669    1.6468 O   0  0  0  0  0  0  0  0  0  0  0  0
   -1.7648   -0.9089    0.3998 N   0  0  0  0  0  0  0  0  0  0  0  0
   -2.5238   -0.4719   -0.1032 H   0  0  0  0  0  0  0  0  0  0  0  0
   -0.4848   -0.1959    0.4138 C   0  0  1  0  0  0  0  0  0  0  0  0
    0.1386   -0.6144    1.2058 H   0  0  0  0  0  0  0  0  0  0  0  0
    0.2271   -0.4272   -0.9334 C   0  0  0  0  0  0  0  0  0  0  0  0
    0.1430   -1.4855   -1.1890 H   0  0  0  0  0  0  0  0  0  0  0  0
   -0.2784    0.1519   -1.7077 H   0  0  0  0  0  0  0  0  0  0  0  0
    1.7183   -0.0480   -0.9226 C   0  0  0  0  0  0  0  0  0  0  0  0
    1.9385    0.5503   -0.0387 H   0  0  0  0  0  0  0  0  0  0  0  0
    2.3147   -0.9594   -0.8835 H   0  0  0  0  0  0  0  0  0  0  0  0
    2.1441    0.7529   -2.1530 C   0  0  0  0  0  0  0  0  0  0  0  0
    1.3983    0.9987   -3.0824 O   0  0  0  0  0  0  0  0  0  0  0  0
    3.3774    1.2070   -2.2082 N   0  0  0  0  0  0  0  0  0  0  0  0
    3.6028    1.7272   -3.0383 H   0  0  0  0  0  0  0  0  0  0  0  0
    4.0304    1.0360   -1.4706 H   0  0  0  0  0  0  0  0  0  0  0  0
   -0.7011    1.2952    0.7149 C   0  0  0  0  0  0  0  0  0  0  0  0
   -1.5917    1.9198    0.1415 O   0  0  0  0  0  0  0  0  0  0  0  0
    0.1191    1.8675    1.6055 N   0  0  0  0  0  0  0  0  0  0  0  0
    0.8092    1.2861    2.0537 H   0  0  0  0  0  0  0  0  0  0  0  0
    0.0509    3.2769    1.9894 C   0  0  0  0  0  0  0  0  0  0  0  0
   -0.9494    3.5076    2.3640 H   0  0  0  0  0  0  0  0  0  0  0  0
    0.7844    3.4956    2.7668 H   0  0  0  0  0  0  0  0  0  0  0  0
    0.2468    3.9058    1.1193 H   0  0  0  0  0  0  0  0  0  0  0  0
  5  6  2  0  0  0  0
  5  7  1  0  0  0  0
  2  3  1  0  0  0  0
  2  4  1  0  0  0  0
  2  5  1  0  0  0  0
  1  2  1  0  0  0  0
 22 23  2  0  0  0  0
 22 24  1  0  0  0  0
 19 20  1  0  0  0  0
 19 21  1  0  0  0  0
 17 18  2  0  0  0  0
 17 19  1  0  0  0  0
 14 15  1  0  0  0  0
 14 16  1  0  0  0  0
 14 17  1  0  0  0  0
 11 12  1  0  0  0  0
 11 13  1  0  0  0  0
 11 14  1  0  0  0  0
  9 10  1  0  0  0  0
  9 11  1  0  0  0  0
  9 22  1  0  0  0  0
  7  8  1  0  0  0  0
  7  9  1  0  0  0  0
 26 27  1  0  0  0  0
 26 28  1  0  0  0  0
 26 29  1  0  0  0  0
 24 25  1  0  0  0  0
 24 26  1  0  0  0  0
M  END
$$$$
default_name
  -OEChem-02102213163D

 29 28  0     1  0  0  0  0  0999 V2000
   -3.3998   -3.6239    1.3678 H   0  0  0  0  0  0  0  0  0  0  0  0
   -3.3608   -2.6749    0.8348 C   0  0  0  0  0  0  0  0  0  0  0  0
   -4.0988   -1.9909    1.2498 H   0  0  0  0  0  0  0  0  0  0  0  0
   -3.5618   -2.8419   -0.2222 H   0  0  0  0  0  0  0  0  0  0  0  0
   -1.9818   -2.0809    0.9918 C   0  0  0  0  0  0  0  0  0  0  0  0
   -1.1288   -2.6669    1.6468 O   0  0  0  0  0  0  0  0  0  0  0  0
   -1.7648   -0.9089    0.3998 N   0  0  0  0  0  0  0  0  0  0  0  0
   -2.5238   -0.4719   -0.1032 H   0  0  0  0  0  0  0  0  0  0  0  0
   -0.4848   -0.1959    0.4138 C   0  0  1  0  0  0  0  0  0  0  0  0
    0.1386   -0.6144    1.2058 H   0  0  0  0  0  0  0  0  0  0  0  0
    0.2271   -0.4272   -0.9334 C   0  0  0  0  0  0  0  0  0  0  0  0
    0.1430   -1.4855   -1.1890 H   0  0  0  0  0  0  0  0  0  0  0  0
   -0.2784    0.1519   -1.7077 H   0  0  0  0  0  0  0  0  0  0  0  0
    1.7183   -0.0480   -0.9226 C   0  0  0  0  0  0  0  0  0  0  0  0
    1.9984    0.3117    0.0673 H   0  0  0  0  0  0  0  0  0  0  0  0
    2.3103   -0.9341   -1.1514 H   0  0  0  0  0  0  0  0  0  0  0  0
    2.0695    1.0400   -1.9372 C   0  0  0  0  0  0  0  0  0  0  0  0
    1.2673    1.5037   -2.7258 O   0  0  0  0  0  0  0  0  0  0  0  0
    3.2996    1.5058   -1.9549 N   0  0  0  0  0  0  0  0  0  0  0  0
    3.4747    2.2197   -2.6406 H   0  0  0  0  0  0  0  0  0  0  0  0
    3.9974    1.1618   -1.3269 H   0  0  0  0  0  0  0  0  0  0  0  0
   -0.7011    1.2952    0.7149 C   0  0  0  0  0  0  0  0  0  0  0  0
   -1.5917    1.9198    0.1415 O   0  0  0  0  0  0  0  0  0  0  0  0
    0.1191    1.8675    1.6055 N   0  0  0  0  0  0  0  0  0  0  0  0
    0.8092    1.2861    2.0537 H   0  0  0  0  0  0  0  0  0  0  0  0
    0.0509    3.2769    1.9894 C   0  0  0  0  0  0  0  0  0  0  0  0
   -0.9494    3.5076    2.3640 H   0  0  0  0  0  0  0  0  0  0  0  0
    0.7844    3.4956    2.7668 H   0  0  0  0  0  0  0  0  0  0  0  0
    0.2468    3.9058    1.1193 H   0  0  0  0  0  0  0  0  0  0  0  0
  5  6  2  0  0  0  0
  5  7  1  0  0  0  0
  2  3  1  0  0  0  0
  2  4  1  0  0  0  0
  2  5  1  0  0  0  0
  1  2  1  0  0  0  0
 22 23  2  0  0  0  0
 22 24  1  0  0  0  0
 19 20  1  0  0  0  0
 19 21  1  0  0  0  0
 17 18  2  0  0  0  0
 17 19  1  0  0  0  0
 14 15  1  0  0  0  0
 14 16  1  0  0  0  0
 14 17  1  0  0  0  0
 11 12  1  0  0  0  0
 11 13  1  0  0  0  0
 11 14  1  0  0  0  0
  9 10  1  0  0  0  0
  9 11  1  0  0  0  0
  9 22  1  0  0  0  0
  7  8  1  0  0  0  0
  7  9  1  0  0  0  0
 26 27  1  0  0  0  0
 26 28  1  0  0  0  0
 26 29  1  0  0  0  0
 24 25  1  0  0  0  0
 24 26  1  0  0  0  0
M  END
$$$$
default_name
  -OEChem-02102213163D

 29 28  0     1  0  0  0  0  0999 V2000
   -3.3998   -3.6239    1.3678 H   0  0  0  0  0  0  0  0  0  0  0  0
   -3.3608   -2.6749    0.8348 C   0  0  0  0  0  0  0  0  0  0  0  0
   -4.0988   -1.9909    1.2498 H   0  0  0  0  0  0  0  0  0  0  0  0
   -3.5618   -2.8419   -0.2222 H   0  0  0  0  0  0  0  0  0  0  0  0
   -1.9818   -2.0809    0.9918 C   0  0  0  0  0  0  0  0  0  0  0  0
   -1.1288   -2.6669    1.6468 O   0  0  0  0  0  0  0  0  0  0  0  0
   -1.7648   -0.9089    0.3998 N   0  0  0  0  0  0  0  0  0  0  0  0
   -2.5238   -0.4719   -0.1032 H   0  0  0  0  0  0  0  0  0  0  0  0
   -0.4848   -0.1959    0.4138 C   0  0  1  0  0  0  0  0  0  0  0  0
    0.1386   -0.6144    1.2058 H   0  0  0  0  0  0  0  0  0  0  0  0
    0.2271   -0.4272   -0.9334 C   0  0  0  0  0  0  0  0  0  0  0  0
    0.1430   -1.4855   -1.1890 H   0  0  0  0  0  0  0  0  0  0  0  0
   -0.2784    0.1519   -1.7077 H   0  0  0  0  0  0  0  0  0  0  0  0
    1.7183   -0.0480   -0.9226 C   0  0  0  0  0  0  0  0  0  0  0  0
    2.0634    0.0548    0.1060 H   0  0  0  0  0  0  0  0  0  0  0  0
    2.2888   -0.8425   -1.4036 H   0  0  0  0  0  0  0  0  0  0  0  0
    2.0107    1.2631   -1.6519 C   0  0  0  0  0  0  0  0  0  0  0  0
    1.1626    1.9017   -2.2464 O   0  0  0  0  0  0  0  0  0  0  0  0
    3.2400    1.7307   -1.6304 N   0  0  0  0  0  0  0  0  0  0  0  0
    3.3754    2.5954   -2.1247 H   0  0  0  0  0  0  0  0  0  0  0  0
    3.9744    1.2472   -1.1544 H   0  0  0  0  0  0  0  0  0  0  0  0
   -0.7011    1.2952    0.7149 C   0  0  0  0  0  0  0  0  0  0  0  0
   -1.5917    1.9198    0.1415 O   0  0  0  0  0  0  0  0  0  0  0  0
    0.1191    1.8675    1.6055 N   0  0  0  0  0  0  0  0  0  0  0  0
    0.8092    1.2861    2.0537 H   0  0  0  0  0  0  0  0  0  0  0  0
    0.0509    3.2769    1.9894 C   0  0  0  0  0  0  0  0  0  0  0  0
   -0.9494    3.5076    2.3640 H   0  0  0  0  0  0  0  0  0  0  0  0
    0.7844    3.4956    2.7668 H   0  0  0  0  0  0  0  0  0  0  0  0
    0.2468    3.9058    1.1193 H   0  0  0  0  0  0  0  0  0  0  0  0
  5  6  2  0  0  0  0
  5  7  1  0  0  0  0
  2  3  1  0  0  0  0
  2  4  1  0  0  0  0
  2  5  1  0  0  0  0
  1  2  1  0  0  0  0
 22 23  2  0  0  0  0
 22 24  1  0  0  0  0
 19 20  1  0  0  0  0
 19 21  1  0  0  0  0
 17 18  2  0  0  0  0
 17 19  1  0  0  0  0
 14 15  1  0  0  0  0
 14 16  1  0  0  0  0
 14 17  1  0  0  0  0
 11 12  1  0  0  0  0
 11 13  1  0  0  0  0
 11 14  1  0  0  0  0
  9 10  1  0  0  0  0
  9 11  1  0  0  0  0
  9 22  1  0  0  0  0
  7  8  1  0  0  0  0
  7  9  1  0  0  0  0
 26 27  1  0  0  0  0
 26 28  1  0  0  0  0
 26 29  1  0  0  0  0
 24 25  1  0  0  0  0
 24 26  1  0  0  0  0
M  END
$$$$
default_name
  -OEChem-02102213163D

 29 28  0     1  0  0  0  0  0999 V2000
   -3.3998   -3.6239    1.3678 H   0  0  0  0  0  0  0  0  0  0  0  0
   -3.3608   -2.6749    0.8348 C   0  0  0  0  0  0  0  0  0  0  0  0
   -4.0988   -1.9909    1.2498 H   0  0  0  0  0  0  0  0  0  0  0  0
   -3.5618   -2.8419   -0.2222 H   0  0  0  0  0  0  0  0  0  0  0  0
   -1.9818   -2.0809    0.9918 C   0  0  0  0  0  0  0  0  0  0  0  0
   -1.1288   -2.6669    1.6468 O   0  0  0  0  0  0  0  0  0  0  0  0
   -1.7648   -0.9089    0.3998 N   0  0  0  0  0  0  0  0  0  0  0  0
   -2.5238   -0.4719   -0.1032 H   0  0  0  0  0  0  0  0  0  0  0  0
   -0.4848   -0.1959    0.4138 C   0  0  1  0  0  0  0  0  0  0  0  0
    0.1386   -0.6144    1.2058 H   0  0  0  0  0  0  0  0  0  0  0  0
    0.2271   -0.4272   -0.9334 C   0  0  0  0  0  0  0  0  0  0  0  0
    0.1430   -1.4855   -1.1890 H   0  0  0  0  0  0  0  0  0  0  0  0
   -0.2784    0.1519   -1.7077 H   0  0  0  0  0  0  0  0  0  0  0  0
    1.7183   -0.0480   -0.9226 C   0  0  0  0  0  0  0  0  0  0  0  0
    2.1292   -0.2030    0.0748 H   0  0  0  0  0  0  0  0  0  0  0  0
    2.2518   -0.6907   -1.6227 H   0  0  0  0  0  0  0  0  0  0  0  0
    1.9717    1.4070   -1.3167 C   0  0  0  0  0  0  0  0  0  0  0  0
    1.0913    2.1658   -1.6769 O   0  0  0  0  0  0  0  0  0  0  0  0
    3.2028    1.8664   -1.2567 N   0  0  0  0  0  0  0  0  0  0  0  0
    3.3117    2.8288   -1.5259 H   0  0  0  0  0  0  0  0  0  0  0  0
    3.9631    1.2863   -0.9649 H   0  0  0  0  0  0  0  0  0  0  0  0
   -0.7011    1.2952    0.7149 C   0  0  0  0  0  0  0  0  0  0  0  0
   -1.5917    1.9198    0.1415 O   0  0  0  0  0  0  0  0  0  0  0  0
    0.1191    1.8675    1.6055 N   0  0  0  0  0  0  0  0  0  0  0  0
    0.8092    1.2861    2.0537 H   0  0  0  0  0  0  0  0  0  0  0  0
    0.0509    3.2769    1.9894 C   0  0  0  0  0  0  0  0  0  0  0  0
   -0.9494    3.5076    2.3640 H   0  0  0  0  0  0  0  0  0  0  0  0
    0.7844    3.4956    2.7668 H   0  0  0  0  0  0  0  0  0  0  0  0
    0.2468    3.9058    1.1193 H   0  0  0  0  0  0  0  0  0  0  0  0
  5  6  2  0  0  0  0
  5  7  1  0  0  0  0
  2  3  1  0  0  0  0
  2  4  1  0  0  0  0
  2  5  1  0  0  0  0
  1  2  1  0  0  0  0
 22 23  2  0  0  0  0
 22 24  1  0  0  0  0
 19 20  1  0  0  0  0
 19 21  1  0  0  0  0
 17 18  2  0  0  0  0
 17 19  1  0  0  0  0
 14 15  1  0  0  0  0
 14 16  1  0  0  0  0
 14 17  1  0  0  0  0
 11 12  1  0  0  0  0
 11 13  1  0  0  0  0
 11 14  1  0  0  0  0
  9 10  1  0  0  0  0
  9 11  1  0  0  0  0
  9 22  1  0  0  0  0
  7  8  1  0  0  0  0
  7  9  1  0  0  0  0
 26 27  1  0  0  0  0
 26 28  1  0  0  0  0
 26 29  1  0  0  0  0
 24 25  1  0  0  0  0
 24 26  1  0  0  0  0
M  END
$$$$
default_name
  -OEChem-02102213163D

 29 28  0     1  0  0  0  0  0999 V2000
   -3.3998   -3.6239    1.3678 H   0  0  0  0  0  0  0  0  0  0  0  0
   -3.3608   -2.6749    0.8348 C   0  0  0  0  0  0  0  0  0  0  0  0
   -4.0988   -1.9909    1.2498 H   0  0  0  0  0  0  0  0  0  0  0  0
   -3.5618   -2.8419   -0.2222 H   0  0  0  0  0  0  0  0  0  0  0  0
   -1.9818   -2.0809    0.9918 C   0  0  0  0  0  0  0  0  0  0  0  0
   -1.1288   -2.6669    1.6468 O   0  0  0  0  0  0  0  0  0  0  0  0
   -1.7648   -0.9089    0.3998 N   0  0  0  0  0  0  0  0  0  0  0  0
   -2.5238   -0.4719   -0.1032 H   0  0  0  0  0  0  0  0  0  0  0  0
   -0.4848   -0.1959    0.4138 C   0  0  1  0  0  0  0  0  0  0  0  0
    0.1386   -0.6144    1.2058 H   0  0  0  0  0  0  0  0  0  0  0  0
    0.2271   -0.4272   -0.9334 C   0  0  0  0  0  0  0  0  0  0  0  0
    0.1430   -1.4855   -1.1890 H   0  0  0  0  0  0  0  0  0  0  0  0
   -0.2784    0.1519   -1.7077 H   0  0  0  0  0  0  0  0  0  0  0  0
    1.7183   -0.0480   -0.9226 C   0  0  0  0  0  0  0  0  0  0  0  0
    2.1912   -0.4441   -0.0242 H   0  0  0  0  0  0  0  0  0  0  0  0
    2.2018   -0.4893   -1.7940 H   0  0  0  0  0  0  0  0  0  0  0  0
    1.9551    1.4618   -0.9543 C   0  0  0  0  0  0  0  0  0  0  0  0
    1.0583    2.2778   -1.0559 O   0  0  0  0  0  0  0  0  0  0  0  0
    3.1904    1.9037   -0.8594 N   0  0  0  0  0  0  0  0  0  0  0  0
    3.2879    2.9039   -0.8848 H   0  0  0  0  0  0  0  0  0  0  0  0
    3.9642    1.2766   -0.7714 H   0  0  0  0  0  0  0  0  0  0  0  0
   -0.7011    1.2952    0.7149 C   0  0  0  0  0  0  0  0  0  0  0  0
   -1.5917    1.9198    0.1415 O   0  0  0  0  0  0  0  0  0  0  0  0
    0.1191    1.8675    1.6055 N   0  0  0  0  0  0  0  0  0  0  0  0
    0.8092    1.2861    2.0537 H   0  0  0  0  0  0  0  0  0  0  0  0
    0.0509    3.2769    1.9894 C   0  0  0  0  0  0  0  0  0  0  0  0
   -0.9494    3.5076    2.3640 H   0  0  0  0  0  0  0  0  0  0  0  0
    0.7844    3.4956    2.7668 H   0  0  0  0  0  0  0  0  0  0  0  0
    0.2468    3.9058    1.1193 H   0  0  0  0  0  0  0  0  0  0  0  0
  5  6  2  0  0  0  0
  5  7  1  0  0  0  0
  2  3  1  0  0  0  0
  2  4  1  0  0  0  0
  2  5  1  0  0  0  0
  1  2  1  0  0  0  0
 22 23  2  0  0  0  0
 22 24  1  0  0  0  0
 19 20  1  0  0  0  0
 19 21  1  0  0  0  0
 17 18  2  0  0  0  0
 17 19  1  0  0  0  0
 14 15  1  0  0  0  0
 14 16  1  0  0  0  0
 14 17  1  0  0  0  0
 11 12  1  0  0  0  0
 11 13  1  0  0  0  0
 11 14  1  0  0  0  0
  9 10  1  0  0  0  0
  9 11  1  0  0  0  0
  9 22  1  0  0  0  0
  7  8  1  0  0  0  0
  7  9  1  0  0  0  0
 26 27  1  0  0  0  0
 26 28  1  0  0  0  0
 26 29  1  0  0  0  0
 24 25  1  0  0  0  0
 24 26  1  0  0  0  0
M  END
$$$$
default_name
  -OEChem-02102213163D

 29 28  0     1  0  0  0  0  0999 V2000
   -3.3998   -3.6239    1.3678 H   0  0  0  0  0  0  0  0  0  0  0  0
   -3.3608   -2.6749    0.8348 C   0  0  0  0  0  0  0  0  0  0  0  0
   -4.0988   -1.9909    1.2498 H   0  0  0  0  0  0  0  0  0  0  0  0
   -3.5618   -2.8419   -0.2222 H   0  0  0  0  0  0  0  0  0  0  0  0
   -1.9818   -2.0809    0.9918 C   0  0  0  0  0  0  0  0  0  0  0  0
   -1.1288   -2.6669    1.6468 O   0  0  0  0  0  0  0  0  0  0  0  0
   -1.7648   -0.9089    0.3998 N   0  0  0  0  0  0  0  0  0  0  0  0
   -2.5238   -0.4719   -0.1032 H   0  0  0  0  0  0  0  0  0  0  0  0
   -0.4848   -0.1959    0.4138 C   0  0  1  0  0  0  0  0  0  0  0  0
    0.1386   -0.6144    1.2058 H   0  0  0  0  0  0  0  0  0  0  0  0
    0.2271   -0.4272   -0.9334 C   0  0  0  0  0  0  0  0  0  0  0  0
    0.1430   -1.4855   -1.1890 H   0  0  0  0  0  0  0  0  0  0  0  0
   -0.2784    0.1519   -1.7077 H   0  0  0  0  0  0  0  0  0  0  0  0
    1.7183   -0.0480   -0.9226 C   0  0  0  0  0  0  0  0  0  0  0  0
    2.2452   -0.6520   -0.1842 H   0  0  0  0  0  0  0  0  0  0  0  0
    2.1422   -0.2518   -1.9058 H   0  0  0  0  0  0  0  0  0  0  0  0
    1.9621    1.4238   -0.5895 C   0  0  0  0  0  0  0  0  0  0  0  0
    1.0658    2.2303   -0.4259 O   0  0  0  0  0  0  0  0  0  0  0  0
    3.2037    1.8401   -0.4654 N   0  0  0  0  0  0  0  0  0  0  0  0
    3.3057    2.8156   -0.2452 H   0  0  0  0  0  0  0  0  0  0  0  0
    3.9775    1.2187   -0.5869 H   0  0  0  0  0  0  0  0  0  0  0  0
   -0.7011    1.2952    0.7149 C   0  0  0  0  0  0  0  0  0  0  0  0
   -1.5917    1.9198    0.1415 O   0  0  0  0  0  0  0  0  0  0  0  0
    0.1191    1.8675    1.6055 N   0  0  0  0  0  0  0  0  0  0  0  0
    0.8092    1.2861    2.0537 H   0  0  0  0  0  0  0  0  0  0  0  0
    0.0509    3.2769    1.9894 C   0  0  0  0  0  0  0  0  0  0  0  0
   -0.9494    3.5076    2.3640 H   0  0  0  0  0  0  0  0  0  0  0  0
    0.7844    3.4956    2.7668 H   0  0  0  0  0  0  0  0  0  0  0  0
    0.2468    3.9058    1.1193 H   0  0  0  0  0  0  0  0  0  0  0  0
  5  6  2  0  0  0  0
  5  7  1  0  0  0  0
  2  3  1  0  0  0  0
  2  4  1  0  0  0  0
  2  5  1  0  0  0  0
  1  2  1  0  0  0  0
 22 23  2  0  0  0  0
 22 24  1  0  0  0  0
 19 20  1  0  0  0  0
 19 21  1  0  0  0  0
 17 18  2  0  0  0  0
 17 19  1  0  0  0  0
 14 15  1  0  0  0  0
 14 16  1  0  0  0  0
 14 17  1  0  0  0  0
 11 12  1  0  0  0  0
 11 13  1  0  0  0  0
 11 14  1  0  0  0  0
  9 10  1  0  0  0  0
  9 11  1  0  0  0  0
  9 22  1  0  0  0  0
  7  8  1  0  0  0  0
  7  9  1  0  0  0  0
 26 27  1  0  0  0  0
 26 28  1  0  0  0  0
 26 29  1  0  0  0  0
 24 25  1  0  0  0  0
 24 26  1  0  0  0  0
M  END
$$$$
default_name
  -OEChem-02102213163D

 29 28  0     1  0  0  0  0  0999 V2000
   -3.3998   -3.6239    1.3678 H   0  0  0  0  0  0  0  0  0  0  0  0
   -3.3608   -2.6749    0.8348 C   0  0  0  0  0  0  0  0  0  0  0  0
   -4.0988   -1.9909    1.2498 H   0  0  0  0  0  0  0  0  0  0  0  0
   -3.5618   -2.8419   -0.2222 H   0  0  0  0  0  0  0  0  0  0  0  0
   -1.9818   -2.0809    0.9918 C   0  0  0  0  0  0  0  0  0  0  0  0
   -1.1288   -2.6669    1.6468 O   0  0  0  0  0  0  0  0  0  0  0  0
   -1.7648   -0.9089    0.3998 N   0  0  0  0  0  0  0  0  0  0  0  0
   -2.5238   -0.4719   -0.1032 H   0  0  0  0  0  0  0  0  0  0  0  0
   -0.4848   -0.1959    0.4138 C   0  0  1  0  0  0  0  0  0  0  0  0
    0.1386   -0.6144    1.2058 H   0  0  0  0  0  0  0  0  0  0  0  0
    0.2271   -0.4272   -0.9334 C   0  0  0  0  0  0  0  0  0  0  0  0
    0.1430   -1.4855   -1.1890 H   0  0  0  0  0  0  0  0  0  0  0  0
   -0.2784    0.1519   -1.7077 H   0  0  0  0  0  0  0  0  0  0  0  0
    1.7183   -0.0480   -0.9226 C   0  0  0  0  0  0  0  0  0  0  0  0
    2.2876   -0.8125   -0.3944 H   0  0  0  0  0  0  0  0  0  0  0  0
    2.0771    0.0055   -1.9504 H   0  0  0  0  0  0  0  0  0  0  0  0
    1.9922    1.2956   -0.2471 C   0  0  0  0  0  0  0  0  0  0  0  0
    1.1133    2.0263    0.1703 O   0  0  0  0  0  0  0  0  0  0  0  0
    3.2418    1.6798   -0.1017 N   0  0  0  0  0  0  0  0  0  0  0  0
    3.3639    2.5699    0.3492 H   0  0  0  0  0  0  0  0  0  0  0  0
    4.0024    1.1165   -0.4241 H   0  0  0  0  0  0  0  0  0  0  0  0
   -0.7011    1.2952    0.7149 C   0  0  0  0  0  0  0  0  0  0  0  0
   -1.5917    1.9198    0.1415 O   0  0  0  0  0  0  0  0  0  0  0  0
    0.1191    1.8675    1.6055 N   0  0  0  0  0  0  0  0  0  0  0  0
    0.8092    1.2861    2.0537 H   0  0  0  0  0  0  0  0  0  0  0  0
    0.0509    3.2769    1.9894 C   0  0  0  0  0  0  0  0  0  0  0  0
   -0.9494    3.5076    2.3640 H   0  0  0  0  0  0  0  0  0  0  0  0
    0.7844    3.4956    2.7668 H   0  0  0  0  0  0  0  0  0  0  0  0
    0.2468    3.9058    1.1193 H   0  0  0  0  0  0  0  0  0  0  0  0
  5  6  2  0  0  0  0
  5  7  1  0  0  0  0
  2  3  1  0  0  0  0
  2  4  1  0  0  0  0
  2  5  1  0  0  0  0
  1  2  1  0  0  0  0
 22 23  2  0  0  0  0
 22 24  1  0  0  0  0
 19 20  1  0  0  0  0
 19 21  1  0  0  0  0
 17 18  2  0  0  0  0
 17 19  1  0  0  0  0
 14 15  1  0  0  0  0
 14 16  1  0  0  0  0
 14 17  1  0  0  0  0
 11 12  1  0  0  0  0
 11 13  1  0  0  0  0
 11 14  1  0  0  0  0
  9 10  1  0  0  0  0
  9 11  1  0  0  0  0
  9 22  1  0  0  0  0
  7  8  1  0  0  0  0
  7  9  1  0  0  0  0
 26 27  1  0  0  0  0
 26 28  1  0  0  0  0
 26 29  1  0  0  0  0
 24 25  1  0  0  0  0
 24 26  1  0  0  0  0
M  END
$$$$
default_name
  -OEChem-02102213163D

 29 28  0     1  0  0  0  0  0999 V2000
   -3.3998   -3.6239    1.3678 H   0  0  0  0  0  0  0  0  0  0  0  0
   -3.3608   -2.6749    0.8348 C   0  0  0  0  0  0  0  0  0  0  0  0
   -4.0988   -1.9909    1.2498 H   0  0  0  0  0  0  0  0  0  0  0  0
   -3.5618   -2.8419   -0.2222 H   0  0  0  0  0  0  0  0  0  0  0  0
   -1.9818   -2.0809    0.9918 C   0  0  0  0  0  0  0  0  0  0  0  0
   -1.1288   -2.6669    1.6468 O   0  0  0  0  0  0  0  0  0  0  0  0
   -1.7648   -0.9089    0.3998 N   0  0  0  0  0  0  0  0  0  0  0  0
   -2.5238   -0.4719   -0.1032 H   0  0  0  0  0  0  0  0  0  0  0  0
   -0.4848   -0.1959    0.4138 C   0  0  1  0  0  0  0  0  0  0  0  0
    0.1386   -0.6144    1.2058 H   0  0  0  0  0  0  0  0  0  0  0  0
    0.2271   -0.4272   -0.9334 C   0  0  0  0  0  0  0  0  0  0  0  0
    0.1430   -1.4855   -1.1890 H   0  0  0  0  0  0  0  0  0  0  0  0
   -0.2784    0.1519   -1.7077 H   0  0  0  0  0  0  0  0  0  0  0  0
    1.7183   -0.0480   -0.9226 C   0  0  0  0  0  0  0  0  0  0  0  0
    2.3154   -0.9149   -0.6404 H   0  0  0  0  0  0  0  0  0  0  0  0
    2.0109    0.2651   -1.9247 H   0  0  0  0  0  0  0  0  0  0  0  0
    2.0434    1.0859    0.0496 C   0  0  0  0  0  0  0  0  0  0  0  0
    1.1976    1.6798    0.6919 O   0  0  0  0  0  0  0  0  0  0  0  0
    3.3021    1.4338    0.2070 N   0  0  0  0  0  0  0  0  0  0  0  0
    3.4584    2.1836    0.8581 H   0  0  0  0  0  0  0  0  0  0  0  0
    4.0369    0.9770   -0.2941 H   0  0  0  0  0  0  0  0  0  0  0  0
   -0.7011    1.2952    0.7149 C   0  0  0  0  0  0  0  0  0  0  0  0
   -1.5917    1.9198    0.1415 O   0  0  0  0  0  0  0  0  0  0  0  0
    0.1191    1.8675    1.6055 N   0  0  0  0  0  0  0  0  0  0  0  0
    0.8092    1.2861    2.0537 H   0  0  0  0  0  0  0  0  0  0  0  0
    0.0509    3.2769    1.9894 C   0  0  0  0  0  0  0  0  0  0  0  0
   -0.9494    3.5076    2.3640 H   0  0  0  0  0  0  0  0  0  0  0  0
    0.7844    3.4956    2.7668 H   0  0  0  0  0  0  0  0  0  0  0  0
    0.2468    3.9058    1.1193 H   0  0  0  0  0  0  0  0  0  0  0  0
  5  6  2  0  0  0  0
  5  7  1  0  0  0  0
  2  3  1  0  0  0  0
  2  4  1  0  0  0  0
  2  5  1  0  0  0  0
  1  2  1  0  0  0  0
 22 23  2  0  0  0  0
 22 24  1  0  0  0  0
 19 20  1  0  0  0  0
 19 21  1  0  0  0  0
 17 18  2  0  0  0  0
 17 19  1  0  0  0  0
 14 15  1  0  0  0  0
 14 16  1  0  0  0  0
 14 17  1  0  0  0  0
 11 12  1  0  0  0  0
 11 13  1  0  0  0  0
 11 14  1  0  0  0  0
  9 10  1  0  0  0  0
  9 11  1  0  0  0  0
  9 22  1  0  0  0  0
  7  8  1  0  0  0  0
  7  9  1  0  0  0  0
 26 27  1  0  0  0  0
 26 28  1  0  0  0  0
 26 29  1  0  0  0  0
 24 25  1  0  0  0  0
 24 26  1  0  0  0  0
M  END
$$$$
default_name
  -OEChem-02102213163D

 29 28  0     1  0  0  0  0  0999 V2000
   -3.3998   -3.6239    1.3678 H   0  0  0  0  0  0  0  0  0  0  0  0
   -3.3608   -2.6749    0.8348 C   0  0  0  0  0  0  0  0  0  0  0  0
   -4.0988   -1.9909    1.2498 H   0  0  0  0  0  0  0  0  0  0  0  0
   -3.5618   -2.8419   -0.2222 H   0  0  0  0  0  0  0  0  0  0  0  0
   -1.9818   -2.0809    0.9918 C   0  0  0  0  0  0  0  0  0  0  0  0
   -1.1288   -2.6669    1.6468 O   0  0  0  0  0  0  0  0  0  0  0  0
   -1.7648   -0.9089    0.3998 N   0  0  0  0  0  0  0  0  0  0  0  0
   -2.5238   -0.4719   -0.1032 H   0  0  0  0  0  0  0  0  0  0  0  0
   -0.4848   -0.1959    0.4138 C   0  0  1  0  0  0  0  0  0  0  0  0
    0.1386   -0.6144    1.2058 H   0  0  0  0  0  0  0  0  0  0  0  0
    0.2271   -0.4272   -0.9334 C   0  0  0  0  0  0  0  0  0  0  0  0
    0.1430   -1.4855   -1.1890 H   0  0  0  0  0  0  0  0  0  0  0  0
   -0.2784    0.1519   -1.7077 H   0  0  0  0  0  0  0  0  0  0  0  0
    1.7183   -0.0480   -0.9226 C   0  0  0  0  0  0  0  0  0  0  0  0
    2.3268   -0.9519   -0.9054 H   0  0  0  0  0  0  0  0  0  0  0  0
    1.9482    0.5093   -1.8306 H   0  0  0  0  0  0  0  0  0  0  0  0
    2.1121    0.8091    0.2803 C   0  0  0  0  0  0  0  0  0  0  0  0
    1.3130    1.2145    1.1034 O   0  0  0  0  0  0  0  0  0  0  0  0
    3.3805    1.1189    0.4396 N   0  0  0  0  0  0  0  0  0  0  0  0
    3.5829    1.6829    1.2468 H   0  0  0  0  0  0  0  0  0  0  0  0
    4.0788    0.8097   -0.2057 H   0  0  0  0  0  0  0  0  0  0  0  0
   -0.7011    1.2952    0.7149 C   0  0  0  0  0  0  0  0  0  0  0  0
   -1.5917    1.9198    0.1415 O   0  0  0  0  0  0  0  0  0  0  0  0
    0.1191    1.8675    1.6055 N   0  0  0  0  0  0  0  0  0  0  0  0
    0.8092    1.2861    2.0537 H   0  0  0  0  0  0  0  0  0  0  0  0
    0.0509    3.2769    1.9894 C   0  0  0  0  0  0  0  0  0  0  0  0
   -0.9494    3.5076    2.3640 H   0  0  0  0  0  0  0  0  0  0  0  0
    0.7844    3.4956    2.7668 H   0  0  0  0  0  0  0  0  0  0  0  0
    0.2468    3.9058    1.1193 H   0  0  0  0  0  0  0  0  0  0  0  0
  5  6  2  0  0  0  0
  5  7  1  0  0  0  0
  2  3  1  0  0  0  0
  2  4  1  0  0  0  0
  2  5  1  0  0  0  0
  1  2  1  0  0  0  0
 22 23  2  0  0  0  0
 22 24  1  0  0  0  0
 19 20  1  0  0  0  0
 19 21  1  0  0  0  0
 17 18  2  0  0  0  0
 17 19  1  0  0  0  0
 14 15  1  0  0  0  0
 14 16  1  0  0  0  0
 14 17  1  0  0  0  0
 11 12  1  0  0  0  0
 11 13  1  0  0  0  0
 11 14  1  0  0  0  0
  9 10  1  0  0  0  0
  9 11  1  0  0  0  0
  9 22  1  0  0  0  0
  7  8  1  0  0  0  0
  7  9  1  0  0  0  0
 26 27  1  0  0  0  0
 26 28  1  0  0  0  0
 26 29  1  0  0  0  0
 24 25  1  0  0  0  0
 24 26  1  0  0  0  0
M  END
$$$$
default_name
  -OEChem-02102213163D

 29 28  0     1  0  0  0  0  0999 V2000
   -3.3998   -3.6239    1.3678 H   0  0  0  0  0  0  0  0  0  0  0  0
   -3.3608   -2.6749    0.8348 C   0  0  0  0  0  0  0  0  0  0  0  0
   -4.0988   -1.9909    1.2498 H   0  0  0  0  0  0  0  0  0  0  0  0
   -3.5618   -2.8419   -0.2222 H   0  0  0  0  0  0  0  0  0  0  0  0
   -1.9818   -2.0809    0.9918 C   0  0  0  0  0  0  0  0  0  0  0  0
   -1.1288   -2.6669    1.6468 O   0  0  0  0  0  0  0  0  0  0  0  0
   -1.7648   -0.9089    0.3998 N   0  0  0  0  0  0  0  0  0  0  0  0
   -2.5238   -0.4719   -0.1032 H   0  0  0  0  0  0  0  0  0  0  0  0
   -0.4848   -0.1959    0.4138 C   0  0  1  0  0  0  0  0  0  0  0  0
    0.1386   -0.6144    1.2058 H   0  0  0  0  0  0  0  0  0  0  0  0
    0.2271   -0.4272   -0.9334 C   0  0  0  0  0  0  0  0  0  0  0  0
    0.1430   -1.4855   -1.1890 H   0  0  0  0  0  0  0  0  0  0  0  0
   -0.2784    0.1519   -1.7077 H   0  0  0  0  0  0  0  0  0  0  0  0
    1.7183   -0.0480   -0.9226 C   0  0  0  0  0  0  0  0  0  0  0  0
    2.3209   -0.9212   -1.1715 H   0  0  0  0  0  0  0  0  0  0  0  0
    1.8931    0.7215   -1.6745 H   0  0  0  0  0  0  0  0  0  0  0  0
    2.1937    0.4840    0.4293 C   0  0  0  0  0  0  0  0  0  0  0  0
    1.4515    0.6620    1.3769 O   0  0  0  0  0  0  0  0  0  0  0  0
    3.4716    0.7565    0.5804 N   0  0  0  0  0  0  0  0  0  0  0  0
    3.7288    1.1021    1.4886 H   0  0  0  0  0  0  0  0  0  0  0  0
    4.1252    0.6260   -0.1650 H   0  0  0  0  0  0  0  0  0  0  0  0
   -0.7011    1.2952    0.7149 C   0  0  0  0  0  0  0  0  0  0  0  0
   -1.5917    1.9198    0.1415 O   0  0  0  0  0  0  0  0  0  0  0  0
    0.1191    1.8675    1.6055 N   0  0  0  0  0  0  0  0  0  0  0  0
    0.8092    1.2861    2.0537 H   0  0  0  0  0  0  0  0  0  0  0  0
    0.0509    3.2769    1.9894 C   0  0  0  0  0  0  0  0  0  0  0  0
   -0.9494    3.5076    2.3640 H   0  0  0  0  0  0  0  0  0  0  0  0
    0.7844    3.4956    2.7668 H   0  0  0  0  0  0  0  0  0  0  0  0
    0.2468    3.9058    1.1193 H   0  0  0  0  0  0  0  0  0  0  0  0
  5  6  2  0  0  0  0
  5  7  1  0  0  0  0
  2  3  1  0  0  0  0
  2  4  1  0  0  0  0
  2  5  1  0  0  0  0
  1  2  1  0  0  0  0
 22 23  2  0  0  0  0
 22 24  1  0  0  0  0
 19 20  1  0  0  0  0
 19 21  1  0  0  0  0
 17 18  2  0  0  0  0
 17 19  1  0  0  0  0
 14 15  1  0  0  0  0
 14 16  1  0  0  0  0
 14 17  1  0  0  0  0
 11 12  1  0  0  0  0
 11 13  1  0  0  0  0
 11 14  1  0  0  0  0
  9 10  1  0  0  0  0
  9 11  1  0  0  0  0
  9 22  1  0  0  0  0
  7  8  1  0  0  0  0
  7  9  1  0  0  0  0
 26 27  1  0  0  0  0
 26 28  1  0  0  0  0
 26 29  1  0  0  0  0
 24 25  1  0  0  0  0
 24 26  1  0  0  0  0
M  END
$$$$
default_name
  -OEChem-02102213163D

 29 28  0     1  0  0  0  0  0999 V2000
   -3.3998   -3.6239    1.3678 H   0  0  0  0  0  0  0  0  0  0  0  0
   -3.3608   -2.6749    0.8348 C   0  0  0  0  0  0  0  0  0  0  0  0
   -4.0988   -1.9909    1.2498 H   0  0  0  0  0  0  0  0  0  0  0  0
   -3.5618   -2.8419   -0.2222 H   0  0  0  0  0  0  0  0  0  0  0  0
   -1.9818   -2.0809    0.9918 C   0  0  0  0  0  0  0  0  0  0  0  0
   -1.1288   -2.6669    1.6468 O   0  0  0  0  0  0  0  0  0  0  0  0
   -1.7648   -0.9089    0.3998 N   0  0  0  0  0  0  0  0  0  0  0  0
   -2.5238   -0.4719   -0.1032 H   0  0  0  0  0  0  0  0  0  0  0  0
   -0.4848   -0.1959    0.4138 C   0  0  1  0  0  0  0  0  0  0  0  0
    0.1386   -0.6144    1.2058 H   0  0  0  0  0  0  0  0  0  0  0  0
    0.2271   -0.4272   -0.9334 C   0  0  0  0  0  0  0  0  0  0  0  0
    0.1430   -1.4855   -1.1890 H   0  0  0  0  0  0  0  0  0  0  0  0
   -0.2784    0.1519   -1.7077 H   0  0  0  0  0  0  0  0  0  0  0  0
    1.7183   -0.0480   -0.9226 C   0  0  0  0  0  0  0  0  0  0  0  0
    2.2982   -0.8249   -1.4204 H   0  0  0  0  0  0  0  0  0  0  0  0
    1.8494    0.8871   -1.4669 H   0  0  0  0  0  0  0  0  0  0  0  0
    2.2826    0.1326    0.4865 C   0  0  0  0  0  0  0  0  0  0  0  0
    1.6037    0.0599    1.4936 O   0  0  0  0  0  0  0  0  0  0  0  0
    3.5693    0.3714    0.6196 N   0  0  0  0  0  0  0  0  0  0  0  0
    3.8863    0.4806    1.5672 H   0  0  0  0  0  0  0  0  0  0  0  0
    4.1730    0.4384   -0.1747 H   0  0  0  0  0  0  0  0  0  0  0  0
   -0.7011    1.2952    0.7149 C   0  0  0  0  0  0  0  0  0  0  0  0
   -1.5917    1.9198    0.1415 O   0  0  0  0  0  0  0  0  0  0  0  0
    0.1191    1.8675    1.6055 N   0  0  0  0  0  0  0  0  0  0  0  0
    0.8092    1.2861    2.0537 H   0  0  0  0  0  0  0  0  0  0  0  0
    0.0509    3.2769    1.9894 C   0  0  0  0  0  0  0  0  0  0  0  0
   -0.9494    3.5076    2.3640 H   0  0  0  0  0  0  0  0  0  0  0  0
    0.7844    3.4956    2.7668 H   0  0  0  0  0  0  0  0  0  0  0  0
    0.2468    3.9058    1.1193 H   0  0  0  0  0  0  0  0  0  0  0  0
  5  6  2  0  0  0  0
  5  7  1  0  0  0  0
  2  3  1  0  0  0  0
  2  4  1  0  0  0  0
  2  5  1  0  0  0  0
  1  2  1  0  0  0  0
 22 23  2  0  0  0  0
 22 24  1  0  0  0  0
 19 20  1  0  0  0  0
 19 21  1  0  0  0  0
 17 18  2  0  0  0  0
 17 19  1  0  0  0  0
 14 15  1  0  0  0  0
 14 16  1  0  0  0  0
 14 17  1  0  0  0  0
 11 12  1  0  0  0  0
 11 13  1  0  0  0  0
 11 14  1  0  0  0  0
  9 10  1  0  0  0  0
  9 11  1  0  0  0  0
  9 22  1  0  0  0  0
  7  8  1  0  0  0  0
  7  9  1  0  0  0  0
 26 27  1  0  0  0  0
 26 28  1  0  0  0  0
 26 29  1  0  0  0  0
 24 25  1  0  0  0  0
 24 26  1  0  0  0  0
M  END
$$$$
default_name
  -OEChem-02102213163D

 29 28  0     1  0  0  0  0  0999 V2000
   -3.3998   -3.6239    1.3678 H   0  0  0  0  0  0  0  0  0  0  0  0
   -3.3608   -2.6749    0.8348 C   0  0  0  0  0  0  0  0  0  0  0  0
   -4.0988   -1.9909    1.2498 H   0  0  0  0  0  0  0  0  0  0  0  0
   -3.5618   -2.8419   -0.2222 H   0  0  0  0  0  0  0  0  0  0  0  0
   -1.9818   -2.0809    0.9918 C   0  0  0  0  0  0  0  0  0  0  0  0
   -1.1288   -2.6669    1.6468 O   0  0  0  0  0  0  0  0  0  0  0  0
   -1.7648   -0.9089    0.3998 N   0  0  0  0  0  0  0  0  0  0  0  0
   -2.5238   -0.4719   -0.1032 H   0  0  0  0  0  0  0  0  0  0  0  0
   -0.4848   -0.1959    0.4138 C   0  0  1  0  0  0  0  0  0  0  0  0
    0.1386   -0.6144    1.2058 H   0  0  0  0  0  0  0  0  0  0  0  0
    0.2271   -0.4272   -0.9334 C   0  0  0  0  0  0  0  0  0  0  0  0
    0.1430   -1.4855   -1.1890 H   0  0  0  0  0  0  0  0  0  0  0  0
   -0.2784    0.1519   -1.7077 H   0  0  0  0  0  0  0  0  0  0  0  0
    1.7183   -0.0480   -0.9226 C   0  0  0  0  0  0  0  0  0  0  0  0
    2.2602   -0.6694   -1.6352 H   0  0  0  0  0  0  0  0  0  0  0  0
    1.8202    0.9950   -1.2221 H   0  0  0  0  0  0  0  0  0  0  0  0
    2.3728   -0.2209    0.4479 C   0  0  0  0  0  0  0  0  0  0  0  0
    1.7593   -0.5506    1.4457 O   0  0  0  0  0  0  0  0  0  0  0  0
    3.6668   -0.0103    0.5546 N   0  0  0  0  0  0  0  0  0  0  0  0
    4.0445   -0.1390    1.4773 H   0  0  0  0  0  0  0  0  0  0  0  0
    4.2188    0.2597   -0.2341 H   0  0  0  0  0  0  0  0  0  0  0  0
   -0.7011    1.2952    0.7149 C   0  0  0  0  0  0  0  0  0  0  0  0
   -1.5917    1.9198    0.1415 O   0  0  0  0  0  0  0  0  0  0  0  0
    0.1191    1.8675    1.6055 N   0  0  0  0  0  0  0  0  0  0  0  0
    0.8092    1.2861    2.0537 H   0  0  0  0  0  0  0  0  0  0  0  0
    0.0509    3.2769    1.9894 C   0  0  0  0  0  0  0  0  0  0  0  0
   -0.9494    3.5076    2.3640 H   0  0  0  0  0  0  0  0  0  0  0  0
    0.7844    3.4956    2.7668 H   0  0  0  0  0  0  0  0  0  0  0  0
    0.2468    3.9058    1.1193 H   0  0  0  0  0  0  0  0  0  0  0  0
  5  6  2  0  0  0  0
  5  7  1  0  0  0  0
  2  3  1  0  0  0  0
  2  4  1  0  0  0  0
  2  5  1  0  0  0  0
  1  2  1  0  0  0  0
 22 23  2  0  0  0  0
 22 24  1  0  0  0  0
 19 20  1  0  0  0  0
 19 21  1  0  0  0  0
 17 18  2  0  0  0  0
 17 19  1  0  0  0  0
 14 15  1  0  0  0  0
 14 16  1  0  0  0  0
 14 17  1  0  0  0  0
 11 12  1  0  0  0  0
 11 13  1  0  0  0  0
 11 14  1  0  0  0  0
  9 10  1  0  0  0  0
  9 11  1  0  0  0  0
  9 22  1  0  0  0  0
  7  8  1  0  0  0  0
  7  9  1  0  0  0  0
 26 27  1  0  0  0  0
 26 28  1  0  0  0  0
 26 29  1  0  0  0  0
 24 25  1  0  0  0  0
 24 26  1  0  0  0  0
M  END
$$$$
default_name
  -OEChem-02102213163D

 29 28  0     1  0  0  0  0  0999 V2000
   -3.3998   -3.6239    1.3678 H   0  0  0  0  0  0  0  0  0  0  0  0
   -3.3608   -2.6749    0.8348 C   0  0  0  0  0  0  0  0  0  0  0  0
   -4.0988   -1.9909    1.2498 H   0  0  0  0  0  0  0  0  0  0  0  0
   -3.5618   -2.8419   -0.2222 H   0  0  0  0  0  0  0  0  0  0  0  0
   -1.9818   -2.0809    0.9918 C   0  0  0  0  0  0  0  0  0  0  0  0
   -1.1288   -2.6669    1.6468 O   0  0  0  0  0  0  0  0  0  0  0  0
   -1.7648   -0.9089    0.3998 N   0  0  0  0  0  0  0  0  0  0  0  0
   -2.5238   -0.4719   -0.1032 H   0  0  0  0  0  0  0  0  0  0  0  0
   -0.4848   -0.1959    0.4138 C   0  0  1  0  0  0  0  0  0  0  0  0
    0.1386   -0.6144    1.2058 H   0  0  0  0  0  0  0  0  0  0  0  0
    0.2271   -0.4272   -0.9334 C   0  0  0  0  0  0  0  0  0  0  0  0
    0.1430   -1.4855   -1.1890 H   0  0  0  0  0  0  0  0  0  0  0  0
   -0.2784    0.1519   -1.7077 H   0  0  0  0  0  0  0  0  0  0  0  0
    1.7183   -0.0480   -0.9226 C   0  0  0  0  0  0  0  0  0  0  0  0
    2.2096   -0.4654   -1.8012 H   0  0  0  0  0  0  0  0  0  0  0  0
    1.8074    1.0378   -0.9567 H   0  0  0  0  0  0  0  0  0  0  0  0
    2.4581   -0.5525    0.3163 C   0  0  0  0  0  0  0  0  0  0  0  0
    1.9077   -1.1280    1.2363 O   0  0  0  0  0  0  0  0  0  0  0  0
    3.7576   -0.3626    0.3899 N   0  0  0  0  0  0  0  0  0  0  0  0
    4.1927   -0.7148    1.2248 H   0  0  0  0  0  0  0  0  0  0  0  0
    4.2597    0.1021   -0.3393 H   0  0  0  0  0  0  0  0  0  0  0  0
   -0.7011    1.2952    0.7149 C   0  0  0  0  0  0  0  0  0  0  0  0
   -1.5917    1.9198    0.1415 O   0  0  0  0  0  0  0  0  0  0  0  0
    0.1191    1.8675    1.6055 N   0  0  0  0  0  0  0  0  0  0  0  0
    0.8092    1.2861    2.0537 H   0  0  0  0  0  0  0  0  0  0  0  0
    0.0509    3.2769    1.9894 C   0  0  0  0  0  0  0  0  0  0  0  0
   -0.9494    3.5076    2.3640 H   0  0  0  0  0  0  0  0  0  0  0  0
    0.7844    3.4956    2.7668 H   0  0  0  0  0  0  0  0  0  0  0  0
    0.2468    3.9058    1.1193 H   0  0  0  0  0  0  0  0  0  0  0  0
  5  6  2  0  0  0  0
  5  7  1  0  0  0  0
  2  3  1  0  0  0  0
  2  4  1  0  0  0  0
  2  5  1  0  0  0  0
  1  2  1  0  0  0  0
 22 23  2  0  0  0  0
 22 24  1  0  0  0  0
 19 20  1  0  0  0  0
 19 21  1  0  0  0  0
 17 18  2  0  0  0  0
 17 19  1  0  0  0  0
 14 15  1  0  0  0  0
 14 16  1  0  0  0  0
 14 17  1  0  0  0  0
 11 12  1  0  0  0  0
 11 13  1  0  0  0  0
 11 14  1  0  0  0  0
  9 10  1  0  0  0  0
  9 11  1  0  0  0  0
  9 22  1  0  0  0  0
  7  8  1  0  0  0  0
  7  9  1  0  0  0  0
 26 27  1  0  0  0  0
 26 28  1  0  0  0  0
 26 29  1  0  0  0  0
 24 25  1  0  0  0  0
 24 26  1  0  0  0  0
M  END
$$$$
default_name
  -OEChem-02102213163D

 29 28  0     1  0  0  0  0  0999 V2000
   -3.3998   -3.6239    1.3678 H   0  0  0  0  0  0  0  0  0  0  0  0
   -3.3608   -2.6749    0.8348 C   0  0  0  0  0  0  0  0  0  0  0  0
   -4.0988   -1.9909    1.2498 H   0  0  0  0  0  0  0  0  0  0  0  0
   -3.5618   -2.8419   -0.2222 H   0  0  0  0  0  0  0  0  0  0  0  0
   -1.9818   -2.0809    0.9918 C   0  0  0  0  0  0  0  0  0  0  0  0
   -1.1288   -2.6669    1.6468 O   0  0  0  0  0  0  0  0  0  0  0  0
   -1.7648   -0.9089    0.3998 N   0  0  0  0  0  0  0  0  0  0  0  0
   -2.5238   -0.4719   -0.1032 H   0  0  0  0  0  0  0  0  0  0  0  0
   -0.4848   -0.1959    0.4138 C   0  0  1  0  0  0  0  0  0  0  0  0
    0.1386   -0.6144    1.2058 H   0  0  0  0  0  0  0  0  0  0  0  0
    0.2271   -0.4272   -0.9334 C   0  0  0  0  0  0  0  0  0  0  0  0
    0.1430   -1.4855   -1.1890 H   0  0  0  0  0  0  0  0  0  0  0  0
   -0.2784    0.1519   -1.7077 H   0  0  0  0  0  0  0  0  0  0  0  0
    1.7183   -0.0480   -0.9226 C   0  0  0  0  0  0  0  0  0  0  0  0
    2.1497   -0.2268   -1.9072 H   0  0  0  0  0  0  0  0  0  0  0  0
    1.8119    1.0124   -0.6887 H   0  0  0  0  0  0  0  0  0  0  0  0
    2.5327   -0.8397    0.1005 C   0  0  0  0  0  0  0  0  0  0  0  0
    2.0386   -1.6329    0.8798 O   0  0  0  0  0  0  0  0  0  0  0  0
    3.8354   -0.6613    0.1367 N   0  0  0  0  0  0  0  0  0  0  0  0
    4.3209   -1.2073    0.8271 H   0  0  0  0  0  0  0  0  0  0  0  0
    4.2927   -0.0236   -0.4830 H   0  0  0  0  0  0  0  0  0  0  0  0
   -0.7011    1.2952    0.7149 C   0  0  0  0  0  0  0  0  0  0  0  0
   -1.5917    1.9198    0.1415 O   0  0  0  0  0  0  0  0  0  0  0  0
    0.1191    1.8675    1.6055 N   0  0  0  0  0  0  0  0  0  0  0  0
    0.8092    1.2861    2.0537 H   0  0  0  0  0  0  0  0  0  0  0  0
    0.0509    3.2769    1.9894 C   0  0  0  0  0  0  0  0  0  0  0  0
   -0.9494    3.5076    2.3640 H   0  0  0  0  0  0  0  0  0  0  0  0
    0.7844    3.4956    2.7668 H   0  0  0  0  0  0  0  0  0  0  0  0
    0.2468    3.9058    1.1193 H   0  0  0  0  0  0  0  0  0  0  0  0
  5  6  2  0  0  0  0
  5  7  1  0  0  0  0
  2  3  1  0  0  0  0
  2  4  1  0  0  0  0
  2  5  1  0  0  0  0
  1  2  1  0  0  0  0
 22 23  2  0  0  0  0
 22 24  1  0  0  0  0
 19 20  1  0  0  0  0
 19 21  1  0  0  0  0
 17 18  2  0  0  0  0
 17 19  1  0  0  0  0
 14 15  1  0  0  0  0
 14 16  1  0  0  0  0
 14 17  1  0  0  0  0
 11 12  1  0  0  0  0
 11 13  1  0  0  0  0
 11 14  1  0  0  0  0
  9 10  1  0  0  0  0
  9 11  1  0  0  0  0
  9 22  1  0  0  0  0
  7  8  1  0  0  0  0
  7  9  1  0  0  0  0
 26 27  1  0  0  0  0
 26 28  1  0  0  0  0
 26 29  1  0  0  0  0
 24 25  1  0  0  0  0
 24 26  1  0  0  0  0
M  END
$$$$
default_name
  -OEChem-02102213163D

 29 28  0     1  0  0  0  0  0999 V2000
   -3.3998   -3.6239    1.3678 H   0  0  0  0  0  0  0  0  0  0  0  0
   -3.3608   -2.6749    0.8348 C   0  0  0  0  0  0  0  0  0  0  0  0
   -4.0988   -1.9909    1.2498 H   0  0  0  0  0  0  0  0  0  0  0  0
   -3.5618   -2.8419   -0.2222 H   0  0  0  0  0  0  0  0  0  0  0  0
   -1.9818   -2.0809    0.9918 C   0  0  0  0  0  0  0  0  0  0  0  0
   -1.1288   -2.6669    1.6468 O   0  0  0  0  0  0  0  0  0  0  0  0
   -1.7648   -0.9089    0.3998 N   0  0  0  0  0  0  0  0  0  0  0  0
   -2.5238   -0.4719   -0.1032 H   0  0  0  0  0  0  0  0  0  0  0  0
   -0.4848   -0.1959    0.4138 C   0  0  1  0  0  0  0  0  0  0  0  0
    0.1386   -0.6144    1.2058 H   0  0  0  0  0  0  0  0  0  0  0  0
    0.2271   -0.4272   -0.9334 C   0  0  0  0  0  0  0  0  0  0  0  0
    0.1430   -1.4855   -1.1890 H   0  0  0  0  0  0  0  0  0  0  0  0
   -0.2784    0.1519   -1.7077 H   0  0  0  0  0  0  0  0  0  0  0  0
    1.7183   -0.0480   -0.9226 C   0  0  0  0  0  0  0  0  0  0  0  0
    2.0846    0.0301   -1.9460 H   0  0  0  0  0  0  0  0  0  0  0  0
    1.8334    0.9208   -0.4366 H   0  0  0  0  0  0  0  0  0  0  0  0
    2.5915   -1.0628   -0.1847 C   0  0  0  0  0  0  0  0  0  0  0  0
    2.1434   -2.0310    0.4003 O   0  0  0  0  0  0  0  0  0  0  0  0
    3.8950   -0.8862   -0.1878 N   0  0  0  0  0  0  0  0  0  0  0  0
    4.4202   -1.5830    0.3113 H   0  0  0  0  0  0  0  0  0  0  0  0
    4.3157   -0.1090   -0.6554 H   0  0  0  0  0  0  0  0  0  0  0  0
   -0.7011    1.2952    0.7149 C   0  0  0  0  0  0  0  0  0  0  0  0
   -1.5917    1.9198    0.1415 O   0  0  0  0  0  0  0  0  0  0  0  0
    0.1191    1.8675    1.6055 N   0  0  0  0  0  0  0  0  0  0  0  0
    0.8092    1.2861    2.0537 H   0  0  0  0  0  0  0  0  0  0  0  0
    0.0509    3.2769    1.9894 C   0  0  0  0  0  0  0  0  0  0  0  0
   -0.9494    3.5076    2.3640 H   0  0  0  0  0  0  0  0  0  0  0  0
    0.7844    3.4956    2.7668 H   0  0  0  0  0  0  0  0  0  0  0  0
    0.2468    3.9058    1.1193 H   0  0  0  0  0  0  0  0  0  0  0  0
  5  6  2  0  0  0  0
  5  7  1  0  0  0  0
  2  3  1  0  0  0  0
  2  4  1  0  0  0  0
  2  5  1  0  0  0  0
  1  2  1  0  0  0  0
 22 23  2  0  0  0  0
 22 24  1  0  0  0  0
 19 20  1  0  0  0  0
 19 21  1  0  0  0  0
 17 18  2  0  0  0  0
 17 19  1  0  0  0  0
 14 15  1  0  0  0  0
 14 16  1  0  0  0  0
 14 17  1  0  0  0  0
 11 12  1  0  0  0  0
 11 13  1  0  0  0  0
 11 14  1  0  0  0  0
  9 10  1  0  0  0  0
  9 11  1  0  0  0  0
  9 22  1  0  0  0  0
  7  8  1  0  0  0  0
  7  9  1  0  0  0  0
 26 27  1  0  0  0  0
 26 28  1  0  0  0  0
 26 29  1  0  0  0  0
 24 25  1  0  0  0  0
 24 26  1  0  0  0  0
M  END
$$$$
default_name
  -OEChem-02102213163D

 29 28  0     1  0  0  0  0  0999 V2000
   -3.3998   -3.6239    1.3678 H   0  0  0  0  0  0  0  0  0  0  0  0
   -3.3608   -2.6749    0.8348 C   0  0  0  0  0  0  0  0  0  0  0  0
   -4.0988   -1.9909    1.2498 H   0  0  0  0  0  0  0  0  0  0  0  0
   -3.5618   -2.8419   -0.2222 H   0  0  0  0  0  0  0  0  0  0  0  0
   -1.9818   -2.0809    0.9918 C   0  0  0  0  0  0  0  0  0  0  0  0
   -1.1288   -2.6669    1.6468 O   0  0  0  0  0  0  0  0  0  0  0  0
   -1.7648   -0.9089    0.3998 N   0  0  0  0  0  0  0  0  0  0  0  0
   -2.5238   -0.4719   -0.1032 H   0  0  0  0  0  0  0  0  0  0  0  0
   -0.4848   -0.1959    0.4138 C   0  0  1  0  0  0  0  0  0  0  0  0
    0.1386   -0.6144    1.2058 H   0  0  0  0  0  0  0  0  0  0  0  0
    0.2271   -0.4272   -0.9334 C   0  0  0  0  0  0  0  0  0  0  0  0
    0.1430   -1.4855   -1.1890 H   0  0  0  0  0  0  0  0  0  0  0  0
   -0.2784    0.1519   -1.7077 H   0  0  0  0  0  0  0  0  0  0  0  0
    1.7183   -0.0480   -0.9226 C   0  0  0  0  0  0  0  0  0  0  0  0
    2.0188    0.2879   -1.9148 H   0  0  0  0  0  0  0  0  0  0  0  0
    1.8704    0.7691   -0.2174 H   0  0  0  0  0  0  0  0  0  0  0  0
    2.6305   -1.2066   -0.5200 C   0  0  0  0  0  0  0  0  0  0  0  0
    2.2146   -2.2950   -0.1692 O   0  0  0  0  0  0  0  0  0  0  0  0
    3.9322   -1.0220   -0.5615 N   0  0  0  0  0  0  0  0  0  0  0  0
    4.4839   -1.8164   -0.2876 H   0  0  0  0  0  0  0  0  0  0  0  0
    4.3270   -0.1482   -0.8449 H   0  0  0  0  0  0  0  0  0  0  0  0
   -0.7011    1.2952    0.7149 C   0  0  0  0  0  0  0  0  0  0  0  0
   -1.5917    1.9198    0.1415 O   0  0  0  0  0  0  0  0  0  0  0  0
    0.1191    1.8675    1.6055 N   0  0  0  0  0  0  0  0  0  0  0  0
    0.8092    1.2861    2.0537 H   0  0  0  0  0  0  0  0  0  0  0  0
    0.0509    3.2769    1.9894 C   0  0  0  0  0  0  0  0  0  0  0  0
   -0.9494    3.5076    2.3640 H   0  0  0  0  0  0  0  0  0  0  0  0
    0.7844    3.4956    2.7668 H   0  0  0  0  0  0  0  0  0  0  0  0
    0.2468    3.9058    1.1193 H   0  0  0  0  0  0  0  0  0  0  0  0
  5  6  2  0  0  0  0
  5  7  1  0  0  0  0
  2  3  1  0  0  0  0
  2  4  1  0  0  0  0
  2  5  1  0  0  0  0
  1  2  1  0  0  0  0
 22 23  2  0  0  0  0
 22 24  1  0  0  0  0
 19 20  1  0  0  0  0
 19 21  1  0  0  0  0
 17 18  2  0  0  0  0
 17 19  1  0  0  0  0
 14 15  1  0  0  0  0
 14 16  1  0  0  0  0
 14 17  1  0  0  0  0
 11 12  1  0  0  0  0
 11 13  1  0  0  0  0
 11 14  1  0  0  0  0
  9 10  1  0  0  0  0
  9 11  1  0  0  0  0
  9 22  1  0  0  0  0
  7  8  1  0  0  0  0
  7  9  1  0  0  0  0
 26 27  1  0  0  0  0
 26 28  1  0  0  0  0
 26 29  1  0  0  0  0
 24 25  1  0  0  0  0
 24 26  1  0  0  0  0
M  END
$$$$
default_name
  -OEChem-02102213163D

 29 28  0     1  0  0  0  0  0999 V2000
   -3.3998   -3.6239    1.3678 H   0  0  0  0  0  0  0  0  0  0  0  0
   -3.3608   -2.6749    0.8348 C   0  0  0  0  0  0  0  0  0  0  0  0
   -4.0988   -1.9909    1.2498 H   0  0  0  0  0  0  0  0  0  0  0  0
   -3.5618   -2.8419   -0.2222 H   0  0  0  0  0  0  0  0  0  0  0  0
   -1.9818   -2.0809    0.9918 C   0  0  0  0  0  0  0  0  0  0  0  0
   -1.1288   -2.6669    1.6468 O   0  0  0  0  0  0  0  0  0  0  0  0
   -1.7648   -0.9089    0.3998 N   0  0  0  0  0  0  0  0  0  0  0  0
   -2.5238   -0.4719   -0.1032 H   0  0  0  0  0  0  0  0  0  0  0  0
   -0.4848   -0.1959    0.4138 C   0  0  1  0  0  0  0  0  0  0  0  0
    0.1386   -0.6144    1.2058 H   0  0  0  0  0  0  0  0  0  0  0  0
    0.2271   -0.4272   -0.9334 C   0  0  0  0  0  0  0  0  0  0  0  0
    0.1430   -1.4855   -1.1890 H   0  0  0  0  0  0  0  0  0  0  0  0
   -0.2784    0.1519   -1.7077 H   0  0  0  0  0  0  0  0  0  0  0  0
    1.7183   -0.0480   -0.9226 C   0  0  0  0  0  0  0  0  0  0  0  0
    1.9568    0.5290   -1.8158 H   0  0  0  0  0  0  0  0  0  0  0  0
    1.9204    0.5676   -0.0461 H   0  0  0  0  0  0  0  0  0  0  0  0
    2.6471   -1.2614   -0.8823 C   0  0  0  0  0  0  0  0  0  0  0  0
    2.2476   -2.4071   -0.7902 O   0  0  0  0  0  0  0  0  0  0  0  0
    3.9446   -1.0593   -0.9589 N   0  0  0  0  0  0  0  0  0  0  0  0
    4.5076   -1.8915   -0.9287 H   0  0  0  0  0  0  0  0  0  0  0  0
    4.3259   -0.1384   -1.0385 H   0  0  0  0  0  0  0  0  0  0  0  0
   -0.7011    1.2952    0.7149 C   0  0  0  0  0  0  0  0  0  0  0  0
   -1.5917    1.9198    0.1415 O   0  0  0  0  0  0  0  0  0  0  0  0
    0.1191    1.8675    1.6055 N   0  0  0  0  0  0  0  0  0  0  0  0
    0.8092    1.2861    2.0537 H   0  0  0  0  0  0  0  0  0  0  0  0
    0.0509    3.2769    1.9894 C   0  0  0  0  0  0  0  0  0  0  0  0
   -0.9494    3.5076    2.3640 H   0  0  0  0  0  0  0  0  0  0  0  0
    0.7844    3.4956    2.7668 H   0  0  0  0  0  0  0  0  0  0  0  0
    0.2468    3.9058    1.1193 H   0  0  0  0  0  0  0  0  0  0  0  0
  5  6  2  0  0  0  0
  5  7  1  0  0  0  0
  2  3  1  0  0  0  0
  2  4  1  0  0  0  0
  2  5  1  0  0  0  0
  1  2  1  0  0  0  0
 22 23  2  0  0  0  0
 22 24  1  0  0  0  0
 19 20  1  0  0  0  0
 19 21  1  0  0  0  0
 17 18  2  0  0  0  0
 17 19  1  0  0  0  0
 14 15  1  0  0  0  0
 14 16  1  0  0  0  0
 14 17  1  0  0  0  0
 11 12  1  0  0  0  0
 11 13  1  0  0  0  0
 11 14  1  0  0  0  0
  9 10  1  0  0  0  0
  9 11  1  0  0  0  0
  9 22  1  0  0  0  0
  7  8  1  0  0  0  0
  7  9  1  0  0  0  0
 26 27  1  0  0  0  0
 26 28  1  0  0  0  0
 26 29  1  0  0  0  0
 24 25  1  0  0  0  0
 24 26  1  0  0  0  0
M  END
$$$$
default_name
  -OEChem-02102213163D

 29 28  0     1  0  0  0  0  0999 V2000
   -3.3998   -3.6239    1.3678 H   0  0  0  0  0  0  0  0  0  0  0  0
   -3.3608   -2.6749    0.8348 C   0  0  0  0  0  0  0  0  0  0  0  0
   -4.0988   -1.9909    1.2498 H   0  0  0  0  0  0  0  0  0  0  0  0
   -3.5618   -2.8419   -0.2222 H   0  0  0  0  0  0  0  0  0  0  0  0
   -1.9818   -2.0809    0.9918 C   0  0  0  0  0  0  0  0  0  0  0  0
   -1.1288   -2.6669    1.6468 O   0  0  0  0  0  0  0  0  0  0  0  0
   -1.7648   -0.9089    0.3998 N   0  0  0  0  0  0  0  0  0  0  0  0
   -2.5238   -0.4719   -0.1032 H   0  0  0  0  0  0  0  0  0  0  0  0
   -0.4848   -0.1959    0.4138 C   0  0  1  0  0  0  0  0  0  0  0  0
    0.1386   -0.6144    1.2058 H   0  0  0  0  0  0  0  0  0  0  0  0
    0.2271   -0.4272   -0.9334 C   0  0  0  0  0  0  0  0  0  0  0  0
    0.1430   -1.4855   -1.1890 H   0  0  0  0  0  0  0  0  0  0  0  0
   -0.2784    0.1519   -1.7077 H   0  0  0  0  0  0  0  0  0  0  0  0
    1.7183   -0.0480   -0.9226 C   0  0  0  0  0  0  0  0  0  0  0  0
    1.9028    0.7369   -1.6558 H   0  0  0  0  0  0  0  0  0  0  0  0
    1.9799    0.3301    0.0656 H   0  0  0  0  0  0  0  0  0  0  0  0
    2.6401   -1.2234   -1.2472 C   0  0  0  0  0  0  0  0  0  0  0  0
    2.2401   -2.3595   -1.4202 O   0  0  0  0  0  0  0  0  0  0  0  0
    3.9313   -0.9956   -1.3528 N   0  0  0  0  0  0  0  0  0  0  0  0
    4.4898   -1.8032   -1.5682 H   0  0  0  0  0  0  0  0  0  0  0  0
    4.3125   -0.0805   -1.2229 H   0  0  0  0  0  0  0  0  0  0  0  0
   -0.7011    1.2952    0.7149 C   0  0  0  0  0  0  0  0  0  0  0  0
   -1.5917    1.9198    0.1415 O   0  0  0  0  0  0  0  0  0  0  0  0
    0.1191    1.8675    1.6055 N   0  0  0  0  0  0  0  0  0  0  0  0
    0.8092    1.2861    2.0537 H   0  0  0  0  0  0  0  0  0  0  0  0
    0.0509    3.2769    1.9894 C   0  0  0  0  0  0  0  0  0  0  0  0
   -0.9494    3.5076    2.3640 H   0  0  0  0  0  0  0  0  0  0  0  0
    0.7844    3.4956    2.7668 H   0  0  0  0  0  0  0  0  0  0  0  0
    0.2468    3.9058    1.1193 H   0  0  0  0  0  0  0  0  0  0  0  0
  5  6  2  0  0  0  0
  5  7  1  0  0  0  0
  2  3  1  0  0  0  0
  2  4  1  0  0  0  0
  2  5  1  0  0  0  0
  1  2  1  0  0  0  0
 22 23  2  0  0  0  0
 22 24  1  0  0  0  0
 19 20  1  0  0  0  0
 19 21  1  0  0  0  0
 17 18  2  0  0  0  0
 17 19  1  0  0  0  0
 14 15  1  0  0  0  0
 14 16  1  0  0  0  0
 14 17  1  0  0  0  0
 11 12  1  0  0  0  0
 11 13  1  0  0  0  0
 11 14  1  0  0  0  0
  9 10  1  0  0  0  0
  9 11  1  0  0  0  0
  9 22  1  0  0  0  0
  7  8  1  0  0  0  0
  7  9  1  0  0  0  0
 26 27  1  0  0  0  0
 26 28  1  0  0  0  0
 26 29  1  0  0  0  0
 24 25  1  0  0  0  0
 24 26  1  0  0  0  0
M  END
$$$$
default_name
  -OEChem-02102213163D

 29 28  0     1  0  0  0  0  0999 V2000
   -3.3998   -3.6239    1.3678 H   0  0  0  0  0  0  0  0  0  0  0  0
   -3.3608   -2.6749    0.8348 C   0  0  0  0  0  0  0  0  0  0  0  0
   -4.0988   -1.9909    1.2498 H   0  0  0  0  0  0  0  0  0  0  0  0
   -3.5618   -2.8419   -0.2222 H   0  0  0  0  0  0  0  0  0  0  0  0
   -1.9818   -2.0809    0.9918 C   0  0  0  0  0  0  0  0  0  0  0  0
   -1.1288   -2.6669    1.6468 O   0  0  0  0  0  0  0  0  0  0  0  0
   -1.7648   -0.9089    0.3998 N   0  0  0  0  0  0  0  0  0  0  0  0
   -2.5238   -0.4719   -0.1032 H   0  0  0  0  0  0  0  0  0  0  0  0
   -0.4848   -0.1959    0.4138 C   0  0  1  0  0  0  0  0  0  0  0  0
    0.1386   -0.6144    1.2058 H   0  0  0  0  0  0  0  0  0  0  0  0
    0.2271   -0.4272   -0.9334 C   0  0  0  0  0  0  0  0  0  0  0  0
    0.1430   -1.4855   -1.1890 H   0  0  0  0  0  0  0  0  0  0  0  0
   -0.2784    0.1519   -1.7077 H   0  0  0  0  0  0  0  0  0  0  0  0
    1.7183   -0.0480   -0.9226 C   0  0  0  0  0  0  0  0  0  0  0  0
    1.8604    0.8975   -1.4456 H   0  0  0  0  0  0  0  0  0  0  0  0
    2.0450    0.0728    0.1102 H   0  0  0  0  0  0  0  0  0  0  0  0
    2.6100   -1.0952   -1.5896 C   0  0  0  0  0  0  0  0  0  0  0  0
    2.1926   -2.1555   -2.0163 O   0  0  0  0  0  0  0  0  0  0  0  0
    3.8931   -0.8354   -1.7165 N   0  0  0  0  0  0  0  0  0  0  0  0
    4.4317   -1.5575   -2.1627 H   0  0  0  0  0  0  0  0  0  0  0  0
    4.2877    0.0217   -1.3857 H   0  0  0  0  0  0  0  0  0  0  0  0
   -0.7011    1.2952    0.7149 C   0  0  0  0  0  0  0  0  0  0  0  0
   -1.5917    1.9198    0.1415 O   0  0  0  0  0  0  0  0  0  0  0  0
    0.1191    1.8675    1.6055 N   0  0  0  0  0  0  0  0  0  0  0  0
    0.8092    1.2861    2.0537 H   0  0  0  0  0  0  0  0  0  0  0  0
    0.0509    3.2769    1.9894 C   0  0  0  0  0  0  0  0  0  0  0  0
   -0.9494    3.5076    2.3640 H   0  0  0  0  0  0  0  0  0  0  0  0
    0.7844    3.4956    2.7668 H   0  0  0  0  0  0  0  0  0  0  0  0
    0.2468    3.9058    1.1193 H   0  0  0  0  0  0  0  0  0  0  0  0
  5  6  2  0  0  0  0
  5  7  1  0  0  0  0
  2  3  1  0  0  0  0
  2  4  1  0  0  0  0
  2  5  1  0  0  0  0
  1  2  1  0  0  0  0
 22 23  2  0  0  0  0
 22 24  1  0  0  0  0
 19 20  1  0  0  0  0
 19 21  1  0  0  0  0
 17 18  2  0  0  0  0
 17 19  1  0  0  0  0
 14 15  1  0  0  0  0
 14 16  1  0  0  0  0
 14 17  1  0  0  0  0
 11 12  1  0  0  0  0
 11 13  1  0  0  0  0
 11 14  1  0  0  0  0
  9 10  1  0  0  0  0
  9 11  1  0  0  0  0
  9 22  1  0  0  0  0
  7  8  1  0  0  0  0
  7  9  1  0  0  0  0
 26 27  1  0  0  0  0
 26 28  1  0  0  0  0
 26 29  1  0  0  0  0
 24 25  1  0  0  0  0
 24 26  1  0  0  0  0
M  END
$$$$
default_name
  -OEChem-02102213163D

 29 28  0     1  0  0  0  0  0999 V2000
   -3.3998   -3.6239    1.3678 H   0  0  0  0  0  0  0  0  0  0  0  0
   -3.3608   -2.6749    0.8348 C   0  0  0  0  0  0  0  0  0  0  0  0
   -4.0988   -1.9909    1.2498 H   0  0  0  0  0  0  0  0  0  0  0  0
   -3.5618   -2.8419   -0.2222 H   0  0  0  0  0  0  0  0  0  0  0  0
   -1.9818   -2.0809    0.9918 C   0  0  0  0  0  0  0  0  0  0  0  0
   -1.1288   -2.6669    1.6468 O   0  0  0  0  0  0  0  0  0  0  0  0
   -1.7648   -0.9089    0.3998 N   0  0  0  0  0  0  0  0  0  0  0  0
   -2.5238   -0.4719   -0.1032 H   0  0  0  0  0  0  0  0  0  0  0  0
   -0.4848   -0.1959    0.4138 C   0  0  1  0  0  0  0  0  0  0  0  0
    0.1386   -0.6144    1.2058 H   0  0  0  0  0  0  0  0  0  0  0  0
    0.2271   -0.4272   -0.9334 C   0  0  0  0  0  0  0  0  0  0  0  0
    0.1430   -1.4855   -1.1890 H   0  0  0  0  0  0  0  0  0  0  0  0
   -0.2784    0.1519   -1.7077 H   0  0  0  0  0  0  0  0  0  0  0  0
    1.7183   -0.0480   -0.9226 C   0  0  0  0  0  0  0  0  0  0  0  0
    1.8326    0.9998   -1.1996 H   0  0  0  0  0  0  0  0  0  0  0  0
    2.1112   -0.1868    0.0846 H   0  0  0  0  0  0  0  0  0  0  0  0
    2.5588   -0.8855   -1.8862 C   0  0  0  0  0  0  0  0  0  0  0  0
    2.1083   -1.8090   -2.5380 O   0  0  0  0  0  0  0  0  0  0  0  0
    3.8328   -0.5894   -2.0252 N   0  0  0  0  0  0  0  0  0  0  0  0
    4.3371   -1.1712   -2.6716 H   0  0  0  0  0  0  0  0  0  0  0  0
    4.2532    0.1612   -1.5157 H   0  0  0  0  0  0  0  0  0  0  0  0
   -0.7011    1.2952    0.7149 C   0  0  0  0  0  0  0  0  0  0  0  0
   -1.5917    1.9198    0.1415 O   0  0  0  0  0  0  0  0  0  0  0  0
    0.1191    1.8675    1.6055 N   0  0  0  0  0  0  0  0  0  0  0  0
    0.8092    1.2861    2.0537 H   0  0  0  0  0  0  0  0  0  0  0  0
    0.0509    3.2769    1.9894 C   0  0  0  0  0  0  0  0  0  0  0  0
   -0.9494    3.5076    2.3640 H   0  0  0  0  0  0  0  0  0  0  0  0
    0.7844    3.4956    2.7668 H   0  0  0  0  0  0  0  0  0  0  0  0
    0.2468    3.9058    1.1193 H   0  0  0  0  0  0  0  0  0  0  0  0
  5  6  2  0  0  0  0
  5  7  1  0  0  0  0
  2  3  1  0  0  0  0
  2  4  1  0  0  0  0
  2  5  1  0  0  0  0
  1  2  1  0  0  0  0
 22 23  2  0  0  0  0
 22 24  1  0  0  0  0
 19 20  1  0  0  0  0
 19 21  1  0  0  0  0
 17 18  2  0  0  0  0
 17 19  1  0  0  0  0
 14 15  1  0  0  0  0
 14 16  1  0  0  0  0
 14 17  1  0  0  0  0
 11 12  1  0  0  0  0
 11 13  1  0  0  0  0
 11 14  1  0  0  0  0
  9 10  1  0  0  0  0
  9 11  1  0  0  0  0
  9 22  1  0  0  0  0
  7  8  1  0  0  0  0
  7  9  1  0  0  0  0
 26 27  1  0  0  0  0
 26 28  1  0  0  0  0
 26 29  1  0  0  0  0
 24 25  1  0  0  0  0
 24 26  1  0  0  0  0
M  END
$$$$
default_name
  -OEChem-02102213163D

 29 28  0     1  0  0  0  0  0999 V2000
   -3.3998   -3.6239    1.3678 H   0  0  0  0  0  0  0  0  0  0  0  0
   -3.3608   -2.6749    0.8348 C   0  0  0  0  0  0  0  0  0  0  0  0
   -4.0988   -1.9909    1.2498 H   0  0  0  0  0  0  0  0  0  0  0  0
   -3.5618   -2.8419   -0.2222 H   0  0  0  0  0  0  0  0  0  0  0  0
   -1.9818   -2.0809    0.9918 C   0  0  0  0  0  0  0  0  0  0  0  0
   -1.1288   -2.6669    1.6468 O   0  0  0  0  0  0  0  0  0  0  0  0
   -1.7648   -0.9089    0.3998 N   0  0  0  0  0  0  0  0  0  0  0  0
   -2.5238   -0.4719   -0.1032 H   0  0  0  0  0  0  0  0  0  0  0  0
   -0.4848   -0.1959    0.4138 C   0  0  1  0  0  0  0  0  0  0  0  0
    0.1386   -0.6144    1.2058 H   0  0  0  0  0  0  0  0  0  0  0  0
    0.2271   -0.4272   -0.9334 C   0  0  0  0  0  0  0  0  0  0  0  0
    0.1430   -1.4855   -1.1890 H   0  0  0  0  0  0  0  0  0  0  0  0
   -0.2784    0.1519   -1.7077 H   0  0  0  0  0  0  0  0  0  0  0  0
    1.7183   -0.0480   -0.9226 C   0  0  0  0  0  0  0  0  0  0  0  0
    1.8213    1.0368   -0.9345 H   0  0  0  0  0  0  0  0  0  0  0  0
    2.1740   -0.4310   -0.0095 H   0  0  0  0  0  0  0  0  0  0  0  0
    2.4901   -0.6087   -2.1170 C   0  0  0  0  0  0  0  0  0  0  0  0
    1.9930   -1.3437   -2.9495 O   0  0  0  0  0  0  0  0  0  0  0  0
    3.7545   -0.2745   -2.2579 N   0  0  0  0  0  0  0  0  0  0  0  0
    4.2126   -0.6705   -3.0602 H   0  0  0  0  0  0  0  0  0  0  0  0
    4.2113    0.3285   -1.6041 H   0  0  0  0  0  0  0  0  0  0  0  0
   -0.7011    1.2952    0.7149 C   0  0  0  0  0  0  0  0  0  0  0  0
   -1.5917    1.9198    0.1415 O   0  0  0  0  0  0  0  0  0  0  0  0
    0.1191    1.8675    1.6055 N   0  0  0  0  0  0  0  0  0  0  0  0
    0.8092    1.2861    2.0537 H   0  0  0  0  0  0  0  0  0  0  0  0
    0.0509    3.2769    1.9894 C   0  0  0  0  0  0  0  0  0  0  0  0
   -0.9494    3.5076    2.3640 H   0  0  0  0  0  0  0  0  0  0  0  0
    0.7844    3.4956    2.7668 H   0  0  0  0  0  0  0  0  0  0  0  0
    0.2468    3.9058    1.1193 H   0  0  0  0  0  0  0  0  0  0  0  0
  5  6  2  0  0  0  0
  5  7  1  0  0  0  0
  2  3  1  0  0  0  0
  2  4  1  0  0  0  0
  2  5  1  0  0  0  0
  1  2  1  0  0  0  0
 22 23  2  0  0  0  0
 22 24  1  0  0  0  0
 19 20  1  0  0  0  0
 19 21  1  0  0  0  0
 17 18  2  0  0  0  0
 17 19  1  0  0  0  0
 14 15  1  0  0  0  0
 14 16  1  0  0  0  0
 14 17  1  0  0  0  0
 11 12  1  0  0  0  0
 11 13  1  0  0  0  0
 11 14  1  0  0  0  0
  9 10  1  0  0  0  0
  9 11  1  0  0  0  0
  9 22  1  0  0  0  0
  7  8  1  0  0  0  0
  7  9  1  0  0  0  0
 26 27  1  0  0  0  0
 26 28  1  0  0  0  0
 26 29  1  0  0  0  0
 24 25  1  0  0  0  0
 24 26  1  0  0  0  0
M  END
$$$$
default_name
  -OEChem-02102213163D

 29 28  0     1  0  0  0  0  0999 V2000
   -3.3998   -3.6239    1.3678 H   0  0  0  0  0  0  0  0  0  0  0  0
   -3.3608   -2.6749    0.8348 C   0  0  0  0  0  0  0  0  0  0  0  0
   -4.0988   -1.9909    1.2498 H   0  0  0  0  0  0  0  0  0  0  0  0
   -3.5618   -2.8419   -0.2222 H   0  0  0  0  0  0  0  0  0  0  0  0
   -1.9818   -2.0809    0.9918 C   0  0  0  0  0  0  0  0  0  0  0  0
   -1.1288   -2.6669    1.6468 O   0  0  0  0  0  0  0  0  0  0  0  0
   -1.7648   -0.9089    0.3998 N   0  0  0  0  0  0  0  0  0  0  0  0
   -2.5238   -0.4719   -0.1032 H   0  0  0  0  0  0  0  0  0  0  0  0
   -0.4848   -0.1959    0.4138 C   0  0  1  0  0  0  0  0  0  0  0  0
    0.1386   -0.6144    1.2058 H   0  0  0  0  0  0  0  0  0  0  0  0
    0.2271   -0.4272   -0.9334 C   0  0  0  0  0  0  0  0  0  0  0  0
   -0.0782   -1.4016   -1.3203 H   0  0  0  0  0  0  0  0  0  0  0  0
   -0.0945    0.3373   -1.6423 H   0  0  0  0  0  0  0  0  0  0  0  0
    1.7626   -0.4028   -0.8382 C   0  0  0  0  0  0  0  0  0  0  0  0
    2.0912    0.5621   -0.4528 H   0  0  0  0  0  0  0  0  0  0  0  0
    2.0867   -1.1820   -0.1485 H   0  0  0  0  0  0  0  0  0  0  0  0
    2.4523   -0.6337   -2.1828 C   0  0  0  0  0  0  0  0  0  0  0  0
    1.8497   -0.8876   -3.2090 O   0  0  0  0  0  0  0  0  0  0  0  0
    3.7636   -0.5462   -2.2368 N   0  0  0  0  0  0  0  0  0  0  0  0
    4.1639   -0.7061   -3.1449 H   0  0  0  0  0  0  0  0  0  0  0  0
    4.3071   -0.3374   -1.4239 H   0  0  0  0  0  0  0  0  0  0  0  0
   -0.7011    1.2952    0.7149 C   0  0  0  0  0  0  0  0  0  0  0  0
   -1.5917    1.9198    0.1415 O   0  0  0  0  0  0  0  0  0  0  0  0
    0.1191    1.8675    1.6055 N   0  0  0  0  0  0  0  0  0  0  0  0
    0.8092    1.2861    2.0537 H   0  0  0  0  0  0  0  0  0  0  0  0
    0.0509    3.2769    1.9894 C   0  0  0  0  0  0  0  0  0  0  0  0
   -0.9494    3.5076    2.3640 H   0  0  0  0  0  0  0  0  0  0  0  0
    0.7844    3.4956    2.7668 H   0  0  0  0  0  0  0  0  0  0  0  0
    0.2468    3.9058    1.1193 H   0  0  0  0  0  0  0  0  0  0  0  0
  5  6  2  0  0  0  0
  5  7  1  0  0  0  0
  2  3  1  0  0  0  0
  2  4  1  0  0  0  0
  2  5  1  0  0  0  0
  1  2  1  0  0  0  0
 22 23  2  0  0  0  0
 22 24  1  0  0  0  0
 19 20  1  0  0  0  0
 19 21  1  0  0  0  0
 17 18  2  0  0  0  0
 17 19  1  0  0  0  0
 14 15  1  0  0  0  0
 14 16  1  0  0  0  0
 14 17  1  0  0  0  0
 11 12  1  0  0  0  0
 11 13  1  0  0  0  0
 11 14  1  0  0  0  0
  9 10  1  0  0  0  0
  9 11  1  0  0  0  0
  9 22  1  0  0  0  0
  7  8  1  0  0  0  0
  7  9  1  0  0  0  0
 26 27  1  0  0  0  0
 26 28  1  0  0  0  0
 26 29  1  0  0  0  0
 24 25  1  0  0  0  0
 24 26  1  0  0  0  0
M  END
$$$$
default_name
  -OEChem-02102213163D

 29 28  0     1  0  0  0  0  0999 V2000
   -3.3998   -3.6239    1.3678 H   0  0  0  0  0  0  0  0  0  0  0  0
   -3.3608   -2.6749    0.8348 C   0  0  0  0  0  0  0  0  0  0  0  0
   -4.0988   -1.9909    1.2498 H   0  0  0  0  0  0  0  0  0  0  0  0
   -3.5618   -2.8419   -0.2222 H   0  0  0  0  0  0  0  0  0  0  0  0
   -1.9818   -2.0809    0.9918 C   0  0  0  0  0  0  0  0  0  0  0  0
   -1.1288   -2.6669    1.6468 O   0  0  0  0  0  0  0  0  0  0  0  0
   -1.7648   -0.9089    0.3998 N   0  0  0  0  0  0  0  0  0  0  0  0
   -2.5238   -0.4719   -0.1032 H   0  0  0  0  0  0  0  0  0  0  0  0
   -0.4848   -0.1959    0.4138 C   0  0  1  0  0  0  0  0  0  0  0  0
    0.1386   -0.6144    1.2058 H   0  0  0  0  0  0  0  0  0  0  0  0
    0.2271   -0.4272   -0.9334 C   0  0  0  0  0  0  0  0  0  0  0  0
   -0.0782   -1.4016   -1.3203 H   0  0  0  0  0  0  0  0  0  0  0  0
   -0.0945    0.3373   -1.6423 H   0  0  0  0  0  0  0  0  0  0  0  0
    1.7626   -0.4028   -0.8382 C   0  0  0  0  0  0  0  0  0  0  0  0
    2.0786    0.4352   -0.2172 H   0  0  0  0  0  0  0  0  0  0  0  0
    2.1030   -1.3282   -0.3738 H   0  0  0  0  0  0  0  0  0  0  0  0
    2.4474   -0.2672   -2.1981 C   0  0  0  0  0  0  0  0  0  0  0  0
    1.8425   -0.2574   -3.2539 O   0  0  0  0  0  0  0  0  0  0  0  0
    3.7569   -0.1470   -2.2304 N   0  0  0  0  0  0  0  0  0  0  0  0
    4.1540   -0.0603   -3.1498 H   0  0  0  0  0  0  0  0  0  0  0  0
    4.3021   -0.1463   -1.3922 H   0  0  0  0  0  0  0  0  0  0  0  0
   -0.7011    1.2952    0.7149 C   0  0  0  0  0  0  0  0  0  0  0  0
   -1.5917    1.9198    0.1415 O   0  0  0  0  0  0  0  0  0  0  0  0
    0.1191    1.8675    1.6055 N   0  0  0  0  0  0  0  0  0  0  0  0
    0.8092    1.2861    2.0537 H   0  0  0  0  0  0  0  0  0  0  0  0
    0.0509    3.2769    1.9894 C   0  0  0  0  0  0  0  0  0  0  0  0
   -0.9494    3.5076    2.3640 H   0  0  0  0  0  0  0  0  0  0  0  0
    0.7844    3.4956    2.7668 H   0  0  0  0  0  0  0  0  0  0  0  0
    0.2468    3.9058    1.1193 H   0  0  0  0  0  0  0  0  0  0  0  0
  5  6  2  0  0  0  0
  5  7  1  0  0  0  0
  2  3  1  0  0  0  0
  2  4  1  0  0  0  0
  2  5  1  0  0  0  0
  1  2  1  0  0  0  0
 22 23  2  0  0  0  0
 22 24  1  0  0  0  0
 19 20  1  0  0  0  0
 19 21  1  0  0  0  0
 17 18  2  0  0  0  0
 17 19  1  0  0  0  0
 14 15  1  0  0  0  0
 14 16  1  0  0  0  0
 14 17  1  0  0  0  0
 11 12  1  0  0  0  0
 11 13  1  0  0  0  0
 11 14  1  0  0  0  0
  9 10  1  0  0  0  0
  9 11  1  0  0  0  0
  9 22  1  0  0  0  0
  7  8  1  0  0  0  0
  7  9  1  0  0  0  0
 26 27  1  0  0  0  0
 26 28  1  0  0  0  0
 26 29  1  0  0  0  0
 24 25  1  0  0  0  0
 24 26  1  0  0  0  0
M  END
$$$$
default_name
  -OEChem-02102213163D

 29 28  0     1  0  0  0  0  0999 V2000
   -3.3998   -3.6239    1.3678 H   0  0  0  0  0  0  0  0  0  0  0  0
   -3.3608   -2.6749    0.8348 C   0  0  0  0  0  0  0  0  0  0  0  0
   -4.0988   -1.9909    1.2498 H   0  0  0  0  0  0  0  0  0  0  0  0
   -3.5618   -2.8419   -0.2222 H   0  0  0  0  0  0  0  0  0  0  0  0
   -1.9818   -2.0809    0.9918 C   0  0  0  0  0  0  0  0  0  0  0  0
   -1.1288   -2.6669    1.6468 O   0  0  0  0  0  0  0  0  0  0  0  0
   -1.7648   -0.9089    0.3998 N   0  0  0  0  0  0  0  0  0  0  0  0
   -2.5238   -0.4719   -0.1032 H   0  0  0  0  0  0  0  0  0  0  0  0
   -0.4848   -0.1959    0.4138 C   0  0  1  0  0  0  0  0  0  0  0  0
    0.1386   -0.6144    1.2058 H   0  0  0  0  0  0  0  0  0  0  0  0
    0.2271   -0.4272   -0.9334 C   0  0  0  0  0  0  0  0  0  0  0  0
   -0.0782   -1.4016   -1.3203 H   0  0  0  0  0  0  0  0  0  0  0  0
   -0.0945    0.3373   -1.6423 H   0  0  0  0  0  0  0  0  0  0  0  0
    1.7626   -0.4028   -0.8382 C   0  0  0  0  0  0  0  0  0  0  0  0
    2.0695    0.2515   -0.0225 H   0  0  0  0  0  0  0  0  0  0  0  0
    2.1202   -1.4110   -0.6293 H   0  0  0  0  0  0  0  0  0  0  0  0
    2.4367    0.0908   -2.1183 C   0  0  0  0  0  0  0  0  0  0  0  0
    1.8253    0.3628   -3.1345 O   0  0  0  0  0  0  0  0  0  0  0  0
    3.7440    0.2368   -2.1210 N   0  0  0  0  0  0  0  0  0  0  0  0
    4.1340    0.5646   -2.9876 H   0  0  0  0  0  0  0  0  0  0  0  0
    4.2943    0.0301   -1.3123 H   0  0  0  0  0  0  0  0  0  0  0  0
   -0.7011    1.2952    0.7149 C   0  0  0  0  0  0  0  0  0  0  0  0
   -1.5917    1.9198    0.1415 O   0  0  0  0  0  0  0  0  0  0  0  0
    0.1191    1.8675    1.6055 N   0  0  0  0  0  0  0  0  0  0  0  0
    0.8092    1.2861    2.0537 H   0  0  0  0  0  0  0  0  0  0  0  0
    0.0509    3.2769    1.9894 C   0  0  0  0  0  0  0  0  0  0  0  0
   -0.9494    3.5076    2.3640 H   0  0  0  0  0  0  0  0  0  0  0  0
    0.7844    3.4956    2.7668 H   0  0  0  0  0  0  0  0  0  0  0  0
    0.2468    3.9058    1.1193 H   0  0  0  0  0  0  0  0  0  0  0  0
  5  6  2  0  0  0  0
  5  7  1  0  0  0  0
  2  3  1  0  0  0  0
  2  4  1  0  0  0  0
  2  5  1  0  0  0  0
  1  2  1  0  0  0  0
 22 23  2  0  0  0  0
 22 24  1  0  0  0  0
 19 20  1  0  0  0  0
 19 21  1  0  0  0  0
 17 18  2  0  0  0  0
 17 19  1  0  0  0  0
 14 15  1  0  0  0  0
 14 16  1  0  0  0  0
 14 17  1  0  0  0  0
 11 12  1  0  0  0  0
 11 13  1  0  0  0  0
 11 14  1  0  0  0  0
  9 10  1  0  0  0  0
  9 11  1  0  0  0  0
  9 22  1  0  0  0  0
  7  8  1  0  0  0  0
  7  9  1  0  0  0  0
 26 27  1  0  0  0  0
 26 28  1  0  0  0  0
 26 29  1  0  0  0  0
 24 25  1  0  0  0  0
 24 26  1  0  0  0  0
M  END
$$$$
default_name
  -OEChem-02102213163D

 29 28  0     1  0  0  0  0  0999 V2000
   -3.3998   -3.6239    1.3678 H   0  0  0  0  0  0  0  0  0  0  0  0
   -3.3608   -2.6749    0.8348 C   0  0  0  0  0  0  0  0  0  0  0  0
   -4.0988   -1.9909    1.2498 H   0  0  0  0  0  0  0  0  0  0  0  0
   -3.5618   -2.8419   -0.2222 H   0  0  0  0  0  0  0  0  0  0  0  0
   -1.9818   -2.0809    0.9918 C   0  0  0  0  0  0  0  0  0  0  0  0
   -1.1288   -2.6669    1.6468 O   0  0  0  0  0  0  0  0  0  0  0  0
   -1.7648   -0.9089    0.3998 N   0  0  0  0  0  0  0  0  0  0  0  0
   -2.5238   -0.4719   -0.1032 H   0  0  0  0  0  0  0  0  0  0  0  0
   -0.4848   -0.1959    0.4138 C   0  0  1  0  0  0  0  0  0  0  0  0
    0.1386   -0.6144    1.2058 H   0  0  0  0  0  0  0  0  0  0  0  0
    0.2271   -0.4272   -0.9334 C   0  0  0  0  0  0  0  0  0  0  0  0
   -0.0782   -1.4016   -1.3203 H   0  0  0  0  0  0  0  0  0  0  0  0
   -0.0945    0.3373   -1.6423 H   0  0  0  0  0  0  0  0  0  0  0  0
    1.7626   -0.4028   -0.8382 C   0  0  0  0  0  0  0  0  0  0  0  0
    2.0644    0.0236    0.1182 H   0  0  0  0  0  0  0  0  0  0  0  0
    2.1370   -1.4247   -0.8976 H   0  0  0  0  0  0  0  0  0  0  0  0
    2.4211    0.4157   -1.9487 C   0  0  0  0  0  0  0  0  0  0  0  0
    1.7991    0.9308   -2.8589 O   0  0  0  0  0  0  0  0  0  0  0  0
    3.7259    0.5791   -1.9162 N   0  0  0  0  0  0  0  0  0  0  0  0
    4.1053    1.1259   -2.6695 H   0  0  0  0  0  0  0  0  0  0  0  0
    4.2843    0.1797   -1.1894 H   0  0  0  0  0  0  0  0  0  0  0  0
   -0.7011    1.2952    0.7149 C   0  0  0  0  0  0  0  0  0  0  0  0
   -1.5917    1.9198    0.1415 O   0  0  0  0  0  0  0  0  0  0  0  0
    0.1191    1.8675    1.6055 N   0  0  0  0  0  0  0  0  0  0  0  0
    0.8092    1.2861    2.0537 H   0  0  0  0  0  0  0  0  0  0  0  0
    0.0509    3.2769    1.9894 C   0  0  0  0  0  0  0  0  0  0  0  0
   -0.9494    3.5076    2.3640 H   0  0  0  0  0  0  0  0  0  0  0  0
    0.7844    3.4956    2.7668 H   0  0  0  0  0  0  0  0  0  0  0  0
    0.2468    3.9058    1.1193 H   0  0  0  0  0  0  0  0  0  0  0  0
  5  6  2  0  0  0  0
  5  7  1  0  0  0  0
  2  3  1  0  0  0  0
  2  4  1  0  0  0  0
  2  5  1  0  0  0  0
  1  2  1  0  0  0  0
 22 23  2  0  0  0  0
 22 24  1  0  0  0  0
 19 20  1  0  0  0  0
 19 21  1  0  0  0  0
 17 18  2  0  0  0  0
 17 19  1  0  0  0  0
 14 15  1  0  0  0  0
 14 16  1  0  0  0  0
 14 17  1  0  0  0  0
 11 12  1  0  0  0  0
 11 13  1  0  0  0  0
 11 14  1  0  0  0  0
  9 10  1  0  0  0  0
  9 11  1  0  0  0  0
  9 22  1  0  0  0  0
  7  8  1  0  0  0  0
  7  9  1  0  0  0  0
 26 27  1  0  0  0  0
 26 28  1  0  0  0  0
 26 29  1  0  0  0  0
 24 25  1  0  0  0  0
 24 26  1  0  0  0  0
M  END
$$$$
default_name
  -OEChem-02102213163D

 29 28  0     1  0  0  0  0  0999 V2000
   -3.3998   -3.6239    1.3678 H   0  0  0  0  0  0  0  0  0  0  0  0
   -3.3608   -2.6749    0.8348 C   0  0  0  0  0  0  0  0  0  0  0  0
   -4.0988   -1.9909    1.2498 H   0  0  0  0  0  0  0  0  0  0  0  0
   -3.5618   -2.8419   -0.2222 H   0  0  0  0  0  0  0  0  0  0  0  0
   -1.9818   -2.0809    0.9918 C   0  0  0  0  0  0  0  0  0  0  0  0
   -1.1288   -2.6669    1.6468 O   0  0  0  0  0  0  0  0  0  0  0  0
   -1.7648   -0.9089    0.3998 N   0  0  0  0  0  0  0  0  0  0  0  0
   -2.5238   -0.4719   -0.1032 H   0  0  0  0  0  0  0  0  0  0  0  0
   -0.4848   -0.1959    0.4138 C   0  0  1  0  0  0  0  0  0  0  0  0
    0.1386   -0.6144    1.2058 H   0  0  0  0  0  0  0  0  0  0  0  0
    0.2271   -0.4272   -0.9334 C   0  0  0  0  0  0  0  0  0  0  0  0
   -0.0782   -1.4016   -1.3203 H   0  0  0  0  0  0  0  0  0  0  0  0
   -0.0945    0.3373   -1.6423 H   0  0  0  0  0  0  0  0  0  0  0  0
    1.7626   -0.4028   -0.8382 C   0  0  0  0  0  0  0  0  0  0  0  0
    2.0637   -0.2330    0.1953 H   0  0  0  0  0  0  0  0  0  0  0  0
    2.1524   -1.3684   -1.1603 H   0  0  0  0  0  0  0  0  0  0  0  0
    2.4014    0.6855   -1.7009 C   0  0  0  0  0  0  0  0  0  0  0  0
    1.7660    1.4078   -2.4459 O   0  0  0  0  0  0  0  0  0  0  0  0
    3.7037    0.8565   -1.6299 N   0  0  0  0  0  0  0  0  0  0  0  0
    4.0700    1.5856   -2.2172 H   0  0  0  0  0  0  0  0  0  0  0  0
    4.2728    0.2922   -1.0321 H   0  0  0  0  0  0  0  0  0  0  0  0
   -0.7011    1.2952    0.7149 C   0  0  0  0  0  0  0  0  0  0  0  0
   -1.5917    1.9198    0.1415 O   0  0  0  0  0  0  0  0  0  0  0  0
    0.1191    1.8675    1.6055 N   0  0  0  0  0  0  0  0  0  0  0  0
    0.8092    1.2861    2.0537 H   0  0  0  0  0  0  0  0  0  0  0  0
    0.0509    3.2769    1.9894 C   0  0  0  0  0  0  0  0  0  0  0  0
   -0.9494    3.5076    2.3640 H   0  0  0  0  0  0  0  0  0  0  0  0
    0.7844    3.4956    2.7668 H   0  0  0  0  0  0  0  0  0  0  0  0
    0.2468    3.9058    1.1193 H   0  0  0  0  0  0  0  0  0  0  0  0
  5  6  2  0  0  0  0
  5  7  1  0  0  0  0
  2  3  1  0  0  0  0
  2  4  1  0  0  0  0
  2  5  1  0  0  0  0
  1  2  1  0  0  0  0
 22 23  2  0  0  0  0
 22 24  1  0  0  0  0
 19 20  1  0  0  0  0
 19 21  1  0  0  0  0
 17 18  2  0  0  0  0
 17 19  1  0  0  0  0
 14 15  1  0  0  0  0
 14 16  1  0  0  0  0
 14 17  1  0  0  0  0
 11 12  1  0  0  0  0
 11 13  1  0  0  0  0
 11 14  1  0  0  0  0
  9 10  1  0  0  0  0
  9 11  1  0  0  0  0
  9 22  1  0  0  0  0
  7  8  1  0  0  0  0
  7  9  1  0  0  0  0
 26 27  1  0  0  0  0
 26 28  1  0  0  0  0
 26 29  1  0  0  0  0
 24 25  1  0  0  0  0
 24 26  1  0  0  0  0
M  END
$$$$
default_name
  -OEChem-02102213163D

 29 28  0     1  0  0  0  0  0999 V2000
   -3.3998   -3.6239    1.3678 H   0  0  0  0  0  0  0  0  0  0  0  0
   -3.3608   -2.6749    0.8348 C   0  0  0  0  0  0  0  0  0  0  0  0
   -4.0988   -1.9909    1.2498 H   0  0  0  0  0  0  0  0  0  0  0  0
   -3.5618   -2.8419   -0.2222 H   0  0  0  0  0  0  0  0  0  0  0  0
   -1.9818   -2.0809    0.9918 C   0  0  0  0  0  0  0  0  0  0  0  0
   -1.1288   -2.6669    1.6468 O   0  0  0  0  0  0  0  0  0  0  0  0
   -1.7648   -0.9089    0.3998 N   0  0  0  0  0  0  0  0  0  0  0  0
   -2.5238   -0.4719   -0.1032 H   0  0  0  0  0  0  0  0  0  0  0  0
   -0.4848   -0.1959    0.4138 C   0  0  1  0  0  0  0  0  0  0  0  0
    0.1386   -0.6144    1.2058 H   0  0  0  0  0  0  0  0  0  0  0  0
    0.2271   -0.4272   -0.9334 C   0  0  0  0  0  0  0  0  0  0  0  0
   -0.0782   -1.4016   -1.3203 H   0  0  0  0  0  0  0  0  0  0  0  0
   -0.0945    0.3373   -1.6423 H   0  0  0  0  0  0  0  0  0  0  0  0
    1.7626   -0.4028   -0.8382 C   0  0  0  0  0  0  0  0  0  0  0  0
    2.0674   -0.5007    0.2035 H   0  0  0  0  0  0  0  0  0  0  0  0
    2.1653   -1.2458   -1.3996 H   0  0  0  0  0  0  0  0  0  0  0  0
    2.3791    0.8818   -1.3918 C   0  0  0  0  0  0  0  0  0  0  0  0
    1.7280    1.7614   -1.9236 O   0  0  0  0  0  0  0  0  0  0  0  0
    3.6790    1.0502   -1.2816 N   0  0  0  0  0  0  0  0  0  0  0  0
    4.0303    1.9121   -1.6613 H   0  0  0  0  0  0  0  0  0  0  0  0
    4.2605    0.3602   -0.8510 H   0  0  0  0  0  0  0  0  0  0  0  0
   -0.7011    1.2952    0.7149 C   0  0  0  0  0  0  0  0  0  0  0  0
   -1.5917    1.9198    0.1415 O   0  0  0  0  0  0  0  0  0  0  0  0
    0.1191    1.8675    1.6055 N   0  0  0  0  0  0  0  0  0  0  0  0
    0.8092    1.2861    2.0537 H   0  0  0  0  0  0  0  0  0  0  0  0
    0.0509    3.2769    1.9894 C   0  0  0  0  0  0  0  0  0  0  0  0
   -0.9494    3.5076    2.3640 H   0  0  0  0  0  0  0  0  0  0  0  0
    0.7844    3.4956    2.7668 H   0  0  0  0  0  0  0  0  0  0  0  0
    0.2468    3.9058    1.1193 H   0  0  0  0  0  0  0  0  0  0  0  0
  5  6  2  0  0  0  0
  5  7  1  0  0  0  0
  2  3  1  0  0  0  0
  2  4  1  0  0  0  0
  2  5  1  0  0  0  0
  1  2  1  0  0  0  0
 22 23  2  0  0  0  0
 22 24  1  0  0  0  0
 19 20  1  0  0  0  0
 19 21  1  0  0  0  0
 17 18  2  0  0  0  0
 17 19  1  0  0  0  0
 14 15  1  0  0  0  0
 14 16  1  0  0  0  0
 14 17  1  0  0  0  0
 11 12  1  0  0  0  0
 11 13  1  0  0  0  0
 11 14  1  0  0  0  0
  9 10  1  0  0  0  0
  9 11  1  0  0  0  0
  9 22  1  0  0  0  0
  7  8  1  0  0  0  0
  7  9  1  0  0  0  0
 26 27  1  0  0  0  0
 26 28  1  0  0  0  0
 26 29  1  0  0  0  0
 24 25  1  0  0  0  0
 24 26  1  0  0  0  0
M  END
$$$$
default_name
  -OEChem-02102213163D

 29 28  0     1  0  0  0  0  0999 V2000
   -3.3998   -3.6239    1.3678 H   0  0  0  0  0  0  0  0  0  0  0  0
   -3.3608   -2.6749    0.8348 C   0  0  0  0  0  0  0  0  0  0  0  0
   -4.0988   -1.9909    1.2498 H   0  0  0  0  0  0  0  0  0  0  0  0
   -3.5618   -2.8419   -0.2222 H   0  0  0  0  0  0  0  0  0  0  0  0
   -1.9818   -2.0809    0.9918 C   0  0  0  0  0  0  0  0  0  0  0  0
   -1.1288   -2.6669    1.6468 O   0  0  0  0  0  0  0  0  0  0  0  0
   -1.7648   -0.9089    0.3998 N   0  0  0  0  0  0  0  0  0  0  0  0
   -2.5238   -0.4719   -0.1032 H   0  0  0  0  0  0  0  0  0  0  0  0
   -0.4848   -0.1959    0.4138 C   0  0  1  0  0  0  0  0  0  0  0  0
    0.1386   -0.6144    1.2058 H   0  0  0  0  0  0  0  0  0  0  0  0
    0.2271   -0.4272   -0.9334 C   0  0  0  0  0  0  0  0  0  0  0  0
   -0.0782   -1.4016   -1.3203 H   0  0  0  0  0  0  0  0  0  0  0  0
   -0.0945    0.3373   -1.6423 H   0  0  0  0  0  0  0  0  0  0  0  0
    1.7626   -0.4028   -0.8382 C   0  0  0  0  0  0  0  0  0  0  0  0
    2.0754   -0.7613    0.1422 H   0  0  0  0  0  0  0  0  0  0  0  0
    2.1748   -1.0655   -1.5991 H   0  0  0  0  0  0  0  0  0  0  0  0
    2.3557    0.9912   -1.0424 C   0  0  0  0  0  0  0  0  0  0  0  0
    1.6878    1.9674   -1.3276 O   0  0  0  0  0  0  0  0  0  0  0  0
    3.6535    1.1470   -0.8951 N   0  0  0  0  0  0  0  0  0  0  0  0
    3.9891    2.0834   -1.0399 H   0  0  0  0  0  0  0  0  0  0  0  0
    4.2482    0.3788   -0.6585 H   0  0  0  0  0  0  0  0  0  0  0  0
   -0.7011    1.2952    0.7149 C   0  0  0  0  0  0  0  0  0  0  0  0
   -1.5917    1.9198    0.1415 O   0  0  0  0  0  0  0  0  0  0  0  0
    0.1191    1.8675    1.6055 N   0  0  0  0  0  0  0  0  0  0  0  0
    0.8092    1.2861    2.0537 H   0  0  0  0  0  0  0  0  0  0  0  0
    0.0509    3.2769    1.9894 C   0  0  0  0  0  0  0  0  0  0  0  0
   -0.9494    3.5076    2.3640 H   0  0  0  0  0  0  0  0  0  0  0  0
    0.7844    3.4956    2.7668 H   0  0  0  0  0  0  0  0  0  0  0  0
    0.2468    3.9058    1.1193 H   0  0  0  0  0  0  0  0  0  0  0  0
  5  6  2  0  0  0  0
  5  7  1  0  0  0  0
  2  3  1  0  0  0  0
  2  4  1  0  0  0  0
  2  5  1  0  0  0  0
  1  2  1  0  0  0  0
 22 23  2  0  0  0  0
 22 24  1  0  0  0  0
 19 20  1  0  0  0  0
 19 21  1  0  0  0  0
 17 18  2  0  0  0  0
 17 19  1  0  0  0  0
 14 15  1  0  0  0  0
 14 16  1  0  0  0  0
 14 17  1  0  0  0  0
 11 12  1  0  0  0  0
 11 13  1  0  0  0  0
 11 14  1  0  0  0  0
  9 10  1  0  0  0  0
  9 11  1  0  0  0  0
  9 22  1  0  0  0  0
  7  8  1  0  0  0  0
  7  9  1  0  0  0  0
 26 27  1  0  0  0  0
 26 28  1  0  0  0  0
 26 29  1  0  0  0  0
 24 25  1  0  0  0  0
 24 26  1  0  0  0  0
M  END
$$$$
default_name
  -OEChem-02102213163D

 29 28  0     1  0  0  0  0  0999 V2000
   -3.3998   -3.6239    1.3678 H   0  0  0  0  0  0  0  0  0  0  0  0
   -3.3608   -2.6749    0.8348 C   0  0  0  0  0  0  0  0  0  0  0  0
   -4.0988   -1.9909    1.2498 H   0  0  0  0  0  0  0  0  0  0  0  0
   -3.5618   -2.8419   -0.2222 H   0  0  0  0  0  0  0  0  0  0  0  0
   -1.9818   -2.0809    0.9918 C   0  0  0  0  0  0  0  0  0  0  0  0
   -1.1288   -2.6669    1.6468 O   0  0  0  0  0  0  0  0  0  0  0  0
   -1.7648   -0.9089    0.3998 N   0  0  0  0  0  0  0  0  0  0  0  0
   -2.5238   -0.4719   -0.1032 H   0  0  0  0  0  0  0  0  0  0  0  0
   -0.4848   -0.1959    0.4138 C   0  0  1  0  0  0  0  0  0  0  0  0
    0.1386   -0.6144    1.2058 H   0  0  0  0  0  0  0  0  0  0  0  0
    0.2271   -0.4272   -0.9334 C   0  0  0  0  0  0  0  0  0  0  0  0
   -0.0782   -1.4016   -1.3203 H   0  0  0  0  0  0  0  0  0  0  0  0
   -0.0945    0.3373   -1.6423 H   0  0  0  0  0  0  0  0  0  0  0  0
    1.7626   -0.4028   -0.8382 C   0  0  0  0  0  0  0  0  0  0  0  0
    2.0870   -0.9971    0.0157 H   0  0  0  0  0  0  0  0  0  0  0  0
    2.1802   -0.8396   -1.7453 H   0  0  0  0  0  0  0  0  0  0  0  0
    2.3328    1.0062   -0.6766 C   0  0  0  0  0  0  0  0  0  0  0  0
    1.6481    2.0118   -0.6986 O   0  0  0  0  0  0  0  0  0  0  0  0
    3.6289    1.1401   -0.4966 N   0  0  0  0  0  0  0  0  0  0  0  0
    3.9491    2.0876   -0.3953 H   0  0  0  0  0  0  0  0  0  0  0  0
    4.2369    0.3469   -0.4677 H   0  0  0  0  0  0  0  0  0  0  0  0
   -0.7011    1.2952    0.7149 C   0  0  0  0  0  0  0  0  0  0  0  0
   -1.5917    1.9198    0.1415 O   0  0  0  0  0  0  0  0  0  0  0  0
    0.1191    1.8675    1.6055 N   0  0  0  0  0  0  0  0  0  0  0  0
    0.8092    1.2861    2.0537 H   0  0  0  0  0  0  0  0  0  0  0  0
    0.0509    3.2769    1.9894 C   0  0  0  0  0  0  0  0  0  0  0  0
   -0.9494    3.5076    2.3640 H   0  0  0  0  0  0  0  0  0  0  0  0
    0.7844    3.4956    2.7668 H   0  0  0  0  0  0  0  0  0  0  0  0
    0.2468    3.9058    1.1193 H   0  0  0  0  0  0  0  0  0  0  0  0
  5  6  2  0  0  0  0
  5  7  1  0  0  0  0
  2  3  1  0  0  0  0
  2  4  1  0  0  0  0
  2  5  1  0  0  0  0
  1  2  1  0  0  0  0
 22 23  2  0  0  0  0
 22 24  1  0  0  0  0
 19 20  1  0  0  0  0
 19 21  1  0  0  0  0
 17 18  2  0  0  0  0
 17 19  1  0  0  0  0
 14 15  1  0  0  0  0
 14 16  1  0  0  0  0
 14 17  1  0  0  0  0
 11 12  1  0  0  0  0
 11 13  1  0  0  0  0
 11 14  1  0  0  0  0
  9 10  1  0  0  0  0
  9 11  1  0  0  0  0
  9 22  1  0  0  0  0
  7  8  1  0  0  0  0
  7  9  1  0  0  0  0
 26 27  1  0  0  0  0
 26 28  1  0  0  0  0
 26 29  1  0  0  0  0
 24 25  1  0  0  0  0
 24 26  1  0  0  0  0
M  END
$$$$
default_name
  -OEChem-02102213163D

 29 28  0     1  0  0  0  0  0999 V2000
   -3.3998   -3.6239    1.3678 H   0  0  0  0  0  0  0  0  0  0  0  0
   -3.3608   -2.6749    0.8348 C   0  0  0  0  0  0  0  0  0  0  0  0
   -4.0988   -1.9909    1.2498 H   0  0  0  0  0  0  0  0  0  0  0  0
   -3.5618   -2.8419   -0.2222 H   0  0  0  0  0  0  0  0  0  0  0  0
   -1.9818   -2.0809    0.9918 C   0  0  0  0  0  0  0  0  0  0  0  0
   -1.1288   -2.6669    1.6468 O   0  0  0  0  0  0  0  0  0  0  0  0
   -1.7648   -0.9089    0.3998 N   0  0  0  0  0  0  0  0  0  0  0  0
   -2.5238   -0.4719   -0.1032 H   0  0  0  0  0  0  0  0  0  0  0  0
   -0.4848   -0.1959    0.4138 C   0  0  1  0  0  0  0  0  0  0  0  0
    0.1386   -0.6144    1.2058 H   0  0  0  0  0  0  0  0  0  0  0  0
    0.2271   -0.4272   -0.9334 C   0  0  0  0  0  0  0  0  0  0  0  0
   -0.0782   -1.4016   -1.3203 H   0  0  0  0  0  0  0  0  0  0  0  0
   -0.0945    0.3373   -1.6423 H   0  0  0  0  0  0  0  0  0  0  0  0
    1.7626   -0.4028   -0.8382 C   0  0  0  0  0  0  0  0  0  0  0  0
    2.1014   -1.1921   -0.1675 H   0  0  0  0  0  0  0  0  0  0  0  0
    2.1813   -0.5835   -1.8282 H   0  0  0  0  0  0  0  0  0  0  0  0
    2.3120    0.9259   -0.3192 C   0  0  0  0  0  0  0  0  0  0  0  0
    1.6116    1.8916   -0.0794 O   0  0  0  0  0  0  0  0  0  0  0  0
    3.6069    1.0302   -0.1134 N   0  0  0  0  0  0  0  0  0  0  0  0
    3.9130    1.9246    0.2286 H   0  0  0  0  0  0  0  0  0  0  0  0
    4.2273    0.2666   -0.2915 H   0  0  0  0  0  0  0  0  0  0  0  0
   -0.7011    1.2952    0.7149 C   0  0  0  0  0  0  0  0  0  0  0  0
   -1.5917    1.9198    0.1415 O   0  0  0  0  0  0  0  0  0  0  0  0
    0.1191    1.8675    1.6055 N   0  0  0  0  0  0  0  0  0  0  0  0
    0.8092    1.2861    2.0537 H   0  0  0  0  0  0  0  0  0  0  0  0
    0.0509    3.2769    1.9894 C   0  0  0  0  0  0  0  0  0  0  0  0
   -0.9494    3.5076    2.3640 H   0  0  0  0  0  0  0  0  0  0  0  0
    0.7844    3.4956    2.7668 H   0  0  0  0  0  0  0  0  0  0  0  0
    0.2468    3.9058    1.1193 H   0  0  0  0  0  0  0  0  0  0  0  0
  5  6  2  0  0  0  0
  5  7  1  0  0  0  0
  2  3  1  0  0  0  0
  2  4  1  0  0  0  0
  2  5  1  0  0  0  0
  1  2  1  0  0  0  0
 22 23  2  0  0  0  0
 22 24  1  0  0  0  0
 19 20  1  0  0  0  0
 19 21  1  0  0  0  0
 17 18  2  0  0  0  0
 17 19  1  0  0  0  0
 14 15  1  0  0  0  0
 14 16  1  0  0  0  0
 14 17  1  0  0  0  0
 11 12  1  0  0  0  0
 11 13  1  0  0  0  0
 11 14  1  0  0  0  0
  9 10  1  0  0  0  0
  9 11  1  0  0  0  0
  9 22  1  0  0  0  0
  7  8  1  0  0  0  0
  7  9  1  0  0  0  0
 26 27  1  0  0  0  0
 26 28  1  0  0  0  0
 26 29  1  0  0  0  0
 24 25  1  0  0  0  0
 24 26  1  0  0  0  0
M  END
$$$$
default_name
  -OEChem-02102213163D

 29 28  0     1  0  0  0  0  0999 V2000
   -3.3998   -3.6239    1.3678 H   0  0  0  0  0  0  0  0  0  0  0  0
   -3.3608   -2.6749    0.8348 C   0  0  0  0  0  0  0  0  0  0  0  0
   -4.0988   -1.9909    1.2498 H   0  0  0  0  0  0  0  0  0  0  0  0
   -3.5618   -2.8419   -0.2222 H   0  0  0  0  0  0  0  0  0  0  0  0
   -1.9818   -2.0809    0.9918 C   0  0  0  0  0  0  0  0  0  0  0  0
   -1.1288   -2.6669    1.6468 O   0  0  0  0  0  0  0  0  0  0  0  0
   -1.7648   -0.9089    0.3998 N   0  0  0  0  0  0  0  0  0  0  0  0
   -2.5238   -0.4719   -0.1032 H   0  0  0  0  0  0  0  0  0  0  0  0
   -0.4848   -0.1959    0.4138 C   0  0  1  0  0  0  0  0  0  0  0  0
    0.1386   -0.6144    1.2058 H   0  0  0  0  0  0  0  0  0  0  0  0
    0.2271   -0.4272   -0.9334 C   0  0  0  0  0  0  0  0  0  0  0  0
   -0.0782   -1.4016   -1.3203 H   0  0  0  0  0  0  0  0  0  0  0  0
   -0.0945    0.3373   -1.6423 H   0  0  0  0  0  0  0  0  0  0  0  0
    1.7626   -0.4028   -0.8382 C   0  0  0  0  0  0  0  0  0  0  0  0
    2.1177   -1.3328   -0.3948 H   0  0  0  0  0  0  0  0  0  0  0  0
    2.1779   -0.3148   -1.8421 H   0  0  0  0  0  0  0  0  0  0  0  0
    2.2945    0.7557    0.0053 C   0  0  0  0  0  0  0  0  0  0  0  0
    1.5808    1.6150    0.4879 O   0  0  0  0  0  0  0  0  0  0  0  0
    3.5890    0.8247    0.2285 N   0  0  0  0  0  0  0  0  0  0  0  0
    3.8833    1.6054    0.7893 H   0  0  0  0  0  0  0  0  0  0  0  0
    4.2200    0.1434   -0.1421 H   0  0  0  0  0  0  0  0  0  0  0  0
   -0.7011    1.2952    0.7149 C   0  0  0  0  0  0  0  0  0  0  0  0
   -1.5917    1.9198    0.1415 O   0  0  0  0  0  0  0  0  0  0  0  0
    0.1191    1.8675    1.6055 N   0  0  0  0  0  0  0  0  0  0  0  0
    0.8092    1.2861    2.0537 H   0  0  0  0  0  0  0  0  0  0  0  0
    0.0509    3.2769    1.9894 C   0  0  0  0  0  0  0  0  0  0  0  0
   -0.9494    3.5076    2.3640 H   0  0  0  0  0  0  0  0  0  0  0  0
    0.7844    3.4956    2.7668 H   0  0  0  0  0  0  0  0  0  0  0  0
    0.2468    3.9058    1.1193 H   0  0  0  0  0  0  0  0  0  0  0  0
  5  6  2  0  0  0  0
  5  7  1  0  0  0  0
  2  3  1  0  0  0  0
  2  4  1  0  0  0  0
  2  5  1  0  0  0  0
  1  2  1  0  0  0  0
 22 23  2  0  0  0  0
 22 24  1  0  0  0  0
 19 20  1  0  0  0  0
 19 21  1  0  0  0  0
 17 18  2  0  0  0  0
 17 19  1  0  0  0  0
 14 15  1  0  0  0  0
 14 16  1  0  0  0  0
 14 17  1  0  0  0  0
 11 12  1  0  0  0  0
 11 13  1  0  0  0  0
 11 14  1  0  0  0  0
  9 10  1  0  0  0  0
  9 11  1  0  0  0  0
  9 22  1  0  0  0  0
  7  8  1  0  0  0  0
  7  9  1  0  0  0  0
 26 27  1  0  0  0  0
 26 28  1  0  0  0  0
 26 29  1  0  0  0  0
 24 25  1  0  0  0  0
 24 26  1  0  0  0  0
M  END
$$$$
default_name
  -OEChem-02102213163D

 29 28  0     1  0  0  0  0  0999 V2000
   -3.3998   -3.6239    1.3678 H   0  0  0  0  0  0  0  0  0  0  0  0
   -3.3608   -2.6749    0.8348 C   0  0  0  0  0  0  0  0  0  0  0  0
   -4.0988   -1.9909    1.2498 H   0  0  0  0  0  0  0  0  0  0  0  0
   -3.5618   -2.8419   -0.2222 H   0  0  0  0  0  0  0  0  0  0  0  0
   -1.9818   -2.0809    0.9918 C   0  0  0  0  0  0  0  0  0  0  0  0
   -1.1288   -2.6669    1.6468 O   0  0  0  0  0  0  0  0  0  0  0  0
   -1.7648   -0.9089    0.3998 N   0  0  0  0  0  0  0  0  0  0  0  0
   -2.5238   -0.4719   -0.1032 H   0  0  0  0  0  0  0  0  0  0  0  0
   -0.4848   -0.1959    0.4138 C   0  0  1  0  0  0  0  0  0  0  0  0
    0.1386   -0.6144    1.2058 H   0  0  0  0  0  0  0  0  0  0  0  0
    0.2271   -0.4272   -0.9334 C   0  0  0  0  0  0  0  0  0  0  0  0
   -0.0782   -1.4016   -1.3203 H   0  0  0  0  0  0  0  0  0  0  0  0
   -0.0945    0.3373   -1.6423 H   0  0  0  0  0  0  0  0  0  0  0  0
    1.7626   -0.4028   -0.8382 C   0  0  0  0  0  0  0  0  0  0  0  0
    2.1348   -1.4097   -0.6508 H   0  0  0  0  0  0  0  0  0  0  0  0
    2.1702   -0.0517   -1.7862 H   0  0  0  0  0  0  0  0  0  0  0  0
    2.2818    0.5072    0.2749 C   0  0  0  0  0  0  0  0  0  0  0  0
    1.5579    1.2007    0.9645 O   0  0  0  0  0  0  0  0  0  0  0  0
    3.5764    0.5376    0.5057 N   0  0  0  0  0  0  0  0  0  0  0  0
    3.8621    1.1517    1.2486 H   0  0  0  0  0  0  0  0  0  0  0  0
    4.2155   -0.0143   -0.0296 H   0  0  0  0  0  0  0  0  0  0  0  0
   -0.7011    1.2952    0.7149 C   0  0  0  0  0  0  0  0  0  0  0  0
   -1.5917    1.9198    0.1415 O   0  0  0  0  0  0  0  0  0  0  0  0
    0.1191    1.8675    1.6055 N   0  0  0  0  0  0  0  0  0  0  0  0
    0.8092    1.2861    2.0537 H   0  0  0  0  0  0  0  0  0  0  0  0
    0.0509    3.2769    1.9894 C   0  0  0  0  0  0  0  0  0  0  0  0
   -0.9494    3.5076    2.3640 H   0  0  0  0  0  0  0  0  0  0  0  0
    0.7844    3.4956    2.7668 H   0  0  0  0  0  0  0  0  0  0  0  0
    0.2468    3.9058    1.1193 H   0  0  0  0  0  0  0  0  0  0  0  0
  5  6  2  0  0  0  0
  5  7  1  0  0  0  0
  2  3  1  0  0  0  0
  2  4  1  0  0  0  0
  2  5  1  0  0  0  0
  1  2  1  0  0  0  0
 22 23  2  0  0  0  0
 22 24  1  0  0  0  0
 19 20  1  0  0  0  0
 19 21  1  0  0  0  0
 17 18  2  0  0  0  0
 17 19  1  0  0  0  0
 14 15  1  0  0  0  0
 14 16  1  0  0  0  0
 14 17  1  0  0  0  0
 11 12  1  0  0  0  0
 11 13  1  0  0  0  0
 11 14  1  0  0  0  0
  9 10  1  0  0  0  0
  9 11  1  0  0  0  0
  9 22  1  0  0  0  0
  7  8  1  0  0  0  0
  7  9  1  0  0  0  0
 26 27  1  0  0  0  0
 26 28  1  0  0  0  0
 26 29  1  0  0  0  0
 24 25  1  0  0  0  0
 24 26  1  0  0  0  0
M  END
$$$$
default_name
  -OEChem-02102213163D

 29 28  0     1  0  0  0  0  0999 V2000
   -3.3998   -3.6239    1.3678 H   0  0  0  0  0  0  0  0  0  0  0  0
   -3.3608   -2.6749    0.8348 C   0  0  0  0  0  0  0  0  0  0  0  0
   -4.0988   -1.9909    1.2498 H   0  0  0  0  0  0  0  0  0  0  0  0
   -3.5618   -2.8419   -0.2222 H   0  0  0  0  0  0  0  0  0  0  0  0
   -1.9818   -2.0809    0.9918 C   0  0  0  0  0  0  0  0  0  0  0  0
   -1.1288   -2.6669    1.6468 O   0  0  0  0  0  0  0  0  0  0  0  0
   -1.7648   -0.9089    0.3998 N   0  0  0  0  0  0  0  0  0  0  0  0
   -2.5238   -0.4719   -0.1032 H   0  0  0  0  0  0  0  0  0  0  0  0
   -0.4848   -0.1959    0.4138 C   0  0  1  0  0  0  0  0  0  0  0  0
    0.1386   -0.6144    1.2058 H   0  0  0  0  0  0  0  0  0  0  0  0
    0.2271   -0.4272   -0.9334 C   0  0  0  0  0  0  0  0  0  0  0  0
   -0.0782   -1.4016   -1.3203 H   0  0  0  0  0  0  0  0  0  0  0  0
   -0.0945    0.3373   -1.6423 H   0  0  0  0  0  0  0  0  0  0  0  0
    1.7626   -0.4028   -0.8382 C   0  0  0  0  0  0  0  0  0  0  0  0
    2.1515   -1.4177   -0.9181 H   0  0  0  0  0  0  0  0  0  0  0  0
    2.1589    0.1879   -1.6641 H   0  0  0  0  0  0  0  0  0  0  0  0
    2.2745    0.1973    0.4711 C   0  0  0  0  0  0  0  0  0  0  0  0
    1.5443    0.6772    1.3179 O   0  0  0  0  0  0  0  0  0  0  0  0
    3.5699    0.1885    0.6994 N   0  0  0  0  0  0  0  0  0  0  0  0
    3.8507    0.5946    1.5751 H   0  0  0  0  0  0  0  0  0  0  0  0
    4.2142   -0.1958    0.0384 H   0  0  0  0  0  0  0  0  0  0  0  0
   -0.7011    1.2952    0.7149 C   0  0  0  0  0  0  0  0  0  0  0  0
   -1.5917    1.9198    0.1415 O   0  0  0  0  0  0  0  0  0  0  0  0
    0.1191    1.8675    1.6055 N   0  0  0  0  0  0  0  0  0  0  0  0
    0.8092    1.2861    2.0537 H   0  0  0  0  0  0  0  0  0  0  0  0
    0.0509    3.2769    1.9894 C   0  0  0  0  0  0  0  0  0  0  0  0
   -0.9494    3.5076    2.3640 H   0  0  0  0  0  0  0  0  0  0  0  0
    0.7844    3.4956    2.7668 H   0  0  0  0  0  0  0  0  0  0  0  0
    0.2468    3.9058    1.1193 H   0  0  0  0  0  0  0  0  0  0  0  0
  5  6  2  0  0  0  0
  5  7  1  0  0  0  0
  2  3  1  0  0  0  0
  2  4  1  0  0  0  0
  2  5  1  0  0  0  0
  1  2  1  0  0  0  0
 22 23  2  0  0  0  0
 22 24  1  0  0  0  0
 19 20  1  0  0  0  0
 19 21  1  0  0  0  0
 17 18  2  0  0  0  0
 17 19  1  0  0  0  0
 14 15  1  0  0  0  0
 14 16  1  0  0  0  0
 14 17  1  0  0  0  0
 11 12  1  0  0  0  0
 11 13  1  0  0  0  0
 11 14  1  0  0  0  0
  9 10  1  0  0  0  0
  9 11  1  0  0  0  0
  9 22  1  0  0  0  0
  7  8  1  0  0  0  0
  7  9  1  0  0  0  0
 26 27  1  0  0  0  0
 26 28  1  0  0  0  0
 26 29  1  0  0  0  0
 24 25  1  0  0  0  0
 24 26  1  0  0  0  0
M  END
$$$$
default_name
  -OEChem-02102213163D

 29 28  0     1  0  0  0  0  0999 V2000
   -3.3998   -3.6239    1.3678 H   0  0  0  0  0  0  0  0  0  0  0  0
   -3.3608   -2.6749    0.8348 C   0  0  0  0  0  0  0  0  0  0  0  0
   -4.0988   -1.9909    1.2498 H   0  0  0  0  0  0  0  0  0  0  0  0
   -3.5618   -2.8419   -0.2222 H   0  0  0  0  0  0  0  0  0  0  0  0
   -1.9818   -2.0809    0.9918 C   0  0  0  0  0  0  0  0  0  0  0  0
   -1.1288   -2.6669    1.6468 O   0  0  0  0  0  0  0  0  0  0  0  0
   -1.7648   -0.9089    0.3998 N   0  0  0  0  0  0  0  0  0  0  0  0
   -2.5238   -0.4719   -0.1032 H   0  0  0  0  0  0  0  0  0  0  0  0
   -0.4848   -0.1959    0.4138 C   0  0  1  0  0  0  0  0  0  0  0  0
    0.1386   -0.6144    1.2058 H   0  0  0  0  0  0  0  0  0  0  0  0
    0.2271   -0.4272   -0.9334 C   0  0  0  0  0  0  0  0  0  0  0  0
   -0.0782   -1.4016   -1.3203 H   0  0  0  0  0  0  0  0  0  0  0  0
   -0.0945    0.3373   -1.6423 H   0  0  0  0  0  0  0  0  0  0  0  0
    1.7626   -0.4028   -0.8382 C   0  0  0  0  0  0  0  0  0  0  0  0
    2.1667   -1.3560   -1.1783 H   0  0  0  0  0  0  0  0  0  0  0  0
    2.1446    0.3877   -1.4843 H   0  0  0  0  0  0  0  0  0  0  0  0
    2.2733   -0.1528    0.5807 C   0  0  0  0  0  0  0  0  0  0  0  0
    1.5410    0.0799    1.5241 O   0  0  0  0  0  0  0  0  0  0  0  0
    3.5701   -0.1988    0.7964 N   0  0  0  0  0  0  0  0  0  0  0  0
    3.8500   -0.0281    1.7466 H   0  0  0  0  0  0  0  0  0  0  0  0
    4.2161   -0.3887    0.0572 H   0  0  0  0  0  0  0  0  0  0  0  0
   -0.7011    1.2952    0.7149 C   0  0  0  0  0  0  0  0  0  0  0  0
   -1.5917    1.9198    0.1415 O   0  0  0  0  0  0  0  0  0  0  0  0
    0.1191    1.8675    1.6055 N   0  0  0  0  0  0  0  0  0  0  0  0
    0.8092    1.2861    2.0537 H   0  0  0  0  0  0  0  0  0  0  0  0
    0.0509    3.2769    1.9894 C   0  0  0  0  0  0  0  0  0  0  0  0
   -0.9494    3.5076    2.3640 H   0  0  0  0  0  0  0  0  0  0  0  0
    0.7844    3.4956    2.7668 H   0  0  0  0  0  0  0  0  0  0  0  0
    0.2468    3.9058    1.1193 H   0  0  0  0  0  0  0  0  0  0  0  0
  5  6  2  0  0  0  0
  5  7  1  0  0  0  0
  2  3  1  0  0  0  0
  2  4  1  0  0  0  0
  2  5  1  0  0  0  0
  1  2  1  0  0  0  0
 22 23  2  0  0  0  0
 22 24  1  0  0  0  0
 19 20  1  0  0  0  0
 19 21  1  0  0  0  0
 17 18  2  0  0  0  0
 17 19  1  0  0  0  0
 14 15  1  0  0  0  0
 14 16  1  0  0  0  0
 14 17  1  0  0  0  0
 11 12  1  0  0  0  0
 11 13  1  0  0  0  0
 11 14  1  0  0  0  0
  9 10  1  0  0  0  0
  9 11  1  0  0  0  0
  9 22  1  0  0  0  0
  7  8  1  0  0  0  0
  7  9  1  0  0  0  0
 26 27  1  0  0  0  0
 26 28  1  0  0  0  0
 26 29  1  0  0  0  0
 24 25  1  0  0  0  0
 24 26  1  0  0  0  0
M  END
$$$$
default_name
  -OEChem-02102213163D

 29 28  0     1  0  0  0  0  0999 V2000
   -3.3998   -3.6239    1.3678 H   0  0  0  0  0  0  0  0  0  0  0  0
   -3.3608   -2.6749    0.8348 C   0  0  0  0  0  0  0  0  0  0  0  0
   -4.0988   -1.9909    1.2498 H   0  0  0  0  0  0  0  0  0  0  0  0
   -3.5618   -2.8419   -0.2222 H   0  0  0  0  0  0  0  0  0  0  0  0
   -1.9818   -2.0809    0.9918 C   0  0  0  0  0  0  0  0  0  0  0  0
   -1.1288   -2.6669    1.6468 O   0  0  0  0  0  0  0  0  0  0  0  0
   -1.7648   -0.9089    0.3998 N   0  0  0  0  0  0  0  0  0  0  0  0
   -2.5238   -0.4719   -0.1032 H   0  0  0  0  0  0  0  0  0  0  0  0
   -0.4848   -0.1959    0.4138 C   0  0  1  0  0  0  0  0  0  0  0  0
    0.1386   -0.6144    1.2058 H   0  0  0  0  0  0  0  0  0  0  0  0
    0.2271   -0.4272   -0.9334 C   0  0  0  0  0  0  0  0  0  0  0  0
   -0.0782   -1.4016   -1.3203 H   0  0  0  0  0  0  0  0  0  0  0  0
   -0.0945    0.3373   -1.6423 H   0  0  0  0  0  0  0  0  0  0  0  0
    1.7626   -0.4028   -0.8382 C   0  0  0  0  0  0  0  0  0  0  0  0
    2.1793   -1.2291   -1.4138 H   0  0  0  0  0  0  0  0  0  0  0  0
    2.1283    0.5339   -1.2589 H   0  0  0  0  0  0  0  0  0  0  0  0
    2.2782   -0.5193    0.5961 C   0  0  0  0  0  0  0  0  0  0  0  0
    1.5482   -0.5503    1.5691 O   0  0  0  0  0  0  0  0  0  0  0  0
    3.5768   -0.5980    0.7899 N   0  0  0  0  0  0  0  0  0  0  0  0
    3.8599   -0.6739    1.7515 H   0  0  0  0  0  0  0  0  0  0  0  0
    4.2211   -0.5798    0.0255 H   0  0  0  0  0  0  0  0  0  0  0  0
   -0.7011    1.2952    0.7149 C   0  0  0  0  0  0  0  0  0  0  0  0
   -1.5917    1.9198    0.1415 O   0  0  0  0  0  0  0  0  0  0  0  0
    0.1191    1.8675    1.6055 N   0  0  0  0  0  0  0  0  0  0  0  0
    0.8092    1.2861    2.0537 H   0  0  0  0  0  0  0  0  0  0  0  0
    0.0509    3.2769    1.9894 C   0  0  0  0  0  0  0  0  0  0  0  0
   -0.9494    3.5076    2.3640 H   0  0  0  0  0  0  0  0  0  0  0  0
    0.7844    3.4956    2.7668 H   0  0  0  0  0  0  0  0  0  0  0  0
    0.2468    3.9058    1.1193 H   0  0  0  0  0  0  0  0  0  0  0  0
  5  6  2  0  0  0  0
  5  7  1  0  0  0  0
  2  3  1  0  0  0  0
  2  4  1  0  0  0  0
  2  5  1  0  0  0  0
  1  2  1  0  0  0  0
 22 23  2  0  0  0  0
 22 24  1  0  0  0  0
 19 20  1  0  0  0  0
 19 21  1  0  0  0  0
 17 18  2  0  0  0  0
 17 19  1  0  0  0  0
 14 15  1  0  0  0  0
 14 16  1  0  0  0  0
 14 17  1  0  0  0  0
 11 12  1  0  0  0  0
 11 13  1  0  0  0  0
 11 14  1  0  0  0  0
  9 10  1  0  0  0  0
  9 11  1  0  0  0  0
  9 22  1  0  0  0  0
  7  8  1  0  0  0  0
  7  9  1  0  0  0  0
 26 27  1  0  0  0  0
 26 28  1  0  0  0  0
 26 29  1  0  0  0  0
 24 25  1  0  0  0  0
 24 26  1  0  0  0  0
M  END
$$$$
default_name
  -OEChem-02102213163D

 29 28  0     1  0  0  0  0  0999 V2000
   -3.3998   -3.6239    1.3678 H   0  0  0  0  0  0  0  0  0  0  0  0
   -3.3608   -2.6749    0.8348 C   0  0  0  0  0  0  0  0  0  0  0  0
   -4.0988   -1.9909    1.2498 H   0  0  0  0  0  0  0  0  0  0  0  0
   -3.5618   -2.8419   -0.2222 H   0  0  0  0  0  0  0  0  0  0  0  0
   -1.9818   -2.0809    0.9918 C   0  0  0  0  0  0  0  0  0  0  0  0
   -1.1288   -2.6669    1.6468 O   0  0  0  0  0  0  0  0  0  0  0  0
   -1.7648   -0.9089    0.3998 N   0  0  0  0  0  0  0  0  0  0  0  0
   -2.5238   -0.4719   -0.1032 H   0  0  0  0  0  0  0  0  0  0  0  0
   -0.4848   -0.1959    0.4138 C   0  0  1  0  0  0  0  0  0  0  0  0
    0.1386   -0.6144    1.2058 H   0  0  0  0  0  0  0  0  0  0  0  0
    0.2271   -0.4272   -0.9334 C   0  0  0  0  0  0  0  0  0  0  0  0
   -0.0782   -1.4016   -1.3203 H   0  0  0  0  0  0  0  0  0  0  0  0
   -0.0945    0.3373   -1.6423 H   0  0  0  0  0  0  0  0  0  0  0  0
    1.7626   -0.4028   -0.8382 C   0  0  0  0  0  0  0  0  0  0  0  0
    2.1884   -1.0454   -1.6086 H   0  0  0  0  0  0  0  0  0  0  0  0
    2.1111    0.6167   -1.0034 H   0  0  0  0  0  0  0  0  0  0  0  0
    2.2888   -0.8772    0.5162 C   0  0  0  0  0  0  0  0  0  0  0  0
    1.5655   -1.1705    1.4497 O   0  0  0  0  0  0  0  0  0  0  0  0
    3.5897   -0.9818    0.6806 N   0  0  0  0  0  0  0  0  0  0  0  0
    3.8799   -1.2987    1.5894 H   0  0  0  0  0  0  0  0  0  0  0  0
    4.2288   -0.7562   -0.0544 H   0  0  0  0  0  0  0  0  0  0  0  0
   -0.7011    1.2952    0.7149 C   0  0  0  0  0  0  0  0  0  0  0  0
   -1.5917    1.9198    0.1415 O   0  0  0  0  0  0  0  0  0  0  0  0
    0.1191    1.8675    1.6055 N   0  0  0  0  0  0  0  0  0  0  0  0
    0.8092    1.2861    2.0537 H   0  0  0  0  0  0  0  0  0  0  0  0
    0.0509    3.2769    1.9894 C   0  0  0  0  0  0  0  0  0  0  0  0
   -0.9494    3.5076    2.3640 H   0  0  0  0  0  0  0  0  0  0  0  0
    0.7844    3.4956    2.7668 H   0  0  0  0  0  0  0  0  0  0  0  0
    0.2468    3.9058    1.1193 H   0  0  0  0  0  0  0  0  0  0  0  0
  5  6  2  0  0  0  0
  5  7  1  0  0  0  0
  2  3  1  0  0  0  0
  2  4  1  0  0  0  0
  2  5  1  0  0  0  0
  1  2  1  0  0  0  0
 22 23  2  0  0  0  0
 22 24  1  0  0  0  0
 19 20  1  0  0  0  0
 19 21  1  0  0  0  0
 17 18  2  0  0  0  0
 17 19  1  0  0  0  0
 14 15  1  0  0  0  0
 14 16  1  0  0  0  0
 14 17  1  0  0  0  0
 11 12  1  0  0  0  0
 11 13  1  0  0  0  0
 11 14  1  0  0  0  0
  9 10  1  0  0  0  0
  9 11  1  0  0  0  0
  9 22  1  0  0  0  0
  7  8  1  0  0  0  0
  7  9  1  0  0  0  0
 26 27  1  0  0  0  0
 26 28  1  0  0  0  0
 26 29  1  0  0  0  0
 24 25  1  0  0  0  0
 24 26  1  0  0  0  0
M  END
$$$$
default_name
  -OEChem-02102213163D

 29 28  0     1  0  0  0  0  0999 V2000
   -3.3998   -3.6239    1.3678 H   0  0  0  0  0  0  0  0  0  0  0  0
   -3.3608   -2.6749    0.8348 C   0  0  0  0  0  0  0  0  0  0  0  0
   -4.0988   -1.9909    1.2498 H   0  0  0  0  0  0  0  0  0  0  0  0
   -3.5618   -2.8419   -0.2222 H   0  0  0  0  0  0  0  0  0  0  0  0
   -1.9818   -2.0809    0.9918 C   0  0  0  0  0  0  0  0  0  0  0  0
   -1.1288   -2.6669    1.6468 O   0  0  0  0  0  0  0  0  0  0  0  0
   -1.7648   -0.9089    0.3998 N   0  0  0  0  0  0  0  0  0  0  0  0
   -2.5238   -0.4719   -0.1032 H   0  0  0  0  0  0  0  0  0  0  0  0
   -0.4848   -0.1959    0.4138 C   0  0  1  0  0  0  0  0  0  0  0  0
    0.1386   -0.6144    1.2058 H   0  0  0  0  0  0  0  0  0  0  0  0
    0.2271   -0.4272   -0.9334 C   0  0  0  0  0  0  0  0  0  0  0  0
   -0.0782   -1.4016   -1.3203 H   0  0  0  0  0  0  0  0  0  0  0  0
   -0.0945    0.3373   -1.6423 H   0  0  0  0  0  0  0  0  0  0  0  0
    1.7626   -0.4028   -0.8382 C   0  0  0  0  0  0  0  0  0  0  0  0
    2.1935   -0.8175   -1.7493 H   0  0  0  0  0  0  0  0  0  0  0  0
    2.0943    0.6304   -0.7352 H   0  0  0  0  0  0  0  0  0  0  0  0
    2.3045   -1.2022    0.3466 C   0  0  0  0  0  0  0  0  0  0  0  0
    1.5916   -1.7385    1.1741 O   0  0  0  0  0  0  0  0  0  0  0  0
    3.6078   -1.3241    0.4758 N   0  0  0  0  0  0  0  0  0  0  0  0
    3.9085   -1.8601    1.2713 H   0  0  0  0  0  0  0  0  0  0  0  0
    4.2388   -0.9057   -0.1773 H   0  0  0  0  0  0  0  0  0  0  0  0
   -0.7011    1.2952    0.7149 C   0  0  0  0  0  0  0  0  0  0  0  0
   -1.5917    1.9198    0.1415 O   0  0  0  0  0  0  0  0  0  0  0  0
    0.1191    1.8675    1.6055 N   0  0  0  0  0  0  0  0  0  0  0  0
    0.8092    1.2861    2.0537 H   0  0  0  0  0  0  0  0  0  0  0  0
    0.0509    3.2769    1.9894 C   0  0  0  0  0  0  0  0  0  0  0  0
   -0.9494    3.5076    2.3640 H   0  0  0  0  0  0  0  0  0  0  0  0
    0.7844    3.4956    2.7668 H   0  0  0  0  0  0  0  0  0  0  0  0
    0.2468    3.9058    1.1193 H   0  0  0  0  0  0  0  0  0  0  0  0
  5  6  2  0  0  0  0
  5  7  1  0  0  0  0
  2  3  1  0  0  0  0
  2  4  1  0  0  0  0
  2  5  1  0  0  0  0
  1  2  1  0  0  0  0
 22 23  2  0  0  0  0
 22 24  1  0  0  0  0
 19 20  1  0  0  0  0
 19 21  1  0  0  0  0
 17 18  2  0  0  0  0
 17 19  1  0  0  0  0
 14 15  1  0  0  0  0
 14 16  1  0  0  0  0
 14 17  1  0  0  0  0
 11 12  1  0  0  0  0
 11 13  1  0  0  0  0
 11 14  1  0  0  0  0
  9 10  1  0  0  0  0
  9 11  1  0  0  0  0
  9 22  1  0  0  0  0
  7  8  1  0  0  0  0
  7  9  1  0  0  0  0
 26 27  1  0  0  0  0
 26 28  1  0  0  0  0
 26 29  1  0  0  0  0
 24 25  1  0  0  0  0
 24 26  1  0  0  0  0
M  END
$$$$
default_name
  -OEChem-02102213163D

 29 28  0     1  0  0  0  0  0999 V2000
   -3.3998   -3.6239    1.3678 H   0  0  0  0  0  0  0  0  0  0  0  0
   -3.3608   -2.6749    0.8348 C   0  0  0  0  0  0  0  0  0  0  0  0
   -4.0988   -1.9909    1.2498 H   0  0  0  0  0  0  0  0  0  0  0  0
   -3.5618   -2.8419   -0.2222 H   0  0  0  0  0  0  0  0  0  0  0  0
   -1.9818   -2.0809    0.9918 C   0  0  0  0  0  0  0  0  0  0  0  0
   -1.1288   -2.6669    1.6468 O   0  0  0  0  0  0  0  0  0  0  0  0
   -1.7648   -0.9089    0.3998 N   0  0  0  0  0  0  0  0  0  0  0  0
   -2.5238   -0.4719   -0.1032 H   0  0  0  0  0  0  0  0  0  0  0  0
   -0.4848   -0.1959    0.4138 C   0  0  1  0  0  0  0  0  0  0  0  0
    0.1386   -0.6144    1.2058 H   0  0  0  0  0  0  0  0  0  0  0  0
    0.2271   -0.4272   -0.9334 C   0  0  0  0  0  0  0  0  0  0  0  0
   -0.0782   -1.4016   -1.3203 H   0  0  0  0  0  0  0  0  0  0  0  0
   -0.0945    0.3373   -1.6423 H   0  0  0  0  0  0  0  0  0  0  0  0
    1.7626   -0.4028   -0.8382 C   0  0  0  0  0  0  0  0  0  0  0  0
    2.1942   -0.5609   -1.8264 H   0  0  0  0  0  0  0  0  0  0  0  0
    2.0789    0.5740   -0.4724 H   0  0  0  0  0  0  0  0  0  0  0  0
    2.3242   -1.4720    0.0988 C   0  0  0  0  0  0  0  0  0  0  0  0
    1.6248   -2.2155    0.7611 O   0  0  0  0  0  0  0  0  0  0  0  0
    3.6300   -1.6015    0.1895 N   0  0  0  0  0  0  0  0  0  0  0  0
    3.9439   -2.3198    0.8189 H   0  0  0  0  0  0  0  0  0  0  0  0
    4.2504   -1.0183   -0.3346 H   0  0  0  0  0  0  0  0  0  0  0  0
   -0.7011    1.2952    0.7149 C   0  0  0  0  0  0  0  0  0  0  0  0
   -1.5917    1.9198    0.1415 O   0  0  0  0  0  0  0  0  0  0  0  0
    0.1191    1.8675    1.6055 N   0  0  0  0  0  0  0  0  0  0  0  0
    0.8092    1.2861    2.0537 H   0  0  0  0  0  0  0  0  0  0  0  0
    0.0509    3.2769    1.9894 C   0  0  0  0  0  0  0  0  0  0  0  0
   -0.9494    3.5076    2.3640 H   0  0  0  0  0  0  0  0  0  0  0  0
    0.7844    3.4956    2.7668 H   0  0  0  0  0  0  0  0  0  0  0  0
    0.2468    3.9058    1.1193 H   0  0  0  0  0  0  0  0  0  0  0  0
  5  6  2  0  0  0  0
  5  7  1  0  0  0  0
  2  3  1  0  0  0  0
  2  4  1  0  0  0  0
  2  5  1  0  0  0  0
  1  2  1  0  0  0  0
 22 23  2  0  0  0  0
 22 24  1  0  0  0  0
 19 20  1  0  0  0  0
 19 21  1  0  0  0  0
 17 18  2  0  0  0  0
 17 19  1  0  0  0  0
 14 15  1  0  0  0  0
 14 16  1  0  0  0  0
 14 17  1  0  0  0  0
 11 12  1  0  0  0  0
 11 13  1  0  0  0  0
 11 14  1  0  0  0  0
  9 10  1  0  0  0  0
  9 11  1  0  0  0  0
  9 22  1  0  0  0  0
  7  8  1  0  0  0  0
  7  9  1  0  0  0  0
 26 27  1  0  0  0  0
 26 28  1  0  0  0  0
 26 29  1  0  0  0  0
 24 25  1  0  0  0  0
 24 26  1  0  0  0  0
M  END
$$$$
default_name
  -OEChem-02102213163D

 29 28  0     1  0  0  0  0  0999 V2000
   -3.3998   -3.6239    1.3678 H   0  0  0  0  0  0  0  0  0  0  0  0
   -3.3608   -2.6749    0.8348 C   0  0  0  0  0  0  0  0  0  0  0  0
   -4.0988   -1.9909    1.2498 H   0  0  0  0  0  0  0  0  0  0  0  0
   -3.5618   -2.8419   -0.2222 H   0  0  0  0  0  0  0  0  0  0  0  0
   -1.9818   -2.0809    0.9918 C   0  0  0  0  0  0  0  0  0  0  0  0
   -1.1288   -2.6669    1.6468 O   0  0  0  0  0  0  0  0  0  0  0  0
   -1.7648   -0.9089    0.3998 N   0  0  0  0  0  0  0  0  0  0  0  0
   -2.5238   -0.4719   -0.1032 H   0  0  0  0  0  0  0  0  0  0  0  0
   -0.4848   -0.1959    0.4138 C   0  0  1  0  0  0  0  0  0  0  0  0
    0.1386   -0.6144    1.2058 H   0  0  0  0  0  0  0  0  0  0  0  0
    0.2271   -0.4272   -0.9334 C   0  0  0  0  0  0  0  0  0  0  0  0
   -0.0782   -1.4016   -1.3203 H   0  0  0  0  0  0  0  0  0  0  0  0
   -0.0945    0.3373   -1.6423 H   0  0  0  0  0  0  0  0  0  0  0  0
    1.7626   -0.4028   -0.8382 C   0  0  0  0  0  0  0  0  0  0  0  0
    2.1905   -0.2932   -1.8345 H   0  0  0  0  0  0  0  0  0  0  0  0
    2.0660    0.4515   -0.2331 H   0  0  0  0  0  0  0  0  0  0  0  0
    2.3464   -1.6683   -0.2103 C   0  0  0  0  0  0  0  0  0  0  0  0
    1.6628   -2.5691    0.2388 O   0  0  0  0  0  0  0  0  0  0  0  0
    3.6547   -1.7952   -0.1588 N   0  0  0  0  0  0  0  0  0  0  0  0
    3.9835   -2.6463    0.2631 H   0  0  0  0  0  0  0  0  0  0  0  0
    4.2627   -1.0863   -0.5157 H   0  0  0  0  0  0  0  0  0  0  0  0
   -0.7011    1.2952    0.7149 C   0  0  0  0  0  0  0  0  0  0  0  0
   -1.5917    1.9198    0.1415 O   0  0  0  0  0  0  0  0  0  0  0  0
    0.1191    1.8675    1.6055 N   0  0  0  0  0  0  0  0  0  0  0  0
    0.8092    1.2861    2.0537 H   0  0  0  0  0  0  0  0  0  0  0  0
    0.0509    3.2769    1.9894 C   0  0  0  0  0  0  0  0  0  0  0  0
   -0.9494    3.5076    2.3640 H   0  0  0  0  0  0  0  0  0  0  0  0
    0.7844    3.4956    2.7668 H   0  0  0  0  0  0  0  0  0  0  0  0
    0.2468    3.9058    1.1193 H   0  0  0  0  0  0  0  0  0  0  0  0
  5  6  2  0  0  0  0
  5  7  1  0  0  0  0
  2  3  1  0  0  0  0
  2  4  1  0  0  0  0
  2  5  1  0  0  0  0
  1  2  1  0  0  0  0
 22 23  2  0  0  0  0
 22 24  1  0  0  0  0
 19 20  1  0  0  0  0
 19 21  1  0  0  0  0
 17 18  2  0  0  0  0
 17 19  1  0  0  0  0
 14 15  1  0  0  0  0
 14 16  1  0  0  0  0
 14 17  1  0  0  0  0
 11 12  1  0  0  0  0
 11 13  1  0  0  0  0
 11 14  1  0  0  0  0
  9 10  1  0  0  0  0
  9 11  1  0  0  0  0
  9 22  1  0  0  0  0
  7  8  1  0  0  0  0
  7  9  1  0  0  0  0
 26 27  1  0  0  0  0
 26 28  1  0  0  0  0
 26 29  1  0  0  0  0
 24 25  1  0  0  0  0
 24 26  1  0  0  0  0
M  END
$$$$
default_name
  -OEChem-02102213163D

 29 28  0     1  0  0  0  0  0999 V2000
   -3.3998   -3.6239    1.3678 H   0  0  0  0  0  0  0  0  0  0  0  0
   -3.3608   -2.6749    0.8348 C   0  0  0  0  0  0  0  0  0  0  0  0
   -4.0988   -1.9909    1.2498 H   0  0  0  0  0  0  0  0  0  0  0  0
   -3.5618   -2.8419   -0.2222 H   0  0  0  0  0  0  0  0  0  0  0  0
   -1.9818   -2.0809    0.9918 C   0  0  0  0  0  0  0  0  0  0  0  0
   -1.1288   -2.6669    1.6468 O   0  0  0  0  0  0  0  0  0  0  0  0
   -1.7648   -0.9089    0.3998 N   0  0  0  0  0  0  0  0  0  0  0  0
   -2.5238   -0.4719   -0.1032 H   0  0  0  0  0  0  0  0  0  0  0  0
   -0.4848   -0.1959    0.4138 C   0  0  1  0  0  0  0  0  0  0  0  0
    0.1386   -0.6144    1.2058 H   0  0  0  0  0  0  0  0  0  0  0  0
    0.2271   -0.4272   -0.9334 C   0  0  0  0  0  0  0  0  0  0  0  0
   -0.0782   -1.4016   -1.3203 H   0  0  0  0  0  0  0  0  0  0  0  0
   -0.0945    0.3373   -1.6423 H   0  0  0  0  0  0  0  0  0  0  0  0
    1.7626   -0.4028   -0.8382 C   0  0  0  0  0  0  0  0  0  0  0  0
    2.1825   -0.0326   -1.7733 H   0  0  0  0  0  0  0  0  0  0  0  0
    2.0565    0.2712   -0.0336 H   0  0  0  0  0  0  0  0  0  0  0  0
    2.3698   -1.7777   -0.5597 C   0  0  0  0  0  0  0  0  0  0  0  0
    1.7030   -2.7751   -0.3572 O   0  0  0  0  0  0  0  0  0  0  0  0
    3.6802   -1.8920   -0.5453 N   0  0  0  0  0  0  0  0  0  0  0  0
    4.0248   -2.8176   -0.3583 H   0  0  0  0  0  0  0  0  0  0  0  0
    4.2749   -1.1049   -0.7082 H   0  0  0  0  0  0  0  0  0  0  0  0
   -0.7011    1.2952    0.7149 C   0  0  0  0  0  0  0  0  0  0  0  0
   -1.5917    1.9198    0.1415 O   0  0  0  0  0  0  0  0  0  0  0  0
    0.1191    1.8675    1.6055 N   0  0  0  0  0  0  0  0  0  0  0  0
    0.8092    1.2861    2.0537 H   0  0  0  0  0  0  0  0  0  0  0  0
    0.0509    3.2769    1.9894 C   0  0  0  0  0  0  0  0  0  0  0  0
   -0.9494    3.5076    2.3640 H   0  0  0  0  0  0  0  0  0  0  0  0
    0.7844    3.4956    2.7668 H   0  0  0  0  0  0  0  0  0  0  0  0
    0.2468    3.9058    1.1193 H   0  0  0  0  0  0  0  0  0  0  0  0
  5  6  2  0  0  0  0
  5  7  1  0  0  0  0
  2  3  1  0  0  0  0
  2  4  1  0  0  0  0
  2  5  1  0  0  0  0
  1  2  1  0  0  0  0
 22 23  2  0  0  0  0
 22 24  1  0  0  0  0
 19 20  1  0  0  0  0
 19 21  1  0  0  0  0
 17 18  2  0  0  0  0
 17 19  1  0  0  0  0
 14 15  1  0  0  0  0
 14 16  1  0  0  0  0
 14 17  1  0  0  0  0
 11 12  1  0  0  0  0
 11 13  1  0  0  0  0
 11 14  1  0  0  0  0
  9 10  1  0  0  0  0
  9 11  1  0  0  0  0
  9 22  1  0  0  0  0
  7  8  1  0  0  0  0
  7  9  1  0  0  0  0
 26 27  1  0  0  0  0
 26 28  1  0  0  0  0
 26 29  1  0  0  0  0
 24 25  1  0  0  0  0
 24 26  1  0  0  0  0
M  END
$$$$
default_name
  -OEChem-02102213163D

 29 28  0     1  0  0  0  0  0999 V2000
   -3.3998   -3.6239    1.3678 H   0  0  0  0  0  0  0  0  0  0  0  0
   -3.3608   -2.6749    0.8348 C   0  0  0  0  0  0  0  0  0  0  0  0
   -4.0988   -1.9909    1.2498 H   0  0  0  0  0  0  0  0  0  0  0  0
   -3.5618   -2.8419   -0.2222 H   0  0  0  0  0  0  0  0  0  0  0  0
   -1.9818   -2.0809    0.9918 C   0  0  0  0  0  0  0  0  0  0  0  0
   -1.1288   -2.6669    1.6468 O   0  0  0  0  0  0  0  0  0  0  0  0
   -1.7648   -0.9089    0.3998 N   0  0  0  0  0  0  0  0  0  0  0  0
   -2.5238   -0.4719   -0.1032 H   0  0  0  0  0  0  0  0  0  0  0  0
   -0.4848   -0.1959    0.4138 C   0  0  1  0  0  0  0  0  0  0  0  0
    0.1386   -0.6144    1.2058 H   0  0  0  0  0  0  0  0  0  0  0  0
    0.2271   -0.4272   -0.9334 C   0  0  0  0  0  0  0  0  0  0  0  0
   -0.0782   -1.4016   -1.3203 H   0  0  0  0  0  0  0  0  0  0  0  0
   -0.0945    0.3373   -1.6423 H   0  0  0  0  0  0  0  0  0  0  0  0
    1.7626   -0.4028   -0.8382 C   0  0  0  0  0  0  0  0  0  0  0  0
    2.1709    0.2032   -1.6467 H   0  0  0  0  0  0  0  0  0  0  0  0
    2.0510    0.0453    0.1126 H   0  0  0  0  0  0  0  0  0  0  0  0
    2.3927   -1.7927   -0.9255 C   0  0  0  0  0  0  0  0  0  0  0  0
    1.7427   -2.8195   -0.9862 O   0  0  0  0  0  0  0  0  0  0  0  0
    3.7048   -1.8851   -0.9438 N   0  0  0  0  0  0  0  0  0  0  0  0
    4.0648   -2.8218   -1.0030 H   0  0  0  0  0  0  0  0  0  0  0  0
    4.2862   -1.0730   -0.8990 H   0  0  0  0  0  0  0  0  0  0  0  0
   -0.7011    1.2952    0.7149 C   0  0  0  0  0  0  0  0  0  0  0  0
   -1.5917    1.9198    0.1415 O   0  0  0  0  0  0  0  0  0  0  0  0
    0.1191    1.8675    1.6055 N   0  0  0  0  0  0  0  0  0  0  0  0
    0.8092    1.2861    2.0537 H   0  0  0  0  0  0  0  0  0  0  0  0
    0.0509    3.2769    1.9894 C   0  0  0  0  0  0  0  0  0  0  0  0
   -0.9494    3.5076    2.3640 H   0  0  0  0  0  0  0  0  0  0  0  0
    0.7844    3.4956    2.7668 H   0  0  0  0  0  0  0  0  0  0  0  0
    0.2468    3.9058    1.1193 H   0  0  0  0  0  0  0  0  0  0  0  0
  5  6  2  0  0  0  0
  5  7  1  0  0  0  0
  2  3  1  0  0  0  0
  2  4  1  0  0  0  0
  2  5  1  0  0  0  0
  1  2  1  0  0  0  0
 22 23  2  0  0  0  0
 22 24  1  0  0  0  0
 19 20  1  0  0  0  0
 19 21  1  0  0  0  0
 17 18  2  0  0  0  0
 17 19  1  0  0  0  0
 14 15  1  0  0  0  0
 14 16  1  0  0  0  0
 14 17  1  0  0  0  0
 11 12  1  0  0  0  0
 11 13  1  0  0  0  0
 11 14  1  0  0  0  0
  9 10  1  0  0  0  0
  9 11  1  0  0  0  0
  9 22  1  0  0  0  0
  7  8  1  0  0  0  0
  7  9  1  0  0  0  0
 26 27  1  0  0  0  0
 26 28  1  0  0  0  0
 26 29  1  0  0  0  0
 24 25  1  0  0  0  0
 24 26  1  0  0  0  0
M  END
$$$$
default_name
  -OEChem-02102213163D

 29 28  0     1  0  0  0  0  0999 V2000
   -3.3998   -3.6239    1.3678 H   0  0  0  0  0  0  0  0  0  0  0  0
   -3.3608   -2.6749    0.8348 C   0  0  0  0  0  0  0  0  0  0  0  0
   -4.0988   -1.9909    1.2498 H   0  0  0  0  0  0  0  0  0  0  0  0
   -3.5618   -2.8419   -0.2222 H   0  0  0  0  0  0  0  0  0  0  0  0
   -1.9818   -2.0809    0.9918 C   0  0  0  0  0  0  0  0  0  0  0  0
   -1.1288   -2.6669    1.6468 O   0  0  0  0  0  0  0  0  0  0  0  0
   -1.7648   -0.9089    0.3998 N   0  0  0  0  0  0  0  0  0  0  0  0
   -2.5238   -0.4719   -0.1032 H   0  0  0  0  0  0  0  0  0  0  0  0
   -0.4848   -0.1959    0.4138 C   0  0  1  0  0  0  0  0  0  0  0  0
    0.1386   -0.6144    1.2058 H   0  0  0  0  0  0  0  0  0  0  0  0
    0.2271   -0.4272   -0.9334 C   0  0  0  0  0  0  0  0  0  0  0  0
   -0.0782   -1.4016   -1.3203 H   0  0  0  0  0  0  0  0  0  0  0  0
   -0.0945    0.3373   -1.6423 H   0  0  0  0  0  0  0  0  0  0  0  0
    1.7626   -0.4028   -0.8382 C   0  0  0  0  0  0  0  0  0  0  0  0
    2.1565    0.3982   -1.4636 H   0  0  0  0  0  0  0  0  0  0  0  0
    2.0500   -0.2108    0.1955 H   0  0  0  0  0  0  0  0  0  0  0  0
    2.4136   -1.7124   -1.2829 C   0  0  0  0  0  0  0  0  0  0  0  0
    1.7792   -2.6993   -1.6055 O   0  0  0  0  0  0  0  0  0  0  0  0
    3.7268   -1.7752   -1.3271 N   0  0  0  0  0  0  0  0  0  0  0  0
    4.1009   -2.6588   -1.6269 H   0  0  0  0  0  0  0  0  0  0  0  0
    4.2959   -0.9927   -1.0752 H   0  0  0  0  0  0  0  0  0  0  0  0
   -0.7011    1.2952    0.7149 C   0  0  0  0  0  0  0  0  0  0  0  0
   -1.5917    1.9198    0.1415 O   0  0  0  0  0  0  0  0  0  0  0  0
    0.1191    1.8675    1.6055 N   0  0  0  0  0  0  0  0  0  0  0  0
    0.8092    1.2861    2.0537 H   0  0  0  0  0  0  0  0  0  0  0  0
    0.0509    3.2769    1.9894 C   0  0  0  0  0  0  0  0  0  0  0  0
   -0.9494    3.5076    2.3640 H   0  0  0  0  0  0  0  0  0  0  0  0
    0.7844    3.4956    2.7668 H   0  0  0  0  0  0  0  0  0  0  0  0
    0.2468    3.9058    1.1193 H   0  0  0  0  0  0  0  0  0  0  0  0
  5  6  2  0  0  0  0
  5  7  1  0  0  0  0
  2  3  1  0  0  0  0
  2  4  1  0  0  0  0
  2  5  1  0  0  0  0
  1  2  1  0  0  0  0
 22 23  2  0  0  0  0
 22 24  1  0  0  0  0
 19 20  1  0  0  0  0
 19 21  1  0  0  0  0
 17 18  2  0  0  0  0
 17 19  1  0  0  0  0
 14 15  1  0  0  0  0
 14 16  1  0  0  0  0
 14 17  1  0  0  0  0
 11 12  1  0  0  0  0
 11 13  1  0  0  0  0
 11 14  1  0  0  0  0
  9 10  1  0  0  0  0
  9 11  1  0  0  0  0
  9 22  1  0  0  0  0
  7  8  1  0  0  0  0
  7  9  1  0  0  0  0
 26 27  1  0  0  0  0
 26 28  1  0  0  0  0
 26 29  1  0  0  0  0
 24 25  1  0  0  0  0
 24 26  1  0  0  0  0
M  END
$$$$
default_name
  -OEChem-02102213163D

 29 28  0     1  0  0  0  0  0999 V2000
   -3.3998   -3.6239    1.3678 H   0  0  0  0  0  0  0  0  0  0  0  0
   -3.3608   -2.6749    0.8348 C   0  0  0  0  0  0  0  0  0  0  0  0
   -4.0988   -1.9909    1.2498 H   0  0  0  0  0  0  0  0  0  0  0  0
   -3.5618   -2.8419   -0.2222 H   0  0  0  0  0  0  0  0  0  0  0  0
   -1.9818   -2.0809    0.9918 C   0  0  0  0  0  0  0  0  0  0  0  0
   -1.1288   -2.6669    1.6468 O   0  0  0  0  0  0  0  0  0  0  0  0
   -1.7648   -0.9089    0.3998 N   0  0  0  0  0  0  0  0  0  0  0  0
   -2.5238   -0.4719   -0.1032 H   0  0  0  0  0  0  0  0  0  0  0  0
   -0.4848   -0.1959    0.4138 C   0  0  1  0  0  0  0  0  0  0  0  0
    0.1386   -0.6144    1.2058 H   0  0  0  0  0  0  0  0  0  0  0  0
    0.2271   -0.4272   -0.9334 C   0  0  0  0  0  0  0  0  0  0  0  0
   -0.0782   -1.4016   -1.3203 H   0  0  0  0  0  0  0  0  0  0  0  0
   -0.0945    0.3373   -1.6423 H   0  0  0  0  0  0  0  0  0  0  0  0
    1.7626   -0.4028   -0.8382 C   0  0  0  0  0  0  0  0  0  0  0  0
    2.1401    0.5389   -1.2362 H   0  0  0  0  0  0  0  0  0  0  0  0
    2.0534   -0.4795    0.2094 H   0  0  0  0  0  0  0  0  0  0  0  0
    2.4310   -1.5422   -1.6074 C   0  0  0  0  0  0  0  0  0  0  0  0
    1.8099   -2.4226   -2.1727 O   0  0  0  0  0  0  0  0  0  0  0  0
    3.7447   -1.5697   -1.6689 N   0  0  0  0  0  0  0  0  0  0  0  0
    4.1305   -2.3396   -2.1876 H   0  0  0  0  0  0  0  0  0  0  0  0
    4.3032   -0.8695   -1.2246 H   0  0  0  0  0  0  0  0  0  0  0  0
   -0.7011    1.2952    0.7149 C   0  0  0  0  0  0  0  0  0  0  0  0
   -1.5917    1.9198    0.1415 O   0  0  0  0  0  0  0  0  0  0  0  0
    0.1191    1.8675    1.6055 N   0  0  0  0  0  0  0  0  0  0  0  0
    0.8092    1.2861    2.0537 H   0  0  0  0  0  0  0  0  0  0  0  0
    0.0509    3.2769    1.9894 C   0  0  0  0  0  0  0  0  0  0  0  0
   -0.9494    3.5076    2.3640 H   0  0  0  0  0  0  0  0  0  0  0  0
    0.7844    3.4956    2.7668 H   0  0  0  0  0  0  0  0  0  0  0  0
    0.2468    3.9058    1.1193 H   0  0  0  0  0  0  0  0  0  0  0  0
  5  6  2  0  0  0  0
  5  7  1  0  0  0  0
  2  3  1  0  0  0  0
  2  4  1  0  0  0  0
  2  5  1  0  0  0  0
  1  2  1  0  0  0  0
 22 23  2  0  0  0  0
 22 24  1  0  0  0  0
 19 20  1  0  0  0  0
 19 21  1  0  0  0  0
 17 18  2  0  0  0  0
 17 19  1  0  0  0  0
 14 15  1  0  0  0  0
 14 16  1  0  0  0  0
 14 17  1  0  0  0  0
 11 12  1  0  0  0  0
 11 13  1  0  0  0  0
 11 14  1  0  0  0  0
  9 10  1  0  0  0  0
  9 11  1  0  0  0  0
  9 22  1  0  0  0  0
  7  8  1  0  0  0  0
  7  9  1  0  0  0  0
 26 27  1  0  0  0  0
 26 28  1  0  0  0  0
 26 29  1  0  0  0  0
 24 25  1  0  0  0  0
 24 26  1  0  0  0  0
M  END
$$$$
default_name
  -OEChem-02102213163D

 29 28  0     1  0  0  0  0  0999 V2000
   -3.3998   -3.6239    1.3678 H   0  0  0  0  0  0  0  0  0  0  0  0
   -3.3608   -2.6749    0.8348 C   0  0  0  0  0  0  0  0  0  0  0  0
   -4.0988   -1.9909    1.2498 H   0  0  0  0  0  0  0  0  0  0  0  0
   -3.5618   -2.8419   -0.2222 H   0  0  0  0  0  0  0  0  0  0  0  0
   -1.9818   -2.0809    0.9918 C   0  0  0  0  0  0  0  0  0  0  0  0
   -1.1288   -2.6669    1.6468 O   0  0  0  0  0  0  0  0  0  0  0  0
   -1.7648   -0.9089    0.3998 N   0  0  0  0  0  0  0  0  0  0  0  0
   -2.5238   -0.4719   -0.1032 H   0  0  0  0  0  0  0  0  0  0  0  0
   -0.4848   -0.1959    0.4138 C   0  0  1  0  0  0  0  0  0  0  0  0
    0.1386   -0.6144    1.2058 H   0  0  0  0  0  0  0  0  0  0  0  0
    0.2271   -0.4272   -0.9334 C   0  0  0  0  0  0  0  0  0  0  0  0
   -0.0782   -1.4016   -1.3203 H   0  0  0  0  0  0  0  0  0  0  0  0
   -0.0945    0.3373   -1.6423 H   0  0  0  0  0  0  0  0  0  0  0  0
    1.7626   -0.4028   -0.8382 C   0  0  0  0  0  0  0  0  0  0  0  0
    2.1230    0.6158   -0.9802 H   0  0  0  0  0  0  0  0  0  0  0  0
    2.0610   -0.7427    0.1534 H   0  0  0  0  0  0  0  0  0  0  0  0
    2.4438   -1.2937   -1.8770 C   0  0  0  0  0  0  0  0  0  0  0  0
    1.8329   -2.0084   -2.6493 O   0  0  0  0  0  0  0  0  0  0  0  0
    3.7573   -1.2826   -1.9462 N   0  0  0  0  0  0  0  0  0  0  0  0
    4.1518   -1.8859   -2.6468 H   0  0  0  0  0  0  0  0  0  0  0  0
    4.3076   -0.7118   -1.3371 H   0  0  0  0  0  0  0  0  0  0  0  0
   -0.7011    1.2952    0.7149 C   0  0  0  0  0  0  0  0  0  0  0  0
   -1.5917    1.9198    0.1415 O   0  0  0  0  0  0  0  0  0  0  0  0
    0.1191    1.8675    1.6055 N   0  0  0  0  0  0  0  0  0  0  0  0
    0.8092    1.2861    2.0537 H   0  0  0  0  0  0  0  0  0  0  0  0
    0.0509    3.2769    1.9894 C   0  0  0  0  0  0  0  0  0  0  0  0
   -0.9494    3.5076    2.3640 H   0  0  0  0  0  0  0  0  0  0  0  0
    0.7844    3.4956    2.7668 H   0  0  0  0  0  0  0  0  0  0  0  0
    0.2468    3.9058    1.1193 H   0  0  0  0  0  0  0  0  0  0  0  0
  5  6  2  0  0  0  0
  5  7  1  0  0  0  0
  2  3  1  0  0  0  0
  2  4  1  0  0  0  0
  2  5  1  0  0  0  0
  1  2  1  0  0  0  0
 22 23  2  0  0  0  0
 22 24  1  0  0  0  0
 19 20  1  0  0  0  0
 19 21  1  0  0  0  0
 17 18  2  0  0  0  0
 17 19  1  0  0  0  0
 14 15  1  0  0  0  0
 14 16  1  0  0  0  0
 14 17  1  0  0  0  0
 11 12  1  0  0  0  0
 11 13  1  0  0  0  0
 11 14  1  0  0  0  0
  9 10  1  0  0  0  0
  9 11  1  0  0  0  0
  9 22  1  0  0  0  0
  7  8  1  0  0  0  0
  7  9  1  0  0  0  0
 26 27  1  0  0  0  0
 26 28  1  0  0  0  0
 26 29  1  0  0  0  0
 24 25  1  0  0  0  0
 24 26  1  0  0  0  0
M  END
$$$$
default_name
  -OEChem-02102213163D

 29 28  0     1  0  0  0  0  0999 V2000
   -3.3998   -3.6239    1.3678 H   0  0  0  0  0  0  0  0  0  0  0  0
   -3.3608   -2.6749    0.8348 C   0  0  0  0  0  0  0  0  0  0  0  0
   -4.0988   -1.9909    1.2498 H   0  0  0  0  0  0  0  0  0  0  0  0
   -3.5618   -2.8419   -0.2222 H   0  0  0  0  0  0  0  0  0  0  0  0
   -1.9818   -2.0809    0.9918 C   0  0  0  0  0  0  0  0  0  0  0  0
   -1.1288   -2.6669    1.6468 O   0  0  0  0  0  0  0  0  0  0  0  0
   -1.7648   -0.9089    0.3998 N   0  0  0  0  0  0  0  0  0  0  0  0
   -2.5238   -0.4719   -0.1032 H   0  0  0  0  0  0  0  0  0  0  0  0
   -0.4848   -0.1959    0.4138 C   0  0  1  0  0  0  0  0  0  0  0  0
    0.1386   -0.6144    1.2058 H   0  0  0  0  0  0  0  0  0  0  0  0
    0.2271   -0.4272   -0.9334 C   0  0  0  0  0  0  0  0  0  0  0  0
   -0.0782   -1.4016   -1.3203 H   0  0  0  0  0  0  0  0  0  0  0  0
   -0.0945    0.3373   -1.6423 H   0  0  0  0  0  0  0  0  0  0  0  0
    1.7626   -0.4028   -0.8382 C   0  0  0  0  0  0  0  0  0  0  0  0
    2.1064    0.6238   -0.7130 H   0  0  0  0  0  0  0  0  0  0  0  0
    2.0724   -0.9823    0.0314 H   0  0  0  0  0  0  0  0  0  0  0  0
    2.4510   -0.9838   -2.0732 C   0  0  0  0  0  0  0  0  0  0  0  0
    1.8465   -1.4848   -3.0027 O   0  0  0  0  0  0  0  0  0  0  0  0
    3.7638   -0.9335   -2.1398 N   0  0  0  0  0  0  0  0  0  0  0  0
    4.1632   -1.3288   -2.9733 H   0  0  0  0  0  0  0  0  0  0  0  0
    4.3090   -0.5303   -1.4051 H   0  0  0  0  0  0  0  0  0  0  0  0
   -0.7011    1.2952    0.7149 C   0  0  0  0  0  0  0  0  0  0  0  0
   -1.5917    1.9198    0.1415 O   0  0  0  0  0  0  0  0  0  0  0  0
    0.1191    1.8675    1.6055 N   0  0  0  0  0  0  0  0  0  0  0  0
    0.8092    1.2861    2.0537 H   0  0  0  0  0  0  0  0  0  0  0  0
    0.0509    3.2769    1.9894 C   0  0  0  0  0  0  0  0  0  0  0  0
   -0.9494    3.5076    2.3640 H   0  0  0  0  0  0  0  0  0  0  0  0
    0.7844    3.4956    2.7668 H   0  0  0  0  0  0  0  0  0  0  0  0
    0.2468    3.9058    1.1193 H   0  0  0  0  0  0  0  0  0  0  0  0
  5  6  2  0  0  0  0
  5  7  1  0  0  0  0
  2  3  1  0  0  0  0
  2  4  1  0  0  0  0
  2  5  1  0  0  0  0
  1  2  1  0  0  0  0
 22 23  2  0  0  0  0
 22 24  1  0  0  0  0
 19 20  1  0  0  0  0
 19 21  1  0  0  0  0
 17 18  2  0  0  0  0
 17 19  1  0  0  0  0
 14 15  1  0  0  0  0
 14 16  1  0  0  0  0
 14 17  1  0  0  0  0
 11 12  1  0  0  0  0
 11 13  1  0  0  0  0
 11 14  1  0  0  0  0
  9 10  1  0  0  0  0
  9 11  1  0  0  0  0
  9 22  1  0  0  0  0
  7  8  1  0  0  0  0
  7  9  1  0  0  0  0
 26 27  1  0  0  0  0
 26 28  1  0  0  0  0
 26 29  1  0  0  0  0
 24 25  1  0  0  0  0
 24 26  1  0  0  0  0
M  END
$$$$
default_name
  -OEChem-02102213163D

 29 28  0     1  0  0  0  0  0999 V2000
   -3.3998   -3.6239    1.3678 H   0  0  0  0  0  0  0  0  0  0  0  0
   -3.3608   -2.6749    0.8348 C   0  0  0  0  0  0  0  0  0  0  0  0
   -4.0988   -1.9909    1.2498 H   0  0  0  0  0  0  0  0  0  0  0  0
   -3.5618   -2.8419   -0.2222 H   0  0  0  0  0  0  0  0  0  0  0  0
   -1.9818   -2.0809    0.9918 C   0  0  0  0  0  0  0  0  0  0  0  0
   -1.1288   -2.6669    1.6468 O   0  0  0  0  0  0  0  0  0  0  0  0
   -1.7648   -0.9089    0.3998 N   0  0  0  0  0  0  0  0  0  0  0  0
   -2.5238   -0.4719   -0.1032 H   0  0  0  0  0  0  0  0  0  0  0  0
   -0.4848   -0.1959    0.4138 C   0  0  1  0  0  0  0  0  0  0  0  0
    0.1386   -0.6144    1.2058 H   0  0  0  0  0  0  0  0  0  0  0  0
    0.2271   -0.4272   -0.9334 C   0  0  0  0  0  0  0  0  0  0  0  0
   -0.2679   -1.2548   -1.4457 H   0  0  0  0  0  0  0  0  0  0  0  0
    0.1226    0.4669   -1.5499 H   0  0  0  0  0  0  0  0  0  0  0  0
    1.7219   -0.7656   -0.7975 C   0  0  0  0  0  0  0  0  0  0  0  0
    2.2375    0.0477   -0.2872 H   0  0  0  0  0  0  0  0  0  0  0  0
    1.8266   -1.6723   -0.2017 H   0  0  0  0  0  0  0  0  0  0  0  0
    2.4121   -0.9917   -2.1425 C   0  0  0  0  0  0  0  0  0  0  0  0
    1.8229   -0.9813   -3.2071 O   0  0  0  0  0  0  0  0  0  0  0  0
    3.7107   -1.2007   -2.1524 N   0  0  0  0  0  0  0  0  0  0  0  0
    4.1123   -1.3423   -3.0630 H   0  0  0  0  0  0  0  0  0  0  0  0
    4.2436   -1.2167   -1.3065 H   0  0  0  0  0  0  0  0  0  0  0  0
   -0.7011    1.2952    0.7149 C   0  0  0  0  0  0  0  0  0  0  0  0
   -1.5917    1.9198    0.1415 O   0  0  0  0  0  0  0  0  0  0  0  0
    0.1191    1.8675    1.6055 N   0  0  0  0  0  0  0  0  0  0  0  0
    0.8092    1.2861    2.0537 H   0  0  0  0  0  0  0  0  0  0  0  0
    0.0509    3.2769    1.9894 C   0  0  0  0  0  0  0  0  0  0  0  0
   -0.9494    3.5076    2.3640 H   0  0  0  0  0  0  0  0  0  0  0  0
    0.7844    3.4956    2.7668 H   0  0  0  0  0  0  0  0  0  0  0  0
    0.2468    3.9058    1.1193 H   0  0  0  0  0  0  0  0  0  0  0  0
  5  6  2  0  0  0  0
  5  7  1  0  0  0  0
  2  3  1  0  0  0  0
  2  4  1  0  0  0  0
  2  5  1  0  0  0  0
  1  2  1  0  0  0  0
 22 23  2  0  0  0  0
 22 24  1  0  0  0  0
 19 20  1  0  0  0  0
 19 21  1  0  0  0  0
 17 18  2  0  0  0  0
 17 19  1  0  0  0  0
 14 15  1  0  0  0  0
 14 16  1  0  0  0  0
 14 17  1  0  0  0  0
 11 12  1  0  0  0  0
 11 13  1  0  0  0  0
 11 14  1  0  0  0  0
  9 10  1  0  0  0  0
  9 11  1  0  0  0  0
  9 22  1  0  0  0  0
  7  8  1  0  0  0  0
  7  9  1  0  0  0  0
 26 27  1  0  0  0  0
 26 28  1  0  0  0  0
 26 29  1  0  0  0  0
 24 25  1  0  0  0  0
 24 26  1  0  0  0  0
M  END
$$$$
default_name
  -OEChem-02102213163D

 29 28  0     1  0  0  0  0  0999 V2000
   -3.3998   -3.6239    1.3678 H   0  0  0  0  0  0  0  0  0  0  0  0
   -3.3608   -2.6749    0.8348 C   0  0  0  0  0  0  0  0  0  0  0  0
   -4.0988   -1.9909    1.2498 H   0  0  0  0  0  0  0  0  0  0  0  0
   -3.5618   -2.8419   -0.2222 H   0  0  0  0  0  0  0  0  0  0  0  0
   -1.9818   -2.0809    0.9918 C   0  0  0  0  0  0  0  0  0  0  0  0
   -1.1288   -2.6669    1.6468 O   0  0  0  0  0  0  0  0  0  0  0  0
   -1.7648   -0.9089    0.3998 N   0  0  0  0  0  0  0  0  0  0  0  0
   -2.5238   -0.4719   -0.1032 H   0  0  0  0  0  0  0  0  0  0  0  0
   -0.4848   -0.1959    0.4138 C   0  0  1  0  0  0  0  0  0  0  0  0
    0.1386   -0.6144    1.2058 H   0  0  0  0  0  0  0  0  0  0  0  0
    0.2271   -0.4272   -0.9334 C   0  0  0  0  0  0  0  0  0  0  0  0
   -0.2679   -1.2548   -1.4457 H   0  0  0  0  0  0  0  0  0  0  0  0
    0.1226    0.4669   -1.5499 H   0  0  0  0  0  0  0  0  0  0  0  0
    1.7219   -0.7656   -0.7975 C   0  0  0  0  0  0  0  0  0  0  0  0
    2.1844   -0.0993   -0.0696 H   0  0  0  0  0  0  0  0  0  0  0  0
    1.8216   -1.7914   -0.4430 H   0  0  0  0  0  0  0  0  0  0  0  0
    2.4902   -0.6345   -2.1125 C   0  0  0  0  0  0  0  0  0  0  0  0
    1.9593   -0.3653   -3.1737 O   0  0  0  0  0  0  0  0  0  0  0  0
    3.7932   -0.8140   -2.0967 N   0  0  0  0  0  0  0  0  0  0  0  0
    4.2474   -0.7152   -2.9880 H   0  0  0  0  0  0  0  0  0  0  0  0
    4.2799   -1.0344   -1.2515 H   0  0  0  0  0  0  0  0  0  0  0  0
   -0.7011    1.2952    0.7149 C   0  0  0  0  0  0  0  0  0  0  0  0
   -1.5917    1.9198    0.1415 O   0  0  0  0  0  0  0  0  0  0  0  0
    0.1191    1.8675    1.6055 N   0  0  0  0  0  0  0  0  0  0  0  0
    0.8092    1.2861    2.0537 H   0  0  0  0  0  0  0  0  0  0  0  0
    0.0509    3.2769    1.9894 C   0  0  0  0  0  0  0  0  0  0  0  0
   -0.9494    3.5076    2.3640 H   0  0  0  0  0  0  0  0  0  0  0  0
    0.7844    3.4956    2.7668 H   0  0  0  0  0  0  0  0  0  0  0  0
    0.2468    3.9058    1.1193 H   0  0  0  0  0  0  0  0  0  0  0  0
  5  6  2  0  0  0  0
  5  7  1  0  0  0  0
  2  3  1  0  0  0  0
  2  4  1  0  0  0  0
  2  5  1  0  0  0  0
  1  2  1  0  0  0  0
 22 23  2  0  0  0  0
 22 24  1  0  0  0  0
 19 20  1  0  0  0  0
 19 21  1  0  0  0  0
 17 18  2  0  0  0  0
 17 19  1  0  0  0  0
 14 15  1  0  0  0  0
 14 16  1  0  0  0  0
 14 17  1  0  0  0  0
 11 12  1  0  0  0  0
 11 13  1  0  0  0  0
 11 14  1  0  0  0  0
  9 10  1  0  0  0  0
  9 11  1  0  0  0  0
  9 22  1  0  0  0  0
  7  8  1  0  0  0  0
  7  9  1  0  0  0  0
 26 27  1  0  0  0  0
 26 28  1  0  0  0  0
 26 29  1  0  0  0  0
 24 25  1  0  0  0  0
 24 26  1  0  0  0  0
M  END
$$$$
default_name
  -OEChem-02102213163D

 29 28  0     1  0  0  0  0  0999 V2000
   -3.3998   -3.6239    1.3678 H   0  0  0  0  0  0  0  0  0  0  0  0
   -3.3608   -2.6749    0.8348 C   0  0  0  0  0  0  0  0  0  0  0  0
   -4.0988   -1.9909    1.2498 H   0  0  0  0  0  0  0  0  0  0  0  0
   -3.5618   -2.8419   -0.2222 H   0  0  0  0  0  0  0  0  0  0  0  0
   -1.9818   -2.0809    0.9918 C   0  0  0  0  0  0  0  0  0  0  0  0
   -1.1288   -2.6669    1.6468 O   0  0  0  0  0  0  0  0  0  0  0  0
   -1.7648   -0.9089    0.3998 N   0  0  0  0  0  0  0  0  0  0  0  0
   -2.5238   -0.4719   -0.1032 H   0  0  0  0  0  0  0  0  0  0  0  0
   -0.4848   -0.1959    0.4138 C   0  0  1  0  0  0  0  0  0  0  0  0
    0.1386   -0.6144    1.2058 H   0  0  0  0  0  0  0  0  0  0  0  0
    0.2271   -0.4272   -0.9334 C   0  0  0  0  0  0  0  0  0  0  0  0
   -0.2679   -1.2548   -1.4457 H   0  0  0  0  0  0  0  0  0  0  0  0
    0.1226    0.4669   -1.5499 H   0  0  0  0  0  0  0  0  0  0  0  0
    1.7219   -0.7656   -0.7975 C   0  0  0  0  0  0  0  0  0  0  0  0
    2.1241   -0.2971    0.1006 H   0  0  0  0  0  0  0  0  0  0  0  0
    1.8332   -1.8460   -0.7063 H   0  0  0  0  0  0  0  0  0  0  0  0
    2.5558   -0.2953   -1.9892 C   0  0  0  0  0  0  0  0  0  0  0  0
    2.0751    0.2245   -2.9788 O   0  0  0  0  0  0  0  0  0  0  0  0
    3.8608   -0.4526   -1.9410 N   0  0  0  0  0  0  0  0  0  0  0  0
    4.3593   -0.1252   -2.7501 H   0  0  0  0  0  0  0  0  0  0  0  0
    4.3076   -0.8713   -1.1505 H   0  0  0  0  0  0  0  0  0  0  0  0
   -0.7011    1.2952    0.7149 C   0  0  0  0  0  0  0  0  0  0  0  0
   -1.5917    1.9198    0.1415 O   0  0  0  0  0  0  0  0  0  0  0  0
    0.1191    1.8675    1.6055 N   0  0  0  0  0  0  0  0  0  0  0  0
    0.8092    1.2861    2.0537 H   0  0  0  0  0  0  0  0  0  0  0  0
    0.0509    3.2769    1.9894 C   0  0  0  0  0  0  0  0  0  0  0  0
   -0.9494    3.5076    2.3640 H   0  0  0  0  0  0  0  0  0  0  0  0
    0.7844    3.4956    2.7668 H   0  0  0  0  0  0  0  0  0  0  0  0
    0.2468    3.9058    1.1193 H   0  0  0  0  0  0  0  0  0  0  0  0
  5  6  2  0  0  0  0
  5  7  1  0  0  0  0
  2  3  1  0  0  0  0
  2  4  1  0  0  0  0
  2  5  1  0  0  0  0
  1  2  1  0  0  0  0
 22 23  2  0  0  0  0
 22 24  1  0  0  0  0
 19 20  1  0  0  0  0
 19 21  1  0  0  0  0
 17 18  2  0  0  0  0
 17 19  1  0  0  0  0
 14 15  1  0  0  0  0
 14 16  1  0  0  0  0
 14 17  1  0  0  0  0
 11 12  1  0  0  0  0
 11 13  1  0  0  0  0
 11 14  1  0  0  0  0
  9 10  1  0  0  0  0
  9 11  1  0  0  0  0
  9 22  1  0  0  0  0
  7  8  1  0  0  0  0
  7  9  1  0  0  0  0
 26 27  1  0  0  0  0
 26 28  1  0  0  0  0
 26 29  1  0  0  0  0
 24 25  1  0  0  0  0
 24 26  1  0  0  0  0
M  END
$$$$
default_name
  -OEChem-02102213163D

 29 28  0     1  0  0  0  0  0999 V2000
   -3.3998   -3.6239    1.3678 H   0  0  0  0  0  0  0  0  0  0  0  0
   -3.3608   -2.6749    0.8348 C   0  0  0  0  0  0  0  0  0  0  0  0
   -4.0988   -1.9909    1.2498 H   0  0  0  0  0  0  0  0  0  0  0  0
   -3.5618   -2.8419   -0.2222 H   0  0  0  0  0  0  0  0  0  0  0  0
   -1.9818   -2.0809    0.9918 C   0  0  0  0  0  0  0  0  0  0  0  0
   -1.1288   -2.6669    1.6468 O   0  0  0  0  0  0  0  0  0  0  0  0
   -1.7648   -0.9089    0.3998 N   0  0  0  0  0  0  0  0  0  0  0  0
   -2.5238   -0.4719   -0.1032 H   0  0  0  0  0  0  0  0  0  0  0  0
   -0.4848   -0.1959    0.4138 C   0  0  1  0  0  0  0  0  0  0  0  0
    0.1386   -0.6144    1.2058 H   0  0  0  0  0  0  0  0  0  0  0  0
    0.2271   -0.4272   -0.9334 C   0  0  0  0  0  0  0  0  0  0  0  0
   -0.2679   -1.2548   -1.4457 H   0  0  0  0  0  0  0  0  0  0  0  0
    0.1226    0.4669   -1.5499 H   0  0  0  0  0  0  0  0  0  0  0  0
    1.7219   -0.7656   -0.7975 C   0  0  0  0  0  0  0  0  0  0  0  0
    2.0607   -0.5325    0.2117 H   0  0  0  0  0  0  0  0  0  0  0  0
    1.8606   -1.8322   -0.9737 H   0  0  0  0  0  0  0  0  0  0  0  0
    2.6044    0.0029   -1.7810 C   0  0  0  0  0  0  0  0  0  0  0  0
    2.1623    0.7478   -2.6356 O   0  0  0  0  0  0  0  0  0  0  0  0
    3.9091   -0.1411   -1.6958 N   0  0  0  0  0  0  0  0  0  0  0  0
    4.4404    0.3874   -2.3657 H   0  0  0  0  0  0  0  0  0  0  0  0
    4.3249   -0.7386   -1.0104 H   0  0  0  0  0  0  0  0  0  0  0  0
   -0.7011    1.2952    0.7149 C   0  0  0  0  0  0  0  0  0  0  0  0
   -1.5917    1.9198    0.1415 O   0  0  0  0  0  0  0  0  0  0  0  0
    0.1191    1.8675    1.6055 N   0  0  0  0  0  0  0  0  0  0  0  0
    0.8092    1.2861    2.0537 H   0  0  0  0  0  0  0  0  0  0  0  0
    0.0509    3.2769    1.9894 C   0  0  0  0  0  0  0  0  0  0  0  0
   -0.9494    3.5076    2.3640 H   0  0  0  0  0  0  0  0  0  0  0  0
    0.7844    3.4956    2.7668 H   0  0  0  0  0  0  0  0  0  0  0  0
    0.2468    3.9058    1.1193 H   0  0  0  0  0  0  0  0  0  0  0  0
  5  6  2  0  0  0  0
  5  7  1  0  0  0  0
  2  3  1  0  0  0  0
  2  4  1  0  0  0  0
  2  5  1  0  0  0  0
  1  2  1  0  0  0  0
 22 23  2  0  0  0  0
 22 24  1  0  0  0  0
 19 20  1  0  0  0  0
 19 21  1  0  0  0  0
 17 18  2  0  0  0  0
 17 19  1  0  0  0  0
 14 15  1  0  0  0  0
 14 16  1  0  0  0  0
 14 17  1  0  0  0  0
 11 12  1  0  0  0  0
 11 13  1  0  0  0  0
 11 14  1  0  0  0  0
  9 10  1  0  0  0  0
  9 11  1  0  0  0  0
  9 22  1  0  0  0  0
  7  8  1  0  0  0  0
  7  9  1  0  0  0  0
 26 27  1  0  0  0  0
 26 28  1  0  0  0  0
 26 29  1  0  0  0  0
 24 25  1  0  0  0  0
 24 26  1  0  0  0  0
M  END
$$$$
default_name
  -OEChem-02102213163D

 29 28  0     1  0  0  0  0  0999 V2000
   -3.3998   -3.6239    1.3678 H   0  0  0  0  0  0  0  0  0  0  0  0
   -3.3608   -2.6749    0.8348 C   0  0  0  0  0  0  0  0  0  0  0  0
   -4.0988   -1.9909    1.2498 H   0  0  0  0  0  0  0  0  0  0  0  0
   -3.5618   -2.8419   -0.2222 H   0  0  0  0  0  0  0  0  0  0  0  0
   -1.9818   -2.0809    0.9918 C   0  0  0  0  0  0  0  0  0  0  0  0
   -1.1288   -2.6669    1.6468 O   0  0  0  0  0  0  0  0  0  0  0  0
   -1.7648   -0.9089    0.3998 N   0  0  0  0  0  0  0  0  0  0  0  0
   -2.5238   -0.4719   -0.1032 H   0  0  0  0  0  0  0  0  0  0  0  0
   -0.4848   -0.1959    0.4138 C   0  0  1  0  0  0  0  0  0  0  0  0
    0.1386   -0.6144    1.2058 H   0  0  0  0  0  0  0  0  0  0  0  0
    0.2271   -0.4272   -0.9334 C   0  0  0  0  0  0  0  0  0  0  0  0
   -0.2679   -1.2548   -1.4457 H   0  0  0  0  0  0  0  0  0  0  0  0
    0.1226    0.4669   -1.5499 H   0  0  0  0  0  0  0  0  0  0  0  0
    1.7219   -0.7656   -0.7975 C   0  0  0  0  0  0  0  0  0  0  0  0
    1.9986   -0.7892    0.2564 H   0  0  0  0  0  0  0  0  0  0  0  0
    1.9020   -1.7510   -1.2269 H   0  0  0  0  0  0  0  0  0  0  0  0
    2.6326    0.2397   -1.5022 C   0  0  0  0  0  0  0  0  0  0  0  0
    2.2151    1.1690   -2.1676 O   0  0  0  0  0  0  0  0  0  0  0  0
    3.9345    0.0992   -1.3780 N   0  0  0  0  0  0  0  0  0  0  0  0
    4.4851    0.7878   -1.8609 H   0  0  0  0  0  0  0  0  0  0  0  0
    4.3306   -0.6452   -0.8406 H   0  0  0  0  0  0  0  0  0  0  0  0
   -0.7011    1.2952    0.7149 C   0  0  0  0  0  0  0  0  0  0  0  0
   -1.5917    1.9198    0.1415 O   0  0  0  0  0  0  0  0  0  0  0  0
    0.1191    1.8675    1.6055 N   0  0  0  0  0  0  0  0  0  0  0  0
    0.8092    1.2861    2.0537 H   0  0  0  0  0  0  0  0  0  0  0  0
    0.0509    3.2769    1.9894 C   0  0  0  0  0  0  0  0  0  0  0  0
   -0.9494    3.5076    2.3640 H   0  0  0  0  0  0  0  0  0  0  0  0
    0.7844    3.4956    2.7668 H   0  0  0  0  0  0  0  0  0  0  0  0
    0.2468    3.9058    1.1193 H   0  0  0  0  0  0  0  0  0  0  0  0
  5  6  2  0  0  0  0
  5  7  1  0  0  0  0
  2  3  1  0  0  0  0
  2  4  1  0  0  0  0
  2  5  1  0  0  0  0
  1  2  1  0  0  0  0
 22 23  2  0  0  0  0
 22 24  1  0  0  0  0
 19 20  1  0  0  0  0
 19 21  1  0  0  0  0
 17 18  2  0  0  0  0
 17 19  1  0  0  0  0
 14 15  1  0  0  0  0
 14 16  1  0  0  0  0
 14 17  1  0  0  0  0
 11 12  1  0  0  0  0
 11 13  1  0  0  0  0
 11 14  1  0  0  0  0
  9 10  1  0  0  0  0
  9 11  1  0  0  0  0
  9 22  1  0  0  0  0
  7  8  1  0  0  0  0
  7  9  1  0  0  0  0
 26 27  1  0  0  0  0
 26 28  1  0  0  0  0
 26 29  1  0  0  0  0
 24 25  1  0  0  0  0
 24 26  1  0  0  0  0
M  END
$$$$
default_name
  -OEChem-02102213163D

 29 28  0     1  0  0  0  0  0999 V2000
   -3.3998   -3.6239    1.3678 H   0  0  0  0  0  0  0  0  0  0  0  0
   -3.3608   -2.6749    0.8348 C   0  0  0  0  0  0  0  0  0  0  0  0
   -4.0988   -1.9909    1.2498 H   0  0  0  0  0  0  0  0  0  0  0  0
   -3.5618   -2.8419   -0.2222 H   0  0  0  0  0  0  0  0  0  0  0  0
   -1.9818   -2.0809    0.9918 C   0  0  0  0  0  0  0  0  0  0  0  0
   -1.1288   -2.6669    1.6468 O   0  0  0  0  0  0  0  0  0  0  0  0
   -1.7648   -0.9089    0.3998 N   0  0  0  0  0  0  0  0  0  0  0  0
   -2.5238   -0.4719   -0.1032 H   0  0  0  0  0  0  0  0  0  0  0  0
   -0.4848   -0.1959    0.4138 C   0  0  1  0  0  0  0  0  0  0  0  0
    0.1386   -0.6144    1.2058 H   0  0  0  0  0  0  0  0  0  0  0  0
    0.2271   -0.4272   -0.9334 C   0  0  0  0  0  0  0  0  0  0  0  0
   -0.2679   -1.2548   -1.4457 H   0  0  0  0  0  0  0  0  0  0  0  0
    0.1226    0.4669   -1.5499 H   0  0  0  0  0  0  0  0  0  0  0  0
    1.7219   -0.7656   -0.7975 C   0  0  0  0  0  0  0  0  0  0  0  0
    1.9419   -1.0498    0.2314 H   0  0  0  0  0  0  0  0  0  0  0  0
    1.9546   -1.6080   -1.4488 H   0  0  0  0  0  0  0  0  0  0  0  0
    2.6386    0.3990   -1.1718 C   0  0  0  0  0  0  0  0  0  0  0  0
    2.2298    1.4594   -1.6066 O   0  0  0  0  0  0  0  0  0  0  0  0
    3.9356    0.2520   -1.0091 N   0  0  0  0  0  0  0  0  0  0  0  0
    4.4904    1.0485   -1.2700 H   0  0  0  0  0  0  0  0  0  0  0  0
    4.3243   -0.5976   -0.6529 H   0  0  0  0  0  0  0  0  0  0  0  0
   -0.7011    1.2952    0.7149 C   0  0  0  0  0  0  0  0  0  0  0  0
   -1.5917    1.9198    0.1415 O   0  0  0  0  0  0  0  0  0  0  0  0
    0.1191    1.8675    1.6055 N   0  0  0  0  0  0  0  0  0  0  0  0
    0.8092    1.2861    2.0537 H   0  0  0  0  0  0  0  0  0  0  0  0
    0.0509    3.2769    1.9894 C   0  0  0  0  0  0  0  0  0  0  0  0
   -0.9494    3.5076    2.3640 H   0  0  0  0  0  0  0  0  0  0  0  0
    0.7844    3.4956    2.7668 H   0  0  0  0  0  0  0  0  0  0  0  0
    0.2468    3.9058    1.1193 H   0  0  0  0  0  0  0  0  0  0  0  0
  5  6  2  0  0  0  0
  5  7  1  0  0  0  0
  2  3  1  0  0  0  0
  2  4  1  0  0  0  0
  2  5  1  0  0  0  0
  1  2  1  0  0  0  0
 22 23  2  0  0  0  0
 22 24  1  0  0  0  0
 19 20  1  0  0  0  0
 19 21  1  0  0  0  0
 17 18  2  0  0  0  0
 17 19  1  0  0  0  0
 14 15  1  0  0  0  0
 14 16  1  0  0  0  0
 14 17  1  0  0  0  0
 11 12  1  0  0  0  0
 11 13  1  0  0  0  0
 11 14  1  0  0  0  0
  9 10  1  0  0  0  0
  9 11  1  0  0  0  0
  9 22  1  0  0  0  0
  7  8  1  0  0  0  0
  7  9  1  0  0  0  0
 26 27  1  0  0  0  0
 26 28  1  0  0  0  0
 26 29  1  0  0  0  0
 24 25  1  0  0  0  0
 24 26  1  0  0  0  0
M  END
$$$$
default_name
  -OEChem-02102213163D

 29 28  0     1  0  0  0  0  0999 V2000
   -3.3998   -3.6239    1.3678 H   0  0  0  0  0  0  0  0  0  0  0  0
   -3.3608   -2.6749    0.8348 C   0  0  0  0  0  0  0  0  0  0  0  0
   -4.0988   -1.9909    1.2498 H   0  0  0  0  0  0  0  0  0  0  0  0
   -3.5618   -2.8419   -0.2222 H   0  0  0  0  0  0  0  0  0  0  0  0
   -1.9818   -2.0809    0.9918 C   0  0  0  0  0  0  0  0  0  0  0  0
   -1.1288   -2.6669    1.6468 O   0  0  0  0  0  0  0  0  0  0  0  0
   -1.7648   -0.9089    0.3998 N   0  0  0  0  0  0  0  0  0  0  0  0
   -2.5238   -0.4719   -0.1032 H   0  0  0  0  0  0  0  0  0  0  0  0
   -0.4848   -0.1959    0.4138 C   0  0  1  0  0  0  0  0  0  0  0  0
    0.1386   -0.6144    1.2058 H   0  0  0  0  0  0  0  0  0  0  0  0
    0.2271   -0.4272   -0.9334 C   0  0  0  0  0  0  0  0  0  0  0  0
   -0.2679   -1.2548   -1.4457 H   0  0  0  0  0  0  0  0  0  0  0  0
    0.1226    0.4669   -1.5499 H   0  0  0  0  0  0  0  0  0  0  0  0
    1.7219   -0.7656   -0.7975 C   0  0  0  0  0  0  0  0  0  0  0  0
    1.8944   -1.2965    0.1385 H   0  0  0  0  0  0  0  0  0  0  0  0
    2.0147   -1.4129   -1.6241 H   0  0  0  0  0  0  0  0  0  0  0  0
    2.6220    0.4699   -0.8122 C   0  0  0  0  0  0  0  0  0  0  0  0
    2.2054    1.5991   -0.9909 O   0  0  0  0  0  0  0  0  0  0  0  0
    3.9121    0.3068   -0.6142 N   0  0  0  0  0  0  0  0  0  0  0  0
    4.4559    1.1520   -0.6334 H   0  0  0  0  0  0  0  0  0  0  0  0
    4.3064   -0.5989   -0.4599 H   0  0  0  0  0  0  0  0  0  0  0  0
   -0.7011    1.2952    0.7149 C   0  0  0  0  0  0  0  0  0  0  0  0
   -1.5917    1.9198    0.1415 O   0  0  0  0  0  0  0  0  0  0  0  0
    0.1191    1.8675    1.6055 N   0  0  0  0  0  0  0  0  0  0  0  0
    0.8092    1.2861    2.0537 H   0  0  0  0  0  0  0  0  0  0  0  0
    0.0509    3.2769    1.9894 C   0  0  0  0  0  0  0  0  0  0  0  0
   -0.9494    3.5076    2.3640 H   0  0  0  0  0  0  0  0  0  0  0  0
    0.7844    3.4956    2.7668 H   0  0  0  0  0  0  0  0  0  0  0  0
    0.2468    3.9058    1.1193 H   0  0  0  0  0  0  0  0  0  0  0  0
  5  6  2  0  0  0  0
  5  7  1  0  0  0  0
  2  3  1  0  0  0  0
  2  4  1  0  0  0  0
  2  5  1  0  0  0  0
  1  2  1  0  0  0  0
 22 23  2  0  0  0  0
 22 24  1  0  0  0  0
 19 20  1  0  0  0  0
 19 21  1  0  0  0  0
 17 18  2  0  0  0  0
 17 19  1  0  0  0  0
 14 15  1  0  0  0  0
 14 16  1  0  0  0  0
 14 17  1  0  0  0  0
 11 12  1  0  0  0  0
 11 13  1  0  0  0  0
 11 14  1  0  0  0  0
  9 10  1  0  0  0  0
  9 11  1  0  0  0  0
  9 22  1  0  0  0  0
  7  8  1  0  0  0  0
  7  9  1  0  0  0  0
 26 27  1  0  0  0  0
 26 28  1  0  0  0  0
 26 29  1  0  0  0  0
 24 25  1  0  0  0  0
 24 26  1  0  0  0  0
M  END
$$$$
default_name
  -OEChem-02102213163D

 29 28  0     1  0  0  0  0  0999 V2000
   -3.3998   -3.6239    1.3678 H   0  0  0  0  0  0  0  0  0  0  0  0
   -3.3608   -2.6749    0.8348 C   0  0  0  0  0  0  0  0  0  0  0  0
   -4.0988   -1.9909    1.2498 H   0  0  0  0  0  0  0  0  0  0  0  0
   -3.5618   -2.8419   -0.2222 H   0  0  0  0  0  0  0  0  0  0  0  0
   -1.9818   -2.0809    0.9918 C   0  0  0  0  0  0  0  0  0  0  0  0
   -1.1288   -2.6669    1.6468 O   0  0  0  0  0  0  0  0  0  0  0  0
   -1.7648   -0.9089    0.3998 N   0  0  0  0  0  0  0  0  0  0  0  0
   -2.5238   -0.4719   -0.1032 H   0  0  0  0  0  0  0  0  0  0  0  0
   -0.4848   -0.1959    0.4138 C   0  0  1  0  0  0  0  0  0  0  0  0
    0.1386   -0.6144    1.2058 H   0  0  0  0  0  0  0  0  0  0  0  0
    0.2271   -0.4272   -0.9334 C   0  0  0  0  0  0  0  0  0  0  0  0
   -0.2679   -1.2548   -1.4457 H   0  0  0  0  0  0  0  0  0  0  0  0
    0.1226    0.4669   -1.5499 H   0  0  0  0  0  0  0  0  0  0  0  0
    1.7219   -0.7656   -0.7975 C   0  0  0  0  0  0  0  0  0  0  0  0
    1.8596   -1.5126   -0.0160 H   0  0  0  0  0  0  0  0  0  0  0  0
    2.0783   -1.1789   -1.7410 H   0  0  0  0  0  0  0  0  0  0  0  0
    2.5838    0.4476   -0.4481 C   0  0  0  0  0  0  0  0  0  0  0  0
    2.1437    1.5787   -0.3624 O   0  0  0  0  0  0  0  0  0  0  0  0
    3.8657    0.2600   -0.2204 N   0  0  0  0  0  0  0  0  0  0  0  0
    4.3840    1.0911    0.0056 H   0  0  0  0  0  0  0  0  0  0  0  0
    4.2782   -0.6491   -0.2749 H   0  0  0  0  0  0  0  0  0  0  0  0
   -0.7011    1.2952    0.7149 C   0  0  0  0  0  0  0  0  0  0  0  0
   -1.5917    1.9198    0.1415 O   0  0  0  0  0  0  0  0  0  0  0  0
    0.1191    1.8675    1.6055 N   0  0  0  0  0  0  0  0  0  0  0  0
    0.8092    1.2861    2.0537 H   0  0  0  0  0  0  0  0  0  0  0  0
    0.0509    3.2769    1.9894 C   0  0  0  0  0  0  0  0  0  0  0  0
   -0.9494    3.5076    2.3640 H   0  0  0  0  0  0  0  0  0  0  0  0
    0.7844    3.4956    2.7668 H   0  0  0  0  0  0  0  0  0  0  0  0
    0.2468    3.9058    1.1193 H   0  0  0  0  0  0  0  0  0  0  0  0
  5  6  2  0  0  0  0
  5  7  1  0  0  0  0
  2  3  1  0  0  0  0
  2  4  1  0  0  0  0
  2  5  1  0  0  0  0
  1  2  1  0  0  0  0
 22 23  2  0  0  0  0
 22 24  1  0  0  0  0
 19 20  1  0  0  0  0
 19 21  1  0  0  0  0
 17 18  2  0  0  0  0
 17 19  1  0  0  0  0
 14 15  1  0  0  0  0
 14 16  1  0  0  0  0
 14 17  1  0  0  0  0
 11 12  1  0  0  0  0
 11 13  1  0  0  0  0
 11 14  1  0  0  0  0
  9 10  1  0  0  0  0
  9 11  1  0  0  0  0
  9 22  1  0  0  0  0
  7  8  1  0  0  0  0
  7  9  1  0  0  0  0
 26 27  1  0  0  0  0
 26 28  1  0  0  0  0
 26 29  1  0  0  0  0
 24 25  1  0  0  0  0
 24 26  1  0  0  0  0
M  END
$$$$
default_name
  -OEChem-02102213163D

 29 28  0     1  0  0  0  0  0999 V2000
   -3.3998   -3.6239    1.3678 H   0  0  0  0  0  0  0  0  0  0  0  0
   -3.3608   -2.6749    0.8348 C   0  0  0  0  0  0  0  0  0  0  0  0
   -4.0988   -1.9909    1.2498 H   0  0  0  0  0  0  0  0  0  0  0  0
   -3.5618   -2.8419   -0.2222 H   0  0  0  0  0  0  0  0  0  0  0  0
   -1.9818   -2.0809    0.9918 C   0  0  0  0  0  0  0  0  0  0  0  0
   -1.1288   -2.6669    1.6468 O   0  0  0  0  0  0  0  0  0  0  0  0
   -1.7648   -0.9089    0.3998 N   0  0  0  0  0  0  0  0  0  0  0  0
   -2.5238   -0.4719   -0.1032 H   0  0  0  0  0  0  0  0  0  0  0  0
   -0.4848   -0.1959    0.4138 C   0  0  1  0  0  0  0  0  0  0  0  0
    0.1386   -0.6144    1.2058 H   0  0  0  0  0  0  0  0  0  0  0  0
    0.2271   -0.4272   -0.9334 C   0  0  0  0  0  0  0  0  0  0  0  0
   -0.2679   -1.2548   -1.4457 H   0  0  0  0  0  0  0  0  0  0  0  0
    0.1226    0.4669   -1.5499 H   0  0  0  0  0  0  0  0  0  0  0  0
    1.7219   -0.7656   -0.7975 C   0  0  0  0  0  0  0  0  0  0  0  0
    1.8396   -1.6832   -0.2215 H   0  0  0  0  0  0  0  0  0  0  0  0
    2.1410   -0.9221   -1.7914 H   0  0  0  0  0  0  0  0  0  0  0  0
    2.5267    0.3336   -0.1041 C   0  0  0  0  0  0  0  0  0  0  0  0
    2.0487    1.3996    0.2361 O   0  0  0  0  0  0  0  0  0  0  0  0
    3.7995    0.1147    0.1455 N   0  0  0  0  0  0  0  0  0  0  0  0
    4.2796    0.8699    0.6034 H   0  0  0  0  0  0  0  0  0  0  0  0
    4.2416   -0.7448   -0.1104 H   0  0  0  0  0  0  0  0  0  0  0  0
   -0.7011    1.2952    0.7149 C   0  0  0  0  0  0  0  0  0  0  0  0
   -1.5917    1.9198    0.1415 O   0  0  0  0  0  0  0  0  0  0  0  0
    0.1191    1.8675    1.6055 N   0  0  0  0  0  0  0  0  0  0  0  0
    0.8092    1.2861    2.0537 H   0  0  0  0  0  0  0  0  0  0  0  0
    0.0509    3.2769    1.9894 C   0  0  0  0  0  0  0  0  0  0  0  0
   -0.9494    3.5076    2.3640 H   0  0  0  0  0  0  0  0  0  0  0  0
    0.7844    3.4956    2.7668 H   0  0  0  0  0  0  0  0  0  0  0  0
    0.2468    3.9058    1.1193 H   0  0  0  0  0  0  0  0  0  0  0  0
  5  6  2  0  0  0  0
  5  7  1  0  0  0  0
  2  3  1  0  0  0  0
  2  4  1  0  0  0  0
  2  5  1  0  0  0  0
  1  2  1  0  0  0  0
 22 23  2  0  0  0  0
 22 24  1  0  0  0  0
 19 20  1  0  0  0  0
 19 21  1  0  0  0  0
 17 18  2  0  0  0  0
 17 19  1  0  0  0  0
 14 15  1  0  0  0  0
 14 16  1  0  0  0  0
 14 17  1  0  0  0  0
 11 12  1  0  0  0  0
 11 13  1  0  0  0  0
 11 14  1  0  0  0  0
  9 10  1  0  0  0  0
  9 11  1  0  0  0  0
  9 22  1  0  0  0  0
  7  8  1  0  0  0  0
  7  9  1  0  0  0  0
 26 27  1  0  0  0  0
 26 28  1  0  0  0  0
 26 29  1  0  0  0  0
 24 25  1  0  0  0  0
 24 26  1  0  0  0  0
M  END
$$$$
default_name
  -OEChem-02102213163D

 29 28  0     1  0  0  0  0  0999 V2000
   -3.3998   -3.6239    1.3678 H   0  0  0  0  0  0  0  0  0  0  0  0
   -3.3608   -2.6749    0.8348 C   0  0  0  0  0  0  0  0  0  0  0  0
   -4.0988   -1.9909    1.2498 H   0  0  0  0  0  0  0  0  0  0  0  0
   -3.5618   -2.8419   -0.2222 H   0  0  0  0  0  0  0  0  0  0  0  0
   -1.9818   -2.0809    0.9918 C   0  0  0  0  0  0  0  0  0  0  0  0
   -1.1288   -2.6669    1.6468 O   0  0  0  0  0  0  0  0  0  0  0  0
   -1.7648   -0.9089    0.3998 N   0  0  0  0  0  0  0  0  0  0  0  0
   -2.5238   -0.4719   -0.1032 H   0  0  0  0  0  0  0  0  0  0  0  0
   -0.4848   -0.1959    0.4138 C   0  0  1  0  0  0  0  0  0  0  0  0
    0.1386   -0.6144    1.2058 H   0  0  0  0  0  0  0  0  0  0  0  0
    0.2271   -0.4272   -0.9334 C   0  0  0  0  0  0  0  0  0  0  0  0
   -0.2679   -1.2548   -1.4457 H   0  0  0  0  0  0  0  0  0  0  0  0
    0.1226    0.4669   -1.5499 H   0  0  0  0  0  0  0  0  0  0  0  0
    1.7219   -0.7656   -0.7975 C   0  0  0  0  0  0  0  0  0  0  0  0
    1.8360   -1.7968   -0.4641 H   0  0  0  0  0  0  0  0  0  0  0  0
    2.1986   -0.6599   -1.7720 H   0  0  0  0  0  0  0  0  0  0  0  0
    2.4546    0.1357    0.1963 C   0  0  0  0  0  0  0  0  0  0  0  0
    1.9270    1.0739    0.7637 O   0  0  0  0  0  0  0  0  0  0  0  0
    3.7181   -0.1192    0.4587 N   0  0  0  0  0  0  0  0  0  0  0  0
    4.1498    0.5036    1.1192 H   0  0  0  0  0  0  0  0  0  0  0  0
    4.1991   -0.8795    0.0224 H   0  0  0  0  0  0  0  0  0  0  0  0
   -0.7011    1.2952    0.7149 C   0  0  0  0  0  0  0  0  0  0  0  0
   -1.5917    1.9198    0.1415 O   0  0  0  0  0  0  0  0  0  0  0  0
    0.1191    1.8675    1.6055 N   0  0  0  0  0  0  0  0  0  0  0  0
    0.8092    1.2861    2.0537 H   0  0  0  0  0  0  0  0  0  0  0  0
    0.0509    3.2769    1.9894 C   0  0  0  0  0  0  0  0  0  0  0  0
   -0.9494    3.5076    2.3640 H   0  0  0  0  0  0  0  0  0  0  0  0
    0.7844    3.4956    2.7668 H   0  0  0  0  0  0  0  0  0  0  0  0
    0.2468    3.9058    1.1193 H   0  0  0  0  0  0  0  0  0  0  0  0
  5  6  2  0  0  0  0
  5  7  1  0  0  0  0
  2  3  1  0  0  0  0
  2  4  1  0  0  0  0
  2  5  1  0  0  0  0
  1  2  1  0  0  0  0
 22 23  2  0  0  0  0
 22 24  1  0  0  0  0
 19 20  1  0  0  0  0
 19 21  1  0  0  0  0
 17 18  2  0  0  0  0
 17 19  1  0  0  0  0
 14 15  1  0  0  0  0
 14 16  1  0  0  0  0
 14 17  1  0  0  0  0
 11 12  1  0  0  0  0
 11 13  1  0  0  0  0
 11 14  1  0  0  0  0
  9 10  1  0  0  0  0
  9 11  1  0  0  0  0
  9 22  1  0  0  0  0
  7  8  1  0  0  0  0
  7  9  1  0  0  0  0
 26 27  1  0  0  0  0
 26 28  1  0  0  0  0
 26 29  1  0  0  0  0
 24 25  1  0  0  0  0
 24 26  1  0  0  0  0
M  END
$$$$
default_name
  -OEChem-02102213163D

 29 28  0     1  0  0  0  0  0999 V2000
   -3.3998   -3.6239    1.3678 H   0  0  0  0  0  0  0  0  0  0  0  0
   -3.3608   -2.6749    0.8348 C   0  0  0  0  0  0  0  0  0  0  0  0
   -4.0988   -1.9909    1.2498 H   0  0  0  0  0  0  0  0  0  0  0  0
   -3.5618   -2.8419   -0.2222 H   0  0  0  0  0  0  0  0  0  0  0  0
   -1.9818   -2.0809    0.9918 C   0  0  0  0  0  0  0  0  0  0  0  0
   -1.1288   -2.6669    1.6468 O   0  0  0  0  0  0  0  0  0  0  0  0
   -1.7648   -0.9089    0.3998 N   0  0  0  0  0  0  0  0  0  0  0  0
   -2.5238   -0.4719   -0.1032 H   0  0  0  0  0  0  0  0  0  0  0  0
   -0.4848   -0.1959    0.4138 C   0  0  1  0  0  0  0  0  0  0  0  0
    0.1386   -0.6144    1.2058 H   0  0  0  0  0  0  0  0  0  0  0  0
    0.2271   -0.4272   -0.9334 C   0  0  0  0  0  0  0  0  0  0  0  0
   -0.2679   -1.2548   -1.4457 H   0  0  0  0  0  0  0  0  0  0  0  0
    0.1226    0.4669   -1.5499 H   0  0  0  0  0  0  0  0  0  0  0  0
    1.7219   -0.7656   -0.7975 C   0  0  0  0  0  0  0  0  0  0  0  0
    1.8489   -1.8456   -0.7271 H   0  0  0  0  0  0  0  0  0  0  0  0
    2.2471   -0.4102   -1.6840 H   0  0  0  0  0  0  0  0  0  0  0  0
    2.3724   -0.1327    0.4326 C   0  0  0  0  0  0  0  0  0  0  0  0
    1.7869    0.6239    1.1845 O   0  0  0  0  0  0  0  0  0  0  0  0
    3.6269   -0.4258    0.6978 N   0  0  0  0  0  0  0  0  0  0  0  0
    4.0034    0.0171    1.5180 H   0  0  0  0  0  0  0  0  0  0  0  0
    4.1535   -1.0439    0.1144 H   0  0  0  0  0  0  0  0  0  0  0  0
   -0.7011    1.2952    0.7149 C   0  0  0  0  0  0  0  0  0  0  0  0
   -1.5917    1.9198    0.1415 O   0  0  0  0  0  0  0  0  0  0  0  0
    0.1191    1.8675    1.6055 N   0  0  0  0  0  0  0  0  0  0  0  0
    0.8092    1.2861    2.0537 H   0  0  0  0  0  0  0  0  0  0  0  0
    0.0509    3.2769    1.9894 C   0  0  0  0  0  0  0  0  0  0  0  0
   -0.9494    3.5076    2.3640 H   0  0  0  0  0  0  0  0  0  0  0  0
    0.7844    3.4956    2.7668 H   0  0  0  0  0  0  0  0  0  0  0  0
    0.2468    3.9058    1.1193 H   0  0  0  0  0  0  0  0  0  0  0  0
  5  6  2  0  0  0  0
  5  7  1  0  0  0  0
  2  3  1  0  0  0  0
  2  4  1  0  0  0  0
  2  5  1  0  0  0  0
  1  2  1  0  0  0  0
 22 23  2  0  0  0  0
 22 24  1  0  0  0  0
 19 20  1  0  0  0  0
 19 21  1  0  0  0  0
 17 18  2  0  0  0  0
 17 19  1  0  0  0  0
 14 15  1  0  0  0  0
 14 16  1  0  0  0  0
 14 17  1  0  0  0  0
 11 12  1  0  0  0  0
 11 13  1  0  0  0  0
 11 14  1  0  0  0  0
  9 10  1  0  0  0  0
  9 11  1  0  0  0  0
  9 22  1  0  0  0  0
  7  8  1  0  0  0  0
  7  9  1  0  0  0  0
 26 27  1  0  0  0  0
 26 28  1  0  0  0  0
 26 29  1  0  0  0  0
 24 25  1  0  0  0  0
 24 26  1  0  0  0  0
M  END
$$$$
default_name
  -OEChem-02102213163D

 29 28  0     1  0  0  0  0  0999 V2000
   -3.3998   -3.6239    1.3678 H   0  0  0  0  0  0  0  0  0  0  0  0
   -3.3608   -2.6749    0.8348 C   0  0  0  0  0  0  0  0  0  0  0  0
   -4.0988   -1.9909    1.2498 H   0  0  0  0  0  0  0  0  0  0  0  0
   -3.5618   -2.8419   -0.2222 H   0  0  0  0  0  0  0  0  0  0  0  0
   -1.9818   -2.0809    0.9918 C   0  0  0  0  0  0  0  0  0  0  0  0
   -1.1288   -2.6669    1.6468 O   0  0  0  0  0  0  0  0  0  0  0  0
   -1.7648   -0.9089    0.3998 N   0  0  0  0  0  0  0  0  0  0  0  0
   -2.5238   -0.4719   -0.1032 H   0  0  0  0  0  0  0  0  0  0  0  0
   -0.4848   -0.1959    0.4138 C   0  0  1  0  0  0  0  0  0  0  0  0
    0.1386   -0.6144    1.2058 H   0  0  0  0  0  0  0  0  0  0  0  0
    0.2271   -0.4272   -0.9334 C   0  0  0  0  0  0  0  0  0  0  0  0
   -0.2679   -1.2548   -1.4457 H   0  0  0  0  0  0  0  0  0  0  0  0
    0.1226    0.4669   -1.5499 H   0  0  0  0  0  0  0  0  0  0  0  0
    1.7219   -0.7656   -0.7975 C   0  0  0  0  0  0  0  0  0  0  0  0
    1.8774   -1.8264   -0.9928 H   0  0  0  0  0  0  0  0  0  0  0  0
    2.2832   -0.1901   -1.5335 H   0  0  0  0  0  0  0  0  0  0  0  0
    2.2856   -0.4532    0.5886 C   0  0  0  0  0  0  0  0  0  0  0  0
    1.6378    0.0802    1.4698 O   0  0  0  0  0  0  0  0  0  0  0  0
    3.5323   -0.7841    0.8465 N   0  0  0  0  0  0  0  0  0  0  0  0
    3.8504   -0.5565    1.7725 H   0  0  0  0  0  0  0  0  0  0  0  0
    4.1080   -1.2268    0.1593 H   0  0  0  0  0  0  0  0  0  0  0  0
   -0.7011    1.2952    0.7149 C   0  0  0  0  0  0  0  0  0  0  0  0
   -1.5917    1.9198    0.1415 O   0  0  0  0  0  0  0  0  0  0  0  0
    0.1191    1.8675    1.6055 N   0  0  0  0  0  0  0  0  0  0  0  0
    0.8092    1.2861    2.0537 H   0  0  0  0  0  0  0  0  0  0  0  0
    0.0509    3.2769    1.9894 C   0  0  0  0  0  0  0  0  0  0  0  0
   -0.9494    3.5076    2.3640 H   0  0  0  0  0  0  0  0  0  0  0  0
    0.7844    3.4956    2.7668 H   0  0  0  0  0  0  0  0  0  0  0  0
    0.2468    3.9058    1.1193 H   0  0  0  0  0  0  0  0  0  0  0  0
  5  6  2  0  0  0  0
  5  7  1  0  0  0  0
  2  3  1  0  0  0  0
  2  4  1  0  0  0  0
  2  5  1  0  0  0  0
  1  2  1  0  0  0  0
 22 23  2  0  0  0  0
 22 24  1  0  0  0  0
 19 20  1  0  0  0  0
 19 21  1  0  0  0  0
 17 18  2  0  0  0  0
 17 19  1  0  0  0  0
 14 15  1  0  0  0  0
 14 16  1  0  0  0  0
 14 17  1  0  0  0  0
 11 12  1  0  0  0  0
 11 13  1  0  0  0  0
 11 14  1  0  0  0  0
  9 10  1  0  0  0  0
  9 11  1  0  0  0  0
  9 22  1  0  0  0  0
  7  8  1  0  0  0  0
  7  9  1  0  0  0  0
 26 27  1  0  0  0  0
 26 28  1  0  0  0  0
 26 29  1  0  0  0  0
 24 25  1  0  0  0  0
 24 26  1  0  0  0  0
M  END
$$$$
default_name
  -OEChem-02102213163D

 29 28  0     1  0  0  0  0  0999 V2000
   -3.3998   -3.6239    1.3678 H   0  0  0  0  0  0  0  0  0  0  0  0
   -3.3608   -2.6749    0.8348 C   0  0  0  0  0  0  0  0  0  0  0  0
   -4.0988   -1.9909    1.2498 H   0  0  0  0  0  0  0  0  0  0  0  0
   -3.5618   -2.8419   -0.2222 H   0  0  0  0  0  0  0  0  0  0  0  0
   -1.9818   -2.0809    0.9918 C   0  0  0  0  0  0  0  0  0  0  0  0
   -1.1288   -2.6669    1.6468 O   0  0  0  0  0  0  0  0  0  0  0  0
   -1.7648   -0.9089    0.3998 N   0  0  0  0  0  0  0  0  0  0  0  0
   -2.5238   -0.4719   -0.1032 H   0  0  0  0  0  0  0  0  0  0  0  0
   -0.4848   -0.1959    0.4138 C   0  0  1  0  0  0  0  0  0  0  0  0
    0.1386   -0.6144    1.2058 H   0  0  0  0  0  0  0  0  0  0  0  0
    0.2271   -0.4272   -0.9334 C   0  0  0  0  0  0  0  0  0  0  0  0
   -0.2679   -1.2548   -1.4457 H   0  0  0  0  0  0  0  0  0  0  0  0
    0.1226    0.4669   -1.5499 H   0  0  0  0  0  0  0  0  0  0  0  0
    1.7219   -0.7656   -0.7975 C   0  0  0  0  0  0  0  0  0  0  0  0
    1.9196   -1.7403   -1.2429 H   0  0  0  0  0  0  0  0  0  0  0  0
    2.3046   -0.0144   -1.3307 H   0  0  0  0  0  0  0  0  0  0  0  0
    2.2003   -0.8040    0.6538 C   0  0  0  0  0  0  0  0  0  0  0  0
    1.4901   -0.5201    1.6002 O   0  0  0  0  0  0  0  0  0  0  0  0
    3.4406   -1.1697    0.8946 N   0  0  0  0  0  0  0  0  0  0  0  0
    3.7012   -1.1780    1.8654 H   0  0  0  0  0  0  0  0  0  0  0  0
    4.0657   -1.4159    0.1540 H   0  0  0  0  0  0  0  0  0  0  0  0
   -0.7011    1.2952    0.7149 C   0  0  0  0  0  0  0  0  0  0  0  0
   -1.5917    1.9198    0.1415 O   0  0  0  0  0  0  0  0  0  0  0  0
    0.1191    1.8675    1.6055 N   0  0  0  0  0  0  0  0  0  0  0  0
    0.8092    1.2861    2.0537 H   0  0  0  0  0  0  0  0  0  0  0  0
    0.0509    3.2769    1.9894 C   0  0  0  0  0  0  0  0  0  0  0  0
   -0.9494    3.5076    2.3640 H   0  0  0  0  0  0  0  0  0  0  0  0
    0.7844    3.4956    2.7668 H   0  0  0  0  0  0  0  0  0  0  0  0
    0.2468    3.9058    1.1193 H   0  0  0  0  0  0  0  0  0  0  0  0
  5  6  2  0  0  0  0
  5  7  1  0  0  0  0
  2  3  1  0  0  0  0
  2  4  1  0  0  0  0
  2  5  1  0  0  0  0
  1  2  1  0  0  0  0
 22 23  2  0  0  0  0
 22 24  1  0  0  0  0
 19 20  1  0  0  0  0
 19 21  1  0  0  0  0
 17 18  2  0  0  0  0
 17 19  1  0  0  0  0
 14 15  1  0  0  0  0
 14 16  1  0  0  0  0
 14 17  1  0  0  0  0
 11 12  1  0  0  0  0
 11 13  1  0  0  0  0
 11 14  1  0  0  0  0
  9 10  1  0  0  0  0
  9 11  1  0  0  0  0
  9 22  1  0  0  0  0
  7  8  1  0  0  0  0
  7  9  1  0  0  0  0
 26 27  1  0  0  0  0
 26 28  1  0  0  0  0
 26 29  1  0  0  0  0
 24 25  1  0  0  0  0
 24 26  1  0  0  0  0
M  END
$$$$
default_name
  -OEChem-02102213163D

 29 28  0     1  0  0  0  0  0999 V2000
   -3.3998   -3.6239    1.3678 H   0  0  0  0  0  0  0  0  0  0  0  0
   -3.3608   -2.6749    0.8348 C   0  0  0  0  0  0  0  0  0  0  0  0
   -4.0988   -1.9909    1.2498 H   0  0  0  0  0  0  0  0  0  0  0  0
   -3.5618   -2.8419   -0.2222 H   0  0  0  0  0  0  0  0  0  0  0  0
   -1.9818   -2.0809    0.9918 C   0  0  0  0  0  0  0  0  0  0  0  0
   -1.1288   -2.6669    1.6468 O   0  0  0  0  0  0  0  0  0  0  0  0
   -1.7648   -0.9089    0.3998 N   0  0  0  0  0  0  0  0  0  0  0  0
   -2.5238   -0.4719   -0.1032 H   0  0  0  0  0  0  0  0  0  0  0  0
   -0.4848   -0.1959    0.4138 C   0  0  1  0  0  0  0  0  0  0  0  0
    0.1386   -0.6144    1.2058 H   0  0  0  0  0  0  0  0  0  0  0  0
    0.2271   -0.4272   -0.9334 C   0  0  0  0  0  0  0  0  0  0  0  0
   -0.2679   -1.2548   -1.4457 H   0  0  0  0  0  0  0  0  0  0  0  0
    0.1226    0.4669   -1.5499 H   0  0  0  0  0  0  0  0  0  0  0  0
    1.7219   -0.7656   -0.7975 C   0  0  0  0  0  0  0  0  0  0  0  0
    1.9727   -1.5933   -1.4605 H   0  0  0  0  0  0  0  0  0  0  0  0
    2.3096    0.1047   -1.0894 H   0  0  0  0  0  0  0  0  0  0  0  0
    2.1222   -1.1611    0.6238 C   0  0  0  0  0  0  0  0  0  0  0  0
    1.3536   -1.1362    1.5668 O   0  0  0  0  0  0  0  0  0  0  0  0
    3.3582   -1.5564    0.8389 N   0  0  0  0  0  0  0  0  0  0  0  0
    3.5661   -1.8051    1.7904 H   0  0  0  0  0  0  0  0  0  0  0  0
    4.0294   -1.5981    0.0991 H   0  0  0  0  0  0  0  0  0  0  0  0
   -0.7011    1.2952    0.7149 C   0  0  0  0  0  0  0  0  0  0  0  0
   -1.5917    1.9198    0.1415 O   0  0  0  0  0  0  0  0  0  0  0  0
    0.1191    1.8675    1.6055 N   0  0  0  0  0  0  0  0  0  0  0  0
    0.8092    1.2861    2.0537 H   0  0  0  0  0  0  0  0  0  0  0  0
    0.0509    3.2769    1.9894 C   0  0  0  0  0  0  0  0  0  0  0  0
   -0.9494    3.5076    2.3640 H   0  0  0  0  0  0  0  0  0  0  0  0
    0.7844    3.4956    2.7668 H   0  0  0  0  0  0  0  0  0  0  0  0
    0.2468    3.9058    1.1193 H   0  0  0  0  0  0  0  0  0  0  0  0
  5  6  2  0  0  0  0
  5  7  1  0  0  0  0
  2  3  1  0  0  0  0
  2  4  1  0  0  0  0
  2  5  1  0  0  0  0
  1  2  1  0  0  0  0
 22 23  2  0  0  0  0
 22 24  1  0  0  0  0
 19 20  1  0  0  0  0
 19 21  1  0  0  0  0
 17 18  2  0  0  0  0
 17 19  1  0  0  0  0
 14 15  1  0  0  0  0
 14 16  1  0  0  0  0
 14 17  1  0  0  0  0
 11 12  1  0  0  0  0
 11 13  1  0  0  0  0
 11 14  1  0  0  0  0
  9 10  1  0  0  0  0
  9 11  1  0  0  0  0
  9 22  1  0  0  0  0
  7  8  1  0  0  0  0
  7  9  1  0  0  0  0
 26 27  1  0  0  0  0
 26 28  1  0  0  0  0
 26 29  1  0  0  0  0
 24 25  1  0  0  0  0
 24 26  1  0  0  0  0
M  END
$$$$
default_name
  -OEChem-02102213163D

 29 28  0     1  0  0  0  0  0999 V2000
   -3.3998   -3.6239    1.3678 H   0  0  0  0  0  0  0  0  0  0  0  0
   -3.3608   -2.6749    0.8348 C   0  0  0  0  0  0  0  0  0  0  0  0
   -4.0988   -1.9909    1.2498 H   0  0  0  0  0  0  0  0  0  0  0  0
   -3.5618   -2.8419   -0.2222 H   0  0  0  0  0  0  0  0  0  0  0  0
   -1.9818   -2.0809    0.9918 C   0  0  0  0  0  0  0  0  0  0  0  0
   -1.1288   -2.6669    1.6468 O   0  0  0  0  0  0  0  0  0  0  0  0
   -1.7648   -0.9089    0.3998 N   0  0  0  0  0  0  0  0  0  0  0  0
   -2.5238   -0.4719   -0.1032 H   0  0  0  0  0  0  0  0  0  0  0  0
   -0.4848   -0.1959    0.4138 C   0  0  1  0  0  0  0  0  0  0  0  0
    0.1386   -0.6144    1.2058 H   0  0  0  0  0  0  0  0  0  0  0  0
    0.2271   -0.4272   -0.9334 C   0  0  0  0  0  0  0  0  0  0  0  0
   -0.2679   -1.2548   -1.4457 H   0  0  0  0  0  0  0  0  0  0  0  0
    0.1226    0.4669   -1.5499 H   0  0  0  0  0  0  0  0  0  0  0  0
    1.7219   -0.7656   -0.7975 C   0  0  0  0  0  0  0  0  0  0  0  0
    2.0329   -1.3954   -1.6306 H   0  0  0  0  0  0  0  0  0  0  0  0
    2.2980    0.1593   -0.8261 H   0  0  0  0  0  0  0  0  0  0  0  0
    2.0566   -1.5004    0.5005 C   0  0  0  0  0  0  0  0  0  0  0  0
    1.2379   -1.7260    1.3719 O   0  0  0  0  0  0  0  0  0  0  0  0
    3.2905   -1.9178    0.6832 N   0  0  0  0  0  0  0  0  0  0  0  0
    3.4542   -2.3951    1.5526 H   0  0  0  0  0  0  0  0  0  0  0  0
    4.0017   -1.7612   -0.0020 H   0  0  0  0  0  0  0  0  0  0  0  0
   -0.7011    1.2952    0.7149 C   0  0  0  0  0  0  0  0  0  0  0  0
   -1.5917    1.9198    0.1415 O   0  0  0  0  0  0  0  0  0  0  0  0
    0.1191    1.8675    1.6055 N   0  0  0  0  0  0  0  0  0  0  0  0
    0.8092    1.2861    2.0537 H   0  0  0  0  0  0  0  0  0  0  0  0
    0.0509    3.2769    1.9894 C   0  0  0  0  0  0  0  0  0  0  0  0
   -0.9494    3.5076    2.3640 H   0  0  0  0  0  0  0  0  0  0  0  0
    0.7844    3.4956    2.7668 H   0  0  0  0  0  0  0  0  0  0  0  0
    0.2468    3.9058    1.1193 H   0  0  0  0  0  0  0  0  0  0  0  0
  5  6  2  0  0  0  0
  5  7  1  0  0  0  0
  2  3  1  0  0  0  0
  2  4  1  0  0  0  0
  2  5  1  0  0  0  0
  1  2  1  0  0  0  0
 22 23  2  0  0  0  0
 22 24  1  0  0  0  0
 19 20  1  0  0  0  0
 19 21  1  0  0  0  0
 17 18  2  0  0  0  0
 17 19  1  0  0  0  0
 14 15  1  0  0  0  0
 14 16  1  0  0  0  0
 14 17  1  0  0  0  0
 11 12  1  0  0  0  0
 11 13  1  0  0  0  0
 11 14  1  0  0  0  0
  9 10  1  0  0  0  0
  9 11  1  0  0  0  0
  9 22  1  0  0  0  0
  7  8  1  0  0  0  0
  7  9  1  0  0  0  0
 26 27  1  0  0  0  0
 26 28  1  0  0  0  0
 26 29  1  0  0  0  0
 24 25  1  0  0  0  0
 24 26  1  0  0  0  0
M  END
$$$$
default_name
  -OEChem-02102213163D

 29 28  0     1  0  0  0  0  0999 V2000
   -3.3998   -3.6239    1.3678 H   0  0  0  0  0  0  0  0  0  0  0  0
   -3.3608   -2.6749    0.8348 C   0  0  0  0  0  0  0  0  0  0  0  0
   -4.0988   -1.9909    1.2498 H   0  0  0  0  0  0  0  0  0  0  0  0
   -3.5618   -2.8419   -0.2222 H   0  0  0  0  0  0  0  0  0  0  0  0
   -1.9818   -2.0809    0.9918 C   0  0  0  0  0  0  0  0  0  0  0  0
   -1.1288   -2.6669    1.6468 O   0  0  0  0  0  0  0  0  0  0  0  0
   -1.7648   -0.9089    0.3998 N   0  0  0  0  0  0  0  0  0  0  0  0
   -2.5238   -0.4719   -0.1032 H   0  0  0  0  0  0  0  0  0  0  0  0
   -0.4848   -0.1959    0.4138 C   0  0  1  0  0  0  0  0  0  0  0  0
    0.1386   -0.6144    1.2058 H   0  0  0  0  0  0  0  0  0  0  0  0
    0.2271   -0.4272   -0.9334 C   0  0  0  0  0  0  0  0  0  0  0  0
   -0.2679   -1.2548   -1.4457 H   0  0  0  0  0  0  0  0  0  0  0  0
    0.1226    0.4669   -1.5499 H   0  0  0  0  0  0  0  0  0  0  0  0
    1.7219   -0.7656   -0.7975 C   0  0  0  0  0  0  0  0  0  0  0  0
    2.0963   -1.1601   -1.7418 H   0  0  0  0  0  0  0  0  0  0  0  0
    2.2706    0.1455   -0.5588 H   0  0  0  0  0  0  0  0  0  0  0  0
    2.0080   -1.7986    0.2923 C   0  0  0  0  0  0  0  0  0  0  0  0
    1.1506   -2.2493    1.0287 O   0  0  0  0  0  0  0  0  0  0  0  0
    3.2423   -2.2293    0.4380 N   0  0  0  0  0  0  0  0  0  0  0  0
    3.3731   -2.9077    1.1681 H   0  0  0  0  0  0  0  0  0  0  0  0
    3.9844   -1.8939   -0.1421 H   0  0  0  0  0  0  0  0  0  0  0  0
   -0.7011    1.2952    0.7149 C   0  0  0  0  0  0  0  0  0  0  0  0
   -1.5917    1.9198    0.1415 O   0  0  0  0  0  0  0  0  0  0  0  0
    0.1191    1.8675    1.6055 N   0  0  0  0  0  0  0  0  0  0  0  0
    0.8092    1.2861    2.0537 H   0  0  0  0  0  0  0  0  0  0  0  0
    0.0509    3.2769    1.9894 C   0  0  0  0  0  0  0  0  0  0  0  0
   -0.9494    3.5076    2.3640 H   0  0  0  0  0  0  0  0  0  0  0  0
    0.7844    3.4956    2.7668 H   0  0  0  0  0  0  0  0  0  0  0  0
    0.2468    3.9058    1.1193 H   0  0  0  0  0  0  0  0  0  0  0  0
  5  6  2  0  0  0  0
  5  7  1  0  0  0  0
  2  3  1  0  0  0  0
  2  4  1  0  0  0  0
  2  5  1  0  0  0  0
  1  2  1  0  0  0  0
 22 23  2  0  0  0  0
 22 24  1  0  0  0  0
 19 20  1  0  0  0  0
 19 21  1  0  0  0  0
 17 18  2  0  0  0  0
 17 19  1  0  0  0  0
 14 15  1  0  0  0  0
 14 16  1  0  0  0  0
 14 17  1  0  0  0  0
 11 12  1  0  0  0  0
 11 13  1  0  0  0  0
 11 14  1  0  0  0  0
  9 10  1  0  0  0  0
  9 11  1  0  0  0  0
  9 22  1  0  0  0  0
  7  8  1  0  0  0  0
  7  9  1  0  0  0  0
 26 27  1  0  0  0  0
 26 28  1  0  0  0  0
 26 29  1  0  0  0  0
 24 25  1  0  0  0  0
 24 26  1  0  0  0  0
M  END
$$$$
default_name
  -OEChem-02102213163D

 29 28  0     1  0  0  0  0  0999 V2000
   -3.3998   -3.6239    1.3678 H   0  0  0  0  0  0  0  0  0  0  0  0
   -3.3608   -2.6749    0.8348 C   0  0  0  0  0  0  0  0  0  0  0  0
   -4.0988   -1.9909    1.2498 H   0  0  0  0  0  0  0  0  0  0  0  0
   -3.5618   -2.8419   -0.2222 H   0  0  0  0  0  0  0  0  0  0  0  0
   -1.9818   -2.0809    0.9918 C   0  0  0  0  0  0  0  0  0  0  0  0
   -1.1288   -2.6669    1.6468 O   0  0  0  0  0  0  0  0  0  0  0  0
   -1.7648   -0.9089    0.3998 N   0  0  0  0  0  0  0  0  0  0  0  0
   -2.5238   -0.4719   -0.1032 H   0  0  0  0  0  0  0  0  0  0  0  0
   -0.4848   -0.1959    0.4138 C   0  0  1  0  0  0  0  0  0  0  0  0
    0.1386   -0.6144    1.2058 H   0  0  0  0  0  0  0  0  0  0  0  0
    0.2271   -0.4272   -0.9334 C   0  0  0  0  0  0  0  0  0  0  0  0
   -0.2679   -1.2548   -1.4457 H   0  0  0  0  0  0  0  0  0  0  0  0
    0.1226    0.4669   -1.5499 H   0  0  0  0  0  0  0  0  0  0  0  0
    1.7219   -0.7656   -0.7975 C   0  0  0  0  0  0  0  0  0  0  0  0
    2.1585   -0.9034   -1.7864 H   0  0  0  0  0  0  0  0  0  0  0  0
    2.2292    0.0643   -0.3055 H   0  0  0  0  0  0  0  0  0  0  0  0
    1.9797   -2.0354    0.0136 C   0  0  0  0  0  0  0  0  0  0  0  0
    1.0978   -2.6705    0.5607 O   0  0  0  0  0  0  0  0  0  0  0  0
    3.2168   -2.4696    0.1202 N   0  0  0  0  0  0  0  0  0  0  0  0
    3.3284   -3.3081    0.6633 H   0  0  0  0  0  0  0  0  0  0  0  0
    3.9787   -1.9873   -0.3118 H   0  0  0  0  0  0  0  0  0  0  0  0
   -0.7011    1.2952    0.7149 C   0  0  0  0  0  0  0  0  0  0  0  0
   -1.5917    1.9198    0.1415 O   0  0  0  0  0  0  0  0  0  0  0  0
    0.1191    1.8675    1.6055 N   0  0  0  0  0  0  0  0  0  0  0  0
    0.8092    1.2861    2.0537 H   0  0  0  0  0  0  0  0  0  0  0  0
    0.0509    3.2769    1.9894 C   0  0  0  0  0  0  0  0  0  0  0  0
   -0.9494    3.5076    2.3640 H   0  0  0  0  0  0  0  0  0  0  0  0
    0.7844    3.4956    2.7668 H   0  0  0  0  0  0  0  0  0  0  0  0
    0.2468    3.9058    1.1193 H   0  0  0  0  0  0  0  0  0  0  0  0
  5  6  2  0  0  0  0
  5  7  1  0  0  0  0
  2  3  1  0  0  0  0
  2  4  1  0  0  0  0
  2  5  1  0  0  0  0
  1  2  1  0  0  0  0
 22 23  2  0  0  0  0
 22 24  1  0  0  0  0
 19 20  1  0  0  0  0
 19 21  1  0  0  0  0
 17 18  2  0  0  0  0
 17 19  1  0  0  0  0
 14 15  1  0  0  0  0
 14 16  1  0  0  0  0
 14 17  1  0  0  0  0
 11 12  1  0  0  0  0
 11 13  1  0  0  0  0
 11 14  1  0  0  0  0
  9 10  1  0  0  0  0
  9 11  1  0  0  0  0
  9 22  1  0  0  0  0
  7  8  1  0  0  0  0
  7  9  1  0  0  0  0
 26 27  1  0  0  0  0
 26 28  1  0  0  0  0
 26 29  1  0  0  0  0
 24 25  1  0  0  0  0
 24 26  1  0  0  0  0
M  END
$$$$
default_name
  -OEChem-02102213163D

 29 28  0     1  0  0  0  0  0999 V2000
   -3.3998   -3.6239    1.3678 H   0  0  0  0  0  0  0  0  0  0  0  0
   -3.3608   -2.6749    0.8348 C   0  0  0  0  0  0  0  0  0  0  0  0
   -4.0988   -1.9909    1.2498 H   0  0  0  0  0  0  0  0  0  0  0  0
   -3.5618   -2.8419   -0.2222 H   0  0  0  0  0  0  0  0  0  0  0  0
   -1.9818   -2.0809    0.9918 C   0  0  0  0  0  0  0  0  0  0  0  0
   -1.1288   -2.6669    1.6468 O   0  0  0  0  0  0  0  0  0  0  0  0
   -1.7648   -0.9089    0.3998 N   0  0  0  0  0  0  0  0  0  0  0  0
   -2.5238   -0.4719   -0.1032 H   0  0  0  0  0  0  0  0  0  0  0  0
   -0.4848   -0.1959    0.4138 C   0  0  1  0  0  0  0  0  0  0  0  0
    0.1386   -0.6144    1.2058 H   0  0  0  0  0  0  0  0  0  0  0  0
    0.2271   -0.4272   -0.9334 C   0  0  0  0  0  0  0  0  0  0  0  0
   -0.2679   -1.2548   -1.4457 H   0  0  0  0  0  0  0  0  0  0  0  0
    0.1226    0.4669   -1.5499 H   0  0  0  0  0  0  0  0  0  0  0  0
    1.7219   -0.7656   -0.7975 C   0  0  0  0  0  0  0  0  0  0  0  0
    2.2152   -0.6428   -1.7614 H   0  0  0  0  0  0  0  0  0  0  0  0
    2.1766   -0.0787   -0.0837 H   0  0  0  0  0  0  0  0  0  0  0  0
    1.9737   -2.1946   -0.3169 C   0  0  0  0  0  0  0  0  0  0  0  0
    1.0831   -2.9609   -0.0003 O   0  0  0  0  0  0  0  0  0  0  0  0
    3.2158   -2.6224   -0.2487 N   0  0  0  0  0  0  0  0  0  0  0  0
    3.3231   -3.5689    0.0724 H   0  0  0  0  0  0  0  0  0  0  0  0
    3.9850   -2.0349   -0.4996 H   0  0  0  0  0  0  0  0  0  0  0  0
   -0.7011    1.2952    0.7149 C   0  0  0  0  0  0  0  0  0  0  0  0
   -1.5917    1.9198    0.1415 O   0  0  0  0  0  0  0  0  0  0  0  0
    0.1191    1.8675    1.6055 N   0  0  0  0  0  0  0  0  0  0  0  0
    0.8092    1.2861    2.0537 H   0  0  0  0  0  0  0  0  0  0  0  0
    0.0509    3.2769    1.9894 C   0  0  0  0  0  0  0  0  0  0  0  0
   -0.9494    3.5076    2.3640 H   0  0  0  0  0  0  0  0  0  0  0  0
    0.7844    3.4956    2.7668 H   0  0  0  0  0  0  0  0  0  0  0  0
    0.2468    3.9058    1.1193 H   0  0  0  0  0  0  0  0  0  0  0  0
  5  6  2  0  0  0  0
  5  7  1  0  0  0  0
  2  3  1  0  0  0  0
  2  4  1  0  0  0  0
  2  5  1  0  0  0  0
  1  2  1  0  0  0  0
 22 23  2  0  0  0  0
 22 24  1  0  0  0  0
 19 20  1  0  0  0  0
 19 21  1  0  0  0  0
 17 18  2  0  0  0  0
 17 19  1  0  0  0  0
 14 15  1  0  0  0  0
 14 16  1  0  0  0  0
 14 17  1  0  0  0  0
 11 12  1  0  0  0  0
 11 13  1  0  0  0  0
 11 14  1  0  0  0  0
  9 10  1  0  0  0  0
  9 11  1  0  0  0  0
  9 22  1  0  0  0  0
  7  8  1  0  0  0  0
  7  9  1  0  0  0  0
 26 27  1  0  0  0  0
 26 28  1  0  0  0  0
 26 29  1  0  0  0  0
 24 25  1  0  0  0  0
 24 26  1  0  0  0  0
M  END
$$$$
default_name
  -OEChem-02102213163D

 29 28  0     1  0  0  0  0  0999 V2000
   -3.3998   -3.6239    1.3678 H   0  0  0  0  0  0  0  0  0  0  0  0
   -3.3608   -2.6749    0.8348 C   0  0  0  0  0  0  0  0  0  0  0  0
   -4.0988   -1.9909    1.2498 H   0  0  0  0  0  0  0  0  0  0  0  0
   -3.5618   -2.8419   -0.2222 H   0  0  0  0  0  0  0  0  0  0  0  0
   -1.9818   -2.0809    0.9918 C   0  0  0  0  0  0  0  0  0  0  0  0
   -1.1288   -2.6669    1.6468 O   0  0  0  0  0  0  0  0  0  0  0  0
   -1.7648   -0.9089    0.3998 N   0  0  0  0  0  0  0  0  0  0  0  0
   -2.5238   -0.4719   -0.1032 H   0  0  0  0  0  0  0  0  0  0  0  0
   -0.4848   -0.1959    0.4138 C   0  0  1  0  0  0  0  0  0  0  0  0
    0.1386   -0.6144    1.2058 H   0  0  0  0  0  0  0  0  0  0  0  0
    0.2271   -0.4272   -0.9334 C   0  0  0  0  0  0  0  0  0  0  0  0
   -0.2679   -1.2548   -1.4457 H   0  0  0  0  0  0  0  0  0  0  0  0
    0.1226    0.4669   -1.5499 H   0  0  0  0  0  0  0  0  0  0  0  0
    1.7219   -0.7656   -0.7975 C   0  0  0  0  0  0  0  0  0  0  0  0
    2.2626   -0.3961   -1.6685 H   0  0  0  0  0  0  0  0  0  0  0  0
    2.1165   -0.2738    0.0916 H   0  0  0  0  0  0  0  0  0  0  0  0
    1.9904   -2.2655   -0.6764 C   0  0  0  0  0  0  0  0  0  0  0  0
    1.1075   -3.1006   -0.6160 O   0  0  0  0  0  0  0  0  0  0  0  0
    3.2393   -2.6772   -0.6435 N   0  0  0  0  0  0  0  0  0  0  0  0
    3.3576   -3.6723   -0.5642 H   0  0  0  0  0  0  0  0  0  0  0  0
    4.0028   -2.0336   -0.6926 H   0  0  0  0  0  0  0  0  0  0  0  0
   -0.7011    1.2952    0.7149 C   0  0  0  0  0  0  0  0  0  0  0  0
   -1.5917    1.9198    0.1415 O   0  0  0  0  0  0  0  0  0  0  0  0
    0.1191    1.8675    1.6055 N   0  0  0  0  0  0  0  0  0  0  0  0
    0.8092    1.2861    2.0537 H   0  0  0  0  0  0  0  0  0  0  0  0
    0.0509    3.2769    1.9894 C   0  0  0  0  0  0  0  0  0  0  0  0
   -0.9494    3.5076    2.3640 H   0  0  0  0  0  0  0  0  0  0  0  0
    0.7844    3.4956    2.7668 H   0  0  0  0  0  0  0  0  0  0  0  0
    0.2468    3.9058    1.1193 H   0  0  0  0  0  0  0  0  0  0  0  0
  5  6  2  0  0  0  0
  5  7  1  0  0  0  0
  2  3  1  0  0  0  0
  2  4  1  0  0  0  0
  2  5  1  0  0  0  0
  1  2  1  0  0  0  0
 22 23  2  0  0  0  0
 22 24  1  0  0  0  0
 19 20  1  0  0  0  0
 19 21  1  0  0  0  0
 17 18  2  0  0  0  0
 17 19  1  0  0  0  0
 14 15  1  0  0  0  0
 14 16  1  0  0  0  0
 14 17  1  0  0  0  0
 11 12  1  0  0  0  0
 11 13  1  0  0  0  0
 11 14  1  0  0  0  0
  9 10  1  0  0  0  0
  9 11  1  0  0  0  0
  9 22  1  0  0  0  0
  7  8  1  0  0  0  0
  7  9  1  0  0  0  0
 26 27  1  0  0  0  0
 26 28  1  0  0  0  0
 26 29  1  0  0  0  0
 24 25  1  0  0  0  0
 24 26  1  0  0  0  0
M  END
$$$$
default_name
  -OEChem-02102213163D

 29 28  0     1  0  0  0  0  0999 V2000
   -3.3998   -3.6239    1.3678 H   0  0  0  0  0  0  0  0  0  0  0  0
   -3.3608   -2.6749    0.8348 C   0  0  0  0  0  0  0  0  0  0  0  0
   -4.0988   -1.9909    1.2498 H   0  0  0  0  0  0  0  0  0  0  0  0
   -3.5618   -2.8419   -0.2222 H   0  0  0  0  0  0  0  0  0  0  0  0
   -1.9818   -2.0809    0.9918 C   0  0  0  0  0  0  0  0  0  0  0  0
   -1.1288   -2.6669    1.6468 O   0  0  0  0  0  0  0  0  0  0  0  0
   -1.7648   -0.9089    0.3998 N   0  0  0  0  0  0  0  0  0  0  0  0
   -2.5238   -0.4719   -0.1032 H   0  0  0  0  0  0  0  0  0  0  0  0
   -0.4848   -0.1959    0.4138 C   0  0  1  0  0  0  0  0  0  0  0  0
    0.1386   -0.6144    1.2058 H   0  0  0  0  0  0  0  0  0  0  0  0
    0.2271   -0.4272   -0.9334 C   0  0  0  0  0  0  0  0  0  0  0  0
   -0.2679   -1.2548   -1.4457 H   0  0  0  0  0  0  0  0  0  0  0  0
    0.1226    0.4669   -1.5499 H   0  0  0  0  0  0  0  0  0  0  0  0
    1.7219   -0.7656   -0.7975 C   0  0  0  0  0  0  0  0  0  0  0  0
    2.2975   -0.1800   -1.5141 H   0  0  0  0  0  0  0  0  0  0  0  0
    2.0529   -0.5078    0.2085 H   0  0  0  0  0  0  0  0  0  0  0  0
    2.0286   -2.2432   -1.0406 C   0  0  0  0  0  0  0  0  0  0  0  0
    1.1692   -3.0802   -1.2445 O   0  0  0  0  0  0  0  0  0  0  0  0
    3.2857   -2.6304   -1.0373 N   0  0  0  0  0  0  0  0  0  0  0  0
    3.4295   -3.6114   -1.2031 H   0  0  0  0  0  0  0  0  0  0  0  0
    4.0310   -1.9834   -0.8776 H   0  0  0  0  0  0  0  0  0  0  0  0
   -0.7011    1.2952    0.7149 C   0  0  0  0  0  0  0  0  0  0  0  0
   -1.5917    1.9198    0.1415 O   0  0  0  0  0  0  0  0  0  0  0  0
    0.1191    1.8675    1.6055 N   0  0  0  0  0  0  0  0  0  0  0  0
    0.8092    1.2861    2.0537 H   0  0  0  0  0  0  0  0  0  0  0  0
    0.0509    3.2769    1.9894 C   0  0  0  0  0  0  0  0  0  0  0  0
   -0.9494    3.5076    2.3640 H   0  0  0  0  0  0  0  0  0  0  0  0
    0.7844    3.4956    2.7668 H   0  0  0  0  0  0  0  0  0  0  0  0
    0.2468    3.9058    1.1193 H   0  0  0  0  0  0  0  0  0  0  0  0
  5  6  2  0  0  0  0
  5  7  1  0  0  0  0
  2  3  1  0  0  0  0
  2  4  1  0  0  0  0
  2  5  1  0  0  0  0
  1  2  1  0  0  0  0
 22 23  2  0  0  0  0
 22 24  1  0  0  0  0
 19 20  1  0  0  0  0
 19 21  1  0  0  0  0
 17 18  2  0  0  0  0
 17 19  1  0  0  0  0
 14 15  1  0  0  0  0
 14 16  1  0  0  0  0
 14 17  1  0  0  0  0
 11 12  1  0  0  0  0
 11 13  1  0  0  0  0
 11 14  1  0  0  0  0
  9 10  1  0  0  0  0
  9 11  1  0  0  0  0
  9 22  1  0  0  0  0
  7  8  1  0  0  0  0
  7  9  1  0  0  0  0
 26 27  1  0  0  0  0
 26 28  1  0  0  0  0
 26 29  1  0  0  0  0
 24 25  1  0  0  0  0
 24 26  1  0  0  0  0
M  END
$$$$
default_name
  -OEChem-02102213163D

 29 28  0     1  0  0  0  0  0999 V2000
   -3.3998   -3.6239    1.3678 H   0  0  0  0  0  0  0  0  0  0  0  0
   -3.3608   -2.6749    0.8348 C   0  0  0  0  0  0  0  0  0  0  0  0
   -4.0988   -1.9909    1.2498 H   0  0  0  0  0  0  0  0  0  0  0  0
   -3.5618   -2.8419   -0.2222 H   0  0  0  0  0  0  0  0  0  0  0  0
   -1.9818   -2.0809    0.9918 C   0  0  0  0  0  0  0  0  0  0  0  0
   -1.1288   -2.6669    1.6468 O   0  0  0  0  0  0  0  0  0  0  0  0
   -1.7648   -0.9089    0.3998 N   0  0  0  0  0  0  0  0  0  0  0  0
   -2.5238   -0.4719   -0.1032 H   0  0  0  0  0  0  0  0  0  0  0  0
   -0.4848   -0.1959    0.4138 C   0  0  1  0  0  0  0  0  0  0  0  0
    0.1386   -0.6144    1.2058 H   0  0  0  0  0  0  0  0  0  0  0  0
    0.2271   -0.4272   -0.9334 C   0  0  0  0  0  0  0  0  0  0  0  0
   -0.2679   -1.2548   -1.4457 H   0  0  0  0  0  0  0  0  0  0  0  0
    0.1226    0.4669   -1.5499 H   0  0  0  0  0  0  0  0  0  0  0  0
    1.7219   -0.7656   -0.7975 C   0  0  0  0  0  0  0  0  0  0  0  0
    2.3174   -0.0094   -1.3086 H   0  0  0  0  0  0  0  0  0  0  0  0
    1.9902   -0.7646    0.2590 H   0  0  0  0  0  0  0  0  0  0  0  0
    2.0857   -2.1292   -1.3846 C   0  0  0  0  0  0  0  0  0  0  0  0
    1.2642   -2.9011   -1.8429 O   0  0  0  0  0  0  0  0  0  0  0  0
    3.3518   -2.4851   -1.4033 N   0  0  0  0  0  0  0  0  0  0  0  0
    3.5339   -3.3902   -1.8009 H   0  0  0  0  0  0  0  0  0  0  0  0
    4.0676   -1.8877   -1.0421 H   0  0  0  0  0  0  0  0  0  0  0  0
   -0.7011    1.2952    0.7149 C   0  0  0  0  0  0  0  0  0  0  0  0
   -1.5917    1.9198    0.1415 O   0  0  0  0  0  0  0  0  0  0  0  0
    0.1191    1.8675    1.6055 N   0  0  0  0  0  0  0  0  0  0  0  0
    0.8092    1.2861    2.0537 H   0  0  0  0  0  0  0  0  0  0  0  0
    0.0509    3.2769    1.9894 C   0  0  0  0  0  0  0  0  0  0  0  0
   -0.9494    3.5076    2.3640 H   0  0  0  0  0  0  0  0  0  0  0  0
    0.7844    3.4956    2.7668 H   0  0  0  0  0  0  0  0  0  0  0  0
    0.2468    3.9058    1.1193 H   0  0  0  0  0  0  0  0  0  0  0  0
  5  6  2  0  0  0  0
  5  7  1  0  0  0  0
  2  3  1  0  0  0  0
  2  4  1  0  0  0  0
  2  5  1  0  0  0  0
  1  2  1  0  0  0  0
 22 23  2  0  0  0  0
 22 24  1  0  0  0  0
 19 20  1  0  0  0  0
 19 21  1  0  0  0  0
 17 18  2  0  0  0  0
 17 19  1  0  0  0  0
 14 15  1  0  0  0  0
 14 16  1  0  0  0  0
 14 17  1  0  0  0  0
 11 12  1  0  0  0  0
 11 13  1  0  0  0  0
 11 14  1  0  0  0  0
  9 10  1  0  0  0  0
  9 11  1  0  0  0  0
  9 22  1  0  0  0  0
  7  8  1  0  0  0  0
  7  9  1  0  0  0  0
 26 27  1  0  0  0  0
 26 28  1  0  0  0  0
 26 29  1  0  0  0  0
 24 25  1  0  0  0  0
 24 26  1  0  0  0  0
M  END
$$$$
default_name
  -OEChem-02102213163D

 29 28  0     1  0  0  0  0  0999 V2000
   -3.3998   -3.6239    1.3678 H   0  0  0  0  0  0  0  0  0  0  0  0
   -3.3608   -2.6749    0.8348 C   0  0  0  0  0  0  0  0  0  0  0  0
   -4.0988   -1.9909    1.2498 H   0  0  0  0  0  0  0  0  0  0  0  0
   -3.5618   -2.8419   -0.2222 H   0  0  0  0  0  0  0  0  0  0  0  0
   -1.9818   -2.0809    0.9918 C   0  0  0  0  0  0  0  0  0  0  0  0
   -1.1288   -2.6669    1.6468 O   0  0  0  0  0  0  0  0  0  0  0  0
   -1.7648   -0.9089    0.3998 N   0  0  0  0  0  0  0  0  0  0  0  0
   -2.5238   -0.4719   -0.1032 H   0  0  0  0  0  0  0  0  0  0  0  0
   -0.4848   -0.1959    0.4138 C   0  0  1  0  0  0  0  0  0  0  0  0
    0.1386   -0.6144    1.2058 H   0  0  0  0  0  0  0  0  0  0  0  0
    0.2271   -0.4272   -0.9334 C   0  0  0  0  0  0  0  0  0  0  0  0
   -0.2679   -1.2548   -1.4457 H   0  0  0  0  0  0  0  0  0  0  0  0
    0.1226    0.4669   -1.5499 H   0  0  0  0  0  0  0  0  0  0  0  0
    1.7219   -0.7656   -0.7975 C   0  0  0  0  0  0  0  0  0  0  0  0
    2.3211    0.1042   -1.0660 H   0  0  0  0  0  0  0  0  0  0  0  0
    1.9326   -1.0268    0.2395 H   0  0  0  0  0  0  0  0  0  0  0  0
    2.1578   -1.9313   -1.6850 C   0  0  0  0  0  0  0  0  0  0  0  0
    1.3859   -2.5754   -2.3705 O   0  0  0  0  0  0  0  0  0  0  0  0
    3.4333   -2.2512   -1.7165 N   0  0  0  0  0  0  0  0  0  0  0  0
    3.6637   -3.0239   -2.3168 H   0  0  0  0  0  0  0  0  0  0  0  0
    4.1102   -1.7531   -1.1749 H   0  0  0  0  0  0  0  0  0  0  0  0
   -0.7011    1.2952    0.7149 C   0  0  0  0  0  0  0  0  0  0  0  0
   -1.5917    1.9198    0.1415 O   0  0  0  0  0  0  0  0  0  0  0  0
    0.1191    1.8675    1.6055 N   0  0  0  0  0  0  0  0  0  0  0  0
    0.8092    1.2861    2.0537 H   0  0  0  0  0  0  0  0  0  0  0  0
    0.0509    3.2769    1.9894 C   0  0  0  0  0  0  0  0  0  0  0  0
   -0.9494    3.5076    2.3640 H   0  0  0  0  0  0  0  0  0  0  0  0
    0.7844    3.4956    2.7668 H   0  0  0  0  0  0  0  0  0  0  0  0
    0.2468    3.9058    1.1193 H   0  0  0  0  0  0  0  0  0  0  0  0
  5  6  2  0  0  0  0
  5  7  1  0  0  0  0
  2  3  1  0  0  0  0
  2  4  1  0  0  0  0
  2  5  1  0  0  0  0
  1  2  1  0  0  0  0
 22 23  2  0  0  0  0
 22 24  1  0  0  0  0
 19 20  1  0  0  0  0
 19 21  1  0  0  0  0
 17 18  2  0  0  0  0
 17 19  1  0  0  0  0
 14 15  1  0  0  0  0
 14 16  1  0  0  0  0
 14 17  1  0  0  0  0
 11 12  1  0  0  0  0
 11 13  1  0  0  0  0
 11 14  1  0  0  0  0
  9 10  1  0  0  0  0
  9 11  1  0  0  0  0
  9 22  1  0  0  0  0
  7  8  1  0  0  0  0
  7  9  1  0  0  0  0
 26 27  1  0  0  0  0
 26 28  1  0  0  0  0
 26 29  1  0  0  0  0
 24 25  1  0  0  0  0
 24 26  1  0  0  0  0
M  END
$$$$
default_name
  -OEChem-02102213163D

 29 28  0     1  0  0  0  0  0999 V2000
   -3.3998   -3.6239    1.3678 H   0  0  0  0  0  0  0  0  0  0  0  0
   -3.3608   -2.6749    0.8348 C   0  0  0  0  0  0  0  0  0  0  0  0
   -4.0988   -1.9909    1.2498 H   0  0  0  0  0  0  0  0  0  0  0  0
   -3.5618   -2.8419   -0.2222 H   0  0  0  0  0  0  0  0  0  0  0  0
   -1.9818   -2.0809    0.9918 C   0  0  0  0  0  0  0  0  0  0  0  0
   -1.1288   -2.6669    1.6468 O   0  0  0  0  0  0  0  0  0  0  0  0
   -1.7648   -0.9089    0.3998 N   0  0  0  0  0  0  0  0  0  0  0  0
   -2.5238   -0.4719   -0.1032 H   0  0  0  0  0  0  0  0  0  0  0  0
   -0.4848   -0.1959    0.4138 C   0  0  1  0  0  0  0  0  0  0  0  0
    0.1386   -0.6144    1.2058 H   0  0  0  0  0  0  0  0  0  0  0  0
    0.2271   -0.4272   -0.9334 C   0  0  0  0  0  0  0  0  0  0  0  0
   -0.2679   -1.2548   -1.4457 H   0  0  0  0  0  0  0  0  0  0  0  0
    0.1226    0.4669   -1.5499 H   0  0  0  0  0  0  0  0  0  0  0  0
    1.7219   -0.7656   -0.7975 C   0  0  0  0  0  0  0  0  0  0  0  0
    2.3082    0.1531   -0.8030 H   0  0  0  0  0  0  0  0  0  0  0  0
    1.8841   -1.2765    0.1516 H   0  0  0  0  0  0  0  0  0  0  0  0
    2.2400   -1.6630   -1.9212 C   0  0  0  0  0  0  0  0  0  0  0  0
    1.5261   -2.1254   -2.7913 O   0  0  0  0  0  0  0  0  0  0  0  0
    3.5244   -1.9446   -1.9556 N   0  0  0  0  0  0  0  0  0  0  0  0
    3.8101   -2.5374   -2.7155 H   0  0  0  0  0  0  0  0  0  0  0  0
    4.1558   -1.5887   -1.2668 H   0  0  0  0  0  0  0  0  0  0  0  0
   -0.7011    1.2952    0.7149 C   0  0  0  0  0  0  0  0  0  0  0  0
   -1.5917    1.9198    0.1415 O   0  0  0  0  0  0  0  0  0  0  0  0
    0.1191    1.8675    1.6055 N   0  0  0  0  0  0  0  0  0  0  0  0
    0.8092    1.2861    2.0537 H   0  0  0  0  0  0  0  0  0  0  0  0
    0.0509    3.2769    1.9894 C   0  0  0  0  0  0  0  0  0  0  0  0
   -0.9494    3.5076    2.3640 H   0  0  0  0  0  0  0  0  0  0  0  0
    0.7844    3.4956    2.7668 H   0  0  0  0  0  0  0  0  0  0  0  0
    0.2468    3.9058    1.1193 H   0  0  0  0  0  0  0  0  0  0  0  0
  5  6  2  0  0  0  0
  5  7  1  0  0  0  0
  2  3  1  0  0  0  0
  2  4  1  0  0  0  0
  2  5  1  0  0  0  0
  1  2  1  0  0  0  0
 22 23  2  0  0  0  0
 22 24  1  0  0  0  0
 19 20  1  0  0  0  0
 19 21  1  0  0  0  0
 17 18  2  0  0  0  0
 17 19  1  0  0  0  0
 14 15  1  0  0  0  0
 14 16  1  0  0  0  0
 14 17  1  0  0  0  0
 11 12  1  0  0  0  0
 11 13  1  0  0  0  0
 11 14  1  0  0  0  0
  9 10  1  0  0  0  0
  9 11  1  0  0  0  0
  9 22  1  0  0  0  0
  7  8  1  0  0  0  0
  7  9  1  0  0  0  0
 26 27  1  0  0  0  0
 26 28  1  0  0  0  0
 26 29  1  0  0  0  0
 24 25  1  0  0  0  0
 24 26  1  0  0  0  0
M  END
$$$$
default_name
  -OEChem-02102213163D

 29 28  0     1  0  0  0  0  0999 V2000
   -3.3998   -3.6239    1.3678 H   0  0  0  0  0  0  0  0  0  0  0  0
   -3.3608   -2.6749    0.8348 C   0  0  0  0  0  0  0  0  0  0  0  0
   -4.0988   -1.9909    1.2498 H   0  0  0  0  0  0  0  0  0  0  0  0
   -3.5618   -2.8419   -0.2222 H   0  0  0  0  0  0  0  0  0  0  0  0
   -1.9818   -2.0809    0.9918 C   0  0  0  0  0  0  0  0  0  0  0  0
   -1.1288   -2.6669    1.6468 O   0  0  0  0  0  0  0  0  0  0  0  0
   -1.7648   -0.9089    0.3998 N   0  0  0  0  0  0  0  0  0  0  0  0
   -2.5238   -0.4719   -0.1032 H   0  0  0  0  0  0  0  0  0  0  0  0
   -0.4848   -0.1959    0.4138 C   0  0  1  0  0  0  0  0  0  0  0  0
    0.1386   -0.6144    1.2058 H   0  0  0  0  0  0  0  0  0  0  0  0
    0.2271   -0.4272   -0.9334 C   0  0  0  0  0  0  0  0  0  0  0  0
   -0.2679   -1.2548   -1.4457 H   0  0  0  0  0  0  0  0  0  0  0  0
    0.1226    0.4669   -1.5499 H   0  0  0  0  0  0  0  0  0  0  0  0
    1.7219   -0.7656   -0.7975 C   0  0  0  0  0  0  0  0  0  0  0  0
    2.2797    0.1338   -0.5373 H   0  0  0  0  0  0  0  0  0  0  0  0
    1.8479   -1.4966    0.0011 H   0  0  0  0  0  0  0  0  0  0  0  0
    2.3267   -1.3425   -2.0773 C   0  0  0  0  0  0  0  0  0  0  0  0
    1.6751   -1.5817   -3.0767 O   0  0  0  0  0  0  0  0  0  0  0  0
    3.6190   -1.5863   -2.1043 N   0  0  0  0  0  0  0  0  0  0  0  0
    3.9631   -1.9638   -2.9701 H   0  0  0  0  0  0  0  0  0  0  0  0
    4.2013   -1.4057   -1.3117 H   0  0  0  0  0  0  0  0  0  0  0  0
   -0.7011    1.2952    0.7149 C   0  0  0  0  0  0  0  0  0  0  0  0
   -1.5917    1.9198    0.1415 O   0  0  0  0  0  0  0  0  0  0  0  0
    0.1191    1.8675    1.6055 N   0  0  0  0  0  0  0  0  0  0  0  0
    0.8092    1.2861    2.0537 H   0  0  0  0  0  0  0  0  0  0  0  0
    0.0509    3.2769    1.9894 C   0  0  0  0  0  0  0  0  0  0  0  0
   -0.9494    3.5076    2.3640 H   0  0  0  0  0  0  0  0  0  0  0  0
    0.7844    3.4956    2.7668 H   0  0  0  0  0  0  0  0  0  0  0  0
    0.2468    3.9058    1.1193 H   0  0  0  0  0  0  0  0  0  0  0  0
  5  6  2  0  0  0  0
  5  7  1  0  0  0  0
  2  3  1  0  0  0  0
  2  4  1  0  0  0  0
  2  5  1  0  0  0  0
  1  2  1  0  0  0  0
 22 23  2  0  0  0  0
 22 24  1  0  0  0  0
 19 20  1  0  0  0  0
 19 21  1  0  0  0  0
 17 18  2  0  0  0  0
 17 19  1  0  0  0  0
 14 15  1  0  0  0  0
 14 16  1  0  0  0  0
 14 17  1  0  0  0  0
 11 12  1  0  0  0  0
 11 13  1  0  0  0  0
 11 14  1  0  0  0  0
  9 10  1  0  0  0  0
  9 11  1  0  0  0  0
  9 22  1  0  0  0  0
  7  8  1  0  0  0  0
  7  9  1  0  0  0  0
 26 27  1  0  0  0  0
 26 28  1  0  0  0  0
 26 29  1  0  0  0  0
 24 25  1  0  0  0  0
 24 26  1  0  0  0  0
M  END
$$$$
default_name
  -OEChem-02102213163D

 29 28  0     1  0  0  0  0  0999 V2000
   -3.3998   -3.6239    1.3678 H   0  0  0  0  0  0  0  0  0  0  0  0
   -3.3608   -2.6749    0.8348 C   0  0  0  0  0  0  0  0  0  0  0  0
   -4.0988   -1.9909    1.2498 H   0  0  0  0  0  0  0  0  0  0  0  0
   -3.5618   -2.8419   -0.2222 H   0  0  0  0  0  0  0  0  0  0  0  0
   -1.9818   -2.0809    0.9918 C   0  0  0  0  0  0  0  0  0  0  0  0
   -1.1288   -2.6669    1.6468 O   0  0  0  0  0  0  0  0  0  0  0  0
   -1.7648   -0.9089    0.3998 N   0  0  0  0  0  0  0  0  0  0  0  0
   -2.5238   -0.4719   -0.1032 H   0  0  0  0  0  0  0  0  0  0  0  0
   -0.4848   -0.1959    0.4138 C   0  0  1  0  0  0  0  0  0  0  0  0
    0.1386   -0.6144    1.2058 H   0  0  0  0  0  0  0  0  0  0  0  0
    0.2271   -0.4272   -0.9334 C   0  0  0  0  0  0  0  0  0  0  0  0
   -0.4130   -1.0552   -1.5566 H   0  0  0  0  0  0  0  0  0  0  0  0
    0.3580    0.5320   -1.4367 H   0  0  0  0  0  0  0  0  0  0  0  0
    1.5989   -1.1117   -0.8030 C   0  0  0  0  0  0  0  0  0  0  0  0
    2.2559   -0.5020   -0.1831 H   0  0  0  0  0  0  0  0  0  0  0  0
    1.4665   -2.0807   -0.3219 H   0  0  0  0  0  0  0  0  0  0  0  0
    2.2907   -1.3332   -2.1480 C   0  0  0  0  0  0  0  0  0  0  0  0
    1.7756   -1.0660   -3.2175 O   0  0  0  0  0  0  0  0  0  0  0  0
    3.5083   -1.8310   -2.1512 N   0  0  0  0  0  0  0  0  0  0  0  0
    3.9152   -1.9549   -3.0619 H   0  0  0  0  0  0  0  0  0  0  0  0
    3.9788   -2.0656   -1.3007 H   0  0  0  0  0  0  0  0  0  0  0  0
   -0.7011    1.2952    0.7149 C   0  0  0  0  0  0  0  0  0  0  0  0
   -1.5917    1.9198    0.1415 O   0  0  0  0  0  0  0  0  0  0  0  0
    0.1191    1.8675    1.6055 N   0  0  0  0  0  0  0  0  0  0  0  0
    0.8092    1.2861    2.0537 H   0  0  0  0  0  0  0  0  0  0  0  0
    0.0509    3.2769    1.9894 C   0  0  0  0  0  0  0  0  0  0  0  0
   -0.9494    3.5076    2.3640 H   0  0  0  0  0  0  0  0  0  0  0  0
    0.7844    3.4956    2.7668 H   0  0  0  0  0  0  0  0  0  0  0  0
    0.2468    3.9058    1.1193 H   0  0  0  0  0  0  0  0  0  0  0  0
  5  6  2  0  0  0  0
  5  7  1  0  0  0  0
  2  3  1  0  0  0  0
  2  4  1  0  0  0  0
  2  5  1  0  0  0  0
  1  2  1  0  0  0  0
 22 23  2  0  0  0  0
 22 24  1  0  0  0  0
 19 20  1  0  0  0  0
 19 21  1  0  0  0  0
 17 18  2  0  0  0  0
 17 19  1  0  0  0  0
 14 15  1  0  0  0  0
 14 16  1  0  0  0  0
 14 17  1  0  0  0  0
 11 12  1  0  0  0  0
 11 13  1  0  0  0  0
 11 14  1  0  0  0  0
  9 10  1  0  0  0  0
  9 11  1  0  0  0  0
  9 22  1  0  0  0  0
  7  8  1  0  0  0  0
  7  9  1  0  0  0  0
 26 27  1  0  0  0  0
 26 28  1  0  0  0  0
 26 29  1  0  0  0  0
 24 25  1  0  0  0  0
 24 26  1  0  0  0  0
M  END
$$$$
default_name
  -OEChem-02102213163D

 29 28  0     1  0  0  0  0  0999 V2000
   -3.3998   -3.6239    1.3678 H   0  0  0  0  0  0  0  0  0  0  0  0
   -3.3608   -2.6749    0.8348 C   0  0  0  0  0  0  0  0  0  0  0  0
   -4.0988   -1.9909    1.2498 H   0  0  0  0  0  0  0  0  0  0  0  0
   -3.5618   -2.8419   -0.2222 H   0  0  0  0  0  0  0  0  0  0  0  0
   -1.9818   -2.0809    0.9918 C   0  0  0  0  0  0  0  0  0  0  0  0
   -1.1288   -2.6669    1.6468 O   0  0  0  0  0  0  0  0  0  0  0  0
   -1.7648   -0.9089    0.3998 N   0  0  0  0  0  0  0  0  0  0  0  0
   -2.5238   -0.4719   -0.1032 H   0  0  0  0  0  0  0  0  0  0  0  0
   -0.4848   -0.1959    0.4138 C   0  0  1  0  0  0  0  0  0  0  0  0
    0.1386   -0.6144    1.2058 H   0  0  0  0  0  0  0  0  0  0  0  0
    0.2271   -0.4272   -0.9334 C   0  0  0  0  0  0  0  0  0  0  0  0
   -0.4130   -1.0552   -1.5566 H   0  0  0  0  0  0  0  0  0  0  0  0
    0.3580    0.5320   -1.4367 H   0  0  0  0  0  0  0  0  0  0  0  0
    1.5989   -1.1117   -0.8030 C   0  0  0  0  0  0  0  0  0  0  0  0
    2.1599   -0.6570    0.0132 H   0  0  0  0  0  0  0  0  0  0  0  0
    1.4476   -2.1669   -0.5762 H   0  0  0  0  0  0  0  0  0  0  0  0
    2.4451   -1.0093   -2.0719 C   0  0  0  0  0  0  0  0  0  0  0  0
    2.0445   -0.5055   -3.1046 O   0  0  0  0  0  0  0  0  0  0  0  0
    3.6722   -1.4825   -2.0459 N   0  0  0  0  0  0  0  0  0  0  0  0
    4.1832   -1.3882   -2.9064 H   0  0  0  0  0  0  0  0  0  0  0  0
    4.0520   -1.9041   -1.2226 H   0  0  0  0  0  0  0  0  0  0  0  0
   -0.7011    1.2952    0.7149 C   0  0  0  0  0  0  0  0  0  0  0  0
   -1.5917    1.9198    0.1415 O   0  0  0  0  0  0  0  0  0  0  0  0
    0.1191    1.8675    1.6055 N   0  0  0  0  0  0  0  0  0  0  0  0
    0.8092    1.2861    2.0537 H   0  0  0  0  0  0  0  0  0  0  0  0
    0.0509    3.2769    1.9894 C   0  0  0  0  0  0  0  0  0  0  0  0
   -0.9494    3.5076    2.3640 H   0  0  0  0  0  0  0  0  0  0  0  0
    0.7844    3.4956    2.7668 H   0  0  0  0  0  0  0  0  0  0  0  0
    0.2468    3.9058    1.1193 H   0  0  0  0  0  0  0  0  0  0  0  0
  5  6  2  0  0  0  0
  5  7  1  0  0  0  0
  2  3  1  0  0  0  0
  2  4  1  0  0  0  0
  2  5  1  0  0  0  0
  1  2  1  0  0  0  0
 22 23  2  0  0  0  0
 22 24  1  0  0  0  0
 19 20  1  0  0  0  0
 19 21  1  0  0  0  0
 17 18  2  0  0  0  0
 17 19  1  0  0  0  0
 14 15  1  0  0  0  0
 14 16  1  0  0  0  0
 14 17  1  0  0  0  0
 11 12  1  0  0  0  0
 11 13  1  0  0  0  0
 11 14  1  0  0  0  0
  9 10  1  0  0  0  0
  9 11  1  0  0  0  0
  9 22  1  0  0  0  0
  7  8  1  0  0  0  0
  7  9  1  0  0  0  0
 26 27  1  0  0  0  0
 26 28  1  0  0  0  0
 26 29  1  0  0  0  0
 24 25  1  0  0  0  0
 24 26  1  0  0  0  0
M  END
$$$$
default_name
  -OEChem-02102213163D

 29 28  0     1  0  0  0  0  0999 V2000
   -3.3998   -3.6239    1.3678 H   0  0  0  0  0  0  0  0  0  0  0  0
   -3.3608   -2.6749    0.8348 C   0  0  0  0  0  0  0  0  0  0  0  0
   -4.0988   -1.9909    1.2498 H   0  0  0  0  0  0  0  0  0  0  0  0
   -3.5618   -2.8419   -0.2222 H   0  0  0  0  0  0  0  0  0  0  0  0
   -1.9818   -2.0809    0.9918 C   0  0  0  0  0  0  0  0  0  0  0  0
   -1.1288   -2.6669    1.6468 O   0  0  0  0  0  0  0  0  0  0  0  0
   -1.7648   -0.9089    0.3998 N   0  0  0  0  0  0  0  0  0  0  0  0
   -2.5238   -0.4719   -0.1032 H   0  0  0  0  0  0  0  0  0  0  0  0
   -0.4848   -0.1959    0.4138 C   0  0  1  0  0  0  0  0  0  0  0  0
    0.1386   -0.6144    1.2058 H   0  0  0  0  0  0  0  0  0  0  0  0
    0.2271   -0.4272   -0.9334 C   0  0  0  0  0  0  0  0  0  0  0  0
   -0.4130   -1.0552   -1.5566 H   0  0  0  0  0  0  0  0  0  0  0  0
    0.3580    0.5320   -1.4367 H   0  0  0  0  0  0  0  0  0  0  0  0
    1.5989   -1.1117   -0.8030 C   0  0  0  0  0  0  0  0  0  0  0  0
    2.0480   -0.8541    0.1559 H   0  0  0  0  0  0  0  0  0  0  0  0
    1.4605   -2.1920   -0.8438 H   0  0  0  0  0  0  0  0  0  0  0  0
    2.5784   -0.7105   -1.9059 C   0  0  0  0  0  0  0  0  0  0  0  0
    2.2790    0.0157   -2.8352 O   0  0  0  0  0  0  0  0  0  0  0  0
    3.8107   -1.1665   -1.8449 N   0  0  0  0  0  0  0  0  0  0  0  0
    4.4117   -0.8709   -2.5945 H   0  0  0  0  0  0  0  0  0  0  0  0
    4.1102   -1.7644   -1.1015 H   0  0  0  0  0  0  0  0  0  0  0  0
   -0.7011    1.2952    0.7149 C   0  0  0  0  0  0  0  0  0  0  0  0
   -1.5917    1.9198    0.1415 O   0  0  0  0  0  0  0  0  0  0  0  0
    0.1191    1.8675    1.6055 N   0  0  0  0  0  0  0  0  0  0  0  0
    0.8092    1.2861    2.0537 H   0  0  0  0  0  0  0  0  0  0  0  0
    0.0509    3.2769    1.9894 C   0  0  0  0  0  0  0  0  0  0  0  0
   -0.9494    3.5076    2.3640 H   0  0  0  0  0  0  0  0  0  0  0  0
    0.7844    3.4956    2.7668 H   0  0  0  0  0  0  0  0  0  0  0  0
    0.2468    3.9058    1.1193 H   0  0  0  0  0  0  0  0  0  0  0  0
  5  6  2  0  0  0  0
  5  7  1  0  0  0  0
  2  3  1  0  0  0  0
  2  4  1  0  0  0  0
  2  5  1  0  0  0  0
  1  2  1  0  0  0  0
 22 23  2  0  0  0  0
 22 24  1  0  0  0  0
 19 20  1  0  0  0  0
 19 21  1  0  0  0  0
 17 18  2  0  0  0  0
 17 19  1  0  0  0  0
 14 15  1  0  0  0  0
 14 16  1  0  0  0  0
 14 17  1  0  0  0  0
 11 12  1  0  0  0  0
 11 13  1  0  0  0  0
 11 14  1  0  0  0  0
  9 10  1  0  0  0  0
  9 11  1  0  0  0  0
  9 22  1  0  0  0  0
  7  8  1  0  0  0  0
  7  9  1  0  0  0  0
 26 27  1  0  0  0  0
 26 28  1  0  0  0  0
 26 29  1  0  0  0  0
 24 25  1  0  0  0  0
 24 26  1  0  0  0  0
M  END
$$$$
default_name
  -OEChem-02102213163D

 29 28  0     1  0  0  0  0  0999 V2000
   -3.3998   -3.6239    1.3678 H   0  0  0  0  0  0  0  0  0  0  0  0
   -3.3608   -2.6749    0.8348 C   0  0  0  0  0  0  0  0  0  0  0  0
   -4.0988   -1.9909    1.2498 H   0  0  0  0  0  0  0  0  0  0  0  0
   -3.5618   -2.8419   -0.2222 H   0  0  0  0  0  0  0  0  0  0  0  0
   -1.9818   -2.0809    0.9918 C   0  0  0  0  0  0  0  0  0  0  0  0
   -1.1288   -2.6669    1.6468 O   0  0  0  0  0  0  0  0  0  0  0  0
   -1.7648   -0.9089    0.3998 N   0  0  0  0  0  0  0  0  0  0  0  0
   -2.5238   -0.4719   -0.1032 H   0  0  0  0  0  0  0  0  0  0  0  0
   -0.4848   -0.1959    0.4138 C   0  0  1  0  0  0  0  0  0  0  0  0
    0.1386   -0.6144    1.2058 H   0  0  0  0  0  0  0  0  0  0  0  0
    0.2271   -0.4272   -0.9334 C   0  0  0  0  0  0  0  0  0  0  0  0
   -0.4130   -1.0552   -1.5566 H   0  0  0  0  0  0  0  0  0  0  0  0
    0.3580    0.5320   -1.4367 H   0  0  0  0  0  0  0  0  0  0  0  0
    1.5989   -1.1117   -0.8030 C   0  0  0  0  0  0  0  0  0  0  0  0
    1.9278   -1.0799    0.2355 H   0  0  0  0  0  0  0  0  0  0  0  0
    1.5044   -2.1542   -1.1066 H   0  0  0  0  0  0  0  0  0  0  0  0
    2.6815   -0.4573   -1.6613 C   0  0  0  0  0  0  0  0  0  0  0  0
    2.4630    0.4622   -2.4277 O   0  0  0  0  0  0  0  0  0  0  0  0
    3.9145   -0.9047   -1.5619 N   0  0  0  0  0  0  0  0  0  0  0  0
    4.5852   -0.4381   -2.1475 H   0  0  0  0  0  0  0  0  0  0  0  0
    4.1494   -1.6562   -0.9456 H   0  0  0  0  0  0  0  0  0  0  0  0
   -0.7011    1.2952    0.7149 C   0  0  0  0  0  0  0  0  0  0  0  0
   -1.5917    1.9198    0.1415 O   0  0  0  0  0  0  0  0  0  0  0  0
    0.1191    1.8675    1.6055 N   0  0  0  0  0  0  0  0  0  0  0  0
    0.8092    1.2861    2.0537 H   0  0  0  0  0  0  0  0  0  0  0  0
    0.0509    3.2769    1.9894 C   0  0  0  0  0  0  0  0  0  0  0  0
   -0.9494    3.5076    2.3640 H   0  0  0  0  0  0  0  0  0  0  0  0
    0.7844    3.4956    2.7668 H   0  0  0  0  0  0  0  0  0  0  0  0
    0.2468    3.9058    1.1193 H   0  0  0  0  0  0  0  0  0  0  0  0
  5  6  2  0  0  0  0
  5  7  1  0  0  0  0
  2  3  1  0  0  0  0
  2  4  1  0  0  0  0
  2  5  1  0  0  0  0
  1  2  1  0  0  0  0
 22 23  2  0  0  0  0
 22 24  1  0  0  0  0
 19 20  1  0  0  0  0
 19 21  1  0  0  0  0
 17 18  2  0  0  0  0
 17 19  1  0  0  0  0
 14 15  1  0  0  0  0
 14 16  1  0  0  0  0
 14 17  1  0  0  0  0
 11 12  1  0  0  0  0
 11 13  1  0  0  0  0
 11 14  1  0  0  0  0
  9 10  1  0  0  0  0
  9 11  1  0  0  0  0
  9 22  1  0  0  0  0
  7  8  1  0  0  0  0
  7  9  1  0  0  0  0
 26 27  1  0  0  0  0
 26 28  1  0  0  0  0
 26 29  1  0  0  0  0
 24 25  1  0  0  0  0
 24 26  1  0  0  0  0
M  END
$$$$
default_name
  -OEChem-02102213163D

 29 28  0     1  0  0  0  0  0999 V2000
   -3.3998   -3.6239    1.3678 H   0  0  0  0  0  0  0  0  0  0  0  0
   -3.3608   -2.6749    0.8348 C   0  0  0  0  0  0  0  0  0  0  0  0
   -4.0988   -1.9909    1.2498 H   0  0  0  0  0  0  0  0  0  0  0  0
   -3.5618   -2.8419   -0.2222 H   0  0  0  0  0  0  0  0  0  0  0  0
   -1.9818   -2.0809    0.9918 C   0  0  0  0  0  0  0  0  0  0  0  0
   -1.1288   -2.6669    1.6468 O   0  0  0  0  0  0  0  0  0  0  0  0
   -1.7648   -0.9089    0.3998 N   0  0  0  0  0  0  0  0  0  0  0  0
   -2.5238   -0.4719   -0.1032 H   0  0  0  0  0  0  0  0  0  0  0  0
   -0.4848   -0.1959    0.4138 C   0  0  1  0  0  0  0  0  0  0  0  0
    0.1386   -0.6144    1.2058 H   0  0  0  0  0  0  0  0  0  0  0  0
    0.2271   -0.4272   -0.9334 C   0  0  0  0  0  0  0  0  0  0  0  0
   -0.4130   -1.0552   -1.5566 H   0  0  0  0  0  0  0  0  0  0  0  0
    0.3580    0.5320   -1.4367 H   0  0  0  0  0  0  0  0  0  0  0  0
    1.5989   -1.1117   -0.8030 C   0  0  0  0  0  0  0  0  0  0  0  0
    1.8075   -1.3190    0.2463 H   0  0  0  0  0  0  0  0  0  0  0  0
    1.5762   -2.0561   -1.3467 H   0  0  0  0  0  0  0  0  0  0  0  0
    2.7474   -0.2670   -1.3546 C   0  0  0  0  0  0  0  0  0  0  0  0
    2.5841    0.8034   -1.9098 O   0  0  0  0  0  0  0  0  0  0  0  0
    3.9764   -0.7147   -1.2161 N   0  0  0  0  0  0  0  0  0  0  0  0
    4.6918   -0.1194   -1.5959 H   0  0  0  0  0  0  0  0  0  0  0  0
    4.1669   -1.5867   -0.7655 H   0  0  0  0  0  0  0  0  0  0  0  0
   -0.7011    1.2952    0.7149 C   0  0  0  0  0  0  0  0  0  0  0  0
   -1.5917    1.9198    0.1415 O   0  0  0  0  0  0  0  0  0  0  0  0
    0.1191    1.8675    1.6055 N   0  0  0  0  0  0  0  0  0  0  0  0
    0.8092    1.2861    2.0537 H   0  0  0  0  0  0  0  0  0  0  0  0
    0.0509    3.2769    1.9894 C   0  0  0  0  0  0  0  0  0  0  0  0
   -0.9494    3.5076    2.3640 H   0  0  0  0  0  0  0  0  0  0  0  0
    0.7844    3.4956    2.7668 H   0  0  0  0  0  0  0  0  0  0  0  0
    0.2468    3.9058    1.1193 H   0  0  0  0  0  0  0  0  0  0  0  0
  5  6  2  0  0  0  0
  5  7  1  0  0  0  0
  2  3  1  0  0  0  0
  2  4  1  0  0  0  0
  2  5  1  0  0  0  0
  1  2  1  0  0  0  0
 22 23  2  0  0  0  0
 22 24  1  0  0  0  0
 19 20  1  0  0  0  0
 19 21  1  0  0  0  0
 17 18  2  0  0  0  0
 17 19  1  0  0  0  0
 14 15  1  0  0  0  0
 14 16  1  0  0  0  0
 14 17  1  0  0  0  0
 11 12  1  0  0  0  0
 11 13  1  0  0  0  0
 11 14  1  0  0  0  0
  9 10  1  0  0  0  0
  9 11  1  0  0  0  0
  9 22  1  0  0  0  0
  7  8  1  0  0  0  0
  7  9  1  0  0  0  0
 26 27  1  0  0  0  0
 26 28  1  0  0  0  0
 26 29  1  0  0  0  0
 24 25  1  0  0  0  0
 24 26  1  0  0  0  0
M  END
$$$$
default_name
  -OEChem-02102213163D

 29 28  0     1  0  0  0  0  0999 V2000
   -3.3998   -3.6239    1.3678 H   0  0  0  0  0  0  0  0  0  0  0  0
   -3.3608   -2.6749    0.8348 C   0  0  0  0  0  0  0  0  0  0  0  0
   -4.0988   -1.9909    1.2498 H   0  0  0  0  0  0  0  0  0  0  0  0
   -3.5618   -2.8419   -0.2222 H   0  0  0  0  0  0  0  0  0  0  0  0
   -1.9818   -2.0809    0.9918 C   0  0  0  0  0  0  0  0  0  0  0  0
   -1.1288   -2.6669    1.6468 O   0  0  0  0  0  0  0  0  0  0  0  0
   -1.7648   -0.9089    0.3998 N   0  0  0  0  0  0  0  0  0  0  0  0
   -2.5238   -0.4719   -0.1032 H   0  0  0  0  0  0  0  0  0  0  0  0
   -0.4848   -0.1959    0.4138 C   0  0  1  0  0  0  0  0  0  0  0  0
    0.1386   -0.6144    1.2058 H   0  0  0  0  0  0  0  0  0  0  0  0
    0.2271   -0.4272   -0.9334 C   0  0  0  0  0  0  0  0  0  0  0  0
   -0.4130   -1.0552   -1.5566 H   0  0  0  0  0  0  0  0  0  0  0  0
    0.3580    0.5320   -1.4367 H   0  0  0  0  0  0  0  0  0  0  0  0
    1.5989   -1.1117   -0.8030 C   0  0  0  0  0  0  0  0  0  0  0  0
    1.6952   -1.5551    0.1878 H   0  0  0  0  0  0  0  0  0  0  0  0
    1.6710   -1.9043   -1.5477 H   0  0  0  0  0  0  0  0  0  0  0  0
    2.7715   -0.1524   -1.0070 C   0  0  0  0  0  0  0  0  0  0  0  0
    2.6339    1.0162   -1.3170 O   0  0  0  0  0  0  0  0  0  0  0  0
    3.9922   -0.6097   -0.8312 N   0  0  0  0  0  0  0  0  0  0  0  0
    4.7242    0.0635   -0.9774 H   0  0  0  0  0  0  0  0  0  0  0  0
    4.1616   -1.5608   -0.5735 H   0  0  0  0  0  0  0  0  0  0  0  0
   -0.7011    1.2952    0.7149 C   0  0  0  0  0  0  0  0  0  0  0  0
   -1.5917    1.9198    0.1415 O   0  0  0  0  0  0  0  0  0  0  0  0
    0.1191    1.8675    1.6055 N   0  0  0  0  0  0  0  0  0  0  0  0
    0.8092    1.2861    2.0537 H   0  0  0  0  0  0  0  0  0  0  0  0
    0.0509    3.2769    1.9894 C   0  0  0  0  0  0  0  0  0  0  0  0
   -0.9494    3.5076    2.3640 H   0  0  0  0  0  0  0  0  0  0  0  0
    0.7844    3.4956    2.7668 H   0  0  0  0  0  0  0  0  0  0  0  0
    0.2468    3.9058    1.1193 H   0  0  0  0  0  0  0  0  0  0  0  0
  5  6  2  0  0  0  0
  5  7  1  0  0  0  0
  2  3  1  0  0  0  0
  2  4  1  0  0  0  0
  2  5  1  0  0  0  0
  1  2  1  0  0  0  0
 22 23  2  0  0  0  0
 22 24  1  0  0  0  0
 19 20  1  0  0  0  0
 19 21  1  0  0  0  0
 17 18  2  0  0  0  0
 17 19  1  0  0  0  0
 14 15  1  0  0  0  0
 14 16  1  0  0  0  0
 14 17  1  0  0  0  0
 11 12  1  0  0  0  0
 11 13  1  0  0  0  0
 11 14  1  0  0  0  0
  9 10  1  0  0  0  0
  9 11  1  0  0  0  0
  9 22  1  0  0  0  0
  7  8  1  0  0  0  0
  7  9  1  0  0  0  0
 26 27  1  0  0  0  0
 26 28  1  0  0  0  0
 26 29  1  0  0  0  0
 24 25  1  0  0  0  0
 24 26  1  0  0  0  0
M  END
$$$$
default_name
  -OEChem-02102213163D

 29 28  0     1  0  0  0  0  0999 V2000
   -3.3998   -3.6239    1.3678 H   0  0  0  0  0  0  0  0  0  0  0  0
   -3.3608   -2.6749    0.8348 C   0  0  0  0  0  0  0  0  0  0  0  0
   -4.0988   -1.9909    1.2498 H   0  0  0  0  0  0  0  0  0  0  0  0
   -3.5618   -2.8419   -0.2222 H   0  0  0  0  0  0  0  0  0  0  0  0
   -1.9818   -2.0809    0.9918 C   0  0  0  0  0  0  0  0  0  0  0  0
   -1.1288   -2.6669    1.6468 O   0  0  0  0  0  0  0  0  0  0  0  0
   -1.7648   -0.9089    0.3998 N   0  0  0  0  0  0  0  0  0  0  0  0
   -2.5238   -0.4719   -0.1032 H   0  0  0  0  0  0  0  0  0  0  0  0
   -0.4848   -0.1959    0.4138 C   0  0  1  0  0  0  0  0  0  0  0  0
    0.1386   -0.6144    1.2058 H   0  0  0  0  0  0  0  0  0  0  0  0
    0.2271   -0.4272   -0.9334 C   0  0  0  0  0  0  0  0  0  0  0  0
   -0.4130   -1.0552   -1.5566 H   0  0  0  0  0  0  0  0  0  0  0  0
    0.3580    0.5320   -1.4367 H   0  0  0  0  0  0  0  0  0  0  0  0
    1.5989   -1.1117   -0.8030 C   0  0  0  0  0  0  0  0  0  0  0  0
    1.5988   -1.7721    0.0638 H   0  0  0  0  0  0  0  0  0  0  0  0
    1.7824   -1.7092   -1.6960 H   0  0  0  0  0  0  0  0  0  0  0  0
    2.7522   -0.1214   -0.6419 C   0  0  0  0  0  0  0  0  0  0  0  0
    2.6091    1.0860   -0.6895 O   0  0  0  0  0  0  0  0  0  0  0  0
    3.9609   -0.5968   -0.4334 N   0  0  0  0  0  0  0  0  0  0  0  0
    4.6804    0.0981   -0.3339 H   0  0  0  0  0  0  0  0  0  0  0  0
    4.1337   -1.5803   -0.3827 H   0  0  0  0  0  0  0  0  0  0  0  0
   -0.7011    1.2952    0.7149 C   0  0  0  0  0  0  0  0  0  0  0  0
   -1.5917    1.9198    0.1415 O   0  0  0  0  0  0  0  0  0  0  0  0
    0.1191    1.8675    1.6055 N   0  0  0  0  0  0  0  0  0  0  0  0
    0.8092    1.2861    2.0537 H   0  0  0  0  0  0  0  0  0  0  0  0
    0.0509    3.2769    1.9894 C   0  0  0  0  0  0  0  0  0  0  0  0
   -0.9494    3.5076    2.3640 H   0  0  0  0  0  0  0  0  0  0  0  0
    0.7844    3.4956    2.7668 H   0  0  0  0  0  0  0  0  0  0  0  0
    0.2468    3.9058    1.1193 H   0  0  0  0  0  0  0  0  0  0  0  0
  5  6  2  0  0  0  0
  5  7  1  0  0  0  0
  2  3  1  0  0  0  0
  2  4  1  0  0  0  0
  2  5  1  0  0  0  0
  1  2  1  0  0  0  0
 22 23  2  0  0  0  0
 22 24  1  0  0  0  0
 19 20  1  0  0  0  0
 19 21  1  0  0  0  0
 17 18  2  0  0  0  0
 17 19  1  0  0  0  0
 14 15  1  0  0  0  0
 14 16  1  0  0  0  0
 14 17  1  0  0  0  0
 11 12  1  0  0  0  0
 11 13  1  0  0  0  0
 11 14  1  0  0  0  0
  9 10  1  0  0  0  0
  9 11  1  0  0  0  0
  9 22  1  0  0  0  0
  7  8  1  0  0  0  0
  7  9  1  0  0  0  0
 26 27  1  0  0  0  0
 26 28  1  0  0  0  0
 26 29  1  0  0  0  0
 24 25  1  0  0  0  0
 24 26  1  0  0  0  0
M  END
$$$$
default_name
  -OEChem-02102213163D

 29 28  0     1  0  0  0  0  0999 V2000
   -3.3998   -3.6239    1.3678 H   0  0  0  0  0  0  0  0  0  0  0  0
   -3.3608   -2.6749    0.8348 C   0  0  0  0  0  0  0  0  0  0  0  0
   -4.0988   -1.9909    1.2498 H   0  0  0  0  0  0  0  0  0  0  0  0
   -3.5618   -2.8419   -0.2222 H   0  0  0  0  0  0  0  0  0  0  0  0
   -1.9818   -2.0809    0.9918 C   0  0  0  0  0  0  0  0  0  0  0  0
   -1.1288   -2.6669    1.6468 O   0  0  0  0  0  0  0  0  0  0  0  0
   -1.7648   -0.9089    0.3998 N   0  0  0  0  0  0  0  0  0  0  0  0
   -2.5238   -0.4719   -0.1032 H   0  0  0  0  0  0  0  0  0  0  0  0
   -0.4848   -0.1959    0.4138 C   0  0  1  0  0  0  0  0  0  0  0  0
    0.1386   -0.6144    1.2058 H   0  0  0  0  0  0  0  0  0  0  0  0
    0.2271   -0.4272   -0.9334 C   0  0  0  0  0  0  0  0  0  0  0  0
   -0.4130   -1.0552   -1.5566 H   0  0  0  0  0  0  0  0  0  0  0  0
    0.3580    0.5320   -1.4367 H   0  0  0  0  0  0  0  0  0  0  0  0
    1.5989   -1.1117   -0.8030 C   0  0  0  0  0  0  0  0  0  0  0  0
    1.5246   -1.9552   -0.1170 H   0  0  0  0  0  0  0  0  0  0  0  0
    1.9028   -1.4841   -1.7813 H   0  0  0  0  0  0  0  0  0  0  0  0
    2.6909   -0.1762   -0.2844 C   0  0  0  0  0  0  0  0  0  0  0  0
    2.5114    1.0081   -0.0701 O   0  0  0  0  0  0  0  0  0  0  0  0
    3.8845   -0.6768   -0.0497 N   0  0  0  0  0  0  0  0  0  0  0  0
    4.5631   -0.0179    0.2906 H   0  0  0  0  0  0  0  0  0  0  0  0
    4.0853   -1.6437   -0.2061 H   0  0  0  0  0  0  0  0  0  0  0  0
   -0.7011    1.2952    0.7149 C   0  0  0  0  0  0  0  0  0  0  0  0
   -1.5917    1.9198    0.1415 O   0  0  0  0  0  0  0  0  0  0  0  0
    0.1191    1.8675    1.6055 N   0  0  0  0  0  0  0  0  0  0  0  0
    0.8092    1.2861    2.0537 H   0  0  0  0  0  0  0  0  0  0  0  0
    0.0509    3.2769    1.9894 C   0  0  0  0  0  0  0  0  0  0  0  0
   -0.9494    3.5076    2.3640 H   0  0  0  0  0  0  0  0  0  0  0  0
    0.7844    3.4956    2.7668 H   0  0  0  0  0  0  0  0  0  0  0  0
    0.2468    3.9058    1.1193 H   0  0  0  0  0  0  0  0  0  0  0  0
  5  6  2  0  0  0  0
  5  7  1  0  0  0  0
  2  3  1  0  0  0  0
  2  4  1  0  0  0  0
  2  5  1  0  0  0  0
  1  2  1  0  0  0  0
 22 23  2  0  0  0  0
 22 24  1  0  0  0  0
 19 20  1  0  0  0  0
 19 21  1  0  0  0  0
 17 18  2  0  0  0  0
 17 19  1  0  0  0  0
 14 15  1  0  0  0  0
 14 16  1  0  0  0  0
 14 17  1  0  0  0  0
 11 12  1  0  0  0  0
 11 13  1  0  0  0  0
 11 14  1  0  0  0  0
  9 10  1  0  0  0  0
  9 11  1  0  0  0  0
  9 22  1  0  0  0  0
  7  8  1  0  0  0  0
  7  9  1  0  0  0  0
 26 27  1  0  0  0  0
 26 28  1  0  0  0  0
 26 29  1  0  0  0  0
 24 25  1  0  0  0  0
 24 26  1  0  0  0  0
M  END
$$$$
default_name
  -OEChem-02102213163D

 29 28  0     1  0  0  0  0  0999 V2000
   -3.3998   -3.6239    1.3678 H   0  0  0  0  0  0  0  0  0  0  0  0
   -3.3608   -2.6749    0.8348 C   0  0  0  0  0  0  0  0  0  0  0  0
   -4.0988   -1.9909    1.2498 H   0  0  0  0  0  0  0  0  0  0  0  0
   -3.5618   -2.8419   -0.2222 H   0  0  0  0  0  0  0  0  0  0  0  0
   -1.9818   -2.0809    0.9918 C   0  0  0  0  0  0  0  0  0  0  0  0
   -1.1288   -2.6669    1.6468 O   0  0  0  0  0  0  0  0  0  0  0  0
   -1.7648   -0.9089    0.3998 N   0  0  0  0  0  0  0  0  0  0  0  0
   -2.5238   -0.4719   -0.1032 H   0  0  0  0  0  0  0  0  0  0  0  0
   -0.4848   -0.1959    0.4138 C   0  0  1  0  0  0  0  0  0  0  0  0
    0.1386   -0.6144    1.2058 H   0  0  0  0  0  0  0  0  0  0  0  0
    0.2271   -0.4272   -0.9334 C   0  0  0  0  0  0  0  0  0  0  0  0
   -0.4130   -1.0552   -1.5566 H   0  0  0  0  0  0  0  0  0  0  0  0
    0.3580    0.5320   -1.4367 H   0  0  0  0  0  0  0  0  0  0  0  0
    1.5989   -1.1117   -0.8030 C   0  0  0  0  0  0  0  0  0  0  0  0
    1.4778   -2.0919   -0.3426 H   0  0  0  0  0  0  0  0  0  0  0  0
    2.0240   -1.2444   -1.7979 H   0  0  0  0  0  0  0  0  0  0  0  0
    2.5918   -0.3129    0.0413 C   0  0  0  0  0  0  0  0  0  0  0  0
    2.3474    0.7877    0.4989 O   0  0  0  0  0  0  0  0  0  0  0  0
    3.7683   -0.8442    0.2937 N   0  0  0  0  0  0  0  0  0  0  0  0
    4.3806   -0.2766    0.8535 H   0  0  0  0  0  0  0  0  0  0  0  0
    4.0196   -1.7467   -0.0557 H   0  0  0  0  0  0  0  0  0  0  0  0
   -0.7011    1.2952    0.7149 C   0  0  0  0  0  0  0  0  0  0  0  0
   -1.5917    1.9198    0.1415 O   0  0  0  0  0  0  0  0  0  0  0  0
    0.1191    1.8675    1.6055 N   0  0  0  0  0  0  0  0  0  0  0  0
    0.8092    1.2861    2.0537 H   0  0  0  0  0  0  0  0  0  0  0  0
    0.0509    3.2769    1.9894 C   0  0  0  0  0  0  0  0  0  0  0  0
   -0.9494    3.5076    2.3640 H   0  0  0  0  0  0  0  0  0  0  0  0
    0.7844    3.4956    2.7668 H   0  0  0  0  0  0  0  0  0  0  0  0
    0.2468    3.9058    1.1193 H   0  0  0  0  0  0  0  0  0  0  0  0
  5  6  2  0  0  0  0
  5  7  1  0  0  0  0
  2  3  1  0  0  0  0
  2  4  1  0  0  0  0
  2  5  1  0  0  0  0
  1  2  1  0  0  0  0
 22 23  2  0  0  0  0
 22 24  1  0  0  0  0
 19 20  1  0  0  0  0
 19 21  1  0  0  0  0
 17 18  2  0  0  0  0
 17 19  1  0  0  0  0
 14 15  1  0  0  0  0
 14 16  1  0  0  0  0
 14 17  1  0  0  0  0
 11 12  1  0  0  0  0
 11 13  1  0  0  0  0
 11 14  1  0  0  0  0
  9 10  1  0  0  0  0
  9 11  1  0  0  0  0
  9 22  1  0  0  0  0
  7  8  1  0  0  0  0
  7  9  1  0  0  0  0
 26 27  1  0  0  0  0
 26 28  1  0  0  0  0
 26 29  1  0  0  0  0
 24 25  1  0  0  0  0
 24 26  1  0  0  0  0
M  END
$$$$
default_name
  -OEChem-02102213163D

 29 28  0     1  0  0  0  0  0999 V2000
   -3.3998   -3.6239    1.3678 H   0  0  0  0  0  0  0  0  0  0  0  0
   -3.3608   -2.6749    0.8348 C   0  0  0  0  0  0  0  0  0  0  0  0
   -4.0988   -1.9909    1.2498 H   0  0  0  0  0  0  0  0  0  0  0  0
   -3.5618   -2.8419   -0.2222 H   0  0  0  0  0  0  0  0  0  0  0  0
   -1.9818   -2.0809    0.9918 C   0  0  0  0  0  0  0  0  0  0  0  0
   -1.1288   -2.6669    1.6468 O   0  0  0  0  0  0  0  0  0  0  0  0
   -1.7648   -0.9089    0.3998 N   0  0  0  0  0  0  0  0  0  0  0  0
   -2.5238   -0.4719   -0.1032 H   0  0  0  0  0  0  0  0  0  0  0  0
   -0.4848   -0.1959    0.4138 C   0  0  1  0  0  0  0  0  0  0  0  0
    0.1386   -0.6144    1.2058 H   0  0  0  0  0  0  0  0  0  0  0  0
    0.2271   -0.4272   -0.9334 C   0  0  0  0  0  0  0  0  0  0  0  0
   -0.4130   -1.0552   -1.5566 H   0  0  0  0  0  0  0  0  0  0  0  0
    0.3580    0.5320   -1.4367 H   0  0  0  0  0  0  0  0  0  0  0  0
    1.5989   -1.1117   -0.8030 C   0  0  0  0  0  0  0  0  0  0  0  0
    1.4615   -2.1730   -0.5974 H   0  0  0  0  0  0  0  0  0  0  0  0
    2.1377   -1.0064   -1.7447 H   0  0  0  0  0  0  0  0  0  0  0  0
    2.4615   -0.5223    0.3129 C   0  0  0  0  0  0  0  0  0  0  0  0
    2.1282    0.4400    0.9788 O   0  0  0  0  0  0  0  0  0  0  0  0
    3.6202   -1.0878    0.5733 N   0  0  0  0  0  0  0  0  0  0  0  0
    4.1451   -0.6604    1.3165 H   0  0  0  0  0  0  0  0  0  0  0  0
    3.9411   -1.8824    0.0582 H   0  0  0  0  0  0  0  0  0  0  0  0
   -0.7011    1.2952    0.7149 C   0  0  0  0  0  0  0  0  0  0  0  0
   -1.5917    1.9198    0.1415 O   0  0  0  0  0  0  0  0  0  0  0  0
    0.1191    1.8675    1.6055 N   0  0  0  0  0  0  0  0  0  0  0  0
    0.8092    1.2861    2.0537 H   0  0  0  0  0  0  0  0  0  0  0  0
    0.0509    3.2769    1.9894 C   0  0  0  0  0  0  0  0  0  0  0  0
   -0.9494    3.5076    2.3640 H   0  0  0  0  0  0  0  0  0  0  0  0
    0.7844    3.4956    2.7668 H   0  0  0  0  0  0  0  0  0  0  0  0
    0.2468    3.9058    1.1193 H   0  0  0  0  0  0  0  0  0  0  0  0
  5  6  2  0  0  0  0
  5  7  1  0  0  0  0
  2  3  1  0  0  0  0
  2  4  1  0  0  0  0
  2  5  1  0  0  0  0
  1  2  1  0  0  0  0
 22 23  2  0  0  0  0
 22 24  1  0  0  0  0
 19 20  1  0  0  0  0
 19 21  1  0  0  0  0
 17 18  2  0  0  0  0
 17 19  1  0  0  0  0
 14 15  1  0  0  0  0
 14 16  1  0  0  0  0
 14 17  1  0  0  0  0
 11 12  1  0  0  0  0
 11 13  1  0  0  0  0
 11 14  1  0  0  0  0
  9 10  1  0  0  0  0
  9 11  1  0  0  0  0
  9 22  1  0  0  0  0
  7  8  1  0  0  0  0
  7  9  1  0  0  0  0
 26 27  1  0  0  0  0
 26 28  1  0  0  0  0
 26 29  1  0  0  0  0
 24 25  1  0  0  0  0
 24 26  1  0  0  0  0
M  END
$$$$
default_name
  -OEChem-02102213163D

 29 28  0     1  0  0  0  0  0999 V2000
   -3.3998   -3.6239    1.3678 H   0  0  0  0  0  0  0  0  0  0  0  0
   -3.3608   -2.6749    0.8348 C   0  0  0  0  0  0  0  0  0  0  0  0
   -4.0988   -1.9909    1.2498 H   0  0  0  0  0  0  0  0  0  0  0  0
   -3.5618   -2.8419   -0.2222 H   0  0  0  0  0  0  0  0  0  0  0  0
   -1.9818   -2.0809    0.9918 C   0  0  0  0  0  0  0  0  0  0  0  0
   -1.1288   -2.6669    1.6468 O   0  0  0  0  0  0  0  0  0  0  0  0
   -1.7648   -0.9089    0.3998 N   0  0  0  0  0  0  0  0  0  0  0  0
   -2.5238   -0.4719   -0.1032 H   0  0  0  0  0  0  0  0  0  0  0  0
   -0.4848   -0.1959    0.4138 C   0  0  1  0  0  0  0  0  0  0  0  0
    0.1386   -0.6144    1.2058 H   0  0  0  0  0  0  0  0  0  0  0  0
    0.2271   -0.4272   -0.9334 C   0  0  0  0  0  0  0  0  0  0  0  0
   -0.4130   -1.0552   -1.5566 H   0  0  0  0  0  0  0  0  0  0  0  0
    0.3580    0.5320   -1.4367 H   0  0  0  0  0  0  0  0  0  0  0  0
    1.5989   -1.1117   -0.8030 C   0  0  0  0  0  0  0  0  0  0  0  0
    1.4770   -2.1929   -0.8640 H   0  0  0  0  0  0  0  0  0  0  0  0
    2.2362   -0.7862   -1.6252 H   0  0  0  0  0  0  0  0  0  0  0  0
    2.3089   -0.7901    0.5119 C   0  0  0  0  0  0  0  0  0  0  0  0
    1.8690   -0.0114    1.3369 O   0  0  0  0  0  0  0  0  0  0  0  0
    3.4503   -1.3908    0.7701 N   0  0  0  0  0  0  0  0  0  0  0  0
    3.8727   -1.1431    1.6481 H   0  0  0  0  0  0  0  0  0  0  0  0
    3.8551   -2.0415    0.1279 H   0  0  0  0  0  0  0  0  0  0  0  0
   -0.7011    1.2952    0.7149 C   0  0  0  0  0  0  0  0  0  0  0  0
   -1.5917    1.9198    0.1415 O   0  0  0  0  0  0  0  0  0  0  0  0
    0.1191    1.8675    1.6055 N   0  0  0  0  0  0  0  0  0  0  0  0
    0.8092    1.2861    2.0537 H   0  0  0  0  0  0  0  0  0  0  0  0
    0.0509    3.2769    1.9894 C   0  0  0  0  0  0  0  0  0  0  0  0
   -0.9494    3.5076    2.3640 H   0  0  0  0  0  0  0  0  0  0  0  0
    0.7844    3.4956    2.7668 H   0  0  0  0  0  0  0  0  0  0  0  0
    0.2468    3.9058    1.1193 H   0  0  0  0  0  0  0  0  0  0  0  0
  5  6  2  0  0  0  0
  5  7  1  0  0  0  0
  2  3  1  0  0  0  0
  2  4  1  0  0  0  0
  2  5  1  0  0  0  0
  1  2  1  0  0  0  0
 22 23  2  0  0  0  0
 22 24  1  0  0  0  0
 19 20  1  0  0  0  0
 19 21  1  0  0  0  0
 17 18  2  0  0  0  0
 17 19  1  0  0  0  0
 14 15  1  0  0  0  0
 14 16  1  0  0  0  0
 14 17  1  0  0  0  0
 11 12  1  0  0  0  0
 11 13  1  0  0  0  0
 11 14  1  0  0  0  0
  9 10  1  0  0  0  0
  9 11  1  0  0  0  0
  9 22  1  0  0  0  0
  7  8  1  0  0  0  0
  7  9  1  0  0  0  0
 26 27  1  0  0  0  0
 26 28  1  0  0  0  0
 26 29  1  0  0  0  0
 24 25  1  0  0  0  0
 24 26  1  0  0  0  0
M  END
$$$$
default_name
  -OEChem-02102213163D

 29 28  0     1  0  0  0  0  0999 V2000
   -3.3998   -3.6239    1.3678 H   0  0  0  0  0  0  0  0  0  0  0  0
   -3.3608   -2.6749    0.8348 C   0  0  0  0  0  0  0  0  0  0  0  0
   -4.0988   -1.9909    1.2498 H   0  0  0  0  0  0  0  0  0  0  0  0
   -3.5618   -2.8419   -0.2222 H   0  0  0  0  0  0  0  0  0  0  0  0
   -1.9818   -2.0809    0.9918 C   0  0  0  0  0  0  0  0  0  0  0  0
   -1.1288   -2.6669    1.6468 O   0  0  0  0  0  0  0  0  0  0  0  0
   -1.7648   -0.9089    0.3998 N   0  0  0  0  0  0  0  0  0  0  0  0
   -2.5238   -0.4719   -0.1032 H   0  0  0  0  0  0  0  0  0  0  0  0
   -0.4848   -0.1959    0.4138 C   0  0  1  0  0  0  0  0  0  0  0  0
    0.1386   -0.6144    1.2058 H   0  0  0  0  0  0  0  0  0  0  0  0
    0.2271   -0.4272   -0.9334 C   0  0  0  0  0  0  0  0  0  0  0  0
   -0.4130   -1.0552   -1.5566 H   0  0  0  0  0  0  0  0  0  0  0  0
    0.3580    0.5320   -1.4367 H   0  0  0  0  0  0  0  0  0  0  0  0
    1.5989   -1.1117   -0.8030 C   0  0  0  0  0  0  0  0  0  0  0  0
    1.5230   -2.1502   -1.1244 H   0  0  0  0  0  0  0  0  0  0  0  0
    2.3128   -0.5990   -1.4477 H   0  0  0  0  0  0  0  0  0  0  0  0
    2.1446   -1.0980    0.6248 C   0  0  0  0  0  0  0  0  0  0  0  0
    1.5872   -0.5358    1.5488 O   0  0  0  0  0  0  0  0  0  0  0  0
    3.2702   -1.7326    0.8708 N   0  0  0  0  0  0  0  0  0  0  0  0
    3.5820   -1.6919    1.8256 H   0  0  0  0  0  0  0  0  0  0  0  0
    3.7675   -2.2131    0.1486 H   0  0  0  0  0  0  0  0  0  0  0  0
   -0.7011    1.2952    0.7149 C   0  0  0  0  0  0  0  0  0  0  0  0
   -1.5917    1.9198    0.1415 O   0  0  0  0  0  0  0  0  0  0  0  0
    0.1191    1.8675    1.6055 N   0  0  0  0  0  0  0  0  0  0  0  0
    0.8092    1.2861    2.0537 H   0  0  0  0  0  0  0  0  0  0  0  0
    0.0509    3.2769    1.9894 C   0  0  0  0  0  0  0  0  0  0  0  0
   -0.9494    3.5076    2.3640 H   0  0  0  0  0  0  0  0  0  0  0  0
    0.7844    3.4956    2.7668 H   0  0  0  0  0  0  0  0  0  0  0  0
    0.2468    3.9058    1.1193 H   0  0  0  0  0  0  0  0  0  0  0  0
  5  6  2  0  0  0  0
  5  7  1  0  0  0  0
  2  3  1  0  0  0  0
  2  4  1  0  0  0  0
  2  5  1  0  0  0  0
  1  2  1  0  0  0  0
 22 23  2  0  0  0  0
 22 24  1  0  0  0  0
 19 20  1  0  0  0  0
 19 21  1  0  0  0  0
 17 18  2  0  0  0  0
 17 19  1  0  0  0  0
 14 15  1  0  0  0  0
 14 16  1  0  0  0  0
 14 17  1  0  0  0  0
 11 12  1  0  0  0  0
 11 13  1  0  0  0  0
 11 14  1  0  0  0  0
  9 10  1  0  0  0  0
  9 11  1  0  0  0  0
  9 22  1  0  0  0  0
  7  8  1  0  0  0  0
  7  9  1  0  0  0  0
 26 27  1  0  0  0  0
 26 28  1  0  0  0  0
 26 29  1  0  0  0  0
 24 25  1  0  0  0  0
 24 26  1  0  0  0  0
M  END
$$$$
default_name
  -OEChem-02102213163D

 29 28  0     1  0  0  0  0  0999 V2000
   -3.3998   -3.6239    1.3678 H   0  0  0  0  0  0  0  0  0  0  0  0
   -3.3608   -2.6749    0.8348 C   0  0  0  0  0  0  0  0  0  0  0  0
   -4.0988   -1.9909    1.2498 H   0  0  0  0  0  0  0  0  0  0  0  0
   -3.5618   -2.8419   -0.2222 H   0  0  0  0  0  0  0  0  0  0  0  0
   -1.9818   -2.0809    0.9918 C   0  0  0  0  0  0  0  0  0  0  0  0
   -1.1288   -2.6669    1.6468 O   0  0  0  0  0  0  0  0  0  0  0  0
   -1.7648   -0.9089    0.3998 N   0  0  0  0  0  0  0  0  0  0  0  0
   -2.5238   -0.4719   -0.1032 H   0  0  0  0  0  0  0  0  0  0  0  0
   -0.4848   -0.1959    0.4138 C   0  0  1  0  0  0  0  0  0  0  0  0
    0.1386   -0.6144    1.2058 H   0  0  0  0  0  0  0  0  0  0  0  0
    0.2271   -0.4272   -0.9334 C   0  0  0  0  0  0  0  0  0  0  0  0
   -0.4130   -1.0552   -1.5566 H   0  0  0  0  0  0  0  0  0  0  0  0
    0.3580    0.5320   -1.4367 H   0  0  0  0  0  0  0  0  0  0  0  0
    1.5989   -1.1117   -0.8030 C   0  0  0  0  0  0  0  0  0  0  0  0
    1.5965   -2.0479   -1.3608 H   0  0  0  0  0  0  0  0  0  0  0  0
    2.3622   -0.4574   -1.2242 H   0  0  0  0  0  0  0  0  0  0  0  0
    1.9796   -1.4251    0.6438 C   0  0  0  0  0  0  0  0  0  0  0  0
    1.3021   -1.0973    1.6000 O   0  0  0  0  0  0  0  0  0  0  0  0
    3.0921   -2.0900    0.8684 N   0  0  0  0  0  0  0  0  0  0  0  0
    3.2928   -2.2693    1.8369 H   0  0  0  0  0  0  0  0  0  0  0  0
    3.6842   -2.3856    0.1190 H   0  0  0  0  0  0  0  0  0  0  0  0
   -0.7011    1.2952    0.7149 C   0  0  0  0  0  0  0  0  0  0  0  0
   -1.5917    1.9198    0.1415 O   0  0  0  0  0  0  0  0  0  0  0  0
    0.1191    1.8675    1.6055 N   0  0  0  0  0  0  0  0  0  0  0  0
    0.8092    1.2861    2.0537 H   0  0  0  0  0  0  0  0  0  0  0  0
    0.0509    3.2769    1.9894 C   0  0  0  0  0  0  0  0  0  0  0  0
   -0.9494    3.5076    2.3640 H   0  0  0  0  0  0  0  0  0  0  0  0
    0.7844    3.4956    2.7668 H   0  0  0  0  0  0  0  0  0  0  0  0
    0.2468    3.9058    1.1193 H   0  0  0  0  0  0  0  0  0  0  0  0
  5  6  2  0  0  0  0
  5  7  1  0  0  0  0
  2  3  1  0  0  0  0
  2  4  1  0  0  0  0
  2  5  1  0  0  0  0
  1  2  1  0  0  0  0
 22 23  2  0  0  0  0
 22 24  1  0  0  0  0
 19 20  1  0  0  0  0
 19 21  1  0  0  0  0
 17 18  2  0  0  0  0
 17 19  1  0  0  0  0
 14 15  1  0  0  0  0
 14 16  1  0  0  0  0
 14 17  1  0  0  0  0
 11 12  1  0  0  0  0
 11 13  1  0  0  0  0
 11 14  1  0  0  0  0
  9 10  1  0  0  0  0
  9 11  1  0  0  0  0
  9 22  1  0  0  0  0
  7  8  1  0  0  0  0
  7  9  1  0  0  0  0
 26 27  1  0  0  0  0
 26 28  1  0  0  0  0
 26 29  1  0  0  0  0
 24 25  1  0  0  0  0
 24 26  1  0  0  0  0
M  END
$$$$
default_name
  -OEChem-02102213163D

 29 28  0     1  0  0  0  0  0999 V2000
   -3.3998   -3.6239    1.3678 H   0  0  0  0  0  0  0  0  0  0  0  0
   -3.3608   -2.6749    0.8348 C   0  0  0  0  0  0  0  0  0  0  0  0
   -4.0988   -1.9909    1.2498 H   0  0  0  0  0  0  0  0  0  0  0  0
   -3.5618   -2.8419   -0.2222 H   0  0  0  0  0  0  0  0  0  0  0  0
   -1.9818   -2.0809    0.9918 C   0  0  0  0  0  0  0  0  0  0  0  0
   -1.1288   -2.6669    1.6468 O   0  0  0  0  0  0  0  0  0  0  0  0
   -1.7648   -0.9089    0.3998 N   0  0  0  0  0  0  0  0  0  0  0  0
   -2.5238   -0.4719   -0.1032 H   0  0  0  0  0  0  0  0  0  0  0  0
   -0.4848   -0.1959    0.4138 C   0  0  1  0  0  0  0  0  0  0  0  0
    0.1386   -0.6144    1.2058 H   0  0  0  0  0  0  0  0  0  0  0  0
    0.2271   -0.4272   -0.9334 C   0  0  0  0  0  0  0  0  0  0  0  0
   -0.4130   -1.0552   -1.5566 H   0  0  0  0  0  0  0  0  0  0  0  0
    0.3580    0.5320   -1.4367 H   0  0  0  0  0  0  0  0  0  0  0  0
    1.5989   -1.1117   -0.8030 C   0  0  0  0  0  0  0  0  0  0  0  0
    1.6925   -1.8929   -1.5571 H   0  0  0  0  0  0  0  0  0  0  0  0
    2.3811   -0.3711   -0.9700 H   0  0  0  0  0  0  0  0  0  0  0  0
    1.8251   -1.7491    0.5678 C   0  0  0  0  0  0  0  0  0  0  0  0
    1.0332   -1.6578    1.4870 O   0  0  0  0  0  0  0  0  0  0  0  0
    2.9282   -2.4385    0.7631 N   0  0  0  0  0  0  0  0  0  0  0  0
    3.0249   -2.8360    1.6814 H   0  0  0  0  0  0  0  0  0  0  0  0
    3.6110   -2.5472    0.0409 H   0  0  0  0  0  0  0  0  0  0  0  0
   -0.7011    1.2952    0.7149 C   0  0  0  0  0  0  0  0  0  0  0  0
   -1.5917    1.9198    0.1415 O   0  0  0  0  0  0  0  0  0  0  0  0
    0.1191    1.8675    1.6055 N   0  0  0  0  0  0  0  0  0  0  0  0
    0.8092    1.2861    2.0537 H   0  0  0  0  0  0  0  0  0  0  0  0
    0.0509    3.2769    1.9894 C   0  0  0  0  0  0  0  0  0  0  0  0
   -0.9494    3.5076    2.3640 H   0  0  0  0  0  0  0  0  0  0  0  0
    0.7844    3.4956    2.7668 H   0  0  0  0  0  0  0  0  0  0  0  0
    0.2468    3.9058    1.1193 H   0  0  0  0  0  0  0  0  0  0  0  0
  5  6  2  0  0  0  0
  5  7  1  0  0  0  0
  2  3  1  0  0  0  0
  2  4  1  0  0  0  0
  2  5  1  0  0  0  0
  1  2  1  0  0  0  0
 22 23  2  0  0  0  0
 22 24  1  0  0  0  0
 19 20  1  0  0  0  0
 19 21  1  0  0  0  0
 17 18  2  0  0  0  0
 17 19  1  0  0  0  0
 14 15  1  0  0  0  0
 14 16  1  0  0  0  0
 14 17  1  0  0  0  0
 11 12  1  0  0  0  0
 11 13  1  0  0  0  0
 11 14  1  0  0  0  0
  9 10  1  0  0  0  0
  9 11  1  0  0  0  0
  9 22  1  0  0  0  0
  7  8  1  0  0  0  0
  7  9  1  0  0  0  0
 26 27  1  0  0  0  0
 26 28  1  0  0  0  0
 26 29  1  0  0  0  0
 24 25  1  0  0  0  0
 24 26  1  0  0  0  0
M  END
$$$$
default_name
  -OEChem-02102213163D

 29 28  0     1  0  0  0  0  0999 V2000
   -3.3998   -3.6239    1.3678 H   0  0  0  0  0  0  0  0  0  0  0  0
   -3.3608   -2.6749    0.8348 C   0  0  0  0  0  0  0  0  0  0  0  0
   -4.0988   -1.9909    1.2498 H   0  0  0  0  0  0  0  0  0  0  0  0
   -3.5618   -2.8419   -0.2222 H   0  0  0  0  0  0  0  0  0  0  0  0
   -1.9818   -2.0809    0.9918 C   0  0  0  0  0  0  0  0  0  0  0  0
   -1.1288   -2.6669    1.6468 O   0  0  0  0  0  0  0  0  0  0  0  0
   -1.7648   -0.9089    0.3998 N   0  0  0  0  0  0  0  0  0  0  0  0
   -2.5238   -0.4719   -0.1032 H   0  0  0  0  0  0  0  0  0  0  0  0
   -0.4848   -0.1959    0.4138 C   0  0  1  0  0  0  0  0  0  0  0  0
    0.1386   -0.6144    1.2058 H   0  0  0  0  0  0  0  0  0  0  0  0
    0.2271   -0.4272   -0.9334 C   0  0  0  0  0  0  0  0  0  0  0  0
   -0.4130   -1.0552   -1.5566 H   0  0  0  0  0  0  0  0  0  0  0  0
    0.3580    0.5320   -1.4367 H   0  0  0  0  0  0  0  0  0  0  0  0
    1.5989   -1.1117   -0.8030 C   0  0  0  0  0  0  0  0  0  0  0  0
    1.8044   -1.6958   -1.6998 H   0  0  0  0  0  0  0  0  0  0  0  0
    2.3681   -0.3460   -0.7023 H   0  0  0  0  0  0  0  0  0  0  0  0
    1.6918   -2.0479    0.4017 C   0  0  0  0  0  0  0  0  0  0  0  0
    0.7987   -2.1791    1.2176 O   0  0  0  0  0  0  0  0  0  0  0  0
    2.7897   -2.7545    0.5621 N   0  0  0  0  0  0  0  0  0  0  0  0
    2.7964   -3.3534    1.3695 H   0  0  0  0  0  0  0  0  0  0  0  0
    3.5529   -2.6868   -0.0802 H   0  0  0  0  0  0  0  0  0  0  0  0
   -0.7011    1.2952    0.7149 C   0  0  0  0  0  0  0  0  0  0  0  0
   -1.5917    1.9198    0.1415 O   0  0  0  0  0  0  0  0  0  0  0  0
    0.1191    1.8675    1.6055 N   0  0  0  0  0  0  0  0  0  0  0  0
    0.8092    1.2861    2.0537 H   0  0  0  0  0  0  0  0  0  0  0  0
    0.0509    3.2769    1.9894 C   0  0  0  0  0  0  0  0  0  0  0  0
   -0.9494    3.5076    2.3640 H   0  0  0  0  0  0  0  0  0  0  0  0
    0.7844    3.4956    2.7668 H   0  0  0  0  0  0  0  0  0  0  0  0
    0.2468    3.9058    1.1193 H   0  0  0  0  0  0  0  0  0  0  0  0
  5  6  2  0  0  0  0
  5  7  1  0  0  0  0
  2  3  1  0  0  0  0
  2  4  1  0  0  0  0
  2  5  1  0  0  0  0
  1  2  1  0  0  0  0
 22 23  2  0  0  0  0
 22 24  1  0  0  0  0
 19 20  1  0  0  0  0
 19 21  1  0  0  0  0
 17 18  2  0  0  0  0
 17 19  1  0  0  0  0
 14 15  1  0  0  0  0
 14 16  1  0  0  0  0
 14 17  1  0  0  0  0
 11 12  1  0  0  0  0
 11 13  1  0  0  0  0
 11 14  1  0  0  0  0
  9 10  1  0  0  0  0
  9 11  1  0  0  0  0
  9 22  1  0  0  0  0
  7  8  1  0  0  0  0
  7  9  1  0  0  0  0
 26 27  1  0  0  0  0
 26 28  1  0  0  0  0
 26 29  1  0  0  0  0
 24 25  1  0  0  0  0
 24 26  1  0  0  0  0
M  END
$$$$
default_name
  -OEChem-02102213163D

 29 28  0     1  0  0  0  0  0999 V2000
   -3.3998   -3.6239    1.3678 H   0  0  0  0  0  0  0  0  0  0  0  0
   -3.3608   -2.6749    0.8348 C   0  0  0  0  0  0  0  0  0  0  0  0
   -4.0988   -1.9909    1.2498 H   0  0  0  0  0  0  0  0  0  0  0  0
   -3.5618   -2.8419   -0.2222 H   0  0  0  0  0  0  0  0  0  0  0  0
   -1.9818   -2.0809    0.9918 C   0  0  0  0  0  0  0  0  0  0  0  0
   -1.1288   -2.6669    1.6468 O   0  0  0  0  0  0  0  0  0  0  0  0
   -1.7648   -0.9089    0.3998 N   0  0  0  0  0  0  0  0  0  0  0  0
   -2.5238   -0.4719   -0.1032 H   0  0  0  0  0  0  0  0  0  0  0  0
   -0.4848   -0.1959    0.4138 C   0  0  1  0  0  0  0  0  0  0  0  0
    0.1386   -0.6144    1.2058 H   0  0  0  0  0  0  0  0  0  0  0  0
    0.2271   -0.4272   -0.9334 C   0  0  0  0  0  0  0  0  0  0  0  0
   -0.4130   -1.0552   -1.5566 H   0  0  0  0  0  0  0  0  0  0  0  0
    0.3580    0.5320   -1.4367 H   0  0  0  0  0  0  0  0  0  0  0  0
    1.5989   -1.1117   -0.8030 C   0  0  0  0  0  0  0  0  0  0  0  0
    1.9246   -1.4700   -1.7793 H   0  0  0  0  0  0  0  0  0  0  0  0
    2.3243   -0.3838   -0.4395 H   0  0  0  0  0  0  0  0  0  0  0  0
    1.5888   -2.3011    0.1571 C   0  0  0  0  0  0  0  0  0  0  0  0
    0.6147   -2.6255    0.8102 O   0  0  0  0  0  0  0  0  0  0  0  0
    2.6859   -3.0164    0.2791 N   0  0  0  0  0  0  0  0  0  0  0  0
    2.6229   -3.7861    0.9225 H   0  0  0  0  0  0  0  0  0  0  0  0
    3.5137   -2.7951   -0.2361 H   0  0  0  0  0  0  0  0  0  0  0  0
   -0.7011    1.2952    0.7149 C   0  0  0  0  0  0  0  0  0  0  0  0
   -1.5917    1.9198    0.1415 O   0  0  0  0  0  0  0  0  0  0  0  0
    0.1191    1.8675    1.6055 N   0  0  0  0  0  0  0  0  0  0  0  0
    0.8092    1.2861    2.0537 H   0  0  0  0  0  0  0  0  0  0  0  0
    0.0509    3.2769    1.9894 C   0  0  0  0  0  0  0  0  0  0  0  0
   -0.9494    3.5076    2.3640 H   0  0  0  0  0  0  0  0  0  0  0  0
    0.7844    3.4956    2.7668 H   0  0  0  0  0  0  0  0  0  0  0  0
    0.2468    3.9058    1.1193 H   0  0  0  0  0  0  0  0  0  0  0  0
  5  6  2  0  0  0  0
  5  7  1  0  0  0  0
  2  3  1  0  0  0  0
  2  4  1  0  0  0  0
  2  5  1  0  0  0  0
  1  2  1  0  0  0  0
 22 23  2  0  0  0  0
 22 24  1  0  0  0  0
 19 20  1  0  0  0  0
 19 21  1  0  0  0  0
 17 18  2  0  0  0  0
 17 19  1  0  0  0  0
 14 15  1  0  0  0  0
 14 16  1  0  0  0  0
 14 17  1  0  0  0  0
 11 12  1  0  0  0  0
 11 13  1  0  0  0  0
 11 14  1  0  0  0  0
  9 10  1  0  0  0  0
  9 11  1  0  0  0  0
  9 22  1  0  0  0  0
  7  8  1  0  0  0  0
  7  9  1  0  0  0  0
 26 27  1  0  0  0  0
 26 28  1  0  0  0  0
 26 29  1  0  0  0  0
 24 25  1  0  0  0  0
 24 26  1  0  0  0  0
M  END
$$$$
default_name
  -OEChem-02102213163D

 29 28  0     1  0  0  0  0  0999 V2000
   -3.3998   -3.6239    1.3678 H   0  0  0  0  0  0  0  0  0  0  0  0
   -3.3608   -2.6749    0.8348 C   0  0  0  0  0  0  0  0  0  0  0  0
   -4.0988   -1.9909    1.2498 H   0  0  0  0  0  0  0  0  0  0  0  0
   -3.5618   -2.8419   -0.2222 H   0  0  0  0  0  0  0  0  0  0  0  0
   -1.9818   -2.0809    0.9918 C   0  0  0  0  0  0  0  0  0  0  0  0
   -1.1288   -2.6669    1.6468 O   0  0  0  0  0  0  0  0  0  0  0  0
   -1.7648   -0.9089    0.3998 N   0  0  0  0  0  0  0  0  0  0  0  0
   -2.5238   -0.4719   -0.1032 H   0  0  0  0  0  0  0  0  0  0  0  0
   -0.4848   -0.1959    0.4138 C   0  0  1  0  0  0  0  0  0  0  0  0
    0.1386   -0.6144    1.2058 H   0  0  0  0  0  0  0  0  0  0  0  0
    0.2271   -0.4272   -0.9334 C   0  0  0  0  0  0  0  0  0  0  0  0
   -0.4130   -1.0552   -1.5566 H   0  0  0  0  0  0  0  0  0  0  0  0
    0.3580    0.5320   -1.4367 H   0  0  0  0  0  0  0  0  0  0  0  0
    1.5989   -1.1117   -0.8030 C   0  0  0  0  0  0  0  0  0  0  0  0
    2.0450   -1.2309   -1.7902 H   0  0  0  0  0  0  0  0  0  0  0  0
    2.2525   -0.4820   -0.1994 H   0  0  0  0  0  0  0  0  0  0  0  0
    1.5229   -2.4914   -0.1495 C   0  0  0  0  0  0  0  0  0  0  0  0
    0.4937   -2.9668    0.2923 O   0  0  0  0  0  0  0  0  0  0  0  0
    2.6240   -3.2063   -0.0666 N   0  0  0  0  0  0  0  0  0  0  0  0
    2.5163   -4.1048    0.3709 H   0  0  0  0  0  0  0  0  0  0  0  0
    3.4962   -2.8645   -0.4162 H   0  0  0  0  0  0  0  0  0  0  0  0
   -0.7011    1.2952    0.7149 C   0  0  0  0  0  0  0  0  0  0  0  0
   -1.5917    1.9198    0.1415 O   0  0  0  0  0  0  0  0  0  0  0  0
    0.1191    1.8675    1.6055 N   0  0  0  0  0  0  0  0  0  0  0  0
    0.8092    1.2861    2.0537 H   0  0  0  0  0  0  0  0  0  0  0  0
    0.0509    3.2769    1.9894 C   0  0  0  0  0  0  0  0  0  0  0  0
   -0.9494    3.5076    2.3640 H   0  0  0  0  0  0  0  0  0  0  0  0
    0.7844    3.4956    2.7668 H   0  0  0  0  0  0  0  0  0  0  0  0
    0.2468    3.9058    1.1193 H   0  0  0  0  0  0  0  0  0  0  0  0
  5  6  2  0  0  0  0
  5  7  1  0  0  0  0
  2  3  1  0  0  0  0
  2  4  1  0  0  0  0
  2  5  1  0  0  0  0
  1  2  1  0  0  0  0
 22 23  2  0  0  0  0
 22 24  1  0  0  0  0
 19 20  1  0  0  0  0
 19 21  1  0  0  0  0
 17 18  2  0  0  0  0
 17 19  1  0  0  0  0
 14 15  1  0  0  0  0
 14 16  1  0  0  0  0
 14 17  1  0  0  0  0
 11 12  1  0  0  0  0
 11 13  1  0  0  0  0
 11 14  1  0  0  0  0
  9 10  1  0  0  0  0
  9 11  1  0  0  0  0
  9 22  1  0  0  0  0
  7  8  1  0  0  0  0
  7  9  1  0  0  0  0
 26 27  1  0  0  0  0
 26 28  1  0  0  0  0
 26 29  1  0  0  0  0
 24 25  1  0  0  0  0
 24 26  1  0  0  0  0
M  END
$$$$
default_name
  -OEChem-02102213163D

 29 28  0     1  0  0  0  0  0999 V2000
   -3.3998   -3.6239    1.3678 H   0  0  0  0  0  0  0  0  0  0  0  0
   -3.3608   -2.6749    0.8348 C   0  0  0  0  0  0  0  0  0  0  0  0
   -4.0988   -1.9909    1.2498 H   0  0  0  0  0  0  0  0  0  0  0  0
   -3.5618   -2.8419   -0.2222 H   0  0  0  0  0  0  0  0  0  0  0  0
   -1.9818   -2.0809    0.9918 C   0  0  0  0  0  0  0  0  0  0  0  0
   -1.1288   -2.6669    1.6468 O   0  0  0  0  0  0  0  0  0  0  0  0
   -1.7648   -0.9089    0.3998 N   0  0  0  0  0  0  0  0  0  0  0  0
   -2.5238   -0.4719   -0.1032 H   0  0  0  0  0  0  0  0  0  0  0  0
   -0.4848   -0.1959    0.4138 C   0  0  1  0  0  0  0  0  0  0  0  0
    0.1386   -0.6144    1.2058 H   0  0  0  0  0  0  0  0  0  0  0  0
    0.2271   -0.4272   -0.9334 C   0  0  0  0  0  0  0  0  0  0  0  0
   -0.4130   -1.0552   -1.5566 H   0  0  0  0  0  0  0  0  0  0  0  0
    0.3580    0.5320   -1.4367 H   0  0  0  0  0  0  0  0  0  0  0  0
    1.5989   -1.1117   -0.8030 C   0  0  0  0  0  0  0  0  0  0  0  0
    2.1572   -0.9948   -1.7317 H   0  0  0  0  0  0  0  0  0  0  0  0
    2.1577   -0.6338    0.0016 H   0  0  0  0  0  0  0  0  0  0  0  0
    1.4988   -2.6060   -0.4972 C   0  0  0  0  0  0  0  0  0  0  0  0
    0.4438   -3.1795   -0.3005 O   0  0  0  0  0  0  0  0  0  0  0  0
    2.6082   -3.3113   -0.4515 N   0  0  0  0  0  0  0  0  0  0  0  0
    2.4838   -4.2877   -0.2476 H   0  0  0  0  0  0  0  0  0  0  0  0
    3.5015   -2.8904   -0.6082 H   0  0  0  0  0  0  0  0  0  0  0  0
   -0.7011    1.2952    0.7149 C   0  0  0  0  0  0  0  0  0  0  0  0
   -1.5917    1.9198    0.1415 O   0  0  0  0  0  0  0  0  0  0  0  0
    0.1191    1.8675    1.6055 N   0  0  0  0  0  0  0  0  0  0  0  0
    0.8092    1.2861    2.0537 H   0  0  0  0  0  0  0  0  0  0  0  0
    0.0509    3.2769    1.9894 C   0  0  0  0  0  0  0  0  0  0  0  0
   -0.9494    3.5076    2.3640 H   0  0  0  0  0  0  0  0  0  0  0  0
    0.7844    3.4956    2.7668 H   0  0  0  0  0  0  0  0  0  0  0  0
    0.2468    3.9058    1.1193 H   0  0  0  0  0  0  0  0  0  0  0  0
  5  6  2  0  0  0  0
  5  7  1  0  0  0  0
  2  3  1  0  0  0  0
  2  4  1  0  0  0  0
  2  5  1  0  0  0  0
  1  2  1  0  0  0  0
 22 23  2  0  0  0  0
 22 24  1  0  0  0  0
 19 20  1  0  0  0  0
 19 21  1  0  0  0  0
 17 18  2  0  0  0  0
 17 19  1  0  0  0  0
 14 15  1  0  0  0  0
 14 16  1  0  0  0  0
 14 17  1  0  0  0  0
 11 12  1  0  0  0  0
 11 13  1  0  0  0  0
 11 14  1  0  0  0  0
  9 10  1  0  0  0  0
  9 11  1  0  0  0  0
  9 22  1  0  0  0  0
  7  8  1  0  0  0  0
  7  9  1  0  0  0  0
 26 27  1  0  0  0  0
 26 28  1  0  0  0  0
 26 29  1  0  0  0  0
 24 25  1  0  0  0  0
 24 26  1  0  0  0  0
M  END
$$$$
default_name
  -OEChem-02102213163D

 29 28  0     1  0  0  0  0  0999 V2000
   -3.3998   -3.6239    1.3678 H   0  0  0  0  0  0  0  0  0  0  0  0
   -3.3608   -2.6749    0.8348 C   0  0  0  0  0  0  0  0  0  0  0  0
   -4.0988   -1.9909    1.2498 H   0  0  0  0  0  0  0  0  0  0  0  0
   -3.5618   -2.8419   -0.2222 H   0  0  0  0  0  0  0  0  0  0  0  0
   -1.9818   -2.0809    0.9918 C   0  0  0  0  0  0  0  0  0  0  0  0
   -1.1288   -2.6669    1.6468 O   0  0  0  0  0  0  0  0  0  0  0  0
   -1.7648   -0.9089    0.3998 N   0  0  0  0  0  0  0  0  0  0  0  0
   -2.5238   -0.4719   -0.1032 H   0  0  0  0  0  0  0  0  0  0  0  0
   -0.4848   -0.1959    0.4138 C   0  0  1  0  0  0  0  0  0  0  0  0
    0.1386   -0.6144    1.2058 H   0  0  0  0  0  0  0  0  0  0  0  0
    0.2271   -0.4272   -0.9334 C   0  0  0  0  0  0  0  0  0  0  0  0
   -0.4130   -1.0552   -1.5566 H   0  0  0  0  0  0  0  0  0  0  0  0
    0.3580    0.5320   -1.4367 H   0  0  0  0  0  0  0  0  0  0  0  0
    1.5989   -1.1117   -0.8030 C   0  0  0  0  0  0  0  0  0  0  0  0
    2.2537   -0.7778   -1.6077 H   0  0  0  0  0  0  0  0  0  0  0  0
    2.0463   -0.8288    0.1498 H   0  0  0  0  0  0  0  0  0  0  0  0
    1.5180   -2.6370   -0.8623 C   0  0  0  0  0  0  0  0  0  0  0  0
    0.4686   -3.2493   -0.9280 O   0  0  0  0  0  0  0  0  0  0  0  0
    2.6395   -3.3242   -0.8494 N   0  0  0  0  0  0  0  0  0  0  0  0
    2.5277   -4.3224   -0.8911 H   0  0  0  0  0  0  0  0  0  0  0  0
    3.5293   -2.8710   -0.7990 H   0  0  0  0  0  0  0  0  0  0  0  0
   -0.7011    1.2952    0.7149 C   0  0  0  0  0  0  0  0  0  0  0  0
   -1.5917    1.9198    0.1415 O   0  0  0  0  0  0  0  0  0  0  0  0
    0.1191    1.8675    1.6055 N   0  0  0  0  0  0  0  0  0  0  0  0
    0.8092    1.2861    2.0537 H   0  0  0  0  0  0  0  0  0  0  0  0
    0.0509    3.2769    1.9894 C   0  0  0  0  0  0  0  0  0  0  0  0
   -0.9494    3.5076    2.3640 H   0  0  0  0  0  0  0  0  0  0  0  0
    0.7844    3.4956    2.7668 H   0  0  0  0  0  0  0  0  0  0  0  0
    0.2468    3.9058    1.1193 H   0  0  0  0  0  0  0  0  0  0  0  0
  5  6  2  0  0  0  0
  5  7  1  0  0  0  0
  2  3  1  0  0  0  0
  2  4  1  0  0  0  0
  2  5  1  0  0  0  0
  1  2  1  0  0  0  0
 22 23  2  0  0  0  0
 22 24  1  0  0  0  0
 19 20  1  0  0  0  0
 19 21  1  0  0  0  0
 17 18  2  0  0  0  0
 17 19  1  0  0  0  0
 14 15  1  0  0  0  0
 14 16  1  0  0  0  0
 14 17  1  0  0  0  0
 11 12  1  0  0  0  0
 11 13  1  0  0  0  0
 11 14  1  0  0  0  0
  9 10  1  0  0  0  0
  9 11  1  0  0  0  0
  9 22  1  0  0  0  0
  7  8  1  0  0  0  0
  7  9  1  0  0  0  0
 26 27  1  0  0  0  0
 26 28  1  0  0  0  0
 26 29  1  0  0  0  0
 24 25  1  0  0  0  0
 24 26  1  0  0  0  0
M  END
$$$$
default_name
  -OEChem-02102213163D

 29 28  0     1  0  0  0  0  0999 V2000
   -3.3998   -3.6239    1.3678 H   0  0  0  0  0  0  0  0  0  0  0  0
   -3.3608   -2.6749    0.8348 C   0  0  0  0  0  0  0  0  0  0  0  0
   -4.0988   -1.9909    1.2498 H   0  0  0  0  0  0  0  0  0  0  0  0
   -3.5618   -2.8419   -0.2222 H   0  0  0  0  0  0  0  0  0  0  0  0
   -1.9818   -2.0809    0.9918 C   0  0  0  0  0  0  0  0  0  0  0  0
   -1.1288   -2.6669    1.6468 O   0  0  0  0  0  0  0  0  0  0  0  0
   -1.7648   -0.9089    0.3998 N   0  0  0  0  0  0  0  0  0  0  0  0
   -2.5238   -0.4719   -0.1032 H   0  0  0  0  0  0  0  0  0  0  0  0
   -0.4848   -0.1959    0.4138 C   0  0  1  0  0  0  0  0  0  0  0  0
    0.1386   -0.6144    1.2058 H   0  0  0  0  0  0  0  0  0  0  0  0
    0.2271   -0.4272   -0.9334 C   0  0  0  0  0  0  0  0  0  0  0  0
   -0.4130   -1.0552   -1.5566 H   0  0  0  0  0  0  0  0  0  0  0  0
    0.3580    0.5320   -1.4367 H   0  0  0  0  0  0  0  0  0  0  0  0
    1.5989   -1.1117   -0.8030 C   0  0  0  0  0  0  0  0  0  0  0  0
    2.3279   -0.5947   -1.4268 H   0  0  0  0  0  0  0  0  0  0  0  0
    1.9258   -1.0539    0.2351 H   0  0  0  0  0  0  0  0  0  0  0  0
    1.5793   -2.5822   -1.2198 C   0  0  0  0  0  0  0  0  0  0  0  0
    0.5664   -3.1714   -1.5474 O   0  0  0  0  0  0  0  0  0  0  0  0
    2.7159   -3.2443   -1.2330 N   0  0  0  0  0  0  0  0  0  0  0  0
    2.6449   -4.2064   -1.5156 H   0  0  0  0  0  0  0  0  0  0  0  0
    3.5777   -2.8076   -0.9757 H   0  0  0  0  0  0  0  0  0  0  0  0
   -0.7011    1.2952    0.7149 C   0  0  0  0  0  0  0  0  0  0  0  0
   -1.5917    1.9198    0.1415 O   0  0  0  0  0  0  0  0  0  0  0  0
    0.1191    1.8675    1.6055 N   0  0  0  0  0  0  0  0  0  0  0  0
    0.8092    1.2861    2.0537 H   0  0  0  0  0  0  0  0  0  0  0  0
    0.0509    3.2769    1.9894 C   0  0  0  0  0  0  0  0  0  0  0  0
   -0.9494    3.5076    2.3640 H   0  0  0  0  0  0  0  0  0  0  0  0
    0.7844    3.4956    2.7668 H   0  0  0  0  0  0  0  0  0  0  0  0
    0.2468    3.9058    1.1193 H   0  0  0  0  0  0  0  0  0  0  0  0
  5  6  2  0  0  0  0
  5  7  1  0  0  0  0
  2  3  1  0  0  0  0
  2  4  1  0  0  0  0
  2  5  1  0  0  0  0
  1  2  1  0  0  0  0
 22 23  2  0  0  0  0
 22 24  1  0  0  0  0
 19 20  1  0  0  0  0
 19 21  1  0  0  0  0
 17 18  2  0  0  0  0
 17 19  1  0  0  0  0
 14 15  1  0  0  0  0
 14 16  1  0  0  0  0
 14 17  1  0  0  0  0
 11 12  1  0  0  0  0
 11 13  1  0  0  0  0
 11 14  1  0  0  0  0
  9 10  1  0  0  0  0
  9 11  1  0  0  0  0
  9 22  1  0  0  0  0
  7  8  1  0  0  0  0
  7  9  1  0  0  0  0
 26 27  1  0  0  0  0
 26 28  1  0  0  0  0
 26 29  1  0  0  0  0
 24 25  1  0  0  0  0
 24 26  1  0  0  0  0
M  END
$$$$
default_name
  -OEChem-02102213163D

 29 28  0     1  0  0  0  0  0999 V2000
   -3.3998   -3.6239    1.3678 H   0  0  0  0  0  0  0  0  0  0  0  0
   -3.3608   -2.6749    0.8348 C   0  0  0  0  0  0  0  0  0  0  0  0
   -4.0988   -1.9909    1.2498 H   0  0  0  0  0  0  0  0  0  0  0  0
   -3.5618   -2.8419   -0.2222 H   0  0  0  0  0  0  0  0  0  0  0  0
   -1.9818   -2.0809    0.9918 C   0  0  0  0  0  0  0  0  0  0  0  0
   -1.1288   -2.6669    1.6468 O   0  0  0  0  0  0  0  0  0  0  0  0
   -1.7648   -0.9089    0.3998 N   0  0  0  0  0  0  0  0  0  0  0  0
   -2.5238   -0.4719   -0.1032 H   0  0  0  0  0  0  0  0  0  0  0  0
   -0.4848   -0.1959    0.4138 C   0  0  1  0  0  0  0  0  0  0  0  0
    0.1386   -0.6144    1.2058 H   0  0  0  0  0  0  0  0  0  0  0  0
    0.2271   -0.4272   -0.9334 C   0  0  0  0  0  0  0  0  0  0  0  0
   -0.4130   -1.0552   -1.5566 H   0  0  0  0  0  0  0  0  0  0  0  0
    0.3580    0.5320   -1.4367 H   0  0  0  0  0  0  0  0  0  0  0  0
    1.5989   -1.1117   -0.8030 C   0  0  0  0  0  0  0  0  0  0  0  0
    2.3747   -0.4580   -1.2013 H   0  0  0  0  0  0  0  0  0  0  0  0
    1.8047   -1.2936    0.2517 H   0  0  0  0  0  0  0  0  0  0  0  0
    1.6785   -2.4455   -1.5455 C   0  0  0  0  0  0  0  0  0  0  0  0
    0.7304   -2.9511   -2.1164 O   0  0  0  0  0  0  0  0  0  0  0  0
    2.8321   -3.0768   -1.5764 N   0  0  0  0  0  0  0  0  0  0  0  0
    2.8275   -3.9476   -2.0785 H   0  0  0  0  0  0  0  0  0  0  0  0
    3.6434   -2.7045   -1.1261 H   0  0  0  0  0  0  0  0  0  0  0  0
   -0.7011    1.2952    0.7149 C   0  0  0  0  0  0  0  0  0  0  0  0
   -1.5917    1.9198    0.1415 O   0  0  0  0  0  0  0  0  0  0  0  0
    0.1191    1.8675    1.6055 N   0  0  0  0  0  0  0  0  0  0  0  0
    0.8092    1.2861    2.0537 H   0  0  0  0  0  0  0  0  0  0  0  0
    0.0509    3.2769    1.9894 C   0  0  0  0  0  0  0  0  0  0  0  0
   -0.9494    3.5076    2.3640 H   0  0  0  0  0  0  0  0  0  0  0  0
    0.7844    3.4956    2.7668 H   0  0  0  0  0  0  0  0  0  0  0  0
    0.2468    3.9058    1.1193 H   0  0  0  0  0  0  0  0  0  0  0  0
  5  6  2  0  0  0  0
  5  7  1  0  0  0  0
  2  3  1  0  0  0  0
  2  4  1  0  0  0  0
  2  5  1  0  0  0  0
  1  2  1  0  0  0  0
 22 23  2  0  0  0  0
 22 24  1  0  0  0  0
 19 20  1  0  0  0  0
 19 21  1  0  0  0  0
 17 18  2  0  0  0  0
 17 19  1  0  0  0  0
 14 15  1  0  0  0  0
 14 16  1  0  0  0  0
 14 17  1  0  0  0  0
 11 12  1  0  0  0  0
 11 13  1  0  0  0  0
 11 14  1  0  0  0  0
  9 10  1  0  0  0  0
  9 11  1  0  0  0  0
  9 22  1  0  0  0  0
  7  8  1  0  0  0  0
  7  9  1  0  0  0  0
 26 27  1  0  0  0  0
 26 28  1  0  0  0  0
 26 29  1  0  0  0  0
 24 25  1  0  0  0  0
 24 26  1  0  0  0  0
M  END
$$$$
default_name
  -OEChem-02102213163D

 29 28  0     1  0  0  0  0  0999 V2000
   -3.3998   -3.6239    1.3678 H   0  0  0  0  0  0  0  0  0  0  0  0
   -3.3608   -2.6749    0.8348 C   0  0  0  0  0  0  0  0  0  0  0  0
   -4.0988   -1.9909    1.2498 H   0  0  0  0  0  0  0  0  0  0  0  0
   -3.5618   -2.8419   -0.2222 H   0  0  0  0  0  0  0  0  0  0  0  0
   -1.9818   -2.0809    0.9918 C   0  0  0  0  0  0  0  0  0  0  0  0
   -1.1288   -2.6669    1.6468 O   0  0  0  0  0  0  0  0  0  0  0  0
   -1.7648   -0.9089    0.3998 N   0  0  0  0  0  0  0  0  0  0  0  0
   -2.5238   -0.4719   -0.1032 H   0  0  0  0  0  0  0  0  0  0  0  0
   -0.4848   -0.1959    0.4138 C   0  0  1  0  0  0  0  0  0  0  0  0
    0.1386   -0.6144    1.2058 H   0  0  0  0  0  0  0  0  0  0  0  0
    0.2271   -0.4272   -0.9334 C   0  0  0  0  0  0  0  0  0  0  0  0
   -0.4130   -1.0552   -1.5566 H   0  0  0  0  0  0  0  0  0  0  0  0
    0.3580    0.5320   -1.4367 H   0  0  0  0  0  0  0  0  0  0  0  0
    1.5989   -1.1117   -0.8030 C   0  0  0  0  0  0  0  0  0  0  0  0
    2.3909   -0.3769   -0.9465 H   0  0  0  0  0  0  0  0  0  0  0  0
    1.6909   -1.5317    0.1985 H   0  0  0  0  0  0  0  0  0  0  0  0
    1.8088   -2.2361   -1.8171 C   0  0  0  0  0  0  0  0  0  0  0  0
    0.9495   -2.6034   -2.5963 O   0  0  0  0  0  0  0  0  0  0  0  0
    2.9802   -2.8333   -1.8560 N   0  0  0  0  0  0  0  0  0  0  0  0
    3.0630   -3.5638   -2.5415 H   0  0  0  0  0  0  0  0  0  0  0  0
    3.7220   -2.5688   -1.2400 H   0  0  0  0  0  0  0  0  0  0  0  0
   -0.7011    1.2952    0.7149 C   0  0  0  0  0  0  0  0  0  0  0  0
   -1.5917    1.9198    0.1415 O   0  0  0  0  0  0  0  0  0  0  0  0
    0.1191    1.8675    1.6055 N   0  0  0  0  0  0  0  0  0  0  0  0
    0.8092    1.2861    2.0537 H   0  0  0  0  0  0  0  0  0  0  0  0
    0.0509    3.2769    1.9894 C   0  0  0  0  0  0  0  0  0  0  0  0
   -0.9494    3.5076    2.3640 H   0  0  0  0  0  0  0  0  0  0  0  0
    0.7844    3.4956    2.7668 H   0  0  0  0  0  0  0  0  0  0  0  0
    0.2468    3.9058    1.1193 H   0  0  0  0  0  0  0  0  0  0  0  0
  5  6  2  0  0  0  0
  5  7  1  0  0  0  0
  2  3  1  0  0  0  0
  2  4  1  0  0  0  0
  2  5  1  0  0  0  0
  1  2  1  0  0  0  0
 22 23  2  0  0  0  0
 22 24  1  0  0  0  0
 19 20  1  0  0  0  0
 19 21  1  0  0  0  0
 17 18  2  0  0  0  0
 17 19  1  0  0  0  0
 14 15  1  0  0  0  0
 14 16  1  0  0  0  0
 14 17  1  0  0  0  0
 11 12  1  0  0  0  0
 11 13  1  0  0  0  0
 11 14  1  0  0  0  0
  9 10  1  0  0  0  0
  9 11  1  0  0  0  0
  9 22  1  0  0  0  0
  7  8  1  0  0  0  0
  7  9  1  0  0  0  0
 26 27  1  0  0  0  0
 26 28  1  0  0  0  0
 26 29  1  0  0  0  0
 24 25  1  0  0  0  0
 24 26  1  0  0  0  0
M  END
$$$$
default_name
  -OEChem-02102213163D

 29 28  0     1  0  0  0  0  0999 V2000
   -3.3998   -3.6239    1.3678 H   0  0  0  0  0  0  0  0  0  0  0  0
   -3.3608   -2.6749    0.8348 C   0  0  0  0  0  0  0  0  0  0  0  0
   -4.0988   -1.9909    1.2498 H   0  0  0  0  0  0  0  0  0  0  0  0
   -3.5618   -2.8419   -0.2222 H   0  0  0  0  0  0  0  0  0  0  0  0
   -1.9818   -2.0809    0.9918 C   0  0  0  0  0  0  0  0  0  0  0  0
   -1.1288   -2.6669    1.6468 O   0  0  0  0  0  0  0  0  0  0  0  0
   -1.7648   -0.9089    0.3998 N   0  0  0  0  0  0  0  0  0  0  0  0
   -2.5238   -0.4719   -0.1032 H   0  0  0  0  0  0  0  0  0  0  0  0
   -0.4848   -0.1959    0.4138 C   0  0  1  0  0  0  0  0  0  0  0  0
    0.1386   -0.6144    1.2058 H   0  0  0  0  0  0  0  0  0  0  0  0
    0.2271   -0.4272   -0.9334 C   0  0  0  0  0  0  0  0  0  0  0  0
   -0.4130   -1.0552   -1.5566 H   0  0  0  0  0  0  0  0  0  0  0  0
    0.3580    0.5320   -1.4367 H   0  0  0  0  0  0  0  0  0  0  0  0
    1.5989   -1.1117   -0.8030 C   0  0  0  0  0  0  0  0  0  0  0  0
    2.3755   -0.3570   -0.6798 H   0  0  0  0  0  0  0  0  0  0  0  0
    1.5924   -1.7518    0.0791 H   0  0  0  0  0  0  0  0  0  0  0  0
    1.9613   -1.9683   -2.0161 C   0  0  0  0  0  0  0  0  0  0  0  0
    1.2088   -2.1520   -2.9544 O   0  0  0  0  0  0  0  0  0  0  0  0
    3.1501   -2.5302   -2.0529 N   0  0  0  0  0  0  0  0  0  0  0  0
    3.3354   -3.0811   -2.8731 H   0  0  0  0  0  0  0  0  0  0  0  0
    3.8080   -2.4097   -1.3097 H   0  0  0  0  0  0  0  0  0  0  0  0
   -0.7011    1.2952    0.7149 C   0  0  0  0  0  0  0  0  0  0  0  0
   -1.5917    1.9198    0.1415 O   0  0  0  0  0  0  0  0  0  0  0  0
    0.1191    1.8675    1.6055 N   0  0  0  0  0  0  0  0  0  0  0  0
    0.8092    1.2861    2.0537 H   0  0  0  0  0  0  0  0  0  0  0  0
    0.0509    3.2769    1.9894 C   0  0  0  0  0  0  0  0  0  0  0  0
   -0.9494    3.5076    2.3640 H   0  0  0  0  0  0  0  0  0  0  0  0
    0.7844    3.4956    2.7668 H   0  0  0  0  0  0  0  0  0  0  0  0
    0.2468    3.9058    1.1193 H   0  0  0  0  0  0  0  0  0  0  0  0
  5  6  2  0  0  0  0
  5  7  1  0  0  0  0
  2  3  1  0  0  0  0
  2  4  1  0  0  0  0
  2  5  1  0  0  0  0
  1  2  1  0  0  0  0
 22 23  2  0  0  0  0
 22 24  1  0  0  0  0
 19 20  1  0  0  0  0
 19 21  1  0  0  0  0
 17 18  2  0  0  0  0
 17 19  1  0  0  0  0
 14 15  1  0  0  0  0
 14 16  1  0  0  0  0
 14 17  1  0  0  0  0
 11 12  1  0  0  0  0
 11 13  1  0  0  0  0
 11 14  1  0  0  0  0
  9 10  1  0  0  0  0
  9 11  1  0  0  0  0
  9 22  1  0  0  0  0
  7  8  1  0  0  0  0
  7  9  1  0  0  0  0
 26 27  1  0  0  0  0
 26 28  1  0  0  0  0
 26 29  1  0  0  0  0
 24 25  1  0  0  0  0
 24 26  1  0  0  0  0
M  END
$$$$
default_name
  -OEChem-02102213163D

 29 28  0     1  0  0  0  0  0999 V2000
   -3.3998   -3.6239    1.3678 H   0  0  0  0  0  0  0  0  0  0  0  0
   -3.3608   -2.6749    0.8348 C   0  0  0  0  0  0  0  0  0  0  0  0
   -4.0988   -1.9909    1.2498 H   0  0  0  0  0  0  0  0  0  0  0  0
   -3.5618   -2.8419   -0.2222 H   0  0  0  0  0  0  0  0  0  0  0  0
   -1.9818   -2.0809    0.9918 C   0  0  0  0  0  0  0  0  0  0  0  0
   -1.1288   -2.6669    1.6468 O   0  0  0  0  0  0  0  0  0  0  0  0
   -1.7648   -0.9089    0.3998 N   0  0  0  0  0  0  0  0  0  0  0  0
   -2.5238   -0.4719   -0.1032 H   0  0  0  0  0  0  0  0  0  0  0  0
   -0.4848   -0.1959    0.4138 C   0  0  1  0  0  0  0  0  0  0  0  0
    0.1386   -0.6144    1.2058 H   0  0  0  0  0  0  0  0  0  0  0  0
    0.2271   -0.4272   -0.9334 C   0  0  0  0  0  0  0  0  0  0  0  0
   -0.4130   -1.0552   -1.5566 H   0  0  0  0  0  0  0  0  0  0  0  0
    0.3580    0.5320   -1.4367 H   0  0  0  0  0  0  0  0  0  0  0  0
    1.5989   -1.1117   -0.8030 C   0  0  0  0  0  0  0  0  0  0  0  0
    2.3294   -0.3997   -0.4194 H   0  0  0  0  0  0  0  0  0  0  0  0
    1.5159   -1.9391   -0.0984 H   0  0  0  0  0  0  0  0  0  0  0  0
    2.1257   -1.6603   -2.1290 C   0  0  0  0  0  0  0  0  0  0  0  0
    1.4905   -1.6276   -3.1663 O   0  0  0  0  0  0  0  0  0  0  0  0
    3.3302   -2.1884   -2.1535 N   0  0  0  0  0  0  0  0  0  0  0  0
    3.6261   -2.5323   -3.0506 H   0  0  0  0  0  0  0  0  0  0  0  0
    3.8956   -2.2381   -1.3304 H   0  0  0  0  0  0  0  0  0  0  0  0
   -0.7011    1.2952    0.7149 C   0  0  0  0  0  0  0  0  0  0  0  0
   -1.5917    1.9198    0.1415 O   0  0  0  0  0  0  0  0  0  0  0  0
    0.1191    1.8675    1.6055 N   0  0  0  0  0  0  0  0  0  0  0  0
    0.8092    1.2861    2.0537 H   0  0  0  0  0  0  0  0  0  0  0  0
    0.0509    3.2769    1.9894 C   0  0  0  0  0  0  0  0  0  0  0  0
   -0.9494    3.5076    2.3640 H   0  0  0  0  0  0  0  0  0  0  0  0
    0.7844    3.4956    2.7668 H   0  0  0  0  0  0  0  0  0  0  0  0
    0.2468    3.9058    1.1193 H   0  0  0  0  0  0  0  0  0  0  0  0
  5  6  2  0  0  0  0
  5  7  1  0  0  0  0
  2  3  1  0  0  0  0
  2  4  1  0  0  0  0
  2  5  1  0  0  0  0
  1  2  1  0  0  0  0
 22 23  2  0  0  0  0
 22 24  1  0  0  0  0
 19 20  1  0  0  0  0
 19 21  1  0  0  0  0
 17 18  2  0  0  0  0
 17 19  1  0  0  0  0
 14 15  1  0  0  0  0
 14 16  1  0  0  0  0
 14 17  1  0  0  0  0
 11 12  1  0  0  0  0
 11 13  1  0  0  0  0
 11 14  1  0  0  0  0
  9 10  1  0  0  0  0
  9 11  1  0  0  0  0
  9 22  1  0  0  0  0
  7  8  1  0  0  0  0
  7  9  1  0  0  0  0
 26 27  1  0  0  0  0
 26 28  1  0  0  0  0
 26 29  1  0  0  0  0
 24 25  1  0  0  0  0
 24 26  1  0  0  0  0
M  END
$$$$
default_name
  -OEChem-02102213163D

 29 28  0     1  0  0  0  0  0999 V2000
   -3.3998   -3.6239    1.3678 H   0  0  0  0  0  0  0  0  0  0  0  0
   -3.3608   -2.6749    0.8348 C   0  0  0  0  0  0  0  0  0  0  0  0
   -4.0988   -1.9909    1.2498 H   0  0  0  0  0  0  0  0  0  0  0  0
   -3.5618   -2.8419   -0.2222 H   0  0  0  0  0  0  0  0  0  0  0  0
   -1.9818   -2.0809    0.9918 C   0  0  0  0  0  0  0  0  0  0  0  0
   -1.1288   -2.6669    1.6468 O   0  0  0  0  0  0  0  0  0  0  0  0
   -1.7648   -0.9089    0.3998 N   0  0  0  0  0  0  0  0  0  0  0  0
   -2.5238   -0.4719   -0.1032 H   0  0  0  0  0  0  0  0  0  0  0  0
   -0.4848   -0.1959    0.4138 C   0  0  1  0  0  0  0  0  0  0  0  0
    0.1386   -0.6144    1.2058 H   0  0  0  0  0  0  0  0  0  0  0  0
    0.2271   -0.4272   -0.9334 C   0  0  0  0  0  0  0  0  0  0  0  0
   -0.5036   -0.8162   -1.6455 H   0  0  0  0  0  0  0  0  0  0  0  0
    0.5957    0.5280   -1.3104 H   0  0  0  0  0  0  0  0  0  0  0  0
    1.4021   -1.4175   -0.8546 C   0  0  0  0  0  0  0  0  0  0  0  0
    2.1453   -1.0497   -0.1475 H   0  0  0  0  0  0  0  0  0  0  0  0
    1.0309   -2.3793   -0.5008 H   0  0  0  0  0  0  0  0  0  0  0  0
    2.0964   -1.6351   -2.1989 C   0  0  0  0  0  0  0  0  0  0  0  0
    1.7112   -1.1359   -3.2395 O   0  0  0  0  0  0  0  0  0  0  0  0
    3.1701   -2.3942   -2.2332 N   0  0  0  0  0  0  0  0  0  0  0  0
    3.5863   -2.5022   -3.1418 H   0  0  0  0  0  0  0  0  0  0  0  0
    3.5307   -2.8265   -1.4069 H   0  0  0  0  0  0  0  0  0  0  0  0
   -0.7011    1.2952    0.7149 C   0  0  0  0  0  0  0  0  0  0  0  0
   -1.5917    1.9198    0.1415 O   0  0  0  0  0  0  0  0  0  0  0  0
    0.1191    1.8675    1.6055 N   0  0  0  0  0  0  0  0  0  0  0  0
    0.8092    1.2861    2.0537 H   0  0  0  0  0  0  0  0  0  0  0  0
    0.0509    3.2769    1.9894 C   0  0  0  0  0  0  0  0  0  0  0  0
   -0.9494    3.5076    2.3640 H   0  0  0  0  0  0  0  0  0  0  0  0
    0.7844    3.4956    2.7668 H   0  0  0  0  0  0  0  0  0  0  0  0
    0.2468    3.9058    1.1193 H   0  0  0  0  0  0  0  0  0  0  0  0
  5  6  2  0  0  0  0
  5  7  1  0  0  0  0
  2  3  1  0  0  0  0
  2  4  1  0  0  0  0
  2  5  1  0  0  0  0
  1  2  1  0  0  0  0
 22 23  2  0  0  0  0
 22 24  1  0  0  0  0
 19 20  1  0  0  0  0
 19 21  1  0  0  0  0
 17 18  2  0  0  0  0
 17 19  1  0  0  0  0
 14 15  1  0  0  0  0
 14 16  1  0  0  0  0
 14 17  1  0  0  0  0
 11 12  1  0  0  0  0
 11 13  1  0  0  0  0
 11 14  1  0  0  0  0
  9 10  1  0  0  0  0
  9 11  1  0  0  0  0
  9 22  1  0  0  0  0
  7  8  1  0  0  0  0
  7  9  1  0  0  0  0
 26 27  1  0  0  0  0
 26 28  1  0  0  0  0
 26 29  1  0  0  0  0
 24 25  1  0  0  0  0
 24 26  1  0  0  0  0
M  END
$$$$
default_name
  -OEChem-02102213163D

 29 28  0     1  0  0  0  0  0999 V2000
   -3.3998   -3.6239    1.3678 H   0  0  0  0  0  0  0  0  0  0  0  0
   -3.3608   -2.6749    0.8348 C   0  0  0  0  0  0  0  0  0  0  0  0
   -4.0988   -1.9909    1.2498 H   0  0  0  0  0  0  0  0  0  0  0  0
   -3.5618   -2.8419   -0.2222 H   0  0  0  0  0  0  0  0  0  0  0  0
   -1.9818   -2.0809    0.9918 C   0  0  0  0  0  0  0  0  0  0  0  0
   -1.1288   -2.6669    1.6468 O   0  0  0  0  0  0  0  0  0  0  0  0
   -1.7648   -0.9089    0.3998 N   0  0  0  0  0  0  0  0  0  0  0  0
   -2.5238   -0.4719   -0.1032 H   0  0  0  0  0  0  0  0  0  0  0  0
   -0.4848   -0.1959    0.4138 C   0  0  1  0  0  0  0  0  0  0  0  0
    0.1386   -0.6144    1.2058 H   0  0  0  0  0  0  0  0  0  0  0  0
    0.2271   -0.4272   -0.9334 C   0  0  0  0  0  0  0  0  0  0  0  0
   -0.5036   -0.8162   -1.6455 H   0  0  0  0  0  0  0  0  0  0  0  0
    0.5957    0.5280   -1.3104 H   0  0  0  0  0  0  0  0  0  0  0  0
    1.4021   -1.4175   -0.8546 C   0  0  0  0  0  0  0  0  0  0  0  0
    2.0069   -1.2002    0.0256 H   0  0  0  0  0  0  0  0  0  0  0  0
    1.0066   -2.4291   -0.7642 H   0  0  0  0  0  0  0  0  0  0  0  0
    2.3152   -1.3659   -2.0794 C   0  0  0  0  0  0  0  0  0  0  0  0
    2.0925   -0.6685   -3.0513 O   0  0  0  0  0  0  0  0  0  0  0  0
    3.4021   -2.1069   -2.0814 N   0  0  0  0  0  0  0  0  0  0  0  0
    3.9658   -2.0336   -2.9105 H   0  0  0  0  0  0  0  0  0  0  0  0
    3.6341   -2.6960   -1.3076 H   0  0  0  0  0  0  0  0  0  0  0  0
   -0.7011    1.2952    0.7149 C   0  0  0  0  0  0  0  0  0  0  0  0
   -1.5917    1.9198    0.1415 O   0  0  0  0  0  0  0  0  0  0  0  0
    0.1191    1.8675    1.6055 N   0  0  0  0  0  0  0  0  0  0  0  0
    0.8092    1.2861    2.0537 H   0  0  0  0  0  0  0  0  0  0  0  0
    0.0509    3.2769    1.9894 C   0  0  0  0  0  0  0  0  0  0  0  0
   -0.9494    3.5076    2.3640 H   0  0  0  0  0  0  0  0  0  0  0  0
    0.7844    3.4956    2.7668 H   0  0  0  0  0  0  0  0  0  0  0  0
    0.2468    3.9058    1.1193 H   0  0  0  0  0  0  0  0  0  0  0  0
  5  6  2  0  0  0  0
  5  7  1  0  0  0  0
  2  3  1  0  0  0  0
  2  4  1  0  0  0  0
  2  5  1  0  0  0  0
  1  2  1  0  0  0  0
 22 23  2  0  0  0  0
 22 24  1  0  0  0  0
 19 20  1  0  0  0  0
 19 21  1  0  0  0  0
 17 18  2  0  0  0  0
 17 19  1  0  0  0  0
 14 15  1  0  0  0  0
 14 16  1  0  0  0  0
 14 17  1  0  0  0  0
 11 12  1  0  0  0  0
 11 13  1  0  0  0  0
 11 14  1  0  0  0  0
  9 10  1  0  0  0  0
  9 11  1  0  0  0  0
  9 22  1  0  0  0  0
  7  8  1  0  0  0  0
  7  9  1  0  0  0  0
 26 27  1  0  0  0  0
 26 28  1  0  0  0  0
 26 29  1  0  0  0  0
 24 25  1  0  0  0  0
 24 26  1  0  0  0  0
M  END
$$$$
default_name
  -OEChem-02102213163D

 29 28  0     1  0  0  0  0  0999 V2000
   -3.3998   -3.6239    1.3678 H   0  0  0  0  0  0  0  0  0  0  0  0
   -3.3608   -2.6749    0.8348 C   0  0  0  0  0  0  0  0  0  0  0  0
   -4.0988   -1.9909    1.2498 H   0  0  0  0  0  0  0  0  0  0  0  0
   -3.5618   -2.8419   -0.2222 H   0  0  0  0  0  0  0  0  0  0  0  0
   -1.9818   -2.0809    0.9918 C   0  0  0  0  0  0  0  0  0  0  0  0
   -1.1288   -2.6669    1.6468 O   0  0  0  0  0  0  0  0  0  0  0  0
   -1.7648   -0.9089    0.3998 N   0  0  0  0  0  0  0  0  0  0  0  0
   -2.5238   -0.4719   -0.1032 H   0  0  0  0  0  0  0  0  0  0  0  0
   -0.4848   -0.1959    0.4138 C   0  0  1  0  0  0  0  0  0  0  0  0
    0.1386   -0.6144    1.2058 H   0  0  0  0  0  0  0  0  0  0  0  0
    0.2271   -0.4272   -0.9334 C   0  0  0  0  0  0  0  0  0  0  0  0
   -0.5036   -0.8162   -1.6455 H   0  0  0  0  0  0  0  0  0  0  0  0
    0.5957    0.5280   -1.3104 H   0  0  0  0  0  0  0  0  0  0  0  0
    1.4021   -1.4175   -0.8546 C   0  0  0  0  0  0  0  0  0  0  0  0
    1.8463   -1.3816    0.1399 H   0  0  0  0  0  0  0  0  0  0  0  0
    1.0276   -2.4255   -1.0325 H   0  0  0  0  0  0  0  0  0  0  0  0
    2.5031   -1.1267   -1.8743 C   0  0  0  0  0  0  0  0  0  0  0  0
    2.4232   -0.2493   -2.7135 O   0  0  0  0  0  0  0  0  0  0  0  0
    3.5971   -1.8562   -1.8394 N   0  0  0  0  0  0  0  0  0  0  0  0
    4.2876   -1.6216   -2.5312 H   0  0  0  0  0  0  0  0  0  0  0  0
    3.7156   -2.5882   -1.1686 H   0  0  0  0  0  0  0  0  0  0  0  0
   -0.7011    1.2952    0.7149 C   0  0  0  0  0  0  0  0  0  0  0  0
   -1.5917    1.9198    0.1415 O   0  0  0  0  0  0  0  0  0  0  0  0
    0.1191    1.8675    1.6055 N   0  0  0  0  0  0  0  0  0  0  0  0
    0.8092    1.2861    2.0537 H   0  0  0  0  0  0  0  0  0  0  0  0
    0.0509    3.2769    1.9894 C   0  0  0  0  0  0  0  0  0  0  0  0
   -0.9494    3.5076    2.3640 H   0  0  0  0  0  0  0  0  0  0  0  0
    0.7844    3.4956    2.7668 H   0  0  0  0  0  0  0  0  0  0  0  0
    0.2468    3.9058    1.1193 H   0  0  0  0  0  0  0  0  0  0  0  0
  5  6  2  0  0  0  0
  5  7  1  0  0  0  0
  2  3  1  0  0  0  0
  2  4  1  0  0  0  0
  2  5  1  0  0  0  0
  1  2  1  0  0  0  0
 22 23  2  0  0  0  0
 22 24  1  0  0  0  0
 19 20  1  0  0  0  0
 19 21  1  0  0  0  0
 17 18  2  0  0  0  0
 17 19  1  0  0  0  0
 14 15  1  0  0  0  0
 14 16  1  0  0  0  0
 14 17  1  0  0  0  0
 11 12  1  0  0  0  0
 11 13  1  0  0  0  0
 11 14  1  0  0  0  0
  9 10  1  0  0  0  0
  9 11  1  0  0  0  0
  9 22  1  0  0  0  0
  7  8  1  0  0  0  0
  7  9  1  0  0  0  0
 26 27  1  0  0  0  0
 26 28  1  0  0  0  0
 26 29  1  0  0  0  0
 24 25  1  0  0  0  0
 24 26  1  0  0  0  0
M  END
$$$$
default_name
  -OEChem-02102213163D

 29 28  0     1  0  0  0  0  0999 V2000
   -3.3998   -3.6239    1.3678 H   0  0  0  0  0  0  0  0  0  0  0  0
   -3.3608   -2.6749    0.8348 C   0  0  0  0  0  0  0  0  0  0  0  0
   -4.0988   -1.9909    1.2498 H   0  0  0  0  0  0  0  0  0  0  0  0
   -3.5618   -2.8419   -0.2222 H   0  0  0  0  0  0  0  0  0  0  0  0
   -1.9818   -2.0809    0.9918 C   0  0  0  0  0  0  0  0  0  0  0  0
   -1.1288   -2.6669    1.6468 O   0  0  0  0  0  0  0  0  0  0  0  0
   -1.7648   -0.9089    0.3998 N   0  0  0  0  0  0  0  0  0  0  0  0
   -2.5238   -0.4719   -0.1032 H   0  0  0  0  0  0  0  0  0  0  0  0
   -0.4848   -0.1959    0.4138 C   0  0  1  0  0  0  0  0  0  0  0  0
    0.1386   -0.6144    1.2058 H   0  0  0  0  0  0  0  0  0  0  0  0
    0.2271   -0.4272   -0.9334 C   0  0  0  0  0  0  0  0  0  0  0  0
   -0.5036   -0.8162   -1.6455 H   0  0  0  0  0  0  0  0  0  0  0  0
    0.5957    0.5280   -1.3104 H   0  0  0  0  0  0  0  0  0  0  0  0
    1.4021   -1.4175   -0.8546 C   0  0  0  0  0  0  0  0  0  0  0  0
    1.6746   -1.5815    0.1878 H   0  0  0  0  0  0  0  0  0  0  0  0
    1.0926   -2.3687   -1.2874 H   0  0  0  0  0  0  0  0  0  0  0  0
    2.6473   -0.9337   -1.5976 C   0  0  0  0  0  0  0  0  0  0  0  0
    2.6808    0.0933   -2.2493 O   0  0  0  0  0  0  0  0  0  0  0  0
    3.7418   -1.6594   -1.5236 N   0  0  0  0  0  0  0  0  0  0  0  0
    4.5298   -1.2943   -2.0298 H   0  0  0  0  0  0  0  0  0  0  0  0
    3.7697   -2.5105   -0.9996 H   0  0  0  0  0  0  0  0  0  0  0  0
   -0.7011    1.2952    0.7149 C   0  0  0  0  0  0  0  0  0  0  0  0
   -1.5917    1.9198    0.1415 O   0  0  0  0  0  0  0  0  0  0  0  0
    0.1191    1.8675    1.6055 N   0  0  0  0  0  0  0  0  0  0  0  0
    0.8092    1.2861    2.0537 H   0  0  0  0  0  0  0  0  0  0  0  0
    0.0509    3.2769    1.9894 C   0  0  0  0  0  0  0  0  0  0  0  0
   -0.9494    3.5076    2.3640 H   0  0  0  0  0  0  0  0  0  0  0  0
    0.7844    3.4956    2.7668 H   0  0  0  0  0  0  0  0  0  0  0  0
    0.2468    3.9058    1.1193 H   0  0  0  0  0  0  0  0  0  0  0  0
  5  6  2  0  0  0  0
  5  7  1  0  0  0  0
  2  3  1  0  0  0  0
  2  4  1  0  0  0  0
  2  5  1  0  0  0  0
  1  2  1  0  0  0  0
 22 23  2  0  0  0  0
 22 24  1  0  0  0  0
 19 20  1  0  0  0  0
 19 21  1  0  0  0  0
 17 18  2  0  0  0  0
 17 19  1  0  0  0  0
 14 15  1  0  0  0  0
 14 16  1  0  0  0  0
 14 17  1  0  0  0  0
 11 12  1  0  0  0  0
 11 13  1  0  0  0  0
 11 14  1  0  0  0  0
  9 10  1  0  0  0  0
  9 11  1  0  0  0  0
  9 22  1  0  0  0  0
  7  8  1  0  0  0  0
  7  9  1  0  0  0  0
 26 27  1  0  0  0  0
 26 28  1  0  0  0  0
 26 29  1  0  0  0  0
 24 25  1  0  0  0  0
 24 26  1  0  0  0  0
M  END
$$$$
default_name
  -OEChem-02102213163D

 29 28  0     1  0  0  0  0  0999 V2000
   -3.3998   -3.6239    1.3678 H   0  0  0  0  0  0  0  0  0  0  0  0
   -3.3608   -2.6749    0.8348 C   0  0  0  0  0  0  0  0  0  0  0  0
   -4.0988   -1.9909    1.2498 H   0  0  0  0  0  0  0  0  0  0  0  0
   -3.5618   -2.8419   -0.2222 H   0  0  0  0  0  0  0  0  0  0  0  0
   -1.9818   -2.0809    0.9918 C   0  0  0  0  0  0  0  0  0  0  0  0
   -1.1288   -2.6669    1.6468 O   0  0  0  0  0  0  0  0  0  0  0  0
   -1.7648   -0.9089    0.3998 N   0  0  0  0  0  0  0  0  0  0  0  0
   -2.5238   -0.4719   -0.1032 H   0  0  0  0  0  0  0  0  0  0  0  0
   -0.4848   -0.1959    0.4138 C   0  0  1  0  0  0  0  0  0  0  0  0
    0.1386   -0.6144    1.2058 H   0  0  0  0  0  0  0  0  0  0  0  0
    0.2271   -0.4272   -0.9334 C   0  0  0  0  0  0  0  0  0  0  0  0
   -0.5036   -0.8162   -1.6455 H   0  0  0  0  0  0  0  0  0  0  0  0
    0.5957    0.5280   -1.3104 H   0  0  0  0  0  0  0  0  0  0  0  0
    1.4021   -1.4175   -0.8546 C   0  0  0  0  0  0  0  0  0  0  0  0
    1.5034   -1.7863    0.1659 H   0  0  0  0  0  0  0  0  0  0  0  0
    1.1970   -2.2626   -1.5116 H   0  0  0  0  0  0  0  0  0  0  0  0
    2.7378   -0.8000   -1.2682 C   0  0  0  0  0  0  0  0  0  0  0  0
    2.8478    0.3360   -1.6903 O   0  0  0  0  0  0  0  0  0  0  0  0
    3.8264   -1.5297   -1.1555 N   0  0  0  0  0  0  0  0  0  0  0  0
    4.6759   -1.0740   -1.4405 H   0  0  0  0  0  0  0  0  0  0  0  0
    3.7929   -2.4681   -0.8119 H   0  0  0  0  0  0  0  0  0  0  0  0
   -0.7011    1.2952    0.7149 C   0  0  0  0  0  0  0  0  0  0  0  0
   -1.5917    1.9198    0.1415 O   0  0  0  0  0  0  0  0  0  0  0  0
    0.1191    1.8675    1.6055 N   0  0  0  0  0  0  0  0  0  0  0  0
    0.8092    1.2861    2.0537 H   0  0  0  0  0  0  0  0  0  0  0  0
    0.0509    3.2769    1.9894 C   0  0  0  0  0  0  0  0  0  0  0  0
   -0.9494    3.5076    2.3640 H   0  0  0  0  0  0  0  0  0  0  0  0
    0.7844    3.4956    2.7668 H   0  0  0  0  0  0  0  0  0  0  0  0
    0.2468    3.9058    1.1193 H   0  0  0  0  0  0  0  0  0  0  0  0
  5  6  2  0  0  0  0
  5  7  1  0  0  0  0
  2  3  1  0  0  0  0
  2  4  1  0  0  0  0
  2  5  1  0  0  0  0
  1  2  1  0  0  0  0
 22 23  2  0  0  0  0
 22 24  1  0  0  0  0
 19 20  1  0  0  0  0
 19 21  1  0  0  0  0
 17 18  2  0  0  0  0
 17 19  1  0  0  0  0
 14 15  1  0  0  0  0
 14 16  1  0  0  0  0
 14 17  1  0  0  0  0
 11 12  1  0  0  0  0
 11 13  1  0  0  0  0
 11 14  1  0  0  0  0
  9 10  1  0  0  0  0
  9 11  1  0  0  0  0
  9 22  1  0  0  0  0
  7  8  1  0  0  0  0
  7  9  1  0  0  0  0
 26 27  1  0  0  0  0
 26 28  1  0  0  0  0
 26 29  1  0  0  0  0
 24 25  1  0  0  0  0
 24 26  1  0  0  0  0
M  END
$$$$
default_name
  -OEChem-02102213163D

 29 28  0     1  0  0  0  0  0999 V2000
   -3.3998   -3.6239    1.3678 H   0  0  0  0  0  0  0  0  0  0  0  0
   -3.3608   -2.6749    0.8348 C   0  0  0  0  0  0  0  0  0  0  0  0
   -4.0988   -1.9909    1.2498 H   0  0  0  0  0  0  0  0  0  0  0  0
   -3.5618   -2.8419   -0.2222 H   0  0  0  0  0  0  0  0  0  0  0  0
   -1.9818   -2.0809    0.9918 C   0  0  0  0  0  0  0  0  0  0  0  0
   -1.1288   -2.6669    1.6468 O   0  0  0  0  0  0  0  0  0  0  0  0
   -1.7648   -0.9089    0.3998 N   0  0  0  0  0  0  0  0  0  0  0  0
   -2.5238   -0.4719   -0.1032 H   0  0  0  0  0  0  0  0  0  0  0  0
   -0.4848   -0.1959    0.4138 C   0  0  1  0  0  0  0  0  0  0  0  0
    0.1386   -0.6144    1.2058 H   0  0  0  0  0  0  0  0  0  0  0  0
    0.2271   -0.4272   -0.9334 C   0  0  0  0  0  0  0  0  0  0  0  0
   -0.5036   -0.8162   -1.6455 H   0  0  0  0  0  0  0  0  0  0  0  0
    0.5957    0.5280   -1.3104 H   0  0  0  0  0  0  0  0  0  0  0  0
    1.4021   -1.4175   -0.8546 C   0  0  0  0  0  0  0  0  0  0  0  0
    1.3444   -1.9822    0.0757 H   0  0  0  0  0  0  0  0  0  0  0  0
    1.3339   -2.1145   -1.6898 H   0  0  0  0  0  0  0  0  0  0  0  0
    2.7687   -0.7347   -0.9085 C   0  0  0  0  0  0  0  0  0  0  0  0
    2.9127    0.4620   -1.0745 O   0  0  0  0  0  0  0  0  0  0  0  0
    3.8450   -1.4761   -0.7603 N   0  0  0  0  0  0  0  0  0  0  0  0
    4.7159   -0.9759   -0.8034 H   0  0  0  0  0  0  0  0  0  0  0  0
    3.7834   -2.4639   -0.6184 H   0  0  0  0  0  0  0  0  0  0  0  0
   -0.7011    1.2952    0.7149 C   0  0  0  0  0  0  0  0  0  0  0  0
   -1.5917    1.9198    0.1415 O   0  0  0  0  0  0  0  0  0  0  0  0
    0.1191    1.8675    1.6055 N   0  0  0  0  0  0  0  0  0  0  0  0
    0.8092    1.2861    2.0537 H   0  0  0  0  0  0  0  0  0  0  0  0
    0.0509    3.2769    1.9894 C   0  0  0  0  0  0  0  0  0  0  0  0
   -0.9494    3.5076    2.3640 H   0  0  0  0  0  0  0  0  0  0  0  0
    0.7844    3.4956    2.7668 H   0  0  0  0  0  0  0  0  0  0  0  0
    0.2468    3.9058    1.1193 H   0  0  0  0  0  0  0  0  0  0  0  0
  5  6  2  0  0  0  0
  5  7  1  0  0  0  0
  2  3  1  0  0  0  0
  2  4  1  0  0  0  0
  2  5  1  0  0  0  0
  1  2  1  0  0  0  0
 22 23  2  0  0  0  0
 22 24  1  0  0  0  0
 19 20  1  0  0  0  0
 19 21  1  0  0  0  0
 17 18  2  0  0  0  0
 17 19  1  0  0  0  0
 14 15  1  0  0  0  0
 14 16  1  0  0  0  0
 14 17  1  0  0  0  0
 11 12  1  0  0  0  0
 11 13  1  0  0  0  0
 11 14  1  0  0  0  0
  9 10  1  0  0  0  0
  9 11  1  0  0  0  0
  9 22  1  0  0  0  0
  7  8  1  0  0  0  0
  7  9  1  0  0  0  0
 26 27  1  0  0  0  0
 26 28  1  0  0  0  0
 26 29  1  0  0  0  0
 24 25  1  0  0  0  0
 24 26  1  0  0  0  0
M  END
$$$$
default_name
  -OEChem-02102213163D

 29 28  0     1  0  0  0  0  0999 V2000
   -3.3998   -3.6239    1.3678 H   0  0  0  0  0  0  0  0  0  0  0  0
   -3.3608   -2.6749    0.8348 C   0  0  0  0  0  0  0  0  0  0  0  0
   -4.0988   -1.9909    1.2498 H   0  0  0  0  0  0  0  0  0  0  0  0
   -3.5618   -2.8419   -0.2222 H   0  0  0  0  0  0  0  0  0  0  0  0
   -1.9818   -2.0809    0.9918 C   0  0  0  0  0  0  0  0  0  0  0  0
   -1.1288   -2.6669    1.6468 O   0  0  0  0  0  0  0  0  0  0  0  0
   -1.7648   -0.9089    0.3998 N   0  0  0  0  0  0  0  0  0  0  0  0
   -2.5238   -0.4719   -0.1032 H   0  0  0  0  0  0  0  0  0  0  0  0
   -0.4848   -0.1959    0.4138 C   0  0  1  0  0  0  0  0  0  0  0  0
    0.1386   -0.6144    1.2058 H   0  0  0  0  0  0  0  0  0  0  0  0
    0.2271   -0.4272   -0.9334 C   0  0  0  0  0  0  0  0  0  0  0  0
   -0.5036   -0.8162   -1.6455 H   0  0  0  0  0  0  0  0  0  0  0  0
    0.5957    0.5280   -1.3104 H   0  0  0  0  0  0  0  0  0  0  0  0
    1.4021   -1.4175   -0.8546 C   0  0  0  0  0  0  0  0  0  0  0  0
    1.2084   -2.1556   -0.0766 H   0  0  0  0  0  0  0  0  0  0  0  0
    1.4938   -1.9343   -1.8098 H   0  0  0  0  0  0  0  0  0  0  0  0
    2.7377   -0.7424   -0.5430 C   0  0  0  0  0  0  0  0  0  0  0  0
    2.8712    0.4630   -0.4441 O   0  0  0  0  0  0  0  0  0  0  0  0
    3.7965   -1.5022   -0.3648 N   0  0  0  0  0  0  0  0  0  0  0  0
    4.6471   -1.0064   -0.1619 H   0  0  0  0  0  0  0  0  0  0  0  0
    3.7419   -2.4983   -0.4322 H   0  0  0  0  0  0  0  0  0  0  0  0
   -0.7011    1.2952    0.7149 C   0  0  0  0  0  0  0  0  0  0  0  0
   -1.5917    1.9198    0.1415 O   0  0  0  0  0  0  0  0  0  0  0  0
    0.1191    1.8675    1.6055 N   0  0  0  0  0  0  0  0  0  0  0  0
    0.8092    1.2861    2.0537 H   0  0  0  0  0  0  0  0  0  0  0  0
    0.0509    3.2769    1.9894 C   0  0  0  0  0  0  0  0  0  0  0  0
   -0.9494    3.5076    2.3640 H   0  0  0  0  0  0  0  0  0  0  0  0
    0.7844    3.4956    2.7668 H   0  0  0  0  0  0  0  0  0  0  0  0
    0.2468    3.9058    1.1193 H   0  0  0  0  0  0  0  0  0  0  0  0
  5  6  2  0  0  0  0
  5  7  1  0  0  0  0
  2  3  1  0  0  0  0
  2  4  1  0  0  0  0
  2  5  1  0  0  0  0
  1  2  1  0  0  0  0
 22 23  2  0  0  0  0
 22 24  1  0  0  0  0
 19 20  1  0  0  0  0
 19 21  1  0  0  0  0
 17 18  2  0  0  0  0
 17 19  1  0  0  0  0
 14 15  1  0  0  0  0
 14 16  1  0  0  0  0
 14 17  1  0  0  0  0
 11 12  1  0  0  0  0
 11 13  1  0  0  0  0
 11 14  1  0  0  0  0
  9 10  1  0  0  0  0
  9 11  1  0  0  0  0
  9 22  1  0  0  0  0
  7  8  1  0  0  0  0
  7  9  1  0  0  0  0
 26 27  1  0  0  0  0
 26 28  1  0  0  0  0
 26 29  1  0  0  0  0
 24 25  1  0  0  0  0
 24 26  1  0  0  0  0
M  END
$$$$
default_name
  -OEChem-02102213163D

 29 28  0     1  0  0  0  0  0999 V2000
   -3.3998   -3.6239    1.3678 H   0  0  0  0  0  0  0  0  0  0  0  0
   -3.3608   -2.6749    0.8348 C   0  0  0  0  0  0  0  0  0  0  0  0
   -4.0988   -1.9909    1.2498 H   0  0  0  0  0  0  0  0  0  0  0  0
   -3.5618   -2.8419   -0.2222 H   0  0  0  0  0  0  0  0  0  0  0  0
   -1.9818   -2.0809    0.9918 C   0  0  0  0  0  0  0  0  0  0  0  0
   -1.1288   -2.6669    1.6468 O   0  0  0  0  0  0  0  0  0  0  0  0
   -1.7648   -0.9089    0.3998 N   0  0  0  0  0  0  0  0  0  0  0  0
   -2.5238   -0.4719   -0.1032 H   0  0  0  0  0  0  0  0  0  0  0  0
   -0.4848   -0.1959    0.4138 C   0  0  1  0  0  0  0  0  0  0  0  0
    0.1386   -0.6144    1.2058 H   0  0  0  0  0  0  0  0  0  0  0  0
    0.2271   -0.4272   -0.9334 C   0  0  0  0  0  0  0  0  0  0  0  0
   -0.5036   -0.8162   -1.6455 H   0  0  0  0  0  0  0  0  0  0  0  0
    0.5957    0.5280   -1.3104 H   0  0  0  0  0  0  0  0  0  0  0  0
    1.4021   -1.4175   -0.8546 C   0  0  0  0  0  0  0  0  0  0  0  0
    1.1048   -2.2948   -0.2806 H   0  0  0  0  0  0  0  0  0  0  0  0
    1.6658   -1.7344   -1.8635 H   0  0  0  0  0  0  0  0  0  0  0  0
    2.6470   -0.8225   -0.1967 C   0  0  0  0  0  0  0  0  0  0  0  0
    2.7261    0.3387    0.1582 O   0  0  0  0  0  0  0  0  0  0  0  0
    3.6841   -1.6062    0.0040 N   0  0  0  0  0  0  0  0  0  0  0  0
    4.4742   -1.1636    0.4402 H   0  0  0  0  0  0  0  0  0  0  0  0
    3.6713   -2.5689   -0.2661 H   0  0  0  0  0  0  0  0  0  0  0  0
   -0.7011    1.2952    0.7149 C   0  0  0  0  0  0  0  0  0  0  0  0
   -1.5917    1.9198    0.1415 O   0  0  0  0  0  0  0  0  0  0  0  0
    0.1191    1.8675    1.6055 N   0  0  0  0  0  0  0  0  0  0  0  0
    0.8092    1.2861    2.0537 H   0  0  0  0  0  0  0  0  0  0  0  0
    0.0509    3.2769    1.9894 C   0  0  0  0  0  0  0  0  0  0  0  0
   -0.9494    3.5076    2.3640 H   0  0  0  0  0  0  0  0  0  0  0  0
    0.7844    3.4956    2.7668 H   0  0  0  0  0  0  0  0  0  0  0  0
    0.2468    3.9058    1.1193 H   0  0  0  0  0  0  0  0  0  0  0  0
  5  6  2  0  0  0  0
  5  7  1  0  0  0  0
  2  3  1  0  0  0  0
  2  4  1  0  0  0  0
  2  5  1  0  0  0  0
  1  2  1  0  0  0  0
 22 23  2  0  0  0  0
 22 24  1  0  0  0  0
 19 20  1  0  0  0  0
 19 21  1  0  0  0  0
 17 18  2  0  0  0  0
 17 19  1  0  0  0  0
 14 15  1  0  0  0  0
 14 16  1  0  0  0  0
 14 17  1  0  0  0  0
 11 12  1  0  0  0  0
 11 13  1  0  0  0  0
 11 14  1  0  0  0  0
  9 10  1  0  0  0  0
  9 11  1  0  0  0  0
  9 22  1  0  0  0  0
  7  8  1  0  0  0  0
  7  9  1  0  0  0  0
 26 27  1  0  0  0  0
 26 28  1  0  0  0  0
 26 29  1  0  0  0  0
 24 25  1  0  0  0  0
 24 26  1  0  0  0  0
M  END
$$$$
default_name
  -OEChem-02102213163D

 29 28  0     1  0  0  0  0  0999 V2000
   -3.3998   -3.6239    1.3678 H   0  0  0  0  0  0  0  0  0  0  0  0
   -3.3608   -2.6749    0.8348 C   0  0  0  0  0  0  0  0  0  0  0  0
   -4.0988   -1.9909    1.2498 H   0  0  0  0  0  0  0  0  0  0  0  0
   -3.5618   -2.8419   -0.2222 H   0  0  0  0  0  0  0  0  0  0  0  0
   -1.9818   -2.0809    0.9918 C   0  0  0  0  0  0  0  0  0  0  0  0
   -1.1288   -2.6669    1.6468 O   0  0  0  0  0  0  0  0  0  0  0  0
   -1.7648   -0.9089    0.3998 N   0  0  0  0  0  0  0  0  0  0  0  0
   -2.5238   -0.4719   -0.1032 H   0  0  0  0  0  0  0  0  0  0  0  0
   -0.4848   -0.1959    0.4138 C   0  0  1  0  0  0  0  0  0  0  0  0
    0.1386   -0.6144    1.2058 H   0  0  0  0  0  0  0  0  0  0  0  0
    0.2271   -0.4272   -0.9334 C   0  0  0  0  0  0  0  0  0  0  0  0
   -0.5036   -0.8162   -1.6455 H   0  0  0  0  0  0  0  0  0  0  0  0
    0.5957    0.5280   -1.3104 H   0  0  0  0  0  0  0  0  0  0  0  0
    1.4021   -1.4175   -0.8546 C   0  0  0  0  0  0  0  0  0  0  0  0
    1.0405   -2.3904   -0.5224 H   0  0  0  0  0  0  0  0  0  0  0  0
    1.8383   -1.5285   -1.8472 H   0  0  0  0  0  0  0  0  0  0  0  0
    2.5027   -0.9695    0.1069 C   0  0  0  0  0  0  0  0  0  0  0  0
    2.4872    0.0977    0.6912 O   0  0  0  0  0  0  0  0  0  0  0  0
    3.5155   -1.7811    0.3209 N   0  0  0  0  0  0  0  0  0  0  0  0
    4.2090   -1.4367    0.9620 H   0  0  0  0  0  0  0  0  0  0  0  0
    3.5764   -2.6708   -0.1313 H   0  0  0  0  0  0  0  0  0  0  0  0
   -0.7011    1.2952    0.7149 C   0  0  0  0  0  0  0  0  0  0  0  0
   -1.5917    1.9198    0.1415 O   0  0  0  0  0  0  0  0  0  0  0  0
    0.1191    1.8675    1.6055 N   0  0  0  0  0  0  0  0  0  0  0  0
    0.8092    1.2861    2.0537 H   0  0  0  0  0  0  0  0  0  0  0  0
    0.0509    3.2769    1.9894 C   0  0  0  0  0  0  0  0  0  0  0  0
   -0.9494    3.5076    2.3640 H   0  0  0  0  0  0  0  0  0  0  0  0
    0.7844    3.4956    2.7668 H   0  0  0  0  0  0  0  0  0  0  0  0
    0.2468    3.9058    1.1193 H   0  0  0  0  0  0  0  0  0  0  0  0
  5  6  2  0  0  0  0
  5  7  1  0  0  0  0
  2  3  1  0  0  0  0
  2  4  1  0  0  0  0
  2  5  1  0  0  0  0
  1  2  1  0  0  0  0
 22 23  2  0  0  0  0
 22 24  1  0  0  0  0
 19 20  1  0  0  0  0
 19 21  1  0  0  0  0
 17 18  2  0  0  0  0
 17 19  1  0  0  0  0
 14 15  1  0  0  0  0
 14 16  1  0  0  0  0
 14 17  1  0  0  0  0
 11 12  1  0  0  0  0
 11 13  1  0  0  0  0
 11 14  1  0  0  0  0
  9 10  1  0  0  0  0
  9 11  1  0  0  0  0
  9 22  1  0  0  0  0
  7  8  1  0  0  0  0
  7  9  1  0  0  0  0
 26 27  1  0  0  0  0
 26 28  1  0  0  0  0
 26 29  1  0  0  0  0
 24 25  1  0  0  0  0
 24 26  1  0  0  0  0
M  END
$$$$
default_name
  -OEChem-02102213163D

 29 28  0     1  0  0  0  0  0999 V2000
   -3.3998   -3.6239    1.3678 H   0  0  0  0  0  0  0  0  0  0  0  0
   -3.3608   -2.6749    0.8348 C   0  0  0  0  0  0  0  0  0  0  0  0
   -4.0988   -1.9909    1.2498 H   0  0  0  0  0  0  0  0  0  0  0  0
   -3.5618   -2.8419   -0.2222 H   0  0  0  0  0  0  0  0  0  0  0  0
   -1.9818   -2.0809    0.9918 C   0  0  0  0  0  0  0  0  0  0  0  0
   -1.1288   -2.6669    1.6468 O   0  0  0  0  0  0  0  0  0  0  0  0
   -1.7648   -0.9089    0.3998 N   0  0  0  0  0  0  0  0  0  0  0  0
   -2.5238   -0.4719   -0.1032 H   0  0  0  0  0  0  0  0  0  0  0  0
   -0.4848   -0.1959    0.4138 C   0  0  1  0  0  0  0  0  0  0  0  0
    0.1386   -0.6144    1.2058 H   0  0  0  0  0  0  0  0  0  0  0  0
    0.2271   -0.4272   -0.9334 C   0  0  0  0  0  0  0  0  0  0  0  0
   -0.5036   -0.8162   -1.6455 H   0  0  0  0  0  0  0  0  0  0  0  0
    0.5957    0.5280   -1.3104 H   0  0  0  0  0  0  0  0  0  0  0  0
    1.4021   -1.4175   -0.8546 C   0  0  0  0  0  0  0  0  0  0  0  0
    1.0199   -2.4357   -0.7856 H   0  0  0  0  0  0  0  0  0  0  0  0
    1.9995   -1.3305   -1.7621 H   0  0  0  0  0  0  0  0  0  0  0  0
    2.3147   -1.1734    0.3471 C   0  0  0  0  0  0  0  0  0  0  0  0
    2.1709   -0.2435    1.1187 O   0  0  0  0  0  0  0  0  0  0  0  0
    3.3021   -2.0148    0.5643 N   0  0  0  0  0  0  0  0  0  0  0  0
    3.8695   -1.8072    1.3678 H   0  0  0  0  0  0  0  0  0  0  0  0
    3.4636   -2.7971   -0.0371 H   0  0  0  0  0  0  0  0  0  0  0  0
   -0.7011    1.2952    0.7149 C   0  0  0  0  0  0  0  0  0  0  0  0
   -1.5917    1.9198    0.1415 O   0  0  0  0  0  0  0  0  0  0  0  0
    0.1191    1.8675    1.6055 N   0  0  0  0  0  0  0  0  0  0  0  0
    0.8092    1.2861    2.0537 H   0  0  0  0  0  0  0  0  0  0  0  0
    0.0509    3.2769    1.9894 C   0  0  0  0  0  0  0  0  0  0  0  0
   -0.9494    3.5076    2.3640 H   0  0  0  0  0  0  0  0  0  0  0  0
    0.7844    3.4956    2.7668 H   0  0  0  0  0  0  0  0  0  0  0  0
    0.2468    3.9058    1.1193 H   0  0  0  0  0  0  0  0  0  0  0  0
  5  6  2  0  0  0  0
  5  7  1  0  0  0  0
  2  3  1  0  0  0  0
  2  4  1  0  0  0  0
  2  5  1  0  0  0  0
  1  2  1  0  0  0  0
 22 23  2  0  0  0  0
 22 24  1  0  0  0  0
 19 20  1  0  0  0  0
 19 21  1  0  0  0  0
 17 18  2  0  0  0  0
 17 19  1  0  0  0  0
 14 15  1  0  0  0  0
 14 16  1  0  0  0  0
 14 17  1  0  0  0  0
 11 12  1  0  0  0  0
 11 13  1  0  0  0  0
 11 14  1  0  0  0  0
  9 10  1  0  0  0  0
  9 11  1  0  0  0  0
  9 22  1  0  0  0  0
  7  8  1  0  0  0  0
  7  9  1  0  0  0  0
 26 27  1  0  0  0  0
 26 28  1  0  0  0  0
 26 29  1  0  0  0  0
 24 25  1  0  0  0  0
 24 26  1  0  0  0  0
M  END
$$$$
default_name
  -OEChem-02102213163D

 29 28  0     1  0  0  0  0  0999 V2000
   -3.3998   -3.6239    1.3678 H   0  0  0  0  0  0  0  0  0  0  0  0
   -3.3608   -2.6749    0.8348 C   0  0  0  0  0  0  0  0  0  0  0  0
   -4.0988   -1.9909    1.2498 H   0  0  0  0  0  0  0  0  0  0  0  0
   -3.5618   -2.8419   -0.2222 H   0  0  0  0  0  0  0  0  0  0  0  0
   -1.9818   -2.0809    0.9918 C   0  0  0  0  0  0  0  0  0  0  0  0
   -1.1288   -2.6669    1.6468 O   0  0  0  0  0  0  0  0  0  0  0  0
   -1.7648   -0.9089    0.3998 N   0  0  0  0  0  0  0  0  0  0  0  0
   -2.5238   -0.4719   -0.1032 H   0  0  0  0  0  0  0  0  0  0  0  0
   -0.4848   -0.1959    0.4138 C   0  0  1  0  0  0  0  0  0  0  0  0
    0.1386   -0.6144    1.2058 H   0  0  0  0  0  0  0  0  0  0  0  0
    0.2271   -0.4272   -0.9334 C   0  0  0  0  0  0  0  0  0  0  0  0
   -0.5036   -0.8162   -1.6455 H   0  0  0  0  0  0  0  0  0  0  0  0
    0.5957    0.5280   -1.3104 H   0  0  0  0  0  0  0  0  0  0  0  0
    1.4021   -1.4175   -0.8546 C   0  0  0  0  0  0  0  0  0  0  0  0
    1.0445   -2.4278   -1.0522 H   0  0  0  0  0  0  0  0  0  0  0  0
    2.1384   -1.1539   -1.6138 H   0  0  0  0  0  0  0  0  0  0  0  0
    2.0959   -1.4203    0.5075 C   0  0  0  0  0  0  0  0  0  0  0  0
    1.7986   -0.6619    1.4114 O   0  0  0  0  0  0  0  0  0  0  0  0
    3.0586   -2.2916    0.7178 N   0  0  0  0  0  0  0  0  0  0  0  0
    3.4789   -2.2498    1.6300 H   0  0  0  0  0  0  0  0  0  0  0  0
    3.3406   -2.9392    0.0102 H   0  0  0  0  0  0  0  0  0  0  0  0
   -0.7011    1.2952    0.7149 C   0  0  0  0  0  0  0  0  0  0  0  0
   -1.5917    1.9198    0.1415 O   0  0  0  0  0  0  0  0  0  0  0  0
    0.1191    1.8675    1.6055 N   0  0  0  0  0  0  0  0  0  0  0  0
    0.8092    1.2861    2.0537 H   0  0  0  0  0  0  0  0  0  0  0  0
    0.0509    3.2769    1.9894 C   0  0  0  0  0  0  0  0  0  0  0  0
   -0.9494    3.5076    2.3640 H   0  0  0  0  0  0  0  0  0  0  0  0
    0.7844    3.4956    2.7668 H   0  0  0  0  0  0  0  0  0  0  0  0
    0.2468    3.9058    1.1193 H   0  0  0  0  0  0  0  0  0  0  0  0
  5  6  2  0  0  0  0
  5  7  1  0  0  0  0
  2  3  1  0  0  0  0
  2  4  1  0  0  0  0
  2  5  1  0  0  0  0
  1  2  1  0  0  0  0
 22 23  2  0  0  0  0
 22 24  1  0  0  0  0
 19 20  1  0  0  0  0
 19 21  1  0  0  0  0
 17 18  2  0  0  0  0
 17 19  1  0  0  0  0
 14 15  1  0  0  0  0
 14 16  1  0  0  0  0
 14 17  1  0  0  0  0
 11 12  1  0  0  0  0
 11 13  1  0  0  0  0
 11 14  1  0  0  0  0
  9 10  1  0  0  0  0
  9 11  1  0  0  0  0
  9 22  1  0  0  0  0
  7  8  1  0  0  0  0
  7  9  1  0  0  0  0
 26 27  1  0  0  0  0
 26 28  1  0  0  0  0
 26 29  1  0  0  0  0
 24 25  1  0  0  0  0
 24 26  1  0  0  0  0
M  END
$$$$
default_name
  -OEChem-02102213163D

 29 28  0     1  0  0  0  0  0999 V2000
   -3.3998   -3.6239    1.3678 H   0  0  0  0  0  0  0  0  0  0  0  0
   -3.3608   -2.6749    0.8348 C   0  0  0  0  0  0  0  0  0  0  0  0
   -4.0988   -1.9909    1.2498 H   0  0  0  0  0  0  0  0  0  0  0  0
   -3.5618   -2.8419   -0.2222 H   0  0  0  0  0  0  0  0  0  0  0  0
   -1.9818   -2.0809    0.9918 C   0  0  0  0  0  0  0  0  0  0  0  0
   -1.1288   -2.6669    1.6468 O   0  0  0  0  0  0  0  0  0  0  0  0
   -1.7648   -0.9089    0.3998 N   0  0  0  0  0  0  0  0  0  0  0  0
   -2.5238   -0.4719   -0.1032 H   0  0  0  0  0  0  0  0  0  0  0  0
   -0.4848   -0.1959    0.4138 C   0  0  1  0  0  0  0  0  0  0  0  0
    0.1386   -0.6144    1.2058 H   0  0  0  0  0  0  0  0  0  0  0  0
    0.2271   -0.4272   -0.9334 C   0  0  0  0  0  0  0  0  0  0  0  0
   -0.5036   -0.8162   -1.6455 H   0  0  0  0  0  0  0  0  0  0  0  0
    0.5957    0.5280   -1.3104 H   0  0  0  0  0  0  0  0  0  0  0  0
    1.4021   -1.4175   -0.8546 C   0  0  0  0  0  0  0  0  0  0  0  0
    1.1126   -2.3671   -1.3041 H   0  0  0  0  0  0  0  0  0  0  0  0
    2.2455   -1.0109   -1.4126 H   0  0  0  0  0  0  0  0  0  0  0  0
    1.8610   -1.6934    0.5772 C   0  0  0  0  0  0  0  0  0  0  0  0
    1.3959   -1.1287    1.5495 O   0  0  0  0  0  0  0  0  0  0  0  0
    2.8015   -2.5924    0.7707 N   0  0  0  0  0  0  0  0  0  0  0  0
    3.0638   -2.7342    1.7307 H   0  0  0  0  0  0  0  0  0  0  0  0
    3.2158   -3.0875    0.0072 H   0  0  0  0  0  0  0  0  0  0  0  0
   -0.7011    1.2952    0.7149 C   0  0  0  0  0  0  0  0  0  0  0  0
   -1.5917    1.9198    0.1415 O   0  0  0  0  0  0  0  0  0  0  0  0
    0.1191    1.8675    1.6055 N   0  0  0  0  0  0  0  0  0  0  0  0
    0.8092    1.2861    2.0537 H   0  0  0  0  0  0  0  0  0  0  0  0
    0.0509    3.2769    1.9894 C   0  0  0  0  0  0  0  0  0  0  0  0
   -0.9494    3.5076    2.3640 H   0  0  0  0  0  0  0  0  0  0  0  0
    0.7844    3.4956    2.7668 H   0  0  0  0  0  0  0  0  0  0  0  0
    0.2468    3.9058    1.1193 H   0  0  0  0  0  0  0  0  0  0  0  0
  5  6  2  0  0  0  0
  5  7  1  0  0  0  0
  2  3  1  0  0  0  0
  2  4  1  0  0  0  0
  2  5  1  0  0  0  0
  1  2  1  0  0  0  0
 22 23  2  0  0  0  0
 22 24  1  0  0  0  0
 19 20  1  0  0  0  0
 19 21  1  0  0  0  0
 17 18  2  0  0  0  0
 17 19  1  0  0  0  0
 14 15  1  0  0  0  0
 14 16  1  0  0  0  0
 14 17  1  0  0  0  0
 11 12  1  0  0  0  0
 11 13  1  0  0  0  0
 11 14  1  0  0  0  0
  9 10  1  0  0  0  0
  9 11  1  0  0  0  0
  9 22  1  0  0  0  0
  7  8  1  0  0  0  0
  7  9  1  0  0  0  0
 26 27  1  0  0  0  0
 26 28  1  0  0  0  0
 26 29  1  0  0  0  0
 24 25  1  0  0  0  0
 24 26  1  0  0  0  0
M  END
$$$$
default_name
  -OEChem-02102213163D

 29 28  0     1  0  0  0  0  0999 V2000
   -3.3998   -3.6239    1.3678 H   0  0  0  0  0  0  0  0  0  0  0  0
   -3.3608   -2.6749    0.8348 C   0  0  0  0  0  0  0  0  0  0  0  0
   -4.0988   -1.9909    1.2498 H   0  0  0  0  0  0  0  0  0  0  0  0
   -3.5618   -2.8419   -0.2222 H   0  0  0  0  0  0  0  0  0  0  0  0
   -1.9818   -2.0809    0.9918 C   0  0  0  0  0  0  0  0  0  0  0  0
   -1.1288   -2.6669    1.6468 O   0  0  0  0  0  0  0  0  0  0  0  0
   -1.7648   -0.9089    0.3998 N   0  0  0  0  0  0  0  0  0  0  0  0
   -2.5238   -0.4719   -0.1032 H   0  0  0  0  0  0  0  0  0  0  0  0
   -0.4848   -0.1959    0.4138 C   0  0  1  0  0  0  0  0  0  0  0  0
    0.1386   -0.6144    1.2058 H   0  0  0  0  0  0  0  0  0  0  0  0
    0.2271   -0.4272   -0.9334 C   0  0  0  0  0  0  0  0  0  0  0  0
   -0.5036   -0.8162   -1.6455 H   0  0  0  0  0  0  0  0  0  0  0  0
    0.5957    0.5280   -1.3104 H   0  0  0  0  0  0  0  0  0  0  0  0
    1.4021   -1.4175   -0.8546 C   0  0  0  0  0  0  0  0  0  0  0  0
    1.2195   -2.2578   -1.5241 H   0  0  0  0  0  0  0  0  0  0  0  0
    2.3135   -0.9110   -1.1721 H   0  0  0  0  0  0  0  0  0  0  0  0
    1.6262   -1.9740    0.5513 C   0  0  0  0  0  0  0  0  0  0  0  0
    0.9901   -1.6123    1.5235 O   0  0  0  0  0  0  0  0  0  0  0  0
    2.5483   -2.8969    0.7196 N   0  0  0  0  0  0  0  0  0  0  0  0
    2.6525   -3.2276    1.6631 H   0  0  0  0  0  0  0  0  0  0  0  0
    3.0978   -3.2318   -0.0457 H   0  0  0  0  0  0  0  0  0  0  0  0
   -0.7011    1.2952    0.7149 C   0  0  0  0  0  0  0  0  0  0  0  0
   -1.5917    1.9198    0.1415 O   0  0  0  0  0  0  0  0  0  0  0  0
    0.1191    1.8675    1.6055 N   0  0  0  0  0  0  0  0  0  0  0  0
    0.8092    1.2861    2.0537 H   0  0  0  0  0  0  0  0  0  0  0  0
    0.0509    3.2769    1.9894 C   0  0  0  0  0  0  0  0  0  0  0  0
   -0.9494    3.5076    2.3640 H   0  0  0  0  0  0  0  0  0  0  0  0
    0.7844    3.4956    2.7668 H   0  0  0  0  0  0  0  0  0  0  0  0
    0.2468    3.9058    1.1193 H   0  0  0  0  0  0  0  0  0  0  0  0
  5  6  2  0  0  0  0
  5  7  1  0  0  0  0
  2  3  1  0  0  0  0
  2  4  1  0  0  0  0
  2  5  1  0  0  0  0
  1  2  1  0  0  0  0
 22 23  2  0  0  0  0
 22 24  1  0  0  0  0
 19 20  1  0  0  0  0
 19 21  1  0  0  0  0
 17 18  2  0  0  0  0
 17 19  1  0  0  0  0
 14 15  1  0  0  0  0
 14 16  1  0  0  0  0
 14 17  1  0  0  0  0
 11 12  1  0  0  0  0
 11 13  1  0  0  0  0
 11 14  1  0  0  0  0
  9 10  1  0  0  0  0
  9 11  1  0  0  0  0
  9 22  1  0  0  0  0
  7  8  1  0  0  0  0
  7  9  1  0  0  0  0
 26 27  1  0  0  0  0
 26 28  1  0  0  0  0
 26 29  1  0  0  0  0
 24 25  1  0  0  0  0
 24 26  1  0  0  0  0
M  END
$$$$
default_name
  -OEChem-02102213163D

 29 28  0     1  0  0  0  0  0999 V2000
   -3.3998   -3.6239    1.3678 H   0  0  0  0  0  0  0  0  0  0  0  0
   -3.3608   -2.6749    0.8348 C   0  0  0  0  0  0  0  0  0  0  0  0
   -4.0988   -1.9909    1.2498 H   0  0  0  0  0  0  0  0  0  0  0  0
   -3.5618   -2.8419   -0.2222 H   0  0  0  0  0  0  0  0  0  0  0  0
   -1.9818   -2.0809    0.9918 C   0  0  0  0  0  0  0  0  0  0  0  0
   -1.1288   -2.6669    1.6468 O   0  0  0  0  0  0  0  0  0  0  0  0
   -1.7648   -0.9089    0.3998 N   0  0  0  0  0  0  0  0  0  0  0  0
   -2.5238   -0.4719   -0.1032 H   0  0  0  0  0  0  0  0  0  0  0  0
   -0.4848   -0.1959    0.4138 C   0  0  1  0  0  0  0  0  0  0  0  0
    0.1386   -0.6144    1.2058 H   0  0  0  0  0  0  0  0  0  0  0  0
    0.2271   -0.4272   -0.9334 C   0  0  0  0  0  0  0  0  0  0  0  0
   -0.5036   -0.8162   -1.6455 H   0  0  0  0  0  0  0  0  0  0  0  0
    0.5957    0.5280   -1.3104 H   0  0  0  0  0  0  0  0  0  0  0  0
    1.4021   -1.4175   -0.8546 C   0  0  0  0  0  0  0  0  0  0  0  0
    1.3579   -2.1073   -1.6971 H   0  0  0  0  0  0  0  0  0  0  0  0
    2.3378   -0.8612   -0.9087 H   0  0  0  0  0  0  0  0  0  0  0  0
    1.4074   -2.2432    0.4318 C   0  0  0  0  0  0  0  0  0  0  0  0
    0.6088   -2.0797    1.3352 O   0  0  0  0  0  0  0  0  0  0  0  0
    2.3163   -3.1843    0.5678 N   0  0  0  0  0  0  0  0  0  0  0  0
    2.2730   -3.6963    1.4318 H   0  0  0  0  0  0  0  0  0  0  0  0
    2.9945   -3.3623   -0.1450 H   0  0  0  0  0  0  0  0  0  0  0  0
   -0.7011    1.2952    0.7149 C   0  0  0  0  0  0  0  0  0  0  0  0
   -1.5917    1.9198    0.1415 O   0  0  0  0  0  0  0  0  0  0  0  0
    0.1191    1.8675    1.6055 N   0  0  0  0  0  0  0  0  0  0  0  0
    0.8092    1.2861    2.0537 H   0  0  0  0  0  0  0  0  0  0  0  0
    0.0509    3.2769    1.9894 C   0  0  0  0  0  0  0  0  0  0  0  0
   -0.9494    3.5076    2.3640 H   0  0  0  0  0  0  0  0  0  0  0  0
    0.7844    3.4956    2.7668 H   0  0  0  0  0  0  0  0  0  0  0  0
    0.2468    3.9058    1.1193 H   0  0  0  0  0  0  0  0  0  0  0  0
  5  6  2  0  0  0  0
  5  7  1  0  0  0  0
  2  3  1  0  0  0  0
  2  4  1  0  0  0  0
  2  5  1  0  0  0  0
  1  2  1  0  0  0  0
 22 23  2  0  0  0  0
 22 24  1  0  0  0  0
 19 20  1  0  0  0  0
 19 21  1  0  0  0  0
 17 18  2  0  0  0  0
 17 19  1  0  0  0  0
 14 15  1  0  0  0  0
 14 16  1  0  0  0  0
 14 17  1  0  0  0  0
 11 12  1  0  0  0  0
 11 13  1  0  0  0  0
 11 14  1  0  0  0  0
  9 10  1  0  0  0  0
  9 11  1  0  0  0  0
  9 22  1  0  0  0  0
  7  8  1  0  0  0  0
  7  9  1  0  0  0  0
 26 27  1  0  0  0  0
 26 28  1  0  0  0  0
 26 29  1  0  0  0  0
 24 25  1  0  0  0  0
 24 26  1  0  0  0  0
M  END
$$$$
default_name
  -OEChem-02102213163D

 29 28  0     1  0  0  0  0  0999 V2000
   -3.3998   -3.6239    1.3678 H   0  0  0  0  0  0  0  0  0  0  0  0
   -3.3608   -2.6749    0.8348 C   0  0  0  0  0  0  0  0  0  0  0  0
   -4.0988   -1.9909    1.2498 H   0  0  0  0  0  0  0  0  0  0  0  0
   -3.5618   -2.8419   -0.2222 H   0  0  0  0  0  0  0  0  0  0  0  0
   -1.9818   -2.0809    0.9918 C   0  0  0  0  0  0  0  0  0  0  0  0
   -1.1288   -2.6669    1.6468 O   0  0  0  0  0  0  0  0  0  0  0  0
   -1.7648   -0.9089    0.3998 N   0  0  0  0  0  0  0  0  0  0  0  0
   -2.5238   -0.4719   -0.1032 H   0  0  0  0  0  0  0  0  0  0  0  0
   -0.4848   -0.1959    0.4138 C   0  0  1  0  0  0  0  0  0  0  0  0
    0.1386   -0.6144    1.2058 H   0  0  0  0  0  0  0  0  0  0  0  0
    0.2271   -0.4272   -0.9334 C   0  0  0  0  0  0  0  0  0  0  0  0
   -0.5036   -0.8162   -1.6455 H   0  0  0  0  0  0  0  0  0  0  0  0
    0.5957    0.5280   -1.3104 H   0  0  0  0  0  0  0  0  0  0  0  0
    1.4021   -1.4175   -0.8546 C   0  0  0  0  0  0  0  0  0  0  0  0
    1.5184   -1.9259   -1.8115 H   0  0  0  0  0  0  0  0  0  0  0  0
    2.3168   -0.8648   -0.6404 H   0  0  0  0  0  0  0  0  0  0  0  0
    1.2195   -2.4824    0.2267 C   0  0  0  0  0  0  0  0  0  0  0  0
    0.2781   -2.4989    0.9974 O   0  0  0  0  0  0  0  0  0  0  0  0
    2.1213   -3.4349    0.3257 N   0  0  0  0  0  0  0  0  0  0  0  0
    1.9512   -4.1083    1.0525 H   0  0  0  0  0  0  0  0  0  0  0  0
    2.9129   -3.4701   -0.2839 H   0  0  0  0  0  0  0  0  0  0  0  0
   -0.7011    1.2952    0.7149 C   0  0  0  0  0  0  0  0  0  0  0  0
   -1.5917    1.9198    0.1415 O   0  0  0  0  0  0  0  0  0  0  0  0
    0.1191    1.8675    1.6055 N   0  0  0  0  0  0  0  0  0  0  0  0
    0.8092    1.2861    2.0537 H   0  0  0  0  0  0  0  0  0  0  0  0
    0.0509    3.2769    1.9894 C   0  0  0  0  0  0  0  0  0  0  0  0
   -0.9494    3.5076    2.3640 H   0  0  0  0  0  0  0  0  0  0  0  0
    0.7844    3.4956    2.7668 H   0  0  0  0  0  0  0  0  0  0  0  0
    0.2468    3.9058    1.1193 H   0  0  0  0  0  0  0  0  0  0  0  0
  5  6  2  0  0  0  0
  5  7  1  0  0  0  0
  2  3  1  0  0  0  0
  2  4  1  0  0  0  0
  2  5  1  0  0  0  0
  1  2  1  0  0  0  0
 22 23  2  0  0  0  0
 22 24  1  0  0  0  0
 19 20  1  0  0  0  0
 19 21  1  0  0  0  0
 17 18  2  0  0  0  0
 17 19  1  0  0  0  0
 14 15  1  0  0  0  0
 14 16  1  0  0  0  0
 14 17  1  0  0  0  0
 11 12  1  0  0  0  0
 11 13  1  0  0  0  0
 11 14  1  0  0  0  0
  9 10  1  0  0  0  0
  9 11  1  0  0  0  0
  9 22  1  0  0  0  0
  7  8  1  0  0  0  0
  7  9  1  0  0  0  0
 26 27  1  0  0  0  0
 26 28  1  0  0  0  0
 26 29  1  0  0  0  0
 24 25  1  0  0  0  0
 24 26  1  0  0  0  0
M  END
$$$$
default_name
  -OEChem-02102213163D

 29 28  0     1  0  0  0  0  0999 V2000
   -3.3998   -3.6239    1.3678 H   0  0  0  0  0  0  0  0  0  0  0  0
   -3.3608   -2.6749    0.8348 C   0  0  0  0  0  0  0  0  0  0  0  0
   -4.0988   -1.9909    1.2498 H   0  0  0  0  0  0  0  0  0  0  0  0
   -3.5618   -2.8419   -0.2222 H   0  0  0  0  0  0  0  0  0  0  0  0
   -1.9818   -2.0809    0.9918 C   0  0  0  0  0  0  0  0  0  0  0  0
   -1.1288   -2.6669    1.6468 O   0  0  0  0  0  0  0  0  0  0  0  0
   -1.7648   -0.9089    0.3998 N   0  0  0  0  0  0  0  0  0  0  0  0
   -2.5238   -0.4719   -0.1032 H   0  0  0  0  0  0  0  0  0  0  0  0
   -0.4848   -0.1959    0.4138 C   0  0  1  0  0  0  0  0  0  0  0  0
    0.1386   -0.6144    1.2058 H   0  0  0  0  0  0  0  0  0  0  0  0
    0.2271   -0.4272   -0.9334 C   0  0  0  0  0  0  0  0  0  0  0  0
   -0.5036   -0.8162   -1.6455 H   0  0  0  0  0  0  0  0  0  0  0  0
    0.5957    0.5280   -1.3104 H   0  0  0  0  0  0  0  0  0  0  0  0
    1.4021   -1.4175   -0.8546 C   0  0  0  0  0  0  0  0  0  0  0  0
    1.6902   -1.7260   -1.8593 H   0  0  0  0  0  0  0  0  0  0  0  0
    2.2518   -0.9216   -0.3855 H   0  0  0  0  0  0  0  0  0  0  0  0
    1.0754   -2.6754   -0.0499 C   0  0  0  0  0  0  0  0  0  0  0  0
    0.0205   -2.8416    0.5332 O   0  0  0  0  0  0  0  0  0  0  0  0
    1.9765   -3.6318    0.0099 N   0  0  0  0  0  0  0  0  0  0  0  0
    1.7090   -4.4355    0.5511 H   0  0  0  0  0  0  0  0  0  0  0  0
    2.8588   -3.5478   -0.4530 H   0  0  0  0  0  0  0  0  0  0  0  0
   -0.7011    1.2952    0.7149 C   0  0  0  0  0  0  0  0  0  0  0  0
   -1.5917    1.9198    0.1415 O   0  0  0  0  0  0  0  0  0  0  0  0
    0.1191    1.8675    1.6055 N   0  0  0  0  0  0  0  0  0  0  0  0
    0.8092    1.2861    2.0537 H   0  0  0  0  0  0  0  0  0  0  0  0
    0.0509    3.2769    1.9894 C   0  0  0  0  0  0  0  0  0  0  0  0
   -0.9494    3.5076    2.3640 H   0  0  0  0  0  0  0  0  0  0  0  0
    0.7844    3.4956    2.7668 H   0  0  0  0  0  0  0  0  0  0  0  0
    0.2468    3.9058    1.1193 H   0  0  0  0  0  0  0  0  0  0  0  0
  5  6  2  0  0  0  0
  5  7  1  0  0  0  0
  2  3  1  0  0  0  0
  2  4  1  0  0  0  0
  2  5  1  0  0  0  0
  1  2  1  0  0  0  0
 22 23  2  0  0  0  0
 22 24  1  0  0  0  0
 19 20  1  0  0  0  0
 19 21  1  0  0  0  0
 17 18  2  0  0  0  0
 17 19  1  0  0  0  0
 14 15  1  0  0  0  0
 14 16  1  0  0  0  0
 14 17  1  0  0  0  0
 11 12  1  0  0  0  0
 11 13  1  0  0  0  0
 11 14  1  0  0  0  0
  9 10  1  0  0  0  0
  9 11  1  0  0  0  0
  9 22  1  0  0  0  0
  7  8  1  0  0  0  0
  7  9  1  0  0  0  0
 26 27  1  0  0  0  0
 26 28  1  0  0  0  0
 26 29  1  0  0  0  0
 24 25  1  0  0  0  0
 24 26  1  0  0  0  0
M  END
$$$$
default_name
  -OEChem-02102213163D

 29 28  0     1  0  0  0  0  0999 V2000
   -3.3998   -3.6239    1.3678 H   0  0  0  0  0  0  0  0  0  0  0  0
   -3.3608   -2.6749    0.8348 C   0  0  0  0  0  0  0  0  0  0  0  0
   -4.0988   -1.9909    1.2498 H   0  0  0  0  0  0  0  0  0  0  0  0
   -3.5618   -2.8419   -0.2222 H   0  0  0  0  0  0  0  0  0  0  0  0
   -1.9818   -2.0809    0.9918 C   0  0  0  0  0  0  0  0  0  0  0  0
   -1.1288   -2.6669    1.6468 O   0  0  0  0  0  0  0  0  0  0  0  0
   -1.7648   -0.9089    0.3998 N   0  0  0  0  0  0  0  0  0  0  0  0
   -2.5238   -0.4719   -0.1032 H   0  0  0  0  0  0  0  0  0  0  0  0
   -0.4848   -0.1959    0.4138 C   0  0  1  0  0  0  0  0  0  0  0  0
    0.1386   -0.6144    1.2058 H   0  0  0  0  0  0  0  0  0  0  0  0
    0.2271   -0.4272   -0.9334 C   0  0  0  0  0  0  0  0  0  0  0  0
   -0.5036   -0.8162   -1.6455 H   0  0  0  0  0  0  0  0  0  0  0  0
    0.5957    0.5280   -1.3104 H   0  0  0  0  0  0  0  0  0  0  0  0
    1.4021   -1.4175   -0.8546 C   0  0  0  0  0  0  0  0  0  0  0  0
    1.8614   -1.5211   -1.8374 H   0  0  0  0  0  0  0  0  0  0  0  0
    2.1473   -1.0277   -0.1613 H   0  0  0  0  0  0  0  0  0  0  0  0
    0.9848   -2.8091   -0.3794 C   0  0  0  0  0  0  0  0  0  0  0  0
   -0.1465   -3.0842   -0.0258 O   0  0  0  0  0  0  0  0  0  0  0  0
    1.8920   -3.7614   -0.3581 N   0  0  0  0  0  0  0  0  0  0  0  0
    1.5630   -4.6558   -0.0382 H   0  0  0  0  0  0  0  0  0  0  0  0
    2.8357   -3.5902   -0.6407 H   0  0  0  0  0  0  0  0  0  0  0  0
   -0.7011    1.2952    0.7149 C   0  0  0  0  0  0  0  0  0  0  0  0
   -1.5917    1.9198    0.1415 O   0  0  0  0  0  0  0  0  0  0  0  0
    0.1191    1.8675    1.6055 N   0  0  0  0  0  0  0  0  0  0  0  0
    0.8092    1.2861    2.0537 H   0  0  0  0  0  0  0  0  0  0  0  0
    0.0509    3.2769    1.9894 C   0  0  0  0  0  0  0  0  0  0  0  0
   -0.9494    3.5076    2.3640 H   0  0  0  0  0  0  0  0  0  0  0  0
    0.7844    3.4956    2.7668 H   0  0  0  0  0  0  0  0  0  0  0  0
    0.2468    3.9058    1.1193 H   0  0  0  0  0  0  0  0  0  0  0  0
  5  6  2  0  0  0  0
  5  7  1  0  0  0  0
  2  3  1  0  0  0  0
  2  4  1  0  0  0  0
  2  5  1  0  0  0  0
  1  2  1  0  0  0  0
 22 23  2  0  0  0  0
 22 24  1  0  0  0  0
 19 20  1  0  0  0  0
 19 21  1  0  0  0  0
 17 18  2  0  0  0  0
 17 19  1  0  0  0  0
 14 15  1  0  0  0  0
 14 16  1  0  0  0  0
 14 17  1  0  0  0  0
 11 12  1  0  0  0  0
 11 13  1  0  0  0  0
 11 14  1  0  0  0  0
  9 10  1  0  0  0  0
  9 11  1  0  0  0  0
  9 22  1  0  0  0  0
  7  8  1  0  0  0  0
  7  9  1  0  0  0  0
 26 27  1  0  0  0  0
 26 28  1  0  0  0  0
 26 29  1  0  0  0  0
 24 25  1  0  0  0  0
 24 26  1  0  0  0  0
M  END
$$$$
default_name
  -OEChem-02102213163D

 29 28  0     1  0  0  0  0  0999 V2000
   -3.3998   -3.6239    1.3678 H   0  0  0  0  0  0  0  0  0  0  0  0
   -3.3608   -2.6749    0.8348 C   0  0  0  0  0  0  0  0  0  0  0  0
   -4.0988   -1.9909    1.2498 H   0  0  0  0  0  0  0  0  0  0  0  0
   -3.5618   -2.8419   -0.2222 H   0  0  0  0  0  0  0  0  0  0  0  0
   -1.9818   -2.0809    0.9918 C   0  0  0  0  0  0  0  0  0  0  0  0
   -1.1288   -2.6669    1.6468 O   0  0  0  0  0  0  0  0  0  0  0  0
   -1.7648   -0.9089    0.3998 N   0  0  0  0  0  0  0  0  0  0  0  0
   -2.5238   -0.4719   -0.1032 H   0  0  0  0  0  0  0  0  0  0  0  0
   -0.4848   -0.1959    0.4138 C   0  0  1  0  0  0  0  0  0  0  0  0
    0.1386   -0.6144    1.2058 H   0  0  0  0  0  0  0  0  0  0  0  0
    0.2271   -0.4272   -0.9334 C   0  0  0  0  0  0  0  0  0  0  0  0
   -0.5036   -0.8162   -1.6455 H   0  0  0  0  0  0  0  0  0  0  0  0
    0.5957    0.5280   -1.3104 H   0  0  0  0  0  0  0  0  0  0  0  0
    1.4021   -1.4175   -0.8546 C   0  0  0  0  0  0  0  0  0  0  0  0
    2.0204   -1.3253   -1.7473 H   0  0  0  0  0  0  0  0  0  0  0  0
    2.0105   -1.1758    0.0169 H   0  0  0  0  0  0  0  0  0  0  0  0
    0.9540   -2.8743   -0.7391 C   0  0  0  0  0  0  0  0  0  0  0  0
   -0.2115   -3.2102   -0.6415 O   0  0  0  0  0  0  0  0  0  0  0  0
    1.8733   -3.8150   -0.7534 N   0  0  0  0  0  0  0  0  0  0  0  0
    1.5230   -4.7540   -0.6753 H   0  0  0  0  0  0  0  0  0  0  0  0
    2.8451   -3.5943   -0.8342 H   0  0  0  0  0  0  0  0  0  0  0  0
   -0.7011    1.2952    0.7149 C   0  0  0  0  0  0  0  0  0  0  0  0
   -1.5917    1.9198    0.1415 O   0  0  0  0  0  0  0  0  0  0  0  0
    0.1191    1.8675    1.6055 N   0  0  0  0  0  0  0  0  0  0  0  0
    0.8092    1.2861    2.0537 H   0  0  0  0  0  0  0  0  0  0  0  0
    0.0509    3.2769    1.9894 C   0  0  0  0  0  0  0  0  0  0  0  0
   -0.9494    3.5076    2.3640 H   0  0  0  0  0  0  0  0  0  0  0  0
    0.7844    3.4956    2.7668 H   0  0  0  0  0  0  0  0  0  0  0  0
    0.2468    3.9058    1.1193 H   0  0  0  0  0  0  0  0  0  0  0  0
  5  6  2  0  0  0  0
  5  7  1  0  0  0  0
  2  3  1  0  0  0  0
  2  4  1  0  0  0  0
  2  5  1  0  0  0  0
  1  2  1  0  0  0  0
 22 23  2  0  0  0  0
 22 24  1  0  0  0  0
 19 20  1  0  0  0  0
 19 21  1  0  0  0  0
 17 18  2  0  0  0  0
 17 19  1  0  0  0  0
 14 15  1  0  0  0  0
 14 16  1  0  0  0  0
 14 17  1  0  0  0  0
 11 12  1  0  0  0  0
 11 13  1  0  0  0  0
 11 14  1  0  0  0  0
  9 10  1  0  0  0  0
  9 11  1  0  0  0  0
  9 22  1  0  0  0  0
  7  8  1  0  0  0  0
  7  9  1  0  0  0  0
 26 27  1  0  0  0  0
 26 28  1  0  0  0  0
 26 29  1  0  0  0  0
 24 25  1  0  0  0  0
 24 26  1  0  0  0  0
M  END
$$$$
default_name
  -OEChem-02102213163D

 29 28  0     1  0  0  0  0  0999 V2000
   -3.3998   -3.6239    1.3678 H   0  0  0  0  0  0  0  0  0  0  0  0
   -3.3608   -2.6749    0.8348 C   0  0  0  0  0  0  0  0  0  0  0  0
   -4.0988   -1.9909    1.2498 H   0  0  0  0  0  0  0  0  0  0  0  0
   -3.5618   -2.8419   -0.2222 H   0  0  0  0  0  0  0  0  0  0  0  0
   -1.9818   -2.0809    0.9918 C   0  0  0  0  0  0  0  0  0  0  0  0
   -1.1288   -2.6669    1.6468 O   0  0  0  0  0  0  0  0  0  0  0  0
   -1.7648   -0.9089    0.3998 N   0  0  0  0  0  0  0  0  0  0  0  0
   -2.5238   -0.4719   -0.1032 H   0  0  0  0  0  0  0  0  0  0  0  0
   -0.4848   -0.1959    0.4138 C   0  0  1  0  0  0  0  0  0  0  0  0
    0.1386   -0.6144    1.2058 H   0  0  0  0  0  0  0  0  0  0  0  0
    0.2271   -0.4272   -0.9334 C   0  0  0  0  0  0  0  0  0  0  0  0
   -0.5036   -0.8162   -1.6455 H   0  0  0  0  0  0  0  0  0  0  0  0
    0.5957    0.5280   -1.3104 H   0  0  0  0  0  0  0  0  0  0  0  0
    1.4021   -1.4175   -0.8546 C   0  0  0  0  0  0  0  0  0  0  0  0
    2.1563   -1.1519   -1.5950 H   0  0  0  0  0  0  0  0  0  0  0  0
    1.8506   -1.3560    0.1369 H   0  0  0  0  0  0  0  0  0  0  0  0
    0.9850   -2.8667   -1.1045 C   0  0  0  0  0  0  0  0  0  0  0  0
   -0.1700   -3.2112   -1.2720 O   0  0  0  0  0  0  0  0  0  0  0  0
    1.9218   -3.7889   -1.1488 N   0  0  0  0  0  0  0  0  0  0  0  0
    1.5917   -4.7234   -1.3168 H   0  0  0  0  0  0  0  0  0  0  0  0
    2.8866   -3.5599   -1.0204 H   0  0  0  0  0  0  0  0  0  0  0  0
   -0.7011    1.2952    0.7149 C   0  0  0  0  0  0  0  0  0  0  0  0
   -1.5917    1.9198    0.1415 O   0  0  0  0  0  0  0  0  0  0  0  0
    0.1191    1.8675    1.6055 N   0  0  0  0  0  0  0  0  0  0  0  0
    0.8092    1.2861    2.0537 H   0  0  0  0  0  0  0  0  0  0  0  0
    0.0509    3.2769    1.9894 C   0  0  0  0  0  0  0  0  0  0  0  0
   -0.9494    3.5076    2.3640 H   0  0  0  0  0  0  0  0  0  0  0  0
    0.7844    3.4956    2.7668 H   0  0  0  0  0  0  0  0  0  0  0  0
    0.2468    3.9058    1.1193 H   0  0  0  0  0  0  0  0  0  0  0  0
  5  6  2  0  0  0  0
  5  7  1  0  0  0  0
  2  3  1  0  0  0  0
  2  4  1  0  0  0  0
  2  5  1  0  0  0  0
  1  2  1  0  0  0  0
 22 23  2  0  0  0  0
 22 24  1  0  0  0  0
 19 20  1  0  0  0  0
 19 21  1  0  0  0  0
 17 18  2  0  0  0  0
 17 19  1  0  0  0  0
 14 15  1  0  0  0  0
 14 16  1  0  0  0  0
 14 17  1  0  0  0  0
 11 12  1  0  0  0  0
 11 13  1  0  0  0  0
 11 14  1  0  0  0  0
  9 10  1  0  0  0  0
  9 11  1  0  0  0  0
  9 22  1  0  0  0  0
  7  8  1  0  0  0  0
  7  9  1  0  0  0  0
 26 27  1  0  0  0  0
 26 28  1  0  0  0  0
 26 29  1  0  0  0  0
 24 25  1  0  0  0  0
 24 26  1  0  0  0  0
M  END
$$$$
default_name
  -OEChem-02102213163D

 29 28  0     1  0  0  0  0  0999 V2000
   -3.3998   -3.6239    1.3678 H   0  0  0  0  0  0  0  0  0  0  0  0
   -3.3608   -2.6749    0.8348 C   0  0  0  0  0  0  0  0  0  0  0  0
   -4.0988   -1.9909    1.2498 H   0  0  0  0  0  0  0  0  0  0  0  0
   -3.5618   -2.8419   -0.2222 H   0  0  0  0  0  0  0  0  0  0  0  0
   -1.9818   -2.0809    0.9918 C   0  0  0  0  0  0  0  0  0  0  0  0
   -1.1288   -2.6669    1.6468 O   0  0  0  0  0  0  0  0  0  0  0  0
   -1.7648   -0.9089    0.3998 N   0  0  0  0  0  0  0  0  0  0  0  0
   -2.5238   -0.4719   -0.1032 H   0  0  0  0  0  0  0  0  0  0  0  0
   -0.4848   -0.1959    0.4138 C   0  0  1  0  0  0  0  0  0  0  0  0
    0.1386   -0.6144    1.2058 H   0  0  0  0  0  0  0  0  0  0  0  0
    0.2271   -0.4272   -0.9334 C   0  0  0  0  0  0  0  0  0  0  0  0
   -0.5036   -0.8162   -1.6455 H   0  0  0  0  0  0  0  0  0  0  0  0
    0.5957    0.5280   -1.3104 H   0  0  0  0  0  0  0  0  0  0  0  0
    1.4021   -1.4175   -0.8546 C   0  0  0  0  0  0  0  0  0  0  0  0
    2.2600   -1.0126   -1.3910 H   0  0  0  0  0  0  0  0  0  0  0  0
    1.6785   -1.5559    0.1906 H   0  0  0  0  0  0  0  0  0  0  0  0
    1.0757   -2.7866   -1.4509 C   0  0  0  0  0  0  0  0  0  0  0  0
   -0.0248   -3.0869   -1.8743 O   0  0  0  0  0  0  0  0  0  0  0  0
    2.0342   -3.6849   -1.5176 N   0  0  0  0  0  0  0  0  0  0  0  0
    1.7646   -4.5662   -1.9189 H   0  0  0  0  0  0  0  0  0  0  0  0
    2.9572   -3.4894   -1.1865 H   0  0  0  0  0  0  0  0  0  0  0  0
   -0.7011    1.2952    0.7149 C   0  0  0  0  0  0  0  0  0  0  0  0
   -1.5917    1.9198    0.1415 O   0  0  0  0  0  0  0  0  0  0  0  0
    0.1191    1.8675    1.6055 N   0  0  0  0  0  0  0  0  0  0  0  0
    0.8092    1.2861    2.0537 H   0  0  0  0  0  0  0  0  0  0  0  0
    0.0509    3.2769    1.9894 C   0  0  0  0  0  0  0  0  0  0  0  0
   -0.9494    3.5076    2.3640 H   0  0  0  0  0  0  0  0  0  0  0  0
    0.7844    3.4956    2.7668 H   0  0  0  0  0  0  0  0  0  0  0  0
    0.2468    3.9058    1.1193 H   0  0  0  0  0  0  0  0  0  0  0  0
  5  6  2  0  0  0  0
  5  7  1  0  0  0  0
  2  3  1  0  0  0  0
  2  4  1  0  0  0  0
  2  5  1  0  0  0  0
  1  2  1  0  0  0  0
 22 23  2  0  0  0  0
 22 24  1  0  0  0  0
 19 20  1  0  0  0  0
 19 21  1  0  0  0  0
 17 18  2  0  0  0  0
 17 19  1  0  0  0  0
 14 15  1  0  0  0  0
 14 16  1  0  0  0  0
 14 17  1  0  0  0  0
 11 12  1  0  0  0  0
 11 13  1  0  0  0  0
 11 14  1  0  0  0  0
  9 10  1  0  0  0  0
  9 11  1  0  0  0  0
  9 22  1  0  0  0  0
  7  8  1  0  0  0  0
  7  9  1  0  0  0  0
 26 27  1  0  0  0  0
 26 28  1  0  0  0  0
 26 29  1  0  0  0  0
 24 25  1  0  0  0  0
 24 26  1  0  0  0  0
M  END
$$$$
default_name
  -OEChem-02102213163D

 29 28  0     1  0  0  0  0  0999 V2000
   -3.3998   -3.6239    1.3678 H   0  0  0  0  0  0  0  0  0  0  0  0
   -3.3608   -2.6749    0.8348 C   0  0  0  0  0  0  0  0  0  0  0  0
   -4.0988   -1.9909    1.2498 H   0  0  0  0  0  0  0  0  0  0  0  0
   -3.5618   -2.8419   -0.2222 H   0  0  0  0  0  0  0  0  0  0  0  0
   -1.9818   -2.0809    0.9918 C   0  0  0  0  0  0  0  0  0  0  0  0
   -1.1288   -2.6669    1.6468 O   0  0  0  0  0  0  0  0  0  0  0  0
   -1.7648   -0.9089    0.3998 N   0  0  0  0  0  0  0  0  0  0  0  0
   -2.5238   -0.4719   -0.1032 H   0  0  0  0  0  0  0  0  0  0  0  0
   -0.4848   -0.1959    0.4138 C   0  0  1  0  0  0  0  0  0  0  0  0
    0.1386   -0.6144    1.2058 H   0  0  0  0  0  0  0  0  0  0  0  0
    0.2271   -0.4272   -0.9334 C   0  0  0  0  0  0  0  0  0  0  0  0
   -0.5036   -0.8162   -1.6455 H   0  0  0  0  0  0  0  0  0  0  0  0
    0.5957    0.5280   -1.3104 H   0  0  0  0  0  0  0  0  0  0  0  0
    1.4021   -1.4175   -0.8546 C   0  0  0  0  0  0  0  0  0  0  0  0
    2.3243   -0.9171   -1.1491 H   0  0  0  0  0  0  0  0  0  0  0  0
    1.5061   -1.7618    0.1743 H   0  0  0  0  0  0  0  0  0  0  0  0
    1.2199   -2.6396   -1.7545 C   0  0  0  0  0  0  0  0  0  0  0  0
    0.2140   -2.8460   -2.4073 O   0  0  0  0  0  0  0  0  0  0  0  0
    2.2029   -3.5101   -1.8345 N   0  0  0  0  0  0  0  0  0  0  0  0
    2.0299   -4.2931   -2.4407 H   0  0  0  0  0  0  0  0  0  0  0  0
    3.0521   -3.3875   -1.3213 H   0  0  0  0  0  0  0  0  0  0  0  0
   -0.7011    1.2952    0.7149 C   0  0  0  0  0  0  0  0  0  0  0  0
   -1.5917    1.9198    0.1415 O   0  0  0  0  0  0  0  0  0  0  0  0
    0.1191    1.8675    1.6055 N   0  0  0  0  0  0  0  0  0  0  0  0
    0.8092    1.2861    2.0537 H   0  0  0  0  0  0  0  0  0  0  0  0
    0.0509    3.2769    1.9894 C   0  0  0  0  0  0  0  0  0  0  0  0
   -0.9494    3.5076    2.3640 H   0  0  0  0  0  0  0  0  0  0  0  0
    0.7844    3.4956    2.7668 H   0  0  0  0  0  0  0  0  0  0  0  0
    0.2468    3.9058    1.1193 H   0  0  0  0  0  0  0  0  0  0  0  0
  5  6  2  0  0  0  0
  5  7  1  0  0  0  0
  2  3  1  0  0  0  0
  2  4  1  0  0  0  0
  2  5  1  0  0  0  0
  1  2  1  0  0  0  0
 22 23  2  0  0  0  0
 22 24  1  0  0  0  0
 19 20  1  0  0  0  0
 19 21  1  0  0  0  0
 17 18  2  0  0  0  0
 17 19  1  0  0  0  0
 14 15  1  0  0  0  0
 14 16  1  0  0  0  0
 14 17  1  0  0  0  0
 11 12  1  0  0  0  0
 11 13  1  0  0  0  0
 11 14  1  0  0  0  0
  9 10  1  0  0  0  0
  9 11  1  0  0  0  0
  9 22  1  0  0  0  0
  7  8  1  0  0  0  0
  7  9  1  0  0  0  0
 26 27  1  0  0  0  0
 26 28  1  0  0  0  0
 26 29  1  0  0  0  0
 24 25  1  0  0  0  0
 24 26  1  0  0  0  0
M  END
$$$$
default_name
  -OEChem-02102213163D

 29 28  0     1  0  0  0  0  0999 V2000
   -3.3998   -3.6239    1.3678 H   0  0  0  0  0  0  0  0  0  0  0  0
   -3.3608   -2.6749    0.8348 C   0  0  0  0  0  0  0  0  0  0  0  0
   -4.0988   -1.9909    1.2498 H   0  0  0  0  0  0  0  0  0  0  0  0
   -3.5618   -2.8419   -0.2222 H   0  0  0  0  0  0  0  0  0  0  0  0
   -1.9818   -2.0809    0.9918 C   0  0  0  0  0  0  0  0  0  0  0  0
   -1.1288   -2.6669    1.6468 O   0  0  0  0  0  0  0  0  0  0  0  0
   -1.7648   -0.9089    0.3998 N   0  0  0  0  0  0  0  0  0  0  0  0
   -2.5238   -0.4719   -0.1032 H   0  0  0  0  0  0  0  0  0  0  0  0
   -0.4848   -0.1959    0.4138 C   0  0  1  0  0  0  0  0  0  0  0  0
    0.1386   -0.6144    1.2058 H   0  0  0  0  0  0  0  0  0  0  0  0
    0.2271   -0.4272   -0.9334 C   0  0  0  0  0  0  0  0  0  0  0  0
   -0.5036   -0.8162   -1.6455 H   0  0  0  0  0  0  0  0  0  0  0  0
    0.5957    0.5280   -1.3104 H   0  0  0  0  0  0  0  0  0  0  0  0
    1.4021   -1.4175   -0.8546 C   0  0  0  0  0  0  0  0  0  0  0  0
    2.3448   -0.8717   -0.8859 H   0  0  0  0  0  0  0  0  0  0  0  0
    1.3449   -1.9598    0.0891 H   0  0  0  0  0  0  0  0  0  0  0  0
    1.4079   -2.4357   -1.9946 C   0  0  0  0  0  0  0  0  0  0  0  0
    0.5304   -2.5047   -2.8347 O   0  0  0  0  0  0  0  0  0  0  0  0
    2.4162   -3.2763   -2.0780 N   0  0  0  0  0  0  0  0  0  0  0  0
    2.3693   -3.9226   -2.8465 H   0  0  0  0  0  0  0  0  0  0  0  0
    3.1649   -3.2612   -1.4155 H   0  0  0  0  0  0  0  0  0  0  0  0
   -0.7011    1.2952    0.7149 C   0  0  0  0  0  0  0  0  0  0  0  0
   -1.5917    1.9198    0.1415 O   0  0  0  0  0  0  0  0  0  0  0  0
    0.1191    1.8675    1.6055 N   0  0  0  0  0  0  0  0  0  0  0  0
    0.8092    1.2861    2.0537 H   0  0  0  0  0  0  0  0  0  0  0  0
    0.0509    3.2769    1.9894 C   0  0  0  0  0  0  0  0  0  0  0  0
   -0.9494    3.5076    2.3640 H   0  0  0  0  0  0  0  0  0  0  0  0
    0.7844    3.4956    2.7668 H   0  0  0  0  0  0  0  0  0  0  0  0
    0.2468    3.9058    1.1193 H   0  0  0  0  0  0  0  0  0  0  0  0
  5  6  2  0  0  0  0
  5  7  1  0  0  0  0
  2  3  1  0  0  0  0
  2  4  1  0  0  0  0
  2  5  1  0  0  0  0
  1  2  1  0  0  0  0
 22 23  2  0  0  0  0
 22 24  1  0  0  0  0
 19 20  1  0  0  0  0
 19 21  1  0  0  0  0
 17 18  2  0  0  0  0
 17 19  1  0  0  0  0
 14 15  1  0  0  0  0
 14 16  1  0  0  0  0
 14 17  1  0  0  0  0
 11 12  1  0  0  0  0
 11 13  1  0  0  0  0
 11 14  1  0  0  0  0
  9 10  1  0  0  0  0
  9 11  1  0  0  0  0
  9 22  1  0  0  0  0
  7  8  1  0  0  0  0
  7  9  1  0  0  0  0
 26 27  1  0  0  0  0
 26 28  1  0  0  0  0
 26 29  1  0  0  0  0
 24 25  1  0  0  0  0
 24 26  1  0  0  0  0
M  END
$$$$
default_name
  -OEChem-02102213163D

 29 28  0     1  0  0  0  0  0999 V2000
   -3.3998   -3.6239    1.3678 H   0  0  0  0  0  0  0  0  0  0  0  0
   -3.3608   -2.6749    0.8348 C   0  0  0  0  0  0  0  0  0  0  0  0
   -4.0988   -1.9909    1.2498 H   0  0  0  0  0  0  0  0  0  0  0  0
   -3.5618   -2.8419   -0.2222 H   0  0  0  0  0  0  0  0  0  0  0  0
   -1.9818   -2.0809    0.9918 C   0  0  0  0  0  0  0  0  0  0  0  0
   -1.1288   -2.6669    1.6468 O   0  0  0  0  0  0  0  0  0  0  0  0
   -1.7648   -0.9089    0.3998 N   0  0  0  0  0  0  0  0  0  0  0  0
   -2.5238   -0.4719   -0.1032 H   0  0  0  0  0  0  0  0  0  0  0  0
   -0.4848   -0.1959    0.4138 C   0  0  1  0  0  0  0  0  0  0  0  0
    0.1386   -0.6144    1.2058 H   0  0  0  0  0  0  0  0  0  0  0  0
    0.2271   -0.4272   -0.9334 C   0  0  0  0  0  0  0  0  0  0  0  0
   -0.5036   -0.8162   -1.6455 H   0  0  0  0  0  0  0  0  0  0  0  0
    0.5957    0.5280   -1.3104 H   0  0  0  0  0  0  0  0  0  0  0  0
    1.4021   -1.4175   -0.8546 C   0  0  0  0  0  0  0  0  0  0  0  0
    2.3203   -0.8797   -0.6193 H   0  0  0  0  0  0  0  0  0  0  0  0
    1.2060   -2.1364   -0.0591 H   0  0  0  0  0  0  0  0  0  0  0  0
    1.6268   -2.1888   -2.1550 C   0  0  0  0  0  0  0  0  0  0  0  0
    0.9026   -2.0863   -3.1275 O   0  0  0  0  0  0  0  0  0  0  0  0
    2.6597   -2.9996   -2.2314 N   0  0  0  0  0  0  0  0  0  0  0  0
    2.7599   -3.4801   -3.1087 H   0  0  0  0  0  0  0  0  0  0  0  0
    3.2879   -3.1190   -1.4627 H   0  0  0  0  0  0  0  0  0  0  0  0
   -0.7011    1.2952    0.7149 C   0  0  0  0  0  0  0  0  0  0  0  0
   -1.5917    1.9198    0.1415 O   0  0  0  0  0  0  0  0  0  0  0  0
    0.1191    1.8675    1.6055 N   0  0  0  0  0  0  0  0  0  0  0  0
    0.8092    1.2861    2.0537 H   0  0  0  0  0  0  0  0  0  0  0  0
    0.0509    3.2769    1.9894 C   0  0  0  0  0  0  0  0  0  0  0  0
   -0.9494    3.5076    2.3640 H   0  0  0  0  0  0  0  0  0  0  0  0
    0.7844    3.4956    2.7668 H   0  0  0  0  0  0  0  0  0  0  0  0
    0.2468    3.9058    1.1193 H   0  0  0  0  0  0  0  0  0  0  0  0
  5  6  2  0  0  0  0
  5  7  1  0  0  0  0
  2  3  1  0  0  0  0
  2  4  1  0  0  0  0
  2  5  1  0  0  0  0
  1  2  1  0  0  0  0
 22 23  2  0  0  0  0
 22 24  1  0  0  0  0
 19 20  1  0  0  0  0
 19 21  1  0  0  0  0
 17 18  2  0  0  0  0
 17 19  1  0  0  0  0
 14 15  1  0  0  0  0
 14 16  1  0  0  0  0
 14 17  1  0  0  0  0
 11 12  1  0  0  0  0
 11 13  1  0  0  0  0
 11 14  1  0  0  0  0
  9 10  1  0  0  0  0
  9 11  1  0  0  0  0
  9 22  1  0  0  0  0
  7  8  1  0  0  0  0
  7  9  1  0  0  0  0
 26 27  1  0  0  0  0
 26 28  1  0  0  0  0
 26 29  1  0  0  0  0
 24 25  1  0  0  0  0
 24 26  1  0  0  0  0
M  END
$$$$
default_name
  -OEChem-02102213163D

 29 28  0     1  0  0  0  0  0999 V2000
   -3.3998   -3.6239    1.3678 H   0  0  0  0  0  0  0  0  0  0  0  0
   -3.3608   -2.6749    0.8348 C   0  0  0  0  0  0  0  0  0  0  0  0
   -4.0988   -1.9909    1.2498 H   0  0  0  0  0  0  0  0  0  0  0  0
   -3.5618   -2.8419   -0.2222 H   0  0  0  0  0  0  0  0  0  0  0  0
   -1.9818   -2.0809    0.9918 C   0  0  0  0  0  0  0  0  0  0  0  0
   -1.1288   -2.6669    1.6468 O   0  0  0  0  0  0  0  0  0  0  0  0
   -1.7648   -0.9089    0.3998 N   0  0  0  0  0  0  0  0  0  0  0  0
   -2.5238   -0.4719   -0.1032 H   0  0  0  0  0  0  0  0  0  0  0  0
   -0.4848   -0.1959    0.4138 C   0  0  1  0  0  0  0  0  0  0  0  0
    0.1386   -0.6144    1.2058 H   0  0  0  0  0  0  0  0  0  0  0  0
    0.2271   -0.4272   -0.9334 C   0  0  0  0  0  0  0  0  0  0  0  0
   -0.5036   -0.8162   -1.6455 H   0  0  0  0  0  0  0  0  0  0  0  0
    0.5957    0.5280   -1.3104 H   0  0  0  0  0  0  0  0  0  0  0  0
    1.4021   -1.4175   -0.8546 C   0  0  0  0  0  0  0  0  0  0  0  0
    2.2522   -0.9404   -0.3674 H   0  0  0  0  0  0  0  0  0  0  0  0
    1.0989   -2.2794   -0.2603 H   0  0  0  0  0  0  0  0  0  0  0  0
    1.8616   -1.9157   -2.2247 C   0  0  0  0  0  0  0  0  0  0  0  0
    1.3053   -1.6195   -3.2655 O   0  0  0  0  0  0  0  0  0  0  0  0
    2.9169   -2.6987   -2.2844 N   0  0  0  0  0  0  0  0  0  0  0  0
    3.1750   -2.9956   -3.2094 H   0  0  0  0  0  0  0  0  0  0  0  0
    3.4127   -2.9707   -1.4598 H   0  0  0  0  0  0  0  0  0  0  0  0
   -0.7011    1.2952    0.7149 C   0  0  0  0  0  0  0  0  0  0  0  0
   -1.5917    1.9198    0.1415 O   0  0  0  0  0  0  0  0  0  0  0  0
    0.1191    1.8675    1.6055 N   0  0  0  0  0  0  0  0  0  0  0  0
    0.8092    1.2861    2.0537 H   0  0  0  0  0  0  0  0  0  0  0  0
    0.0509    3.2769    1.9894 C   0  0  0  0  0  0  0  0  0  0  0  0
   -0.9494    3.5076    2.3640 H   0  0  0  0  0  0  0  0  0  0  0  0
    0.7844    3.4956    2.7668 H   0  0  0  0  0  0  0  0  0  0  0  0
    0.2468    3.9058    1.1193 H   0  0  0  0  0  0  0  0  0  0  0  0
  5  6  2  0  0  0  0
  5  7  1  0  0  0  0
  2  3  1  0  0  0  0
  2  4  1  0  0  0  0
  2  5  1  0  0  0  0
  1  2  1  0  0  0  0
 22 23  2  0  0  0  0
 22 24  1  0  0  0  0
 19 20  1  0  0  0  0
 19 21  1  0  0  0  0
 17 18  2  0  0  0  0
 17 19  1  0  0  0  0
 14 15  1  0  0  0  0
 14 16  1  0  0  0  0
 14 17  1  0  0  0  0
 11 12  1  0  0  0  0
 11 13  1  0  0  0  0
 11 14  1  0  0  0  0
  9 10  1  0  0  0  0
  9 11  1  0  0  0  0
  9 22  1  0  0  0  0
  7  8  1  0  0  0  0
  7  9  1  0  0  0  0
 26 27  1  0  0  0  0
 26 28  1  0  0  0  0
 26 29  1  0  0  0  0
 24 25  1  0  0  0  0
 24 26  1  0  0  0  0
M  END
$$$$
default_name
  -OEChem-02102213163D

 29 28  0     1  0  0  0  0  0999 V2000
   -3.3998   -3.6239    1.3678 H   0  0  0  0  0  0  0  0  0  0  0  0
   -3.3608   -2.6749    0.8348 C   0  0  0  0  0  0  0  0  0  0  0  0
   -4.0988   -1.9909    1.2498 H   0  0  0  0  0  0  0  0  0  0  0  0
   -3.5618   -2.8419   -0.2222 H   0  0  0  0  0  0  0  0  0  0  0  0
   -1.9818   -2.0809    0.9918 C   0  0  0  0  0  0  0  0  0  0  0  0
   -1.1288   -2.6669    1.6468 O   0  0  0  0  0  0  0  0  0  0  0  0
   -1.7648   -0.9089    0.3998 N   0  0  0  0  0  0  0  0  0  0  0  0
   -2.5238   -0.4719   -0.1032 H   0  0  0  0  0  0  0  0  0  0  0  0
   -0.4848   -0.1959    0.4138 C   0  0  1  0  0  0  0  0  0  0  0  0
    0.1386   -0.6144    1.2058 H   0  0  0  0  0  0  0  0  0  0  0  0
    0.2271   -0.4272   -0.9334 C   0  0  0  0  0  0  0  0  0  0  0  0
   -0.5337   -0.5542   -1.7064 H   0  0  0  0  0  0  0  0  0  0  0  0
    0.8195    0.4553   -1.1796 H   0  0  0  0  0  0  0  0  0  0  0  0
    1.1447   -1.6622   -0.9486 C   0  0  0  0  0  0  0  0  0  0  0  0
    1.9132   -1.5579   -0.1829 H   0  0  0  0  0  0  0  0  0  0  0  0
    0.5496   -2.5478   -0.7262 H   0  0  0  0  0  0  0  0  0  0  0  0
    1.8425   -1.8765   -2.2916 C   0  0  0  0  0  0  0  0  0  0  0  0
    1.6340   -1.1862   -3.2717 O   0  0  0  0  0  0  0  0  0  0  0  0
    2.7192   -2.8519   -2.3929 N   0  0  0  0  0  0  0  0  0  0  0  0
    3.1478   -2.9469   -3.2972 H   0  0  0  0  0  0  0  0  0  0  0  0
    2.9299   -3.4473   -1.6178 H   0  0  0  0  0  0  0  0  0  0  0  0
   -0.7011    1.2952    0.7149 C   0  0  0  0  0  0  0  0  0  0  0  0
   -1.5917    1.9198    0.1415 O   0  0  0  0  0  0  0  0  0  0  0  0
    0.1191    1.8675    1.6055 N   0  0  0  0  0  0  0  0  0  0  0  0
    0.8092    1.2861    2.0537 H   0  0  0  0  0  0  0  0  0  0  0  0
    0.0509    3.2769    1.9894 C   0  0  0  0  0  0  0  0  0  0  0  0
   -0.9494    3.5076    2.3640 H   0  0  0  0  0  0  0  0  0  0  0  0
    0.7844    3.4956    2.7668 H   0  0  0  0  0  0  0  0  0  0  0  0
    0.2468    3.9058    1.1193 H   0  0  0  0  0  0  0  0  0  0  0  0
  5  6  2  0  0  0  0
  5  7  1  0  0  0  0
  2  3  1  0  0  0  0
  2  4  1  0  0  0  0
  2  5  1  0  0  0  0
  1  2  1  0  0  0  0
 22 23  2  0  0  0  0
 22 24  1  0  0  0  0
 19 20  1  0  0  0  0
 19 21  1  0  0  0  0
 17 18  2  0  0  0  0
 17 19  1  0  0  0  0
 14 15  1  0  0  0  0
 14 16  1  0  0  0  0
 14 17  1  0  0  0  0
 11 12  1  0  0  0  0
 11 13  1  0  0  0  0
 11 14  1  0  0  0  0
  9 10  1  0  0  0  0
  9 11  1  0  0  0  0
  9 22  1  0  0  0  0
  7  8  1  0  0  0  0
  7  9  1  0  0  0  0
 26 27  1  0  0  0  0
 26 28  1  0  0  0  0
 26 29  1  0  0  0  0
 24 25  1  0  0  0  0
 24 26  1  0  0  0  0
M  END
$$$$
default_name
  -OEChem-02102213163D

 29 28  0     1  0  0  0  0  0999 V2000
   -3.3998   -3.6239    1.3678 H   0  0  0  0  0  0  0  0  0  0  0  0
   -3.3608   -2.6749    0.8348 C   0  0  0  0  0  0  0  0  0  0  0  0
   -4.0988   -1.9909    1.2498 H   0  0  0  0  0  0  0  0  0  0  0  0
   -3.5618   -2.8419   -0.2222 H   0  0  0  0  0  0  0  0  0  0  0  0
   -1.9818   -2.0809    0.9918 C   0  0  0  0  0  0  0  0  0  0  0  0
   -1.1288   -2.6669    1.6468 O   0  0  0  0  0  0  0  0  0  0  0  0
   -1.7648   -0.9089    0.3998 N   0  0  0  0  0  0  0  0  0  0  0  0
   -2.5238   -0.4719   -0.1032 H   0  0  0  0  0  0  0  0  0  0  0  0
   -0.4848   -0.1959    0.4138 C   0  0  1  0  0  0  0  0  0  0  0  0
    0.1386   -0.6144    1.2058 H   0  0  0  0  0  0  0  0  0  0  0  0
    0.2271   -0.4272   -0.9334 C   0  0  0  0  0  0  0  0  0  0  0  0
   -0.5337   -0.5542   -1.7064 H   0  0  0  0  0  0  0  0  0  0  0  0
    0.8195    0.4553   -1.1796 H   0  0  0  0  0  0  0  0  0  0  0  0
    1.1447   -1.6622   -0.9486 C   0  0  0  0  0  0  0  0  0  0  0  0
    1.7357   -1.6916   -0.0334 H   0  0  0  0  0  0  0  0  0  0  0  0
    0.5286   -2.5601   -0.9943 H   0  0  0  0  0  0  0  0  0  0  0  0
    2.1094   -1.6801   -2.1342 C   0  0  0  0  0  0  0  0  0  0  0  0
    2.0998   -0.8432   -3.0174 O   0  0  0  0  0  0  0  0  0  0  0  0
    3.0013   -2.6446   -2.2009 N   0  0  0  0  0  0  0  0  0  0  0  0
    3.6099   -2.6072   -3.0001 H   0  0  0  0  0  0  0  0  0  0  0  0
    3.0545   -3.3562   -1.5005 H   0  0  0  0  0  0  0  0  0  0  0  0
   -0.7011    1.2952    0.7149 C   0  0  0  0  0  0  0  0  0  0  0  0
   -1.5917    1.9198    0.1415 O   0  0  0  0  0  0  0  0  0  0  0  0
    0.1191    1.8675    1.6055 N   0  0  0  0  0  0  0  0  0  0  0  0
    0.8092    1.2861    2.0537 H   0  0  0  0  0  0  0  0  0  0  0  0
    0.0509    3.2769    1.9894 C   0  0  0  0  0  0  0  0  0  0  0  0
   -0.9494    3.5076    2.3640 H   0  0  0  0  0  0  0  0  0  0  0  0
    0.7844    3.4956    2.7668 H   0  0  0  0  0  0  0  0  0  0  0  0
    0.2468    3.9058    1.1193 H   0  0  0  0  0  0  0  0  0  0  0  0
  5  6  2  0  0  0  0
  5  7  1  0  0  0  0
  2  3  1  0  0  0  0
  2  4  1  0  0  0  0
  2  5  1  0  0  0  0
  1  2  1  0  0  0  0
 22 23  2  0  0  0  0
 22 24  1  0  0  0  0
 19 20  1  0  0  0  0
 19 21  1  0  0  0  0
 17 18  2  0  0  0  0
 17 19  1  0  0  0  0
 14 15  1  0  0  0  0
 14 16  1  0  0  0  0
 14 17  1  0  0  0  0
 11 12  1  0  0  0  0
 11 13  1  0  0  0  0
 11 14  1  0  0  0  0
  9 10  1  0  0  0  0
  9 11  1  0  0  0  0
  9 22  1  0  0  0  0
  7  8  1  0  0  0  0
  7  9  1  0  0  0  0
 26 27  1  0  0  0  0
 26 28  1  0  0  0  0
 26 29  1  0  0  0  0
 24 25  1  0  0  0  0
 24 26  1  0  0  0  0
M  END
$$$$
default_name
  -OEChem-02102213163D

 29 28  0     1  0  0  0  0  0999 V2000
   -3.3998   -3.6239    1.3678 H   0  0  0  0  0  0  0  0  0  0  0  0
   -3.3608   -2.6749    0.8348 C   0  0  0  0  0  0  0  0  0  0  0  0
   -4.0988   -1.9909    1.2498 H   0  0  0  0  0  0  0  0  0  0  0  0
   -3.5618   -2.8419   -0.2222 H   0  0  0  0  0  0  0  0  0  0  0  0
   -1.9818   -2.0809    0.9918 C   0  0  0  0  0  0  0  0  0  0  0  0
   -1.1288   -2.6669    1.6468 O   0  0  0  0  0  0  0  0  0  0  0  0
   -1.7648   -0.9089    0.3998 N   0  0  0  0  0  0  0  0  0  0  0  0
   -2.5238   -0.4719   -0.1032 H   0  0  0  0  0  0  0  0  0  0  0  0
   -0.4848   -0.1959    0.4138 C   0  0  1  0  0  0  0  0  0  0  0  0
    0.1386   -0.6144    1.2058 H   0  0  0  0  0  0  0  0  0  0  0  0
    0.2271   -0.4272   -0.9334 C   0  0  0  0  0  0  0  0  0  0  0  0
   -0.5337   -0.5542   -1.7064 H   0  0  0  0  0  0  0  0  0  0  0  0
    0.8195    0.4553   -1.1796 H   0  0  0  0  0  0  0  0  0  0  0  0
    1.1447   -1.6622   -0.9486 C   0  0  0  0  0  0  0  0  0  0  0  0
    1.5328   -1.8434    0.0535 H   0  0  0  0  0  0  0  0  0  0  0  0
    0.5640   -2.5306   -1.2594 H   0  0  0  0  0  0  0  0  0  0  0  0
    2.3350   -1.5154   -1.8964 C   0  0  0  0  0  0  0  0  0  0  0  0
    2.4978   -0.5524   -2.6221 O   0  0  0  0  0  0  0  0  0  0  0  0
    3.2345   -2.4748   -1.9248 N   0  0  0  0  0  0  0  0  0  0  0  0
    3.9954   -2.3261   -2.5647 H   0  0  0  0  0  0  0  0  0  0  0  0
    3.1506   -3.2866   -1.3473 H   0  0  0  0  0  0  0  0  0  0  0  0
   -0.7011    1.2952    0.7149 C   0  0  0  0  0  0  0  0  0  0  0  0
   -1.5917    1.9198    0.1415 O   0  0  0  0  0  0  0  0  0  0  0  0
    0.1191    1.8675    1.6055 N   0  0  0  0  0  0  0  0  0  0  0  0
    0.8092    1.2861    2.0537 H   0  0  0  0  0  0  0  0  0  0  0  0
    0.0509    3.2769    1.9894 C   0  0  0  0  0  0  0  0  0  0  0  0
   -0.9494    3.5076    2.3640 H   0  0  0  0  0  0  0  0  0  0  0  0
    0.7844    3.4956    2.7668 H   0  0  0  0  0  0  0  0  0  0  0  0
    0.2468    3.9058    1.1193 H   0  0  0  0  0  0  0  0  0  0  0  0
  5  6  2  0  0  0  0
  5  7  1  0  0  0  0
  2  3  1  0  0  0  0
  2  4  1  0  0  0  0
  2  5  1  0  0  0  0
  1  2  1  0  0  0  0
 22 23  2  0  0  0  0
 22 24  1  0  0  0  0
 19 20  1  0  0  0  0
 19 21  1  0  0  0  0
 17 18  2  0  0  0  0
 17 19  1  0  0  0  0
 14 15  1  0  0  0  0
 14 16  1  0  0  0  0
 14 17  1  0  0  0  0
 11 12  1  0  0  0  0
 11 13  1  0  0  0  0
 11 14  1  0  0  0  0
  9 10  1  0  0  0  0
  9 11  1  0  0  0  0
  9 22  1  0  0  0  0
  7  8  1  0  0  0  0
  7  9  1  0  0  0  0
 26 27  1  0  0  0  0
 26 28  1  0  0  0  0
 26 29  1  0  0  0  0
 24 25  1  0  0  0  0
 24 26  1  0  0  0  0
M  END
$$$$
default_name
  -OEChem-02102213163D

 29 28  0     1  0  0  0  0  0999 V2000
   -3.3998   -3.6239    1.3678 H   0  0  0  0  0  0  0  0  0  0  0  0
   -3.3608   -2.6749    0.8348 C   0  0  0  0  0  0  0  0  0  0  0  0
   -4.0988   -1.9909    1.2498 H   0  0  0  0  0  0  0  0  0  0  0  0
   -3.5618   -2.8419   -0.2222 H   0  0  0  0  0  0  0  0  0  0  0  0
   -1.9818   -2.0809    0.9918 C   0  0  0  0  0  0  0  0  0  0  0  0
   -1.1288   -2.6669    1.6468 O   0  0  0  0  0  0  0  0  0  0  0  0
   -1.7648   -0.9089    0.3998 N   0  0  0  0  0  0  0  0  0  0  0  0
   -2.5238   -0.4719   -0.1032 H   0  0  0  0  0  0  0  0  0  0  0  0
   -0.4848   -0.1959    0.4138 C   0  0  1  0  0  0  0  0  0  0  0  0
    0.1386   -0.6144    1.2058 H   0  0  0  0  0  0  0  0  0  0  0  0
    0.2271   -0.4272   -0.9334 C   0  0  0  0  0  0  0  0  0  0  0  0
   -0.5337   -0.5542   -1.7064 H   0  0  0  0  0  0  0  0  0  0  0  0
    0.8195    0.4553   -1.1796 H   0  0  0  0  0  0  0  0  0  0  0  0
    1.1447   -1.6622   -0.9486 C   0  0  0  0  0  0  0  0  0  0  0  0
    1.3184   -2.0030    0.0719 H   0  0  0  0  0  0  0  0  0  0  0  0
    0.6533   -2.4612   -1.5036 H   0  0  0  0  0  0  0  0  0  0  0  0
    2.5039   -1.3936   -1.5944 C   0  0  0  0  0  0  0  0  0  0  0  0
    2.8008   -0.3335   -2.1126 O   0  0  0  0  0  0  0  0  0  0  0  0
    3.4028   -2.3539   -1.5835 N   0  0  0  0  0  0  0  0  0  0  0  0
    4.2780   -2.1228   -2.0206 H   0  0  0  0  0  0  0  0  0  0  0  0
    3.2118   -3.2433   -1.1686 H   0  0  0  0  0  0  0  0  0  0  0  0
   -0.7011    1.2952    0.7149 C   0  0  0  0  0  0  0  0  0  0  0  0
   -1.5917    1.9198    0.1415 O   0  0  0  0  0  0  0  0  0  0  0  0
    0.1191    1.8675    1.6055 N   0  0  0  0  0  0  0  0  0  0  0  0
    0.8092    1.2861    2.0537 H   0  0  0  0  0  0  0  0  0  0  0  0
    0.0509    3.2769    1.9894 C   0  0  0  0  0  0  0  0  0  0  0  0
   -0.9494    3.5076    2.3640 H   0  0  0  0  0  0  0  0  0  0  0  0
    0.7844    3.4956    2.7668 H   0  0  0  0  0  0  0  0  0  0  0  0
    0.2468    3.9058    1.1193 H   0  0  0  0  0  0  0  0  0  0  0  0
  5  6  2  0  0  0  0
  5  7  1  0  0  0  0
  2  3  1  0  0  0  0
  2  4  1  0  0  0  0
  2  5  1  0  0  0  0
  1  2  1  0  0  0  0
 22 23  2  0  0  0  0
 22 24  1  0  0  0  0
 19 20  1  0  0  0  0
 19 21  1  0  0  0  0
 17 18  2  0  0  0  0
 17 19  1  0  0  0  0
 14 15  1  0  0  0  0
 14 16  1  0  0  0  0
 14 17  1  0  0  0  0
 11 12  1  0  0  0  0
 11 13  1  0  0  0  0
 11 14  1  0  0  0  0
  9 10  1  0  0  0  0
  9 11  1  0  0  0  0
  9 22  1  0  0  0  0
  7  8  1  0  0  0  0
  7  9  1  0  0  0  0
 26 27  1  0  0  0  0
 26 28  1  0  0  0  0
 26 29  1  0  0  0  0
 24 25  1  0  0  0  0
 24 26  1  0  0  0  0
M  END
$$$$
default_name
  -OEChem-02102213163D

 29 28  0     1  0  0  0  0  0999 V2000
   -3.3998   -3.6239    1.3678 H   0  0  0  0  0  0  0  0  0  0  0  0
   -3.3608   -2.6749    0.8348 C   0  0  0  0  0  0  0  0  0  0  0  0
   -4.0988   -1.9909    1.2498 H   0  0  0  0  0  0  0  0  0  0  0  0
   -3.5618   -2.8419   -0.2222 H   0  0  0  0  0  0  0  0  0  0  0  0
   -1.9818   -2.0809    0.9918 C   0  0  0  0  0  0  0  0  0  0  0  0
   -1.1288   -2.6669    1.6468 O   0  0  0  0  0  0  0  0  0  0  0  0
   -1.7648   -0.9089    0.3998 N   0  0  0  0  0  0  0  0  0  0  0  0
   -2.5238   -0.4719   -0.1032 H   0  0  0  0  0  0  0  0  0  0  0  0
   -0.4848   -0.1959    0.4138 C   0  0  1  0  0  0  0  0  0  0  0  0
    0.1386   -0.6144    1.2058 H   0  0  0  0  0  0  0  0  0  0  0  0
    0.2271   -0.4272   -0.9334 C   0  0  0  0  0  0  0  0  0  0  0  0
   -0.5337   -0.5542   -1.7064 H   0  0  0  0  0  0  0  0  0  0  0  0
    0.8195    0.4553   -1.1796 H   0  0  0  0  0  0  0  0  0  0  0  0
    1.1447   -1.6622   -0.9486 C   0  0  0  0  0  0  0  0  0  0  0  0
    1.1071   -2.1593    0.0205 H   0  0  0  0  0  0  0  0  0  0  0  0
    0.7905   -2.3567   -1.7103 H   0  0  0  0  0  0  0  0  0  0  0  0
    2.6047   -1.3230   -1.2488 C   0  0  0  0  0  0  0  0  0  0  0  0
    2.9882   -0.2015   -1.5238 O   0  0  0  0  0  0  0  0  0  0  0  0
    3.4947   -2.2903   -1.2002 N   0  0  0  0  0  0  0  0  0  0  0  0
    4.4385   -2.0112   -1.4051 H   0  0  0  0  0  0  0  0  0  0  0  0
    3.2340   -3.2293   -0.9765 H   0  0  0  0  0  0  0  0  0  0  0  0
   -0.7011    1.2952    0.7149 C   0  0  0  0  0  0  0  0  0  0  0  0
   -1.5917    1.9198    0.1415 O   0  0  0  0  0  0  0  0  0  0  0  0
    0.1191    1.8675    1.6055 N   0  0  0  0  0  0  0  0  0  0  0  0
    0.8092    1.2861    2.0537 H   0  0  0  0  0  0  0  0  0  0  0  0
    0.0509    3.2769    1.9894 C   0  0  0  0  0  0  0  0  0  0  0  0
   -0.9494    3.5076    2.3640 H   0  0  0  0  0  0  0  0  0  0  0  0
    0.7844    3.4956    2.7668 H   0  0  0  0  0  0  0  0  0  0  0  0
    0.2468    3.9058    1.1193 H   0  0  0  0  0  0  0  0  0  0  0  0
  5  6  2  0  0  0  0
  5  7  1  0  0  0  0
  2  3  1  0  0  0  0
  2  4  1  0  0  0  0
  2  5  1  0  0  0  0
  1  2  1  0  0  0  0
 22 23  2  0  0  0  0
 22 24  1  0  0  0  0
 19 20  1  0  0  0  0
 19 21  1  0  0  0  0
 17 18  2  0  0  0  0
 17 19  1  0  0  0  0
 14 15  1  0  0  0  0
 14 16  1  0  0  0  0
 14 17  1  0  0  0  0
 11 12  1  0  0  0  0
 11 13  1  0  0  0  0
 11 14  1  0  0  0  0
  9 10  1  0  0  0  0
  9 11  1  0  0  0  0
  9 22  1  0  0  0  0
  7  8  1  0  0  0  0
  7  9  1  0  0  0  0
 26 27  1  0  0  0  0
 26 28  1  0  0  0  0
 26 29  1  0  0  0  0
 24 25  1  0  0  0  0
 24 26  1  0  0  0  0
M  END
$$$$
default_name
  -OEChem-02102213163D

 29 28  0     1  0  0  0  0  0999 V2000
   -3.3998   -3.6239    1.3678 H   0  0  0  0  0  0  0  0  0  0  0  0
   -3.3608   -2.6749    0.8348 C   0  0  0  0  0  0  0  0  0  0  0  0
   -4.0988   -1.9909    1.2498 H   0  0  0  0  0  0  0  0  0  0  0  0
   -3.5618   -2.8419   -0.2222 H   0  0  0  0  0  0  0  0  0  0  0  0
   -1.9818   -2.0809    0.9918 C   0  0  0  0  0  0  0  0  0  0  0  0
   -1.1288   -2.6669    1.6468 O   0  0  0  0  0  0  0  0  0  0  0  0
   -1.7648   -0.9089    0.3998 N   0  0  0  0  0  0  0  0  0  0  0  0
   -2.5238   -0.4719   -0.1032 H   0  0  0  0  0  0  0  0  0  0  0  0
   -0.4848   -0.1959    0.4138 C   0  0  1  0  0  0  0  0  0  0  0  0
    0.1386   -0.6144    1.2058 H   0  0  0  0  0  0  0  0  0  0  0  0
    0.2271   -0.4272   -0.9334 C   0  0  0  0  0  0  0  0  0  0  0  0
   -0.5337   -0.5542   -1.7064 H   0  0  0  0  0  0  0  0  0  0  0  0
    0.8195    0.4553   -1.1796 H   0  0  0  0  0  0  0  0  0  0  0  0
    1.1447   -1.6622   -0.9486 C   0  0  0  0  0  0  0  0  0  0  0  0
    0.9132   -2.3019   -0.0972 H   0  0  0  0  0  0  0  0  0  0  0  0
    0.9663   -2.2242   -1.8652 H   0  0  0  0  0  0  0  0  0  0  0  0
    2.6304   -1.3084   -0.8831 C   0  0  0  0  0  0  0  0  0  0  0  0
    3.0472   -0.1653   -0.8958 O   0  0  0  0  0  0  0  0  0  0  0  0
    3.5041   -2.2882   -0.8010 N   0  0  0  0  0  0  0  0  0  0  0  0
    4.4659   -1.9987   -0.7599 H   0  0  0  0  0  0  0  0  0  0  0  0
    3.2155   -3.2454   -0.7843 H   0  0  0  0  0  0  0  0  0  0  0  0
   -0.7011    1.2952    0.7149 C   0  0  0  0  0  0  0  0  0  0  0  0
   -1.5917    1.9198    0.1415 O   0  0  0  0  0  0  0  0  0  0  0  0
    0.1191    1.8675    1.6055 N   0  0  0  0  0  0  0  0  0  0  0  0
    0.8092    1.2861    2.0537 H   0  0  0  0  0  0  0  0  0  0  0  0
    0.0509    3.2769    1.9894 C   0  0  0  0  0  0  0  0  0  0  0  0
   -0.9494    3.5076    2.3640 H   0  0  0  0  0  0  0  0  0  0  0  0
    0.7844    3.4956    2.7668 H   0  0  0  0  0  0  0  0  0  0  0  0
    0.2468    3.9058    1.1193 H   0  0  0  0  0  0  0  0  0  0  0  0
  5  6  2  0  0  0  0
  5  7  1  0  0  0  0
  2  3  1  0  0  0  0
  2  4  1  0  0  0  0
  2  5  1  0  0  0  0
  1  2  1  0  0  0  0
 22 23  2  0  0  0  0
 22 24  1  0  0  0  0
 19 20  1  0  0  0  0
 19 21  1  0  0  0  0
 17 18  2  0  0  0  0
 17 19  1  0  0  0  0
 14 15  1  0  0  0  0
 14 16  1  0  0  0  0
 14 17  1  0  0  0  0
 11 12  1  0  0  0  0
 11 13  1  0  0  0  0
 11 14  1  0  0  0  0
  9 10  1  0  0  0  0
  9 11  1  0  0  0  0
  9 22  1  0  0  0  0
  7  8  1  0  0  0  0
  7  9  1  0  0  0  0
 26 27  1  0  0  0  0
 26 28  1  0  0  0  0
 26 29  1  0  0  0  0
 24 25  1  0  0  0  0
 24 26  1  0  0  0  0
M  END
$$$$
default_name
  -OEChem-02102213163D

 29 28  0     1  0  0  0  0  0999 V2000
   -3.3998   -3.6239    1.3678 H   0  0  0  0  0  0  0  0  0  0  0  0
   -3.3608   -2.6749    0.8348 C   0  0  0  0  0  0  0  0  0  0  0  0
   -4.0988   -1.9909    1.2498 H   0  0  0  0  0  0  0  0  0  0  0  0
   -3.5618   -2.8419   -0.2222 H   0  0  0  0  0  0  0  0  0  0  0  0
   -1.9818   -2.0809    0.9918 C   0  0  0  0  0  0  0  0  0  0  0  0
   -1.1288   -2.6669    1.6468 O   0  0  0  0  0  0  0  0  0  0  0  0
   -1.7648   -0.9089    0.3998 N   0  0  0  0  0  0  0  0  0  0  0  0
   -2.5238   -0.4719   -0.1032 H   0  0  0  0  0  0  0  0  0  0  0  0
   -0.4848   -0.1959    0.4138 C   0  0  1  0  0  0  0  0  0  0  0  0
    0.1386   -0.6144    1.2058 H   0  0  0  0  0  0  0  0  0  0  0  0
    0.2271   -0.4272   -0.9334 C   0  0  0  0  0  0  0  0  0  0  0  0
   -0.5337   -0.5542   -1.7064 H   0  0  0  0  0  0  0  0  0  0  0  0
    0.8195    0.4553   -1.1796 H   0  0  0  0  0  0  0  0  0  0  0  0
    1.1447   -1.6622   -0.9486 C   0  0  0  0  0  0  0  0  0  0  0  0
    0.7501   -2.4210   -0.2732 H   0  0  0  0  0  0  0  0  0  0  0  0
    1.1685   -2.0728   -1.9579 H   0  0  0  0  0  0  0  0  0  0  0  0
    2.5793   -1.3508   -0.5223 C   0  0  0  0  0  0  0  0  0  0  0  0
    2.9739   -0.2275   -0.2713 O   0  0  0  0  0  0  0  0  0  0  0  0
    3.4302   -2.3479   -0.4132 N   0  0  0  0  0  0  0  0  0  0  0  0
    4.3584   -2.0863   -0.1291 H   0  0  0  0  0  0  0  0  0  0  0  0
    3.1576   -3.2905   -0.6049 H   0  0  0  0  0  0  0  0  0  0  0  0
   -0.7011    1.2952    0.7149 C   0  0  0  0  0  0  0  0  0  0  0  0
   -1.5917    1.9198    0.1415 O   0  0  0  0  0  0  0  0  0  0  0  0
    0.1191    1.8675    1.6055 N   0  0  0  0  0  0  0  0  0  0  0  0
    0.8092    1.2861    2.0537 H   0  0  0  0  0  0  0  0  0  0  0  0
    0.0509    3.2769    1.9894 C   0  0  0  0  0  0  0  0  0  0  0  0
   -0.9494    3.5076    2.3640 H   0  0  0  0  0  0  0  0  0  0  0  0
    0.7844    3.4956    2.7668 H   0  0  0  0  0  0  0  0  0  0  0  0
    0.2468    3.9058    1.1193 H   0  0  0  0  0  0  0  0  0  0  0  0
  5  6  2  0  0  0  0
  5  7  1  0  0  0  0
  2  3  1  0  0  0  0
  2  4  1  0  0  0  0
  2  5  1  0  0  0  0
  1  2  1  0  0  0  0
 22 23  2  0  0  0  0
 22 24  1  0  0  0  0
 19 20  1  0  0  0  0
 19 21  1  0  0  0  0
 17 18  2  0  0  0  0
 17 19  1  0  0  0  0
 14 15  1  0  0  0  0
 14 16  1  0  0  0  0
 14 17  1  0  0  0  0
 11 12  1  0  0  0  0
 11 13  1  0  0  0  0
 11 14  1  0  0  0  0
  9 10  1  0  0  0  0
  9 11  1  0  0  0  0
  9 22  1  0  0  0  0
  7  8  1  0  0  0  0
  7  9  1  0  0  0  0
 26 27  1  0  0  0  0
 26 28  1  0  0  0  0
 26 29  1  0  0  0  0
 24 25  1  0  0  0  0
 24 26  1  0  0  0  0
M  END
$$$$
default_name
  -OEChem-02102213163D

 29 28  0     1  0  0  0  0  0999 V2000
   -3.3998   -3.6239    1.3678 H   0  0  0  0  0  0  0  0  0  0  0  0
   -3.3608   -2.6749    0.8348 C   0  0  0  0  0  0  0  0  0  0  0  0
   -4.0988   -1.9909    1.2498 H   0  0  0  0  0  0  0  0  0  0  0  0
   -3.5618   -2.8419   -0.2222 H   0  0  0  0  0  0  0  0  0  0  0  0
   -1.9818   -2.0809    0.9918 C   0  0  0  0  0  0  0  0  0  0  0  0
   -1.1288   -2.6669    1.6468 O   0  0  0  0  0  0  0  0  0  0  0  0
   -1.7648   -0.9089    0.3998 N   0  0  0  0  0  0  0  0  0  0  0  0
   -2.5238   -0.4719   -0.1032 H   0  0  0  0  0  0  0  0  0  0  0  0
   -0.4848   -0.1959    0.4138 C   0  0  1  0  0  0  0  0  0  0  0  0
    0.1386   -0.6144    1.2058 H   0  0  0  0  0  0  0  0  0  0  0  0
    0.2271   -0.4272   -0.9334 C   0  0  0  0  0  0  0  0  0  0  0  0
   -0.5337   -0.5542   -1.7064 H   0  0  0  0  0  0  0  0  0  0  0  0
    0.8195    0.4553   -1.1796 H   0  0  0  0  0  0  0  0  0  0  0  0
    1.1447   -1.6622   -0.9486 C   0  0  0  0  0  0  0  0  0  0  0  0
    0.6288   -2.5084   -0.4954 H   0  0  0  0  0  0  0  0  0  0  0  0
    1.3835   -1.9128   -1.9821 H   0  0  0  0  0  0  0  0  0  0  0  0
    2.4549   -1.4473   -0.1909 C   0  0  0  0  0  0  0  0  0  0  0  0
    2.7731   -0.3837    0.3071 O   0  0  0  0  0  0  0  0  0  0  0  0
    3.2782   -2.4651   -0.0631 N   0  0  0  0  0  0  0  0  0  0  0  0
    4.1232   -2.2681    0.4444 H   0  0  0  0  0  0  0  0  0  0  0  0
    3.0644   -3.3617   -0.4507 H   0  0  0  0  0  0  0  0  0  0  0  0
   -0.7011    1.2952    0.7149 C   0  0  0  0  0  0  0  0  0  0  0  0
   -1.5917    1.9198    0.1415 O   0  0  0  0  0  0  0  0  0  0  0  0
    0.1191    1.8675    1.6055 N   0  0  0  0  0  0  0  0  0  0  0  0
    0.8092    1.2861    2.0537 H   0  0  0  0  0  0  0  0  0  0  0  0
    0.0509    3.2769    1.9894 C   0  0  0  0  0  0  0  0  0  0  0  0
   -0.9494    3.5076    2.3640 H   0  0  0  0  0  0  0  0  0  0  0  0
    0.7844    3.4956    2.7668 H   0  0  0  0  0  0  0  0  0  0  0  0
    0.2468    3.9058    1.1193 H   0  0  0  0  0  0  0  0  0  0  0  0
  5  6  2  0  0  0  0
  5  7  1  0  0  0  0
  2  3  1  0  0  0  0
  2  4  1  0  0  0  0
  2  5  1  0  0  0  0
  1  2  1  0  0  0  0
 22 23  2  0  0  0  0
 22 24  1  0  0  0  0
 19 20  1  0  0  0  0
 19 21  1  0  0  0  0
 17 18  2  0  0  0  0
 17 19  1  0  0  0  0
 14 15  1  0  0  0  0
 14 16  1  0  0  0  0
 14 17  1  0  0  0  0
 11 12  1  0  0  0  0
 11 13  1  0  0  0  0
 11 14  1  0  0  0  0
  9 10  1  0  0  0  0
  9 11  1  0  0  0  0
  9 22  1  0  0  0  0
  7  8  1  0  0  0  0
  7  9  1  0  0  0  0
 26 27  1  0  0  0  0
 26 28  1  0  0  0  0
 26 29  1  0  0  0  0
 24 25  1  0  0  0  0
 24 26  1  0  0  0  0
M  END
$$$$
default_name
  -OEChem-02102213163D

 29 28  0     1  0  0  0  0  0999 V2000
   -3.3998   -3.6239    1.3678 H   0  0  0  0  0  0  0  0  0  0  0  0
   -3.3608   -2.6749    0.8348 C   0  0  0  0  0  0  0  0  0  0  0  0
   -4.0988   -1.9909    1.2498 H   0  0  0  0  0  0  0  0  0  0  0  0
   -3.5618   -2.8419   -0.2222 H   0  0  0  0  0  0  0  0  0  0  0  0
   -1.9818   -2.0809    0.9918 C   0  0  0  0  0  0  0  0  0  0  0  0
   -1.1288   -2.6669    1.6468 O   0  0  0  0  0  0  0  0  0  0  0  0
   -1.7648   -0.9089    0.3998 N   0  0  0  0  0  0  0  0  0  0  0  0
   -2.5238   -0.4719   -0.1032 H   0  0  0  0  0  0  0  0  0  0  0  0
   -0.4848   -0.1959    0.4138 C   0  0  1  0  0  0  0  0  0  0  0  0
    0.1386   -0.6144    1.2058 H   0  0  0  0  0  0  0  0  0  0  0  0
    0.2271   -0.4272   -0.9334 C   0  0  0  0  0  0  0  0  0  0  0  0
   -0.5337   -0.5542   -1.7064 H   0  0  0  0  0  0  0  0  0  0  0  0
    0.8195    0.4553   -1.1796 H   0  0  0  0  0  0  0  0  0  0  0  0
    1.1447   -1.6622   -0.9486 C   0  0  0  0  0  0  0  0  0  0  0  0
    0.5575   -2.5582   -0.7488 H   0  0  0  0  0  0  0  0  0  0  0  0
    1.5966   -1.7550   -1.9361 H   0  0  0  0  0  0  0  0  0  0  0  0
    2.2656   -1.5913    0.0884 C   0  0  0  0  0  0  0  0  0  0  0  0
    2.4587   -0.6234    0.8000 O   0  0  0  0  0  0  0  0  0  0  0  0
    3.0583   -2.6321    0.2253 N   0  0  0  0  0  0  0  0  0  0  0  0
    3.7765   -2.5315    0.9214 H   0  0  0  0  0  0  0  0  0  0  0  0
    2.9421   -3.4540   -0.3320 H   0  0  0  0  0  0  0  0  0  0  0  0
   -0.7011    1.2952    0.7149 C   0  0  0  0  0  0  0  0  0  0  0  0
   -1.5917    1.9198    0.1415 O   0  0  0  0  0  0  0  0  0  0  0  0
    0.1191    1.8675    1.6055 N   0  0  0  0  0  0  0  0  0  0  0  0
    0.8092    1.2861    2.0537 H   0  0  0  0  0  0  0  0  0  0  0  0
    0.0509    3.2769    1.9894 C   0  0  0  0  0  0  0  0  0  0  0  0
   -0.9494    3.5076    2.3640 H   0  0  0  0  0  0  0  0  0  0  0  0
    0.7844    3.4956    2.7668 H   0  0  0  0  0  0  0  0  0  0  0  0
    0.2468    3.9058    1.1193 H   0  0  0  0  0  0  0  0  0  0  0  0
  5  6  2  0  0  0  0
  5  7  1  0  0  0  0
  2  3  1  0  0  0  0
  2  4  1  0  0  0  0
  2  5  1  0  0  0  0
  1  2  1  0  0  0  0
 22 23  2  0  0  0  0
 22 24  1  0  0  0  0
 19 20  1  0  0  0  0
 19 21  1  0  0  0  0
 17 18  2  0  0  0  0
 17 19  1  0  0  0  0
 14 15  1  0  0  0  0
 14 16  1  0  0  0  0
 14 17  1  0  0  0  0
 11 12  1  0  0  0  0
 11 13  1  0  0  0  0
 11 14  1  0  0  0  0
  9 10  1  0  0  0  0
  9 11  1  0  0  0  0
  9 22  1  0  0  0  0
  7  8  1  0  0  0  0
  7  9  1  0  0  0  0
 26 27  1  0  0  0  0
 26 28  1  0  0  0  0
 26 29  1  0  0  0  0
 24 25  1  0  0  0  0
 24 26  1  0  0  0  0
M  END
$$$$
default_name
  -OEChem-02102213163D

 29 28  0     1  0  0  0  0  0999 V2000
   -3.3998   -3.6239    1.3678 H   0  0  0  0  0  0  0  0  0  0  0  0
   -3.3608   -2.6749    0.8348 C   0  0  0  0  0  0  0  0  0  0  0  0
   -4.0988   -1.9909    1.2498 H   0  0  0  0  0  0  0  0  0  0  0  0
   -3.5618   -2.8419   -0.2222 H   0  0  0  0  0  0  0  0  0  0  0  0
   -1.9818   -2.0809    0.9918 C   0  0  0  0  0  0  0  0  0  0  0  0
   -1.1288   -2.6669    1.6468 O   0  0  0  0  0  0  0  0  0  0  0  0
   -1.7648   -0.9089    0.3998 N   0  0  0  0  0  0  0  0  0  0  0  0
   -2.5238   -0.4719   -0.1032 H   0  0  0  0  0  0  0  0  0  0  0  0
   -0.4848   -0.1959    0.4138 C   0  0  1  0  0  0  0  0  0  0  0  0
    0.1386   -0.6144    1.2058 H   0  0  0  0  0  0  0  0  0  0  0  0
    0.2271   -0.4272   -0.9334 C   0  0  0  0  0  0  0  0  0  0  0  0
   -0.5337   -0.5542   -1.7064 H   0  0  0  0  0  0  0  0  0  0  0  0
    0.8195    0.4553   -1.1796 H   0  0  0  0  0  0  0  0  0  0  0  0
    1.1447   -1.6622   -0.9486 C   0  0  0  0  0  0  0  0  0  0  0  0
    0.5412   -2.5671   -1.0160 H   0  0  0  0  0  0  0  0  0  0  0  0
    1.7933   -1.6102   -1.8230 H   0  0  0  0  0  0  0  0  0  0  0  0
    2.0244   -1.7731    0.2966 C   0  0  0  0  0  0  0  0  0  0  0  0
    2.0520   -0.9302    1.1737 O   0  0  0  0  0  0  0  0  0  0  0  0
    2.7855   -2.8373    0.4325 N   0  0  0  0  0  0  0  0  0  0  0  0
    3.3419   -2.8587    1.2695 H   0  0  0  0  0  0  0  0  0  0  0  0
    2.7991   -3.5612   -0.2570 H   0  0  0  0  0  0  0  0  0  0  0  0
   -0.7011    1.2952    0.7149 C   0  0  0  0  0  0  0  0  0  0  0  0
   -1.5917    1.9198    0.1415 O   0  0  0  0  0  0  0  0  0  0  0  0
    0.1191    1.8675    1.6055 N   0  0  0  0  0  0  0  0  0  0  0  0
    0.8092    1.2861    2.0537 H   0  0  0  0  0  0  0  0  0  0  0  0
    0.0509    3.2769    1.9894 C   0  0  0  0  0  0  0  0  0  0  0  0
   -0.9494    3.5076    2.3640 H   0  0  0  0  0  0  0  0  0  0  0  0
    0.7844    3.4956    2.7668 H   0  0  0  0  0  0  0  0  0  0  0  0
    0.2468    3.9058    1.1193 H   0  0  0  0  0  0  0  0  0  0  0  0
  5  6  2  0  0  0  0
  5  7  1  0  0  0  0
  2  3  1  0  0  0  0
  2  4  1  0  0  0  0
  2  5  1  0  0  0  0
  1  2  1  0  0  0  0
 22 23  2  0  0  0  0
 22 24  1  0  0  0  0
 19 20  1  0  0  0  0
 19 21  1  0  0  0  0
 17 18  2  0  0  0  0
 17 19  1  0  0  0  0
 14 15  1  0  0  0  0
 14 16  1  0  0  0  0
 14 17  1  0  0  0  0
 11 12  1  0  0  0  0
 11 13  1  0  0  0  0
 11 14  1  0  0  0  0
  9 10  1  0  0  0  0
  9 11  1  0  0  0  0
  9 22  1  0  0  0  0
  7  8  1  0  0  0  0
  7  9  1  0  0  0  0
 26 27  1  0  0  0  0
 26 28  1  0  0  0  0
 26 29  1  0  0  0  0
 24 25  1  0  0  0  0
 24 26  1  0  0  0  0
M  END
$$$$
default_name
  -OEChem-02102213163D

 29 28  0     1  0  0  0  0  0999 V2000
   -3.3998   -3.6239    1.3678 H   0  0  0  0  0  0  0  0  0  0  0  0
   -3.3608   -2.6749    0.8348 C   0  0  0  0  0  0  0  0  0  0  0  0
   -4.0988   -1.9909    1.2498 H   0  0  0  0  0  0  0  0  0  0  0  0
   -3.5618   -2.8419   -0.2222 H   0  0  0  0  0  0  0  0  0  0  0  0
   -1.9818   -2.0809    0.9918 C   0  0  0  0  0  0  0  0  0  0  0  0
   -1.1288   -2.6669    1.6468 O   0  0  0  0  0  0  0  0  0  0  0  0
   -1.7648   -0.9089    0.3998 N   0  0  0  0  0  0  0  0  0  0  0  0
   -2.5238   -0.4719   -0.1032 H   0  0  0  0  0  0  0  0  0  0  0  0
   -0.4848   -0.1959    0.4138 C   0  0  1  0  0  0  0  0  0  0  0  0
    0.1386   -0.6144    1.2058 H   0  0  0  0  0  0  0  0  0  0  0  0
    0.2271   -0.4272   -0.9334 C   0  0  0  0  0  0  0  0  0  0  0  0
   -0.5337   -0.5542   -1.7064 H   0  0  0  0  0  0  0  0  0  0  0  0
    0.8195    0.4553   -1.1796 H   0  0  0  0  0  0  0  0  0  0  0  0
    1.1447   -1.6622   -0.9486 C   0  0  0  0  0  0  0  0  0  0  0  0
    0.5809   -2.5343   -1.2789 H   0  0  0  0  0  0  0  0  0  0  0  0
    1.9602   -1.4884   -1.6505 H   0  0  0  0  0  0  0  0  0  0  0  0
    1.7477   -1.9802    0.4196 C   0  0  0  0  0  0  0  0  0  0  0  0
    1.5807   -1.2832    1.4029 O   0  0  0  0  0  0  0  0  0  0  0  0
    2.4785   -3.0668    0.5443 N   0  0  0  0  0  0  0  0  0  0  0  0
    2.8489   -3.2274    1.4649 H   0  0  0  0  0  0  0  0  0  0  0  0
    2.6451   -3.6759   -0.2309 H   0  0  0  0  0  0  0  0  0  0  0  0
   -0.7011    1.2952    0.7149 C   0  0  0  0  0  0  0  0  0  0  0  0
   -1.5917    1.9198    0.1415 O   0  0  0  0  0  0  0  0  0  0  0  0
    0.1191    1.8675    1.6055 N   0  0  0  0  0  0  0  0  0  0  0  0
    0.8092    1.2861    2.0537 H   0  0  0  0  0  0  0  0  0  0  0  0
    0.0509    3.2769    1.9894 C   0  0  0  0  0  0  0  0  0  0  0  0
   -0.9494    3.5076    2.3640 H   0  0  0  0  0  0  0  0  0  0  0  0
    0.7844    3.4956    2.7668 H   0  0  0  0  0  0  0  0  0  0  0  0
    0.2468    3.9058    1.1193 H   0  0  0  0  0  0  0  0  0  0  0  0
  5  6  2  0  0  0  0
  5  7  1  0  0  0  0
  2  3  1  0  0  0  0
  2  4  1  0  0  0  0
  2  5  1  0  0  0  0
  1  2  1  0  0  0  0
 22 23  2  0  0  0  0
 22 24  1  0  0  0  0
 19 20  1  0  0  0  0
 19 21  1  0  0  0  0
 17 18  2  0  0  0  0
 17 19  1  0  0  0  0
 14 15  1  0  0  0  0
 14 16  1  0  0  0  0
 14 17  1  0  0  0  0
 11 12  1  0  0  0  0
 11 13  1  0  0  0  0
 11 14  1  0  0  0  0
  9 10  1  0  0  0  0
  9 11  1  0  0  0  0
  9 22  1  0  0  0  0
  7  8  1  0  0  0  0
  7  9  1  0  0  0  0
 26 27  1  0  0  0  0
 26 28  1  0  0  0  0
 26 29  1  0  0  0  0
 24 25  1  0  0  0  0
 24 26  1  0  0  0  0
M  END
$$$$
default_name
  -OEChem-02102213163D

 29 28  0     1  0  0  0  0  0999 V2000
   -3.3998   -3.6239    1.3678 H   0  0  0  0  0  0  0  0  0  0  0  0
   -3.3608   -2.6749    0.8348 C   0  0  0  0  0  0  0  0  0  0  0  0
   -4.0988   -1.9909    1.2498 H   0  0  0  0  0  0  0  0  0  0  0  0
   -3.5618   -2.8419   -0.2222 H   0  0  0  0  0  0  0  0  0  0  0  0
   -1.9818   -2.0809    0.9918 C   0  0  0  0  0  0  0  0  0  0  0  0
   -1.1288   -2.6669    1.6468 O   0  0  0  0  0  0  0  0  0  0  0  0
   -1.7648   -0.9089    0.3998 N   0  0  0  0  0  0  0  0  0  0  0  0
   -2.5238   -0.4719   -0.1032 H   0  0  0  0  0  0  0  0  0  0  0  0
   -0.4848   -0.1959    0.4138 C   0  0  1  0  0  0  0  0  0  0  0  0
    0.1386   -0.6144    1.2058 H   0  0  0  0  0  0  0  0  0  0  0  0
    0.2271   -0.4272   -0.9334 C   0  0  0  0  0  0  0  0  0  0  0  0
   -0.5337   -0.5542   -1.7064 H   0  0  0  0  0  0  0  0  0  0  0  0
    0.8195    0.4553   -1.1796 H   0  0  0  0  0  0  0  0  0  0  0  0
    1.1447   -1.6622   -0.9486 C   0  0  0  0  0  0  0  0  0  0  0  0
    0.6740   -2.4622   -1.5195 H   0  0  0  0  0  0  0  0  0  0  0  0
    2.0859   -1.3977   -1.4305 H   0  0  0  0  0  0  0  0  0  0  0  0
    1.4543   -2.1986    0.4490 C   0  0  0  0  0  0  0  0  0  0  0  0
    1.0769   -1.6583    1.4718 O   0  0  0  0  0  0  0  0  0  0  0  0
    2.1581   -3.3049    0.5530 N   0  0  0  0  0  0  0  0  0  0  0  0
    2.3312   -3.6125    1.4943 H   0  0  0  0  0  0  0  0  0  0  0  0
    2.4906   -3.7904   -0.2553 H   0  0  0  0  0  0  0  0  0  0  0  0
   -0.7011    1.2952    0.7149 C   0  0  0  0  0  0  0  0  0  0  0  0
   -1.5917    1.9198    0.1415 O   0  0  0  0  0  0  0  0  0  0  0  0
    0.1191    1.8675    1.6055 N   0  0  0  0  0  0  0  0  0  0  0  0
    0.8092    1.2861    2.0537 H   0  0  0  0  0  0  0  0  0  0  0  0
    0.0509    3.2769    1.9894 C   0  0  0  0  0  0  0  0  0  0  0  0
   -0.9494    3.5076    2.3640 H   0  0  0  0  0  0  0  0  0  0  0  0
    0.7844    3.4956    2.7668 H   0  0  0  0  0  0  0  0  0  0  0  0
    0.2468    3.9058    1.1193 H   0  0  0  0  0  0  0  0  0  0  0  0
  5  6  2  0  0  0  0
  5  7  1  0  0  0  0
  2  3  1  0  0  0  0
  2  4  1  0  0  0  0
  2  5  1  0  0  0  0
  1  2  1  0  0  0  0
 22 23  2  0  0  0  0
 22 24  1  0  0  0  0
 19 20  1  0  0  0  0
 19 21  1  0  0  0  0
 17 18  2  0  0  0  0
 17 19  1  0  0  0  0
 14 15  1  0  0  0  0
 14 16  1  0  0  0  0
 14 17  1  0  0  0  0
 11 12  1  0  0  0  0
 11 13  1  0  0  0  0
 11 14  1  0  0  0  0
  9 10  1  0  0  0  0
  9 11  1  0  0  0  0
  9 22  1  0  0  0  0
  7  8  1  0  0  0  0
  7  9  1  0  0  0  0
 26 27  1  0  0  0  0
 26 28  1  0  0  0  0
 26 29  1  0  0  0  0
 24 25  1  0  0  0  0
 24 26  1  0  0  0  0
M  END
$$$$
default_name
  -OEChem-02102213163D

 29 28  0     1  0  0  0  0  0999 V2000
   -3.3998   -3.6239    1.3678 H   0  0  0  0  0  0  0  0  0  0  0  0
   -3.3608   -2.6749    0.8348 C   0  0  0  0  0  0  0  0  0  0  0  0
   -4.0988   -1.9909    1.2498 H   0  0  0  0  0  0  0  0  0  0  0  0
   -3.5618   -2.8419   -0.2222 H   0  0  0  0  0  0  0  0  0  0  0  0
   -1.9818   -2.0809    0.9918 C   0  0  0  0  0  0  0  0  0  0  0  0
   -1.1288   -2.6669    1.6468 O   0  0  0  0  0  0  0  0  0  0  0  0
   -1.7648   -0.9089    0.3998 N   0  0  0  0  0  0  0  0  0  0  0  0
   -2.5238   -0.4719   -0.1032 H   0  0  0  0  0  0  0  0  0  0  0  0
   -0.4848   -0.1959    0.4138 C   0  0  1  0  0  0  0  0  0  0  0  0
    0.1386   -0.6144    1.2058 H   0  0  0  0  0  0  0  0  0  0  0  0
    0.2271   -0.4272   -0.9334 C   0  0  0  0  0  0  0  0  0  0  0  0
   -0.5337   -0.5542   -1.7064 H   0  0  0  0  0  0  0  0  0  0  0  0
    0.8195    0.4553   -1.1796 H   0  0  0  0  0  0  0  0  0  0  0  0
    1.1447   -1.6622   -0.9486 C   0  0  0  0  0  0  0  0  0  0  0  0
    0.8141   -2.3557   -1.7215 H   0  0  0  0  0  0  0  0  0  0  0  0
    2.1618   -1.3444   -1.1779 H   0  0  0  0  0  0  0  0  0  0  0  0
    1.1643   -2.4132    0.3827 C   0  0  0  0  0  0  0  0  0  0  0  0
    0.5751   -2.0300    1.3759 O   0  0  0  0  0  0  0  0  0  0  0  0
    1.8462   -3.5355    0.4582 N   0  0  0  0  0  0  0  0  0  0  0  0
    1.8240   -3.9876    1.3557 H   0  0  0  0  0  0  0  0  0  0  0  0
    2.3462   -3.8968   -0.3287 H   0  0  0  0  0  0  0  0  0  0  0  0
   -0.7011    1.2952    0.7149 C   0  0  0  0  0  0  0  0  0  0  0  0
   -1.5917    1.9198    0.1415 O   0  0  0  0  0  0  0  0  0  0  0  0
    0.1191    1.8675    1.6055 N   0  0  0  0  0  0  0  0  0  0  0  0
    0.8092    1.2861    2.0537 H   0  0  0  0  0  0  0  0  0  0  0  0
    0.0509    3.2769    1.9894 C   0  0  0  0  0  0  0  0  0  0  0  0
   -0.9494    3.5076    2.3640 H   0  0  0  0  0  0  0  0  0  0  0  0
    0.7844    3.4956    2.7668 H   0  0  0  0  0  0  0  0  0  0  0  0
    0.2468    3.9058    1.1193 H   0  0  0  0  0  0  0  0  0  0  0  0
  5  6  2  0  0  0  0
  5  7  1  0  0  0  0
  2  3  1  0  0  0  0
  2  4  1  0  0  0  0
  2  5  1  0  0  0  0
  1  2  1  0  0  0  0
 22 23  2  0  0  0  0
 22 24  1  0  0  0  0
 19 20  1  0  0  0  0
 19 21  1  0  0  0  0
 17 18  2  0  0  0  0
 17 19  1  0  0  0  0
 14 15  1  0  0  0  0
 14 16  1  0  0  0  0
 14 17  1  0  0  0  0
 11 12  1  0  0  0  0
 11 13  1  0  0  0  0
 11 14  1  0  0  0  0
  9 10  1  0  0  0  0
  9 11  1  0  0  0  0
  9 22  1  0  0  0  0
  7  8  1  0  0  0  0
  7  9  1  0  0  0  0
 26 27  1  0  0  0  0
 26 28  1  0  0  0  0
 26 29  1  0  0  0  0
 24 25  1  0  0  0  0
 24 26  1  0  0  0  0
M  END
$$$$
default_name
  -OEChem-02102213163D

 29 28  0     1  0  0  0  0  0999 V2000
   -3.3998   -3.6239    1.3678 H   0  0  0  0  0  0  0  0  0  0  0  0
   -3.3608   -2.6749    0.8348 C   0  0  0  0  0  0  0  0  0  0  0  0
   -4.0988   -1.9909    1.2498 H   0  0  0  0  0  0  0  0  0  0  0  0
   -3.5618   -2.8419   -0.2222 H   0  0  0  0  0  0  0  0  0  0  0  0
   -1.9818   -2.0809    0.9918 C   0  0  0  0  0  0  0  0  0  0  0  0
   -1.1288   -2.6669    1.6468 O   0  0  0  0  0  0  0  0  0  0  0  0
   -1.7648   -0.9089    0.3998 N   0  0  0  0  0  0  0  0  0  0  0  0
   -2.5238   -0.4719   -0.1032 H   0  0  0  0  0  0  0  0  0  0  0  0
   -0.4848   -0.1959    0.4138 C   0  0  1  0  0  0  0  0  0  0  0  0
    0.1386   -0.6144    1.2058 H   0  0  0  0  0  0  0  0  0  0  0  0
    0.2271   -0.4272   -0.9334 C   0  0  0  0  0  0  0  0  0  0  0  0
   -0.5337   -0.5542   -1.7064 H   0  0  0  0  0  0  0  0  0  0  0  0
    0.8195    0.4553   -1.1796 H   0  0  0  0  0  0  0  0  0  0  0  0
    1.1447   -1.6622   -0.9486 C   0  0  0  0  0  0  0  0  0  0  0  0
    0.9916   -2.2220   -1.8710 H   0  0  0  0  0  0  0  0  0  0  0  0
    2.1828   -1.3321   -0.9098 H   0  0  0  0  0  0  0  0  0  0  0  0
    0.8974   -2.6096    0.2252 C   0  0  0  0  0  0  0  0  0  0  0  0
    0.1093   -2.3730    1.1216 O   0  0  0  0  0  0  0  0  0  0  0  0
    1.5641   -3.7428    0.2662 N   0  0  0  0  0  0  0  0  0  0  0  0
    1.3619   -4.3273    1.0586 H   0  0  0  0  0  0  0  0  0  0  0  0
    2.2217   -3.9879   -0.4459 H   0  0  0  0  0  0  0  0  0  0  0  0
   -0.7011    1.2952    0.7149 C   0  0  0  0  0  0  0  0  0  0  0  0
   -1.5917    1.9198    0.1415 O   0  0  0  0  0  0  0  0  0  0  0  0
    0.1191    1.8675    1.6055 N   0  0  0  0  0  0  0  0  0  0  0  0
    0.8092    1.2861    2.0537 H   0  0  0  0  0  0  0  0  0  0  0  0
    0.0509    3.2769    1.9894 C   0  0  0  0  0  0  0  0  0  0  0  0
   -0.9494    3.5076    2.3640 H   0  0  0  0  0  0  0  0  0  0  0  0
    0.7844    3.4956    2.7668 H   0  0  0  0  0  0  0  0  0  0  0  0
    0.2468    3.9058    1.1193 H   0  0  0  0  0  0  0  0  0  0  0  0
  5  6  2  0  0  0  0
  5  7  1  0  0  0  0
  2  3  1  0  0  0  0
  2  4  1  0  0  0  0
  2  5  1  0  0  0  0
  1  2  1  0  0  0  0
 22 23  2  0  0  0  0
 22 24  1  0  0  0  0
 19 20  1  0  0  0  0
 19 21  1  0  0  0  0
 17 18  2  0  0  0  0
 17 19  1  0  0  0  0
 14 15  1  0  0  0  0
 14 16  1  0  0  0  0
 14 17  1  0  0  0  0
 11 12  1  0  0  0  0
 11 13  1  0  0  0  0
 11 14  1  0  0  0  0
  9 10  1  0  0  0  0
  9 11  1  0  0  0  0
  9 22  1  0  0  0  0
  7  8  1  0  0  0  0
  7  9  1  0  0  0  0
 26 27  1  0  0  0  0
 26 28  1  0  0  0  0
 26 29  1  0  0  0  0
 24 25  1  0  0  0  0
 24 26  1  0  0  0  0
M  END
$$$$
default_name
  -OEChem-02102213163D

 29 28  0     1  0  0  0  0  0999 V2000
   -3.3998   -3.6239    1.3678 H   0  0  0  0  0  0  0  0  0  0  0  0
   -3.3608   -2.6749    0.8348 C   0  0  0  0  0  0  0  0  0  0  0  0
   -4.0988   -1.9909    1.2498 H   0  0  0  0  0  0  0  0  0  0  0  0
   -3.5618   -2.8419   -0.2222 H   0  0  0  0  0  0  0  0  0  0  0  0
   -1.9818   -2.0809    0.9918 C   0  0  0  0  0  0  0  0  0  0  0  0
   -1.1288   -2.6669    1.6468 O   0  0  0  0  0  0  0  0  0  0  0  0
   -1.7648   -0.9089    0.3998 N   0  0  0  0  0  0  0  0  0  0  0  0
   -2.5238   -0.4719   -0.1032 H   0  0  0  0  0  0  0  0  0  0  0  0
   -0.4848   -0.1959    0.4138 C   0  0  1  0  0  0  0  0  0  0  0  0
    0.1386   -0.6144    1.2058 H   0  0  0  0  0  0  0  0  0  0  0  0
    0.2271   -0.4272   -0.9334 C   0  0  0  0  0  0  0  0  0  0  0  0
   -0.5337   -0.5542   -1.7064 H   0  0  0  0  0  0  0  0  0  0  0  0
    0.8195    0.4553   -1.1796 H   0  0  0  0  0  0  0  0  0  0  0  0
    1.1447   -1.6622   -0.9486 C   0  0  0  0  0  0  0  0  0  0  0  0
    1.1945   -2.0702   -1.9579 H   0  0  0  0  0  0  0  0  0  0  0  0
    2.1474   -1.3616   -0.6447 H   0  0  0  0  0  0  0  0  0  0  0  0
    0.6718   -2.7743   -0.0126 C   0  0  0  0  0  0  0  0  0  0  0  0
   -0.2887   -2.6638    0.7263 O   0  0  0  0  0  0  0  0  0  0  0  0
    1.3309   -3.9126   -0.0099 N   0  0  0  0  0  0  0  0  0  0  0  0
    0.9764   -4.6083    0.6232 H   0  0  0  0  0  0  0  0  0  0  0  0
    2.1255   -4.0575   -0.5992 H   0  0  0  0  0  0  0  0  0  0  0  0
   -0.7011    1.2952    0.7149 C   0  0  0  0  0  0  0  0  0  0  0  0
   -1.5917    1.9198    0.1415 O   0  0  0  0  0  0  0  0  0  0  0  0
    0.1191    1.8675    1.6055 N   0  0  0  0  0  0  0  0  0  0  0  0
    0.8092    1.2861    2.0537 H   0  0  0  0  0  0  0  0  0  0  0  0
    0.0509    3.2769    1.9894 C   0  0  0  0  0  0  0  0  0  0  0  0
   -0.9494    3.5076    2.3640 H   0  0  0  0  0  0  0  0  0  0  0  0
    0.7844    3.4956    2.7668 H   0  0  0  0  0  0  0  0  0  0  0  0
    0.2468    3.9058    1.1193 H   0  0  0  0  0  0  0  0  0  0  0  0
  5  6  2  0  0  0  0
  5  7  1  0  0  0  0
  2  3  1  0  0  0  0
  2  4  1  0  0  0  0
  2  5  1  0  0  0  0
  1  2  1  0  0  0  0
 22 23  2  0  0  0  0
 22 24  1  0  0  0  0
 19 20  1  0  0  0  0
 19 21  1  0  0  0  0
 17 18  2  0  0  0  0
 17 19  1  0  0  0  0
 14 15  1  0  0  0  0
 14 16  1  0  0  0  0
 14 17  1  0  0  0  0
 11 12  1  0  0  0  0
 11 13  1  0  0  0  0
 11 14  1  0  0  0  0
  9 10  1  0  0  0  0
  9 11  1  0  0  0  0
  9 22  1  0  0  0  0
  7  8  1  0  0  0  0
  7  9  1  0  0  0  0
 26 27  1  0  0  0  0
 26 28  1  0  0  0  0
 26 29  1  0  0  0  0
 24 25  1  0  0  0  0
 24 26  1  0  0  0  0
M  END
$$$$
default_name
  -OEChem-02102213163D

 29 28  0     1  0  0  0  0  0999 V2000
   -3.3998   -3.6239    1.3678 H   0  0  0  0  0  0  0  0  0  0  0  0
   -3.3608   -2.6749    0.8348 C   0  0  0  0  0  0  0  0  0  0  0  0
   -4.0988   -1.9909    1.2498 H   0  0  0  0  0  0  0  0  0  0  0  0
   -3.5618   -2.8419   -0.2222 H   0  0  0  0  0  0  0  0  0  0  0  0
   -1.9818   -2.0809    0.9918 C   0  0  0  0  0  0  0  0  0  0  0  0
   -1.1288   -2.6669    1.6468 O   0  0  0  0  0  0  0  0  0  0  0  0
   -1.7648   -0.9089    0.3998 N   0  0  0  0  0  0  0  0  0  0  0  0
   -2.5238   -0.4719   -0.1032 H   0  0  0  0  0  0  0  0  0  0  0  0
   -0.4848   -0.1959    0.4138 C   0  0  1  0  0  0  0  0  0  0  0  0
    0.1386   -0.6144    1.2058 H   0  0  0  0  0  0  0  0  0  0  0  0
    0.2271   -0.4272   -0.9334 C   0  0  0  0  0  0  0  0  0  0  0  0
   -0.5337   -0.5542   -1.7064 H   0  0  0  0  0  0  0  0  0  0  0  0
    0.8195    0.4553   -1.1796 H   0  0  0  0  0  0  0  0  0  0  0  0
    1.1447   -1.6622   -0.9486 C   0  0  0  0  0  0  0  0  0  0  0  0
    1.4089   -1.9106   -1.9763 H   0  0  0  0  0  0  0  0  0  0  0  0
    2.0580   -1.4310   -0.4005 H   0  0  0  0  0  0  0  0  0  0  0  0
    0.5028   -2.8961   -0.3146 C   0  0  0  0  0  0  0  0  0  0  0  0
   -0.5917   -2.8827    0.2168 O   0  0  0  0  0  0  0  0  0  0  0  0
    1.1626   -4.0335   -0.3512 N   0  0  0  0  0  0  0  0  0  0  0  0
    0.6938   -4.8117    0.0792 H   0  0  0  0  0  0  0  0  0  0  0  0
    2.0643   -4.1008   -0.7779 H   0  0  0  0  0  0  0  0  0  0  0  0
   -0.7011    1.2952    0.7149 C   0  0  0  0  0  0  0  0  0  0  0  0
   -1.5917    1.9198    0.1415 O   0  0  0  0  0  0  0  0  0  0  0  0
    0.1191    1.8675    1.6055 N   0  0  0  0  0  0  0  0  0  0  0  0
    0.8092    1.2861    2.0537 H   0  0  0  0  0  0  0  0  0  0  0  0
    0.0509    3.2769    1.9894 C   0  0  0  0  0  0  0  0  0  0  0  0
   -0.9494    3.5076    2.3640 H   0  0  0  0  0  0  0  0  0  0  0  0
    0.7844    3.4956    2.7668 H   0  0  0  0  0  0  0  0  0  0  0  0
    0.2468    3.9058    1.1193 H   0  0  0  0  0  0  0  0  0  0  0  0
  5  6  2  0  0  0  0
  5  7  1  0  0  0  0
  2  3  1  0  0  0  0
  2  4  1  0  0  0  0
  2  5  1  0  0  0  0
  1  2  1  0  0  0  0
 22 23  2  0  0  0  0
 22 24  1  0  0  0  0
 19 20  1  0  0  0  0
 19 21  1  0  0  0  0
 17 18  2  0  0  0  0
 17 19  1  0  0  0  0
 14 15  1  0  0  0  0
 14 16  1  0  0  0  0
 14 17  1  0  0  0  0
 11 12  1  0  0  0  0
 11 13  1  0  0  0  0
 11 14  1  0  0  0  0
  9 10  1  0  0  0  0
  9 11  1  0  0  0  0
  9 22  1  0  0  0  0
  7  8  1  0  0  0  0
  7  9  1  0  0  0  0
 26 27  1  0  0  0  0
 26 28  1  0  0  0  0
 26 29  1  0  0  0  0
 24 25  1  0  0  0  0
 24 26  1  0  0  0  0
M  END
$$$$
default_name
  -OEChem-02102213163D

 29 28  0     1  0  0  0  0  0999 V2000
   -3.3998   -3.6239    1.3678 H   0  0  0  0  0  0  0  0  0  0  0  0
   -3.3608   -2.6749    0.8348 C   0  0  0  0  0  0  0  0  0  0  0  0
   -4.0988   -1.9909    1.2498 H   0  0  0  0  0  0  0  0  0  0  0  0
   -3.5618   -2.8419   -0.2222 H   0  0  0  0  0  0  0  0  0  0  0  0
   -1.9818   -2.0809    0.9918 C   0  0  0  0  0  0  0  0  0  0  0  0
   -1.1288   -2.6669    1.6468 O   0  0  0  0  0  0  0  0  0  0  0  0
   -1.7648   -0.9089    0.3998 N   0  0  0  0  0  0  0  0  0  0  0  0
   -2.5238   -0.4719   -0.1032 H   0  0  0  0  0  0  0  0  0  0  0  0
   -0.4848   -0.1959    0.4138 C   0  0  1  0  0  0  0  0  0  0  0  0
    0.1386   -0.6144    1.2058 H   0  0  0  0  0  0  0  0  0  0  0  0
    0.2271   -0.4272   -0.9334 C   0  0  0  0  0  0  0  0  0  0  0  0
   -0.5337   -0.5542   -1.7064 H   0  0  0  0  0  0  0  0  0  0  0  0
    0.8195    0.4553   -1.1796 H   0  0  0  0  0  0  0  0  0  0  0  0
    1.1447   -1.6622   -0.9486 C   0  0  0  0  0  0  0  0  0  0  0  0
    1.6202   -1.7542   -1.9248 H   0  0  0  0  0  0  0  0  0  0  0  0
    1.9208   -1.5355   -0.1938 H   0  0  0  0  0  0  0  0  0  0  0  0
    0.4021   -2.9668   -0.6602 C   0  0  0  0  0  0  0  0  0  0  0  0
   -0.7791   -3.0147   -0.3720 O   0  0  0  0  0  0  0  0  0  0  0  0
    1.0706   -4.0971   -0.7345 N   0  0  0  0  0  0  0  0  0  0  0  0
    0.5334   -4.9233   -0.5363 H   0  0  0  0  0  0  0  0  0  0  0  0
    2.0422   -4.1148   -0.9699 H   0  0  0  0  0  0  0  0  0  0  0  0
   -0.7011    1.2952    0.7149 C   0  0  0  0  0  0  0  0  0  0  0  0
   -1.5917    1.9198    0.1415 O   0  0  0  0  0  0  0  0  0  0  0  0
    0.1191    1.8675    1.6055 N   0  0  0  0  0  0  0  0  0  0  0  0
    0.8092    1.2861    2.0537 H   0  0  0  0  0  0  0  0  0  0  0  0
    0.0509    3.2769    1.9894 C   0  0  0  0  0  0  0  0  0  0  0  0
   -0.9494    3.5076    2.3640 H   0  0  0  0  0  0  0  0  0  0  0  0
    0.7844    3.4956    2.7668 H   0  0  0  0  0  0  0  0  0  0  0  0
    0.2468    3.9058    1.1193 H   0  0  0  0  0  0  0  0  0  0  0  0
  5  6  2  0  0  0  0
  5  7  1  0  0  0  0
  2  3  1  0  0  0  0
  2  4  1  0  0  0  0
  2  5  1  0  0  0  0
  1  2  1  0  0  0  0
 22 23  2  0  0  0  0
 22 24  1  0  0  0  0
 19 20  1  0  0  0  0
 19 21  1  0  0  0  0
 17 18  2  0  0  0  0
 17 19  1  0  0  0  0
 14 15  1  0  0  0  0
 14 16  1  0  0  0  0
 14 17  1  0  0  0  0
 11 12  1  0  0  0  0
 11 13  1  0  0  0  0
 11 14  1  0  0  0  0
  9 10  1  0  0  0  0
  9 11  1  0  0  0  0
  9 22  1  0  0  0  0
  7  8  1  0  0  0  0
  7  9  1  0  0  0  0
 26 27  1  0  0  0  0
 26 28  1  0  0  0  0
 26 29  1  0  0  0  0
 24 25  1  0  0  0  0
 24 26  1  0  0  0  0
M  END
$$$$
default_name
  -OEChem-02102213163D

 29 28  0     1  0  0  0  0  0999 V2000
   -3.3998   -3.6239    1.3678 H   0  0  0  0  0  0  0  0  0  0  0  0
   -3.3608   -2.6749    0.8348 C   0  0  0  0  0  0  0  0  0  0  0  0
   -4.0988   -1.9909    1.2498 H   0  0  0  0  0  0  0  0  0  0  0  0
   -3.5618   -2.8419   -0.2222 H   0  0  0  0  0  0  0  0  0  0  0  0
   -1.9818   -2.0809    0.9918 C   0  0  0  0  0  0  0  0  0  0  0  0
   -1.1288   -2.6669    1.6468 O   0  0  0  0  0  0  0  0  0  0  0  0
   -1.7648   -0.9089    0.3998 N   0  0  0  0  0  0  0  0  0  0  0  0
   -2.5238   -0.4719   -0.1032 H   0  0  0  0  0  0  0  0  0  0  0  0
   -0.4848   -0.1959    0.4138 C   0  0  1  0  0  0  0  0  0  0  0  0
    0.1386   -0.6144    1.2058 H   0  0  0  0  0  0  0  0  0  0  0  0
    0.2271   -0.4272   -0.9334 C   0  0  0  0  0  0  0  0  0  0  0  0
   -0.5337   -0.5542   -1.7064 H   0  0  0  0  0  0  0  0  0  0  0  0
    0.8195    0.4553   -1.1796 H   0  0  0  0  0  0  0  0  0  0  0  0
    1.1447   -1.6622   -0.9486 C   0  0  0  0  0  0  0  0  0  0  0  0
    1.8140   -1.6117   -1.8071 H   0  0  0  0  0  0  0  0  0  0  0  0
    1.7451   -1.6679   -0.0389 H   0  0  0  0  0  0  0  0  0  0  0  0
    0.3764   -2.9814   -1.0259 C   0  0  0  0  0  0  0  0  0  0  0  0
   -0.8381   -3.0509   -1.0000 O   0  0  0  0  0  0  0  0  0  0  0  0
    1.0612   -4.0992   -1.1337 N   0  0  0  0  0  0  0  0  0  0  0  0
    0.5060   -4.9358   -1.1815 H   0  0  0  0  0  0  0  0  0  0  0  0
    2.0607   -4.0987   -1.1621 H   0  0  0  0  0  0  0  0  0  0  0  0
   -0.7011    1.2952    0.7149 C   0  0  0  0  0  0  0  0  0  0  0  0
   -1.5917    1.9198    0.1415 O   0  0  0  0  0  0  0  0  0  0  0  0
    0.1191    1.8675    1.6055 N   0  0  0  0  0  0  0  0  0  0  0  0
    0.8092    1.2861    2.0537 H   0  0  0  0  0  0  0  0  0  0  0  0
    0.0509    3.2769    1.9894 C   0  0  0  0  0  0  0  0  0  0  0  0
   -0.9494    3.5076    2.3640 H   0  0  0  0  0  0  0  0  0  0  0  0
    0.7844    3.4956    2.7668 H   0  0  0  0  0  0  0  0  0  0  0  0
    0.2468    3.9058    1.1193 H   0  0  0  0  0  0  0  0  0  0  0  0
  5  6  2  0  0  0  0
  5  7  1  0  0  0  0
  2  3  1  0  0  0  0
  2  4  1  0  0  0  0
  2  5  1  0  0  0  0
  1  2  1  0  0  0  0
 22 23  2  0  0  0  0
 22 24  1  0  0  0  0
 19 20  1  0  0  0  0
 19 21  1  0  0  0  0
 17 18  2  0  0  0  0
 17 19  1  0  0  0  0
 14 15  1  0  0  0  0
 14 16  1  0  0  0  0
 14 17  1  0  0  0  0
 11 12  1  0  0  0  0
 11 13  1  0  0  0  0
 11 14  1  0  0  0  0
  9 10  1  0  0  0  0
  9 11  1  0  0  0  0
  9 22  1  0  0  0  0
  7  8  1  0  0  0  0
  7  9  1  0  0  0  0
 26 27  1  0  0  0  0
 26 28  1  0  0  0  0
 26 29  1  0  0  0  0
 24 25  1  0  0  0  0
 24 26  1  0  0  0  0
M  END
$$$$
default_name
  -OEChem-02102213163D

 29 28  0     1  0  0  0  0  0999 V2000
   -3.3998   -3.6239    1.3678 H   0  0  0  0  0  0  0  0  0  0  0  0
   -3.3608   -2.6749    0.8348 C   0  0  0  0  0  0  0  0  0  0  0  0
   -4.0988   -1.9909    1.2498 H   0  0  0  0  0  0  0  0  0  0  0  0
   -3.5618   -2.8419   -0.2222 H   0  0  0  0  0  0  0  0  0  0  0  0
   -1.9818   -2.0809    0.9918 C   0  0  0  0  0  0  0  0  0  0  0  0
   -1.1288   -2.6669    1.6468 O   0  0  0  0  0  0  0  0  0  0  0  0
   -1.7648   -0.9089    0.3998 N   0  0  0  0  0  0  0  0  0  0  0  0
   -2.5238   -0.4719   -0.1032 H   0  0  0  0  0  0  0  0  0  0  0  0
   -0.4848   -0.1959    0.4138 C   0  0  1  0  0  0  0  0  0  0  0  0
    0.1386   -0.6144    1.2058 H   0  0  0  0  0  0  0  0  0  0  0  0
    0.2271   -0.4272   -0.9334 C   0  0  0  0  0  0  0  0  0  0  0  0
   -0.5337   -0.5542   -1.7064 H   0  0  0  0  0  0  0  0  0  0  0  0
    0.8195    0.4553   -1.1796 H   0  0  0  0  0  0  0  0  0  0  0  0
    1.1447   -1.6622   -0.9486 C   0  0  0  0  0  0  0  0  0  0  0  0
    1.9772   -1.4926   -1.6312 H   0  0  0  0  0  0  0  0  0  0  0  0
    1.5428   -1.8194    0.0538 H   0  0  0  0  0  0  0  0  0  0  0  0
    0.4275   -2.9390   -1.3867 C   0  0  0  0  0  0  0  0  0  0  0  0
   -0.7648   -2.9887   -1.6245 O   0  0  0  0  0  0  0  0  0  0  0  0
    1.1351   -4.0396   -1.5215 N   0  0  0  0  0  0  0  0  0  0  0  0
    0.6135   -4.8482   -1.8123 H   0  0  0  0  0  0  0  0  0  0  0  0
    2.1185   -4.0536   -1.3415 H   0  0  0  0  0  0  0  0  0  0  0  0
   -0.7011    1.2952    0.7149 C   0  0  0  0  0  0  0  0  0  0  0  0
   -1.5917    1.9198    0.1415 O   0  0  0  0  0  0  0  0  0  0  0  0
    0.1191    1.8675    1.6055 N   0  0  0  0  0  0  0  0  0  0  0  0
    0.8092    1.2861    2.0537 H   0  0  0  0  0  0  0  0  0  0  0  0
    0.0509    3.2769    1.9894 C   0  0  0  0  0  0  0  0  0  0  0  0
   -0.9494    3.5076    2.3640 H   0  0  0  0  0  0  0  0  0  0  0  0
    0.7844    3.4956    2.7668 H   0  0  0  0  0  0  0  0  0  0  0  0
    0.2468    3.9058    1.1193 H   0  0  0  0  0  0  0  0  0  0  0  0
  5  6  2  0  0  0  0
  5  7  1  0  0  0  0
  2  3  1  0  0  0  0
  2  4  1  0  0  0  0
  2  5  1  0  0  0  0
  1  2  1  0  0  0  0
 22 23  2  0  0  0  0
 22 24  1  0  0  0  0
 19 20  1  0  0  0  0
 19 21  1  0  0  0  0
 17 18  2  0  0  0  0
 17 19  1  0  0  0  0
 14 15  1  0  0  0  0
 14 16  1  0  0  0  0
 14 17  1  0  0  0  0
 11 12  1  0  0  0  0
 11 13  1  0  0  0  0
 11 14  1  0  0  0  0
  9 10  1  0  0  0  0
  9 11  1  0  0  0  0
  9 22  1  0  0  0  0
  7  8  1  0  0  0  0
  7  9  1  0  0  0  0
 26 27  1  0  0  0  0
 26 28  1  0  0  0  0
 26 29  1  0  0  0  0
 24 25  1  0  0  0  0
 24 26  1  0  0  0  0
M  END
$$$$
default_name
  -OEChem-02102213163D

 29 28  0     1  0  0  0  0  0999 V2000
   -3.3998   -3.6239    1.3678 H   0  0  0  0  0  0  0  0  0  0  0  0
   -3.3608   -2.6749    0.8348 C   0  0  0  0  0  0  0  0  0  0  0  0
   -4.0988   -1.9909    1.2498 H   0  0  0  0  0  0  0  0  0  0  0  0
   -3.5618   -2.8419   -0.2222 H   0  0  0  0  0  0  0  0  0  0  0  0
   -1.9818   -2.0809    0.9918 C   0  0  0  0  0  0  0  0  0  0  0  0
   -1.1288   -2.6669    1.6468 O   0  0  0  0  0  0  0  0  0  0  0  0
   -1.7648   -0.9089    0.3998 N   0  0  0  0  0  0  0  0  0  0  0  0
   -2.5238   -0.4719   -0.1032 H   0  0  0  0  0  0  0  0  0  0  0  0
   -0.4848   -0.1959    0.4138 C   0  0  1  0  0  0  0  0  0  0  0  0
    0.1386   -0.6144    1.2058 H   0  0  0  0  0  0  0  0  0  0  0  0
    0.2271   -0.4272   -0.9334 C   0  0  0  0  0  0  0  0  0  0  0  0
   -0.5337   -0.5542   -1.7064 H   0  0  0  0  0  0  0  0  0  0  0  0
    0.8195    0.4553   -1.1796 H   0  0  0  0  0  0  0  0  0  0  0  0
    1.1447   -1.6622   -0.9486 C   0  0  0  0  0  0  0  0  0  0  0  0
    2.0985   -1.4052   -1.4089 H   0  0  0  0  0  0  0  0  0  0  0  0
    1.3278   -1.9794    0.0780 H   0  0  0  0  0  0  0  0  0  0  0  0
    0.5519   -2.8425   -1.7180 C   0  0  0  0  0  0  0  0  0  0  0  0
   -0.5641   -2.8325   -2.2029 O   0  0  0  0  0  0  0  0  0  0  0  0
    1.2872   -3.9223   -1.8716 N   0  0  0  0  0  0  0  0  0  0  0  0
    0.8486   -4.6664   -2.3858 H   0  0  0  0  0  0  0  0  0  0  0  0
    2.2118   -3.9824   -1.4958 H   0  0  0  0  0  0  0  0  0  0  0  0
   -0.7011    1.2952    0.7149 C   0  0  0  0  0  0  0  0  0  0  0  0
   -1.5917    1.9198    0.1415 O   0  0  0  0  0  0  0  0  0  0  0  0
    0.1191    1.8675    1.6055 N   0  0  0  0  0  0  0  0  0  0  0  0
    0.8092    1.2861    2.0537 H   0  0  0  0  0  0  0  0  0  0  0  0
    0.0509    3.2769    1.9894 C   0  0  0  0  0  0  0  0  0  0  0  0
   -0.9494    3.5076    2.3640 H   0  0  0  0  0  0  0  0  0  0  0  0
    0.7844    3.4956    2.7668 H   0  0  0  0  0  0  0  0  0  0  0  0
    0.2468    3.9058    1.1193 H   0  0  0  0  0  0  0  0  0  0  0  0
  5  6  2  0  0  0  0
  5  7  1  0  0  0  0
  2  3  1  0  0  0  0
  2  4  1  0  0  0  0
  2  5  1  0  0  0  0
  1  2  1  0  0  0  0
 22 23  2  0  0  0  0
 22 24  1  0  0  0  0
 19 20  1  0  0  0  0
 19 21  1  0  0  0  0
 17 18  2  0  0  0  0
 17 19  1  0  0  0  0
 14 15  1  0  0  0  0
 14 16  1  0  0  0  0
 14 17  1  0  0  0  0
 11 12  1  0  0  0  0
 11 13  1  0  0  0  0
 11 14  1  0  0  0  0
  9 10  1  0  0  0  0
  9 11  1  0  0  0  0
  9 22  1  0  0  0  0
  7  8  1  0  0  0  0
  7  9  1  0  0  0  0
 26 27  1  0  0  0  0
 26 28  1  0  0  0  0
 26 29  1  0  0  0  0
 24 25  1  0  0  0  0
 24 26  1  0  0  0  0
M  END
$$$$
default_name
  -OEChem-02102213163D

 29 28  0     1  0  0  0  0  0999 V2000
   -3.3998   -3.6239    1.3678 H   0  0  0  0  0  0  0  0  0  0  0  0
   -3.3608   -2.6749    0.8348 C   0  0  0  0  0  0  0  0  0  0  0  0
   -4.0988   -1.9909    1.2498 H   0  0  0  0  0  0  0  0  0  0  0  0
   -3.5618   -2.8419   -0.2222 H   0  0  0  0  0  0  0  0  0  0  0  0
   -1.9818   -2.0809    0.9918 C   0  0  0  0  0  0  0  0  0  0  0  0
   -1.1288   -2.6669    1.6468 O   0  0  0  0  0  0  0  0  0  0  0  0
   -1.7648   -0.9089    0.3998 N   0  0  0  0  0  0  0  0  0  0  0  0
   -2.5238   -0.4719   -0.1032 H   0  0  0  0  0  0  0  0  0  0  0  0
   -0.4848   -0.1959    0.4138 C   0  0  1  0  0  0  0  0  0  0  0  0
    0.1386   -0.6144    1.2058 H   0  0  0  0  0  0  0  0  0  0  0  0
    0.2271   -0.4272   -0.9334 C   0  0  0  0  0  0  0  0  0  0  0  0
   -0.5337   -0.5542   -1.7064 H   0  0  0  0  0  0  0  0  0  0  0  0
    0.8195    0.4553   -1.1796 H   0  0  0  0  0  0  0  0  0  0  0  0
    1.1447   -1.6622   -0.9486 C   0  0  0  0  0  0  0  0  0  0  0  0
    2.1697   -1.3554   -1.1556 H   0  0  0  0  0  0  0  0  0  0  0  0
    1.1147   -2.1372    0.0320 H   0  0  0  0  0  0  0  0  0  0  0  0
    0.7412   -2.6984   -1.9974 C   0  0  0  0  0  0  0  0  0  0  0  0
   -0.2496   -2.5928   -2.6958 O   0  0  0  0  0  0  0  0  0  0  0  0
    1.5071   -3.7554   -2.1601 N   0  0  0  0  0  0  0  0  0  0  0  0
    1.1953   -4.4030   -2.8628 H   0  0  0  0  0  0  0  0  0  0  0  0
    2.3340   -3.8901   -1.6145 H   0  0  0  0  0  0  0  0  0  0  0  0
   -0.7011    1.2952    0.7149 C   0  0  0  0  0  0  0  0  0  0  0  0
   -1.5917    1.9198    0.1415 O   0  0  0  0  0  0  0  0  0  0  0  0
    0.1191    1.8675    1.6055 N   0  0  0  0  0  0  0  0  0  0  0  0
    0.8092    1.2861    2.0537 H   0  0  0  0  0  0  0  0  0  0  0  0
    0.0509    3.2769    1.9894 C   0  0  0  0  0  0  0  0  0  0  0  0
   -0.9494    3.5076    2.3640 H   0  0  0  0  0  0  0  0  0  0  0  0
    0.7844    3.4956    2.7668 H   0  0  0  0  0  0  0  0  0  0  0  0
    0.2468    3.9058    1.1193 H   0  0  0  0  0  0  0  0  0  0  0  0
  5  6  2  0  0  0  0
  5  7  1  0  0  0  0
  2  3  1  0  0  0  0
  2  4  1  0  0  0  0
  2  5  1  0  0  0  0
  1  2  1  0  0  0  0
 22 23  2  0  0  0  0
 22 24  1  0  0  0  0
 19 20  1  0  0  0  0
 19 21  1  0  0  0  0
 17 18  2  0  0  0  0
 17 19  1  0  0  0  0
 14 15  1  0  0  0  0
 14 16  1  0  0  0  0
 14 17  1  0  0  0  0
 11 12  1  0  0  0  0
 11 13  1  0  0  0  0
 11 14  1  0  0  0  0
  9 10  1  0  0  0  0
  9 11  1  0  0  0  0
  9 22  1  0  0  0  0
  7  8  1  0  0  0  0
  7  9  1  0  0  0  0
 26 27  1  0  0  0  0
 26 28  1  0  0  0  0
 26 29  1  0  0  0  0
 24 25  1  0  0  0  0
 24 26  1  0  0  0  0
M  END
$$$$
default_name
  -OEChem-02102213163D

 29 28  0     1  0  0  0  0  0999 V2000
   -3.3998   -3.6239    1.3678 H   0  0  0  0  0  0  0  0  0  0  0  0
   -3.3608   -2.6749    0.8348 C   0  0  0  0  0  0  0  0  0  0  0  0
   -4.0988   -1.9909    1.2498 H   0  0  0  0  0  0  0  0  0  0  0  0
   -3.5618   -2.8419   -0.2222 H   0  0  0  0  0  0  0  0  0  0  0  0
   -1.9818   -2.0809    0.9918 C   0  0  0  0  0  0  0  0  0  0  0  0
   -1.1288   -2.6669    1.6468 O   0  0  0  0  0  0  0  0  0  0  0  0
   -1.7648   -0.9089    0.3998 N   0  0  0  0  0  0  0  0  0  0  0  0
   -2.5238   -0.4719   -0.1032 H   0  0  0  0  0  0  0  0  0  0  0  0
   -0.4848   -0.1959    0.4138 C   0  0  1  0  0  0  0  0  0  0  0  0
    0.1386   -0.6144    1.2058 H   0  0  0  0  0  0  0  0  0  0  0  0
    0.2271   -0.4272   -0.9334 C   0  0  0  0  0  0  0  0  0  0  0  0
   -0.5337   -0.5542   -1.7064 H   0  0  0  0  0  0  0  0  0  0  0  0
    0.8195    0.4553   -1.1796 H   0  0  0  0  0  0  0  0  0  0  0  0
    1.1447   -1.6622   -0.9486 C   0  0  0  0  0  0  0  0  0  0  0  0
    2.1861   -1.3465   -0.8883 H   0  0  0  0  0  0  0  0  0  0  0  0
    0.9180   -2.2820   -0.0811 H   0  0  0  0  0  0  0  0  0  0  0  0
    0.9824   -2.5166   -2.2056 C   0  0  0  0  0  0  0  0  0  0  0  0
    0.1571   -2.2860   -3.0695 O   0  0  0  0  0  0  0  0  0  0  0  0
    1.7799   -3.5501   -2.3672 N   0  0  0  0  0  0  0  0  0  0  0  0
    1.6299   -4.0758   -3.2109 H   0  0  0  0  0  0  0  0  0  0  0  0
    2.4771   -3.7829   -1.6894 H   0  0  0  0  0  0  0  0  0  0  0  0
   -0.7011    1.2952    0.7149 C   0  0  0  0  0  0  0  0  0  0  0  0
   -1.5917    1.9198    0.1415 O   0  0  0  0  0  0  0  0  0  0  0  0
    0.1191    1.8675    1.6055 N   0  0  0  0  0  0  0  0  0  0  0  0
    0.8092    1.2861    2.0537 H   0  0  0  0  0  0  0  0  0  0  0  0
    0.0509    3.2769    1.9894 C   0  0  0  0  0  0  0  0  0  0  0  0
   -0.9494    3.5076    2.3640 H   0  0  0  0  0  0  0  0  0  0  0  0
    0.7844    3.4956    2.7668 H   0  0  0  0  0  0  0  0  0  0  0  0
    0.2468    3.9058    1.1193 H   0  0  0  0  0  0  0  0  0  0  0  0
  5  6  2  0  0  0  0
  5  7  1  0  0  0  0
  2  3  1  0  0  0  0
  2  4  1  0  0  0  0
  2  5  1  0  0  0  0
  1  2  1  0  0  0  0
 22 23  2  0  0  0  0
 22 24  1  0  0  0  0
 19 20  1  0  0  0  0
 19 21  1  0  0  0  0
 17 18  2  0  0  0  0
 17 19  1  0  0  0  0
 14 15  1  0  0  0  0
 14 16  1  0  0  0  0
 14 17  1  0  0  0  0
 11 12  1  0  0  0  0
 11 13  1  0  0  0  0
 11 14  1  0  0  0  0
  9 10  1  0  0  0  0
  9 11  1  0  0  0  0
  9 22  1  0  0  0  0
  7  8  1  0  0  0  0
  7  9  1  0  0  0  0
 26 27  1  0  0  0  0
 26 28  1  0  0  0  0
 26 29  1  0  0  0  0
 24 25  1  0  0  0  0
 24 26  1  0  0  0  0
M  END
$$$$
default_name
  -OEChem-02102213163D

 29 28  0     1  0  0  0  0  0999 V2000
   -3.3998   -3.6239    1.3678 H   0  0  0  0  0  0  0  0  0  0  0  0
   -3.3608   -2.6749    0.8348 C   0  0  0  0  0  0  0  0  0  0  0  0
   -4.0988   -1.9909    1.2498 H   0  0  0  0  0  0  0  0  0  0  0  0
   -3.5618   -2.8419   -0.2222 H   0  0  0  0  0  0  0  0  0  0  0  0
   -1.9818   -2.0809    0.9918 C   0  0  0  0  0  0  0  0  0  0  0  0
   -1.1288   -2.6669    1.6468 O   0  0  0  0  0  0  0  0  0  0  0  0
   -1.7648   -0.9089    0.3998 N   0  0  0  0  0  0  0  0  0  0  0  0
   -2.5238   -0.4719   -0.1032 H   0  0  0  0  0  0  0  0  0  0  0  0
   -0.4848   -0.1959    0.4138 C   0  0  1  0  0  0  0  0  0  0  0  0
    0.1386   -0.6144    1.2058 H   0  0  0  0  0  0  0  0  0  0  0  0
    0.2271   -0.4272   -0.9334 C   0  0  0  0  0  0  0  0  0  0  0  0
   -0.5337   -0.5542   -1.7064 H   0  0  0  0  0  0  0  0  0  0  0  0
    0.8195    0.4553   -1.1796 H   0  0  0  0  0  0  0  0  0  0  0  0
    1.1447   -1.6622   -0.9486 C   0  0  0  0  0  0  0  0  0  0  0  0
    2.1463   -1.3793   -0.6255 H   0  0  0  0  0  0  0  0  0  0  0  0
    0.7512   -2.4038   -0.2536 H   0  0  0  0  0  0  0  0  0  0  0  0
    1.2591   -2.3095   -2.3286 C   0  0  0  0  0  0  0  0  0  0  0  0
    0.6284   -1.9330   -3.2987 O   0  0  0  0  0  0  0  0  0  0  0  0
    2.0869   -3.3206   -2.4790 N   0  0  0  0  0  0  0  0  0  0  0  0
    2.1229   -3.7071   -3.4063 H   0  0  0  0  0  0  0  0  0  0  0  0
    2.6310   -3.6682   -1.7156 H   0  0  0  0  0  0  0  0  0  0  0  0
   -0.7011    1.2952    0.7149 C   0  0  0  0  0  0  0  0  0  0  0  0
   -1.5917    1.9198    0.1415 O   0  0  0  0  0  0  0  0  0  0  0  0
    0.1191    1.8675    1.6055 N   0  0  0  0  0  0  0  0  0  0  0  0
    0.8092    1.2861    2.0537 H   0  0  0  0  0  0  0  0  0  0  0  0
    0.0509    3.2769    1.9894 C   0  0  0  0  0  0  0  0  0  0  0  0
   -0.9494    3.5076    2.3640 H   0  0  0  0  0  0  0  0  0  0  0  0
    0.7844    3.4956    2.7668 H   0  0  0  0  0  0  0  0  0  0  0  0
    0.2468    3.9058    1.1193 H   0  0  0  0  0  0  0  0  0  0  0  0
  5  6  2  0  0  0  0
  5  7  1  0  0  0  0
  2  3  1  0  0  0  0
  2  4  1  0  0  0  0
  2  5  1  0  0  0  0
  1  2  1  0  0  0  0
 22 23  2  0  0  0  0
 22 24  1  0  0  0  0
 19 20  1  0  0  0  0
 19 21  1  0  0  0  0
 17 18  2  0  0  0  0
 17 19  1  0  0  0  0
 14 15  1  0  0  0  0
 14 16  1  0  0  0  0
 14 17  1  0  0  0  0
 11 12  1  0  0  0  0
 11 13  1  0  0  0  0
 11 14  1  0  0  0  0
  9 10  1  0  0  0  0
  9 11  1  0  0  0  0
  9 22  1  0  0  0  0
  7  8  1  0  0  0  0
  7  9  1  0  0  0  0
 26 27  1  0  0  0  0
 26 28  1  0  0  0  0
 26 29  1  0  0  0  0
 24 25  1  0  0  0  0
 24 26  1  0  0  0  0
M  END
$$$$
default_name
  -OEChem-02102213163D

 29 28  0     1  0  0  0  0  0999 V2000
   -3.3998   -3.6239    1.3678 H   0  0  0  0  0  0  0  0  0  0  0  0
   -3.3608   -2.6749    0.8348 C   0  0  0  0  0  0  0  0  0  0  0  0
   -4.0988   -1.9909    1.2498 H   0  0  0  0  0  0  0  0  0  0  0  0
   -3.5618   -2.8419   -0.2222 H   0  0  0  0  0  0  0  0  0  0  0  0
   -1.9818   -2.0809    0.9918 C   0  0  0  0  0  0  0  0  0  0  0  0
   -1.1288   -2.6669    1.6468 O   0  0  0  0  0  0  0  0  0  0  0  0
   -1.7648   -0.9089    0.3998 N   0  0  0  0  0  0  0  0  0  0  0  0
   -2.5238   -0.4719   -0.1032 H   0  0  0  0  0  0  0  0  0  0  0  0
   -0.4848   -0.1959    0.4138 C   0  0  1  0  0  0  0  0  0  0  0  0
    0.1386   -0.6144    1.2058 H   0  0  0  0  0  0  0  0  0  0  0  0
    0.2271   -0.4272   -0.9334 C   0  0  0  0  0  0  0  0  0  0  0  0
   -0.5337   -0.5542   -1.7064 H   0  0  0  0  0  0  0  0  0  0  0  0
    0.8195    0.4553   -1.1796 H   0  0  0  0  0  0  0  0  0  0  0  0
    1.1447   -1.6622   -0.9486 C   0  0  0  0  0  0  0  0  0  0  0  0
    2.0533   -1.4514   -0.3849 H   0  0  0  0  0  0  0  0  0  0  0  0
    0.6255   -2.4945   -0.4736 H   0  0  0  0  0  0  0  0  0  0  0  0
    1.5524   -2.0912   -2.3579 C   0  0  0  0  0  0  0  0  0  0  0  0
    1.1322   -1.5579   -3.3676 O   0  0  0  0  0  0  0  0  0  0  0  0
    2.4073   -3.0825   -2.4878 N   0  0  0  0  0  0  0  0  0  0  0  0
    2.6407   -3.3220   -3.4357 H   0  0  0  0  0  0  0  0  0  0  0  0
    2.7855   -3.5537   -1.6911 H   0  0  0  0  0  0  0  0  0  0  0  0
   -0.7011    1.2952    0.7149 C   0  0  0  0  0  0  0  0  0  0  0  0
   -1.5917    1.9198    0.1415 O   0  0  0  0  0  0  0  0  0  0  0  0
    0.1191    1.8675    1.6055 N   0  0  0  0  0  0  0  0  0  0  0  0
    0.8092    1.2861    2.0537 H   0  0  0  0  0  0  0  0  0  0  0  0
    0.0509    3.2769    1.9894 C   0  0  0  0  0  0  0  0  0  0  0  0
   -0.9494    3.5076    2.3640 H   0  0  0  0  0  0  0  0  0  0  0  0
    0.7844    3.4956    2.7668 H   0  0  0  0  0  0  0  0  0  0  0  0
    0.2468    3.9058    1.1193 H   0  0  0  0  0  0  0  0  0  0  0  0
  5  6  2  0  0  0  0
  5  7  1  0  0  0  0
  2  3  1  0  0  0  0
  2  4  1  0  0  0  0
  2  5  1  0  0  0  0
  1  2  1  0  0  0  0
 22 23  2  0  0  0  0
 22 24  1  0  0  0  0
 19 20  1  0  0  0  0
 19 21  1  0  0  0  0
 17 18  2  0  0  0  0
 17 19  1  0  0  0  0
 14 15  1  0  0  0  0
 14 16  1  0  0  0  0
 14 17  1  0  0  0  0
 11 12  1  0  0  0  0
 11 13  1  0  0  0  0
 11 14  1  0  0  0  0
  9 10  1  0  0  0  0
  9 11  1  0  0  0  0
  9 22  1  0  0  0  0
  7  8  1  0  0  0  0
  7  9  1  0  0  0  0
 26 27  1  0  0  0  0
 26 28  1  0  0  0  0
 26 29  1  0  0  0  0
 24 25  1  0  0  0  0
 24 26  1  0  0  0  0
M  END
$$$$
default_name
  -OEChem-02102213163D

 29 28  0     1  0  0  0  0  0999 V2000
   -3.3998   -3.6239    1.3678 H   0  0  0  0  0  0  0  0  0  0  0  0
   -3.3608   -2.6749    0.8348 C   0  0  0  0  0  0  0  0  0  0  0  0
   -4.0988   -1.9909    1.2498 H   0  0  0  0  0  0  0  0  0  0  0  0
   -3.5618   -2.8419   -0.2222 H   0  0  0  0  0  0  0  0  0  0  0  0
   -1.9818   -2.0809    0.9918 C   0  0  0  0  0  0  0  0  0  0  0  0
   -1.1288   -2.6669    1.6468 O   0  0  0  0  0  0  0  0  0  0  0  0
   -1.7648   -0.9089    0.3998 N   0  0  0  0  0  0  0  0  0  0  0  0
   -2.5238   -0.4719   -0.1032 H   0  0  0  0  0  0  0  0  0  0  0  0
   -0.4848   -0.1959    0.4138 C   0  0  1  0  0  0  0  0  0  0  0  0
    0.1386   -0.6144    1.2058 H   0  0  0  0  0  0  0  0  0  0  0  0
    0.2271   -0.4272   -0.9334 C   0  0  0  0  0  0  0  0  0  0  0  0
   -0.5011   -0.2871   -1.7350 H   0  0  0  0  0  0  0  0  0  0  0  0
    1.0141    0.3189   -1.0534 H   0  0  0  0  0  0  0  0  0  0  0  0
    0.8444   -1.8290   -1.0786 C   0  0  0  0  0  0  0  0  0  0  0  0
    1.5754   -1.9921   -0.2869 H   0  0  0  0  0  0  0  0  0  0  0  0
    0.0553   -2.5747   -0.9828 H   0  0  0  0  0  0  0  0  0  0  0  0
    1.5461   -2.0412   -2.4200 C   0  0  0  0  0  0  0  0  0  0  0  0
    1.5494   -1.2134   -3.3117 O   0  0  0  0  0  0  0  0  0  0  0  0
    2.1863   -3.1729   -2.6194 N   0  0  0  0  0  0  0  0  0  0  0  0
    2.6297   -3.2586   -3.5174 H   0  0  0  0  0  0  0  0  0  0  0  0
    2.2173   -3.8858   -1.9191 H   0  0  0  0  0  0  0  0  0  0  0  0
   -0.7011    1.2952    0.7149 C   0  0  0  0  0  0  0  0  0  0  0  0
   -1.5917    1.9198    0.1415 O   0  0  0  0  0  0  0  0  0  0  0  0
    0.1191    1.8675    1.6055 N   0  0  0  0  0  0  0  0  0  0  0  0
    0.8092    1.2861    2.0537 H   0  0  0  0  0  0  0  0  0  0  0  0
    0.0509    3.2769    1.9894 C   0  0  0  0  0  0  0  0  0  0  0  0
   -0.9494    3.5076    2.3640 H   0  0  0  0  0  0  0  0  0  0  0  0
    0.7844    3.4956    2.7668 H   0  0  0  0  0  0  0  0  0  0  0  0
    0.2468    3.9058    1.1193 H   0  0  0  0  0  0  0  0  0  0  0  0
  5  6  2  0  0  0  0
  5  7  1  0  0  0  0
  2  3  1  0  0  0  0
  2  4  1  0  0  0  0
  2  5  1  0  0  0  0
  1  2  1  0  0  0  0
 22 23  2  0  0  0  0
 22 24  1  0  0  0  0
 19 20  1  0  0  0  0
 19 21  1  0  0  0  0
 17 18  2  0  0  0  0
 17 19  1  0  0  0  0
 14 15  1  0  0  0  0
 14 16  1  0  0  0  0
 14 17  1  0  0  0  0
 11 12  1  0  0  0  0
 11 13  1  0  0  0  0
 11 14  1  0  0  0  0
  9 10  1  0  0  0  0
  9 11  1  0  0  0  0
  9 22  1  0  0  0  0
  7  8  1  0  0  0  0
  7  9  1  0  0  0  0
 26 27  1  0  0  0  0
 26 28  1  0  0  0  0
 26 29  1  0  0  0  0
 24 25  1  0  0  0  0
 24 26  1  0  0  0  0
M  END
$$$$
default_name
  -OEChem-02102213163D

 29 28  0     1  0  0  0  0  0999 V2000
   -3.3998   -3.6239    1.3678 H   0  0  0  0  0  0  0  0  0  0  0  0
   -3.3608   -2.6749    0.8348 C   0  0  0  0  0  0  0  0  0  0  0  0
   -4.0988   -1.9909    1.2498 H   0  0  0  0  0  0  0  0  0  0  0  0
   -3.5618   -2.8419   -0.2222 H   0  0  0  0  0  0  0  0  0  0  0  0
   -1.9818   -2.0809    0.9918 C   0  0  0  0  0  0  0  0  0  0  0  0
   -1.1288   -2.6669    1.6468 O   0  0  0  0  0  0  0  0  0  0  0  0
   -1.7648   -0.9089    0.3998 N   0  0  0  0  0  0  0  0  0  0  0  0
   -2.5238   -0.4719   -0.1032 H   0  0  0  0  0  0  0  0  0  0  0  0
   -0.4848   -0.1959    0.4138 C   0  0  1  0  0  0  0  0  0  0  0  0
    0.1386   -0.6144    1.2058 H   0  0  0  0  0  0  0  0  0  0  0  0
    0.2271   -0.4272   -0.9334 C   0  0  0  0  0  0  0  0  0  0  0  0
   -0.5011   -0.2871   -1.7350 H   0  0  0  0  0  0  0  0  0  0  0  0
    1.0141    0.3189   -1.0534 H   0  0  0  0  0  0  0  0  0  0  0  0
    0.8444   -1.8290   -1.0786 C   0  0  0  0  0  0  0  0  0  0  0  0
    1.3648   -2.0980   -0.1596 H   0  0  0  0  0  0  0  0  0  0  0  0
    0.0462   -2.5510   -1.2507 H   0  0  0  0  0  0  0  0  0  0  0  0
    1.8416   -1.9305   -2.2327 C   0  0  0  0  0  0  0  0  0  0  0  0
    2.0661   -1.0176   -3.0053 O   0  0  0  0  0  0  0  0  0  0  0  0
    2.4971   -3.0591   -2.3961 N   0  0  0  0  0  0  0  0  0  0  0  0
    3.1399   -3.0701   -3.1690 H   0  0  0  0  0  0  0  0  0  0  0  0
    2.3527   -3.8397   -1.7883 H   0  0  0  0  0  0  0  0  0  0  0  0
   -0.7011    1.2952    0.7149 C   0  0  0  0  0  0  0  0  0  0  0  0
   -1.5917    1.9198    0.1415 O   0  0  0  0  0  0  0  0  0  0  0  0
    0.1191    1.8675    1.6055 N   0  0  0  0  0  0  0  0  0  0  0  0
    0.8092    1.2861    2.0537 H   0  0  0  0  0  0  0  0  0  0  0  0
    0.0509    3.2769    1.9894 C   0  0  0  0  0  0  0  0  0  0  0  0
   -0.9494    3.5076    2.3640 H   0  0  0  0  0  0  0  0  0  0  0  0
    0.7844    3.4956    2.7668 H   0  0  0  0  0  0  0  0  0  0  0  0
    0.2468    3.9058    1.1193 H   0  0  0  0  0  0  0  0  0  0  0  0
  5  6  2  0  0  0  0
  5  7  1  0  0  0  0
  2  3  1  0  0  0  0
  2  4  1  0  0  0  0
  2  5  1  0  0  0  0
  1  2  1  0  0  0  0
 22 23  2  0  0  0  0
 22 24  1  0  0  0  0
 19 20  1  0  0  0  0
 19 21  1  0  0  0  0
 17 18  2  0  0  0  0
 17 19  1  0  0  0  0
 14 15  1  0  0  0  0
 14 16  1  0  0  0  0
 14 17  1  0  0  0  0
 11 12  1  0  0  0  0
 11 13  1  0  0  0  0
 11 14  1  0  0  0  0
  9 10  1  0  0  0  0
  9 11  1  0  0  0  0
  9 22  1  0  0  0  0
  7  8  1  0  0  0  0
  7  9  1  0  0  0  0
 26 27  1  0  0  0  0
 26 28  1  0  0  0  0
 26 29  1  0  0  0  0
 24 25  1  0  0  0  0
 24 26  1  0  0  0  0
M  END
$$$$
default_name
  -OEChem-02102213163D

 29 28  0     1  0  0  0  0  0999 V2000
   -3.3998   -3.6239    1.3678 H   0  0  0  0  0  0  0  0  0  0  0  0
   -3.3608   -2.6749    0.8348 C   0  0  0  0  0  0  0  0  0  0  0  0
   -4.0988   -1.9909    1.2498 H   0  0  0  0  0  0  0  0  0  0  0  0
   -3.5618   -2.8419   -0.2222 H   0  0  0  0  0  0  0  0  0  0  0  0
   -1.9818   -2.0809    0.9918 C   0  0  0  0  0  0  0  0  0  0  0  0
   -1.1288   -2.6669    1.6468 O   0  0  0  0  0  0  0  0  0  0  0  0
   -1.7648   -0.9089    0.3998 N   0  0  0  0  0  0  0  0  0  0  0  0
   -2.5238   -0.4719   -0.1032 H   0  0  0  0  0  0  0  0  0  0  0  0
   -0.4848   -0.1959    0.4138 C   0  0  1  0  0  0  0  0  0  0  0  0
    0.1386   -0.6144    1.2058 H   0  0  0  0  0  0  0  0  0  0  0  0
    0.2271   -0.4272   -0.9334 C   0  0  0  0  0  0  0  0  0  0  0  0
   -0.5011   -0.2871   -1.7350 H   0  0  0  0  0  0  0  0  0  0  0  0
    1.0141    0.3189   -1.0534 H   0  0  0  0  0  0  0  0  0  0  0  0
    0.8444   -1.8290   -1.0786 C   0  0  0  0  0  0  0  0  0  0  0  0
    1.1288   -2.2083   -0.0973 H   0  0  0  0  0  0  0  0  0  0  0  0
    0.1012   -2.5000   -1.5092 H   0  0  0  0  0  0  0  0  0  0  0  0
    2.0855   -1.8502   -1.9708 C   0  0  0  0  0  0  0  0  0  0  0  0
    2.4977   -0.8730   -2.5671 O   0  0  0  0  0  0  0  0  0  0  0  0
    2.7476   -2.9800   -2.0954 N   0  0  0  0  0  0  0  0  0  0  0  0
    3.5550   -2.9366   -2.6926 H   0  0  0  0  0  0  0  0  0  0  0  0
    2.4538   -3.8121   -1.6253 H   0  0  0  0  0  0  0  0  0  0  0  0
   -0.7011    1.2952    0.7149 C   0  0  0  0  0  0  0  0  0  0  0  0
   -1.5917    1.9198    0.1415 O   0  0  0  0  0  0  0  0  0  0  0  0
    0.1191    1.8675    1.6055 N   0  0  0  0  0  0  0  0  0  0  0  0
    0.8092    1.2861    2.0537 H   0  0  0  0  0  0  0  0  0  0  0  0
    0.0509    3.2769    1.9894 C   0  0  0  0  0  0  0  0  0  0  0  0
   -0.9494    3.5076    2.3640 H   0  0  0  0  0  0  0  0  0  0  0  0
    0.7844    3.4956    2.7668 H   0  0  0  0  0  0  0  0  0  0  0  0
    0.2468    3.9058    1.1193 H   0  0  0  0  0  0  0  0  0  0  0  0
  5  6  2  0  0  0  0
  5  7  1  0  0  0  0
  2  3  1  0  0  0  0
  2  4  1  0  0  0  0
  2  5  1  0  0  0  0
  1  2  1  0  0  0  0
 22 23  2  0  0  0  0
 22 24  1  0  0  0  0
 19 20  1  0  0  0  0
 19 21  1  0  0  0  0
 17 18  2  0  0  0  0
 17 19  1  0  0  0  0
 14 15  1  0  0  0  0
 14 16  1  0  0  0  0
 14 17  1  0  0  0  0
 11 12  1  0  0  0  0
 11 13  1  0  0  0  0
 11 14  1  0  0  0  0
  9 10  1  0  0  0  0
  9 11  1  0  0  0  0
  9 22  1  0  0  0  0
  7  8  1  0  0  0  0
  7  9  1  0  0  0  0
 26 27  1  0  0  0  0
 26 28  1  0  0  0  0
 26 29  1  0  0  0  0
 24 25  1  0  0  0  0
 24 26  1  0  0  0  0
M  END
$$$$
default_name
  -OEChem-02102213163D

 29 28  0     1  0  0  0  0  0999 V2000
   -3.3998   -3.6239    1.3678 H   0  0  0  0  0  0  0  0  0  0  0  0
   -3.3608   -2.6749    0.8348 C   0  0  0  0  0  0  0  0  0  0  0  0
   -4.0988   -1.9909    1.2498 H   0  0  0  0  0  0  0  0  0  0  0  0
   -3.5618   -2.8419   -0.2222 H   0  0  0  0  0  0  0  0  0  0  0  0
   -1.9818   -2.0809    0.9918 C   0  0  0  0  0  0  0  0  0  0  0  0
   -1.1288   -2.6669    1.6468 O   0  0  0  0  0  0  0  0  0  0  0  0
   -1.7648   -0.9089    0.3998 N   0  0  0  0  0  0  0  0  0  0  0  0
   -2.5238   -0.4719   -0.1032 H   0  0  0  0  0  0  0  0  0  0  0  0
   -0.4848   -0.1959    0.4138 C   0  0  1  0  0  0  0  0  0  0  0  0
    0.1386   -0.6144    1.2058 H   0  0  0  0  0  0  0  0  0  0  0  0
    0.2271   -0.4272   -0.9334 C   0  0  0  0  0  0  0  0  0  0  0  0
   -0.5011   -0.2871   -1.7350 H   0  0  0  0  0  0  0  0  0  0  0  0
    1.0141    0.3189   -1.0534 H   0  0  0  0  0  0  0  0  0  0  0  0
    0.8444   -1.8290   -1.0786 C   0  0  0  0  0  0  0  0  0  0  0  0
    0.8835   -2.3156   -0.1042 H   0  0  0  0  0  0  0  0  0  0  0  0
    0.2165   -2.4252   -1.7406 H   0  0  0  0  0  0  0  0  0  0  0  0
    2.2613   -1.8059   -1.6518 C   0  0  0  0  0  0  0  0  0  0  0  0
    2.8148   -0.7893   -2.0270 O   0  0  0  0  0  0  0  0  0  0  0  0
    2.9205   -2.9409   -1.7376 N   0  0  0  0  0  0  0  0  0  0  0  0
    3.8470   -2.8673   -2.1206 H   0  0  0  0  0  0  0  0  0  0  0  0
    2.5137   -3.8048   -1.4411 H   0  0  0  0  0  0  0  0  0  0  0  0
   -0.7011    1.2952    0.7149 C   0  0  0  0  0  0  0  0  0  0  0  0
   -1.5917    1.9198    0.1415 O   0  0  0  0  0  0  0  0  0  0  0  0
    0.1191    1.8675    1.6055 N   0  0  0  0  0  0  0  0  0  0  0  0
    0.8092    1.2861    2.0537 H   0  0  0  0  0  0  0  0  0  0  0  0
    0.0509    3.2769    1.9894 C   0  0  0  0  0  0  0  0  0  0  0  0
   -0.9494    3.5076    2.3640 H   0  0  0  0  0  0  0  0  0  0  0  0
    0.7844    3.4956    2.7668 H   0  0  0  0  0  0  0  0  0  0  0  0
    0.2468    3.9058    1.1193 H   0  0  0  0  0  0  0  0  0  0  0  0
  5  6  2  0  0  0  0
  5  7  1  0  0  0  0
  2  3  1  0  0  0  0
  2  4  1  0  0  0  0
  2  5  1  0  0  0  0
  1  2  1  0  0  0  0
 22 23  2  0  0  0  0
 22 24  1  0  0  0  0
 19 20  1  0  0  0  0
 19 21  1  0  0  0  0
 17 18  2  0  0  0  0
 17 19  1  0  0  0  0
 14 15  1  0  0  0  0
 14 16  1  0  0  0  0
 14 17  1  0  0  0  0
 11 12  1  0  0  0  0
 11 13  1  0  0  0  0
 11 14  1  0  0  0  0
  9 10  1  0  0  0  0
  9 11  1  0  0  0  0
  9 22  1  0  0  0  0
  7  8  1  0  0  0  0
  7  9  1  0  0  0  0
 26 27  1  0  0  0  0
 26 28  1  0  0  0  0
 26 29  1  0  0  0  0
 24 25  1  0  0  0  0
 24 26  1  0  0  0  0
M  END
$$$$
default_name
  -OEChem-02102213163D

 29 28  0     1  0  0  0  0  0999 V2000
   -3.3998   -3.6239    1.3678 H   0  0  0  0  0  0  0  0  0  0  0  0
   -3.3608   -2.6749    0.8348 C   0  0  0  0  0  0  0  0  0  0  0  0
   -4.0988   -1.9909    1.2498 H   0  0  0  0  0  0  0  0  0  0  0  0
   -3.5618   -2.8419   -0.2222 H   0  0  0  0  0  0  0  0  0  0  0  0
   -1.9818   -2.0809    0.9918 C   0  0  0  0  0  0  0  0  0  0  0  0
   -1.1288   -2.6669    1.6468 O   0  0  0  0  0  0  0  0  0  0  0  0
   -1.7648   -0.9089    0.3998 N   0  0  0  0  0  0  0  0  0  0  0  0
   -2.5238   -0.4719   -0.1032 H   0  0  0  0  0  0  0  0  0  0  0  0
   -0.4848   -0.1959    0.4138 C   0  0  1  0  0  0  0  0  0  0  0  0
    0.1386   -0.6144    1.2058 H   0  0  0  0  0  0  0  0  0  0  0  0
    0.2271   -0.4272   -0.9334 C   0  0  0  0  0  0  0  0  0  0  0  0
   -0.5011   -0.2871   -1.7350 H   0  0  0  0  0  0  0  0  0  0  0  0
    1.0141    0.3189   -1.0534 H   0  0  0  0  0  0  0  0  0  0  0  0
    0.8444   -1.8290   -1.0786 C   0  0  0  0  0  0  0  0  0  0  0  0
    0.6455   -2.4126   -0.1799 H   0  0  0  0  0  0  0  0  0  0  0  0
    0.3843   -2.3318   -1.9292 H   0  0  0  0  0  0  0  0  0  0  0  0
    2.3570   -1.8004   -1.2977 C   0  0  0  0  0  0  0  0  0  0  0  0
    2.9958   -0.7722   -1.4219 O   0  0  0  0  0  0  0  0  0  0  0  0
    3.0041   -2.9445   -1.3472 N   0  0  0  0  0  0  0  0  0  0  0  0
    3.9958   -2.8669   -1.4921 H   0  0  0  0  0  0  0  0  0  0  0  0
    2.5283   -3.8184   -1.2483 H   0  0  0  0  0  0  0  0  0  0  0  0
   -0.7011    1.2952    0.7149 C   0  0  0  0  0  0  0  0  0  0  0  0
   -1.5917    1.9198    0.1415 O   0  0  0  0  0  0  0  0  0  0  0  0
    0.1191    1.8675    1.6055 N   0  0  0  0  0  0  0  0  0  0  0  0
    0.8092    1.2861    2.0537 H   0  0  0  0  0  0  0  0  0  0  0  0
    0.0509    3.2769    1.9894 C   0  0  0  0  0  0  0  0  0  0  0  0
   -0.9494    3.5076    2.3640 H   0  0  0  0  0  0  0  0  0  0  0  0
    0.7844    3.4956    2.7668 H   0  0  0  0  0  0  0  0  0  0  0  0
    0.2468    3.9058    1.1193 H   0  0  0  0  0  0  0  0  0  0  0  0
  5  6  2  0  0  0  0
  5  7  1  0  0  0  0
  2  3  1  0  0  0  0
  2  4  1  0  0  0  0
  2  5  1  0  0  0  0
  1  2  1  0  0  0  0
 22 23  2  0  0  0  0
 22 24  1  0  0  0  0
 19 20  1  0  0  0  0
 19 21  1  0  0  0  0
 17 18  2  0  0  0  0
 17 19  1  0  0  0  0
 14 15  1  0  0  0  0
 14 16  1  0  0  0  0
 14 17  1  0  0  0  0
 11 12  1  0  0  0  0
 11 13  1  0  0  0  0
 11 14  1  0  0  0  0
  9 10  1  0  0  0  0
  9 11  1  0  0  0  0
  9 22  1  0  0  0  0
  7  8  1  0  0  0  0
  7  9  1  0  0  0  0
 26 27  1  0  0  0  0
 26 28  1  0  0  0  0
 26 29  1  0  0  0  0
 24 25  1  0  0  0  0
 24 26  1  0  0  0  0
M  END
$$$$
default_name
  -OEChem-02102213163D

 29 28  0     1  0  0  0  0  0999 V2000
   -3.3998   -3.6239    1.3678 H   0  0  0  0  0  0  0  0  0  0  0  0
   -3.3608   -2.6749    0.8348 C   0  0  0  0  0  0  0  0  0  0  0  0
   -4.0988   -1.9909    1.2498 H   0  0  0  0  0  0  0  0  0  0  0  0
   -3.5618   -2.8419   -0.2222 H   0  0  0  0  0  0  0  0  0  0  0  0
   -1.9818   -2.0809    0.9918 C   0  0  0  0  0  0  0  0  0  0  0  0
   -1.1288   -2.6669    1.6468 O   0  0  0  0  0  0  0  0  0  0  0  0
   -1.7648   -0.9089    0.3998 N   0  0  0  0  0  0  0  0  0  0  0  0
   -2.5238   -0.4719   -0.1032 H   0  0  0  0  0  0  0  0  0  0  0  0
   -0.4848   -0.1959    0.4138 C   0  0  1  0  0  0  0  0  0  0  0  0
    0.1386   -0.6144    1.2058 H   0  0  0  0  0  0  0  0  0  0  0  0
    0.2271   -0.4272   -0.9334 C   0  0  0  0  0  0  0  0  0  0  0  0
   -0.5011   -0.2871   -1.7350 H   0  0  0  0  0  0  0  0  0  0  0  0
    1.0141    0.3189   -1.0534 H   0  0  0  0  0  0  0  0  0  0  0  0
    0.8444   -1.8290   -1.0786 C   0  0  0  0  0  0  0  0  0  0  0  0
    0.4312   -2.4926   -0.3192 H   0  0  0  0  0  0  0  0  0  0  0  0
    0.5931   -2.2261   -2.0620 H   0  0  0  0  0  0  0  0  0  0  0  0
    2.3660   -1.8342   -0.9325 C   0  0  0  0  0  0  0  0  0  0  0  0
    3.0283   -0.8230   -0.7929 O   0  0  0  0  0  0  0  0  0  0  0  0
    2.9927   -2.9906   -0.9507 N   0  0  0  0  0  0  0  0  0  0  0  0
    3.9913   -2.9353   -0.8499 H   0  0  0  0  0  0  0  0  0  0  0  0
    2.4966   -3.8518   -1.0601 H   0  0  0  0  0  0  0  0  0  0  0  0
   -0.7011    1.2952    0.7149 C   0  0  0  0  0  0  0  0  0  0  0  0
   -1.5917    1.9198    0.1415 O   0  0  0  0  0  0  0  0  0  0  0  0
    0.1191    1.8675    1.6055 N   0  0  0  0  0  0  0  0  0  0  0  0
    0.8092    1.2861    2.0537 H   0  0  0  0  0  0  0  0  0  0  0  0
    0.0509    3.2769    1.9894 C   0  0  0  0  0  0  0  0  0  0  0  0
   -0.9494    3.5076    2.3640 H   0  0  0  0  0  0  0  0  0  0  0  0
    0.7844    3.4956    2.7668 H   0  0  0  0  0  0  0  0  0  0  0  0
    0.2468    3.9058    1.1193 H   0  0  0  0  0  0  0  0  0  0  0  0
  5  6  2  0  0  0  0
  5  7  1  0  0  0  0
  2  3  1  0  0  0  0
  2  4  1  0  0  0  0
  2  5  1  0  0  0  0
  1  2  1  0  0  0  0
 22 23  2  0  0  0  0
 22 24  1  0  0  0  0
 19 20  1  0  0  0  0
 19 21  1  0  0  0  0
 17 18  2  0  0  0  0
 17 19  1  0  0  0  0
 14 15  1  0  0  0  0
 14 16  1  0  0  0  0
 14 17  1  0  0  0  0
 11 12  1  0  0  0  0
 11 13  1  0  0  0  0
 11 14  1  0  0  0  0
  9 10  1  0  0  0  0
  9 11  1  0  0  0  0
  9 22  1  0  0  0  0
  7  8  1  0  0  0  0
  7  9  1  0  0  0  0
 26 27  1  0  0  0  0
 26 28  1  0  0  0  0
 26 29  1  0  0  0  0
 24 25  1  0  0  0  0
 24 26  1  0  0  0  0
M  END
$$$$
default_name
  -OEChem-02102213163D

 29 28  0     1  0  0  0  0  0999 V2000
   -3.3998   -3.6239    1.3678 H   0  0  0  0  0  0  0  0  0  0  0  0
   -3.3608   -2.6749    0.8348 C   0  0  0  0  0  0  0  0  0  0  0  0
   -4.0988   -1.9909    1.2498 H   0  0  0  0  0  0  0  0  0  0  0  0
   -3.5618   -2.8419   -0.2222 H   0  0  0  0  0  0  0  0  0  0  0  0
   -1.9818   -2.0809    0.9918 C   0  0  0  0  0  0  0  0  0  0  0  0
   -1.1288   -2.6669    1.6468 O   0  0  0  0  0  0  0  0  0  0  0  0
   -1.7648   -0.9089    0.3998 N   0  0  0  0  0  0  0  0  0  0  0  0
   -2.5238   -0.4719   -0.1032 H   0  0  0  0  0  0  0  0  0  0  0  0
   -0.4848   -0.1959    0.4138 C   0  0  1  0  0  0  0  0  0  0  0  0
    0.1386   -0.6144    1.2058 H   0  0  0  0  0  0  0  0  0  0  0  0
    0.2271   -0.4272   -0.9334 C   0  0  0  0  0  0  0  0  0  0  0  0
   -0.5011   -0.2871   -1.7350 H   0  0  0  0  0  0  0  0  0  0  0  0
    1.0141    0.3189   -1.0534 H   0  0  0  0  0  0  0  0  0  0  0  0
    0.8444   -1.8290   -1.0786 C   0  0  0  0  0  0  0  0  0  0  0  0
    0.2550   -2.5501   -0.5127 H   0  0  0  0  0  0  0  0  0  0  0  0
    0.8287   -2.1153   -2.1302 H   0  0  0  0  0  0  0  0  0  0  0  0
    2.2878   -1.9051   -0.5811 C   0  0  0  0  0  0  0  0  0  0  0  0
    2.9101   -0.9382   -0.1830 O   0  0  0  0  0  0  0  0  0  0  0  0
    2.8870   -3.0760   -0.5752 N   0  0  0  0  0  0  0  0  0  0  0  0
    3.8339   -3.0681   -0.2377 H   0  0  0  0  0  0  0  0  0  0  0  0
    2.4208   -3.9029   -0.8892 H   0  0  0  0  0  0  0  0  0  0  0  0
   -0.7011    1.2952    0.7149 C   0  0  0  0  0  0  0  0  0  0  0  0
   -1.5917    1.9198    0.1415 O   0  0  0  0  0  0  0  0  0  0  0  0
    0.1191    1.8675    1.6055 N   0  0  0  0  0  0  0  0  0  0  0  0
    0.8092    1.2861    2.0537 H   0  0  0  0  0  0  0  0  0  0  0  0
    0.0509    3.2769    1.9894 C   0  0  0  0  0  0  0  0  0  0  0  0
   -0.9494    3.5076    2.3640 H   0  0  0  0  0  0  0  0  0  0  0  0
    0.7844    3.4956    2.7668 H   0  0  0  0  0  0  0  0  0  0  0  0
    0.2468    3.9058    1.1193 H   0  0  0  0  0  0  0  0  0  0  0  0
  5  6  2  0  0  0  0
  5  7  1  0  0  0  0
  2  3  1  0  0  0  0
  2  4  1  0  0  0  0
  2  5  1  0  0  0  0
  1  2  1  0  0  0  0
 22 23  2  0  0  0  0
 22 24  1  0  0  0  0
 19 20  1  0  0  0  0
 19 21  1  0  0  0  0
 17 18  2  0  0  0  0
 17 19  1  0  0  0  0
 14 15  1  0  0  0  0
 14 16  1  0  0  0  0
 14 17  1  0  0  0  0
 11 12  1  0  0  0  0
 11 13  1  0  0  0  0
 11 14  1  0  0  0  0
  9 10  1  0  0  0  0
  9 11  1  0  0  0  0
  9 22  1  0  0  0  0
  7  8  1  0  0  0  0
  7  9  1  0  0  0  0
 26 27  1  0  0  0  0
 26 28  1  0  0  0  0
 26 29  1  0  0  0  0
 24 25  1  0  0  0  0
 24 26  1  0  0  0  0
M  END
$$$$
default_name
  -OEChem-02102213163D

 29 28  0     1  0  0  0  0  0999 V2000
   -3.3998   -3.6239    1.3678 H   0  0  0  0  0  0  0  0  0  0  0  0
   -3.3608   -2.6749    0.8348 C   0  0  0  0  0  0  0  0  0  0  0  0
   -4.0988   -1.9909    1.2498 H   0  0  0  0  0  0  0  0  0  0  0  0
   -3.5618   -2.8419   -0.2222 H   0  0  0  0  0  0  0  0  0  0  0  0
   -1.9818   -2.0809    0.9918 C   0  0  0  0  0  0  0  0  0  0  0  0
   -1.1288   -2.6669    1.6468 O   0  0  0  0  0  0  0  0  0  0  0  0
   -1.7648   -0.9089    0.3998 N   0  0  0  0  0  0  0  0  0  0  0  0
   -2.5238   -0.4719   -0.1032 H   0  0  0  0  0  0  0  0  0  0  0  0
   -0.4848   -0.1959    0.4138 C   0  0  1  0  0  0  0  0  0  0  0  0
    0.1386   -0.6144    1.2058 H   0  0  0  0  0  0  0  0  0  0  0  0
    0.2271   -0.4272   -0.9334 C   0  0  0  0  0  0  0  0  0  0  0  0
   -0.5011   -0.2871   -1.7350 H   0  0  0  0  0  0  0  0  0  0  0  0
    1.0141    0.3189   -1.0534 H   0  0  0  0  0  0  0  0  0  0  0  0
    0.8444   -1.8290   -1.0786 C   0  0  0  0  0  0  0  0  0  0  0  0
    0.1290   -2.5813   -0.7470 H   0  0  0  0  0  0  0  0  0  0  0  0
    1.0751   -2.0070   -2.1289 H   0  0  0  0  0  0  0  0  0  0  0  0
    2.1277   -2.0080   -0.2676 C   0  0  0  0  0  0  0  0  0  0  0  0
    2.6494   -1.1099    0.3664 O   0  0  0  0  0  0  0  0  0  0  0  0
    2.6944   -3.1949   -0.2463 N   0  0  0  0  0  0  0  0  0  0  0  0
    3.5342   -3.2560    0.3027 H   0  0  0  0  0  0  0  0  0  0  0  0
    2.3060   -3.9681   -0.7473 H   0  0  0  0  0  0  0  0  0  0  0  0
   -0.7011    1.2952    0.7149 C   0  0  0  0  0  0  0  0  0  0  0  0
   -1.5917    1.9198    0.1415 O   0  0  0  0  0  0  0  0  0  0  0  0
    0.1191    1.8675    1.6055 N   0  0  0  0  0  0  0  0  0  0  0  0
    0.8092    1.2861    2.0537 H   0  0  0  0  0  0  0  0  0  0  0  0
    0.0509    3.2769    1.9894 C   0  0  0  0  0  0  0  0  0  0  0  0
   -0.9494    3.5076    2.3640 H   0  0  0  0  0  0  0  0  0  0  0  0
    0.7844    3.4956    2.7668 H   0  0  0  0  0  0  0  0  0  0  0  0
    0.2468    3.9058    1.1193 H   0  0  0  0  0  0  0  0  0  0  0  0
  5  6  2  0  0  0  0
  5  7  1  0  0  0  0
  2  3  1  0  0  0  0
  2  4  1  0  0  0  0
  2  5  1  0  0  0  0
  1  2  1  0  0  0  0
 22 23  2  0  0  0  0
 22 24  1  0  0  0  0
 19 20  1  0  0  0  0
 19 21  1  0  0  0  0
 17 18  2  0  0  0  0
 17 19  1  0  0  0  0
 14 15  1  0  0  0  0
 14 16  1  0  0  0  0
 14 17  1  0  0  0  0
 11 12  1  0  0  0  0
 11 13  1  0  0  0  0
 11 14  1  0  0  0  0
  9 10  1  0  0  0  0
  9 11  1  0  0  0  0
  9 22  1  0  0  0  0
  7  8  1  0  0  0  0
  7  9  1  0  0  0  0
 26 27  1  0  0  0  0
 26 28  1  0  0  0  0
 26 29  1  0  0  0  0
 24 25  1  0  0  0  0
 24 26  1  0  0  0  0
M  END
$$$$
default_name
  -OEChem-02102213163D

 29 28  0     1  0  0  0  0  0999 V2000
   -3.3998   -3.6239    1.3678 H   0  0  0  0  0  0  0  0  0  0  0  0
   -3.3608   -2.6749    0.8348 C   0  0  0  0  0  0  0  0  0  0  0  0
   -4.0988   -1.9909    1.2498 H   0  0  0  0  0  0  0  0  0  0  0  0
   -3.5618   -2.8419   -0.2222 H   0  0  0  0  0  0  0  0  0  0  0  0
   -1.9818   -2.0809    0.9918 C   0  0  0  0  0  0  0  0  0  0  0  0
   -1.1288   -2.6669    1.6468 O   0  0  0  0  0  0  0  0  0  0  0  0
   -1.7648   -0.9089    0.3998 N   0  0  0  0  0  0  0  0  0  0  0  0
   -2.5238   -0.4719   -0.1032 H   0  0  0  0  0  0  0  0  0  0  0  0
   -0.4848   -0.1959    0.4138 C   0  0  1  0  0  0  0  0  0  0  0  0
    0.1386   -0.6144    1.2058 H   0  0  0  0  0  0  0  0  0  0  0  0
    0.2271   -0.4272   -0.9334 C   0  0  0  0  0  0  0  0  0  0  0  0
   -0.5011   -0.2871   -1.7350 H   0  0  0  0  0  0  0  0  0  0  0  0
    1.0141    0.3189   -1.0534 H   0  0  0  0  0  0  0  0  0  0  0  0
    0.8444   -1.8290   -1.0786 C   0  0  0  0  0  0  0  0  0  0  0  0
    0.0619   -2.5840   -1.0063 H   0  0  0  0  0  0  0  0  0  0  0  0
    1.3154   -1.9085   -2.0583 H   0  0  0  0  0  0  0  0  0  0  0  0
    1.8966   -2.1362   -0.0131 C   0  0  0  0  0  0  0  0  0  0  0  0
    2.2638   -1.3265    0.8177 O   0  0  0  0  0  0  0  0  0  0  0  0
    2.4278   -3.3392    0.0136 N   0  0  0  0  0  0  0  0  0  0  0  0
    3.1127   -3.4863    0.7345 H   0  0  0  0  0  0  0  0  0  0  0  0
    2.1600   -4.0431   -0.6441 H   0  0  0  0  0  0  0  0  0  0  0  0
   -0.7011    1.2952    0.7149 C   0  0  0  0  0  0  0  0  0  0  0  0
   -1.5917    1.9198    0.1415 O   0  0  0  0  0  0  0  0  0  0  0  0
    0.1191    1.8675    1.6055 N   0  0  0  0  0  0  0  0  0  0  0  0
    0.8092    1.2861    2.0537 H   0  0  0  0  0  0  0  0  0  0  0  0
    0.0509    3.2769    1.9894 C   0  0  0  0  0  0  0  0  0  0  0  0
   -0.9494    3.5076    2.3640 H   0  0  0  0  0  0  0  0  0  0  0  0
    0.7844    3.4956    2.7668 H   0  0  0  0  0  0  0  0  0  0  0  0
    0.2468    3.9058    1.1193 H   0  0  0  0  0  0  0  0  0  0  0  0
  5  6  2  0  0  0  0
  5  7  1  0  0  0  0
  2  3  1  0  0  0  0
  2  4  1  0  0  0  0
  2  5  1  0  0  0  0
  1  2  1  0  0  0  0
 22 23  2  0  0  0  0
 22 24  1  0  0  0  0
 19 20  1  0  0  0  0
 19 21  1  0  0  0  0
 17 18  2  0  0  0  0
 17 19  1  0  0  0  0
 14 15  1  0  0  0  0
 14 16  1  0  0  0  0
 14 17  1  0  0  0  0
 11 12  1  0  0  0  0
 11 13  1  0  0  0  0
 11 14  1  0  0  0  0
  9 10  1  0  0  0  0
  9 11  1  0  0  0  0
  9 22  1  0  0  0  0
  7  8  1  0  0  0  0
  7  9  1  0  0  0  0
 26 27  1  0  0  0  0
 26 28  1  0  0  0  0
 26 29  1  0  0  0  0
 24 25  1  0  0  0  0
 24 26  1  0  0  0  0
M  END
$$$$
default_name
  -OEChem-02102213163D

 29 28  0     1  0  0  0  0  0999 V2000
   -3.3998   -3.6239    1.3678 H   0  0  0  0  0  0  0  0  0  0  0  0
   -3.3608   -2.6749    0.8348 C   0  0  0  0  0  0  0  0  0  0  0  0
   -4.0988   -1.9909    1.2498 H   0  0  0  0  0  0  0  0  0  0  0  0
   -3.5618   -2.8419   -0.2222 H   0  0  0  0  0  0  0  0  0  0  0  0
   -1.9818   -2.0809    0.9918 C   0  0  0  0  0  0  0  0  0  0  0  0
   -1.1288   -2.6669    1.6468 O   0  0  0  0  0  0  0  0  0  0  0  0
   -1.7648   -0.9089    0.3998 N   0  0  0  0  0  0  0  0  0  0  0  0
   -2.5238   -0.4719   -0.1032 H   0  0  0  0  0  0  0  0  0  0  0  0
   -0.4848   -0.1959    0.4138 C   0  0  1  0  0  0  0  0  0  0  0  0
    0.1386   -0.6144    1.2058 H   0  0  0  0  0  0  0  0  0  0  0  0
    0.2271   -0.4272   -0.9334 C   0  0  0  0  0  0  0  0  0  0  0  0
   -0.5011   -0.2871   -1.7350 H   0  0  0  0  0  0  0  0  0  0  0  0
    1.0141    0.3189   -1.0534 H   0  0  0  0  0  0  0  0  0  0  0  0
    0.8444   -1.8290   -1.0786 C   0  0  0  0  0  0  0  0  0  0  0  0
    0.0580   -2.5581   -1.2729 H   0  0  0  0  0  0  0  0  0  0  0  0
    1.5333   -1.8265   -1.9233 H   0  0  0  0  0  0  0  0  0  0  0  0
    1.6102   -2.2807    0.1649 C   0  0  0  0  0  0  0  0  0  0  0  0
    1.7796   -1.5731    1.1401 O   0  0  0  0  0  0  0  0  0  0  0  0
    2.1055   -3.4991    0.1868 N   0  0  0  0  0  0  0  0  0  0  0  0
    2.5981   -3.7433    1.0283 H   0  0  0  0  0  0  0  0  0  0  0  0
    1.9929   -4.1226   -0.5866 H   0  0  0  0  0  0  0  0  0  0  0  0
   -0.7011    1.2952    0.7149 C   0  0  0  0  0  0  0  0  0  0  0  0
   -1.5917    1.9198    0.1415 O   0  0  0  0  0  0  0  0  0  0  0  0
    0.1191    1.8675    1.6055 N   0  0  0  0  0  0  0  0  0  0  0  0
    0.8092    1.2861    2.0537 H   0  0  0  0  0  0  0  0  0  0  0  0
    0.0509    3.2769    1.9894 C   0  0  0  0  0  0  0  0  0  0  0  0
   -0.9494    3.5076    2.3640 H   0  0  0  0  0  0  0  0  0  0  0  0
    0.7844    3.4956    2.7668 H   0  0  0  0  0  0  0  0  0  0  0  0
    0.2468    3.9058    1.1193 H   0  0  0  0  0  0  0  0  0  0  0  0
  5  6  2  0  0  0  0
  5  7  1  0  0  0  0
  2  3  1  0  0  0  0
  2  4  1  0  0  0  0
  2  5  1  0  0  0  0
  1  2  1  0  0  0  0
 22 23  2  0  0  0  0
 22 24  1  0  0  0  0
 19 20  1  0  0  0  0
 19 21  1  0  0  0  0
 17 18  2  0  0  0  0
 17 19  1  0  0  0  0
 14 15  1  0  0  0  0
 14 16  1  0  0  0  0
 14 17  1  0  0  0  0
 11 12  1  0  0  0  0
 11 13  1  0  0  0  0
 11 14  1  0  0  0  0
  9 10  1  0  0  0  0
  9 11  1  0  0  0  0
  9 22  1  0  0  0  0
  7  8  1  0  0  0  0
  7  9  1  0  0  0  0
 26 27  1  0  0  0  0
 26 28  1  0  0  0  0
 26 29  1  0  0  0  0
 24 25  1  0  0  0  0
 24 26  1  0  0  0  0
M  END
$$$$
default_name
  -OEChem-02102213163D

 29 28  0     1  0  0  0  0  0999 V2000
   -3.3998   -3.6239    1.3678 H   0  0  0  0  0  0  0  0  0  0  0  0
   -3.3608   -2.6749    0.8348 C   0  0  0  0  0  0  0  0  0  0  0  0
   -4.0988   -1.9909    1.2498 H   0  0  0  0  0  0  0  0  0  0  0  0
   -3.5618   -2.8419   -0.2222 H   0  0  0  0  0  0  0  0  0  0  0  0
   -1.9818   -2.0809    0.9918 C   0  0  0  0  0  0  0  0  0  0  0  0
   -1.1288   -2.6669    1.6468 O   0  0  0  0  0  0  0  0  0  0  0  0
   -1.7648   -0.9089    0.3998 N   0  0  0  0  0  0  0  0  0  0  0  0
   -2.5238   -0.4719   -0.1032 H   0  0  0  0  0  0  0  0  0  0  0  0
   -0.4848   -0.1959    0.4138 C   0  0  1  0  0  0  0  0  0  0  0  0
    0.1386   -0.6144    1.2058 H   0  0  0  0  0  0  0  0  0  0  0  0
    0.2271   -0.4272   -0.9334 C   0  0  0  0  0  0  0  0  0  0  0  0
   -0.5011   -0.2871   -1.7350 H   0  0  0  0  0  0  0  0  0  0  0  0
    1.0141    0.3189   -1.0534 H   0  0  0  0  0  0  0  0  0  0  0  0
    0.8444   -1.8290   -1.0786 C   0  0  0  0  0  0  0  0  0  0  0  0
    0.1179   -2.5053   -1.5286 H   0  0  0  0  0  0  0  0  0  0  0  0
    1.7139   -1.7667   -1.7329 H   0  0  0  0  0  0  0  0  0  0  0  0
    1.2880   -2.4318    0.2543 C   0  0  0  0  0  0  0  0  0  0  0  0
    1.2299   -1.8329    1.3119 O   0  0  0  0  0  0  0  0  0  0  0  0
    1.7494   -3.6636    0.2615 N   0  0  0  0  0  0  0  0  0  0  0  0
    2.0255   -4.0095    1.1641 H   0  0  0  0  0  0  0  0  0  0  0  0
    1.8160   -4.2013   -0.5788 H   0  0  0  0  0  0  0  0  0  0  0  0
   -0.7011    1.2952    0.7149 C   0  0  0  0  0  0  0  0  0  0  0  0
   -1.5917    1.9198    0.1415 O   0  0  0  0  0  0  0  0  0  0  0  0
    0.1191    1.8675    1.6055 N   0  0  0  0  0  0  0  0  0  0  0  0
    0.8092    1.2861    2.0537 H   0  0  0  0  0  0  0  0  0  0  0  0
    0.0509    3.2769    1.9894 C   0  0  0  0  0  0  0  0  0  0  0  0
   -0.9494    3.5076    2.3640 H   0  0  0  0  0  0  0  0  0  0  0  0
    0.7844    3.4956    2.7668 H   0  0  0  0  0  0  0  0  0  0  0  0
    0.2468    3.9058    1.1193 H   0  0  0  0  0  0  0  0  0  0  0  0
  5  6  2  0  0  0  0
  5  7  1  0  0  0  0
  2  3  1  0  0  0  0
  2  4  1  0  0  0  0
  2  5  1  0  0  0  0
  1  2  1  0  0  0  0
 22 23  2  0  0  0  0
 22 24  1  0  0  0  0
 19 20  1  0  0  0  0
 19 21  1  0  0  0  0
 17 18  2  0  0  0  0
 17 19  1  0  0  0  0
 14 15  1  0  0  0  0
 14 16  1  0  0  0  0
 14 17  1  0  0  0  0
 11 12  1  0  0  0  0
 11 13  1  0  0  0  0
 11 14  1  0  0  0  0
  9 10  1  0  0  0  0
  9 11  1  0  0  0  0
  9 22  1  0  0  0  0
  7  8  1  0  0  0  0
  7  9  1  0  0  0  0
 26 27  1  0  0  0  0
 26 28  1  0  0  0  0
 26 29  1  0  0  0  0
 24 25  1  0  0  0  0
 24 26  1  0  0  0  0
M  END
$$$$
default_name
  -OEChem-02102213163D

 29 28  0     1  0  0  0  0  0999 V2000
   -3.3998   -3.6239    1.3678 H   0  0  0  0  0  0  0  0  0  0  0  0
   -3.3608   -2.6749    0.8348 C   0  0  0  0  0  0  0  0  0  0  0  0
   -4.0988   -1.9909    1.2498 H   0  0  0  0  0  0  0  0  0  0  0  0
   -3.5618   -2.8419   -0.2222 H   0  0  0  0  0  0  0  0  0  0  0  0
   -1.9818   -2.0809    0.9918 C   0  0  0  0  0  0  0  0  0  0  0  0
   -1.1288   -2.6669    1.6468 O   0  0  0  0  0  0  0  0  0  0  0  0
   -1.7648   -0.9089    0.3998 N   0  0  0  0  0  0  0  0  0  0  0  0
   -2.5238   -0.4719   -0.1032 H   0  0  0  0  0  0  0  0  0  0  0  0
   -0.4848   -0.1959    0.4138 C   0  0  1  0  0  0  0  0  0  0  0  0
    0.1386   -0.6144    1.2058 H   0  0  0  0  0  0  0  0  0  0  0  0
    0.2271   -0.4272   -0.9334 C   0  0  0  0  0  0  0  0  0  0  0  0
   -0.5011   -0.2871   -1.7350 H   0  0  0  0  0  0  0  0  0  0  0  0
    1.0141    0.3189   -1.0534 H   0  0  0  0  0  0  0  0  0  0  0  0
    0.8444   -1.8290   -1.0786 C   0  0  0  0  0  0  0  0  0  0  0  0
    0.2372   -2.4292   -1.7560 H   0  0  0  0  0  0  0  0  0  0  0  0
    1.8449   -1.7331   -1.5003 H   0  0  0  0  0  0  0  0  0  0  0  0
    0.9521   -2.5792    0.2489 C   0  0  0  0  0  0  0  0  0  0  0  0
    0.6520   -2.0884    1.3211 O   0  0  0  0  0  0  0  0  0  0  0  0
    1.3839   -3.8216    0.2326 N   0  0  0  0  0  0  0  0  0  0  0  0
    1.4339   -4.2668    1.1325 H   0  0  0  0  0  0  0  0  0  0  0  0
    1.6413   -4.2739   -0.6211 H   0  0  0  0  0  0  0  0  0  0  0  0
   -0.7011    1.2952    0.7149 C   0  0  0  0  0  0  0  0  0  0  0  0
   -1.5917    1.9198    0.1415 O   0  0  0  0  0  0  0  0  0  0  0  0
    0.1191    1.8675    1.6055 N   0  0  0  0  0  0  0  0  0  0  0  0
    0.8092    1.2861    2.0537 H   0  0  0  0  0  0  0  0  0  0  0  0
    0.0509    3.2769    1.9894 C   0  0  0  0  0  0  0  0  0  0  0  0
   -0.9494    3.5076    2.3640 H   0  0  0  0  0  0  0  0  0  0  0  0
    0.7844    3.4956    2.7668 H   0  0  0  0  0  0  0  0  0  0  0  0
    0.2468    3.9058    1.1193 H   0  0  0  0  0  0  0  0  0  0  0  0
  5  6  2  0  0  0  0
  5  7  1  0  0  0  0
  2  3  1  0  0  0  0
  2  4  1  0  0  0  0
  2  5  1  0  0  0  0
  1  2  1  0  0  0  0
 22 23  2  0  0  0  0
 22 24  1  0  0  0  0
 19 20  1  0  0  0  0
 19 21  1  0  0  0  0
 17 18  2  0  0  0  0
 17 19  1  0  0  0  0
 14 15  1  0  0  0  0
 14 16  1  0  0  0  0
 14 17  1  0  0  0  0
 11 12  1  0  0  0  0
 11 13  1  0  0  0  0
 11 14  1  0  0  0  0
  9 10  1  0  0  0  0
  9 11  1  0  0  0  0
  9 22  1  0  0  0  0
  7  8  1  0  0  0  0
  7  9  1  0  0  0  0
 26 27  1  0  0  0  0
 26 28  1  0  0  0  0
 26 29  1  0  0  0  0
 24 25  1  0  0  0  0
 24 26  1  0  0  0  0
M  END
$$$$
default_name
  -OEChem-02102213163D

 29 28  0     1  0  0  0  0  0999 V2000
   -3.3998   -3.6239    1.3678 H   0  0  0  0  0  0  0  0  0  0  0  0
   -3.3608   -2.6749    0.8348 C   0  0  0  0  0  0  0  0  0  0  0  0
   -4.0988   -1.9909    1.2498 H   0  0  0  0  0  0  0  0  0  0  0  0
   -3.5618   -2.8419   -0.2222 H   0  0  0  0  0  0  0  0  0  0  0  0
   -1.9818   -2.0809    0.9918 C   0  0  0  0  0  0  0  0  0  0  0  0
   -1.1288   -2.6669    1.6468 O   0  0  0  0  0  0  0  0  0  0  0  0
   -1.7648   -0.9089    0.3998 N   0  0  0  0  0  0  0  0  0  0  0  0
   -2.5238   -0.4719   -0.1032 H   0  0  0  0  0  0  0  0  0  0  0  0
   -0.4848   -0.1959    0.4138 C   0  0  1  0  0  0  0  0  0  0  0  0
    0.1386   -0.6144    1.2058 H   0  0  0  0  0  0  0  0  0  0  0  0
    0.2271   -0.4272   -0.9334 C   0  0  0  0  0  0  0  0  0  0  0  0
   -0.5011   -0.2871   -1.7350 H   0  0  0  0  0  0  0  0  0  0  0  0
    1.0141    0.3189   -1.0534 H   0  0  0  0  0  0  0  0  0  0  0  0
    0.8444   -1.8290   -1.0786 C   0  0  0  0  0  0  0  0  0  0  0  0
    0.4080   -2.3349   -1.9396 H   0  0  0  0  0  0  0  0  0  0  0  0
    1.9174   -1.7280   -1.2411 H   0  0  0  0  0  0  0  0  0  0  0  0
    0.6253   -2.7128    0.1493 C   0  0  0  0  0  0  0  0  0  0  0  0
    0.0854   -2.3219    1.1673 O   0  0  0  0  0  0  0  0  0  0  0  0
    1.0337   -3.9623    0.1021 N   0  0  0  0  0  0  0  0  0  0  0  0
    0.8637   -4.4975    0.9358 H   0  0  0  0  0  0  0  0  0  0  0  0
    1.4808   -4.3353   -0.7107 H   0  0  0  0  0  0  0  0  0  0  0  0
   -0.7011    1.2952    0.7149 C   0  0  0  0  0  0  0  0  0  0  0  0
   -1.5917    1.9198    0.1415 O   0  0  0  0  0  0  0  0  0  0  0  0
    0.1191    1.8675    1.6055 N   0  0  0  0  0  0  0  0  0  0  0  0
    0.8092    1.2861    2.0537 H   0  0  0  0  0  0  0  0  0  0  0  0
    0.0509    3.2769    1.9894 C   0  0  0  0  0  0  0  0  0  0  0  0
   -0.9494    3.5076    2.3640 H   0  0  0  0  0  0  0  0  0  0  0  0
    0.7844    3.4956    2.7668 H   0  0  0  0  0  0  0  0  0  0  0  0
    0.2468    3.9058    1.1193 H   0  0  0  0  0  0  0  0  0  0  0  0
  5  6  2  0  0  0  0
  5  7  1  0  0  0  0
  2  3  1  0  0  0  0
  2  4  1  0  0  0  0
  2  5  1  0  0  0  0
  1  2  1  0  0  0  0
 22 23  2  0  0  0  0
 22 24  1  0  0  0  0
 19 20  1  0  0  0  0
 19 21  1  0  0  0  0
 17 18  2  0  0  0  0
 17 19  1  0  0  0  0
 14 15  1  0  0  0  0
 14 16  1  0  0  0  0
 14 17  1  0  0  0  0
 11 12  1  0  0  0  0
 11 13  1  0  0  0  0
 11 14  1  0  0  0  0
  9 10  1  0  0  0  0
  9 11  1  0  0  0  0
  9 22  1  0  0  0  0
  7  8  1  0  0  0  0
  7  9  1  0  0  0  0
 26 27  1  0  0  0  0
 26 28  1  0  0  0  0
 26 29  1  0  0  0  0
 24 25  1  0  0  0  0
 24 26  1  0  0  0  0
M  END
$$$$
default_name
  -OEChem-02102213163D

 29 28  0     1  0  0  0  0  0999 V2000
   -3.3998   -3.6239    1.3678 H   0  0  0  0  0  0  0  0  0  0  0  0
   -3.3608   -2.6749    0.8348 C   0  0  0  0  0  0  0  0  0  0  0  0
   -4.0988   -1.9909    1.2498 H   0  0  0  0  0  0  0  0  0  0  0  0
   -3.5618   -2.8419   -0.2222 H   0  0  0  0  0  0  0  0  0  0  0  0
   -1.9818   -2.0809    0.9918 C   0  0  0  0  0  0  0  0  0  0  0  0
   -1.1288   -2.6669    1.6468 O   0  0  0  0  0  0  0  0  0  0  0  0
   -1.7648   -0.9089    0.3998 N   0  0  0  0  0  0  0  0  0  0  0  0
   -2.5238   -0.4719   -0.1032 H   0  0  0  0  0  0  0  0  0  0  0  0
   -0.4848   -0.1959    0.4138 C   0  0  1  0  0  0  0  0  0  0  0  0
    0.1386   -0.6144    1.2058 H   0  0  0  0  0  0  0  0  0  0  0  0
    0.2271   -0.4272   -0.9334 C   0  0  0  0  0  0  0  0  0  0  0  0
   -0.5011   -0.2871   -1.7350 H   0  0  0  0  0  0  0  0  0  0  0  0
    1.0141    0.3189   -1.0534 H   0  0  0  0  0  0  0  0  0  0  0  0
    0.8444   -1.8290   -1.0786 C   0  0  0  0  0  0  0  0  0  0  0  0
    0.6186   -2.2290   -2.0669 H   0  0  0  0  0  0  0  0  0  0  0  0
    1.9265   -1.7517   -0.9732 H   0  0  0  0  0  0  0  0  0  0  0  0
    0.3299   -2.8235   -0.0379 C   0  0  0  0  0  0  0  0  0  0  0  0
   -0.4313   -2.5177    0.8608 O   0  0  0  0  0  0  0  0  0  0  0  0
    0.7228   -4.0760   -0.1211 N   0  0  0  0  0  0  0  0  0  0  0  0
    0.3536   -4.6861    0.5874 H   0  0  0  0  0  0  0  0  0  0  0  0
    1.3454   -4.3814   -0.8414 H   0  0  0  0  0  0  0  0  0  0  0  0
   -0.7011    1.2952    0.7149 C   0  0  0  0  0  0  0  0  0  0  0  0
   -1.5917    1.9198    0.1415 O   0  0  0  0  0  0  0  0  0  0  0  0
    0.1191    1.8675    1.6055 N   0  0  0  0  0  0  0  0  0  0  0  0
    0.8092    1.2861    2.0537 H   0  0  0  0  0  0  0  0  0  0  0  0
    0.0509    3.2769    1.9894 C   0  0  0  0  0  0  0  0  0  0  0  0
   -0.9494    3.5076    2.3640 H   0  0  0  0  0  0  0  0  0  0  0  0
    0.7844    3.4956    2.7668 H   0  0  0  0  0  0  0  0  0  0  0  0
    0.2468    3.9058    1.1193 H   0  0  0  0  0  0  0  0  0  0  0  0
  5  6  2  0  0  0  0
  5  7  1  0  0  0  0
  2  3  1  0  0  0  0
  2  4  1  0  0  0  0
  2  5  1  0  0  0  0
  1  2  1  0  0  0  0
 22 23  2  0  0  0  0
 22 24  1  0  0  0  0
 19 20  1  0  0  0  0
 19 21  1  0  0  0  0
 17 18  2  0  0  0  0
 17 19  1  0  0  0  0
 14 15  1  0  0  0  0
 14 16  1  0  0  0  0
 14 17  1  0  0  0  0
 11 12  1  0  0  0  0
 11 13  1  0  0  0  0
 11 14  1  0  0  0  0
  9 10  1  0  0  0  0
  9 11  1  0  0  0  0
  9 22  1  0  0  0  0
  7  8  1  0  0  0  0
  7  9  1  0  0  0  0
 26 27  1  0  0  0  0
 26 28  1  0  0  0  0
 26 29  1  0  0  0  0
 24 25  1  0  0  0  0
 24 26  1  0  0  0  0
M  END
$$$$
default_name
  -OEChem-02102213163D

 29 28  0     1  0  0  0  0  0999 V2000
   -3.3998   -3.6239    1.3678 H   0  0  0  0  0  0  0  0  0  0  0  0
   -3.3608   -2.6749    0.8348 C   0  0  0  0  0  0  0  0  0  0  0  0
   -4.0988   -1.9909    1.2498 H   0  0  0  0  0  0  0  0  0  0  0  0
   -3.5618   -2.8419   -0.2222 H   0  0  0  0  0  0  0  0  0  0  0  0
   -1.9818   -2.0809    0.9918 C   0  0  0  0  0  0  0  0  0  0  0  0
   -1.1288   -2.6669    1.6468 O   0  0  0  0  0  0  0  0  0  0  0  0
   -1.7648   -0.9089    0.3998 N   0  0  0  0  0  0  0  0  0  0  0  0
   -2.5238   -0.4719   -0.1032 H   0  0  0  0  0  0  0  0  0  0  0  0
   -0.4848   -0.1959    0.4138 C   0  0  1  0  0  0  0  0  0  0  0  0
    0.1386   -0.6144    1.2058 H   0  0  0  0  0  0  0  0  0  0  0  0
    0.2271   -0.4272   -0.9334 C   0  0  0  0  0  0  0  0  0  0  0  0
   -0.5011   -0.2871   -1.7350 H   0  0  0  0  0  0  0  0  0  0  0  0
    1.0141    0.3189   -1.0534 H   0  0  0  0  0  0  0  0  0  0  0  0
    0.8444   -1.8290   -1.0786 C   0  0  0  0  0  0  0  0  0  0  0  0
    0.8546   -2.1187   -2.1291 H   0  0  0  0  0  0  0  0  0  0  0  0
    1.8715   -1.8027   -0.7147 H   0  0  0  0  0  0  0  0  0  0  0  0
    0.0859   -2.9038   -0.2999 C   0  0  0  0  0  0  0  0  0  0  0  0
   -0.8629   -2.6624    0.4226 O   0  0  0  0  0  0  0  0  0  0  0  0
    0.4724   -4.1552   -0.4219 N   0  0  0  0  0  0  0  0  0  0  0  0
   -0.0616   -4.8195    0.1110 H   0  0  0  0  0  0  0  0  0  0  0  0
    1.2443   -4.4090   -1.0045 H   0  0  0  0  0  0  0  0  0  0  0  0
   -0.7011    1.2952    0.7149 C   0  0  0  0  0  0  0  0  0  0  0  0
   -1.5917    1.9198    0.1415 O   0  0  0  0  0  0  0  0  0  0  0  0
    0.1191    1.8675    1.6055 N   0  0  0  0  0  0  0  0  0  0  0  0
    0.8092    1.2861    2.0537 H   0  0  0  0  0  0  0  0  0  0  0  0
    0.0509    3.2769    1.9894 C   0  0  0  0  0  0  0  0  0  0  0  0
   -0.9494    3.5076    2.3640 H   0  0  0  0  0  0  0  0  0  0  0  0
    0.7844    3.4956    2.7668 H   0  0  0  0  0  0  0  0  0  0  0  0
    0.2468    3.9058    1.1193 H   0  0  0  0  0  0  0  0  0  0  0  0
  5  6  2  0  0  0  0
  5  7  1  0  0  0  0
  2  3  1  0  0  0  0
  2  4  1  0  0  0  0
  2  5  1  0  0  0  0
  1  2  1  0  0  0  0
 22 23  2  0  0  0  0
 22 24  1  0  0  0  0
 19 20  1  0  0  0  0
 19 21  1  0  0  0  0
 17 18  2  0  0  0  0
 17 19  1  0  0  0  0
 14 15  1  0  0  0  0
 14 16  1  0  0  0  0
 14 17  1  0  0  0  0
 11 12  1  0  0  0  0
 11 13  1  0  0  0  0
 11 14  1  0  0  0  0
  9 10  1  0  0  0  0
  9 11  1  0  0  0  0
  9 22  1  0  0  0  0
  7  8  1  0  0  0  0
  7  9  1  0  0  0  0
 26 27  1  0  0  0  0
 26 28  1  0  0  0  0
 26 29  1  0  0  0  0
 24 25  1  0  0  0  0
 24 26  1  0  0  0  0
M  END
$$$$
default_name
  -OEChem-02102213163D

 29 28  0     1  0  0  0  0  0999 V2000
   -3.3998   -3.6239    1.3678 H   0  0  0  0  0  0  0  0  0  0  0  0
   -3.3608   -2.6749    0.8348 C   0  0  0  0  0  0  0  0  0  0  0  0
   -4.0988   -1.9909    1.2498 H   0  0  0  0  0  0  0  0  0  0  0  0
   -3.5618   -2.8419   -0.2222 H   0  0  0  0  0  0  0  0  0  0  0  0
   -1.9818   -2.0809    0.9918 C   0  0  0  0  0  0  0  0  0  0  0  0
   -1.1288   -2.6669    1.6468 O   0  0  0  0  0  0  0  0  0  0  0  0
   -1.7648   -0.9089    0.3998 N   0  0  0  0  0  0  0  0  0  0  0  0
   -2.5238   -0.4719   -0.1032 H   0  0  0  0  0  0  0  0  0  0  0  0
   -0.4848   -0.1959    0.4138 C   0  0  1  0  0  0  0  0  0  0  0  0
    0.1386   -0.6144    1.2058 H   0  0  0  0  0  0  0  0  0  0  0  0
    0.2271   -0.4272   -0.9334 C   0  0  0  0  0  0  0  0  0  0  0  0
   -0.5011   -0.2871   -1.7350 H   0  0  0  0  0  0  0  0  0  0  0  0
    1.0141    0.3189   -1.0534 H   0  0  0  0  0  0  0  0  0  0  0  0
    0.8444   -1.8290   -1.0786 C   0  0  0  0  0  0  0  0  0  0  0  0
    1.0999   -2.0114   -2.1222 H   0  0  0  0  0  0  0  0  0  0  0  0
    1.7562   -1.8775   -0.4833 H   0  0  0  0  0  0  0  0  0  0  0  0
   -0.0899   -2.9481   -0.6189 C   0  0  0  0  0  0  0  0  0  0  0  0
   -1.1800   -2.7461   -0.1175 O   0  0  0  0  0  0  0  0  0  0  0  0
    0.2995   -4.1943   -0.7797 N   0  0  0  0  0  0  0  0  0  0  0  0
   -0.3535   -4.8889   -0.4610 H   0  0  0  0  0  0  0  0  0  0  0  0
    1.1844   -4.4163   -1.1886 H   0  0  0  0  0  0  0  0  0  0  0  0
   -0.7011    1.2952    0.7149 C   0  0  0  0  0  0  0  0  0  0  0  0
   -1.5917    1.9198    0.1415 O   0  0  0  0  0  0  0  0  0  0  0  0
    0.1191    1.8675    1.6055 N   0  0  0  0  0  0  0  0  0  0  0  0
    0.8092    1.2861    2.0537 H   0  0  0  0  0  0  0  0  0  0  0  0
    0.0509    3.2769    1.9894 C   0  0  0  0  0  0  0  0  0  0  0  0
   -0.9494    3.5076    2.3640 H   0  0  0  0  0  0  0  0  0  0  0  0
    0.7844    3.4956    2.7668 H   0  0  0  0  0  0  0  0  0  0  0  0
    0.2468    3.9058    1.1193 H   0  0  0  0  0  0  0  0  0  0  0  0
  5  6  2  0  0  0  0
  5  7  1  0  0  0  0
  2  3  1  0  0  0  0
  2  4  1  0  0  0  0
  2  5  1  0  0  0  0
  1  2  1  0  0  0  0
 22 23  2  0  0  0  0
 22 24  1  0  0  0  0
 19 20  1  0  0  0  0
 19 21  1  0  0  0  0
 17 18  2  0  0  0  0
 17 19  1  0  0  0  0
 14 15  1  0  0  0  0
 14 16  1  0  0  0  0
 14 17  1  0  0  0  0
 11 12  1  0  0  0  0
 11 13  1  0  0  0  0
 11 14  1  0  0  0  0
  9 10  1  0  0  0  0
  9 11  1  0  0  0  0
  9 22  1  0  0  0  0
  7  8  1  0  0  0  0
  7  9  1  0  0  0  0
 26 27  1  0  0  0  0
 26 28  1  0  0  0  0
 26 29  1  0  0  0  0
 24 25  1  0  0  0  0
 24 26  1  0  0  0  0
M  END
$$$$
default_name
  -OEChem-02102213163D

 29 28  0     1  0  0  0  0  0999 V2000
   -3.3998   -3.6239    1.3678 H   0  0  0  0  0  0  0  0  0  0  0  0
   -3.3608   -2.6749    0.8348 C   0  0  0  0  0  0  0  0  0  0  0  0
   -4.0988   -1.9909    1.2498 H   0  0  0  0  0  0  0  0  0  0  0  0
   -3.5618   -2.8419   -0.2222 H   0  0  0  0  0  0  0  0  0  0  0  0
   -1.9818   -2.0809    0.9918 C   0  0  0  0  0  0  0  0  0  0  0  0
   -1.1288   -2.6669    1.6468 O   0  0  0  0  0  0  0  0  0  0  0  0
   -1.7648   -0.9089    0.3998 N   0  0  0  0  0  0  0  0  0  0  0  0
   -2.5238   -0.4719   -0.1032 H   0  0  0  0  0  0  0  0  0  0  0  0
   -0.4848   -0.1959    0.4138 C   0  0  1  0  0  0  0  0  0  0  0  0
    0.1386   -0.6144    1.2058 H   0  0  0  0  0  0  0  0  0  0  0  0
    0.2271   -0.4272   -0.9334 C   0  0  0  0  0  0  0  0  0  0  0  0
   -0.5011   -0.2871   -1.7350 H   0  0  0  0  0  0  0  0  0  0  0  0
    1.0141    0.3189   -1.0534 H   0  0  0  0  0  0  0  0  0  0  0  0
    0.8444   -1.8290   -1.0786 C   0  0  0  0  0  0  0  0  0  0  0  0
    1.3379   -1.9144   -2.0465 H   0  0  0  0  0  0  0  0  0  0  0  0
    1.5884   -1.9709   -0.2948 H   0  0  0  0  0  0  0  0  0  0  0  0
   -0.1855   -2.9536   -0.9730 C   0  0  0  0  0  0  0  0  0  0  0  0
   -1.3610   -2.7631   -0.7226 O   0  0  0  0  0  0  0  0  0  0  0  0
    0.2159   -4.1906   -1.1701 N   0  0  0  0  0  0  0  0  0  0  0  0
   -0.5023   -4.8893   -1.0895 H   0  0  0  0  0  0  0  0  0  0  0  0
    1.1699   -4.4028   -1.3814 H   0  0  0  0  0  0  0  0  0  0  0  0
   -0.7011    1.2952    0.7149 C   0  0  0  0  0  0  0  0  0  0  0  0
   -1.5917    1.9198    0.1415 O   0  0  0  0  0  0  0  0  0  0  0  0
    0.1191    1.8675    1.6055 N   0  0  0  0  0  0  0  0  0  0  0  0
    0.8092    1.2861    2.0537 H   0  0  0  0  0  0  0  0  0  0  0  0
    0.0509    3.2769    1.9894 C   0  0  0  0  0  0  0  0  0  0  0  0
   -0.9494    3.5076    2.3640 H   0  0  0  0  0  0  0  0  0  0  0  0
    0.7844    3.4956    2.7668 H   0  0  0  0  0  0  0  0  0  0  0  0
    0.2468    3.9058    1.1193 H   0  0  0  0  0  0  0  0  0  0  0  0
  5  6  2  0  0  0  0
  5  7  1  0  0  0  0
  2  3  1  0  0  0  0
  2  4  1  0  0  0  0
  2  5  1  0  0  0  0
  1  2  1  0  0  0  0
 22 23  2  0  0  0  0
 22 24  1  0  0  0  0
 19 20  1  0  0  0  0
 19 21  1  0  0  0  0
 17 18  2  0  0  0  0
 17 19  1  0  0  0  0
 14 15  1  0  0  0  0
 14 16  1  0  0  0  0
 14 17  1  0  0  0  0
 11 12  1  0  0  0  0
 11 13  1  0  0  0  0
 11 14  1  0  0  0  0
  9 10  1  0  0  0  0
  9 11  1  0  0  0  0
  9 22  1  0  0  0  0
  7  8  1  0  0  0  0
  7  9  1  0  0  0  0
 26 27  1  0  0  0  0
 26 28  1  0  0  0  0
 26 29  1  0  0  0  0
 24 25  1  0  0  0  0
 24 26  1  0  0  0  0
M  END
$$$$
default_name
  -OEChem-02102213163D

 29 28  0     1  0  0  0  0  0999 V2000
   -3.3998   -3.6239    1.3678 H   0  0  0  0  0  0  0  0  0  0  0  0
   -3.3608   -2.6749    0.8348 C   0  0  0  0  0  0  0  0  0  0  0  0
   -4.0988   -1.9909    1.2498 H   0  0  0  0  0  0  0  0  0  0  0  0
   -3.5618   -2.8419   -0.2222 H   0  0  0  0  0  0  0  0  0  0  0  0
   -1.9818   -2.0809    0.9918 C   0  0  0  0  0  0  0  0  0  0  0  0
   -1.1288   -2.6669    1.6468 O   0  0  0  0  0  0  0  0  0  0  0  0
   -1.7648   -0.9089    0.3998 N   0  0  0  0  0  0  0  0  0  0  0  0
   -2.5238   -0.4719   -0.1032 H   0  0  0  0  0  0  0  0  0  0  0  0
   -0.4848   -0.1959    0.4138 C   0  0  1  0  0  0  0  0  0  0  0  0
    0.1386   -0.6144    1.2058 H   0  0  0  0  0  0  0  0  0  0  0  0
    0.2271   -0.4272   -0.9334 C   0  0  0  0  0  0  0  0  0  0  0  0
   -0.5011   -0.2871   -1.7350 H   0  0  0  0  0  0  0  0  0  0  0  0
    1.0141    0.3189   -1.0534 H   0  0  0  0  0  0  0  0  0  0  0  0
    0.8444   -1.8290   -1.0786 C   0  0  0  0  0  0  0  0  0  0  0  0
    1.5522   -1.8344   -1.9072 H   0  0  0  0  0  0  0  0  0  0  0  0
    1.3796   -2.0766   -0.1619 H   0  0  0  0  0  0  0  0  0  0  0  0
   -0.1946   -2.9198   -1.3382 C   0  0  0  0  0  0  0  0  0  0  0  0
   -1.3935   -2.7123   -1.3516 O   0  0  0  0  0  0  0  0  0  0  0  0
    0.2273   -4.1445   -1.5666 N   0  0  0  0  0  0  0  0  0  0  0  0
   -0.4979   -4.8208   -1.7317 H   0  0  0  0  0  0  0  0  0  0  0  0
    1.2016   -4.3693   -1.5697 H   0  0  0  0  0  0  0  0  0  0  0  0
   -0.7011    1.2952    0.7149 C   0  0  0  0  0  0  0  0  0  0  0  0
   -1.5917    1.9198    0.1415 O   0  0  0  0  0  0  0  0  0  0  0  0
    0.1191    1.8675    1.6055 N   0  0  0  0  0  0  0  0  0  0  0  0
    0.8092    1.2861    2.0537 H   0  0  0  0  0  0  0  0  0  0  0  0
    0.0509    3.2769    1.9894 C   0  0  0  0  0  0  0  0  0  0  0  0
   -0.9494    3.5076    2.3640 H   0  0  0  0  0  0  0  0  0  0  0  0
    0.7844    3.4956    2.7668 H   0  0  0  0  0  0  0  0  0  0  0  0
    0.2468    3.9058    1.1193 H   0  0  0  0  0  0  0  0  0  0  0  0
  5  6  2  0  0  0  0
  5  7  1  0  0  0  0
  2  3  1  0  0  0  0
  2  4  1  0  0  0  0
  2  5  1  0  0  0  0
  1  2  1  0  0  0  0
 22 23  2  0  0  0  0
 22 24  1  0  0  0  0
 19 20  1  0  0  0  0
 19 21  1  0  0  0  0
 17 18  2  0  0  0  0
 17 19  1  0  0  0  0
 14 15  1  0  0  0  0
 14 16  1  0  0  0  0
 14 17  1  0  0  0  0
 11 12  1  0  0  0  0
 11 13  1  0  0  0  0
 11 14  1  0  0  0  0
  9 10  1  0  0  0  0
  9 11  1  0  0  0  0
  9 22  1  0  0  0  0
  7  8  1  0  0  0  0
  7  9  1  0  0  0  0
 26 27  1  0  0  0  0
 26 28  1  0  0  0  0
 26 29  1  0  0  0  0
 24 25  1  0  0  0  0
 24 26  1  0  0  0  0
M  END
$$$$
default_name
  -OEChem-02102213163D

 29 28  0     1  0  0  0  0  0999 V2000
   -3.3998   -3.6239    1.3678 H   0  0  0  0  0  0  0  0  0  0  0  0
   -3.3608   -2.6749    0.8348 C   0  0  0  0  0  0  0  0  0  0  0  0
   -4.0988   -1.9909    1.2498 H   0  0  0  0  0  0  0  0  0  0  0  0
   -3.5618   -2.8419   -0.2222 H   0  0  0  0  0  0  0  0  0  0  0  0
   -1.9818   -2.0809    0.9918 C   0  0  0  0  0  0  0  0  0  0  0  0
   -1.1288   -2.6669    1.6468 O   0  0  0  0  0  0  0  0  0  0  0  0
   -1.7648   -0.9089    0.3998 N   0  0  0  0  0  0  0  0  0  0  0  0
   -2.5238   -0.4719   -0.1032 H   0  0  0  0  0  0  0  0  0  0  0  0
   -0.4848   -0.1959    0.4138 C   0  0  1  0  0  0  0  0  0  0  0  0
    0.1386   -0.6144    1.2058 H   0  0  0  0  0  0  0  0  0  0  0  0
    0.2271   -0.4272   -0.9334 C   0  0  0  0  0  0  0  0  0  0  0  0
   -0.5011   -0.2871   -1.7350 H   0  0  0  0  0  0  0  0  0  0  0  0
    1.0141    0.3189   -1.0534 H   0  0  0  0  0  0  0  0  0  0  0  0
    0.8444   -1.8290   -1.0786 C   0  0  0  0  0  0  0  0  0  0  0  0
    1.7284   -1.7769   -1.7138 H   0  0  0  0  0  0  0  0  0  0  0  0
    1.1440   -2.1874   -0.0938 H   0  0  0  0  0  0  0  0  0  0  0  0
   -0.1164   -2.8490   -1.6895 C   0  0  0  0  0  0  0  0  0  0  0  0
   -1.2754   -2.5971   -1.9615 O   0  0  0  0  0  0  0  0  0  0  0  0
    0.3329   -4.0591   -1.9420 N   0  0  0  0  0  0  0  0  0  0  0  0
   -0.3404   -4.6881   -2.3439 H   0  0  0  0  0  0  0  0  0  0  0  0
    1.2774   -4.3182   -1.7405 H   0  0  0  0  0  0  0  0  0  0  0  0
   -0.7011    1.2952    0.7149 C   0  0  0  0  0  0  0  0  0  0  0  0
   -1.5917    1.9198    0.1415 O   0  0  0  0  0  0  0  0  0  0  0  0
    0.1191    1.8675    1.6055 N   0  0  0  0  0  0  0  0  0  0  0  0
    0.8092    1.2861    2.0537 H   0  0  0  0  0  0  0  0  0  0  0  0
    0.0509    3.2769    1.9894 C   0  0  0  0  0  0  0  0  0  0  0  0
   -0.9494    3.5076    2.3640 H   0  0  0  0  0  0  0  0  0  0  0  0
    0.7844    3.4956    2.7668 H   0  0  0  0  0  0  0  0  0  0  0  0
    0.2468    3.9058    1.1193 H   0  0  0  0  0  0  0  0  0  0  0  0
  5  6  2  0  0  0  0
  5  7  1  0  0  0  0
  2  3  1  0  0  0  0
  2  4  1  0  0  0  0
  2  5  1  0  0  0  0
  1  2  1  0  0  0  0
 22 23  2  0  0  0  0
 22 24  1  0  0  0  0
 19 20  1  0  0  0  0
 19 21  1  0  0  0  0
 17 18  2  0  0  0  0
 17 19  1  0  0  0  0
 14 15  1  0  0  0  0
 14 16  1  0  0  0  0
 14 17  1  0  0  0  0
 11 12  1  0  0  0  0
 11 13  1  0  0  0  0
 11 14  1  0  0  0  0
  9 10  1  0  0  0  0
  9 11  1  0  0  0  0
  9 22  1  0  0  0  0
  7  8  1  0  0  0  0
  7  9  1  0  0  0  0
 26 27  1  0  0  0  0
 26 28  1  0  0  0  0
 26 29  1  0  0  0  0
 24 25  1  0  0  0  0
 24 26  1  0  0  0  0
M  END
$$$$
default_name
  -OEChem-02102213163D

 29 28  0     1  0  0  0  0  0999 V2000
   -3.3998   -3.6239    1.3678 H   0  0  0  0  0  0  0  0  0  0  0  0
   -3.3608   -2.6749    0.8348 C   0  0  0  0  0  0  0  0  0  0  0  0
   -4.0988   -1.9909    1.2498 H   0  0  0  0  0  0  0  0  0  0  0  0
   -3.5618   -2.8419   -0.2222 H   0  0  0  0  0  0  0  0  0  0  0  0
   -1.9818   -2.0809    0.9918 C   0  0  0  0  0  0  0  0  0  0  0  0
   -1.1288   -2.6669    1.6468 O   0  0  0  0  0  0  0  0  0  0  0  0
   -1.7648   -0.9089    0.3998 N   0  0  0  0  0  0  0  0  0  0  0  0
   -2.5238   -0.4719   -0.1032 H   0  0  0  0  0  0  0  0  0  0  0  0
   -0.4848   -0.1959    0.4138 C   0  0  1  0  0  0  0  0  0  0  0  0
    0.1386   -0.6144    1.2058 H   0  0  0  0  0  0  0  0  0  0  0  0
    0.2271   -0.4272   -0.9334 C   0  0  0  0  0  0  0  0  0  0  0  0
   -0.5011   -0.2871   -1.7350 H   0  0  0  0  0  0  0  0  0  0  0  0
    1.0141    0.3189   -1.0534 H   0  0  0  0  0  0  0  0  0  0  0  0
    0.8444   -1.8290   -1.0786 C   0  0  0  0  0  0  0  0  0  0  0  0
    1.8544   -1.7457   -1.4795 H   0  0  0  0  0  0  0  0  0  0  0  0
    0.8976   -2.2957   -0.0950 H   0  0  0  0  0  0  0  0  0  0  0  0
    0.0437   -2.7460   -2.0031 C   0  0  0  0  0  0  0  0  0  0  0  0
   -1.0146   -2.4254   -2.5108 O   0  0  0  0  0  0  0  0  0  0  0  0
    0.5256   -3.9402   -2.2709 N   0  0  0  0  0  0  0  0  0  0  0  0
   -0.0408   -4.5002   -2.8843 H   0  0  0  0  0  0  0  0  0  0  0  0
    1.3922   -4.2530   -1.8824 H   0  0  0  0  0  0  0  0  0  0  0  0
   -0.7011    1.2952    0.7149 C   0  0  0  0  0  0  0  0  0  0  0  0
   -1.5917    1.9198    0.1415 O   0  0  0  0  0  0  0  0  0  0  0  0
    0.1191    1.8675    1.6055 N   0  0  0  0  0  0  0  0  0  0  0  0
    0.8092    1.2861    2.0537 H   0  0  0  0  0  0  0  0  0  0  0  0
    0.0509    3.2769    1.9894 C   0  0  0  0  0  0  0  0  0  0  0  0
   -0.9494    3.5076    2.3640 H   0  0  0  0  0  0  0  0  0  0  0  0
    0.7844    3.4956    2.7668 H   0  0  0  0  0  0  0  0  0  0  0  0
    0.2468    3.9058    1.1193 H   0  0  0  0  0  0  0  0  0  0  0  0
  5  6  2  0  0  0  0
  5  7  1  0  0  0  0
  2  3  1  0  0  0  0
  2  4  1  0  0  0  0
  2  5  1  0  0  0  0
  1  2  1  0  0  0  0
 22 23  2  0  0  0  0
 22 24  1  0  0  0  0
 19 20  1  0  0  0  0
 19 21  1  0  0  0  0
 17 18  2  0  0  0  0
 17 19  1  0  0  0  0
 14 15  1  0  0  0  0
 14 16  1  0  0  0  0
 14 17  1  0  0  0  0
 11 12  1  0  0  0  0
 11 13  1  0  0  0  0
 11 14  1  0  0  0  0
  9 10  1  0  0  0  0
  9 11  1  0  0  0  0
  9 22  1  0  0  0  0
  7  8  1  0  0  0  0
  7  9  1  0  0  0  0
 26 27  1  0  0  0  0
 26 28  1  0  0  0  0
 26 29  1  0  0  0  0
 24 25  1  0  0  0  0
 24 26  1  0  0  0  0
M  END
$$$$
default_name
  -OEChem-02102213163D

 29 28  0     1  0  0  0  0  0999 V2000
   -3.3998   -3.6239    1.3678 H   0  0  0  0  0  0  0  0  0  0  0  0
   -3.3608   -2.6749    0.8348 C   0  0  0  0  0  0  0  0  0  0  0  0
   -4.0988   -1.9909    1.2498 H   0  0  0  0  0  0  0  0  0  0  0  0
   -3.5618   -2.8419   -0.2222 H   0  0  0  0  0  0  0  0  0  0  0  0
   -1.9818   -2.0809    0.9918 C   0  0  0  0  0  0  0  0  0  0  0  0
   -1.1288   -2.6669    1.6468 O   0  0  0  0  0  0  0  0  0  0  0  0
   -1.7648   -0.9089    0.3998 N   0  0  0  0  0  0  0  0  0  0  0  0
   -2.5238   -0.4719   -0.1032 H   0  0  0  0  0  0  0  0  0  0  0  0
   -0.4848   -0.1959    0.4138 C   0  0  1  0  0  0  0  0  0  0  0  0
    0.1386   -0.6144    1.2058 H   0  0  0  0  0  0  0  0  0  0  0  0
    0.2271   -0.4272   -0.9334 C   0  0  0  0  0  0  0  0  0  0  0  0
   -0.5011   -0.2871   -1.7350 H   0  0  0  0  0  0  0  0  0  0  0  0
    1.0141    0.3189   -1.0534 H   0  0  0  0  0  0  0  0  0  0  0  0
    0.8444   -1.8290   -1.0786 C   0  0  0  0  0  0  0  0  0  0  0  0
    1.9215   -1.7430   -1.2202 H   0  0  0  0  0  0  0  0  0  0  0  0
    0.6573   -2.3943   -0.1656 H   0  0  0  0  0  0  0  0  0  0  0  0
    0.2749   -2.6178   -2.2576 C   0  0  0  0  0  0  0  0  0  0  0  0
   -0.6290   -2.2089   -2.9621 O   0  0  0  0  0  0  0  0  0  0  0  0
    0.7922   -3.7960   -2.5309 N   0  0  0  0  0  0  0  0  0  0  0  0
    0.3807   -4.2699   -3.3161 H   0  0  0  0  0  0  0  0  0  0  0  0
    1.5381   -4.1780   -1.9856 H   0  0  0  0  0  0  0  0  0  0  0  0
   -0.7011    1.2952    0.7149 C   0  0  0  0  0  0  0  0  0  0  0  0
   -1.5917    1.9198    0.1415 O   0  0  0  0  0  0  0  0  0  0  0  0
    0.1191    1.8675    1.6055 N   0  0  0  0  0  0  0  0  0  0  0  0
    0.8092    1.2861    2.0537 H   0  0  0  0  0  0  0  0  0  0  0  0
    0.0509    3.2769    1.9894 C   0  0  0  0  0  0  0  0  0  0  0  0
   -0.9494    3.5076    2.3640 H   0  0  0  0  0  0  0  0  0  0  0  0
    0.7844    3.4956    2.7668 H   0  0  0  0  0  0  0  0  0  0  0  0
    0.2468    3.9058    1.1193 H   0  0  0  0  0  0  0  0  0  0  0  0
  5  6  2  0  0  0  0
  5  7  1  0  0  0  0
  2  3  1  0  0  0  0
  2  4  1  0  0  0  0
  2  5  1  0  0  0  0
  1  2  1  0  0  0  0
 22 23  2  0  0  0  0
 22 24  1  0  0  0  0
 19 20  1  0  0  0  0
 19 21  1  0  0  0  0
 17 18  2  0  0  0  0
 17 19  1  0  0  0  0
 14 15  1  0  0  0  0
 14 16  1  0  0  0  0
 14 17  1  0  0  0  0
 11 12  1  0  0  0  0
 11 13  1  0  0  0  0
 11 14  1  0  0  0  0
  9 10  1  0  0  0  0
  9 11  1  0  0  0  0
  9 22  1  0  0  0  0
  7  8  1  0  0  0  0
  7  9  1  0  0  0  0
 26 27  1  0  0  0  0
 26 28  1  0  0  0  0
 26 29  1  0  0  0  0
 24 25  1  0  0  0  0
 24 26  1  0  0  0  0
M  END
$$$$
default_name
  -OEChem-02102213163D

 29 28  0     1  0  0  0  0  0999 V2000
   -3.3998   -3.6239    1.3678 H   0  0  0  0  0  0  0  0  0  0  0  0
   -3.3608   -2.6749    0.8348 C   0  0  0  0  0  0  0  0  0  0  0  0
   -4.0988   -1.9909    1.2498 H   0  0  0  0  0  0  0  0  0  0  0  0
   -3.5618   -2.8419   -0.2222 H   0  0  0  0  0  0  0  0  0  0  0  0
   -1.9818   -2.0809    0.9918 C   0  0  0  0  0  0  0  0  0  0  0  0
   -1.1288   -2.6669    1.6468 O   0  0  0  0  0  0  0  0  0  0  0  0
   -1.7648   -0.9089    0.3998 N   0  0  0  0  0  0  0  0  0  0  0  0
   -2.5238   -0.4719   -0.1032 H   0  0  0  0  0  0  0  0  0  0  0  0
   -0.4848   -0.1959    0.4138 C   0  0  1  0  0  0  0  0  0  0  0  0
    0.1386   -0.6144    1.2058 H   0  0  0  0  0  0  0  0  0  0  0  0
    0.2271   -0.4272   -0.9334 C   0  0  0  0  0  0  0  0  0  0  0  0
   -0.5011   -0.2871   -1.7350 H   0  0  0  0  0  0  0  0  0  0  0  0
    1.0141    0.3189   -1.0534 H   0  0  0  0  0  0  0  0  0  0  0  0
    0.8444   -1.8290   -1.0786 C   0  0  0  0  0  0  0  0  0  0  0  0
    1.9254   -1.7689   -0.9536 H   0  0  0  0  0  0  0  0  0  0  0  0
    0.4394   -2.4762   -0.3007 H   0  0  0  0  0  0  0  0  0  0  0  0
    0.5612   -2.4733   -2.4356 C   0  0  0  0  0  0  0  0  0  0  0  0
   -0.1448   -1.9623   -3.2846 O   0  0  0  0  0  0  0  0  0  0  0  0
    1.1145   -3.6361   -2.7041 N   0  0  0  0  0  0  0  0  0  0  0  0
    0.8953   -4.0128   -3.6099 H   0  0  0  0  0  0  0  0  0  0  0  0
    1.7052   -4.0985   -2.0431 H   0  0  0  0  0  0  0  0  0  0  0  0
   -0.7011    1.2952    0.7149 C   0  0  0  0  0  0  0  0  0  0  0  0
   -1.5917    1.9198    0.1415 O   0  0  0  0  0  0  0  0  0  0  0  0
    0.1191    1.8675    1.6055 N   0  0  0  0  0  0  0  0  0  0  0  0
    0.8092    1.2861    2.0537 H   0  0  0  0  0  0  0  0  0  0  0  0
    0.0509    3.2769    1.9894 C   0  0  0  0  0  0  0  0  0  0  0  0
   -0.9494    3.5076    2.3640 H   0  0  0  0  0  0  0  0  0  0  0  0
    0.7844    3.4956    2.7668 H   0  0  0  0  0  0  0  0  0  0  0  0
    0.2468    3.9058    1.1193 H   0  0  0  0  0  0  0  0  0  0  0  0
  5  6  2  0  0  0  0
  5  7  1  0  0  0  0
  2  3  1  0  0  0  0
  2  4  1  0  0  0  0
  2  5  1  0  0  0  0
  1  2  1  0  0  0  0
 22 23  2  0  0  0  0
 22 24  1  0  0  0  0
 19 20  1  0  0  0  0
 19 21  1  0  0  0  0
 17 18  2  0  0  0  0
 17 19  1  0  0  0  0
 14 15  1  0  0  0  0
 14 16  1  0  0  0  0
 14 17  1  0  0  0  0
 11 12  1  0  0  0  0
 11 13  1  0  0  0  0
 11 14  1  0  0  0  0
  9 10  1  0  0  0  0
  9 11  1  0  0  0  0
  9 22  1  0  0  0  0
  7  8  1  0  0  0  0
  7  9  1  0  0  0  0
 26 27  1  0  0  0  0
 26 28  1  0  0  0  0
 26 29  1  0  0  0  0
 24 25  1  0  0  0  0
 24 26  1  0  0  0  0
M  END
$$$$
default_name
  -OEChem-02102213163D

 29 28  0     1  0  0  0  0  0999 V2000
   -3.3998   -3.6239    1.3678 H   0  0  0  0  0  0  0  0  0  0  0  0
   -3.3608   -2.6749    0.8348 C   0  0  0  0  0  0  0  0  0  0  0  0
   -4.0988   -1.9909    1.2498 H   0  0  0  0  0  0  0  0  0  0  0  0
   -3.5618   -2.8419   -0.2222 H   0  0  0  0  0  0  0  0  0  0  0  0
   -1.9818   -2.0809    0.9918 C   0  0  0  0  0  0  0  0  0  0  0  0
   -1.1288   -2.6669    1.6468 O   0  0  0  0  0  0  0  0  0  0  0  0
   -1.7648   -0.9089    0.3998 N   0  0  0  0  0  0  0  0  0  0  0  0
   -2.5238   -0.4719   -0.1032 H   0  0  0  0  0  0  0  0  0  0  0  0
   -0.4848   -0.1959    0.4138 C   0  0  1  0  0  0  0  0  0  0  0  0
    0.1386   -0.6144    1.2058 H   0  0  0  0  0  0  0  0  0  0  0  0
    0.2271   -0.4272   -0.9334 C   0  0  0  0  0  0  0  0  0  0  0  0
   -0.5011   -0.2871   -1.7350 H   0  0  0  0  0  0  0  0  0  0  0  0
    1.0141    0.3189   -1.0534 H   0  0  0  0  0  0  0  0  0  0  0  0
    0.8444   -1.8290   -1.0786 C   0  0  0  0  0  0  0  0  0  0  0  0
    1.8655   -1.8217   -0.6979 H   0  0  0  0  0  0  0  0  0  0  0  0
    0.2588   -2.5360   -0.4910 H   0  0  0  0  0  0  0  0  0  0  0  0
    0.8834   -2.3222   -2.5249 C   0  0  0  0  0  0  0  0  0  0  0  0
    0.4049   -1.7024   -3.4563 O   0  0  0  0  0  0  0  0  0  0  0  0
    1.4705   -3.4716   -2.7788 N   0  0  0  0  0  0  0  0  0  0  0  0
    1.4679   -3.7466   -3.7456 H   0  0  0  0  0  0  0  0  0  0  0  0
    1.8821   -4.0198   -2.0509 H   0  0  0  0  0  0  0  0  0  0  0  0
   -0.7011    1.2952    0.7149 C   0  0  0  0  0  0  0  0  0  0  0  0
   -1.5917    1.9198    0.1415 O   0  0  0  0  0  0  0  0  0  0  0  0
    0.1191    1.8675    1.6055 N   0  0  0  0  0  0  0  0  0  0  0  0
    0.8092    1.2861    2.0537 H   0  0  0  0  0  0  0  0  0  0  0  0
    0.0509    3.2769    1.9894 C   0  0  0  0  0  0  0  0  0  0  0  0
   -0.9494    3.5076    2.3640 H   0  0  0  0  0  0  0  0  0  0  0  0
    0.7844    3.4956    2.7668 H   0  0  0  0  0  0  0  0  0  0  0  0
    0.2468    3.9058    1.1193 H   0  0  0  0  0  0  0  0  0  0  0  0
  5  6  2  0  0  0  0
  5  7  1  0  0  0  0
  2  3  1  0  0  0  0
  2  4  1  0  0  0  0
  2  5  1  0  0  0  0
  1  2  1  0  0  0  0
 22 23  2  0  0  0  0
 22 24  1  0  0  0  0
 19 20  1  0  0  0  0
 19 21  1  0  0  0  0
 17 18  2  0  0  0  0
 17 19  1  0  0  0  0
 14 15  1  0  0  0  0
 14 16  1  0  0  0  0
 14 17  1  0  0  0  0
 11 12  1  0  0  0  0
 11 13  1  0  0  0  0
 11 14  1  0  0  0  0
  9 10  1  0  0  0  0
  9 11  1  0  0  0  0
  9 22  1  0  0  0  0
  7  8  1  0  0  0  0
  7  9  1  0  0  0  0
 26 27  1  0  0  0  0
 26 28  1  0  0  0  0
 26 29  1  0  0  0  0
 24 25  1  0  0  0  0
 24 26  1  0  0  0  0
M  END
$$$$
default_name
  -OEChem-02102213163D

 29 28  0     1  0  0  0  0  0999 V2000
   -3.3998   -3.6239    1.3678 H   0  0  0  0  0  0  0  0  0  0  0  0
   -3.3608   -2.6749    0.8348 C   0  0  0  0  0  0  0  0  0  0  0  0
   -4.0988   -1.9909    1.2498 H   0  0  0  0  0  0  0  0  0  0  0  0
   -3.5618   -2.8419   -0.2222 H   0  0  0  0  0  0  0  0  0  0  0  0
   -1.9818   -2.0809    0.9918 C   0  0  0  0  0  0  0  0  0  0  0  0
   -1.1288   -2.6669    1.6468 O   0  0  0  0  0  0  0  0  0  0  0  0
   -1.7648   -0.9089    0.3998 N   0  0  0  0  0  0  0  0  0  0  0  0
   -2.5238   -0.4719   -0.1032 H   0  0  0  0  0  0  0  0  0  0  0  0
   -0.4848   -0.1959    0.4138 C   0  0  1  0  0  0  0  0  0  0  0  0
    0.1386   -0.6144    1.2058 H   0  0  0  0  0  0  0  0  0  0  0  0
    0.2271   -0.4272   -0.9334 C   0  0  0  0  0  0  0  0  0  0  0  0
   -0.5011   -0.2871   -1.7350 H   0  0  0  0  0  0  0  0  0  0  0  0
    1.0141    0.3189   -1.0534 H   0  0  0  0  0  0  0  0  0  0  0  0
    0.8444   -1.8290   -1.0786 C   0  0  0  0  0  0  0  0  0  0  0  0
    1.7462   -1.8978   -0.4705 H   0  0  0  0  0  0  0  0  0  0  0  0
    0.1278   -2.5696   -0.7237 H   0  0  0  0  0  0  0  0  0  0  0  0
    1.2193   -2.1748   -2.5196 C   0  0  0  0  0  0  0  0  0  0  0  0
    0.9828   -1.4470   -3.4656 O   0  0  0  0  0  0  0  0  0  0  0  0
    1.8361   -3.3136   -2.7499 N   0  0  0  0  0  0  0  0  0  0  0  0
    2.0595   -3.4894   -3.7141 H   0  0  0  0  0  0  0  0  0  0  0  0
    2.0568   -3.9472   -2.0086 H   0  0  0  0  0  0  0  0  0  0  0  0
   -0.7011    1.2952    0.7149 C   0  0  0  0  0  0  0  0  0  0  0  0
   -1.5917    1.9198    0.1415 O   0  0  0  0  0  0  0  0  0  0  0  0
    0.1191    1.8675    1.6055 N   0  0  0  0  0  0  0  0  0  0  0  0
    0.8092    1.2861    2.0537 H   0  0  0  0  0  0  0  0  0  0  0  0
    0.0509    3.2769    1.9894 C   0  0  0  0  0  0  0  0  0  0  0  0
   -0.9494    3.5076    2.3640 H   0  0  0  0  0  0  0  0  0  0  0  0
    0.7844    3.4956    2.7668 H   0  0  0  0  0  0  0  0  0  0  0  0
    0.2468    3.9058    1.1193 H   0  0  0  0  0  0  0  0  0  0  0  0
  5  6  2  0  0  0  0
  5  7  1  0  0  0  0
  2  3  1  0  0  0  0
  2  4  1  0  0  0  0
  2  5  1  0  0  0  0
  1  2  1  0  0  0  0
 22 23  2  0  0  0  0
 22 24  1  0  0  0  0
 19 20  1  0  0  0  0
 19 21  1  0  0  0  0
 17 18  2  0  0  0  0
 17 19  1  0  0  0  0
 14 15  1  0  0  0  0
 14 16  1  0  0  0  0
 14 17  1  0  0  0  0
 11 12  1  0  0  0  0
 11 13  1  0  0  0  0
 11 14  1  0  0  0  0
  9 10  1  0  0  0  0
  9 11  1  0  0  0  0
  9 22  1  0  0  0  0
  7  8  1  0  0  0  0
  7  9  1  0  0  0  0
 26 27  1  0  0  0  0
 26 28  1  0  0  0  0
 26 29  1  0  0  0  0
 24 25  1  0  0  0  0
 24 26  1  0  0  0  0
M  END
$$$$
default_name
  -OEChem-02102213163D

 29 28  0     1  0  0  0  0  0999 V2000
   -3.3998   -3.6239    1.3678 H   0  0  0  0  0  0  0  0  0  0  0  0
   -3.3608   -2.6749    0.8348 C   0  0  0  0  0  0  0  0  0  0  0  0
   -4.0988   -1.9909    1.2498 H   0  0  0  0  0  0  0  0  0  0  0  0
   -3.5618   -2.8419   -0.2222 H   0  0  0  0  0  0  0  0  0  0  0  0
   -1.9818   -2.0809    0.9918 C   0  0  0  0  0  0  0  0  0  0  0  0
   -1.1288   -2.6669    1.6468 O   0  0  0  0  0  0  0  0  0  0  0  0
   -1.7648   -0.9089    0.3998 N   0  0  0  0  0  0  0  0  0  0  0  0
   -2.5238   -0.4719   -0.1032 H   0  0  0  0  0  0  0  0  0  0  0  0
   -0.4848   -0.1959    0.4138 C   0  0  1  0  0  0  0  0  0  0  0  0
    0.1386   -0.6144    1.2058 H   0  0  0  0  0  0  0  0  0  0  0  0
    0.2271   -0.4272   -0.9334 C   0  0  0  0  0  0  0  0  0  0  0  0
   -0.4081   -0.0331   -1.7295 H   0  0  0  0  0  0  0  0  0  0  0  0
    1.1664    0.1279   -0.9401 H   0  0  0  0  0  0  0  0  0  0  0  0
    0.5217   -1.9068   -1.2358 C   0  0  0  0  0  0  0  0  0  0  0  0
    1.1549   -2.3226   -0.4524 H   0  0  0  0  0  0  0  0  0  0  0  0
   -0.4183   -2.4582   -1.2531 H   0  0  0  0  0  0  0  0  0  0  0  0
    1.2276   -2.1179   -2.5751 C   0  0  0  0  0  0  0  0  0  0  0  0
    1.4630   -1.2158   -3.3570 O   0  0  0  0  0  0  0  0  0  0  0  0
    1.6077   -3.3353   -2.8972 N   0  0  0  0  0  0  0  0  0  0  0  0
    2.0673   -3.4162   -3.7875 H   0  0  0  0  0  0  0  0  0  0  0  0
    1.4415   -4.1122   -2.2902 H   0  0  0  0  0  0  0  0  0  0  0  0
   -0.7011    1.2952    0.7149 C   0  0  0  0  0  0  0  0  0  0  0  0
   -1.5917    1.9198    0.1415 O   0  0  0  0  0  0  0  0  0  0  0  0
    0.1191    1.8675    1.6055 N   0  0  0  0  0  0  0  0  0  0  0  0
    0.8092    1.2861    2.0537 H   0  0  0  0  0  0  0  0  0  0  0  0
    0.0509    3.2769    1.9894 C   0  0  0  0  0  0  0  0  0  0  0  0
   -0.9494    3.5076    2.3640 H   0  0  0  0  0  0  0  0  0  0  0  0
    0.7844    3.4956    2.7668 H   0  0  0  0  0  0  0  0  0  0  0  0
    0.2468    3.9058    1.1193 H   0  0  0  0  0  0  0  0  0  0  0  0
  5  6  2  0  0  0  0
  5  7  1  0  0  0  0
  2  3  1  0  0  0  0
  2  4  1  0  0  0  0
  2  5  1  0  0  0  0
  1  2  1  0  0  0  0
 22 23  2  0  0  0  0
 22 24  1  0  0  0  0
 19 20  1  0  0  0  0
 19 21  1  0  0  0  0
 17 18  2  0  0  0  0
 17 19  1  0  0  0  0
 14 15  1  0  0  0  0
 14 16  1  0  0  0  0
 14 17  1  0  0  0  0
 11 12  1  0  0  0  0
 11 13  1  0  0  0  0
 11 14  1  0  0  0  0
  9 10  1  0  0  0  0
  9 11  1  0  0  0  0
  9 22  1  0  0  0  0
  7  8  1  0  0  0  0
  7  9  1  0  0  0  0
 26 27  1  0  0  0  0
 26 28  1  0  0  0  0
 26 29  1  0  0  0  0
 24 25  1  0  0  0  0
 24 26  1  0  0  0  0
M  END
$$$$
default_name
  -OEChem-02102213163D

 29 28  0     1  0  0  0  0  0999 V2000
   -3.3998   -3.6239    1.3678 H   0  0  0  0  0  0  0  0  0  0  0  0
   -3.3608   -2.6749    0.8348 C   0  0  0  0  0  0  0  0  0  0  0  0
   -4.0988   -1.9909    1.2498 H   0  0  0  0  0  0  0  0  0  0  0  0
   -3.5618   -2.8419   -0.2222 H   0  0  0  0  0  0  0  0  0  0  0  0
   -1.9818   -2.0809    0.9918 C   0  0  0  0  0  0  0  0  0  0  0  0
   -1.1288   -2.6669    1.6468 O   0  0  0  0  0  0  0  0  0  0  0  0
   -1.7648   -0.9089    0.3998 N   0  0  0  0  0  0  0  0  0  0  0  0
   -2.5238   -0.4719   -0.1032 H   0  0  0  0  0  0  0  0  0  0  0  0
   -0.4848   -0.1959    0.4138 C   0  0  1  0  0  0  0  0  0  0  0  0
    0.1386   -0.6144    1.2058 H   0  0  0  0  0  0  0  0  0  0  0  0
    0.2271   -0.4272   -0.9334 C   0  0  0  0  0  0  0  0  0  0  0  0
   -0.4081   -0.0331   -1.7295 H   0  0  0  0  0  0  0  0  0  0  0  0
    1.1664    0.1279   -0.9401 H   0  0  0  0  0  0  0  0  0  0  0  0
    0.5217   -1.9068   -1.2358 C   0  0  0  0  0  0  0  0  0  0  0  0
    0.9196   -2.3915   -0.3445 H   0  0  0  0  0  0  0  0  0  0  0  0
   -0.4078   -2.4024   -1.5161 H   0  0  0  0  0  0  0  0  0  0  0  0
    1.5300   -2.1000   -2.3683 C   0  0  0  0  0  0  0  0  0  0  0  0
    1.9935   -1.1799   -3.0157 O   0  0  0  0  0  0  0  0  0  0  0  0
    1.9240   -3.3221   -2.6539 N   0  0  0  0  0  0  0  0  0  0  0  0
    2.5876   -3.3907   -3.4057 H   0  0  0  0  0  0  0  0  0  0  0  0
    1.5767   -4.1136   -2.1513 H   0  0  0  0  0  0  0  0  0  0  0  0
   -0.7011    1.2952    0.7149 C   0  0  0  0  0  0  0  0  0  0  0  0
   -1.5917    1.9198    0.1415 O   0  0  0  0  0  0  0  0  0  0  0  0
    0.1191    1.8675    1.6055 N   0  0  0  0  0  0  0  0  0  0  0  0
    0.8092    1.2861    2.0537 H   0  0  0  0  0  0  0  0  0  0  0  0
    0.0509    3.2769    1.9894 C   0  0  0  0  0  0  0  0  0  0  0  0
   -0.9494    3.5076    2.3640 H   0  0  0  0  0  0  0  0  0  0  0  0
    0.7844    3.4956    2.7668 H   0  0  0  0  0  0  0  0  0  0  0  0
    0.2468    3.9058    1.1193 H   0  0  0  0  0  0  0  0  0  0  0  0
  5  6  2  0  0  0  0
  5  7  1  0  0  0  0
  2  3  1  0  0  0  0
  2  4  1  0  0  0  0
  2  5  1  0  0  0  0
  1  2  1  0  0  0  0
 22 23  2  0  0  0  0
 22 24  1  0  0  0  0
 19 20  1  0  0  0  0
 19 21  1  0  0  0  0
 17 18  2  0  0  0  0
 17 19  1  0  0  0  0
 14 15  1  0  0  0  0
 14 16  1  0  0  0  0
 14 17  1  0  0  0  0
 11 12  1  0  0  0  0
 11 13  1  0  0  0  0
 11 14  1  0  0  0  0
  9 10  1  0  0  0  0
  9 11  1  0  0  0  0
  9 22  1  0  0  0  0
  7  8  1  0  0  0  0
  7  9  1  0  0  0  0
 26 27  1  0  0  0  0
 26 28  1  0  0  0  0
 26 29  1  0  0  0  0
 24 25  1  0  0  0  0
 24 26  1  0  0  0  0
M  END
$$$$
default_name
  -OEChem-02102213163D

 29 28  0     1  0  0  0  0  0999 V2000
   -3.3998   -3.6239    1.3678 H   0  0  0  0  0  0  0  0  0  0  0  0
   -3.3608   -2.6749    0.8348 C   0  0  0  0  0  0  0  0  0  0  0  0
   -4.0988   -1.9909    1.2498 H   0  0  0  0  0  0  0  0  0  0  0  0
   -3.5618   -2.8419   -0.2222 H   0  0  0  0  0  0  0  0  0  0  0  0
   -1.9818   -2.0809    0.9918 C   0  0  0  0  0  0  0  0  0  0  0  0
   -1.1288   -2.6669    1.6468 O   0  0  0  0  0  0  0  0  0  0  0  0
   -1.7648   -0.9089    0.3998 N   0  0  0  0  0  0  0  0  0  0  0  0
   -2.5238   -0.4719   -0.1032 H   0  0  0  0  0  0  0  0  0  0  0  0
   -0.4848   -0.1959    0.4138 C   0  0  1  0  0  0  0  0  0  0  0  0
    0.1386   -0.6144    1.2058 H   0  0  0  0  0  0  0  0  0  0  0  0
    0.2271   -0.4272   -0.9334 C   0  0  0  0  0  0  0  0  0  0  0  0
   -0.4081   -0.0331   -1.7295 H   0  0  0  0  0  0  0  0  0  0  0  0
    1.1664    0.1279   -0.9401 H   0  0  0  0  0  0  0  0  0  0  0  0
    0.5217   -1.9068   -1.2358 C   0  0  0  0  0  0  0  0  0  0  0  0
    0.6619   -2.4514   -0.3023 H   0  0  0  0  0  0  0  0  0  0  0  0
   -0.3292   -2.3359   -1.7648 H   0  0  0  0  0  0  0  0  0  0  0  0
    1.7716   -2.1083   -2.0923 C   0  0  0  0  0  0  0  0  0  0  0  0
    2.4229   -1.1892   -2.5523 O   0  0  0  0  0  0  0  0  0  0  0  0
    2.1696   -3.3374   -2.3394 N   0  0  0  0  0  0  0  0  0  0  0  0
    2.9965   -3.4114   -2.9062 H   0  0  0  0  0  0  0  0  0  0  0  0
    1.6727   -4.1288   -1.9837 H   0  0  0  0  0  0  0  0  0  0  0  0
   -0.7011    1.2952    0.7149 C   0  0  0  0  0  0  0  0  0  0  0  0
   -1.5917    1.9198    0.1415 O   0  0  0  0  0  0  0  0  0  0  0  0
    0.1191    1.8675    1.6055 N   0  0  0  0  0  0  0  0  0  0  0  0
    0.8092    1.2861    2.0537 H   0  0  0  0  0  0  0  0  0  0  0  0
    0.0509    3.2769    1.9894 C   0  0  0  0  0  0  0  0  0  0  0  0
   -0.9494    3.5076    2.3640 H   0  0  0  0  0  0  0  0  0  0  0  0
    0.7844    3.4956    2.7668 H   0  0  0  0  0  0  0  0  0  0  0  0
    0.2468    3.9058    1.1193 H   0  0  0  0  0  0  0  0  0  0  0  0
  5  6  2  0  0  0  0
  5  7  1  0  0  0  0
  2  3  1  0  0  0  0
  2  4  1  0  0  0  0
  2  5  1  0  0  0  0
  1  2  1  0  0  0  0
 22 23  2  0  0  0  0
 22 24  1  0  0  0  0
 19 20  1  0  0  0  0
 19 21  1  0  0  0  0
 17 18  2  0  0  0  0
 17 19  1  0  0  0  0
 14 15  1  0  0  0  0
 14 16  1  0  0  0  0
 14 17  1  0  0  0  0
 11 12  1  0  0  0  0
 11 13  1  0  0  0  0
 11 14  1  0  0  0  0
  9 10  1  0  0  0  0
  9 11  1  0  0  0  0
  9 22  1  0  0  0  0
  7  8  1  0  0  0  0
  7  9  1  0  0  0  0
 26 27  1  0  0  0  0
 26 28  1  0  0  0  0
 26 29  1  0  0  0  0
 24 25  1  0  0  0  0
 24 26  1  0  0  0  0
M  END
$$$$
default_name
  -OEChem-02102213163D

 29 28  0     1  0  0  0  0  0999 V2000
   -3.3998   -3.6239    1.3678 H   0  0  0  0  0  0  0  0  0  0  0  0
   -3.3608   -2.6749    0.8348 C   0  0  0  0  0  0  0  0  0  0  0  0
   -4.0988   -1.9909    1.2498 H   0  0  0  0  0  0  0  0  0  0  0  0
   -3.5618   -2.8419   -0.2222 H   0  0  0  0  0  0  0  0  0  0  0  0
   -1.9818   -2.0809    0.9918 C   0  0  0  0  0  0  0  0  0  0  0  0
   -1.1288   -2.6669    1.6468 O   0  0  0  0  0  0  0  0  0  0  0  0
   -1.7648   -0.9089    0.3998 N   0  0  0  0  0  0  0  0  0  0  0  0
   -2.5238   -0.4719   -0.1032 H   0  0  0  0  0  0  0  0  0  0  0  0
   -0.4848   -0.1959    0.4138 C   0  0  1  0  0  0  0  0  0  0  0  0
    0.1386   -0.6144    1.2058 H   0  0  0  0  0  0  0  0  0  0  0  0
    0.2271   -0.4272   -0.9334 C   0  0  0  0  0  0  0  0  0  0  0  0
   -0.4081   -0.0331   -1.7295 H   0  0  0  0  0  0  0  0  0  0  0  0
    1.1664    0.1279   -0.9401 H   0  0  0  0  0  0  0  0  0  0  0  0
    0.5217   -1.9068   -1.2358 C   0  0  0  0  0  0  0  0  0  0  0  0
    0.3995   -2.4982   -0.3287 H   0  0  0  0  0  0  0  0  0  0  0  0
   -0.1881   -2.2634   -1.9822 H   0  0  0  0  0  0  0  0  0  0  0  0
    1.9359   -2.1423   -1.7660 C   0  0  0  0  0  0  0  0  0  0  0  0
    2.7219   -1.2429   -1.9982 O   0  0  0  0  0  0  0  0  0  0  0  0
    2.3278   -3.3804   -1.9753 N   0  0  0  0  0  0  0  0  0  0  0  0
    3.2661   -3.4769   -2.3229 H   0  0  0  0  0  0  0  0  0  0  0  0
    1.7229   -4.1566   -1.7986 H   0  0  0  0  0  0  0  0  0  0  0  0
   -0.7011    1.2952    0.7149 C   0  0  0  0  0  0  0  0  0  0  0  0
   -1.5917    1.9198    0.1415 O   0  0  0  0  0  0  0  0  0  0  0  0
    0.1191    1.8675    1.6055 N   0  0  0  0  0  0  0  0  0  0  0  0
    0.8092    1.2861    2.0537 H   0  0  0  0  0  0  0  0  0  0  0  0
    0.0509    3.2769    1.9894 C   0  0  0  0  0  0  0  0  0  0  0  0
   -0.9494    3.5076    2.3640 H   0  0  0  0  0  0  0  0  0  0  0  0
    0.7844    3.4956    2.7668 H   0  0  0  0  0  0  0  0  0  0  0  0
    0.2468    3.9058    1.1193 H   0  0  0  0  0  0  0  0  0  0  0  0
  5  6  2  0  0  0  0
  5  7  1  0  0  0  0
  2  3  1  0  0  0  0
  2  4  1  0  0  0  0
  2  5  1  0  0  0  0
  1  2  1  0  0  0  0
 22 23  2  0  0  0  0
 22 24  1  0  0  0  0
 19 20  1  0  0  0  0
 19 21  1  0  0  0  0
 17 18  2  0  0  0  0
 17 19  1  0  0  0  0
 14 15  1  0  0  0  0
 14 16  1  0  0  0  0
 14 17  1  0  0  0  0
 11 12  1  0  0  0  0
 11 13  1  0  0  0  0
 11 14  1  0  0  0  0
  9 10  1  0  0  0  0
  9 11  1  0  0  0  0
  9 22  1  0  0  0  0
  7  8  1  0  0  0  0
  7  9  1  0  0  0  0
 26 27  1  0  0  0  0
 26 28  1  0  0  0  0
 26 29  1  0  0  0  0
 24 25  1  0  0  0  0
 24 26  1  0  0  0  0
M  END
$$$$
default_name
  -OEChem-02102213163D

 29 28  0     1  0  0  0  0  0999 V2000
   -3.3998   -3.6239    1.3678 H   0  0  0  0  0  0  0  0  0  0  0  0
   -3.3608   -2.6749    0.8348 C   0  0  0  0  0  0  0  0  0  0  0  0
   -4.0988   -1.9909    1.2498 H   0  0  0  0  0  0  0  0  0  0  0  0
   -3.5618   -2.8419   -0.2222 H   0  0  0  0  0  0  0  0  0  0  0  0
   -1.9818   -2.0809    0.9918 C   0  0  0  0  0  0  0  0  0  0  0  0
   -1.1288   -2.6669    1.6468 O   0  0  0  0  0  0  0  0  0  0  0  0
   -1.7648   -0.9089    0.3998 N   0  0  0  0  0  0  0  0  0  0  0  0
   -2.5238   -0.4719   -0.1032 H   0  0  0  0  0  0  0  0  0  0  0  0
   -0.4848   -0.1959    0.4138 C   0  0  1  0  0  0  0  0  0  0  0  0
    0.1386   -0.6144    1.2058 H   0  0  0  0  0  0  0  0  0  0  0  0
    0.2271   -0.4272   -0.9334 C   0  0  0  0  0  0  0  0  0  0  0  0
   -0.4081   -0.0331   -1.7295 H   0  0  0  0  0  0  0  0  0  0  0  0
    1.1664    0.1279   -0.9401 H   0  0  0  0  0  0  0  0  0  0  0  0
    0.5217   -1.9068   -1.2358 C   0  0  0  0  0  0  0  0  0  0  0  0
    0.1502   -2.5288   -0.4217 H   0  0  0  0  0  0  0  0  0  0  0  0
    0.0060   -2.1897   -2.1534 H   0  0  0  0  0  0  0  0  0  0  0  0
    2.0116   -2.1996   -1.4117 C   0  0  0  0  0  0  0  0  0  0  0  0
    2.8700   -1.3375   -1.3913 O   0  0  0  0  0  0  0  0  0  0  0  0
    2.3878   -3.4479   -1.5864 N   0  0  0  0  0  0  0  0  0  0  0  0
    3.3779   -3.5829   -1.6957 H   0  0  0  0  0  0  0  0  0  0  0  0
    1.7239   -4.1952   -1.6086 H   0  0  0  0  0  0  0  0  0  0  0  0
   -0.7011    1.2952    0.7149 C   0  0  0  0  0  0  0  0  0  0  0  0
   -1.5917    1.9198    0.1415 O   0  0  0  0  0  0  0  0  0  0  0  0
    0.1191    1.8675    1.6055 N   0  0  0  0  0  0  0  0  0  0  0  0
    0.8092    1.2861    2.0537 H   0  0  0  0  0  0  0  0  0  0  0  0
    0.0509    3.2769    1.9894 C   0  0  0  0  0  0  0  0  0  0  0  0
   -0.9494    3.5076    2.3640 H   0  0  0  0  0  0  0  0  0  0  0  0
    0.7844    3.4956    2.7668 H   0  0  0  0  0  0  0  0  0  0  0  0
    0.2468    3.9058    1.1193 H   0  0  0  0  0  0  0  0  0  0  0  0
  5  6  2  0  0  0  0
  5  7  1  0  0  0  0
  2  3  1  0  0  0  0
  2  4  1  0  0  0  0
  2  5  1  0  0  0  0
  1  2  1  0  0  0  0
 22 23  2  0  0  0  0
 22 24  1  0  0  0  0
 19 20  1  0  0  0  0
 19 21  1  0  0  0  0
 17 18  2  0  0  0  0
 17 19  1  0  0  0  0
 14 15  1  0  0  0  0
 14 16  1  0  0  0  0
 14 17  1  0  0  0  0
 11 12  1  0  0  0  0
 11 13  1  0  0  0  0
 11 14  1  0  0  0  0
  9 10  1  0  0  0  0
  9 11  1  0  0  0  0
  9 22  1  0  0  0  0
  7  8  1  0  0  0  0
  7  9  1  0  0  0  0
 26 27  1  0  0  0  0
 26 28  1  0  0  0  0
 26 29  1  0  0  0  0
 24 25  1  0  0  0  0
 24 26  1  0  0  0  0
M  END
$$$$
default_name
  -OEChem-02102213163D

 29 28  0     1  0  0  0  0  0999 V2000
   -3.3998   -3.6239    1.3678 H   0  0  0  0  0  0  0  0  0  0  0  0
   -3.3608   -2.6749    0.8348 C   0  0  0  0  0  0  0  0  0  0  0  0
   -4.0988   -1.9909    1.2498 H   0  0  0  0  0  0  0  0  0  0  0  0
   -3.5618   -2.8419   -0.2222 H   0  0  0  0  0  0  0  0  0  0  0  0
   -1.9818   -2.0809    0.9918 C   0  0  0  0  0  0  0  0  0  0  0  0
   -1.1288   -2.6669    1.6468 O   0  0  0  0  0  0  0  0  0  0  0  0
   -1.7648   -0.9089    0.3998 N   0  0  0  0  0  0  0  0  0  0  0  0
   -2.5238   -0.4719   -0.1032 H   0  0  0  0  0  0  0  0  0  0  0  0
   -0.4848   -0.1959    0.4138 C   0  0  1  0  0  0  0  0  0  0  0  0
    0.1386   -0.6144    1.2058 H   0  0  0  0  0  0  0  0  0  0  0  0
    0.2271   -0.4272   -0.9334 C   0  0  0  0  0  0  0  0  0  0  0  0
   -0.4081   -0.0331   -1.7295 H   0  0  0  0  0  0  0  0  0  0  0  0
    1.1664    0.1279   -0.9401 H   0  0  0  0  0  0  0  0  0  0  0  0
    0.5217   -1.9068   -1.2358 C   0  0  0  0  0  0  0  0  0  0  0  0
   -0.0690   -2.5411   -0.5752 H   0  0  0  0  0  0  0  0  0  0  0  0
    0.2399   -2.1200   -2.2669 H   0  0  0  0  0  0  0  0  0  0  0  0
    1.9936   -2.2764   -1.0534 C   0  0  0  0  0  0  0  0  0  0  0  0
    2.8572   -1.4664   -0.7729 O   0  0  0  0  0  0  0  0  0  0  0  0
    2.3455   -3.5355   -1.1991 N   0  0  0  0  0  0  0  0  0  0  0  0
    3.3245   -3.7219   -1.0672 H   0  0  0  0  0  0  0  0  0  0  0  0
    1.6757   -4.2420   -1.4269 H   0  0  0  0  0  0  0  0  0  0  0  0
   -0.7011    1.2952    0.7149 C   0  0  0  0  0  0  0  0  0  0  0  0
   -1.5917    1.9198    0.1415 O   0  0  0  0  0  0  0  0  0  0  0  0
    0.1191    1.8675    1.6055 N   0  0  0  0  0  0  0  0  0  0  0  0
    0.8092    1.2861    2.0537 H   0  0  0  0  0  0  0  0  0  0  0  0
    0.0509    3.2769    1.9894 C   0  0  0  0  0  0  0  0  0  0  0  0
   -0.9494    3.5076    2.3640 H   0  0  0  0  0  0  0  0  0  0  0  0
    0.7844    3.4956    2.7668 H   0  0  0  0  0  0  0  0  0  0  0  0
    0.2468    3.9058    1.1193 H   0  0  0  0  0  0  0  0  0  0  0  0
  5  6  2  0  0  0  0
  5  7  1  0  0  0  0
  2  3  1  0  0  0  0
  2  4  1  0  0  0  0
  2  5  1  0  0  0  0
  1  2  1  0  0  0  0
 22 23  2  0  0  0  0
 22 24  1  0  0  0  0
 19 20  1  0  0  0  0
 19 21  1  0  0  0  0
 17 18  2  0  0  0  0
 17 19  1  0  0  0  0
 14 15  1  0  0  0  0
 14 16  1  0  0  0  0
 14 17  1  0  0  0  0
 11 12  1  0  0  0  0
 11 13  1  0  0  0  0
 11 14  1  0  0  0  0
  9 10  1  0  0  0  0
  9 11  1  0  0  0  0
  9 22  1  0  0  0  0
  7  8  1  0  0  0  0
  7  9  1  0  0  0  0
 26 27  1  0  0  0  0
 26 28  1  0  0  0  0
 26 29  1  0  0  0  0
 24 25  1  0  0  0  0
 24 26  1  0  0  0  0
M  END
$$$$
default_name
  -OEChem-02102213163D

 29 28  0     1  0  0  0  0  0999 V2000
   -3.3998   -3.6239    1.3678 H   0  0  0  0  0  0  0  0  0  0  0  0
   -3.3608   -2.6749    0.8348 C   0  0  0  0  0  0  0  0  0  0  0  0
   -4.0988   -1.9909    1.2498 H   0  0  0  0  0  0  0  0  0  0  0  0
   -3.5618   -2.8419   -0.2222 H   0  0  0  0  0  0  0  0  0  0  0  0
   -1.9818   -2.0809    0.9918 C   0  0  0  0  0  0  0  0  0  0  0  0
   -1.1288   -2.6669    1.6468 O   0  0  0  0  0  0  0  0  0  0  0  0
   -1.7648   -0.9089    0.3998 N   0  0  0  0  0  0  0  0  0  0  0  0
   -2.5238   -0.4719   -0.1032 H   0  0  0  0  0  0  0  0  0  0  0  0
   -0.4848   -0.1959    0.4138 C   0  0  1  0  0  0  0  0  0  0  0  0
    0.1386   -0.6144    1.2058 H   0  0  0  0  0  0  0  0  0  0  0  0
    0.2271   -0.4272   -0.9334 C   0  0  0  0  0  0  0  0  0  0  0  0
   -0.4081   -0.0331   -1.7295 H   0  0  0  0  0  0  0  0  0  0  0  0
    1.1664    0.1279   -0.9401 H   0  0  0  0  0  0  0  0  0  0  0  0
    0.5217   -1.9068   -1.2358 C   0  0  0  0  0  0  0  0  0  0  0  0
   -0.2432   -2.5342   -0.7786 H   0  0  0  0  0  0  0  0  0  0  0  0
    0.4976   -2.0589   -2.3148 H   0  0  0  0  0  0  0  0  0  0  0  0
    1.8832   -2.3675   -0.7156 C   0  0  0  0  0  0  0  0  0  0  0  0
    2.6843   -1.6209   -0.1851 O   0  0  0  0  0  0  0  0  0  0  0  0
    2.2039   -3.6371   -0.8399 N   0  0  0  0  0  0  0  0  0  0  0  0
    3.1093   -3.8847   -0.4804 H   0  0  0  0  0  0  0  0  0  0  0  0
    1.5815   -4.2937   -1.2656 H   0  0  0  0  0  0  0  0  0  0  0  0
   -0.7011    1.2952    0.7149 C   0  0  0  0  0  0  0  0  0  0  0  0
   -1.5917    1.9198    0.1415 O   0  0  0  0  0  0  0  0  0  0  0  0
    0.1191    1.8675    1.6055 N   0  0  0  0  0  0  0  0  0  0  0  0
    0.8092    1.2861    2.0537 H   0  0  0  0  0  0  0  0  0  0  0  0
    0.0509    3.2769    1.9894 C   0  0  0  0  0  0  0  0  0  0  0  0
   -0.9494    3.5076    2.3640 H   0  0  0  0  0  0  0  0  0  0  0  0
    0.7844    3.4956    2.7668 H   0  0  0  0  0  0  0  0  0  0  0  0
    0.2468    3.9058    1.1193 H   0  0  0  0  0  0  0  0  0  0  0  0
  5  6  2  0  0  0  0
  5  7  1  0  0  0  0
  2  3  1  0  0  0  0
  2  4  1  0  0  0  0
  2  5  1  0  0  0  0
  1  2  1  0  0  0  0
 22 23  2  0  0  0  0
 22 24  1  0  0  0  0
 19 20  1  0  0  0  0
 19 21  1  0  0  0  0
 17 18  2  0  0  0  0
 17 19  1  0  0  0  0
 14 15  1  0  0  0  0
 14 16  1  0  0  0  0
 14 17  1  0  0  0  0
 11 12  1  0  0  0  0
 11 13  1  0  0  0  0
 11 14  1  0  0  0  0
  9 10  1  0  0  0  0
  9 11  1  0  0  0  0
  9 22  1  0  0  0  0
  7  8  1  0  0  0  0
  7  9  1  0  0  0  0
 26 27  1  0  0  0  0
 26 28  1  0  0  0  0
 26 29  1  0  0  0  0
 24 25  1  0  0  0  0
 24 26  1  0  0  0  0
M  END
$$$$
default_name
  -OEChem-02102213163D

 29 28  0     1  0  0  0  0  0999 V2000
   -3.3998   -3.6239    1.3678 H   0  0  0  0  0  0  0  0  0  0  0  0
   -3.3608   -2.6749    0.8348 C   0  0  0  0  0  0  0  0  0  0  0  0
   -4.0988   -1.9909    1.2498 H   0  0  0  0  0  0  0  0  0  0  0  0
   -3.5618   -2.8419   -0.2222 H   0  0  0  0  0  0  0  0  0  0  0  0
   -1.9818   -2.0809    0.9918 C   0  0  0  0  0  0  0  0  0  0  0  0
   -1.1288   -2.6669    1.6468 O   0  0  0  0  0  0  0  0  0  0  0  0
   -1.7648   -0.9089    0.3998 N   0  0  0  0  0  0  0  0  0  0  0  0
   -2.5238   -0.4719   -0.1032 H   0  0  0  0  0  0  0  0  0  0  0  0
   -0.4848   -0.1959    0.4138 C   0  0  1  0  0  0  0  0  0  0  0  0
    0.1386   -0.6144    1.2058 H   0  0  0  0  0  0  0  0  0  0  0  0
    0.2271   -0.4272   -0.9334 C   0  0  0  0  0  0  0  0  0  0  0  0
   -0.4081   -0.0331   -1.7295 H   0  0  0  0  0  0  0  0  0  0  0  0
    1.1664    0.1279   -0.9401 H   0  0  0  0  0  0  0  0  0  0  0  0
    0.5217   -1.9068   -1.2358 C   0  0  0  0  0  0  0  0  0  0  0  0
   -0.3604   -2.5086   -1.0181 H   0  0  0  0  0  0  0  0  0  0  0  0
    0.7615   -2.0106   -2.2940 H   0  0  0  0  0  0  0  0  0  0  0  0
    1.6878   -2.4665   -0.4213 C   0  0  0  0  0  0  0  0  0  0  0  0
    2.3632   -1.7905    0.3320 O   0  0  0  0  0  0  0  0  0  0  0  0
    1.9724   -3.7458   -0.5332 N   0  0  0  0  0  0  0  0  0  0  0  0
    2.7472   -4.0600    0.0249 H   0  0  0  0  0  0  0  0  0  0  0  0
    1.4477   -4.3469   -1.1358 H   0  0  0  0  0  0  0  0  0  0  0  0
   -0.7011    1.2952    0.7149 C   0  0  0  0  0  0  0  0  0  0  0  0
   -1.5917    1.9198    0.1415 O   0  0  0  0  0  0  0  0  0  0  0  0
    0.1191    1.8675    1.6055 N   0  0  0  0  0  0  0  0  0  0  0  0
    0.8092    1.2861    2.0537 H   0  0  0  0  0  0  0  0  0  0  0  0
    0.0509    3.2769    1.9894 C   0  0  0  0  0  0  0  0  0  0  0  0
   -0.9494    3.5076    2.3640 H   0  0  0  0  0  0  0  0  0  0  0  0
    0.7844    3.4956    2.7668 H   0  0  0  0  0  0  0  0  0  0  0  0
    0.2468    3.9058    1.1193 H   0  0  0  0  0  0  0  0  0  0  0  0
  5  6  2  0  0  0  0
  5  7  1  0  0  0  0
  2  3  1  0  0  0  0
  2  4  1  0  0  0  0
  2  5  1  0  0  0  0
  1  2  1  0  0  0  0
 22 23  2  0  0  0  0
 22 24  1  0  0  0  0
 19 20  1  0  0  0  0
 19 21  1  0  0  0  0
 17 18  2  0  0  0  0
 17 19  1  0  0  0  0
 14 15  1  0  0  0  0
 14 16  1  0  0  0  0
 14 17  1  0  0  0  0
 11 12  1  0  0  0  0
 11 13  1  0  0  0  0
 11 14  1  0  0  0  0
  9 10  1  0  0  0  0
  9 11  1  0  0  0  0
  9 22  1  0  0  0  0
  7  8  1  0  0  0  0
  7  9  1  0  0  0  0
 26 27  1  0  0  0  0
 26 28  1  0  0  0  0
 26 29  1  0  0  0  0
 24 25  1  0  0  0  0
 24 26  1  0  0  0  0
M  END
$$$$
default_name
  -OEChem-02102213163D

 29 28  0     1  0  0  0  0  0999 V2000
   -3.3998   -3.6239    1.3678 H   0  0  0  0  0  0  0  0  0  0  0  0
   -3.3608   -2.6749    0.8348 C   0  0  0  0  0  0  0  0  0  0  0  0
   -4.0988   -1.9909    1.2498 H   0  0  0  0  0  0  0  0  0  0  0  0
   -3.5618   -2.8419   -0.2222 H   0  0  0  0  0  0  0  0  0  0  0  0
   -1.9818   -2.0809    0.9918 C   0  0  0  0  0  0  0  0  0  0  0  0
   -1.1288   -2.6669    1.6468 O   0  0  0  0  0  0  0  0  0  0  0  0
   -1.7648   -0.9089    0.3998 N   0  0  0  0  0  0  0  0  0  0  0  0
   -2.5238   -0.4719   -0.1032 H   0  0  0  0  0  0  0  0  0  0  0  0
   -0.4848   -0.1959    0.4138 C   0  0  1  0  0  0  0  0  0  0  0  0
    0.1386   -0.6144    1.2058 H   0  0  0  0  0  0  0  0  0  0  0  0
    0.2271   -0.4272   -0.9334 C   0  0  0  0  0  0  0  0  0  0  0  0
   -0.4081   -0.0331   -1.7295 H   0  0  0  0  0  0  0  0  0  0  0  0
    1.1664    0.1279   -0.9401 H   0  0  0  0  0  0  0  0  0  0  0  0
    0.5217   -1.9068   -1.2358 C   0  0  0  0  0  0  0  0  0  0  0  0
   -0.4128   -2.4660   -1.2773 H   0  0  0  0  0  0  0  0  0  0  0  0
    1.0137   -1.9785   -2.2057 H   0  0  0  0  0  0  0  0  0  0  0  0
    1.4208   -2.5668   -0.1906 C   0  0  0  0  0  0  0  0  0  0  0  0
    1.9158   -1.9636    0.7431 O   0  0  0  0  0  0  0  0  0  0  0  0
    1.6670   -3.8543   -0.3000 N   0  0  0  0  0  0  0  0  0  0  0  0
    2.2628   -4.2360    0.4141 H   0  0  0  0  0  0  0  0  0  0  0  0
    1.2835   -4.3978   -1.0464 H   0  0  0  0  0  0  0  0  0  0  0  0
   -0.7011    1.2952    0.7149 C   0  0  0  0  0  0  0  0  0  0  0  0
   -1.5917    1.9198    0.1415 O   0  0  0  0  0  0  0  0  0  0  0  0
    0.1191    1.8675    1.6055 N   0  0  0  0  0  0  0  0  0  0  0  0
    0.8092    1.2861    2.0537 H   0  0  0  0  0  0  0  0  0  0  0  0
    0.0509    3.2769    1.9894 C   0  0  0  0  0  0  0  0  0  0  0  0
   -0.9494    3.5076    2.3640 H   0  0  0  0  0  0  0  0  0  0  0  0
    0.7844    3.4956    2.7668 H   0  0  0  0  0  0  0  0  0  0  0  0
    0.2468    3.9058    1.1193 H   0  0  0  0  0  0  0  0  0  0  0  0
  5  6  2  0  0  0  0
  5  7  1  0  0  0  0
  2  3  1  0  0  0  0
  2  4  1  0  0  0  0
  2  5  1  0  0  0  0
  1  2  1  0  0  0  0
 22 23  2  0  0  0  0
 22 24  1  0  0  0  0
 19 20  1  0  0  0  0
 19 21  1  0  0  0  0
 17 18  2  0  0  0  0
 17 19  1  0  0  0  0
 14 15  1  0  0  0  0
 14 16  1  0  0  0  0
 14 17  1  0  0  0  0
 11 12  1  0  0  0  0
 11 13  1  0  0  0  0
 11 14  1  0  0  0  0
  9 10  1  0  0  0  0
  9 11  1  0  0  0  0
  9 22  1  0  0  0  0
  7  8  1  0  0  0  0
  7  9  1  0  0  0  0
 26 27  1  0  0  0  0
 26 28  1  0  0  0  0
 26 29  1  0  0  0  0
 24 25  1  0  0  0  0
 24 26  1  0  0  0  0
M  END
$$$$
default_name
  -OEChem-02102213163D

 29 28  0     1  0  0  0  0  0999 V2000
   -3.3998   -3.6239    1.3678 H   0  0  0  0  0  0  0  0  0  0  0  0
   -3.3608   -2.6749    0.8348 C   0  0  0  0  0  0  0  0  0  0  0  0
   -4.0988   -1.9909    1.2498 H   0  0  0  0  0  0  0  0  0  0  0  0
   -3.5618   -2.8419   -0.2222 H   0  0  0  0  0  0  0  0  0  0  0  0
   -1.9818   -2.0809    0.9918 C   0  0  0  0  0  0  0  0  0  0  0  0
   -1.1288   -2.6669    1.6468 O   0  0  0  0  0  0  0  0  0  0  0  0
   -1.7648   -0.9089    0.3998 N   0  0  0  0  0  0  0  0  0  0  0  0
   -2.5238   -0.4719   -0.1032 H   0  0  0  0  0  0  0  0  0  0  0  0
   -0.4848   -0.1959    0.4138 C   0  0  1  0  0  0  0  0  0  0  0  0
    0.1386   -0.6144    1.2058 H   0  0  0  0  0  0  0  0  0  0  0  0
    0.2271   -0.4272   -0.9334 C   0  0  0  0  0  0  0  0  0  0  0  0
   -0.4081   -0.0331   -1.7295 H   0  0  0  0  0  0  0  0  0  0  0  0
    1.1664    0.1279   -0.9401 H   0  0  0  0  0  0  0  0  0  0  0  0
    0.5217   -1.9068   -1.2358 C   0  0  0  0  0  0  0  0  0  0  0  0
   -0.3966   -2.4094   -1.5387 H   0  0  0  0  0  0  0  0  0  0  0  0
    1.2370   -1.9646   -2.0561 H   0  0  0  0  0  0  0  0  0  0  0  0
    1.1004   -2.6615   -0.0391 C   0  0  0  0  0  0  0  0  0  0  0  0
    1.3724   -2.1284    1.0203 O   0  0  0  0  0  0  0  0  0  0  0  0
    1.3085   -3.9551   -0.1561 N   0  0  0  0  0  0  0  0  0  0  0  0
    1.6890   -4.4007    0.6607 H   0  0  0  0  0  0  0  0  0  0  0  0
    1.1000   -4.4431   -1.0035 H   0  0  0  0  0  0  0  0  0  0  0  0
   -0.7011    1.2952    0.7149 C   0  0  0  0  0  0  0  0  0  0  0  0
   -1.5917    1.9198    0.1415 O   0  0  0  0  0  0  0  0  0  0  0  0
    0.1191    1.8675    1.6055 N   0  0  0  0  0  0  0  0  0  0  0  0
    0.8092    1.2861    2.0537 H   0  0  0  0  0  0  0  0  0  0  0  0
    0.0509    3.2769    1.9894 C   0  0  0  0  0  0  0  0  0  0  0  0
   -0.9494    3.5076    2.3640 H   0  0  0  0  0  0  0  0  0  0  0  0
    0.7844    3.4956    2.7668 H   0  0  0  0  0  0  0  0  0  0  0  0
    0.2468    3.9058    1.1193 H   0  0  0  0  0  0  0  0  0  0  0  0
  5  6  2  0  0  0  0
  5  7  1  0  0  0  0
  2  3  1  0  0  0  0
  2  4  1  0  0  0  0
  2  5  1  0  0  0  0
  1  2  1  0  0  0  0
 22 23  2  0  0  0  0
 22 24  1  0  0  0  0
 19 20  1  0  0  0  0
 19 21  1  0  0  0  0
 17 18  2  0  0  0  0
 17 19  1  0  0  0  0
 14 15  1  0  0  0  0
 14 16  1  0  0  0  0
 14 17  1  0  0  0  0
 11 12  1  0  0  0  0
 11 13  1  0  0  0  0
 11 14  1  0  0  0  0
  9 10  1  0  0  0  0
  9 11  1  0  0  0  0
  9 22  1  0  0  0  0
  7  8  1  0  0  0  0
  7  9  1  0  0  0  0
 26 27  1  0  0  0  0
 26 28  1  0  0  0  0
 26 29  1  0  0  0  0
 24 25  1  0  0  0  0
 24 26  1  0  0  0  0
M  END
$$$$
default_name
  -OEChem-02102213163D

 29 28  0     1  0  0  0  0  0999 V2000
   -3.3998   -3.6239    1.3678 H   0  0  0  0  0  0  0  0  0  0  0  0
   -3.3608   -2.6749    0.8348 C   0  0  0  0  0  0  0  0  0  0  0  0
   -4.0988   -1.9909    1.2498 H   0  0  0  0  0  0  0  0  0  0  0  0
   -3.5618   -2.8419   -0.2222 H   0  0  0  0  0  0  0  0  0  0  0  0
   -1.9818   -2.0809    0.9918 C   0  0  0  0  0  0  0  0  0  0  0  0
   -1.1288   -2.6669    1.6468 O   0  0  0  0  0  0  0  0  0  0  0  0
   -1.7648   -0.9089    0.3998 N   0  0  0  0  0  0  0  0  0  0  0  0
   -2.5238   -0.4719   -0.1032 H   0  0  0  0  0  0  0  0  0  0  0  0
   -0.4848   -0.1959    0.4138 C   0  0  1  0  0  0  0  0  0  0  0  0
    0.1386   -0.6144    1.2058 H   0  0  0  0  0  0  0  0  0  0  0  0
    0.2271   -0.4272   -0.9334 C   0  0  0  0  0  0  0  0  0  0  0  0
   -0.4081   -0.0331   -1.7295 H   0  0  0  0  0  0  0  0  0  0  0  0
    1.1664    0.1279   -0.9401 H   0  0  0  0  0  0  0  0  0  0  0  0
    0.5217   -1.9068   -1.2358 C   0  0  0  0  0  0  0  0  0  0  0  0
   -0.3132   -2.3426   -1.7843 H   0  0  0  0  0  0  0  0  0  0  0  0
    1.4162   -1.9699   -1.8553 H   0  0  0  0  0  0  0  0  0  0  0  0
    0.7483   -2.7443    0.0227 C   0  0  0  0  0  0  0  0  0  0  0  0
    0.7702   -2.2737    1.1446 O   0  0  0  0  0  0  0  0  0  0  0  0
    0.9212   -4.0413   -0.1113 N   0  0  0  0  0  0  0  0  0  0  0  0
    1.0650   -4.5427    0.7480 H   0  0  0  0  0  0  0  0  0  0  0  0
    0.9098   -4.4797   -1.0099 H   0  0  0  0  0  0  0  0  0  0  0  0
   -0.7011    1.2952    0.7149 C   0  0  0  0  0  0  0  0  0  0  0  0
   -1.5917    1.9198    0.1415 O   0  0  0  0  0  0  0  0  0  0  0  0
    0.1191    1.8675    1.6055 N   0  0  0  0  0  0  0  0  0  0  0  0
    0.8092    1.2861    2.0537 H   0  0  0  0  0  0  0  0  0  0  0  0
    0.0509    3.2769    1.9894 C   0  0  0  0  0  0  0  0  0  0  0  0
   -0.9494    3.5076    2.3640 H   0  0  0  0  0  0  0  0  0  0  0  0
    0.7844    3.4956    2.7668 H   0  0  0  0  0  0  0  0  0  0  0  0
    0.2468    3.9058    1.1193 H   0  0  0  0  0  0  0  0  0  0  0  0
  5  6  2  0  0  0  0
  5  7  1  0  0  0  0
  2  3  1  0  0  0  0
  2  4  1  0  0  0  0
  2  5  1  0  0  0  0
  1  2  1  0  0  0  0
 22 23  2  0  0  0  0
 22 24  1  0  0  0  0
 19 20  1  0  0  0  0
 19 21  1  0  0  0  0
 17 18  2  0  0  0  0
 17 19  1  0  0  0  0
 14 15  1  0  0  0  0
 14 16  1  0  0  0  0
 14 17  1  0  0  0  0
 11 12  1  0  0  0  0
 11 13  1  0  0  0  0
 11 14  1  0  0  0  0
  9 10  1  0  0  0  0
  9 11  1  0  0  0  0
  9 22  1  0  0  0  0
  7  8  1  0  0  0  0
  7  9  1  0  0  0  0
 26 27  1  0  0  0  0
 26 28  1  0  0  0  0
 26 29  1  0  0  0  0
 24 25  1  0  0  0  0
 24 26  1  0  0  0  0
M  END
$$$$
default_name
  -OEChem-02102213163D

 29 28  0     1  0  0  0  0  0999 V2000
   -3.3998   -3.6239    1.3678 H   0  0  0  0  0  0  0  0  0  0  0  0
   -3.3608   -2.6749    0.8348 C   0  0  0  0  0  0  0  0  0  0  0  0
   -4.0988   -1.9909    1.2498 H   0  0  0  0  0  0  0  0  0  0  0  0
   -3.5618   -2.8419   -0.2222 H   0  0  0  0  0  0  0  0  0  0  0  0
   -1.9818   -2.0809    0.9918 C   0  0  0  0  0  0  0  0  0  0  0  0
   -1.1288   -2.6669    1.6468 O   0  0  0  0  0  0  0  0  0  0  0  0
   -1.7648   -0.9089    0.3998 N   0  0  0  0  0  0  0  0  0  0  0  0
   -2.5238   -0.4719   -0.1032 H   0  0  0  0  0  0  0  0  0  0  0  0
   -0.4848   -0.1959    0.4138 C   0  0  1  0  0  0  0  0  0  0  0  0
    0.1386   -0.6144    1.2058 H   0  0  0  0  0  0  0  0  0  0  0  0
    0.2271   -0.4272   -0.9334 C   0  0  0  0  0  0  0  0  0  0  0  0
   -0.4081   -0.0331   -1.7295 H   0  0  0  0  0  0  0  0  0  0  0  0
    1.1664    0.1279   -0.9401 H   0  0  0  0  0  0  0  0  0  0  0  0
    0.5217   -1.9068   -1.2358 C   0  0  0  0  0  0  0  0  0  0  0  0
   -0.1680   -2.2701   -1.9974 H   0  0  0  0  0  0  0  0  0  0  0  0
    1.5390   -1.9942   -1.6171 H   0  0  0  0  0  0  0  0  0  0  0  0
    0.3887   -2.8093   -0.0093 C   0  0  0  0  0  0  0  0  0  0  0  0
    0.1501   -2.3896    1.1076 O   0  0  0  0  0  0  0  0  0  0  0  0
    0.5316   -4.1072   -0.1687 N   0  0  0  0  0  0  0  0  0  0  0  0
    0.4333   -4.6525    0.6700 H   0  0  0  0  0  0  0  0  0  0  0  0
    0.7258   -4.5050   -1.0652 H   0  0  0  0  0  0  0  0  0  0  0  0
   -0.7011    1.2952    0.7149 C   0  0  0  0  0  0  0  0  0  0  0  0
   -1.5917    1.9198    0.1415 O   0  0  0  0  0  0  0  0  0  0  0  0
    0.1191    1.8675    1.6055 N   0  0  0  0  0  0  0  0  0  0  0  0
    0.8092    1.2861    2.0537 H   0  0  0  0  0  0  0  0  0  0  0  0
    0.0509    3.2769    1.9894 C   0  0  0  0  0  0  0  0  0  0  0  0
   -0.9494    3.5076    2.3640 H   0  0  0  0  0  0  0  0  0  0  0  0
    0.7844    3.4956    2.7668 H   0  0  0  0  0  0  0  0  0  0  0  0
    0.2468    3.9058    1.1193 H   0  0  0  0  0  0  0  0  0  0  0  0
  5  6  2  0  0  0  0
  5  7  1  0  0  0  0
  2  3  1  0  0  0  0
  2  4  1  0  0  0  0
  2  5  1  0  0  0  0
  1  2  1  0  0  0  0
 22 23  2  0  0  0  0
 22 24  1  0  0  0  0
 19 20  1  0  0  0  0
 19 21  1  0  0  0  0
 17 18  2  0  0  0  0
 17 19  1  0  0  0  0
 14 15  1  0  0  0  0
 14 16  1  0  0  0  0
 14 17  1  0  0  0  0
 11 12  1  0  0  0  0
 11 13  1  0  0  0  0
 11 14  1  0  0  0  0
  9 10  1  0  0  0  0
  9 11  1  0  0  0  0
  9 22  1  0  0  0  0
  7  8  1  0  0  0  0
  7  9  1  0  0  0  0
 26 27  1  0  0  0  0
 26 28  1  0  0  0  0
 26 29  1  0  0  0  0
 24 25  1  0  0  0  0
 24 26  1  0  0  0  0
M  END
$$$$
default_name
  -OEChem-02102213163D

 29 28  0     1  0  0  0  0  0999 V2000
   -3.3998   -3.6239    1.3678 H   0  0  0  0  0  0  0  0  0  0  0  0
   -3.3608   -2.6749    0.8348 C   0  0  0  0  0  0  0  0  0  0  0  0
   -4.0988   -1.9909    1.2498 H   0  0  0  0  0  0  0  0  0  0  0  0
   -3.5618   -2.8419   -0.2222 H   0  0  0  0  0  0  0  0  0  0  0  0
   -1.9818   -2.0809    0.9918 C   0  0  0  0  0  0  0  0  0  0  0  0
   -1.1288   -2.6669    1.6468 O   0  0  0  0  0  0  0  0  0  0  0  0
   -1.7648   -0.9089    0.3998 N   0  0  0  0  0  0  0  0  0  0  0  0
   -2.5238   -0.4719   -0.1032 H   0  0  0  0  0  0  0  0  0  0  0  0
   -0.4848   -0.1959    0.4138 C   0  0  1  0  0  0  0  0  0  0  0  0
    0.1386   -0.6144    1.2058 H   0  0  0  0  0  0  0  0  0  0  0  0
    0.2271   -0.4272   -0.9334 C   0  0  0  0  0  0  0  0  0  0  0  0
   -0.4081   -0.0331   -1.7295 H   0  0  0  0  0  0  0  0  0  0  0  0
    1.1664    0.1279   -0.9401 H   0  0  0  0  0  0  0  0  0  0  0  0
    0.5217   -1.9068   -1.2358 C   0  0  0  0  0  0  0  0  0  0  0  0
    0.0290   -2.1970   -2.1635 H   0  0  0  0  0  0  0  0  0  0  0  0
    1.5971   -2.0357   -1.3576 H   0  0  0  0  0  0  0  0  0  0  0  0
    0.0460   -2.8523   -0.1329 C   0  0  0  0  0  0  0  0  0  0  0  0
   -0.4455   -2.4682    0.9119 O   0  0  0  0  0  0  0  0  0  0  0  0
    0.1662   -4.1481   -0.3244 N   0  0  0  0  0  0  0  0  0  0  0  0
   -0.1630   -4.7226    0.4320 H   0  0  0  0  0  0  0  0  0  0  0  0
    0.5605   -4.5174   -1.1657 H   0  0  0  0  0  0  0  0  0  0  0  0
   -0.7011    1.2952    0.7149 C   0  0  0  0  0  0  0  0  0  0  0  0
   -1.5917    1.9198    0.1415 O   0  0  0  0  0  0  0  0  0  0  0  0
    0.1191    1.8675    1.6055 N   0  0  0  0  0  0  0  0  0  0  0  0
    0.8092    1.2861    2.0537 H   0  0  0  0  0  0  0  0  0  0  0  0
    0.0509    3.2769    1.9894 C   0  0  0  0  0  0  0  0  0  0  0  0
   -0.9494    3.5076    2.3640 H   0  0  0  0  0  0  0  0  0  0  0  0
    0.7844    3.4956    2.7668 H   0  0  0  0  0  0  0  0  0  0  0  0
    0.2468    3.9058    1.1193 H   0  0  0  0  0  0  0  0  0  0  0  0
  5  6  2  0  0  0  0
  5  7  1  0  0  0  0
  2  3  1  0  0  0  0
  2  4  1  0  0  0  0
  2  5  1  0  0  0  0
  1  2  1  0  0  0  0
 22 23  2  0  0  0  0
 22 24  1  0  0  0  0
 19 20  1  0  0  0  0
 19 21  1  0  0  0  0
 17 18  2  0  0  0  0
 17 19  1  0  0  0  0
 14 15  1  0  0  0  0
 14 16  1  0  0  0  0
 14 17  1  0  0  0  0
 11 12  1  0  0  0  0
 11 13  1  0  0  0  0
 11 14  1  0  0  0  0
  9 10  1  0  0  0  0
  9 11  1  0  0  0  0
  9 22  1  0  0  0  0
  7  8  1  0  0  0  0
  7  9  1  0  0  0  0
 26 27  1  0  0  0  0
 26 28  1  0  0  0  0
 26 29  1  0  0  0  0
 24 25  1  0  0  0  0
 24 26  1  0  0  0  0
M  END
$$$$
default_name
  -OEChem-02102213163D

 29 28  0     1  0  0  0  0  0999 V2000
   -3.3998   -3.6239    1.3678 H   0  0  0  0  0  0  0  0  0  0  0  0
   -3.3608   -2.6749    0.8348 C   0  0  0  0  0  0  0  0  0  0  0  0
   -4.0988   -1.9909    1.2498 H   0  0  0  0  0  0  0  0  0  0  0  0
   -3.5618   -2.8419   -0.2222 H   0  0  0  0  0  0  0  0  0  0  0  0
   -1.9818   -2.0809    0.9918 C   0  0  0  0  0  0  0  0  0  0  0  0
   -1.1288   -2.6669    1.6468 O   0  0  0  0  0  0  0  0  0  0  0  0
   -1.7648   -0.9089    0.3998 N   0  0  0  0  0  0  0  0  0  0  0  0
   -2.5238   -0.4719   -0.1032 H   0  0  0  0  0  0  0  0  0  0  0  0
   -0.4848   -0.1959    0.4138 C   0  0  1  0  0  0  0  0  0  0  0  0
    0.1386   -0.6144    1.2058 H   0  0  0  0  0  0  0  0  0  0  0  0
    0.2271   -0.4272   -0.9334 C   0  0  0  0  0  0  0  0  0  0  0  0
   -0.4081   -0.0331   -1.7295 H   0  0  0  0  0  0  0  0  0  0  0  0
    1.1664    0.1279   -0.9401 H   0  0  0  0  0  0  0  0  0  0  0  0
    0.5217   -1.9068   -1.2358 C   0  0  0  0  0  0  0  0  0  0  0  0
    0.2643   -2.1281   -2.2714 H   0  0  0  0  0  0  0  0  0  0  0  0
    1.5865   -2.0915   -1.0945 H   0  0  0  0  0  0  0  0  0  0  0  0
   -0.2565   -2.8702   -0.3397 C   0  0  0  0  0  0  0  0  0  0  0  0
   -0.9760   -2.5040    0.5706 O   0  0  0  0  0  0  0  0  0  0  0  0
   -0.1501   -4.1613   -0.5678 N   0  0  0  0  0  0  0  0  0  0  0  0
   -0.6833   -4.7481    0.0502 H   0  0  0  0  0  0  0  0  0  0  0  0
    0.4253   -4.5159   -1.3045 H   0  0  0  0  0  0  0  0  0  0  0  0
   -0.7011    1.2952    0.7149 C   0  0  0  0  0  0  0  0  0  0  0  0
   -1.5917    1.9198    0.1415 O   0  0  0  0  0  0  0  0  0  0  0  0
    0.1191    1.8675    1.6055 N   0  0  0  0  0  0  0  0  0  0  0  0
    0.8092    1.2861    2.0537 H   0  0  0  0  0  0  0  0  0  0  0  0
    0.0509    3.2769    1.9894 C   0  0  0  0  0  0  0  0  0  0  0  0
   -0.9494    3.5076    2.3640 H   0  0  0  0  0  0  0  0  0  0  0  0
    0.7844    3.4956    2.7668 H   0  0  0  0  0  0  0  0  0  0  0  0
    0.2468    3.9058    1.1193 H   0  0  0  0  0  0  0  0  0  0  0  0
  5  6  2  0  0  0  0
  5  7  1  0  0  0  0
  2  3  1  0  0  0  0
  2  4  1  0  0  0  0
  2  5  1  0  0  0  0
  1  2  1  0  0  0  0
 22 23  2  0  0  0  0
 22 24  1  0  0  0  0
 19 20  1  0  0  0  0
 19 21  1  0  0  0  0
 17 18  2  0  0  0  0
 17 19  1  0  0  0  0
 14 15  1  0  0  0  0
 14 16  1  0  0  0  0
 14 17  1  0  0  0  0
 11 12  1  0  0  0  0
 11 13  1  0  0  0  0
 11 14  1  0  0  0  0
  9 10  1  0  0  0  0
  9 11  1  0  0  0  0
  9 22  1  0  0  0  0
  7  8  1  0  0  0  0
  7  9  1  0  0  0  0
 26 27  1  0  0  0  0
 26 28  1  0  0  0  0
 26 29  1  0  0  0  0
 24 25  1  0  0  0  0
 24 26  1  0  0  0  0
M  END
$$$$
default_name
  -OEChem-02102213163D

 29 28  0     1  0  0  0  0  0999 V2000
   -3.3998   -3.6239    1.3678 H   0  0  0  0  0  0  0  0  0  0  0  0
   -3.3608   -2.6749    0.8348 C   0  0  0  0  0  0  0  0  0  0  0  0
   -4.0988   -1.9909    1.2498 H   0  0  0  0  0  0  0  0  0  0  0  0
   -3.5618   -2.8419   -0.2222 H   0  0  0  0  0  0  0  0  0  0  0  0
   -1.9818   -2.0809    0.9918 C   0  0  0  0  0  0  0  0  0  0  0  0
   -1.1288   -2.6669    1.6468 O   0  0  0  0  0  0  0  0  0  0  0  0
   -1.7648   -0.9089    0.3998 N   0  0  0  0  0  0  0  0  0  0  0  0
   -2.5238   -0.4719   -0.1032 H   0  0  0  0  0  0  0  0  0  0  0  0
   -0.4848   -0.1959    0.4138 C   0  0  1  0  0  0  0  0  0  0  0  0
    0.1386   -0.6144    1.2058 H   0  0  0  0  0  0  0  0  0  0  0  0
    0.2271   -0.4272   -0.9334 C   0  0  0  0  0  0  0  0  0  0  0  0
   -0.4081   -0.0331   -1.7295 H   0  0  0  0  0  0  0  0  0  0  0  0
    1.1664    0.1279   -0.9401 H   0  0  0  0  0  0  0  0  0  0  0  0
    0.5217   -1.9068   -1.2358 C   0  0  0  0  0  0  0  0  0  0  0  0
    0.5220   -2.0682   -2.3136 H   0  0  0  0  0  0  0  0  0  0  0  0
    1.5080   -2.1580   -0.8458 H   0  0  0  0  0  0  0  0  0  0  0  0
   -0.4981   -2.8619   -0.6157 C   0  0  0  0  0  0  0  0  0  0  0  0
   -1.4054   -2.4948    0.1072 O   0  0  0  0  0  0  0  0  0  0  0  0
   -0.3957   -4.1459   -0.8822 N   0  0  0  0  0  0  0  0  0  0  0  0
   -1.0922   -4.7274   -0.4494 H   0  0  0  0  0  0  0  0  0  0  0  0
    0.3293   -4.5007   -1.4722 H   0  0  0  0  0  0  0  0  0  0  0  0
   -0.7011    1.2952    0.7149 C   0  0  0  0  0  0  0  0  0  0  0  0
   -1.5917    1.9198    0.1415 O   0  0  0  0  0  0  0  0  0  0  0  0
    0.1191    1.8675    1.6055 N   0  0  0  0  0  0  0  0  0  0  0  0
    0.8092    1.2861    2.0537 H   0  0  0  0  0  0  0  0  0  0  0  0
    0.0509    3.2769    1.9894 C   0  0  0  0  0  0  0  0  0  0  0  0
   -0.9494    3.5076    2.3640 H   0  0  0  0  0  0  0  0  0  0  0  0
    0.7844    3.4956    2.7668 H   0  0  0  0  0  0  0  0  0  0  0  0
    0.2468    3.9058    1.1193 H   0  0  0  0  0  0  0  0  0  0  0  0
  5  6  2  0  0  0  0
  5  7  1  0  0  0  0
  2  3  1  0  0  0  0
  2  4  1  0  0  0  0
  2  5  1  0  0  0  0
  1  2  1  0  0  0  0
 22 23  2  0  0  0  0
 22 24  1  0  0  0  0
 19 20  1  0  0  0  0
 19 21  1  0  0  0  0
 17 18  2  0  0  0  0
 17 19  1  0  0  0  0
 14 15  1  0  0  0  0
 14 16  1  0  0  0  0
 14 17  1  0  0  0  0
 11 12  1  0  0  0  0
 11 13  1  0  0  0  0
 11 14  1  0  0  0  0
  9 10  1  0  0  0  0
  9 11  1  0  0  0  0
  9 22  1  0  0  0  0
  7  8  1  0  0  0  0
  7  9  1  0  0  0  0
 26 27  1  0  0  0  0
 26 28  1  0  0  0  0
 26 29  1  0  0  0  0
 24 25  1  0  0  0  0
 24 26  1  0  0  0  0
M  END
$$$$
default_name
  -OEChem-02102213163D

 29 28  0     1  0  0  0  0  0999 V2000
   -3.3998   -3.6239    1.3678 H   0  0  0  0  0  0  0  0  0  0  0  0
   -3.3608   -2.6749    0.8348 C   0  0  0  0  0  0  0  0  0  0  0  0
   -4.0988   -1.9909    1.2498 H   0  0  0  0  0  0  0  0  0  0  0  0
   -3.5618   -2.8419   -0.2222 H   0  0  0  0  0  0  0  0  0  0  0  0
   -1.9818   -2.0809    0.9918 C   0  0  0  0  0  0  0  0  0  0  0  0
   -1.1288   -2.6669    1.6468 O   0  0  0  0  0  0  0  0  0  0  0  0
   -1.7648   -0.9089    0.3998 N   0  0  0  0  0  0  0  0  0  0  0  0
   -2.5238   -0.4719   -0.1032 H   0  0  0  0  0  0  0  0  0  0  0  0
   -0.4848   -0.1959    0.4138 C   0  0  1  0  0  0  0  0  0  0  0  0
    0.1386   -0.6144    1.2058 H   0  0  0  0  0  0  0  0  0  0  0  0
    0.2271   -0.4272   -0.9334 C   0  0  0  0  0  0  0  0  0  0  0  0
   -0.4081   -0.0331   -1.7295 H   0  0  0  0  0  0  0  0  0  0  0  0
    1.1664    0.1279   -0.9401 H   0  0  0  0  0  0  0  0  0  0  0  0
    0.5217   -1.9068   -1.2358 C   0  0  0  0  0  0  0  0  0  0  0  0
    0.7844   -2.0213   -2.2872 H   0  0  0  0  0  0  0  0  0  0  0  0
    1.3668   -2.2305   -0.6285 H   0  0  0  0  0  0  0  0  0  0  0  0
   -0.6623   -2.8279   -0.9420 C   0  0  0  0  0  0  0  0  0  0  0  0
   -1.7043   -2.4411   -0.4469 O   0  0  0  0  0  0  0  0  0  0  0  0
   -0.5539   -4.1030   -1.2463 N   0  0  0  0  0  0  0  0  0  0  0  0
   -1.3617   -4.6619   -1.0327 H   0  0  0  0  0  0  0  0  0  0  0  0
    0.2791   -4.4729   -1.6573 H   0  0  0  0  0  0  0  0  0  0  0  0
   -0.7011    1.2952    0.7149 C   0  0  0  0  0  0  0  0  0  0  0  0
   -1.5917    1.9198    0.1415 O   0  0  0  0  0  0  0  0  0  0  0  0
    0.1191    1.8675    1.6055 N   0  0  0  0  0  0  0  0  0  0  0  0
    0.8092    1.2861    2.0537 H   0  0  0  0  0  0  0  0  0  0  0  0
    0.0509    3.2769    1.9894 C   0  0  0  0  0  0  0  0  0  0  0  0
   -0.9494    3.5076    2.3640 H   0  0  0  0  0  0  0  0  0  0  0  0
    0.7844    3.4956    2.7668 H   0  0  0  0  0  0  0  0  0  0  0  0
    0.2468    3.9058    1.1193 H   0  0  0  0  0  0  0  0  0  0  0  0
  5  6  2  0  0  0  0
  5  7  1  0  0  0  0
  2  3  1  0  0  0  0
  2  4  1  0  0  0  0
  2  5  1  0  0  0  0
  1  2  1  0  0  0  0
 22 23  2  0  0  0  0
 22 24  1  0  0  0  0
 19 20  1  0  0  0  0
 19 21  1  0  0  0  0
 17 18  2  0  0  0  0
 17 19  1  0  0  0  0
 14 15  1  0  0  0  0
 14 16  1  0  0  0  0
 14 17  1  0  0  0  0
 11 12  1  0  0  0  0
 11 13  1  0  0  0  0
 11 14  1  0  0  0  0
  9 10  1  0  0  0  0
  9 11  1  0  0  0  0
  9 22  1  0  0  0  0
  7  8  1  0  0  0  0
  7  9  1  0  0  0  0
 26 27  1  0  0  0  0
 26 28  1  0  0  0  0
 26 29  1  0  0  0  0
 24 25  1  0  0  0  0
 24 26  1  0  0  0  0
M  END
$$$$
default_name
  -OEChem-02102213163D

 29 28  0     1  0  0  0  0  0999 V2000
   -3.3998   -3.6239    1.3678 H   0  0  0  0  0  0  0  0  0  0  0  0
   -3.3608   -2.6749    0.8348 C   0  0  0  0  0  0  0  0  0  0  0  0
   -4.0988   -1.9909    1.2498 H   0  0  0  0  0  0  0  0  0  0  0  0
   -3.5618   -2.8419   -0.2222 H   0  0  0  0  0  0  0  0  0  0  0  0
   -1.9818   -2.0809    0.9918 C   0  0  0  0  0  0  0  0  0  0  0  0
   -1.1288   -2.6669    1.6468 O   0  0  0  0  0  0  0  0  0  0  0  0
   -1.7648   -0.9089    0.3998 N   0  0  0  0  0  0  0  0  0  0  0  0
   -2.5238   -0.4719   -0.1032 H   0  0  0  0  0  0  0  0  0  0  0  0
   -0.4848   -0.1959    0.4138 C   0  0  1  0  0  0  0  0  0  0  0  0
    0.1386   -0.6144    1.2058 H   0  0  0  0  0  0  0  0  0  0  0  0
    0.2271   -0.4272   -0.9334 C   0  0  0  0  0  0  0  0  0  0  0  0
   -0.4081   -0.0331   -1.7295 H   0  0  0  0  0  0  0  0  0  0  0  0
    1.1664    0.1279   -0.9401 H   0  0  0  0  0  0  0  0  0  0  0  0
    0.5217   -1.9068   -1.2358 C   0  0  0  0  0  0  0  0  0  0  0  0
    1.0337   -1.9907   -2.1942 H   0  0  0  0  0  0  0  0  0  0  0  0
    1.1727   -2.3042   -0.4572 H   0  0  0  0  0  0  0  0  0  0  0  0
   -0.7380   -2.7706   -1.2963 C   0  0  0  0  0  0  0  0  0  0  0  0
   -1.8525   -2.3465   -1.0538 O   0  0  0  0  0  0  0  0  0  0  0  0
   -0.6139   -4.0355   -1.6352 N   0  0  0  0  0  0  0  0  0  0  0  0
   -1.4736   -4.5560   -1.6599 H   0  0  0  0  0  0  0  0  0  0  0  0
    0.2781   -4.4343   -1.8472 H   0  0  0  0  0  0  0  0  0  0  0  0
   -0.7011    1.2952    0.7149 C   0  0  0  0  0  0  0  0  0  0  0  0
   -1.5917    1.9198    0.1415 O   0  0  0  0  0  0  0  0  0  0  0  0
    0.1191    1.8675    1.6055 N   0  0  0  0  0  0  0  0  0  0  0  0
    0.8092    1.2861    2.0537 H   0  0  0  0  0  0  0  0  0  0  0  0
    0.0509    3.2769    1.9894 C   0  0  0  0  0  0  0  0  0  0  0  0
   -0.9494    3.5076    2.3640 H   0  0  0  0  0  0  0  0  0  0  0  0
    0.7844    3.4956    2.7668 H   0  0  0  0  0  0  0  0  0  0  0  0
    0.2468    3.9058    1.1193 H   0  0  0  0  0  0  0  0  0  0  0  0
  5  6  2  0  0  0  0
  5  7  1  0  0  0  0
  2  3  1  0  0  0  0
  2  4  1  0  0  0  0
  2  5  1  0  0  0  0
  1  2  1  0  0  0  0
 22 23  2  0  0  0  0
 22 24  1  0  0  0  0
 19 20  1  0  0  0  0
 19 21  1  0  0  0  0
 17 18  2  0  0  0  0
 17 19  1  0  0  0  0
 14 15  1  0  0  0  0
 14 16  1  0  0  0  0
 14 17  1  0  0  0  0
 11 12  1  0  0  0  0
 11 13  1  0  0  0  0
 11 14  1  0  0  0  0
  9 10  1  0  0  0  0
  9 11  1  0  0  0  0
  9 22  1  0  0  0  0
  7  8  1  0  0  0  0
  7  9  1  0  0  0  0
 26 27  1  0  0  0  0
 26 28  1  0  0  0  0
 26 29  1  0  0  0  0
 24 25  1  0  0  0  0
 24 26  1  0  0  0  0
M  END
$$$$
default_name
  -OEChem-02102213163D

 29 28  0     1  0  0  0  0  0999 V2000
   -3.3998   -3.6239    1.3678 H   0  0  0  0  0  0  0  0  0  0  0  0
   -3.3608   -2.6749    0.8348 C   0  0  0  0  0  0  0  0  0  0  0  0
   -4.0988   -1.9909    1.2498 H   0  0  0  0  0  0  0  0  0  0  0  0
   -3.5618   -2.8419   -0.2222 H   0  0  0  0  0  0  0  0  0  0  0  0
   -1.9818   -2.0809    0.9918 C   0  0  0  0  0  0  0  0  0  0  0  0
   -1.1288   -2.6669    1.6468 O   0  0  0  0  0  0  0  0  0  0  0  0
   -1.7648   -0.9089    0.3998 N   0  0  0  0  0  0  0  0  0  0  0  0
   -2.5238   -0.4719   -0.1032 H   0  0  0  0  0  0  0  0  0  0  0  0
   -0.4848   -0.1959    0.4138 C   0  0  1  0  0  0  0  0  0  0  0  0
    0.1386   -0.6144    1.2058 H   0  0  0  0  0  0  0  0  0  0  0  0
    0.2271   -0.4272   -0.9334 C   0  0  0  0  0  0  0  0  0  0  0  0
   -0.4081   -0.0331   -1.7295 H   0  0  0  0  0  0  0  0  0  0  0  0
    1.1664    0.1279   -0.9401 H   0  0  0  0  0  0  0  0  0  0  0  0
    0.5217   -1.9068   -1.2358 C   0  0  0  0  0  0  0  0  0  0  0  0
    1.2529   -1.9784   -2.0407 H   0  0  0  0  0  0  0  0  0  0  0  0
    0.9388   -2.3739   -0.3438 H   0  0  0  0  0  0  0  0  0  0  0  0
   -0.7201   -2.6938   -1.6546 C   0  0  0  0  0  0  0  0  0  0  0  0
   -1.8397   -2.2176   -1.6723 O   0  0  0  0  0  0  0  0  0  0  0  0
   -0.5717   -3.9479   -2.0225 N   0  0  0  0  0  0  0  0  0  0  0  0
   -1.4201   -4.4169   -2.2883 H   0  0  0  0  0  0  0  0  0  0  0  0
    0.3263   -4.3875   -2.0290 H   0  0  0  0  0  0  0  0  0  0  0  0
   -0.7011    1.2952    0.7149 C   0  0  0  0  0  0  0  0  0  0  0  0
   -1.5917    1.9198    0.1415 O   0  0  0  0  0  0  0  0  0  0  0  0
    0.1191    1.8675    1.6055 N   0  0  0  0  0  0  0  0  0  0  0  0
    0.8092    1.2861    2.0537 H   0  0  0  0  0  0  0  0  0  0  0  0
    0.0509    3.2769    1.9894 C   0  0  0  0  0  0  0  0  0  0  0  0
   -0.9494    3.5076    2.3640 H   0  0  0  0  0  0  0  0  0  0  0  0
    0.7844    3.4956    2.7668 H   0  0  0  0  0  0  0  0  0  0  0  0
    0.2468    3.9058    1.1193 H   0  0  0  0  0  0  0  0  0  0  0  0
  5  6  2  0  0  0  0
  5  7  1  0  0  0  0
  2  3  1  0  0  0  0
  2  4  1  0  0  0  0
  2  5  1  0  0  0  0
  1  2  1  0  0  0  0
 22 23  2  0  0  0  0
 22 24  1  0  0  0  0
 19 20  1  0  0  0  0
 19 21  1  0  0  0  0
 17 18  2  0  0  0  0
 17 19  1  0  0  0  0
 14 15  1  0  0  0  0
 14 16  1  0  0  0  0
 14 17  1  0  0  0  0
 11 12  1  0  0  0  0
 11 13  1  0  0  0  0
 11 14  1  0  0  0  0
  9 10  1  0  0  0  0
  9 11  1  0  0  0  0
  9 22  1  0  0  0  0
  7  8  1  0  0  0  0
  7  9  1  0  0  0  0
 26 27  1  0  0  0  0
 26 28  1  0  0  0  0
 26 29  1  0  0  0  0
 24 25  1  0  0  0  0
 24 26  1  0  0  0  0
M  END
$$$$
default_name
  -OEChem-02102213163D

 29 28  0     1  0  0  0  0  0999 V2000
   -3.3998   -3.6239    1.3678 H   0  0  0  0  0  0  0  0  0  0  0  0
   -3.3608   -2.6749    0.8348 C   0  0  0  0  0  0  0  0  0  0  0  0
   -4.0988   -1.9909    1.2498 H   0  0  0  0  0  0  0  0  0  0  0  0
   -3.5618   -2.8419   -0.2222 H   0  0  0  0  0  0  0  0  0  0  0  0
   -1.9818   -2.0809    0.9918 C   0  0  0  0  0  0  0  0  0  0  0  0
   -1.1288   -2.6669    1.6468 O   0  0  0  0  0  0  0  0  0  0  0  0
   -1.7648   -0.9089    0.3998 N   0  0  0  0  0  0  0  0  0  0  0  0
   -2.5238   -0.4719   -0.1032 H   0  0  0  0  0  0  0  0  0  0  0  0
   -0.4848   -0.1959    0.4138 C   0  0  1  0  0  0  0  0  0  0  0  0
    0.1386   -0.6144    1.2058 H   0  0  0  0  0  0  0  0  0  0  0  0
    0.2271   -0.4272   -0.9334 C   0  0  0  0  0  0  0  0  0  0  0  0
   -0.4081   -0.0331   -1.7295 H   0  0  0  0  0  0  0  0  0  0  0  0
    1.1664    0.1279   -0.9401 H   0  0  0  0  0  0  0  0  0  0  0  0
    0.5217   -1.9068   -1.2358 C   0  0  0  0  0  0  0  0  0  0  0  0
    1.4270   -1.9853   -1.8373 H   0  0  0  0  0  0  0  0  0  0  0  0
    0.6812   -2.4350   -0.2958 H   0  0  0  0  0  0  0  0  0  0  0  0
   -0.6096   -2.6028   -1.9924 C   0  0  0  0  0  0  0  0  0  0  0  0
   -1.6668   -2.0630   -2.2600 O   0  0  0  0  0  0  0  0  0  0  0  0
   -0.4300   -3.8463   -2.3817 N   0  0  0  0  0  0  0  0  0  0  0  0
   -1.2050   -4.2541   -2.8752 H   0  0  0  0  0  0  0  0  0  0  0  0
    0.4205   -4.3358   -2.1903 H   0  0  0  0  0  0  0  0  0  0  0  0
   -0.7011    1.2952    0.7149 C   0  0  0  0  0  0  0  0  0  0  0  0
   -1.5917    1.9198    0.1415 O   0  0  0  0  0  0  0  0  0  0  0  0
    0.1191    1.8675    1.6055 N   0  0  0  0  0  0  0  0  0  0  0  0
    0.8092    1.2861    2.0537 H   0  0  0  0  0  0  0  0  0  0  0  0
    0.0509    3.2769    1.9894 C   0  0  0  0  0  0  0  0  0  0  0  0
   -0.9494    3.5076    2.3640 H   0  0  0  0  0  0  0  0  0  0  0  0
    0.7844    3.4956    2.7668 H   0  0  0  0  0  0  0  0  0  0  0  0
    0.2468    3.9058    1.1193 H   0  0  0  0  0  0  0  0  0  0  0  0
  5  6  2  0  0  0  0
  5  7  1  0  0  0  0
  2  3  1  0  0  0  0
  2  4  1  0  0  0  0
  2  5  1  0  0  0  0
  1  2  1  0  0  0  0
 22 23  2  0  0  0  0
 22 24  1  0  0  0  0
 19 20  1  0  0  0  0
 19 21  1  0  0  0  0
 17 18  2  0  0  0  0
 17 19  1  0  0  0  0
 14 15  1  0  0  0  0
 14 16  1  0  0  0  0
 14 17  1  0  0  0  0
 11 12  1  0  0  0  0
 11 13  1  0  0  0  0
 11 14  1  0  0  0  0
  9 10  1  0  0  0  0
  9 11  1  0  0  0  0
  9 22  1  0  0  0  0
  7  8  1  0  0  0  0
  7  9  1  0  0  0  0
 26 27  1  0  0  0  0
 26 28  1  0  0  0  0
 26 29  1  0  0  0  0
 24 25  1  0  0  0  0
 24 26  1  0  0  0  0
M  END
$$$$
default_name
  -OEChem-02102213163D

 29 28  0     1  0  0  0  0  0999 V2000
   -3.3998   -3.6239    1.3678 H   0  0  0  0  0  0  0  0  0  0  0  0
   -3.3608   -2.6749    0.8348 C   0  0  0  0  0  0  0  0  0  0  0  0
   -4.0988   -1.9909    1.2498 H   0  0  0  0  0  0  0  0  0  0  0  0
   -3.5618   -2.8419   -0.2222 H   0  0  0  0  0  0  0  0  0  0  0  0
   -1.9818   -2.0809    0.9918 C   0  0  0  0  0  0  0  0  0  0  0  0
   -1.1288   -2.6669    1.6468 O   0  0  0  0  0  0  0  0  0  0  0  0
   -1.7648   -0.9089    0.3998 N   0  0  0  0  0  0  0  0  0  0  0  0
   -2.5238   -0.4719   -0.1032 H   0  0  0  0  0  0  0  0  0  0  0  0
   -0.4848   -0.1959    0.4138 C   0  0  1  0  0  0  0  0  0  0  0  0
    0.1386   -0.6144    1.2058 H   0  0  0  0  0  0  0  0  0  0  0  0
    0.2271   -0.4272   -0.9334 C   0  0  0  0  0  0  0  0  0  0  0  0
   -0.4081   -0.0331   -1.7295 H   0  0  0  0  0  0  0  0  0  0  0  0
    1.1664    0.1279   -0.9401 H   0  0  0  0  0  0  0  0  0  0  0  0
    0.5217   -1.9068   -1.2358 C   0  0  0  0  0  0  0  0  0  0  0  0
    1.5443   -2.0110   -1.5978 H   0  0  0  0  0  0  0  0  0  0  0  0
    0.4172   -2.4833   -0.3167 H   0  0  0  0  0  0  0  0  0  0  0  0
   -0.4142   -2.5037   -2.2867 C   0  0  0  0  0  0  0  0  0  0  0  0
   -1.3457   -1.8935   -2.7771 O   0  0  0  0  0  0  0  0  0  0  0  0
   -0.1986   -3.7376   -2.6884 N   0  0  0  0  0  0  0  0  0  0  0  0
   -0.8429   -4.0788   -3.3804 H   0  0  0  0  0  0  0  0  0  0  0  0
    0.5543   -4.2827   -2.3200 H   0  0  0  0  0  0  0  0  0  0  0  0
   -0.7011    1.2952    0.7149 C   0  0  0  0  0  0  0  0  0  0  0  0
   -1.5917    1.9198    0.1415 O   0  0  0  0  0  0  0  0  0  0  0  0
    0.1191    1.8675    1.6055 N   0  0  0  0  0  0  0  0  0  0  0  0
    0.8092    1.2861    2.0537 H   0  0  0  0  0  0  0  0  0  0  0  0
    0.0509    3.2769    1.9894 C   0  0  0  0  0  0  0  0  0  0  0  0
   -0.9494    3.5076    2.3640 H   0  0  0  0  0  0  0  0  0  0  0  0
    0.7844    3.4956    2.7668 H   0  0  0  0  0  0  0  0  0  0  0  0
    0.2468    3.9058    1.1193 H   0  0  0  0  0  0  0  0  0  0  0  0
  5  6  2  0  0  0  0
  5  7  1  0  0  0  0
  2  3  1  0  0  0  0
  2  4  1  0  0  0  0
  2  5  1  0  0  0  0
  1  2  1  0  0  0  0
 22 23  2  0  0  0  0
 22 24  1  0  0  0  0
 19 20  1  0  0  0  0
 19 21  1  0  0  0  0
 17 18  2  0  0  0  0
 17 19  1  0  0  0  0
 14 15  1  0  0  0  0
 14 16  1  0  0  0  0
 14 17  1  0  0  0  0
 11 12  1  0  0  0  0
 11 13  1  0  0  0  0
 11 14  1  0  0  0  0
  9 10  1  0  0  0  0
  9 11  1  0  0  0  0
  9 22  1  0  0  0  0
  7  8  1  0  0  0  0
  7  9  1  0  0  0  0
 26 27  1  0  0  0  0
 26 28  1  0  0  0  0
 26 29  1  0  0  0  0
 24 25  1  0  0  0  0
 24 26  1  0  0  0  0
M  END
$$$$
default_name
  -OEChem-02102213163D

 29 28  0     1  0  0  0  0  0999 V2000
   -3.3998   -3.6239    1.3678 H   0  0  0  0  0  0  0  0  0  0  0  0
   -3.3608   -2.6749    0.8348 C   0  0  0  0  0  0  0  0  0  0  0  0
   -4.0988   -1.9909    1.2498 H   0  0  0  0  0  0  0  0  0  0  0  0
   -3.5618   -2.8419   -0.2222 H   0  0  0  0  0  0  0  0  0  0  0  0
   -1.9818   -2.0809    0.9918 C   0  0  0  0  0  0  0  0  0  0  0  0
   -1.1288   -2.6669    1.6468 O   0  0  0  0  0  0  0  0  0  0  0  0
   -1.7648   -0.9089    0.3998 N   0  0  0  0  0  0  0  0  0  0  0  0
   -2.5238   -0.4719   -0.1032 H   0  0  0  0  0  0  0  0  0  0  0  0
   -0.4848   -0.1959    0.4138 C   0  0  1  0  0  0  0  0  0  0  0  0
    0.1386   -0.6144    1.2058 H   0  0  0  0  0  0  0  0  0  0  0  0
    0.2271   -0.4272   -0.9334 C   0  0  0  0  0  0  0  0  0  0  0  0
   -0.4081   -0.0331   -1.7295 H   0  0  0  0  0  0  0  0  0  0  0  0
    1.1664    0.1279   -0.9401 H   0  0  0  0  0  0  0  0  0  0  0  0
    0.5217   -1.9068   -1.2358 C   0  0  0  0  0  0  0  0  0  0  0  0
    1.5966   -2.0535   -1.3386 H   0  0  0  0  0  0  0  0  0  0  0  0
    0.1650   -2.5154   -0.4049 H   0  0  0  0  0  0  0  0  0  0  0  0
   -0.1472   -2.4034   -2.5174 C   0  0  0  0  0  0  0  0  0  0  0  0
   -0.8982   -1.7203   -3.1883 O   0  0  0  0  0  0  0  0  0  0  0  0
    0.1068   -3.6291   -2.9216 N   0  0  0  0  0  0  0  0  0  0  0  0
   -0.3584   -3.9028   -3.7696 H   0  0  0  0  0  0  0  0  0  0  0  0
    0.7186   -4.2317   -2.4095 H   0  0  0  0  0  0  0  0  0  0  0  0
   -0.7011    1.2952    0.7149 C   0  0  0  0  0  0  0  0  0  0  0  0
   -1.5917    1.9198    0.1415 O   0  0  0  0  0  0  0  0  0  0  0  0
    0.1191    1.8675    1.6055 N   0  0  0  0  0  0  0  0  0  0  0  0
    0.8092    1.2861    2.0537 H   0  0  0  0  0  0  0  0  0  0  0  0
    0.0509    3.2769    1.9894 C   0  0  0  0  0  0  0  0  0  0  0  0
   -0.9494    3.5076    2.3640 H   0  0  0  0  0  0  0  0  0  0  0  0
    0.7844    3.4956    2.7668 H   0  0  0  0  0  0  0  0  0  0  0  0
    0.2468    3.9058    1.1193 H   0  0  0  0  0  0  0  0  0  0  0  0
  5  6  2  0  0  0  0
  5  7  1  0  0  0  0
  2  3  1  0  0  0  0
  2  4  1  0  0  0  0
  2  5  1  0  0  0  0
  1  2  1  0  0  0  0
 22 23  2  0  0  0  0
 22 24  1  0  0  0  0
 19 20  1  0  0  0  0
 19 21  1  0  0  0  0
 17 18  2  0  0  0  0
 17 19  1  0  0  0  0
 14 15  1  0  0  0  0
 14 16  1  0  0  0  0
 14 17  1  0  0  0  0
 11 12  1  0  0  0  0
 11 13  1  0  0  0  0
 11 14  1  0  0  0  0
  9 10  1  0  0  0  0
  9 11  1  0  0  0  0
  9 22  1  0  0  0  0
  7  8  1  0  0  0  0
  7  9  1  0  0  0  0
 26 27  1  0  0  0  0
 26 28  1  0  0  0  0
 26 29  1  0  0  0  0
 24 25  1  0  0  0  0
 24 26  1  0  0  0  0
M  END
$$$$
default_name
  -OEChem-02102213163D

 29 28  0     1  0  0  0  0  0999 V2000
   -3.3998   -3.6239    1.3678 H   0  0  0  0  0  0  0  0  0  0  0  0
   -3.3608   -2.6749    0.8348 C   0  0  0  0  0  0  0  0  0  0  0  0
   -4.0988   -1.9909    1.2498 H   0  0  0  0  0  0  0  0  0  0  0  0
   -3.5618   -2.8419   -0.2222 H   0  0  0  0  0  0  0  0  0  0  0  0
   -1.9818   -2.0809    0.9918 C   0  0  0  0  0  0  0  0  0  0  0  0
   -1.1288   -2.6669    1.6468 O   0  0  0  0  0  0  0  0  0  0  0  0
   -1.7648   -0.9089    0.3998 N   0  0  0  0  0  0  0  0  0  0  0  0
   -2.5238   -0.4719   -0.1032 H   0  0  0  0  0  0  0  0  0  0  0  0
   -0.4848   -0.1959    0.4138 C   0  0  1  0  0  0  0  0  0  0  0  0
    0.1386   -0.6144    1.2058 H   0  0  0  0  0  0  0  0  0  0  0  0
    0.2271   -0.4272   -0.9334 C   0  0  0  0  0  0  0  0  0  0  0  0
   -0.4081   -0.0331   -1.7295 H   0  0  0  0  0  0  0  0  0  0  0  0
    1.1664    0.1279   -0.9401 H   0  0  0  0  0  0  0  0  0  0  0  0
    0.5217   -1.9068   -1.2358 C   0  0  0  0  0  0  0  0  0  0  0  0
    1.5805   -2.1101   -1.0772 H   0  0  0  0  0  0  0  0  0  0  0  0
   -0.0583   -2.5293   -0.5546 H   0  0  0  0  0  0  0  0  0  0  0  0
    0.1732   -2.3087   -2.6689 C   0  0  0  0  0  0  0  0  0  0  0  0
   -0.3549   -1.5555   -3.4654 O   0  0  0  0  0  0  0  0  0  0  0  0
    0.4654   -3.5283   -3.0656 N   0  0  0  0  0  0  0  0  0  0  0  0
    0.2154   -3.7382   -4.0163 H   0  0  0  0  0  0  0  0  0  0  0  0
    0.9020   -4.1864   -2.4524 H   0  0  0  0  0  0  0  0  0  0  0  0
   -0.7011    1.2952    0.7149 C   0  0  0  0  0  0  0  0  0  0  0  0
   -1.5917    1.9198    0.1415 O   0  0  0  0  0  0  0  0  0  0  0  0
    0.1191    1.8675    1.6055 N   0  0  0  0  0  0  0  0  0  0  0  0
    0.8092    1.2861    2.0537 H   0  0  0  0  0  0  0  0  0  0  0  0
    0.0509    3.2769    1.9894 C   0  0  0  0  0  0  0  0  0  0  0  0
   -0.9494    3.5076    2.3640 H   0  0  0  0  0  0  0  0  0  0  0  0
    0.7844    3.4956    2.7668 H   0  0  0  0  0  0  0  0  0  0  0  0
    0.2468    3.9058    1.1193 H   0  0  0  0  0  0  0  0  0  0  0  0
  5  6  2  0  0  0  0
  5  7  1  0  0  0  0
  2  3  1  0  0  0  0
  2  4  1  0  0  0  0
  2  5  1  0  0  0  0
  1  2  1  0  0  0  0
 22 23  2  0  0  0  0
 22 24  1  0  0  0  0
 19 20  1  0  0  0  0
 19 21  1  0  0  0  0
 17 18  2  0  0  0  0
 17 19  1  0  0  0  0
 14 15  1  0  0  0  0
 14 16  1  0  0  0  0
 14 17  1  0  0  0  0
 11 12  1  0  0  0  0
 11 13  1  0  0  0  0
 11 14  1  0  0  0  0
  9 10  1  0  0  0  0
  9 11  1  0  0  0  0
  9 22  1  0  0  0  0
  7  8  1  0  0  0  0
  7  9  1  0  0  0  0
 26 27  1  0  0  0  0
 26 28  1  0  0  0  0
 26 29  1  0  0  0  0
 24 25  1  0  0  0  0
 24 26  1  0  0  0  0
M  END
$$$$
default_name
  -OEChem-02102213163D

 29 28  0     1  0  0  0  0  0999 V2000
   -3.3998   -3.6239    1.3678 H   0  0  0  0  0  0  0  0  0  0  0  0
   -3.3608   -2.6749    0.8348 C   0  0  0  0  0  0  0  0  0  0  0  0
   -4.0988   -1.9909    1.2498 H   0  0  0  0  0  0  0  0  0  0  0  0
   -3.5618   -2.8419   -0.2222 H   0  0  0  0  0  0  0  0  0  0  0  0
   -1.9818   -2.0809    0.9918 C   0  0  0  0  0  0  0  0  0  0  0  0
   -1.1288   -2.6669    1.6468 O   0  0  0  0  0  0  0  0  0  0  0  0
   -1.7648   -0.9089    0.3998 N   0  0  0  0  0  0  0  0  0  0  0  0
   -2.5238   -0.4719   -0.1032 H   0  0  0  0  0  0  0  0  0  0  0  0
   -0.4848   -0.1959    0.4138 C   0  0  1  0  0  0  0  0  0  0  0  0
    0.1386   -0.6144    1.2058 H   0  0  0  0  0  0  0  0  0  0  0  0
    0.2271   -0.4272   -0.9334 C   0  0  0  0  0  0  0  0  0  0  0  0
   -0.4081   -0.0331   -1.7295 H   0  0  0  0  0  0  0  0  0  0  0  0
    1.1664    0.1279   -0.9401 H   0  0  0  0  0  0  0  0  0  0  0  0
    0.5217   -1.9068   -1.2358 C   0  0  0  0  0  0  0  0  0  0  0  0
    1.4970   -2.1769   -0.8316 H   0  0  0  0  0  0  0  0  0  0  0  0
   -0.2374   -2.5239   -0.7553 H   0  0  0  0  0  0  0  0  0  0  0  0
    0.5252   -2.2260   -2.7307 C   0  0  0  0  0  0  0  0  0  0  0  0
    0.2473   -1.4102   -3.5898 O   0  0  0  0  0  0  0  0  0  0  0  0
    0.8527   -3.4421   -3.1103 N   0  0  0  0  0  0  0  0  0  0  0  0
    0.8393   -3.5961   -4.1036 H   0  0  0  0  0  0  0  0  0  0  0  0
    1.0922   -4.1499   -2.4460 H   0  0  0  0  0  0  0  0  0  0  0  0
   -0.7011    1.2952    0.7149 C   0  0  0  0  0  0  0  0  0  0  0  0
   -1.5917    1.9198    0.1415 O   0  0  0  0  0  0  0  0  0  0  0  0
    0.1191    1.8675    1.6055 N   0  0  0  0  0  0  0  0  0  0  0  0
    0.8092    1.2861    2.0537 H   0  0  0  0  0  0  0  0  0  0  0  0
    0.0509    3.2769    1.9894 C   0  0  0  0  0  0  0  0  0  0  0  0
   -0.9494    3.5076    2.3640 H   0  0  0  0  0  0  0  0  0  0  0  0
    0.7844    3.4956    2.7668 H   0  0  0  0  0  0  0  0  0  0  0  0
    0.2468    3.9058    1.1193 H   0  0  0  0  0  0  0  0  0  0  0  0
  5  6  2  0  0  0  0
  5  7  1  0  0  0  0
  2  3  1  0  0  0  0
  2  4  1  0  0  0  0
  2  5  1  0  0  0  0
  1  2  1  0  0  0  0
 22 23  2  0  0  0  0
 22 24  1  0  0  0  0
 19 20  1  0  0  0  0
 19 21  1  0  0  0  0
 17 18  2  0  0  0  0
 17 19  1  0  0  0  0
 14 15  1  0  0  0  0
 14 16  1  0  0  0  0
 14 17  1  0  0  0  0
 11 12  1  0  0  0  0
 11 13  1  0  0  0  0
 11 14  1  0  0  0  0
  9 10  1  0  0  0  0
  9 11  1  0  0  0  0
  9 22  1  0  0  0  0
  7  8  1  0  0  0  0
  7  9  1  0  0  0  0
 26 27  1  0  0  0  0
 26 28  1  0  0  0  0
 26 29  1  0  0  0  0
 24 25  1  0  0  0  0
 24 26  1  0  0  0  0
M  END
$$$$
default_name
  -OEChem-02102213163D

 29 28  0     1  0  0  0  0  0999 V2000
   -3.3998   -3.6239    1.3678 H   0  0  0  0  0  0  0  0  0  0  0  0
   -3.3608   -2.6749    0.8348 C   0  0  0  0  0  0  0  0  0  0  0  0
   -4.0988   -1.9909    1.2498 H   0  0  0  0  0  0  0  0  0  0  0  0
   -3.5618   -2.8419   -0.2222 H   0  0  0  0  0  0  0  0  0  0  0  0
   -1.9818   -2.0809    0.9918 C   0  0  0  0  0  0  0  0  0  0  0  0
   -1.1288   -2.6669    1.6468 O   0  0  0  0  0  0  0  0  0  0  0  0
   -1.7648   -0.9089    0.3998 N   0  0  0  0  0  0  0  0  0  0  0  0
   -2.5238   -0.4719   -0.1032 H   0  0  0  0  0  0  0  0  0  0  0  0
   -0.4848   -0.1959    0.4138 C   0  0  1  0  0  0  0  0  0  0  0  0
    0.1386   -0.6144    1.2058 H   0  0  0  0  0  0  0  0  0  0  0  0
    0.2271   -0.4272   -0.9334 C   0  0  0  0  0  0  0  0  0  0  0  0
   -0.4081   -0.0331   -1.7295 H   0  0  0  0  0  0  0  0  0  0  0  0
    1.1664    0.1279   -0.9401 H   0  0  0  0  0  0  0  0  0  0  0  0
    0.5217   -1.9068   -1.2358 C   0  0  0  0  0  0  0  0  0  0  0  0
    1.3518   -2.2494   -0.6185 H   0  0  0  0  0  0  0  0  0  0  0  0
   -0.3603   -2.4997   -0.9936 H   0  0  0  0  0  0  0  0  0  0  0  0
    0.8849   -2.1609   -2.6987 C   0  0  0  0  0  0  0  0  0  0  0  0
    0.8674   -1.2944   -3.5528 O   0  0  0  0  0  0  0  0  0  0  0  0
    1.2423   -3.3762   -3.0529 N   0  0  0  0  0  0  0  0  0  0  0  0
    1.4710   -3.4863   -4.0256 H   0  0  0  0  0  0  0  0  0  0  0  0
    1.2762   -4.1245   -2.3907 H   0  0  0  0  0  0  0  0  0  0  0  0
   -0.7011    1.2952    0.7149 C   0  0  0  0  0  0  0  0  0  0  0  0
   -1.5917    1.9198    0.1415 O   0  0  0  0  0  0  0  0  0  0  0  0
    0.1191    1.8675    1.6055 N   0  0  0  0  0  0  0  0  0  0  0  0
    0.8092    1.2861    2.0537 H   0  0  0  0  0  0  0  0  0  0  0  0
    0.0509    3.2769    1.9894 C   0  0  0  0  0  0  0  0  0  0  0  0
   -0.9494    3.5076    2.3640 H   0  0  0  0  0  0  0  0  0  0  0  0
    0.7844    3.4956    2.7668 H   0  0  0  0  0  0  0  0  0  0  0  0
    0.2468    3.9058    1.1193 H   0  0  0  0  0  0  0  0  0  0  0  0
  5  6  2  0  0  0  0
  5  7  1  0  0  0  0
  2  3  1  0  0  0  0
  2  4  1  0  0  0  0
  2  5  1  0  0  0  0
  1  2  1  0  0  0  0
 22 23  2  0  0  0  0
 22 24  1  0  0  0  0
 19 20  1  0  0  0  0
 19 21  1  0  0  0  0
 17 18  2  0  0  0  0
 17 19  1  0  0  0  0
 14 15  1  0  0  0  0
 14 16  1  0  0  0  0
 14 17  1  0  0  0  0
 11 12  1  0  0  0  0
 11 13  1  0  0  0  0
 11 14  1  0  0  0  0
  9 10  1  0  0  0  0
  9 11  1  0  0  0  0
  9 22  1  0  0  0  0
  7  8  1  0  0  0  0
  7  9  1  0  0  0  0
 26 27  1  0  0  0  0
 26 28  1  0  0  0  0
 26 29  1  0  0  0  0
 24 25  1  0  0  0  0
 24 26  1  0  0  0  0
M  END
$$$$
default_name
  -OEChem-02102213163D

 29 28  0     1  0  0  0  0  0999 V2000
   -3.3998   -3.6239    1.3678 H   0  0  0  0  0  0  0  0  0  0  0  0
   -3.3608   -2.6749    0.8348 C   0  0  0  0  0  0  0  0  0  0  0  0
   -4.0988   -1.9909    1.2498 H   0  0  0  0  0  0  0  0  0  0  0  0
   -3.5618   -2.8419   -0.2222 H   0  0  0  0  0  0  0  0  0  0  0  0
   -1.9818   -2.0809    0.9918 C   0  0  0  0  0  0  0  0  0  0  0  0
   -1.1288   -2.6669    1.6468 O   0  0  0  0  0  0  0  0  0  0  0  0
   -1.7648   -0.9089    0.3998 N   0  0  0  0  0  0  0  0  0  0  0  0
   -2.5238   -0.4719   -0.1032 H   0  0  0  0  0  0  0  0  0  0  0  0
   -0.4848   -0.1959    0.4138 C   0  0  1  0  0  0  0  0  0  0  0  0
    0.1386   -0.6144    1.2058 H   0  0  0  0  0  0  0  0  0  0  0  0
    0.2271   -0.4272   -0.9334 C   0  0  0  0  0  0  0  0  0  0  0  0
   -0.2609    0.1906   -1.6901 H   0  0  0  0  0  0  0  0  0  0  0  0
    1.2658   -0.1045   -0.8477 H   0  0  0  0  0  0  0  0  0  0  0  0
    0.1984   -1.8900   -1.4095 C   0  0  0  0  0  0  0  0  0  0  0  0
    0.6804   -2.5269   -0.6680 H   0  0  0  0  0  0  0  0  0  0  0  0
   -0.8390   -2.2062   -1.5186 H   0  0  0  0  0  0  0  0  0  0  0  0
    0.9086   -2.1014   -2.7465 C   0  0  0  0  0  0  0  0  0  0  0  0
    1.3808   -1.1932   -3.4043 O   0  0  0  0  0  0  0  0  0  0  0  0
    1.0229   -3.3281   -3.2075 N   0  0  0  0  0  0  0  0  0  0  0  0
    1.4989   -3.4089   -4.0892 H   0  0  0  0  0  0  0  0  0  0  0  0
    0.6553   -4.1109   -2.7058 H   0  0  0  0  0  0  0  0  0  0  0  0
   -0.7011    1.2952    0.7149 C   0  0  0  0  0  0  0  0  0  0  0  0
   -1.5917    1.9198    0.1415 O   0  0  0  0  0  0  0  0  0  0  0  0
    0.1191    1.8675    1.6055 N   0  0  0  0  0  0  0  0  0  0  0  0
    0.8092    1.2861    2.0537 H   0  0  0  0  0  0  0  0  0  0  0  0
    0.0509    3.2769    1.9894 C   0  0  0  0  0  0  0  0  0  0  0  0
   -0.9494    3.5076    2.3640 H   0  0  0  0  0  0  0  0  0  0  0  0
    0.7844    3.4956    2.7668 H   0  0  0  0  0  0  0  0  0  0  0  0
    0.2468    3.9058    1.1193 H   0  0  0  0  0  0  0  0  0  0  0  0
  5  6  2  0  0  0  0
  5  7  1  0  0  0  0
  2  3  1  0  0  0  0
  2  4  1  0  0  0  0
  2  5  1  0  0  0  0
  1  2  1  0  0  0  0
 22 23  2  0  0  0  0
 22 24  1  0  0  0  0
 19 20  1  0  0  0  0
 19 21  1  0  0  0  0
 17 18  2  0  0  0  0
 17 19  1  0  0  0  0
 14 15  1  0  0  0  0
 14 16  1  0  0  0  0
 14 17  1  0  0  0  0
 11 12  1  0  0  0  0
 11 13  1  0  0  0  0
 11 14  1  0  0  0  0
  9 10  1  0  0  0  0
  9 11  1  0  0  0  0
  9 22  1  0  0  0  0
  7  8  1  0  0  0  0
  7  9  1  0  0  0  0
 26 27  1  0  0  0  0
 26 28  1  0  0  0  0
 26 29  1  0  0  0  0
 24 25  1  0  0  0  0
 24 26  1  0  0  0  0
M  END
$$$$
default_name
  -OEChem-02102213163D

 29 28  0     1  0  0  0  0  0999 V2000
   -3.3998   -3.6239    1.3678 H   0  0  0  0  0  0  0  0  0  0  0  0
   -3.3608   -2.6749    0.8348 C   0  0  0  0  0  0  0  0  0  0  0  0
   -4.0988   -1.9909    1.2498 H   0  0  0  0  0  0  0  0  0  0  0  0
   -3.5618   -2.8419   -0.2222 H   0  0  0  0  0  0  0  0  0  0  0  0
   -1.9818   -2.0809    0.9918 C   0  0  0  0  0  0  0  0  0  0  0  0
   -1.1288   -2.6669    1.6468 O   0  0  0  0  0  0  0  0  0  0  0  0
   -1.7648   -0.9089    0.3998 N   0  0  0  0  0  0  0  0  0  0  0  0
   -2.5238   -0.4719   -0.1032 H   0  0  0  0  0  0  0  0  0  0  0  0
   -0.4848   -0.1959    0.4138 C   0  0  1  0  0  0  0  0  0  0  0  0
    0.1386   -0.6144    1.2058 H   0  0  0  0  0  0  0  0  0  0  0  0
    0.2271   -0.4272   -0.9334 C   0  0  0  0  0  0  0  0  0  0  0  0
   -0.2609    0.1906   -1.6901 H   0  0  0  0  0  0  0  0  0  0  0  0
    1.2658   -0.1045   -0.8477 H   0  0  0  0  0  0  0  0  0  0  0  0
    0.1984   -1.8900   -1.4095 C   0  0  0  0  0  0  0  0  0  0  0  0
    0.4303   -2.5521   -0.5755 H   0  0  0  0  0  0  0  0  0  0  0  0
   -0.8023   -2.1244   -1.7723 H   0  0  0  0  0  0  0  0  0  0  0  0
    1.1961   -2.1770   -2.5315 C   0  0  0  0  0  0  0  0  0  0  0  0
    1.8872   -1.3191   -3.0481 O   0  0  0  0  0  0  0  0  0  0  0  0
    1.3209   -3.4156   -2.9565 N   0  0  0  0  0  0  0  0  0  0  0  0
    1.9909   -3.5471   -3.6942 H   0  0  0  0  0  0  0  0  0  0  0  0
    0.7793   -4.1592   -2.5649 H   0  0  0  0  0  0  0  0  0  0  0  0
   -0.7011    1.2952    0.7149 C   0  0  0  0  0  0  0  0  0  0  0  0
   -1.5917    1.9198    0.1415 O   0  0  0  0  0  0  0  0  0  0  0  0
    0.1191    1.8675    1.6055 N   0  0  0  0  0  0  0  0  0  0  0  0
    0.8092    1.2861    2.0537 H   0  0  0  0  0  0  0  0  0  0  0  0
    0.0509    3.2769    1.9894 C   0  0  0  0  0  0  0  0  0  0  0  0
   -0.9494    3.5076    2.3640 H   0  0  0  0  0  0  0  0  0  0  0  0
    0.7844    3.4956    2.7668 H   0  0  0  0  0  0  0  0  0  0  0  0
    0.2468    3.9058    1.1193 H   0  0  0  0  0  0  0  0  0  0  0  0
  5  6  2  0  0  0  0
  5  7  1  0  0  0  0
  2  3  1  0  0  0  0
  2  4  1  0  0  0  0
  2  5  1  0  0  0  0
  1  2  1  0  0  0  0
 22 23  2  0  0  0  0
 22 24  1  0  0  0  0
 19 20  1  0  0  0  0
 19 21  1  0  0  0  0
 17 18  2  0  0  0  0
 17 19  1  0  0  0  0
 14 15  1  0  0  0  0
 14 16  1  0  0  0  0
 14 17  1  0  0  0  0
 11 12  1  0  0  0  0
 11 13  1  0  0  0  0
 11 14  1  0  0  0  0
  9 10  1  0  0  0  0
  9 11  1  0  0  0  0
  9 22  1  0  0  0  0
  7  8  1  0  0  0  0
  7  9  1  0  0  0  0
 26 27  1  0  0  0  0
 26 28  1  0  0  0  0
 26 29  1  0  0  0  0
 24 25  1  0  0  0  0
 24 26  1  0  0  0  0
M  END
$$$$
default_name
  -OEChem-02102213163D

 29 28  0     1  0  0  0  0  0999 V2000
   -3.3998   -3.6239    1.3678 H   0  0  0  0  0  0  0  0  0  0  0  0
   -3.3608   -2.6749    0.8348 C   0  0  0  0  0  0  0  0  0  0  0  0
   -4.0988   -1.9909    1.2498 H   0  0  0  0  0  0  0  0  0  0  0  0
   -3.5618   -2.8419   -0.2222 H   0  0  0  0  0  0  0  0  0  0  0  0
   -1.9818   -2.0809    0.9918 C   0  0  0  0  0  0  0  0  0  0  0  0
   -1.1288   -2.6669    1.6468 O   0  0  0  0  0  0  0  0  0  0  0  0
   -1.7648   -0.9089    0.3998 N   0  0  0  0  0  0  0  0  0  0  0  0
   -2.5238   -0.4719   -0.1032 H   0  0  0  0  0  0  0  0  0  0  0  0
   -0.4848   -0.1959    0.4138 C   0  0  1  0  0  0  0  0  0  0  0  0
    0.1386   -0.6144    1.2058 H   0  0  0  0  0  0  0  0  0  0  0  0
    0.2271   -0.4272   -0.9334 C   0  0  0  0  0  0  0  0  0  0  0  0
   -0.2609    0.1906   -1.6901 H   0  0  0  0  0  0  0  0  0  0  0  0
    1.2658   -0.1045   -0.8477 H   0  0  0  0  0  0  0  0  0  0  0  0
    0.1984   -1.8900   -1.4095 C   0  0  0  0  0  0  0  0  0  0  0  0
    0.1639   -2.5560   -0.5475 H   0  0  0  0  0  0  0  0  0  0  0  0
   -0.6979   -2.0495   -2.0088 H   0  0  0  0  0  0  0  0  0  0  0  0
    1.4148   -2.2720   -2.2527 C   0  0  0  0  0  0  0  0  0  0  0  0
    2.2786   -1.4795   -2.5787 O   0  0  0  0  0  0  0  0  0  0  0  0
    1.5399   -3.5228   -2.6403 N   0  0  0  0  0  0  0  0  0  0  0  0
    2.3579   -3.7181   -3.1910 H   0  0  0  0  0  0  0  0  0  0  0  0
    0.8605   -4.2151   -2.3980 H   0  0  0  0  0  0  0  0  0  0  0  0
   -0.7011    1.2952    0.7149 C   0  0  0  0  0  0  0  0  0  0  0  0
   -1.5917    1.9198    0.1415 O   0  0  0  0  0  0  0  0  0  0  0  0
    0.1191    1.8675    1.6055 N   0  0  0  0  0  0  0  0  0  0  0  0
    0.8092    1.2861    2.0537 H   0  0  0  0  0  0  0  0  0  0  0  0
    0.0509    3.2769    1.9894 C   0  0  0  0  0  0  0  0  0  0  0  0
   -0.9494    3.5076    2.3640 H   0  0  0  0  0  0  0  0  0  0  0  0
    0.7844    3.4956    2.7668 H   0  0  0  0  0  0  0  0  0  0  0  0
    0.2468    3.9058    1.1193 H   0  0  0  0  0  0  0  0  0  0  0  0
  5  6  2  0  0  0  0
  5  7  1  0  0  0  0
  2  3  1  0  0  0  0
  2  4  1  0  0  0  0
  2  5  1  0  0  0  0
  1  2  1  0  0  0  0
 22 23  2  0  0  0  0
 22 24  1  0  0  0  0
 19 20  1  0  0  0  0
 19 21  1  0  0  0  0
 17 18  2  0  0  0  0
 17 19  1  0  0  0  0
 14 15  1  0  0  0  0
 14 16  1  0  0  0  0
 14 17  1  0  0  0  0
 11 12  1  0  0  0  0
 11 13  1  0  0  0  0
 11 14  1  0  0  0  0
  9 10  1  0  0  0  0
  9 11  1  0  0  0  0
  9 22  1  0  0  0  0
  7  8  1  0  0  0  0
  7  9  1  0  0  0  0
 26 27  1  0  0  0  0
 26 28  1  0  0  0  0
 26 29  1  0  0  0  0
 24 25  1  0  0  0  0
 24 26  1  0  0  0  0
M  END
$$$$
default_name
  -OEChem-02102213163D

 29 28  0     1  0  0  0  0  0999 V2000
   -3.3998   -3.6239    1.3678 H   0  0  0  0  0  0  0  0  0  0  0  0
   -3.3608   -2.6749    0.8348 C   0  0  0  0  0  0  0  0  0  0  0  0
   -4.0988   -1.9909    1.2498 H   0  0  0  0  0  0  0  0  0  0  0  0
   -3.5618   -2.8419   -0.2222 H   0  0  0  0  0  0  0  0  0  0  0  0
   -1.9818   -2.0809    0.9918 C   0  0  0  0  0  0  0  0  0  0  0  0
   -1.1288   -2.6669    1.6468 O   0  0  0  0  0  0  0  0  0  0  0  0
   -1.7648   -0.9089    0.3998 N   0  0  0  0  0  0  0  0  0  0  0  0
   -2.5238   -0.4719   -0.1032 H   0  0  0  0  0  0  0  0  0  0  0  0
   -0.4848   -0.1959    0.4138 C   0  0  1  0  0  0  0  0  0  0  0  0
    0.1386   -0.6144    1.2058 H   0  0  0  0  0  0  0  0  0  0  0  0
    0.2271   -0.4272   -0.9334 C   0  0  0  0  0  0  0  0  0  0  0  0
   -0.2609    0.1906   -1.6901 H   0  0  0  0  0  0  0  0  0  0  0  0
    1.2658   -0.1045   -0.8477 H   0  0  0  0  0  0  0  0  0  0  0  0
    0.1984   -1.8900   -1.4095 C   0  0  0  0  0  0  0  0  0  0  0  0
   -0.1006   -2.5382   -0.5860 H   0  0  0  0  0  0  0  0  0  0  0  0
   -0.5329   -1.9866   -2.2119 H   0  0  0  0  0  0  0  0  0  0  0  0
    1.5499   -2.3800   -1.9292 C   0  0  0  0  0  0  0  0  0  0  0  0
    2.5284   -1.6635   -2.0283 O   0  0  0  0  0  0  0  0  0  0  0  0
    1.6651   -3.6423   -2.2805 N   0  0  0  0  0  0  0  0  0  0  0  0
    2.5749   -3.9102   -2.6138 H   0  0  0  0  0  0  0  0  0  0  0  0
    0.8934   -4.2748   -2.2166 H   0  0  0  0  0  0  0  0  0  0  0  0
   -0.7011    1.2952    0.7149 C   0  0  0  0  0  0  0  0  0  0  0  0
   -1.5917    1.9198    0.1415 O   0  0  0  0  0  0  0  0  0  0  0  0
    0.1191    1.8675    1.6055 N   0  0  0  0  0  0  0  0  0  0  0  0
    0.8092    1.2861    2.0537 H   0  0  0  0  0  0  0  0  0  0  0  0
    0.0509    3.2769    1.9894 C   0  0  0  0  0  0  0  0  0  0  0  0
   -0.9494    3.5076    2.3640 H   0  0  0  0  0  0  0  0  0  0  0  0
    0.7844    3.4956    2.7668 H   0  0  0  0  0  0  0  0  0  0  0  0
    0.2468    3.9058    1.1193 H   0  0  0  0  0  0  0  0  0  0  0  0
  5  6  2  0  0  0  0
  5  7  1  0  0  0  0
  2  3  1  0  0  0  0
  2  4  1  0  0  0  0
  2  5  1  0  0  0  0
  1  2  1  0  0  0  0
 22 23  2  0  0  0  0
 22 24  1  0  0  0  0
 19 20  1  0  0  0  0
 19 21  1  0  0  0  0
 17 18  2  0  0  0  0
 17 19  1  0  0  0  0
 14 15  1  0  0  0  0
 14 16  1  0  0  0  0
 14 17  1  0  0  0  0
 11 12  1  0  0  0  0
 11 13  1  0  0  0  0
 11 14  1  0  0  0  0
  9 10  1  0  0  0  0
  9 11  1  0  0  0  0
  9 22  1  0  0  0  0
  7  8  1  0  0  0  0
  7  9  1  0  0  0  0
 26 27  1  0  0  0  0
 26 28  1  0  0  0  0
 26 29  1  0  0  0  0
 24 25  1  0  0  0  0
 24 26  1  0  0  0  0
M  END
$$$$
default_name
  -OEChem-02102213163D

 29 28  0     1  0  0  0  0  0999 V2000
   -3.3998   -3.6239    1.3678 H   0  0  0  0  0  0  0  0  0  0  0  0
   -3.3608   -2.6749    0.8348 C   0  0  0  0  0  0  0  0  0  0  0  0
   -4.0988   -1.9909    1.2498 H   0  0  0  0  0  0  0  0  0  0  0  0
   -3.5618   -2.8419   -0.2222 H   0  0  0  0  0  0  0  0  0  0  0  0
   -1.9818   -2.0809    0.9918 C   0  0  0  0  0  0  0  0  0  0  0  0
   -1.1288   -2.6669    1.6468 O   0  0  0  0  0  0  0  0  0  0  0  0
   -1.7648   -0.9089    0.3998 N   0  0  0  0  0  0  0  0  0  0  0  0
   -2.5238   -0.4719   -0.1032 H   0  0  0  0  0  0  0  0  0  0  0  0
   -0.4848   -0.1959    0.4138 C   0  0  1  0  0  0  0  0  0  0  0  0
    0.1386   -0.6144    1.2058 H   0  0  0  0  0  0  0  0  0  0  0  0
    0.2271   -0.4272   -0.9334 C   0  0  0  0  0  0  0  0  0  0  0  0
   -0.2609    0.1906   -1.6901 H   0  0  0  0  0  0  0  0  0  0  0  0
    1.2658   -0.1045   -0.8477 H   0  0  0  0  0  0  0  0  0  0  0  0
    0.1984   -1.8900   -1.4095 C   0  0  0  0  0  0  0  0  0  0  0  0
   -0.3452   -2.5001   -0.6884 H   0  0  0  0  0  0  0  0  0  0  0  0
   -0.3185   -1.9401   -2.3678 H   0  0  0  0  0  0  0  0  0  0  0  0
    1.5921   -2.4935   -1.5829 C   0  0  0  0  0  0  0  0  0  0  0  0
    2.6194   -1.8586   -1.4342 O   0  0  0  0  0  0  0  0  0  0  0  0
    1.6879   -3.7661   -1.9016 N   0  0  0  0  0  0  0  0  0  0  0  0
    2.6270   -4.1103   -2.0019 H   0  0  0  0  0  0  0  0  0  0  0  0
    0.8757   -4.3342   -2.0330 H   0  0  0  0  0  0  0  0  0  0  0  0
   -0.7011    1.2952    0.7149 C   0  0  0  0  0  0  0  0  0  0  0  0
   -1.5917    1.9198    0.1415 O   0  0  0  0  0  0  0  0  0  0  0  0
    0.1191    1.8675    1.6055 N   0  0  0  0  0  0  0  0  0  0  0  0
    0.8092    1.2861    2.0537 H   0  0  0  0  0  0  0  0  0  0  0  0
    0.0509    3.2769    1.9894 C   0  0  0  0  0  0  0  0  0  0  0  0
   -0.9494    3.5076    2.3640 H   0  0  0  0  0  0  0  0  0  0  0  0
    0.7844    3.4956    2.7668 H   0  0  0  0  0  0  0  0  0  0  0  0
    0.2468    3.9058    1.1193 H   0  0  0  0  0  0  0  0  0  0  0  0
  5  6  2  0  0  0  0
  5  7  1  0  0  0  0
  2  3  1  0  0  0  0
  2  4  1  0  0  0  0
  2  5  1  0  0  0  0
  1  2  1  0  0  0  0
 22 23  2  0  0  0  0
 22 24  1  0  0  0  0
 19 20  1  0  0  0  0
 19 21  1  0  0  0  0
 17 18  2  0  0  0  0
 17 19  1  0  0  0  0
 14 15  1  0  0  0  0
 14 16  1  0  0  0  0
 14 17  1  0  0  0  0
 11 12  1  0  0  0  0
 11 13  1  0  0  0  0
 11 14  1  0  0  0  0
  9 10  1  0  0  0  0
  9 11  1  0  0  0  0
  9 22  1  0  0  0  0
  7  8  1  0  0  0  0
  7  9  1  0  0  0  0
 26 27  1  0  0  0  0
 26 28  1  0  0  0  0
 26 29  1  0  0  0  0
 24 25  1  0  0  0  0
 24 26  1  0  0  0  0
M  END
$$$$
default_name
  -OEChem-02102213163D

 29 28  0     1  0  0  0  0  0999 V2000
   -3.3998   -3.6239    1.3678 H   0  0  0  0  0  0  0  0  0  0  0  0
   -3.3608   -2.6749    0.8348 C   0  0  0  0  0  0  0  0  0  0  0  0
   -4.0988   -1.9909    1.2498 H   0  0  0  0  0  0  0  0  0  0  0  0
   -3.5618   -2.8419   -0.2222 H   0  0  0  0  0  0  0  0  0  0  0  0
   -1.9818   -2.0809    0.9918 C   0  0  0  0  0  0  0  0  0  0  0  0
   -1.1288   -2.6669    1.6468 O   0  0  0  0  0  0  0  0  0  0  0  0
   -1.7648   -0.9089    0.3998 N   0  0  0  0  0  0  0  0  0  0  0  0
   -2.5238   -0.4719   -0.1032 H   0  0  0  0  0  0  0  0  0  0  0  0
   -0.4848   -0.1959    0.4138 C   0  0  1  0  0  0  0  0  0  0  0  0
    0.1386   -0.6144    1.2058 H   0  0  0  0  0  0  0  0  0  0  0  0
    0.2271   -0.4272   -0.9334 C   0  0  0  0  0  0  0  0  0  0  0  0
   -0.2609    0.1906   -1.6901 H   0  0  0  0  0  0  0  0  0  0  0  0
    1.2658   -0.1045   -0.8477 H   0  0  0  0  0  0  0  0  0  0  0  0
    0.1984   -1.8900   -1.4095 C   0  0  0  0  0  0  0  0  0  0  0  0
   -0.5532   -2.4442   -0.8477 H   0  0  0  0  0  0  0  0  0  0  0  0
   -0.0693   -1.9131   -2.4658 H   0  0  0  0  0  0  0  0  0  0  0  0
    1.5386   -2.6049   -1.2375 C   0  0  0  0  0  0  0  0  0  0  0  0
    2.5456   -2.0515   -0.8371 O   0  0  0  0  0  0  0  0  0  0  0  0
    1.6068   -3.8856   -1.5294 N   0  0  0  0  0  0  0  0  0  0  0  0
    2.5108   -4.3049   -1.3971 H   0  0  0  0  0  0  0  0  0  0  0  0
    0.8087   -4.3893   -1.8597 H   0  0  0  0  0  0  0  0  0  0  0  0
   -0.7011    1.2952    0.7149 C   0  0  0  0  0  0  0  0  0  0  0  0
   -1.5917    1.9198    0.1415 O   0  0  0  0  0  0  0  0  0  0  0  0
    0.1191    1.8675    1.6055 N   0  0  0  0  0  0  0  0  0  0  0  0
    0.8092    1.2861    2.0537 H   0  0  0  0  0  0  0  0  0  0  0  0
    0.0509    3.2769    1.9894 C   0  0  0  0  0  0  0  0  0  0  0  0
   -0.9494    3.5076    2.3640 H   0  0  0  0  0  0  0  0  0  0  0  0
    0.7844    3.4956    2.7668 H   0  0  0  0  0  0  0  0  0  0  0  0
    0.2468    3.9058    1.1193 H   0  0  0  0  0  0  0  0  0  0  0  0
  5  6  2  0  0  0  0
  5  7  1  0  0  0  0
  2  3  1  0  0  0  0
  2  4  1  0  0  0  0
  2  5  1  0  0  0  0
  1  2  1  0  0  0  0
 22 23  2  0  0  0  0
 22 24  1  0  0  0  0
 19 20  1  0  0  0  0
 19 21  1  0  0  0  0
 17 18  2  0  0  0  0
 17 19  1  0  0  0  0
 14 15  1  0  0  0  0
 14 16  1  0  0  0  0
 14 17  1  0  0  0  0
 11 12  1  0  0  0  0
 11 13  1  0  0  0  0
 11 14  1  0  0  0  0
  9 10  1  0  0  0  0
  9 11  1  0  0  0  0
  9 22  1  0  0  0  0
  7  8  1  0  0  0  0
  7  9  1  0  0  0  0
 26 27  1  0  0  0  0
 26 28  1  0  0  0  0
 26 29  1  0  0  0  0
 24 25  1  0  0  0  0
 24 26  1  0  0  0  0
M  END
$$$$
default_name
  -OEChem-02102213163D

 29 28  0     1  0  0  0  0  0999 V2000
   -3.3998   -3.6239    1.3678 H   0  0  0  0  0  0  0  0  0  0  0  0
   -3.3608   -2.6749    0.8348 C   0  0  0  0  0  0  0  0  0  0  0  0
   -4.0988   -1.9909    1.2498 H   0  0  0  0  0  0  0  0  0  0  0  0
   -3.5618   -2.8419   -0.2222 H   0  0  0  0  0  0  0  0  0  0  0  0
   -1.9818   -2.0809    0.9918 C   0  0  0  0  0  0  0  0  0  0  0  0
   -1.1288   -2.6669    1.6468 O   0  0  0  0  0  0  0  0  0  0  0  0
   -1.7648   -0.9089    0.3998 N   0  0  0  0  0  0  0  0  0  0  0  0
   -2.5238   -0.4719   -0.1032 H   0  0  0  0  0  0  0  0  0  0  0  0
   -0.4848   -0.1959    0.4138 C   0  0  1  0  0  0  0  0  0  0  0  0
    0.1386   -0.6144    1.2058 H   0  0  0  0  0  0  0  0  0  0  0  0
    0.2271   -0.4272   -0.9334 C   0  0  0  0  0  0  0  0  0  0  0  0
   -0.2609    0.1906   -1.6901 H   0  0  0  0  0  0  0  0  0  0  0  0
    1.2658   -0.1045   -0.8477 H   0  0  0  0  0  0  0  0  0  0  0  0
    0.1984   -1.8900   -1.4095 C   0  0  0  0  0  0  0  0  0  0  0  0
   -0.7104   -2.3743   -1.0530 H   0  0  0  0  0  0  0  0  0  0  0  0
    0.1977   -1.9074   -2.4993 H   0  0  0  0  0  0  0  0  0  0  0  0
    1.3929   -2.7065   -0.9164 C   0  0  0  0  0  0  0  0  0  0  0  0
    2.3119   -2.2290   -0.2775 O   0  0  0  0  0  0  0  0  0  0  0  0
    1.4273   -3.9928   -1.1892 N   0  0  0  0  0  0  0  0  0  0  0  0
    2.2342   -4.4806   -0.8405 H   0  0  0  0  0  0  0  0  0  0  0  0
    0.6970   -4.4363   -1.7085 H   0  0  0  0  0  0  0  0  0  0  0  0
   -0.7011    1.2952    0.7149 C   0  0  0  0  0  0  0  0  0  0  0  0
   -1.5917    1.9198    0.1415 O   0  0  0  0  0  0  0  0  0  0  0  0
    0.1191    1.8675    1.6055 N   0  0  0  0  0  0  0  0  0  0  0  0
    0.8092    1.2861    2.0537 H   0  0  0  0  0  0  0  0  0  0  0  0
    0.0509    3.2769    1.9894 C   0  0  0  0  0  0  0  0  0  0  0  0
   -0.9494    3.5076    2.3640 H   0  0  0  0  0  0  0  0  0  0  0  0
    0.7844    3.4956    2.7668 H   0  0  0  0  0  0  0  0  0  0  0  0
    0.2468    3.9058    1.1193 H   0  0  0  0  0  0  0  0  0  0  0  0
  5  6  2  0  0  0  0
  5  7  1  0  0  0  0
  2  3  1  0  0  0  0
  2  4  1  0  0  0  0
  2  5  1  0  0  0  0
  1  2  1  0  0  0  0
 22 23  2  0  0  0  0
 22 24  1  0  0  0  0
 19 20  1  0  0  0  0
 19 21  1  0  0  0  0
 17 18  2  0  0  0  0
 17 19  1  0  0  0  0
 14 15  1  0  0  0  0
 14 16  1  0  0  0  0
 14 17  1  0  0  0  0
 11 12  1  0  0  0  0
 11 13  1  0  0  0  0
 11 14  1  0  0  0  0
  9 10  1  0  0  0  0
  9 11  1  0  0  0  0
  9 22  1  0  0  0  0
  7  8  1  0  0  0  0
  7  9  1  0  0  0  0
 26 27  1  0  0  0  0
 26 28  1  0  0  0  0
 26 29  1  0  0  0  0
 24 25  1  0  0  0  0
 24 26  1  0  0  0  0
M  END
$$$$
default_name
  -OEChem-02102213163D

 29 28  0     1  0  0  0  0  0999 V2000
   -3.3998   -3.6239    1.3678 H   0  0  0  0  0  0  0  0  0  0  0  0
   -3.3608   -2.6749    0.8348 C   0  0  0  0  0  0  0  0  0  0  0  0
   -4.0988   -1.9909    1.2498 H   0  0  0  0  0  0  0  0  0  0  0  0
   -3.5618   -2.8419   -0.2222 H   0  0  0  0  0  0  0  0  0  0  0  0
   -1.9818   -2.0809    0.9918 C   0  0  0  0  0  0  0  0  0  0  0  0
   -1.1288   -2.6669    1.6468 O   0  0  0  0  0  0  0  0  0  0  0  0
   -1.7648   -0.9089    0.3998 N   0  0  0  0  0  0  0  0  0  0  0  0
   -2.5238   -0.4719   -0.1032 H   0  0  0  0  0  0  0  0  0  0  0  0
   -0.4848   -0.1959    0.4138 C   0  0  1  0  0  0  0  0  0  0  0  0
    0.1386   -0.6144    1.2058 H   0  0  0  0  0  0  0  0  0  0  0  0
    0.2271   -0.4272   -0.9334 C   0  0  0  0  0  0  0  0  0  0  0  0
   -0.2609    0.1906   -1.6901 H   0  0  0  0  0  0  0  0  0  0  0  0
    1.2658   -0.1045   -0.8477 H   0  0  0  0  0  0  0  0  0  0  0  0
    0.1984   -1.8900   -1.4095 C   0  0  0  0  0  0  0  0  0  0  0  0
   -0.8062   -2.2952   -1.2903 H   0  0  0  0  0  0  0  0  0  0  0  0
    0.4643   -1.9235   -2.4660 H   0  0  0  0  0  0  0  0  0  0  0  0
    1.1652   -2.7914   -0.6417 C   0  0  0  0  0  0  0  0  0  0  0  0
    1.9342   -2.3791    0.2063 O   0  0  0  0  0  0  0  0  0  0  0  0
    1.1616   -4.0803   -0.9043 N   0  0  0  0  0  0  0  0  0  0  0  0
    1.8159   -4.6254   -0.3702 H   0  0  0  0  0  0  0  0  0  0  0  0
    0.5481   -4.4720   -1.5897 H   0  0  0  0  0  0  0  0  0  0  0  0
   -0.7011    1.2952    0.7149 C   0  0  0  0  0  0  0  0  0  0  0  0
   -1.5917    1.9198    0.1415 O   0  0  0  0  0  0  0  0  0  0  0  0
    0.1191    1.8675    1.6055 N   0  0  0  0  0  0  0  0  0  0  0  0
    0.8092    1.2861    2.0537 H   0  0  0  0  0  0  0  0  0  0  0  0
    0.0509    3.2769    1.9894 C   0  0  0  0  0  0  0  0  0  0  0  0
   -0.9494    3.5076    2.3640 H   0  0  0  0  0  0  0  0  0  0  0  0
    0.7844    3.4956    2.7668 H   0  0  0  0  0  0  0  0  0  0  0  0
    0.2468    3.9058    1.1193 H   0  0  0  0  0  0  0  0  0  0  0  0
  5  6  2  0  0  0  0
  5  7  1  0  0  0  0
  2  3  1  0  0  0  0
  2  4  1  0  0  0  0
  2  5  1  0  0  0  0
  1  2  1  0  0  0  0
 22 23  2  0  0  0  0
 22 24  1  0  0  0  0
 19 20  1  0  0  0  0
 19 21  1  0  0  0  0
 17 18  2  0  0  0  0
 17 19  1  0  0  0  0
 14 15  1  0  0  0  0
 14 16  1  0  0  0  0
 14 17  1  0  0  0  0
 11 12  1  0  0  0  0
 11 13  1  0  0  0  0
 11 14  1  0  0  0  0
  9 10  1  0  0  0  0
  9 11  1  0  0  0  0
  9 22  1  0  0  0  0
  7  8  1  0  0  0  0
  7  9  1  0  0  0  0
 26 27  1  0  0  0  0
 26 28  1  0  0  0  0
 26 29  1  0  0  0  0
 24 25  1  0  0  0  0
 24 26  1  0  0  0  0
M  END
$$$$
default_name
  -OEChem-02102213163D

 29 28  0     1  0  0  0  0  0999 V2000
   -3.3998   -3.6239    1.3678 H   0  0  0  0  0  0  0  0  0  0  0  0
   -3.3608   -2.6749    0.8348 C   0  0  0  0  0  0  0  0  0  0  0  0
   -4.0988   -1.9909    1.2498 H   0  0  0  0  0  0  0  0  0  0  0  0
   -3.5618   -2.8419   -0.2222 H   0  0  0  0  0  0  0  0  0  0  0  0
   -1.9818   -2.0809    0.9918 C   0  0  0  0  0  0  0  0  0  0  0  0
   -1.1288   -2.6669    1.6468 O   0  0  0  0  0  0  0  0  0  0  0  0
   -1.7648   -0.9089    0.3998 N   0  0  0  0  0  0  0  0  0  0  0  0
   -2.5238   -0.4719   -0.1032 H   0  0  0  0  0  0  0  0  0  0  0  0
   -0.4848   -0.1959    0.4138 C   0  0  1  0  0  0  0  0  0  0  0  0
    0.1386   -0.6144    1.2058 H   0  0  0  0  0  0  0  0  0  0  0  0
    0.2271   -0.4272   -0.9334 C   0  0  0  0  0  0  0  0  0  0  0  0
   -0.2609    0.1906   -1.6901 H   0  0  0  0  0  0  0  0  0  0  0  0
    1.2658   -0.1045   -0.8477 H   0  0  0  0  0  0  0  0  0  0  0  0
    0.1984   -1.8900   -1.4095 C   0  0  0  0  0  0  0  0  0  0  0  0
   -0.8340   -2.2123   -1.5435 H   0  0  0  0  0  0  0  0  0  0  0  0
    0.7123   -1.9602   -2.3681 H   0  0  0  0  0  0  0  0  0  0  0  0
    0.8707   -2.8539   -0.4320 C   0  0  0  0  0  0  0  0  0  0  0  0
    1.4383   -2.4914    0.5814 O   0  0  0  0  0  0  0  0  0  0  0  0
    0.8279   -4.1422   -0.6940 N   0  0  0  0  0  0  0  0  0  0  0  0
    1.2846   -4.7296   -0.0181 H   0  0  0  0  0  0  0  0  0  0  0  0
    0.3721   -4.4941   -1.5114 H   0  0  0  0  0  0  0  0  0  0  0  0
   -0.7011    1.2952    0.7149 C   0  0  0  0  0  0  0  0  0  0  0  0
   -1.5917    1.9198    0.1415 O   0  0  0  0  0  0  0  0  0  0  0  0
    0.1191    1.8675    1.6055 N   0  0  0  0  0  0  0  0  0  0  0  0
    0.8092    1.2861    2.0537 H   0  0  0  0  0  0  0  0  0  0  0  0
    0.0509    3.2769    1.9894 C   0  0  0  0  0  0  0  0  0  0  0  0
   -0.9494    3.5076    2.3640 H   0  0  0  0  0  0  0  0  0  0  0  0
    0.7844    3.4956    2.7668 H   0  0  0  0  0  0  0  0  0  0  0  0
    0.2468    3.9058    1.1193 H   0  0  0  0  0  0  0  0  0  0  0  0
  5  6  2  0  0  0  0
  5  7  1  0  0  0  0
  2  3  1  0  0  0  0
  2  4  1  0  0  0  0
  2  5  1  0  0  0  0
  1  2  1  0  0  0  0
 22 23  2  0  0  0  0
 22 24  1  0  0  0  0
 19 20  1  0  0  0  0
 19 21  1  0  0  0  0
 17 18  2  0  0  0  0
 17 19  1  0  0  0  0
 14 15  1  0  0  0  0
 14 16  1  0  0  0  0
 14 17  1  0  0  0  0
 11 12  1  0  0  0  0
 11 13  1  0  0  0  0
 11 14  1  0  0  0  0
  9 10  1  0  0  0  0
  9 11  1  0  0  0  0
  9 22  1  0  0  0  0
  7  8  1  0  0  0  0
  7  9  1  0  0  0  0
 26 27  1  0  0  0  0
 26 28  1  0  0  0  0
 26 29  1  0  0  0  0
 24 25  1  0  0  0  0
 24 26  1  0  0  0  0
M  END
$$$$
default_name
  -OEChem-02102213163D

 29 28  0     1  0  0  0  0  0999 V2000
   -3.3998   -3.6239    1.3678 H   0  0  0  0  0  0  0  0  0  0  0  0
   -3.3608   -2.6749    0.8348 C   0  0  0  0  0  0  0  0  0  0  0  0
   -4.0988   -1.9909    1.2498 H   0  0  0  0  0  0  0  0  0  0  0  0
   -3.5618   -2.8419   -0.2222 H   0  0  0  0  0  0  0  0  0  0  0  0
   -1.9818   -2.0809    0.9918 C   0  0  0  0  0  0  0  0  0  0  0  0
   -1.1288   -2.6669    1.6468 O   0  0  0  0  0  0  0  0  0  0  0  0
   -1.7648   -0.9089    0.3998 N   0  0  0  0  0  0  0  0  0  0  0  0
   -2.5238   -0.4719   -0.1032 H   0  0  0  0  0  0  0  0  0  0  0  0
   -0.4848   -0.1959    0.4138 C   0  0  1  0  0  0  0  0  0  0  0  0
    0.1386   -0.6144    1.2058 H   0  0  0  0  0  0  0  0  0  0  0  0
    0.2271   -0.4272   -0.9334 C   0  0  0  0  0  0  0  0  0  0  0  0
   -0.2609    0.1906   -1.6901 H   0  0  0  0  0  0  0  0  0  0  0  0
    1.2658   -0.1045   -0.8477 H   0  0  0  0  0  0  0  0  0  0  0  0
    0.1984   -1.8900   -1.4095 C   0  0  0  0  0  0  0  0  0  0  0  0
   -0.7919   -2.1311   -1.7953 H   0  0  0  0  0  0  0  0  0  0  0  0
    0.9248   -2.0150   -2.2124 H   0  0  0  0  0  0  0  0  0  0  0  0
    0.5297   -2.8897   -0.3015 C   0  0  0  0  0  0  0  0  0  0  0  0
    0.8581   -2.5584    0.8223 O   0  0  0  0  0  0  0  0  0  0  0  0
    0.4488   -4.1742   -0.5727 N   0  0  0  0  0  0  0  0  0  0  0  0
    0.6764   -4.7860    0.1918 H   0  0  0  0  0  0  0  0  0  0  0  0
    0.1812   -4.5009   -1.4790 H   0  0  0  0  0  0  0  0  0  0  0  0
   -0.7011    1.2952    0.7149 C   0  0  0  0  0  0  0  0  0  0  0  0
   -1.5917    1.9198    0.1415 O   0  0  0  0  0  0  0  0  0  0  0  0
    0.1191    1.8675    1.6055 N   0  0  0  0  0  0  0  0  0  0  0  0
    0.8092    1.2861    2.0537 H   0  0  0  0  0  0  0  0  0  0  0  0
    0.0509    3.2769    1.9894 C   0  0  0  0  0  0  0  0  0  0  0  0
   -0.9494    3.5076    2.3640 H   0  0  0  0  0  0  0  0  0  0  0  0
    0.7844    3.4956    2.7668 H   0  0  0  0  0  0  0  0  0  0  0  0
    0.2468    3.9058    1.1193 H   0  0  0  0  0  0  0  0  0  0  0  0
  5  6  2  0  0  0  0
  5  7  1  0  0  0  0
  2  3  1  0  0  0  0
  2  4  1  0  0  0  0
  2  5  1  0  0  0  0
  1  2  1  0  0  0  0
 22 23  2  0  0  0  0
 22 24  1  0  0  0  0
 19 20  1  0  0  0  0
 19 21  1  0  0  0  0
 17 18  2  0  0  0  0
 17 19  1  0  0  0  0
 14 15  1  0  0  0  0
 14 16  1  0  0  0  0
 14 17  1  0  0  0  0
 11 12  1  0  0  0  0
 11 13  1  0  0  0  0
 11 14  1  0  0  0  0
  9 10  1  0  0  0  0
  9 11  1  0  0  0  0
  9 22  1  0  0  0  0
  7  8  1  0  0  0  0
  7  9  1  0  0  0  0
 26 27  1  0  0  0  0
 26 28  1  0  0  0  0
 26 29  1  0  0  0  0
 24 25  1  0  0  0  0
 24 26  1  0  0  0  0
M  END
$$$$
default_name
  -OEChem-02102213163D

 29 28  0     1  0  0  0  0  0999 V2000
   -3.3998   -3.6239    1.3678 H   0  0  0  0  0  0  0  0  0  0  0  0
   -3.3608   -2.6749    0.8348 C   0  0  0  0  0  0  0  0  0  0  0  0
   -4.0988   -1.9909    1.2498 H   0  0  0  0  0  0  0  0  0  0  0  0
   -3.5618   -2.8419   -0.2222 H   0  0  0  0  0  0  0  0  0  0  0  0
   -1.9818   -2.0809    0.9918 C   0  0  0  0  0  0  0  0  0  0  0  0
   -1.1288   -2.6669    1.6468 O   0  0  0  0  0  0  0  0  0  0  0  0
   -1.7648   -0.9089    0.3998 N   0  0  0  0  0  0  0  0  0  0  0  0
   -2.5238   -0.4719   -0.1032 H   0  0  0  0  0  0  0  0  0  0  0  0
   -0.4848   -0.1959    0.4138 C   0  0  1  0  0  0  0  0  0  0  0  0
    0.1386   -0.6144    1.2058 H   0  0  0  0  0  0  0  0  0  0  0  0
    0.2271   -0.4272   -0.9334 C   0  0  0  0  0  0  0  0  0  0  0  0
   -0.2609    0.1906   -1.6901 H   0  0  0  0  0  0  0  0  0  0  0  0
    1.2658   -0.1045   -0.8477 H   0  0  0  0  0  0  0  0  0  0  0  0
    0.1984   -1.8900   -1.4095 C   0  0  0  0  0  0  0  0  0  0  0  0
   -0.6828   -2.0574   -2.0285 H   0  0  0  0  0  0  0  0  0  0  0  0
    1.0874   -2.0843   -2.0094 H   0  0  0  0  0  0  0  0  0  0  0  0
    0.1653   -2.8963   -0.2593 C   0  0  0  0  0  0  0  0  0  0  0  0
    0.2329   -2.5755    0.9125 O   0  0  0  0  0  0  0  0  0  0  0  0
    0.0502   -4.1742   -0.5487 N   0  0  0  0  0  0  0  0  0  0  0  0
    0.0327   -4.7907    0.2451 H   0  0  0  0  0  0  0  0  0  0  0  0
   -0.0118   -4.4920   -1.4947 H   0  0  0  0  0  0  0  0  0  0  0  0
   -0.7011    1.2952    0.7149 C   0  0  0  0  0  0  0  0  0  0  0  0
   -1.5917    1.9198    0.1415 O   0  0  0  0  0  0  0  0  0  0  0  0
    0.1191    1.8675    1.6055 N   0  0  0  0  0  0  0  0  0  0  0  0
    0.8092    1.2861    2.0537 H   0  0  0  0  0  0  0  0  0  0  0  0
    0.0509    3.2769    1.9894 C   0  0  0  0  0  0  0  0  0  0  0  0
   -0.9494    3.5076    2.3640 H   0  0  0  0  0  0  0  0  0  0  0  0
    0.7844    3.4956    2.7668 H   0  0  0  0  0  0  0  0  0  0  0  0
    0.2468    3.9058    1.1193 H   0  0  0  0  0  0  0  0  0  0  0  0
  5  6  2  0  0  0  0
  5  7  1  0  0  0  0
  2  3  1  0  0  0  0
  2  4  1  0  0  0  0
  2  5  1  0  0  0  0
  1  2  1  0  0  0  0
 22 23  2  0  0  0  0
 22 24  1  0  0  0  0
 19 20  1  0  0  0  0
 19 21  1  0  0  0  0
 17 18  2  0  0  0  0
 17 19  1  0  0  0  0
 14 15  1  0  0  0  0
 14 16  1  0  0  0  0
 14 17  1  0  0  0  0
 11 12  1  0  0  0  0
 11 13  1  0  0  0  0
 11 14  1  0  0  0  0
  9 10  1  0  0  0  0
  9 11  1  0  0  0  0
  9 22  1  0  0  0  0
  7  8  1  0  0  0  0
  7  9  1  0  0  0  0
 26 27  1  0  0  0  0
 26 28  1  0  0  0  0
 26 29  1  0  0  0  0
 24 25  1  0  0  0  0
 24 26  1  0  0  0  0
M  END
$$$$
default_name
  -OEChem-02102213163D

 29 28  0     1  0  0  0  0  0999 V2000
   -3.3998   -3.6239    1.3678 H   0  0  0  0  0  0  0  0  0  0  0  0
   -3.3608   -2.6749    0.8348 C   0  0  0  0  0  0  0  0  0  0  0  0
   -4.0988   -1.9909    1.2498 H   0  0  0  0  0  0  0  0  0  0  0  0
   -3.5618   -2.8419   -0.2222 H   0  0  0  0  0  0  0  0  0  0  0  0
   -1.9818   -2.0809    0.9918 C   0  0  0  0  0  0  0  0  0  0  0  0
   -1.1288   -2.6669    1.6468 O   0  0  0  0  0  0  0  0  0  0  0  0
   -1.7648   -0.9089    0.3998 N   0  0  0  0  0  0  0  0  0  0  0  0
   -2.5238   -0.4719   -0.1032 H   0  0  0  0  0  0  0  0  0  0  0  0
   -0.4848   -0.1959    0.4138 C   0  0  1  0  0  0  0  0  0  0  0  0
    0.1386   -0.6144    1.2058 H   0  0  0  0  0  0  0  0  0  0  0  0
    0.2271   -0.4272   -0.9334 C   0  0  0  0  0  0  0  0  0  0  0  0
   -0.2609    0.1906   -1.6901 H   0  0  0  0  0  0  0  0  0  0  0  0
    1.2658   -0.1045   -0.8477 H   0  0  0  0  0  0  0  0  0  0  0  0
    0.1984   -1.8900   -1.4095 C   0  0  0  0  0  0  0  0  0  0  0  0
   -0.5140   -1.9960   -2.2273 H   0  0  0  0  0  0  0  0  0  0  0  0
    1.1890   -2.1632   -1.7730 H   0  0  0  0  0  0  0  0  0  0  0  0
   -0.1975   -2.8733   -0.3081 C   0  0  0  0  0  0  0  0  0  0  0  0
   -0.3945   -2.5415    0.8459 O   0  0  0  0  0  0  0  0  0  0  0  0
   -0.3407   -4.1422   -0.6236 N   0  0  0  0  0  0  0  0  0  0  0  0
   -0.6025   -4.7434    0.1383 H   0  0  0  0  0  0  0  0  0  0  0  0
   -0.1936   -4.4680   -1.5574 H   0  0  0  0  0  0  0  0  0  0  0  0
   -0.7011    1.2952    0.7149 C   0  0  0  0  0  0  0  0  0  0  0  0
   -1.5917    1.9198    0.1415 O   0  0  0  0  0  0  0  0  0  0  0  0
    0.1191    1.8675    1.6055 N   0  0  0  0  0  0  0  0  0  0  0  0
    0.8092    1.2861    2.0537 H   0  0  0  0  0  0  0  0  0  0  0  0
    0.0509    3.2769    1.9894 C   0  0  0  0  0  0  0  0  0  0  0  0
   -0.9494    3.5076    2.3640 H   0  0  0  0  0  0  0  0  0  0  0  0
    0.7844    3.4956    2.7668 H   0  0  0  0  0  0  0  0  0  0  0  0
    0.2468    3.9058    1.1193 H   0  0  0  0  0  0  0  0  0  0  0  0
  5  6  2  0  0  0  0
  5  7  1  0  0  0  0
  2  3  1  0  0  0  0
  2  4  1  0  0  0  0
  2  5  1  0  0  0  0
  1  2  1  0  0  0  0
 22 23  2  0  0  0  0
 22 24  1  0  0  0  0
 19 20  1  0  0  0  0
 19 21  1  0  0  0  0
 17 18  2  0  0  0  0
 17 19  1  0  0  0  0
 14 15  1  0  0  0  0
 14 16  1  0  0  0  0
 14 17  1  0  0  0  0
 11 12  1  0  0  0  0
 11 13  1  0  0  0  0
 11 14  1  0  0  0  0
  9 10  1  0  0  0  0
  9 11  1  0  0  0  0
  9 22  1  0  0  0  0
  7  8  1  0  0  0  0
  7  9  1  0  0  0  0
 26 27  1  0  0  0  0
 26 28  1  0  0  0  0
 26 29  1  0  0  0  0
 24 25  1  0  0  0  0
 24 26  1  0  0  0  0
M  END
$$$$
default_name
  -OEChem-02102213163D

 29 28  0     1  0  0  0  0  0999 V2000
   -3.3998   -3.6239    1.3678 H   0  0  0  0  0  0  0  0  0  0  0  0
   -3.3608   -2.6749    0.8348 C   0  0  0  0  0  0  0  0  0  0  0  0
   -4.0988   -1.9909    1.2498 H   0  0  0  0  0  0  0  0  0  0  0  0
   -3.5618   -2.8419   -0.2222 H   0  0  0  0  0  0  0  0  0  0  0  0
   -1.9818   -2.0809    0.9918 C   0  0  0  0  0  0  0  0  0  0  0  0
   -1.1288   -2.6669    1.6468 O   0  0  0  0  0  0  0  0  0  0  0  0
   -1.7648   -0.9089    0.3998 N   0  0  0  0  0  0  0  0  0  0  0  0
   -2.5238   -0.4719   -0.1032 H   0  0  0  0  0  0  0  0  0  0  0  0
   -0.4848   -0.1959    0.4138 C   0  0  1  0  0  0  0  0  0  0  0  0
    0.1386   -0.6144    1.2058 H   0  0  0  0  0  0  0  0  0  0  0  0
    0.2271   -0.4272   -0.9334 C   0  0  0  0  0  0  0  0  0  0  0  0
   -0.2609    0.1906   -1.6901 H   0  0  0  0  0  0  0  0  0  0  0  0
    1.2658   -0.1045   -0.8477 H   0  0  0  0  0  0  0  0  0  0  0  0
    0.1984   -1.8900   -1.4095 C   0  0  0  0  0  0  0  0  0  0  0  0
   -0.2972   -1.9512   -2.3781 H   0  0  0  0  0  0  0  0  0  0  0  0
    1.2226   -2.2465   -1.5193 H   0  0  0  0  0  0  0  0  0  0  0  0
   -0.5342   -2.8222   -0.4446 C   0  0  0  0  0  0  0  0  0  0  0  0
   -0.9814   -2.4588    0.6270 O   0  0  0  0  0  0  0  0  0  0  0  0
   -0.6973   -4.0803   -0.7923 N   0  0  0  0  0  0  0  0  0  0  0  0
   -1.1860   -4.6475   -0.1215 H   0  0  0  0  0  0  0  0  0  0  0  0
   -0.3519   -4.4306   -1.6627 H   0  0  0  0  0  0  0  0  0  0  0  0
   -0.7011    1.2952    0.7149 C   0  0  0  0  0  0  0  0  0  0  0  0
   -1.5917    1.9198    0.1415 O   0  0  0  0  0  0  0  0  0  0  0  0
    0.1191    1.8675    1.6055 N   0  0  0  0  0  0  0  0  0  0  0  0
    0.8092    1.2861    2.0537 H   0  0  0  0  0  0  0  0  0  0  0  0
    0.0509    3.2769    1.9894 C   0  0  0  0  0  0  0  0  0  0  0  0
   -0.9494    3.5076    2.3640 H   0  0  0  0  0  0  0  0  0  0  0  0
    0.7844    3.4956    2.7668 H   0  0  0  0  0  0  0  0  0  0  0  0
    0.2468    3.9058    1.1193 H   0  0  0  0  0  0  0  0  0  0  0  0
  5  6  2  0  0  0  0
  5  7  1  0  0  0  0
  2  3  1  0  0  0  0
  2  4  1  0  0  0  0
  2  5  1  0  0  0  0
  1  2  1  0  0  0  0
 22 23  2  0  0  0  0
 22 24  1  0  0  0  0
 19 20  1  0  0  0  0
 19 21  1  0  0  0  0
 17 18  2  0  0  0  0
 17 19  1  0  0  0  0
 14 15  1  0  0  0  0
 14 16  1  0  0  0  0
 14 17  1  0  0  0  0
 11 12  1  0  0  0  0
 11 13  1  0  0  0  0
 11 14  1  0  0  0  0
  9 10  1  0  0  0  0
  9 11  1  0  0  0  0
  9 22  1  0  0  0  0
  7  8  1  0  0  0  0
  7  9  1  0  0  0  0
 26 27  1  0  0  0  0
 26 28  1  0  0  0  0
 26 29  1  0  0  0  0
 24 25  1  0  0  0  0
 24 26  1  0  0  0  0
M  END
$$$$
default_name
  -OEChem-02102213163D

 29 28  0     1  0  0  0  0  0999 V2000
   -3.3998   -3.6239    1.3678 H   0  0  0  0  0  0  0  0  0  0  0  0
   -3.3608   -2.6749    0.8348 C   0  0  0  0  0  0  0  0  0  0  0  0
   -4.0988   -1.9909    1.2498 H   0  0  0  0  0  0  0  0  0  0  0  0
   -3.5618   -2.8419   -0.2222 H   0  0  0  0  0  0  0  0  0  0  0  0
   -1.9818   -2.0809    0.9918 C   0  0  0  0  0  0  0  0  0  0  0  0
   -1.1288   -2.6669    1.6468 O   0  0  0  0  0  0  0  0  0  0  0  0
   -1.7648   -0.9089    0.3998 N   0  0  0  0  0  0  0  0  0  0  0  0
   -2.5238   -0.4719   -0.1032 H   0  0  0  0  0  0  0  0  0  0  0  0
   -0.4848   -0.1959    0.4138 C   0  0  1  0  0  0  0  0  0  0  0  0
    0.1386   -0.6144    1.2058 H   0  0  0  0  0  0  0  0  0  0  0  0
    0.2271   -0.4272   -0.9334 C   0  0  0  0  0  0  0  0  0  0  0  0
   -0.2609    0.1906   -1.6901 H   0  0  0  0  0  0  0  0  0  0  0  0
    1.2658   -0.1045   -0.8477 H   0  0  0  0  0  0  0  0  0  0  0  0
    0.1984   -1.8900   -1.4095 C   0  0  0  0  0  0  0  0  0  0  0  0
   -0.0471   -1.9260   -2.4706 H   0  0  0  0  0  0  0  0  0  0  0  0
    1.1859   -2.3283   -1.2656 H   0  0  0  0  0  0  0  0  0  0  0  0
   -0.8217   -2.7466   -0.6596 C   0  0  0  0  0  0  0  0  0  0  0  0
   -1.4879   -2.3329    0.2708 O   0  0  0  0  0  0  0  0  0  0  0  0
   -0.9952   -3.9928   -1.0433 N   0  0  0  0  0  0  0  0  0  0  0  0
   -1.6780   -4.5093   -0.5164 H   0  0  0  0  0  0  0  0  0  0  0  0
   -0.4759   -4.3823   -1.8037 H   0  0  0  0  0  0  0  0  0  0  0  0
   -0.7011    1.2952    0.7149 C   0  0  0  0  0  0  0  0  0  0  0  0
   -1.5917    1.9198    0.1415 O   0  0  0  0  0  0  0  0  0  0  0  0
    0.1191    1.8675    1.6055 N   0  0  0  0  0  0  0  0  0  0  0  0
    0.8092    1.2861    2.0537 H   0  0  0  0  0  0  0  0  0  0  0  0
    0.0509    3.2769    1.9894 C   0  0  0  0  0  0  0  0  0  0  0  0
   -0.9494    3.5076    2.3640 H   0  0  0  0  0  0  0  0  0  0  0  0
    0.7844    3.4956    2.7668 H   0  0  0  0  0  0  0  0  0  0  0  0
    0.2468    3.9058    1.1193 H   0  0  0  0  0  0  0  0  0  0  0  0
  5  6  2  0  0  0  0
  5  7  1  0  0  0  0
  2  3  1  0  0  0  0
  2  4  1  0  0  0  0
  2  5  1  0  0  0  0
  1  2  1  0  0  0  0
 22 23  2  0  0  0  0
 22 24  1  0  0  0  0
 19 20  1  0  0  0  0
 19 21  1  0  0  0  0
 17 18  2  0  0  0  0
 17 19  1  0  0  0  0
 14 15  1  0  0  0  0
 14 16  1  0  0  0  0
 14 17  1  0  0  0  0
 11 12  1  0  0  0  0
 11 13  1  0  0  0  0
 11 14  1  0  0  0  0
  9 10  1  0  0  0  0
  9 11  1  0  0  0  0
  9 22  1  0  0  0  0
  7  8  1  0  0  0  0
  7  9  1  0  0  0  0
 26 27  1  0  0  0  0
 26 28  1  0  0  0  0
 26 29  1  0  0  0  0
 24 25  1  0  0  0  0
 24 26  1  0  0  0  0
M  END
$$$$
default_name
  -OEChem-02102213163D

 29 28  0     1  0  0  0  0  0999 V2000
   -3.3998   -3.6239    1.3678 H   0  0  0  0  0  0  0  0  0  0  0  0
   -3.3608   -2.6749    0.8348 C   0  0  0  0  0  0  0  0  0  0  0  0
   -4.0988   -1.9909    1.2498 H   0  0  0  0  0  0  0  0  0  0  0  0
   -3.5618   -2.8419   -0.2222 H   0  0  0  0  0  0  0  0  0  0  0  0
   -1.9818   -2.0809    0.9918 C   0  0  0  0  0  0  0  0  0  0  0  0
   -1.1288   -2.6669    1.6468 O   0  0  0  0  0  0  0  0  0  0  0  0
   -1.7648   -0.9089    0.3998 N   0  0  0  0  0  0  0  0  0  0  0  0
   -2.5238   -0.4719   -0.1032 H   0  0  0  0  0  0  0  0  0  0  0  0
   -0.4848   -0.1959    0.4138 C   0  0  1  0  0  0  0  0  0  0  0  0
    0.1386   -0.6144    1.2058 H   0  0  0  0  0  0  0  0  0  0  0  0
    0.2271   -0.4272   -0.9334 C   0  0  0  0  0  0  0  0  0  0  0  0
   -0.2609    0.1906   -1.6901 H   0  0  0  0  0  0  0  0  0  0  0  0
    1.2658   -0.1045   -0.8477 H   0  0  0  0  0  0  0  0  0  0  0  0
    0.1984   -1.8900   -1.4095 C   0  0  0  0  0  0  0  0  0  0  0  0
    0.2192   -1.9221   -2.4986 H   0  0  0  0  0  0  0  0  0  0  0  0
    1.0815   -2.4032   -1.0291 H   0  0  0  0  0  0  0  0  0  0  0  0
   -1.0404   -2.6516   -0.9384 C   0  0  0  0  0  0  0  0  0  0  0  0
   -1.8793   -2.1725   -0.1986 O   0  0  0  0  0  0  0  0  0  0  0  0
   -1.2143   -3.8856   -1.3594 N   0  0  0  0  0  0  0  0  0  0  0  0
   -2.0450   -4.3383   -1.0197 H   0  0  0  0  0  0  0  0  0  0  0  0
   -0.5571   -4.3264   -1.9705 H   0  0  0  0  0  0  0  0  0  0  0  0
   -0.7011    1.2952    0.7149 C   0  0  0  0  0  0  0  0  0  0  0  0
   -1.5917    1.9198    0.1415 O   0  0  0  0  0  0  0  0  0  0  0  0
    0.1191    1.8675    1.6055 N   0  0  0  0  0  0  0  0  0  0  0  0
    0.8092    1.2861    2.0537 H   0  0  0  0  0  0  0  0  0  0  0  0
    0.0509    3.2769    1.9894 C   0  0  0  0  0  0  0  0  0  0  0  0
   -0.9494    3.5076    2.3640 H   0  0  0  0  0  0  0  0  0  0  0  0
    0.7844    3.4956    2.7668 H   0  0  0  0  0  0  0  0  0  0  0  0
    0.2468    3.9058    1.1193 H   0  0  0  0  0  0  0  0  0  0  0  0
  5  6  2  0  0  0  0
  5  7  1  0  0  0  0
  2  3  1  0  0  0  0
  2  4  1  0  0  0  0
  2  5  1  0  0  0  0
  1  2  1  0  0  0  0
 22 23  2  0  0  0  0
 22 24  1  0  0  0  0
 19 20  1  0  0  0  0
 19 21  1  0  0  0  0
 17 18  2  0  0  0  0
 17 19  1  0  0  0  0
 14 15  1  0  0  0  0
 14 16  1  0  0  0  0
 14 17  1  0  0  0  0
 11 12  1  0  0  0  0
 11 13  1  0  0  0  0
 11 14  1  0  0  0  0
  9 10  1  0  0  0  0
  9 11  1  0  0  0  0
  9 22  1  0  0  0  0
  7  8  1  0  0  0  0
  7  9  1  0  0  0  0
 26 27  1  0  0  0  0
 26 28  1  0  0  0  0
 26 29  1  0  0  0  0
 24 25  1  0  0  0  0
 24 26  1  0  0  0  0
M  END
$$$$
default_name
  -OEChem-02102213163D

 29 28  0     1  0  0  0  0  0999 V2000
   -3.3998   -3.6239    1.3678 H   0  0  0  0  0  0  0  0  0  0  0  0
   -3.3608   -2.6749    0.8348 C   0  0  0  0  0  0  0  0  0  0  0  0
   -4.0988   -1.9909    1.2498 H   0  0  0  0  0  0  0  0  0  0  0  0
   -3.5618   -2.8419   -0.2222 H   0  0  0  0  0  0  0  0  0  0  0  0
   -1.9818   -2.0809    0.9918 C   0  0  0  0  0  0  0  0  0  0  0  0
   -1.1288   -2.6669    1.6468 O   0  0  0  0  0  0  0  0  0  0  0  0
   -1.7648   -0.9089    0.3998 N   0  0  0  0  0  0  0  0  0  0  0  0
   -2.5238   -0.4719   -0.1032 H   0  0  0  0  0  0  0  0  0  0  0  0
   -0.4848   -0.1959    0.4138 C   0  0  1  0  0  0  0  0  0  0  0  0
    0.1386   -0.6144    1.2058 H   0  0  0  0  0  0  0  0  0  0  0  0
    0.2271   -0.4272   -0.9334 C   0  0  0  0  0  0  0  0  0  0  0  0
   -0.2609    0.1906   -1.6901 H   0  0  0  0  0  0  0  0  0  0  0  0
    1.2658   -0.1045   -0.8477 H   0  0  0  0  0  0  0  0  0  0  0  0
    0.1984   -1.8900   -1.4095 C   0  0  0  0  0  0  0  0  0  0  0  0
    0.4837   -1.9398   -2.4601 H   0  0  0  0  0  0  0  0  0  0  0  0
    0.9165   -2.4661   -0.8260 H   0  0  0  0  0  0  0  0  0  0  0  0
   -1.1755   -2.5436   -1.2620 C   0  0  0  0  0  0  0  0  0  0  0  0
   -2.1290   -1.9884   -0.7490 O   0  0  0  0  0  0  0  0  0  0  0  0
   -1.3395   -3.7660   -1.7192 N   0  0  0  0  0  0  0  0  0  0  0  0
   -2.2620   -4.1462   -1.5969 H   0  0  0  0  0  0  0  0  0  0  0  0
   -0.5900   -4.2667   -2.1519 H   0  0  0  0  0  0  0  0  0  0  0  0
   -0.7011    1.2952    0.7149 C   0  0  0  0  0  0  0  0  0  0  0  0
   -1.5917    1.9198    0.1415 O   0  0  0  0  0  0  0  0  0  0  0  0
    0.1191    1.8675    1.6055 N   0  0  0  0  0  0  0  0  0  0  0  0
    0.8092    1.2861    2.0537 H   0  0  0  0  0  0  0  0  0  0  0  0
    0.0509    3.2769    1.9894 C   0  0  0  0  0  0  0  0  0  0  0  0
   -0.9494    3.5076    2.3640 H   0  0  0  0  0  0  0  0  0  0  0  0
    0.7844    3.4956    2.7668 H   0  0  0  0  0  0  0  0  0  0  0  0
    0.2468    3.9058    1.1193 H   0  0  0  0  0  0  0  0  0  0  0  0
  5  6  2  0  0  0  0
  5  7  1  0  0  0  0
  2  3  1  0  0  0  0
  2  4  1  0  0  0  0
  2  5  1  0  0  0  0
  1  2  1  0  0  0  0
 22 23  2  0  0  0  0
 22 24  1  0  0  0  0
 19 20  1  0  0  0  0
 19 21  1  0  0  0  0
 17 18  2  0  0  0  0
 17 19  1  0  0  0  0
 14 15  1  0  0  0  0
 14 16  1  0  0  0  0
 14 17  1  0  0  0  0
 11 12  1  0  0  0  0
 11 13  1  0  0  0  0
 11 14  1  0  0  0  0
  9 10  1  0  0  0  0
  9 11  1  0  0  0  0
  9 22  1  0  0  0  0
  7  8  1  0  0  0  0
  7  9  1  0  0  0  0
 26 27  1  0  0  0  0
 26 28  1  0  0  0  0
 26 29  1  0  0  0  0
 24 25  1  0  0  0  0
 24 26  1  0  0  0  0
M  END
$$$$
default_name
  -OEChem-02102213163D

 29 28  0     1  0  0  0  0  0999 V2000
   -3.3998   -3.6239    1.3678 H   0  0  0  0  0  0  0  0  0  0  0  0
   -3.3608   -2.6749    0.8348 C   0  0  0  0  0  0  0  0  0  0  0  0
   -4.0988   -1.9909    1.2498 H   0  0  0  0  0  0  0  0  0  0  0  0
   -3.5618   -2.8419   -0.2222 H   0  0  0  0  0  0  0  0  0  0  0  0
   -1.9818   -2.0809    0.9918 C   0  0  0  0  0  0  0  0  0  0  0  0
   -1.1288   -2.6669    1.6468 O   0  0  0  0  0  0  0  0  0  0  0  0
   -1.7648   -0.9089    0.3998 N   0  0  0  0  0  0  0  0  0  0  0  0
   -2.5238   -0.4719   -0.1032 H   0  0  0  0  0  0  0  0  0  0  0  0
   -0.4848   -0.1959    0.4138 C   0  0  1  0  0  0  0  0  0  0  0  0
    0.1386   -0.6144    1.2058 H   0  0  0  0  0  0  0  0  0  0  0  0
    0.2271   -0.4272   -0.9334 C   0  0  0  0  0  0  0  0  0  0  0  0
   -0.2609    0.1906   -1.6901 H   0  0  0  0  0  0  0  0  0  0  0  0
    1.2658   -0.1045   -0.8477 H   0  0  0  0  0  0  0  0  0  0  0  0
    0.1984   -1.8900   -1.4095 C   0  0  0  0  0  0  0  0  0  0  0  0
    0.7283   -1.9779   -2.3577 H   0  0  0  0  0  0  0  0  0  0  0  0
    0.7021   -2.5126   -0.6701 H   0  0  0  0  0  0  0  0  0  0  0  0
   -1.2177   -2.4301   -1.6082 C   0  0  0  0  0  0  0  0  0  0  0  0
   -2.2201   -1.7933   -1.3431 O   0  0  0  0  0  0  0  0  0  0  0  0
   -1.3623   -3.6423   -2.0982 N   0  0  0  0  0  0  0  0  0  0  0  0
   -2.3142   -3.9460   -2.2087 H   0  0  0  0  0  0  0  0  0  0  0  0
   -0.5724   -4.2073   -2.3356 H   0  0  0  0  0  0  0  0  0  0  0  0
   -0.7011    1.2952    0.7149 C   0  0  0  0  0  0  0  0  0  0  0  0
   -1.5917    1.9198    0.1415 O   0  0  0  0  0  0  0  0  0  0  0  0
    0.1191    1.8675    1.6055 N   0  0  0  0  0  0  0  0  0  0  0  0
    0.8092    1.2861    2.0537 H   0  0  0  0  0  0  0  0  0  0  0  0
    0.0509    3.2769    1.9894 C   0  0  0  0  0  0  0  0  0  0  0  0
   -0.9494    3.5076    2.3640 H   0  0  0  0  0  0  0  0  0  0  0  0
    0.7844    3.4956    2.7668 H   0  0  0  0  0  0  0  0  0  0  0  0
    0.2468    3.9058    1.1193 H   0  0  0  0  0  0  0  0  0  0  0  0
  5  6  2  0  0  0  0
  5  7  1  0  0  0  0
  2  3  1  0  0  0  0
  2  4  1  0  0  0  0
  2  5  1  0  0  0  0
  1  2  1  0  0  0  0
 22 23  2  0  0  0  0
 22 24  1  0  0  0  0
 19 20  1  0  0  0  0
 19 21  1  0  0  0  0
 17 18  2  0  0  0  0
 17 19  1  0  0  0  0
 14 15  1  0  0  0  0
 14 16  1  0  0  0  0
 14 17  1  0  0  0  0
 11 12  1  0  0  0  0
 11 13  1  0  0  0  0
 11 14  1  0  0  0  0
  9 10  1  0  0  0  0
  9 11  1  0  0  0  0
  9 22  1  0  0  0  0
  7  8  1  0  0  0  0
  7  9  1  0  0  0  0
 26 27  1  0  0  0  0
 26 28  1  0  0  0  0
 26 29  1  0  0  0  0
 24 25  1  0  0  0  0
 24 26  1  0  0  0  0
M  END
$$$$
default_name
  -OEChem-02102213163D

 29 28  0     1  0  0  0  0  0999 V2000
   -3.3998   -3.6239    1.3678 H   0  0  0  0  0  0  0  0  0  0  0  0
   -3.3608   -2.6749    0.8348 C   0  0  0  0  0  0  0  0  0  0  0  0
   -4.0988   -1.9909    1.2498 H   0  0  0  0  0  0  0  0  0  0  0  0
   -3.5618   -2.8419   -0.2222 H   0  0  0  0  0  0  0  0  0  0  0  0
   -1.9818   -2.0809    0.9918 C   0  0  0  0  0  0  0  0  0  0  0  0
   -1.1288   -2.6669    1.6468 O   0  0  0  0  0  0  0  0  0  0  0  0
   -1.7648   -0.9089    0.3998 N   0  0  0  0  0  0  0  0  0  0  0  0
   -2.5238   -0.4719   -0.1032 H   0  0  0  0  0  0  0  0  0  0  0  0
   -0.4848   -0.1959    0.4138 C   0  0  1  0  0  0  0  0  0  0  0  0
    0.1386   -0.6144    1.2058 H   0  0  0  0  0  0  0  0  0  0  0  0
    0.2271   -0.4272   -0.9334 C   0  0  0  0  0  0  0  0  0  0  0  0
   -0.2609    0.1906   -1.6901 H   0  0  0  0  0  0  0  0  0  0  0  0
    1.2658   -0.1045   -0.8477 H   0  0  0  0  0  0  0  0  0  0  0  0
    0.1984   -1.8900   -1.4095 C   0  0  0  0  0  0  0  0  0  0  0  0
    0.9363   -2.0339   -2.1984 H   0  0  0  0  0  0  0  0  0  0  0  0
    0.4529   -2.5396   -0.5721 H   0  0  0  0  0  0  0  0  0  0  0  0
   -1.1642   -2.3188   -1.9537 C   0  0  0  0  0  0  0  0  0  0  0  0
   -2.1462   -1.6004   -1.9402 O   0  0  0  0  0  0  0  0  0  0  0  0
   -1.2812   -3.5227   -2.4704 N   0  0  0  0  0  0  0  0  0  0  0  0
   -2.1979   -3.7515   -2.8136 H   0  0  0  0  0  0  0  0  0  0  0  0
   -0.5054   -4.1522   -2.5089 H   0  0  0  0  0  0  0  0  0  0  0  0
   -0.7011    1.2952    0.7149 C   0  0  0  0  0  0  0  0  0  0  0  0
   -1.5917    1.9198    0.1415 O   0  0  0  0  0  0  0  0  0  0  0  0
    0.1191    1.8675    1.6055 N   0  0  0  0  0  0  0  0  0  0  0  0
    0.8092    1.2861    2.0537 H   0  0  0  0  0  0  0  0  0  0  0  0
    0.0509    3.2769    1.9894 C   0  0  0  0  0  0  0  0  0  0  0  0
   -0.9494    3.5076    2.3640 H   0  0  0  0  0  0  0  0  0  0  0  0
    0.7844    3.4956    2.7668 H   0  0  0  0  0  0  0  0  0  0  0  0
    0.2468    3.9058    1.1193 H   0  0  0  0  0  0  0  0  0  0  0  0
  5  6  2  0  0  0  0
  5  7  1  0  0  0  0
  2  3  1  0  0  0  0
  2  4  1  0  0  0  0
  2  5  1  0  0  0  0
  1  2  1  0  0  0  0
 22 23  2  0  0  0  0
 22 24  1  0  0  0  0
 19 20  1  0  0  0  0
 19 21  1  0  0  0  0
 17 18  2  0  0  0  0
 17 19  1  0  0  0  0
 14 15  1  0  0  0  0
 14 16  1  0  0  0  0
 14 17  1  0  0  0  0
 11 12  1  0  0  0  0
 11 13  1  0  0  0  0
 11 14  1  0  0  0  0
  9 10  1  0  0  0  0
  9 11  1  0  0  0  0
  9 22  1  0  0  0  0
  7  8  1  0  0  0  0
  7  9  1  0  0  0  0
 26 27  1  0  0  0  0
 26 28  1  0  0  0  0
 26 29  1  0  0  0  0
 24 25  1  0  0  0  0
 24 26  1  0  0  0  0
M  END
$$$$
default_name
  -OEChem-02102213163D

 29 28  0     1  0  0  0  0  0999 V2000
   -3.3998   -3.6239    1.3678 H   0  0  0  0  0  0  0  0  0  0  0  0
   -3.3608   -2.6749    0.8348 C   0  0  0  0  0  0  0  0  0  0  0  0
   -4.0988   -1.9909    1.2498 H   0  0  0  0  0  0  0  0  0  0  0  0
   -3.5618   -2.8419   -0.2222 H   0  0  0  0  0  0  0  0  0  0  0  0
   -1.9818   -2.0809    0.9918 C   0  0  0  0  0  0  0  0  0  0  0  0
   -1.1288   -2.6669    1.6468 O   0  0  0  0  0  0  0  0  0  0  0  0
   -1.7648   -0.9089    0.3998 N   0  0  0  0  0  0  0  0  0  0  0  0
   -2.5238   -0.4719   -0.1032 H   0  0  0  0  0  0  0  0  0  0  0  0
   -0.4848   -0.1959    0.4138 C   0  0  1  0  0  0  0  0  0  0  0  0
    0.1386   -0.6144    1.2058 H   0  0  0  0  0  0  0  0  0  0  0  0
    0.2271   -0.4272   -0.9334 C   0  0  0  0  0  0  0  0  0  0  0  0
   -0.2609    0.1906   -1.6901 H   0  0  0  0  0  0  0  0  0  0  0  0
    1.2658   -0.1045   -0.8477 H   0  0  0  0  0  0  0  0  0  0  0  0
    0.1984   -1.8900   -1.4095 C   0  0  0  0  0  0  0  0  0  0  0  0
    1.0936   -2.1037   -1.9932 H   0  0  0  0  0  0  0  0  0  0  0  0
    0.1859   -2.5453   -0.5386 H   0  0  0  0  0  0  0  0  0  0  0  0
   -1.0186   -2.2171   -2.2747 C   0  0  0  0  0  0  0  0  0  0  0  0
   -1.9125   -1.4229   -2.4998 O   0  0  0  0  0  0  0  0  0  0  0  0
   -1.1017   -3.4155   -2.8106 N   0  0  0  0  0  0  0  0  0  0  0  0
   -1.9213   -3.5758   -3.3701 H   0  0  0  0  0  0  0  0  0  0  0  0
   -0.3936   -4.1052   -2.6601 H   0  0  0  0  0  0  0  0  0  0  0  0
   -0.7011    1.2952    0.7149 C   0  0  0  0  0  0  0  0  0  0  0  0
   -1.5917    1.9198    0.1415 O   0  0  0  0  0  0  0  0  0  0  0  0
    0.1191    1.8675    1.6055 N   0  0  0  0  0  0  0  0  0  0  0  0
    0.8092    1.2861    2.0537 H   0  0  0  0  0  0  0  0  0  0  0  0
    0.0509    3.2769    1.9894 C   0  0  0  0  0  0  0  0  0  0  0  0
   -0.9494    3.5076    2.3640 H   0  0  0  0  0  0  0  0  0  0  0  0
    0.7844    3.4956    2.7668 H   0  0  0  0  0  0  0  0  0  0  0  0
    0.2468    3.9058    1.1193 H   0  0  0  0  0  0  0  0  0  0  0  0
  5  6  2  0  0  0  0
  5  7  1  0  0  0  0
  2  3  1  0  0  0  0
  2  4  1  0  0  0  0
  2  5  1  0  0  0  0
  1  2  1  0  0  0  0
 22 23  2  0  0  0  0
 22 24  1  0  0  0  0
 19 20  1  0  0  0  0
 19 21  1  0  0  0  0
 17 18  2  0  0  0  0
 17 19  1  0  0  0  0
 14 15  1  0  0  0  0
 14 16  1  0  0  0  0
 14 17  1  0  0  0  0
 11 12  1  0  0  0  0
 11 13  1  0  0  0  0
 11 14  1  0  0  0  0
  9 10  1  0  0  0  0
  9 11  1  0  0  0  0
  9 22  1  0  0  0  0
  7  8  1  0  0  0  0
  7  9  1  0  0  0  0
 26 27  1  0  0  0  0
 26 28  1  0  0  0  0
 26 29  1  0  0  0  0
 24 25  1  0  0  0  0
 24 26  1  0  0  0  0
M  END
$$$$
default_name
  -OEChem-02102213163D

 29 28  0     1  0  0  0  0  0999 V2000
   -3.3998   -3.6239    1.3678 H   0  0  0  0  0  0  0  0  0  0  0  0
   -3.3608   -2.6749    0.8348 C   0  0  0  0  0  0  0  0  0  0  0  0
   -4.0988   -1.9909    1.2498 H   0  0  0  0  0  0  0  0  0  0  0  0
   -3.5618   -2.8419   -0.2222 H   0  0  0  0  0  0  0  0  0  0  0  0
   -1.9818   -2.0809    0.9918 C   0  0  0  0  0  0  0  0  0  0  0  0
   -1.1288   -2.6669    1.6468 O   0  0  0  0  0  0  0  0  0  0  0  0
   -1.7648   -0.9089    0.3998 N   0  0  0  0  0  0  0  0  0  0  0  0
   -2.5238   -0.4719   -0.1032 H   0  0  0  0  0  0  0  0  0  0  0  0
   -0.4848   -0.1959    0.4138 C   0  0  1  0  0  0  0  0  0  0  0  0
    0.1386   -0.6144    1.2058 H   0  0  0  0  0  0  0  0  0  0  0  0
    0.2271   -0.4272   -0.9334 C   0  0  0  0  0  0  0  0  0  0  0  0
   -0.2609    0.1906   -1.6901 H   0  0  0  0  0  0  0  0  0  0  0  0
    1.2658   -0.1045   -0.8477 H   0  0  0  0  0  0  0  0  0  0  0  0
    0.1984   -1.8900   -1.4095 C   0  0  0  0  0  0  0  0  0  0  0  0
    1.1893   -2.1829   -1.7558 H   0  0  0  0  0  0  0  0  0  0  0  0
   -0.0806   -2.5292   -0.5719 H   0  0  0  0  0  0  0  0  0  0  0  0
   -0.7908   -2.1322   -2.5494 C   0  0  0  0  0  0  0  0  0  0  0  0
   -1.5349   -1.2729   -2.9836 O   0  0  0  0  0  0  0  0  0  0  0  0
   -0.8360   -3.3280   -3.0955 N   0  0  0  0  0  0  0  0  0  0  0  0
   -1.5030   -3.4309   -3.8405 H   0  0  0  0  0  0  0  0  0  0  0  0
   -0.2447   -4.0695   -2.7788 H   0  0  0  0  0  0  0  0  0  0  0  0
   -0.7011    1.2952    0.7149 C   0  0  0  0  0  0  0  0  0  0  0  0
   -1.5917    1.9198    0.1415 O   0  0  0  0  0  0  0  0  0  0  0  0
    0.1191    1.8675    1.6055 N   0  0  0  0  0  0  0  0  0  0  0  0
    0.8092    1.2861    2.0537 H   0  0  0  0  0  0  0  0  0  0  0  0
    0.0509    3.2769    1.9894 C   0  0  0  0  0  0  0  0  0  0  0  0
   -0.9494    3.5076    2.3640 H   0  0  0  0  0  0  0  0  0  0  0  0
    0.7844    3.4956    2.7668 H   0  0  0  0  0  0  0  0  0  0  0  0
    0.2468    3.9058    1.1193 H   0  0  0  0  0  0  0  0  0  0  0  0
  5  6  2  0  0  0  0
  5  7  1  0  0  0  0
  2  3  1  0  0  0  0
  2  4  1  0  0  0  0
  2  5  1  0  0  0  0
  1  2  1  0  0  0  0
 22 23  2  0  0  0  0
 22 24  1  0  0  0  0
 19 20  1  0  0  0  0
 19 21  1  0  0  0  0
 17 18  2  0  0  0  0
 17 19  1  0  0  0  0
 14 15  1  0  0  0  0
 14 16  1  0  0  0  0
 14 17  1  0  0  0  0
 11 12  1  0  0  0  0
 11 13  1  0  0  0  0
 11 14  1  0  0  0  0
  9 10  1  0  0  0  0
  9 11  1  0  0  0  0
  9 22  1  0  0  0  0
  7  8  1  0  0  0  0
  7  9  1  0  0  0  0
 26 27  1  0  0  0  0
 26 28  1  0  0  0  0
 26 29  1  0  0  0  0
 24 25  1  0  0  0  0
 24 26  1  0  0  0  0
M  END
$$$$
default_name
  -OEChem-02102213163D

 29 28  0     1  0  0  0  0  0999 V2000
   -3.3998   -3.6239    1.3678 H   0  0  0  0  0  0  0  0  0  0  0  0
   -3.3608   -2.6749    0.8348 C   0  0  0  0  0  0  0  0  0  0  0  0
   -4.0988   -1.9909    1.2498 H   0  0  0  0  0  0  0  0  0  0  0  0
   -3.5618   -2.8419   -0.2222 H   0  0  0  0  0  0  0  0  0  0  0  0
   -1.9818   -2.0809    0.9918 C   0  0  0  0  0  0  0  0  0  0  0  0
   -1.1288   -2.6669    1.6468 O   0  0  0  0  0  0  0  0  0  0  0  0
   -1.7648   -0.9089    0.3998 N   0  0  0  0  0  0  0  0  0  0  0  0
   -2.5238   -0.4719   -0.1032 H   0  0  0  0  0  0  0  0  0  0  0  0
   -0.4848   -0.1959    0.4138 C   0  0  1  0  0  0  0  0  0  0  0  0
    0.1386   -0.6144    1.2058 H   0  0  0  0  0  0  0  0  0  0  0  0
    0.2271   -0.4272   -0.9334 C   0  0  0  0  0  0  0  0  0  0  0  0
   -0.2609    0.1906   -1.6901 H   0  0  0  0  0  0  0  0  0  0  0  0
    1.2658   -0.1045   -0.8477 H   0  0  0  0  0  0  0  0  0  0  0  0
    0.1984   -1.8900   -1.4095 C   0  0  0  0  0  0  0  0  0  0  0  0
    1.2171   -2.2658   -1.5027 H   0  0  0  0  0  0  0  0  0  0  0  0
   -0.3287   -2.4925   -0.6697 H   0  0  0  0  0  0  0  0  0  0  0  0
   -0.4963   -2.0697   -2.7592 C   0  0  0  0  0  0  0  0  0  0  0  0
   -1.0390   -1.1605   -3.3587 O   0  0  0  0  0  0  0  0  0  0  0  0
   -0.5022   -3.2661   -3.3058 N   0  0  0  0  0  0  0  0  0  0  0  0
   -0.9717   -3.3268   -4.1926 H   0  0  0  0  0  0  0  0  0  0  0  0
   -0.0688   -4.0475   -2.8571 H   0  0  0  0  0  0  0  0  0  0  0  0
   -0.7011    1.2952    0.7149 C   0  0  0  0  0  0  0  0  0  0  0  0
   -1.5917    1.9198    0.1415 O   0  0  0  0  0  0  0  0  0  0  0  0
    0.1191    1.8675    1.6055 N   0  0  0  0  0  0  0  0  0  0  0  0
    0.8092    1.2861    2.0537 H   0  0  0  0  0  0  0  0  0  0  0  0
    0.0509    3.2769    1.9894 C   0  0  0  0  0  0  0  0  0  0  0  0
   -0.9494    3.5076    2.3640 H   0  0  0  0  0  0  0  0  0  0  0  0
    0.7844    3.4956    2.7668 H   0  0  0  0  0  0  0  0  0  0  0  0
    0.2468    3.9058    1.1193 H   0  0  0  0  0  0  0  0  0  0  0  0
  5  6  2  0  0  0  0
  5  7  1  0  0  0  0
  2  3  1  0  0  0  0
  2  4  1  0  0  0  0
  2  5  1  0  0  0  0
  1  2  1  0  0  0  0
 22 23  2  0  0  0  0
 22 24  1  0  0  0  0
 19 20  1  0  0  0  0
 19 21  1  0  0  0  0
 17 18  2  0  0  0  0
 17 19  1  0  0  0  0
 14 15  1  0  0  0  0
 14 16  1  0  0  0  0
 14 17  1  0  0  0  0
 11 12  1  0  0  0  0
 11 13  1  0  0  0  0
 11 14  1  0  0  0  0
  9 10  1  0  0  0  0
  9 11  1  0  0  0  0
  9 22  1  0  0  0  0
  7  8  1  0  0  0  0
  7  9  1  0  0  0  0
 26 27  1  0  0  0  0
 26 28  1  0  0  0  0
 26 29  1  0  0  0  0
 24 25  1  0  0  0  0
 24 26  1  0  0  0  0
M  END
$$$$
default_name
  -OEChem-02102213163D

 29 28  0     1  0  0  0  0  0999 V2000
   -3.3998   -3.6239    1.3678 H   0  0  0  0  0  0  0  0  0  0  0  0
   -3.3608   -2.6749    0.8348 C   0  0  0  0  0  0  0  0  0  0  0  0
   -4.0988   -1.9909    1.2498 H   0  0  0  0  0  0  0  0  0  0  0  0
   -3.5618   -2.8419   -0.2222 H   0  0  0  0  0  0  0  0  0  0  0  0
   -1.9818   -2.0809    0.9918 C   0  0  0  0  0  0  0  0  0  0  0  0
   -1.1288   -2.6669    1.6468 O   0  0  0  0  0  0  0  0  0  0  0  0
   -1.7648   -0.9089    0.3998 N   0  0  0  0  0  0  0  0  0  0  0  0
   -2.5238   -0.4719   -0.1032 H   0  0  0  0  0  0  0  0  0  0  0  0
   -0.4848   -0.1959    0.4138 C   0  0  1  0  0  0  0  0  0  0  0  0
    0.1386   -0.6144    1.2058 H   0  0  0  0  0  0  0  0  0  0  0  0
    0.2271   -0.4272   -0.9334 C   0  0  0  0  0  0  0  0  0  0  0  0
   -0.2609    0.1906   -1.6901 H   0  0  0  0  0  0  0  0  0  0  0  0
    1.2658   -0.1045   -0.8477 H   0  0  0  0  0  0  0  0  0  0  0  0
    0.1984   -1.8900   -1.4095 C   0  0  0  0  0  0  0  0  0  0  0  0
    1.1750   -2.3469   -1.2509 H   0  0  0  0  0  0  0  0  0  0  0  0
   -0.5412   -2.4377   -0.8255 H   0  0  0  0  0  0  0  0  0  0  0  0
   -0.1553   -2.0340   -2.8896 C   0  0  0  0  0  0  0  0  0  0  0  0
   -0.4587   -1.0935   -3.5996 O   0  0  0  0  0  0  0  0  0  0  0  0
   -0.1232   -3.2341   -3.4270 N   0  0  0  0  0  0  0  0  0  0  0  0
   -0.3635   -3.2704   -4.4024 H   0  0  0  0  0  0  0  0  0  0  0  0
    0.1222   -4.0407   -2.8895 H   0  0  0  0  0  0  0  0  0  0  0  0
   -0.7011    1.2952    0.7149 C   0  0  0  0  0  0  0  0  0  0  0  0
   -1.5917    1.9198    0.1415 O   0  0  0  0  0  0  0  0  0  0  0  0
    0.1191    1.8675    1.6055 N   0  0  0  0  0  0  0  0  0  0  0  0
    0.8092    1.2861    2.0537 H   0  0  0  0  0  0  0  0  0  0  0  0
    0.0509    3.2769    1.9894 C   0  0  0  0  0  0  0  0  0  0  0  0
   -0.9494    3.5076    2.3640 H   0  0  0  0  0  0  0  0  0  0  0  0
    0.7844    3.4956    2.7668 H   0  0  0  0  0  0  0  0  0  0  0  0
    0.2468    3.9058    1.1193 H   0  0  0  0  0  0  0  0  0  0  0  0
  5  6  2  0  0  0  0
  5  7  1  0  0  0  0
  2  3  1  0  0  0  0
  2  4  1  0  0  0  0
  2  5  1  0  0  0  0
  1  2  1  0  0  0  0
 22 23  2  0  0  0  0
 22 24  1  0  0  0  0
 19 20  1  0  0  0  0
 19 21  1  0  0  0  0
 17 18  2  0  0  0  0
 17 19  1  0  0  0  0
 14 15  1  0  0  0  0
 14 16  1  0  0  0  0
 14 17  1  0  0  0  0
 11 12  1  0  0  0  0
 11 13  1  0  0  0  0
 11 14  1  0  0  0  0
  9 10  1  0  0  0  0
  9 11  1  0  0  0  0
  9 22  1  0  0  0  0
  7  8  1  0  0  0  0
  7  9  1  0  0  0  0
 26 27  1  0  0  0  0
 26 28  1  0  0  0  0
 26 29  1  0  0  0  0
 24 25  1  0  0  0  0
 24 26  1  0  0  0  0
M  END
$$$$
default_name
  -OEChem-02102213163D

 29 28  0     1  0  0  0  0  0999 V2000
   -3.3998   -3.6239    1.3678 H   0  0  0  0  0  0  0  0  0  0  0  0
   -3.3608   -2.6749    0.8348 C   0  0  0  0  0  0  0  0  0  0  0  0
   -4.0988   -1.9909    1.2498 H   0  0  0  0  0  0  0  0  0  0  0  0
   -3.5618   -2.8419   -0.2222 H   0  0  0  0  0  0  0  0  0  0  0  0
   -1.9818   -2.0809    0.9918 C   0  0  0  0  0  0  0  0  0  0  0  0
   -1.1288   -2.6669    1.6468 O   0  0  0  0  0  0  0  0  0  0  0  0
   -1.7648   -0.9089    0.3998 N   0  0  0  0  0  0  0  0  0  0  0  0
   -2.5238   -0.4719   -0.1032 H   0  0  0  0  0  0  0  0  0  0  0  0
   -0.4848   -0.1959    0.4138 C   0  0  1  0  0  0  0  0  0  0  0  0
    0.1386   -0.6144    1.2058 H   0  0  0  0  0  0  0  0  0  0  0  0
    0.2271   -0.4272   -0.9334 C   0  0  0  0  0  0  0  0  0  0  0  0
   -0.2609    0.1906   -1.6901 H   0  0  0  0  0  0  0  0  0  0  0  0
    1.2658   -0.1045   -0.8477 H   0  0  0  0  0  0  0  0  0  0  0  0
    0.1984   -1.8900   -1.4095 C   0  0  0  0  0  0  0  0  0  0  0  0
    1.0659   -2.4207   -1.0176 H   0  0  0  0  0  0  0  0  0  0  0  0
   -0.7038   -2.3684   -1.0284 H   0  0  0  0  0  0  0  0  0  0  0  0
    0.2090   -2.0274   -2.9319 C   0  0  0  0  0  0  0  0  0  0  0  0
    0.1664   -1.0764   -3.6898 O   0  0  0  0  0  0  0  0  0  0  0  0
    0.2754   -3.2341   -3.4510 N   0  0  0  0  0  0  0  0  0  0  0  0
    0.2802   -3.2657   -4.4558 H   0  0  0  0  0  0  0  0  0  0  0  0
    0.3152   -4.0496   -2.8738 H   0  0  0  0  0  0  0  0  0  0  0  0
   -0.7011    1.2952    0.7149 C   0  0  0  0  0  0  0  0  0  0  0  0
   -1.5917    1.9198    0.1415 O   0  0  0  0  0  0  0  0  0  0  0  0
    0.1191    1.8675    1.6055 N   0  0  0  0  0  0  0  0  0  0  0  0
    0.8092    1.2861    2.0537 H   0  0  0  0  0  0  0  0  0  0  0  0
    0.0509    3.2769    1.9894 C   0  0  0  0  0  0  0  0  0  0  0  0
   -0.9494    3.5076    2.3640 H   0  0  0  0  0  0  0  0  0  0  0  0
    0.7844    3.4956    2.7668 H   0  0  0  0  0  0  0  0  0  0  0  0
    0.2468    3.9058    1.1193 H   0  0  0  0  0  0  0  0  0  0  0  0
  5  6  2  0  0  0  0
  5  7  1  0  0  0  0
  2  3  1  0  0  0  0
  2  4  1  0  0  0  0
  2  5  1  0  0  0  0
  1  2  1  0  0  0  0
 22 23  2  0  0  0  0
 22 24  1  0  0  0  0
 19 20  1  0  0  0  0
 19 21  1  0  0  0  0
 17 18  2  0  0  0  0
 17 19  1  0  0  0  0
 14 15  1  0  0  0  0
 14 16  1  0  0  0  0
 14 17  1  0  0  0  0
 11 12  1  0  0  0  0
 11 13  1  0  0  0  0
 11 14  1  0  0  0  0
  9 10  1  0  0  0  0
  9 11  1  0  0  0  0
  9 22  1  0  0  0  0
  7  8  1  0  0  0  0
  7  9  1  0  0  0  0
 26 27  1  0  0  0  0
 26 28  1  0  0  0  0
 26 29  1  0  0  0  0
 24 25  1  0  0  0  0
 24 26  1  0  0  0  0
M  END
$$$$
default_name
  -OEChem-02102213163D

 29 28  0     1  0  0  0  0  0999 V2000
   -3.3998   -3.6239    1.3678 H   0  0  0  0  0  0  0  0  0  0  0  0
   -3.3608   -2.6749    0.8348 C   0  0  0  0  0  0  0  0  0  0  0  0
   -4.0988   -1.9909    1.2498 H   0  0  0  0  0  0  0  0  0  0  0  0
   -3.5618   -2.8419   -0.2222 H   0  0  0  0  0  0  0  0  0  0  0  0
   -1.9818   -2.0809    0.9918 C   0  0  0  0  0  0  0  0  0  0  0  0
   -1.1288   -2.6669    1.6468 O   0  0  0  0  0  0  0  0  0  0  0  0
   -1.7648   -0.9089    0.3998 N   0  0  0  0  0  0  0  0  0  0  0  0
   -2.5238   -0.4719   -0.1032 H   0  0  0  0  0  0  0  0  0  0  0  0
   -0.4848   -0.1959    0.4138 C   0  0  1  0  0  0  0  0  0  0  0  0
    0.1386   -0.6144    1.2058 H   0  0  0  0  0  0  0  0  0  0  0  0
    0.2271   -0.4272   -0.9334 C   0  0  0  0  0  0  0  0  0  0  0  0
   -0.2609    0.1906   -1.6901 H   0  0  0  0  0  0  0  0  0  0  0  0
    1.2658   -0.1045   -0.8477 H   0  0  0  0  0  0  0  0  0  0  0  0
    0.1984   -1.8900   -1.4095 C   0  0  0  0  0  0  0  0  0  0  0  0
    0.8972   -2.4821   -0.8188 H   0  0  0  0  0  0  0  0  0  0  0  0
   -0.8053   -2.2895   -1.2648 H   0  0  0  0  0  0  0  0  0  0  0  0
    0.5719   -2.0504   -2.8831 C   0  0  0  0  0  0  0  0  0  0  0  0
    0.7938   -1.1104   -3.6232 O   0  0  0  0  0  0  0  0  0  0  0  0
    0.6663   -3.2662   -3.3762 N   0  0  0  0  0  0  0  0  0  0  0  0
    0.9154   -3.3129   -4.3489 H   0  0  0  0  0  0  0  0  0  0  0  0
    0.4970   -4.0735   -2.8112 H   0  0  0  0  0  0  0  0  0  0  0  0
   -0.7011    1.2952    0.7149 C   0  0  0  0  0  0  0  0  0  0  0  0
   -1.5917    1.9198    0.1415 O   0  0  0  0  0  0  0  0  0  0  0  0
    0.1191    1.8675    1.6055 N   0  0  0  0  0  0  0  0  0  0  0  0
    0.8092    1.2861    2.0537 H   0  0  0  0  0  0  0  0  0  0  0  0
    0.0509    3.2769    1.9894 C   0  0  0  0  0  0  0  0  0  0  0  0
   -0.9494    3.5076    2.3640 H   0  0  0  0  0  0  0  0  0  0  0  0
    0.7844    3.4956    2.7668 H   0  0  0  0  0  0  0  0  0  0  0  0
    0.2468    3.9058    1.1193 H   0  0  0  0  0  0  0  0  0  0  0  0
  5  6  2  0  0  0  0
  5  7  1  0  0  0  0
  2  3  1  0  0  0  0
  2  4  1  0  0  0  0
  2  5  1  0  0  0  0
  1  2  1  0  0  0  0
 22 23  2  0  0  0  0
 22 24  1  0  0  0  0
 19 20  1  0  0  0  0
 19 21  1  0  0  0  0
 17 18  2  0  0  0  0
 17 19  1  0  0  0  0
 14 15  1  0  0  0  0
 14 16  1  0  0  0  0
 14 17  1  0  0  0  0
 11 12  1  0  0  0  0
 11 13  1  0  0  0  0
 11 14  1  0  0  0  0
  9 10  1  0  0  0  0
  9 11  1  0  0  0  0
  9 22  1  0  0  0  0
  7  8  1  0  0  0  0
  7  9  1  0  0  0  0
 26 27  1  0  0  0  0
 26 28  1  0  0  0  0
 26 29  1  0  0  0  0
 24 25  1  0  0  0  0
 24 26  1  0  0  0  0
M  END
$$$$
default_name
  -OEChem-02102213163D

 29 28  0     1  0  0  0  0  0999 V2000
   -3.3998   -3.6239    1.3678 H   0  0  0  0  0  0  0  0  0  0  0  0
   -3.3608   -2.6749    0.8348 C   0  0  0  0  0  0  0  0  0  0  0  0
   -4.0988   -1.9909    1.2498 H   0  0  0  0  0  0  0  0  0  0  0  0
   -3.5618   -2.8419   -0.2222 H   0  0  0  0  0  0  0  0  0  0  0  0
   -1.9818   -2.0809    0.9918 C   0  0  0  0  0  0  0  0  0  0  0  0
   -1.1288   -2.6669    1.6468 O   0  0  0  0  0  0  0  0  0  0  0  0
   -1.7648   -0.9089    0.3998 N   0  0  0  0  0  0  0  0  0  0  0  0
   -2.5238   -0.4719   -0.1032 H   0  0  0  0  0  0  0  0  0  0  0  0
   -0.4848   -0.1959    0.4138 C   0  0  1  0  0  0  0  0  0  0  0  0
    0.1386   -0.6144    1.2058 H   0  0  0  0  0  0  0  0  0  0  0  0
    0.2271   -0.4272   -0.9334 C   0  0  0  0  0  0  0  0  0  0  0  0
   -0.0697    0.3687   -1.6197 H   0  0  0  0  0  0  0  0  0  0  0  0
    1.3057   -0.3626   -0.7823 H   0  0  0  0  0  0  0  0  0  0  0  0
   -0.1033   -1.7800   -1.5878 C   0  0  0  0  0  0  0  0  0  0  0  0
    0.1842   -2.5911   -0.9192 H   0  0  0  0  0  0  0  0  0  0  0  0
   -1.1779   -1.8359   -1.7612 H   0  0  0  0  0  0  0  0  0  0  0  0
    0.6108   -1.9928   -2.9225 C   0  0  0  0  0  0  0  0  0  0  0  0
    1.3083   -1.1470   -3.4505 O   0  0  0  0  0  0  0  0  0  0  0  0
    0.4717   -3.1517   -3.5290 N   0  0  0  0  0  0  0  0  0  0  0  0
    0.9632   -3.2372   -4.4017 H   0  0  0  0  0  0  0  0  0  0  0  0
   -0.0877   -3.8821   -3.1377 H   0  0  0  0  0  0  0  0  0  0  0  0
   -0.7011    1.2952    0.7149 C   0  0  0  0  0  0  0  0  0  0  0  0
   -1.5917    1.9198    0.1415 O   0  0  0  0  0  0  0  0  0  0  0  0
    0.1191    1.8675    1.6055 N   0  0  0  0  0  0  0  0  0  0  0  0
    0.8092    1.2861    2.0537 H   0  0  0  0  0  0  0  0  0  0  0  0
    0.0509    3.2769    1.9894 C   0  0  0  0  0  0  0  0  0  0  0  0
   -0.9494    3.5076    2.3640 H   0  0  0  0  0  0  0  0  0  0  0  0
    0.7844    3.4956    2.7668 H   0  0  0  0  0  0  0  0  0  0  0  0
    0.2468    3.9058    1.1193 H   0  0  0  0  0  0  0  0  0  0  0  0
  5  6  2  0  0  0  0
  5  7  1  0  0  0  0
  2  3  1  0  0  0  0
  2  4  1  0  0  0  0
  2  5  1  0  0  0  0
  1  2  1  0  0  0  0
 22 23  2  0  0  0  0
 22 24  1  0  0  0  0
 19 20  1  0  0  0  0
 19 21  1  0  0  0  0
 17 18  2  0  0  0  0
 17 19  1  0  0  0  0
 14 15  1  0  0  0  0
 14 16  1  0  0  0  0
 14 17  1  0  0  0  0
 11 12  1  0  0  0  0
 11 13  1  0  0  0  0
 11 14  1  0  0  0  0
  9 10  1  0  0  0  0
  9 11  1  0  0  0  0
  9 22  1  0  0  0  0
  7  8  1  0  0  0  0
  7  9  1  0  0  0  0
 26 27  1  0  0  0  0
 26 28  1  0  0  0  0
 26 29  1  0  0  0  0
 24 25  1  0  0  0  0
 24 26  1  0  0  0  0
M  END
$$$$
default_name
  -OEChem-02102213163D

 29 28  0     1  0  0  0  0  0999 V2000
   -3.3998   -3.6239    1.3678 H   0  0  0  0  0  0  0  0  0  0  0  0
   -3.3608   -2.6749    0.8348 C   0  0  0  0  0  0  0  0  0  0  0  0
   -4.0988   -1.9909    1.2498 H   0  0  0  0  0  0  0  0  0  0  0  0
   -3.5618   -2.8419   -0.2222 H   0  0  0  0  0  0  0  0  0  0  0  0
   -1.9818   -2.0809    0.9918 C   0  0  0  0  0  0  0  0  0  0  0  0
   -1.1288   -2.6669    1.6468 O   0  0  0  0  0  0  0  0  0  0  0  0
   -1.7648   -0.9089    0.3998 N   0  0  0  0  0  0  0  0  0  0  0  0
   -2.5238   -0.4719   -0.1032 H   0  0  0  0  0  0  0  0  0  0  0  0
   -0.4848   -0.1959    0.4138 C   0  0  1  0  0  0  0  0  0  0  0  0
    0.1386   -0.6144    1.2058 H   0  0  0  0  0  0  0  0  0  0  0  0
    0.2271   -0.4272   -0.9334 C   0  0  0  0  0  0  0  0  0  0  0  0
   -0.0697    0.3687   -1.6197 H   0  0  0  0  0  0  0  0  0  0  0  0
    1.3057   -0.3626   -0.7823 H   0  0  0  0  0  0  0  0  0  0  0  0
   -0.1033   -1.7800   -1.5878 C   0  0  0  0  0  0  0  0  0  0  0  0
   -0.0698   -2.5690   -0.8368 H   0  0  0  0  0  0  0  0  0  0  0  0
   -1.1106   -1.7360   -2.0019 H   0  0  0  0  0  0  0  0  0  0  0  0
    0.8624   -2.1563   -2.7114 C   0  0  0  0  0  0  0  0  0  0  0  0
    1.7542   -1.4255   -3.1000 O   0  0  0  0  0  0  0  0  0  0  0  0
    0.7289   -3.3333   -3.2834 N   0  0  0  0  0  0  0  0  0  0  0  0
    1.3903   -3.5287   -4.0147 H   0  0  0  0  0  0  0  0  0  0  0  0
    0.0147   -3.9734   -3.0008 H   0  0  0  0  0  0  0  0  0  0  0  0
   -0.7011    1.2952    0.7149 C   0  0  0  0  0  0  0  0  0  0  0  0
   -1.5917    1.9198    0.1415 O   0  0  0  0  0  0  0  0  0  0  0  0
    0.1191    1.8675    1.6055 N   0  0  0  0  0  0  0  0  0  0  0  0
    0.8092    1.2861    2.0537 H   0  0  0  0  0  0  0  0  0  0  0  0
    0.0509    3.2769    1.9894 C   0  0  0  0  0  0  0  0  0  0  0  0
   -0.9494    3.5076    2.3640 H   0  0  0  0  0  0  0  0  0  0  0  0
    0.7844    3.4956    2.7668 H   0  0  0  0  0  0  0  0  0  0  0  0
    0.2468    3.9058    1.1193 H   0  0  0  0  0  0  0  0  0  0  0  0
  5  6  2  0  0  0  0
  5  7  1  0  0  0  0
  2  3  1  0  0  0  0
  2  4  1  0  0  0  0
  2  5  1  0  0  0  0
  1  2  1  0  0  0  0
 22 23  2  0  0  0  0
 22 24  1  0  0  0  0
 19 20  1  0  0  0  0
 19 21  1  0  0  0  0
 17 18  2  0  0  0  0
 17 19  1  0  0  0  0
 14 15  1  0  0  0  0
 14 16  1  0  0  0  0
 14 17  1  0  0  0  0
 11 12  1  0  0  0  0
 11 13  1  0  0  0  0
 11 14  1  0  0  0  0
  9 10  1  0  0  0  0
  9 11  1  0  0  0  0
  9 22  1  0  0  0  0
  7  8  1  0  0  0  0
  7  9  1  0  0  0  0
 26 27  1  0  0  0  0
 26 28  1  0  0  0  0
 26 29  1  0  0  0  0
 24 25  1  0  0  0  0
 24 26  1  0  0  0  0
M  END
$$$$
default_name
  -OEChem-02102213163D

 29 28  0     1  0  0  0  0  0999 V2000
   -3.3998   -3.6239    1.3678 H   0  0  0  0  0  0  0  0  0  0  0  0
   -3.3608   -2.6749    0.8348 C   0  0  0  0  0  0  0  0  0  0  0  0
   -4.0988   -1.9909    1.2498 H   0  0  0  0  0  0  0  0  0  0  0  0
   -3.5618   -2.8419   -0.2222 H   0  0  0  0  0  0  0  0  0  0  0  0
   -1.9818   -2.0809    0.9918 C   0  0  0  0  0  0  0  0  0  0  0  0
   -1.1288   -2.6669    1.6468 O   0  0  0  0  0  0  0  0  0  0  0  0
   -1.7648   -0.9089    0.3998 N   0  0  0  0  0  0  0  0  0  0  0  0
   -2.5238   -0.4719   -0.1032 H   0  0  0  0  0  0  0  0  0  0  0  0
   -0.4848   -0.1959    0.4138 C   0  0  1  0  0  0  0  0  0  0  0  0
    0.1386   -0.6144    1.2058 H   0  0  0  0  0  0  0  0  0  0  0  0
    0.2271   -0.4272   -0.9334 C   0  0  0  0  0  0  0  0  0  0  0  0
   -0.0697    0.3687   -1.6197 H   0  0  0  0  0  0  0  0  0  0  0  0
    1.3057   -0.3626   -0.7823 H   0  0  0  0  0  0  0  0  0  0  0  0
   -0.1033   -1.7800   -1.5878 C   0  0  0  0  0  0  0  0  0  0  0  0
   -0.3313   -2.5150   -0.8162 H   0  0  0  0  0  0  0  0  0  0  0  0
   -0.9798   -1.6602   -2.2246 H   0  0  0  0  0  0  0  0  0  0  0  0
    1.0393   -2.3303   -2.4412 C   0  0  0  0  0  0  0  0  0  0  0  0
    2.0746   -1.7241   -2.6445 O   0  0  0  0  0  0  0  0  0  0  0  0
    0.9014   -3.5233   -2.9776 N   0  0  0  0  0  0  0  0  0  0  0  0
    1.6828   -3.8358   -3.5275 H   0  0  0  0  0  0  0  0  0  0  0  0
    0.0725   -4.0652   -2.8402 H   0  0  0  0  0  0  0  0  0  0  0  0
   -0.7011    1.2952    0.7149 C   0  0  0  0  0  0  0  0  0  0  0  0
   -1.5917    1.9198    0.1415 O   0  0  0  0  0  0  0  0  0  0  0  0
    0.1191    1.8675    1.6055 N   0  0  0  0  0  0  0  0  0  0  0  0
    0.8092    1.2861    2.0537 H   0  0  0  0  0  0  0  0  0  0  0  0
    0.0509    3.2769    1.9894 C   0  0  0  0  0  0  0  0  0  0  0  0
   -0.9494    3.5076    2.3640 H   0  0  0  0  0  0  0  0  0  0  0  0
    0.7844    3.4956    2.7668 H   0  0  0  0  0  0  0  0  0  0  0  0
    0.2468    3.9058    1.1193 H   0  0  0  0  0  0  0  0  0  0  0  0
  5  6  2  0  0  0  0
  5  7  1  0  0  0  0
  2  3  1  0  0  0  0
  2  4  1  0  0  0  0
  2  5  1  0  0  0  0
  1  2  1  0  0  0  0
 22 23  2  0  0  0  0
 22 24  1  0  0  0  0
 19 20  1  0  0  0  0
 19 21  1  0  0  0  0
 17 18  2  0  0  0  0
 17 19  1  0  0  0  0
 14 15  1  0  0  0  0
 14 16  1  0  0  0  0
 14 17  1  0  0  0  0
 11 12  1  0  0  0  0
 11 13  1  0  0  0  0
 11 14  1  0  0  0  0
  9 10  1  0  0  0  0
  9 11  1  0  0  0  0
  9 22  1  0  0  0  0
  7  8  1  0  0  0  0
  7  9  1  0  0  0  0
 26 27  1  0  0  0  0
 26 28  1  0  0  0  0
 26 29  1  0  0  0  0
 24 25  1  0  0  0  0
 24 26  1  0  0  0  0
M  END
$$$$
default_name
  -OEChem-02102213163D

 29 28  0     1  0  0  0  0  0999 V2000
   -3.3998   -3.6239    1.3678 H   0  0  0  0  0  0  0  0  0  0  0  0
   -3.3608   -2.6749    0.8348 C   0  0  0  0  0  0  0  0  0  0  0  0
   -4.0988   -1.9909    1.2498 H   0  0  0  0  0  0  0  0  0  0  0  0
   -3.5618   -2.8419   -0.2222 H   0  0  0  0  0  0  0  0  0  0  0  0
   -1.9818   -2.0809    0.9918 C   0  0  0  0  0  0  0  0  0  0  0  0
   -1.1288   -2.6669    1.6468 O   0  0  0  0  0  0  0  0  0  0  0  0
   -1.7648   -0.9089    0.3998 N   0  0  0  0  0  0  0  0  0  0  0  0
   -2.5238   -0.4719   -0.1032 H   0  0  0  0  0  0  0  0  0  0  0  0
   -0.4848   -0.1959    0.4138 C   0  0  1  0  0  0  0  0  0  0  0  0
    0.1386   -0.6144    1.2058 H   0  0  0  0  0  0  0  0  0  0  0  0
    0.2271   -0.4272   -0.9334 C   0  0  0  0  0  0  0  0  0  0  0  0
   -0.0697    0.3687   -1.6197 H   0  0  0  0  0  0  0  0  0  0  0  0
    1.3057   -0.3626   -0.7823 H   0  0  0  0  0  0  0  0  0  0  0  0
   -0.1033   -1.7800   -1.5878 C   0  0  0  0  0  0  0  0  0  0  0  0
   -0.5827   -2.4330   -0.8589 H   0  0  0  0  0  0  0  0  0  0  0  0
   -0.7944   -1.6138   -2.4141 H   0  0  0  0  0  0  0  0  0  0  0  0
    1.1296   -2.5027   -2.1302 C   0  0  0  0  0  0  0  0  0  0  0  0
    2.2475   -2.0224   -2.1151 O   0  0  0  0  0  0  0  0  0  0  0  0
    0.9776   -3.7089   -2.6324 N   0  0  0  0  0  0  0  0  0  0  0  0
    1.8205   -4.1375   -2.9733 H   0  0  0  0  0  0  0  0  0  0  0  0
    0.0816   -4.1513   -2.6668 H   0  0  0  0  0  0  0  0  0  0  0  0
   -0.7011    1.2952    0.7149 C   0  0  0  0  0  0  0  0  0  0  0  0
   -1.5917    1.9198    0.1415 O   0  0  0  0  0  0  0  0  0  0  0  0
    0.1191    1.8675    1.6055 N   0  0  0  0  0  0  0  0  0  0  0  0
    0.8092    1.2861    2.0537 H   0  0  0  0  0  0  0  0  0  0  0  0
    0.0509    3.2769    1.9894 C   0  0  0  0  0  0  0  0  0  0  0  0
   -0.9494    3.5076    2.3640 H   0  0  0  0  0  0  0  0  0  0  0  0
    0.7844    3.4956    2.7668 H   0  0  0  0  0  0  0  0  0  0  0  0
    0.2468    3.9058    1.1193 H   0  0  0  0  0  0  0  0  0  0  0  0
  5  6  2  0  0  0  0
  5  7  1  0  0  0  0
  2  3  1  0  0  0  0
  2  4  1  0  0  0  0
  2  5  1  0  0  0  0
  1  2  1  0  0  0  0
 22 23  2  0  0  0  0
 22 24  1  0  0  0  0
 19 20  1  0  0  0  0
 19 21  1  0  0  0  0
 17 18  2  0  0  0  0
 17 19  1  0  0  0  0
 14 15  1  0  0  0  0
 14 16  1  0  0  0  0
 14 17  1  0  0  0  0
 11 12  1  0  0  0  0
 11 13  1  0  0  0  0
 11 14  1  0  0  0  0
  9 10  1  0  0  0  0
  9 11  1  0  0  0  0
  9 22  1  0  0  0  0
  7  8  1  0  0  0  0
  7  9  1  0  0  0  0
 26 27  1  0  0  0  0
 26 28  1  0  0  0  0
 26 29  1  0  0  0  0
 24 25  1  0  0  0  0
 24 26  1  0  0  0  0
M  END
$$$$
default_name
  -OEChem-02102213163D

 29 28  0     1  0  0  0  0  0999 V2000
   -3.3998   -3.6239    1.3678 H   0  0  0  0  0  0  0  0  0  0  0  0
   -3.3608   -2.6749    0.8348 C   0  0  0  0  0  0  0  0  0  0  0  0
   -4.0988   -1.9909    1.2498 H   0  0  0  0  0  0  0  0  0  0  0  0
   -3.5618   -2.8419   -0.2222 H   0  0  0  0  0  0  0  0  0  0  0  0
   -1.9818   -2.0809    0.9918 C   0  0  0  0  0  0  0  0  0  0  0  0
   -1.1288   -2.6669    1.6468 O   0  0  0  0  0  0  0  0  0  0  0  0
   -1.7648   -0.9089    0.3998 N   0  0  0  0  0  0  0  0  0  0  0  0
   -2.5238   -0.4719   -0.1032 H   0  0  0  0  0  0  0  0  0  0  0  0
   -0.4848   -0.1959    0.4138 C   0  0  1  0  0  0  0  0  0  0  0  0
    0.1386   -0.6144    1.2058 H   0  0  0  0  0  0  0  0  0  0  0  0
    0.2271   -0.4272   -0.9334 C   0  0  0  0  0  0  0  0  0  0  0  0
   -0.0697    0.3687   -1.6197 H   0  0  0  0  0  0  0  0  0  0  0  0
    1.3057   -0.3626   -0.7823 H   0  0  0  0  0  0  0  0  0  0  0  0
   -0.1033   -1.7800   -1.5878 C   0  0  0  0  0  0  0  0  0  0  0  0
   -0.8068   -2.3284   -0.9618 H   0  0  0  0  0  0  0  0  0  0  0  0
   -0.5671   -1.5999   -2.5576 H   0  0  0  0  0  0  0  0  0  0  0  0
    1.1271   -2.6620   -1.7997 C   0  0  0  0  0  0  0  0  0  0  0  0
    2.2612   -2.3002   -1.5477 O   0  0  0  0  0  0  0  0  0  0  0  0
    0.9522   -3.8774   -2.2713 N   0  0  0  0  0  0  0  0  0  0  0  0
    1.7943   -4.4133   -2.3899 H   0  0  0  0  0  0  0  0  0  0  0  0
    0.0415   -4.2258   -2.4924 H   0  0  0  0  0  0  0  0  0  0  0  0
   -0.7011    1.2952    0.7149 C   0  0  0  0  0  0  0  0  0  0  0  0
   -1.5917    1.9198    0.1415 O   0  0  0  0  0  0  0  0  0  0  0  0
    0.1191    1.8675    1.6055 N   0  0  0  0  0  0  0  0  0  0  0  0
    0.8092    1.2861    2.0537 H   0  0  0  0  0  0  0  0  0  0  0  0
    0.0509    3.2769    1.9894 C   0  0  0  0  0  0  0  0  0  0  0  0
   -0.9494    3.5076    2.3640 H   0  0  0  0  0  0  0  0  0  0  0  0
    0.7844    3.4956    2.7668 H   0  0  0  0  0  0  0  0  0  0  0  0
    0.2468    3.9058    1.1193 H   0  0  0  0  0  0  0  0  0  0  0  0
  5  6  2  0  0  0  0
  5  7  1  0  0  0  0
  2  3  1  0  0  0  0
  2  4  1  0  0  0  0
  2  5  1  0  0  0  0
  1  2  1  0  0  0  0
 22 23  2  0  0  0  0
 22 24  1  0  0  0  0
 19 20  1  0  0  0  0
 19 21  1  0  0  0  0
 17 18  2  0  0  0  0
 17 19  1  0  0  0  0
 14 15  1  0  0  0  0
 14 16  1  0  0  0  0
 14 17  1  0  0  0  0
 11 12  1  0  0  0  0
 11 13  1  0  0  0  0
 11 14  1  0  0  0  0
  9 10  1  0  0  0  0
  9 11  1  0  0  0  0
  9 22  1  0  0  0  0
  7  8  1  0  0  0  0
  7  9  1  0  0  0  0
 26 27  1  0  0  0  0
 26 28  1  0  0  0  0
 26 29  1  0  0  0  0
 24 25  1  0  0  0  0
 24 26  1  0  0  0  0
M  END
$$$$
default_name
  -OEChem-02102213163D

 29 28  0     1  0  0  0  0  0999 V2000
   -3.3998   -3.6239    1.3678 H   0  0  0  0  0  0  0  0  0  0  0  0
   -3.3608   -2.6749    0.8348 C   0  0  0  0  0  0  0  0  0  0  0  0
   -4.0988   -1.9909    1.2498 H   0  0  0  0  0  0  0  0  0  0  0  0
   -3.5618   -2.8419   -0.2222 H   0  0  0  0  0  0  0  0  0  0  0  0
   -1.9818   -2.0809    0.9918 C   0  0  0  0  0  0  0  0  0  0  0  0
   -1.1288   -2.6669    1.6468 O   0  0  0  0  0  0  0  0  0  0  0  0
   -1.7648   -0.9089    0.3998 N   0  0  0  0  0  0  0  0  0  0  0  0
   -2.5238   -0.4719   -0.1032 H   0  0  0  0  0  0  0  0  0  0  0  0
   -0.4848   -0.1959    0.4138 C   0  0  1  0  0  0  0  0  0  0  0  0
    0.1386   -0.6144    1.2058 H   0  0  0  0  0  0  0  0  0  0  0  0
    0.2271   -0.4272   -0.9334 C   0  0  0  0  0  0  0  0  0  0  0  0
   -0.0697    0.3687   -1.6197 H   0  0  0  0  0  0  0  0  0  0  0  0
    1.3057   -0.3626   -0.7823 H   0  0  0  0  0  0  0  0  0  0  0  0
   -0.1033   -1.7800   -1.5878 C   0  0  0  0  0  0  0  0  0  0  0  0
   -0.9884   -2.2085   -1.1181 H   0  0  0  0  0  0  0  0  0  0  0  0
   -0.3134   -1.6195   -2.6452 H   0  0  0  0  0  0  0  0  0  0  0  0
    1.0319   -2.7972   -1.4722 C   0  0  0  0  0  0  0  0  0  0  0  0
    2.1147   -2.5385   -0.9812 O   0  0  0  0  0  0  0  0  0  0  0  0
    0.8269   -4.0173   -1.9189 N   0  0  0  0  0  0  0  0  0  0  0  0
    1.6059   -4.6444   -1.8170 H   0  0  0  0  0  0  0  0  0  0  0  0
   -0.0452   -4.2837   -2.3290 H   0  0  0  0  0  0  0  0  0  0  0  0
   -0.7011    1.2952    0.7149 C   0  0  0  0  0  0  0  0  0  0  0  0
   -1.5917    1.9198    0.1415 O   0  0  0  0  0  0  0  0  0  0  0  0
    0.1191    1.8675    1.6055 N   0  0  0  0  0  0  0  0  0  0  0  0
    0.8092    1.2861    2.0537 H   0  0  0  0  0  0  0  0  0  0  0  0
    0.0509    3.2769    1.9894 C   0  0  0  0  0  0  0  0  0  0  0  0
   -0.9494    3.5076    2.3640 H   0  0  0  0  0  0  0  0  0  0  0  0
    0.7844    3.4956    2.7668 H   0  0  0  0  0  0  0  0  0  0  0  0
    0.2468    3.9058    1.1193 H   0  0  0  0  0  0  0  0  0  0  0  0
  5  6  2  0  0  0  0
  5  7  1  0  0  0  0
  2  3  1  0  0  0  0
  2  4  1  0  0  0  0
  2  5  1  0  0  0  0
  1  2  1  0  0  0  0
 22 23  2  0  0  0  0
 22 24  1  0  0  0  0
 19 20  1  0  0  0  0
 19 21  1  0  0  0  0
 17 18  2  0  0  0  0
 17 19  1  0  0  0  0
 14 15  1  0  0  0  0
 14 16  1  0  0  0  0
 14 17  1  0  0  0  0
 11 12  1  0  0  0  0
 11 13  1  0  0  0  0
 11 14  1  0  0  0  0
  9 10  1  0  0  0  0
  9 11  1  0  0  0  0
  9 22  1  0  0  0  0
  7  8  1  0  0  0  0
  7  9  1  0  0  0  0
 26 27  1  0  0  0  0
 26 28  1  0  0  0  0
 26 29  1  0  0  0  0
 24 25  1  0  0  0  0
 24 26  1  0  0  0  0
M  END
$$$$
default_name
  -OEChem-02102213163D

 29 28  0     1  0  0  0  0  0999 V2000
   -3.3998   -3.6239    1.3678 H   0  0  0  0  0  0  0  0  0  0  0  0
   -3.3608   -2.6749    0.8348 C   0  0  0  0  0  0  0  0  0  0  0  0
   -4.0988   -1.9909    1.2498 H   0  0  0  0  0  0  0  0  0  0  0  0
   -3.5618   -2.8419   -0.2222 H   0  0  0  0  0  0  0  0  0  0  0  0
   -1.9818   -2.0809    0.9918 C   0  0  0  0  0  0  0  0  0  0  0  0
   -1.1288   -2.6669    1.6468 O   0  0  0  0  0  0  0  0  0  0  0  0
   -1.7648   -0.9089    0.3998 N   0  0  0  0  0  0  0  0  0  0  0  0
   -2.5238   -0.4719   -0.1032 H   0  0  0  0  0  0  0  0  0  0  0  0
   -0.4848   -0.1959    0.4138 C   0  0  1  0  0  0  0  0  0  0  0  0
    0.1386   -0.6144    1.2058 H   0  0  0  0  0  0  0  0  0  0  0  0
    0.2271   -0.4272   -0.9334 C   0  0  0  0  0  0  0  0  0  0  0  0
   -0.0697    0.3687   -1.6197 H   0  0  0  0  0  0  0  0  0  0  0  0
    1.3057   -0.3626   -0.7823 H   0  0  0  0  0  0  0  0  0  0  0  0
   -0.1033   -1.7800   -1.5878 C   0  0  0  0  0  0  0  0  0  0  0  0
   -1.1150   -2.0814   -1.3170 H   0  0  0  0  0  0  0  0  0  0  0  0
   -0.0506   -1.6712   -2.6710 H   0  0  0  0  0  0  0  0  0  0  0  0
    0.8505   -2.8990   -1.1700 C   0  0  0  0  0  0  0  0  0  0  0  0
    1.8181   -2.7211   -0.4540 O   0  0  0  0  0  0  0  0  0  0  0  0
    0.6103   -4.1190   -1.5992 N   0  0  0  0  0  0  0  0  0  0  0  0
    1.2680   -4.8151   -1.2937 H   0  0  0  0  0  0  0  0  0  0  0  0
   -0.1724   -4.3210   -2.1877 H   0  0  0  0  0  0  0  0  0  0  0  0
   -0.7011    1.2952    0.7149 C   0  0  0  0  0  0  0  0  0  0  0  0
   -1.5917    1.9198    0.1415 O   0  0  0  0  0  0  0  0  0  0  0  0
    0.1191    1.8675    1.6055 N   0  0  0  0  0  0  0  0  0  0  0  0
    0.8092    1.2861    2.0537 H   0  0  0  0  0  0  0  0  0  0  0  0
    0.0509    3.2769    1.9894 C   0  0  0  0  0  0  0  0  0  0  0  0
   -0.9494    3.5076    2.3640 H   0  0  0  0  0  0  0  0  0  0  0  0
    0.7844    3.4956    2.7668 H   0  0  0  0  0  0  0  0  0  0  0  0
    0.2468    3.9058    1.1193 H   0  0  0  0  0  0  0  0  0  0  0  0
  5  6  2  0  0  0  0
  5  7  1  0  0  0  0
  2  3  1  0  0  0  0
  2  4  1  0  0  0  0
  2  5  1  0  0  0  0
  1  2  1  0  0  0  0
 22 23  2  0  0  0  0
 22 24  1  0  0  0  0
 19 20  1  0  0  0  0
 19 21  1  0  0  0  0
 17 18  2  0  0  0  0
 17 19  1  0  0  0  0
 14 15  1  0  0  0  0
 14 16  1  0  0  0  0
 14 17  1  0  0  0  0
 11 12  1  0  0  0  0
 11 13  1  0  0  0  0
 11 14  1  0  0  0  0
  9 10  1  0  0  0  0
  9 11  1  0  0  0  0
  9 22  1  0  0  0  0
  7  8  1  0  0  0  0
  7  9  1  0  0  0  0
 26 27  1  0  0  0  0
 26 28  1  0  0  0  0
 26 29  1  0  0  0  0
 24 25  1  0  0  0  0
 24 26  1  0  0  0  0
M  END
$$$$
default_name
  -OEChem-02102213163D

 29 28  0     1  0  0  0  0  0999 V2000
   -3.3998   -3.6239    1.3678 H   0  0  0  0  0  0  0  0  0  0  0  0
   -3.3608   -2.6749    0.8348 C   0  0  0  0  0  0  0  0  0  0  0  0
   -4.0988   -1.9909    1.2498 H   0  0  0  0  0  0  0  0  0  0  0  0
   -3.5618   -2.8419   -0.2222 H   0  0  0  0  0  0  0  0  0  0  0  0
   -1.9818   -2.0809    0.9918 C   0  0  0  0  0  0  0  0  0  0  0  0
   -1.1288   -2.6669    1.6468 O   0  0  0  0  0  0  0  0  0  0  0  0
   -1.7648   -0.9089    0.3998 N   0  0  0  0  0  0  0  0  0  0  0  0
   -2.5238   -0.4719   -0.1032 H   0  0  0  0  0  0  0  0  0  0  0  0
   -0.4848   -0.1959    0.4138 C   0  0  1  0  0  0  0  0  0  0  0  0
    0.1386   -0.6144    1.2058 H   0  0  0  0  0  0  0  0  0  0  0  0
    0.2271   -0.4272   -0.9334 C   0  0  0  0  0  0  0  0  0  0  0  0
   -0.0697    0.3687   -1.6197 H   0  0  0  0  0  0  0  0  0  0  0  0
    1.3057   -0.3626   -0.7823 H   0  0  0  0  0  0  0  0  0  0  0  0
   -0.1033   -1.7800   -1.5878 C   0  0  0  0  0  0  0  0  0  0  0  0
   -1.1780   -1.9557   -1.5450 H   0  0  0  0  0  0  0  0  0  0  0  0
    0.2035   -1.7515   -2.6333 H   0  0  0  0  0  0  0  0  0  0  0  0
    0.5953   -2.9607   -0.9137 C   0  0  0  0  0  0  0  0  0  0  0  0
    1.3915   -2.8355   -0.0021 O   0  0  0  0  0  0  0  0  0  0  0  0
    0.3171   -4.1757   -1.3341 N   0  0  0  0  0  0  0  0  0  0  0  0
    0.8038   -4.9136   -0.8555 H   0  0  0  0  0  0  0  0  0  0  0  0
   -0.3316   -4.3352   -2.0780 H   0  0  0  0  0  0  0  0  0  0  0  0
   -0.7011    1.2952    0.7149 C   0  0  0  0  0  0  0  0  0  0  0  0
   -1.5917    1.9198    0.1415 O   0  0  0  0  0  0  0  0  0  0  0  0
    0.1191    1.8675    1.6055 N   0  0  0  0  0  0  0  0  0  0  0  0
    0.8092    1.2861    2.0537 H   0  0  0  0  0  0  0  0  0  0  0  0
    0.0509    3.2769    1.9894 C   0  0  0  0  0  0  0  0  0  0  0  0
   -0.9494    3.5076    2.3640 H   0  0  0  0  0  0  0  0  0  0  0  0
    0.7844    3.4956    2.7668 H   0  0  0  0  0  0  0  0  0  0  0  0
    0.2468    3.9058    1.1193 H   0  0  0  0  0  0  0  0  0  0  0  0
  5  6  2  0  0  0  0
  5  7  1  0  0  0  0
  2  3  1  0  0  0  0
  2  4  1  0  0  0  0
  2  5  1  0  0  0  0
  1  2  1  0  0  0  0
 22 23  2  0  0  0  0
 22 24  1  0  0  0  0
 19 20  1  0  0  0  0
 19 21  1  0  0  0  0
 17 18  2  0  0  0  0
 17 19  1  0  0  0  0
 14 15  1  0  0  0  0
 14 16  1  0  0  0  0
 14 17  1  0  0  0  0
 11 12  1  0  0  0  0
 11 13  1  0  0  0  0
 11 14  1  0  0  0  0
  9 10  1  0  0  0  0
  9 11  1  0  0  0  0
  9 22  1  0  0  0  0
  7  8  1  0  0  0  0
  7  9  1  0  0  0  0
 26 27  1  0  0  0  0
 26 28  1  0  0  0  0
 26 29  1  0  0  0  0
 24 25  1  0  0  0  0
 24 26  1  0  0  0  0
M  END
$$$$
default_name
  -OEChem-02102213163D

 29 28  0     1  0  0  0  0  0999 V2000
   -3.3998   -3.6239    1.3678 H   0  0  0  0  0  0  0  0  0  0  0  0
   -3.3608   -2.6749    0.8348 C   0  0  0  0  0  0  0  0  0  0  0  0
   -4.0988   -1.9909    1.2498 H   0  0  0  0  0  0  0  0  0  0  0  0
   -3.5618   -2.8419   -0.2222 H   0  0  0  0  0  0  0  0  0  0  0  0
   -1.9818   -2.0809    0.9918 C   0  0  0  0  0  0  0  0  0  0  0  0
   -1.1288   -2.6669    1.6468 O   0  0  0  0  0  0  0  0  0  0  0  0
   -1.7648   -0.9089    0.3998 N   0  0  0  0  0  0  0  0  0  0  0  0
   -2.5238   -0.4719   -0.1032 H   0  0  0  0  0  0  0  0  0  0  0  0
   -0.4848   -0.1959    0.4138 C   0  0  1  0  0  0  0  0  0  0  0  0
    0.1386   -0.6144    1.2058 H   0  0  0  0  0  0  0  0  0  0  0  0
    0.2271   -0.4272   -0.9334 C   0  0  0  0  0  0  0  0  0  0  0  0
   -0.0697    0.3687   -1.6197 H   0  0  0  0  0  0  0  0  0  0  0  0
    1.3057   -0.3626   -0.7823 H   0  0  0  0  0  0  0  0  0  0  0  0
   -0.1033   -1.7800   -1.5878 C   0  0  0  0  0  0  0  0  0  0  0  0
   -1.1731   -1.8400   -1.7866 H   0  0  0  0  0  0  0  0  0  0  0  0
    0.4315   -1.8549   -2.5346 H   0  0  0  0  0  0  0  0  0  0  0  0
    0.2838   -2.9779   -0.7208 C   0  0  0  0  0  0  0  0  0  0  0  0
    0.8640   -2.8739    0.3436 O   0  0  0  0  0  0  0  0  0  0  0  0
   -0.0326   -4.1834   -1.1416 N   0  0  0  0  0  0  0  0  0  0  0  0
    0.2449   -4.9334   -0.5325 H   0  0  0  0  0  0  0  0  0  0  0  0
   -0.5119   -4.3252   -2.0075 H   0  0  0  0  0  0  0  0  0  0  0  0
   -0.7011    1.2952    0.7149 C   0  0  0  0  0  0  0  0  0  0  0  0
   -1.5917    1.9198    0.1415 O   0  0  0  0  0  0  0  0  0  0  0  0
    0.1191    1.8675    1.6055 N   0  0  0  0  0  0  0  0  0  0  0  0
    0.8092    1.2861    2.0537 H   0  0  0  0  0  0  0  0  0  0  0  0
    0.0509    3.2769    1.9894 C   0  0  0  0  0  0  0  0  0  0  0  0
   -0.9494    3.5076    2.3640 H   0  0  0  0  0  0  0  0  0  0  0  0
    0.7844    3.4956    2.7668 H   0  0  0  0  0  0  0  0  0  0  0  0
    0.2468    3.9058    1.1193 H   0  0  0  0  0  0  0  0  0  0  0  0
  5  6  2  0  0  0  0
  5  7  1  0  0  0  0
  2  3  1  0  0  0  0
  2  4  1  0  0  0  0
  2  5  1  0  0  0  0
  1  2  1  0  0  0  0
 22 23  2  0  0  0  0
 22 24  1  0  0  0  0
 19 20  1  0  0  0  0
 19 21  1  0  0  0  0
 17 18  2  0  0  0  0
 17 19  1  0  0  0  0
 14 15  1  0  0  0  0
 14 16  1  0  0  0  0
 14 17  1  0  0  0  0
 11 12  1  0  0  0  0
 11 13  1  0  0  0  0
 11 14  1  0  0  0  0
  9 10  1  0  0  0  0
  9 11  1  0  0  0  0
  9 22  1  0  0  0  0
  7  8  1  0  0  0  0
  7  9  1  0  0  0  0
 26 27  1  0  0  0  0
 26 28  1  0  0  0  0
 26 29  1  0  0  0  0
 24 25  1  0  0  0  0
 24 26  1  0  0  0  0
M  END
$$$$
default_name
  -OEChem-02102213163D

 29 28  0     1  0  0  0  0  0999 V2000
   -3.3998   -3.6239    1.3678 H   0  0  0  0  0  0  0  0  0  0  0  0
   -3.3608   -2.6749    0.8348 C   0  0  0  0  0  0  0  0  0  0  0  0
   -4.0988   -1.9909    1.2498 H   0  0  0  0  0  0  0  0  0  0  0  0
   -3.5618   -2.8419   -0.2222 H   0  0  0  0  0  0  0  0  0  0  0  0
   -1.9818   -2.0809    0.9918 C   0  0  0  0  0  0  0  0  0  0  0  0
   -1.1288   -2.6669    1.6468 O   0  0  0  0  0  0  0  0  0  0  0  0
   -1.7648   -0.9089    0.3998 N   0  0  0  0  0  0  0  0  0  0  0  0
   -2.5238   -0.4719   -0.1032 H   0  0  0  0  0  0  0  0  0  0  0  0
   -0.4848   -0.1959    0.4138 C   0  0  1  0  0  0  0  0  0  0  0  0
    0.1386   -0.6144    1.2058 H   0  0  0  0  0  0  0  0  0  0  0  0
    0.2271   -0.4272   -0.9334 C   0  0  0  0  0  0  0  0  0  0  0  0
   -0.0697    0.3687   -1.6197 H   0  0  0  0  0  0  0  0  0  0  0  0
    1.3057   -0.3626   -0.7823 H   0  0  0  0  0  0  0  0  0  0  0  0
   -0.1033   -1.7800   -1.5878 C   0  0  0  0  0  0  0  0  0  0  0  0
   -1.1007   -1.7423   -2.0252 H   0  0  0  0  0  0  0  0  0  0  0  0
    0.6179   -1.9745   -2.3816 H   0  0  0  0  0  0  0  0  0  0  0  0
   -0.0630   -2.9495   -0.6044 C   0  0  0  0  0  0  0  0  0  0  0  0
    0.2716   -2.8337    0.5597 O   0  0  0  0  0  0  0  0  0  0  0  0
   -0.4150   -4.1416   -1.0348 N   0  0  0  0  0  0  0  0  0  0  0  0
   -0.3707   -4.8730   -0.3466 H   0  0  0  0  0  0  0  0  0  0  0  0
   -0.7009   -4.2919   -1.9810 H   0  0  0  0  0  0  0  0  0  0  0  0
   -0.7011    1.2952    0.7149 C   0  0  0  0  0  0  0  0  0  0  0  0
   -1.5917    1.9198    0.1415 O   0  0  0  0  0  0  0  0  0  0  0  0
    0.1191    1.8675    1.6055 N   0  0  0  0  0  0  0  0  0  0  0  0
    0.8092    1.2861    2.0537 H   0  0  0  0  0  0  0  0  0  0  0  0
    0.0509    3.2769    1.9894 C   0  0  0  0  0  0  0  0  0  0  0  0
   -0.9494    3.5076    2.3640 H   0  0  0  0  0  0  0  0  0  0  0  0
    0.7844    3.4956    2.7668 H   0  0  0  0  0  0  0  0  0  0  0  0
    0.2468    3.9058    1.1193 H   0  0  0  0  0  0  0  0  0  0  0  0
  5  6  2  0  0  0  0
  5  7  1  0  0  0  0
  2  3  1  0  0  0  0
  2  4  1  0  0  0  0
  2  5  1  0  0  0  0
  1  2  1  0  0  0  0
 22 23  2  0  0  0  0
 22 24  1  0  0  0  0
 19 20  1  0  0  0  0
 19 21  1  0  0  0  0
 17 18  2  0  0  0  0
 17 19  1  0  0  0  0
 14 15  1  0  0  0  0
 14 16  1  0  0  0  0
 14 17  1  0  0  0  0
 11 12  1  0  0  0  0
 11 13  1  0  0  0  0
 11 14  1  0  0  0  0
  9 10  1  0  0  0  0
  9 11  1  0  0  0  0
  9 22  1  0  0  0  0
  7  8  1  0  0  0  0
  7  9  1  0  0  0  0
 26 27  1  0  0  0  0
 26 28  1  0  0  0  0
 26 29  1  0  0  0  0
 24 25  1  0  0  0  0
 24 26  1  0  0  0  0
M  END
$$$$
default_name
  -OEChem-02102213163D

 29 28  0     1  0  0  0  0  0999 V2000
   -3.3998   -3.6239    1.3678 H   0  0  0  0  0  0  0  0  0  0  0  0
   -3.3608   -2.6749    0.8348 C   0  0  0  0  0  0  0  0  0  0  0  0
   -4.0988   -1.9909    1.2498 H   0  0  0  0  0  0  0  0  0  0  0  0
   -3.5618   -2.8419   -0.2222 H   0  0  0  0  0  0  0  0  0  0  0  0
   -1.9818   -2.0809    0.9918 C   0  0  0  0  0  0  0  0  0  0  0  0
   -1.1288   -2.6669    1.6468 O   0  0  0  0  0  0  0  0  0  0  0  0
   -1.7648   -0.9089    0.3998 N   0  0  0  0  0  0  0  0  0  0  0  0
   -2.5238   -0.4719   -0.1032 H   0  0  0  0  0  0  0  0  0  0  0  0
   -0.4848   -0.1959    0.4138 C   0  0  1  0  0  0  0  0  0  0  0  0
    0.1386   -0.6144    1.2058 H   0  0  0  0  0  0  0  0  0  0  0  0
    0.2271   -0.4272   -0.9334 C   0  0  0  0  0  0  0  0  0  0  0  0
   -0.0697    0.3687   -1.6197 H   0  0  0  0  0  0  0  0  0  0  0  0
    1.3057   -0.3626   -0.7823 H   0  0  0  0  0  0  0  0  0  0  0  0
   -0.1033   -1.7800   -1.5878 C   0  0  0  0  0  0  0  0  0  0  0  0
   -0.9657   -1.6691   -2.2447 H   0  0  0  0  0  0  0  0  0  0  0  0
    0.7499   -2.1019   -2.1847 H   0  0  0  0  0  0  0  0  0  0  0  0
   -0.4213   -2.8775   -0.5724 C   0  0  0  0  0  0  0  0  0  0  0  0
   -0.3453   -2.7177    0.6314 O   0  0  0  0  0  0  0  0  0  0  0  0
   -0.8042   -4.0533   -1.0210 N   0  0  0  0  0  0  0  0  0  0  0  0
   -1.0010   -4.7365   -0.3104 H   0  0  0  0  0  0  0  0  0  0  0  0
   -0.8859   -4.2374   -2.0003 H   0  0  0  0  0  0  0  0  0  0  0  0
   -0.7011    1.2952    0.7149 C   0  0  0  0  0  0  0  0  0  0  0  0
   -1.5917    1.9198    0.1415 O   0  0  0  0  0  0  0  0  0  0  0  0
    0.1191    1.8675    1.6055 N   0  0  0  0  0  0  0  0  0  0  0  0
    0.8092    1.2861    2.0537 H   0  0  0  0  0  0  0  0  0  0  0  0
    0.0509    3.2769    1.9894 C   0  0  0  0  0  0  0  0  0  0  0  0
   -0.9494    3.5076    2.3640 H   0  0  0  0  0  0  0  0  0  0  0  0
    0.7844    3.4956    2.7668 H   0  0  0  0  0  0  0  0  0  0  0  0
    0.2468    3.9058    1.1193 H   0  0  0  0  0  0  0  0  0  0  0  0
  5  6  2  0  0  0  0
  5  7  1  0  0  0  0
  2  3  1  0  0  0  0
  2  4  1  0  0  0  0
  2  5  1  0  0  0  0
  1  2  1  0  0  0  0
 22 23  2  0  0  0  0
 22 24  1  0  0  0  0
 19 20  1  0  0  0  0
 19 21  1  0  0  0  0
 17 18  2  0  0  0  0
 17 19  1  0  0  0  0
 14 15  1  0  0  0  0
 14 16  1  0  0  0  0
 14 17  1  0  0  0  0
 11 12  1  0  0  0  0
 11 13  1  0  0  0  0
 11 14  1  0  0  0  0
  9 10  1  0  0  0  0
  9 11  1  0  0  0  0
  9 22  1  0  0  0  0
  7  8  1  0  0  0  0
  7  9  1  0  0  0  0
 26 27  1  0  0  0  0
 26 28  1  0  0  0  0
 26 29  1  0  0  0  0
 24 25  1  0  0  0  0
 24 26  1  0  0  0  0
M  END
$$$$
default_name
  -OEChem-02102213163D

 29 28  0     1  0  0  0  0  0999 V2000
   -3.3998   -3.6239    1.3678 H   0  0  0  0  0  0  0  0  0  0  0  0
   -3.3608   -2.6749    0.8348 C   0  0  0  0  0  0  0  0  0  0  0  0
   -4.0988   -1.9909    1.2498 H   0  0  0  0  0  0  0  0  0  0  0  0
   -3.5618   -2.8419   -0.2222 H   0  0  0  0  0  0  0  0  0  0  0  0
   -1.9818   -2.0809    0.9918 C   0  0  0  0  0  0  0  0  0  0  0  0
   -1.1288   -2.6669    1.6468 O   0  0  0  0  0  0  0  0  0  0  0  0
   -1.7648   -0.9089    0.3998 N   0  0  0  0  0  0  0  0  0  0  0  0
   -2.5238   -0.4719   -0.1032 H   0  0  0  0  0  0  0  0  0  0  0  0
   -0.4848   -0.1959    0.4138 C   0  0  1  0  0  0  0  0  0  0  0  0
    0.1386   -0.6144    1.2058 H   0  0  0  0  0  0  0  0  0  0  0  0
    0.2271   -0.4272   -0.9334 C   0  0  0  0  0  0  0  0  0  0  0  0
   -0.0697    0.3687   -1.6197 H   0  0  0  0  0  0  0  0  0  0  0  0
    1.3057   -0.3626   -0.7823 H   0  0  0  0  0  0  0  0  0  0  0  0
   -0.1033   -1.7800   -1.5878 C   0  0  0  0  0  0  0  0  0  0  0  0
   -0.7774   -1.6254   -2.4301 H   0  0  0  0  0  0  0  0  0  0  0  0
    0.8187   -2.2287   -1.9575 H   0  0  0  0  0  0  0  0  0  0  0  0
   -0.7667   -2.7667   -0.6271 C   0  0  0  0  0  0  0  0  0  0  0  0
   -0.9448   -2.5338    0.5538 O   0  0  0  0  0  0  0  0  0  0  0  0
   -1.1735   -3.9243   -1.1011 N   0  0  0  0  0  0  0  0  0  0  0  0
   -1.6030   -4.5333   -0.4265 H   0  0  0  0  0  0  0  0  0  0  0  0
   -1.0542   -4.1654   -2.0640 H   0  0  0  0  0  0  0  0  0  0  0  0
   -0.7011    1.2952    0.7149 C   0  0  0  0  0  0  0  0  0  0  0  0
   -1.5917    1.9198    0.1415 O   0  0  0  0  0  0  0  0  0  0  0  0
    0.1191    1.8675    1.6055 N   0  0  0  0  0  0  0  0  0  0  0  0
    0.8092    1.2861    2.0537 H   0  0  0  0  0  0  0  0  0  0  0  0
    0.0509    3.2769    1.9894 C   0  0  0  0  0  0  0  0  0  0  0  0
   -0.9494    3.5076    2.3640 H   0  0  0  0  0  0  0  0  0  0  0  0
    0.7844    3.4956    2.7668 H   0  0  0  0  0  0  0  0  0  0  0  0
    0.2468    3.9058    1.1193 H   0  0  0  0  0  0  0  0  0  0  0  0
  5  6  2  0  0  0  0
  5  7  1  0  0  0  0
  2  3  1  0  0  0  0
  2  4  1  0  0  0  0
  2  5  1  0  0  0  0
  1  2  1  0  0  0  0
 22 23  2  0  0  0  0
 22 24  1  0  0  0  0
 19 20  1  0  0  0  0
 19 21  1  0  0  0  0
 17 18  2  0  0  0  0
 17 19  1  0  0  0  0
 14 15  1  0  0  0  0
 14 16  1  0  0  0  0
 14 17  1  0  0  0  0
 11 12  1  0  0  0  0
 11 13  1  0  0  0  0
 11 14  1  0  0  0  0
  9 10  1  0  0  0  0
  9 11  1  0  0  0  0
  9 22  1  0  0  0  0
  7  8  1  0  0  0  0
  7  9  1  0  0  0  0
 26 27  1  0  0  0  0
 26 28  1  0  0  0  0
 26 29  1  0  0  0  0
 24 25  1  0  0  0  0
 24 26  1  0  0  0  0
M  END
$$$$
default_name
  -OEChem-02102213163D

 29 28  0     1  0  0  0  0  0999 V2000
   -3.3998   -3.6239    1.3678 H   0  0  0  0  0  0  0  0  0  0  0  0
   -3.3608   -2.6749    0.8348 C   0  0  0  0  0  0  0  0  0  0  0  0
   -4.0988   -1.9909    1.2498 H   0  0  0  0  0  0  0  0  0  0  0  0
   -3.5618   -2.8419   -0.2222 H   0  0  0  0  0  0  0  0  0  0  0  0
   -1.9818   -2.0809    0.9918 C   0  0  0  0  0  0  0  0  0  0  0  0
   -1.1288   -2.6669    1.6468 O   0  0  0  0  0  0  0  0  0  0  0  0
   -1.7648   -0.9089    0.3998 N   0  0  0  0  0  0  0  0  0  0  0  0
   -2.5238   -0.4719   -0.1032 H   0  0  0  0  0  0  0  0  0  0  0  0
   -0.4848   -0.1959    0.4138 C   0  0  1  0  0  0  0  0  0  0  0  0
    0.1386   -0.6144    1.2058 H   0  0  0  0  0  0  0  0  0  0  0  0
    0.2271   -0.4272   -0.9334 C   0  0  0  0  0  0  0  0  0  0  0  0
   -0.0697    0.3687   -1.6197 H   0  0  0  0  0  0  0  0  0  0  0  0
    1.3057   -0.3626   -0.7823 H   0  0  0  0  0  0  0  0  0  0  0  0
   -0.1033   -1.7800   -1.5878 C   0  0  0  0  0  0  0  0  0  0  0  0
   -0.5484   -1.6143   -2.5687 H   0  0  0  0  0  0  0  0  0  0  0  0
    0.8194   -2.3460   -1.7153 H   0  0  0  0  0  0  0  0  0  0  0  0
   -1.0757   -2.6247   -0.7647 C   0  0  0  0  0  0  0  0  0  0  0  0
   -1.4859   -2.2944    0.3322 O   0  0  0  0  0  0  0  0  0  0  0  0
   -1.4978   -3.7635   -1.2697 N   0  0  0  0  0  0  0  0  0  0  0  0
   -2.1357   -4.2773   -0.6868 H   0  0  0  0  0  0  0  0  0  0  0  0
   -1.1943   -4.0810   -2.1679 H   0  0  0  0  0  0  0  0  0  0  0  0
   -0.7011    1.2952    0.7149 C   0  0  0  0  0  0  0  0  0  0  0  0
   -1.5917    1.9198    0.1415 O   0  0  0  0  0  0  0  0  0  0  0  0
    0.1191    1.8675    1.6055 N   0  0  0  0  0  0  0  0  0  0  0  0
    0.8092    1.2861    2.0537 H   0  0  0  0  0  0  0  0  0  0  0  0
    0.0509    3.2769    1.9894 C   0  0  0  0  0  0  0  0  0  0  0  0
   -0.9494    3.5076    2.3640 H   0  0  0  0  0  0  0  0  0  0  0  0
    0.7844    3.4956    2.7668 H   0  0  0  0  0  0  0  0  0  0  0  0
    0.2468    3.9058    1.1193 H   0  0  0  0  0  0  0  0  0  0  0  0
  5  6  2  0  0  0  0
  5  7  1  0  0  0  0
  2  3  1  0  0  0  0
  2  4  1  0  0  0  0
  2  5  1  0  0  0  0
  1  2  1  0  0  0  0
 22 23  2  0  0  0  0
 22 24  1  0  0  0  0
 19 20  1  0  0  0  0
 19 21  1  0  0  0  0
 17 18  2  0  0  0  0
 17 19  1  0  0  0  0
 14 15  1  0  0  0  0
 14 16  1  0  0  0  0
 14 17  1  0  0  0  0
 11 12  1  0  0  0  0
 11 13  1  0  0  0  0
 11 14  1  0  0  0  0
  9 10  1  0  0  0  0
  9 11  1  0  0  0  0
  9 22  1  0  0  0  0
  7  8  1  0  0  0  0
  7  9  1  0  0  0  0
 26 27  1  0  0  0  0
 26 28  1  0  0  0  0
 26 29  1  0  0  0  0
 24 25  1  0  0  0  0
 24 26  1  0  0  0  0
M  END
$$$$
default_name
  -OEChem-02102213163D

 29 28  0     1  0  0  0  0  0999 V2000
   -3.3998   -3.6239    1.3678 H   0  0  0  0  0  0  0  0  0  0  0  0
   -3.3608   -2.6749    0.8348 C   0  0  0  0  0  0  0  0  0  0  0  0
   -4.0988   -1.9909    1.2498 H   0  0  0  0  0  0  0  0  0  0  0  0
   -3.5618   -2.8419   -0.2222 H   0  0  0  0  0  0  0  0  0  0  0  0
   -1.9818   -2.0809    0.9918 C   0  0  0  0  0  0  0  0  0  0  0  0
   -1.1288   -2.6669    1.6468 O   0  0  0  0  0  0  0  0  0  0  0  0
   -1.7648   -0.9089    0.3998 N   0  0  0  0  0  0  0  0  0  0  0  0
   -2.5238   -0.4719   -0.1032 H   0  0  0  0  0  0  0  0  0  0  0  0
   -0.4848   -0.1959    0.4138 C   0  0  1  0  0  0  0  0  0  0  0  0
    0.1386   -0.6144    1.2058 H   0  0  0  0  0  0  0  0  0  0  0  0
    0.2271   -0.4272   -0.9334 C   0  0  0  0  0  0  0  0  0  0  0  0
   -0.0697    0.3687   -1.6197 H   0  0  0  0  0  0  0  0  0  0  0  0
    1.3057   -0.3626   -0.7823 H   0  0  0  0  0  0  0  0  0  0  0  0
   -0.1033   -1.7800   -1.5878 C   0  0  0  0  0  0  0  0  0  0  0  0
   -0.2945   -1.6364   -2.6510 H   0  0  0  0  0  0  0  0  0  0  0  0
    0.7521   -2.4460   -1.4746 H   0  0  0  0  0  0  0  0  0  0  0  0
   -1.3273   -2.4611   -0.9758 C   0  0  0  0  0  0  0  0  0  0  0  0
   -1.9319   -2.0160   -0.0183 O   0  0  0  0  0  0  0  0  0  0  0  0
   -1.7550   -3.5819   -1.5152 N   0  0  0  0  0  0  0  0  0  0  0  0
   -2.5628   -3.9858   -1.0738 H   0  0  0  0  0  0  0  0  0  0  0  0
   -1.2968   -3.9897   -2.3048 H   0  0  0  0  0  0  0  0  0  0  0  0
   -0.7011    1.2952    0.7149 C   0  0  0  0  0  0  0  0  0  0  0  0
   -1.5917    1.9198    0.1415 O   0  0  0  0  0  0  0  0  0  0  0  0
    0.1191    1.8675    1.6055 N   0  0  0  0  0  0  0  0  0  0  0  0
    0.8092    1.2861    2.0537 H   0  0  0  0  0  0  0  0  0  0  0  0
    0.0509    3.2769    1.9894 C   0  0  0  0  0  0  0  0  0  0  0  0
   -0.9494    3.5076    2.3640 H   0  0  0  0  0  0  0  0  0  0  0  0
    0.7844    3.4956    2.7668 H   0  0  0  0  0  0  0  0  0  0  0  0
    0.2468    3.9058    1.1193 H   0  0  0  0  0  0  0  0  0  0  0  0
  5  6  2  0  0  0  0
  5  7  1  0  0  0  0
  2  3  1  0  0  0  0
  2  4  1  0  0  0  0
  2  5  1  0  0  0  0
  1  2  1  0  0  0  0
 22 23  2  0  0  0  0
 22 24  1  0  0  0  0
 19 20  1  0  0  0  0
 19 21  1  0  0  0  0
 17 18  2  0  0  0  0
 17 19  1  0  0  0  0
 14 15  1  0  0  0  0
 14 16  1  0  0  0  0
 14 17  1  0  0  0  0
 11 12  1  0  0  0  0
 11 13  1  0  0  0  0
 11 14  1  0  0  0  0
  9 10  1  0  0  0  0
  9 11  1  0  0  0  0
  9 22  1  0  0  0  0
  7  8  1  0  0  0  0
  7  9  1  0  0  0  0
 26 27  1  0  0  0  0
 26 28  1  0  0  0  0
 26 29  1  0  0  0  0
 24 25  1  0  0  0  0
 24 26  1  0  0  0  0
M  END
$$$$
default_name
  -OEChem-02102213163D

 29 28  0     1  0  0  0  0  0999 V2000
   -3.3998   -3.6239    1.3678 H   0  0  0  0  0  0  0  0  0  0  0  0
   -3.3608   -2.6749    0.8348 C   0  0  0  0  0  0  0  0  0  0  0  0
   -4.0988   -1.9909    1.2498 H   0  0  0  0  0  0  0  0  0  0  0  0
   -3.5618   -2.8419   -0.2222 H   0  0  0  0  0  0  0  0  0  0  0  0
   -1.9818   -2.0809    0.9918 C   0  0  0  0  0  0  0  0  0  0  0  0
   -1.1288   -2.6669    1.6468 O   0  0  0  0  0  0  0  0  0  0  0  0
   -1.7648   -0.9089    0.3998 N   0  0  0  0  0  0  0  0  0  0  0  0
   -2.5238   -0.4719   -0.1032 H   0  0  0  0  0  0  0  0  0  0  0  0
   -0.4848   -0.1959    0.4138 C   0  0  1  0  0  0  0  0  0  0  0  0
    0.1386   -0.6144    1.2058 H   0  0  0  0  0  0  0  0  0  0  0  0
    0.2271   -0.4272   -0.9334 C   0  0  0  0  0  0  0  0  0  0  0  0
   -0.0697    0.3687   -1.6197 H   0  0  0  0  0  0  0  0  0  0  0  0
    1.3057   -0.3626   -0.7823 H   0  0  0  0  0  0  0  0  0  0  0  0
   -0.1033   -1.7800   -1.5878 C   0  0  0  0  0  0  0  0  0  0  0  0
   -0.0329   -1.6904   -2.6716 H   0  0  0  0  0  0  0  0  0  0  0  0
    0.6213   -2.5217   -1.2519 H   0  0  0  0  0  0  0  0  0  0  0  0
   -1.5042   -2.2872   -1.2460 C   0  0  0  0  0  0  0  0  0  0  0  0
   -2.2522   -1.7174   -0.4737 O   0  0  0  0  0  0  0  0  0  0  0  0
   -1.9275   -3.3919   -1.8210 N   0  0  0  0  0  0  0  0  0  0  0  0
   -2.8552   -3.6787   -1.5610 H   0  0  0  0  0  0  0  0  0  0  0  0
   -1.3545   -3.8979   -2.4654 H   0  0  0  0  0  0  0  0  0  0  0  0
   -0.7011    1.2952    0.7149 C   0  0  0  0  0  0  0  0  0  0  0  0
   -1.5917    1.9198    0.1415 O   0  0  0  0  0  0  0  0  0  0  0  0
    0.1191    1.8675    1.6055 N   0  0  0  0  0  0  0  0  0  0  0  0
    0.8092    1.2861    2.0537 H   0  0  0  0  0  0  0  0  0  0  0  0
    0.0509    3.2769    1.9894 C   0  0  0  0  0  0  0  0  0  0  0  0
   -0.9494    3.5076    2.3640 H   0  0  0  0  0  0  0  0  0  0  0  0
    0.7844    3.4956    2.7668 H   0  0  0  0  0  0  0  0  0  0  0  0
    0.2468    3.9058    1.1193 H   0  0  0  0  0  0  0  0  0  0  0  0
  5  6  2  0  0  0  0
  5  7  1  0  0  0  0
  2  3  1  0  0  0  0
  2  4  1  0  0  0  0
  2  5  1  0  0  0  0
  1  2  1  0  0  0  0
 22 23  2  0  0  0  0
 22 24  1  0  0  0  0
 19 20  1  0  0  0  0
 19 21  1  0  0  0  0
 17 18  2  0  0  0  0
 17 19  1  0  0  0  0
 14 15  1  0  0  0  0
 14 16  1  0  0  0  0
 14 17  1  0  0  0  0
 11 12  1  0  0  0  0
 11 13  1  0  0  0  0
 11 14  1  0  0  0  0
  9 10  1  0  0  0  0
  9 11  1  0  0  0  0
  9 22  1  0  0  0  0
  7  8  1  0  0  0  0
  7  9  1  0  0  0  0
 26 27  1  0  0  0  0
 26 28  1  0  0  0  0
 26 29  1  0  0  0  0
 24 25  1  0  0  0  0
 24 26  1  0  0  0  0
M  END
$$$$
default_name
  -OEChem-02102213163D

 29 28  0     1  0  0  0  0  0999 V2000
   -3.3998   -3.6239    1.3678 H   0  0  0  0  0  0  0  0  0  0  0  0
   -3.3608   -2.6749    0.8348 C   0  0  0  0  0  0  0  0  0  0  0  0
   -4.0988   -1.9909    1.2498 H   0  0  0  0  0  0  0  0  0  0  0  0
   -3.5618   -2.8419   -0.2222 H   0  0  0  0  0  0  0  0  0  0  0  0
   -1.9818   -2.0809    0.9918 C   0  0  0  0  0  0  0  0  0  0  0  0
   -1.1288   -2.6669    1.6468 O   0  0  0  0  0  0  0  0  0  0  0  0
   -1.7648   -0.9089    0.3998 N   0  0  0  0  0  0  0  0  0  0  0  0
   -2.5238   -0.4719   -0.1032 H   0  0  0  0  0  0  0  0  0  0  0  0
   -0.4848   -0.1959    0.4138 C   0  0  1  0  0  0  0  0  0  0  0  0
    0.1386   -0.6144    1.2058 H   0  0  0  0  0  0  0  0  0  0  0  0
    0.2271   -0.4272   -0.9334 C   0  0  0  0  0  0  0  0  0  0  0  0
   -0.0697    0.3687   -1.6197 H   0  0  0  0  0  0  0  0  0  0  0  0
    1.3057   -0.3626   -0.7823 H   0  0  0  0  0  0  0  0  0  0  0  0
   -0.1033   -1.7800   -1.5878 C   0  0  0  0  0  0  0  0  0  0  0  0
    0.2185   -1.7724   -2.6290 H   0  0  0  0  0  0  0  0  0  0  0  0
    0.4359   -2.5681   -1.0624 H   0  0  0  0  0  0  0  0  0  0  0  0
   -1.5945   -2.1147   -1.5570 C   0  0  0  0  0  0  0  0  0  0  0  0
   -2.4251   -1.4190   -1.0032 O   0  0  0  0  0  0  0  0  0  0  0  0
   -2.0037   -3.2063   -2.1663 N   0  0  0  0  0  0  0  0  0  0  0  0
   -2.9930   -3.3769   -2.1152 H   0  0  0  0  0  0  0  0  0  0  0  0
   -1.3636   -3.8118   -2.6388 H   0  0  0  0  0  0  0  0  0  0  0  0
   -0.7011    1.2952    0.7149 C   0  0  0  0  0  0  0  0  0  0  0  0
   -1.5917    1.9198    0.1415 O   0  0  0  0  0  0  0  0  0  0  0  0
    0.1191    1.8675    1.6055 N   0  0  0  0  0  0  0  0  0  0  0  0
    0.8092    1.2861    2.0537 H   0  0  0  0  0  0  0  0  0  0  0  0
    0.0509    3.2769    1.9894 C   0  0  0  0  0  0  0  0  0  0  0  0
   -0.9494    3.5076    2.3640 H   0  0  0  0  0  0  0  0  0  0  0  0
    0.7844    3.4956    2.7668 H   0  0  0  0  0  0  0  0  0  0  0  0
    0.2468    3.9058    1.1193 H   0  0  0  0  0  0  0  0  0  0  0  0
  5  6  2  0  0  0  0
  5  7  1  0  0  0  0
  2  3  1  0  0  0  0
  2  4  1  0  0  0  0
  2  5  1  0  0  0  0
  1  2  1  0  0  0  0
 22 23  2  0  0  0  0
 22 24  1  0  0  0  0
 19 20  1  0  0  0  0
 19 21  1  0  0  0  0
 17 18  2  0  0  0  0
 17 19  1  0  0  0  0
 14 15  1  0  0  0  0
 14 16  1  0  0  0  0
 14 17  1  0  0  0  0
 11 12  1  0  0  0  0
 11 13  1  0  0  0  0
 11 14  1  0  0  0  0
  9 10  1  0  0  0  0
  9 11  1  0  0  0  0
  9 22  1  0  0  0  0
  7  8  1  0  0  0  0
  7  9  1  0  0  0  0
 26 27  1  0  0  0  0
 26 28  1  0  0  0  0
 26 29  1  0  0  0  0
 24 25  1  0  0  0  0
 24 26  1  0  0  0  0
M  END
$$$$
default_name
  -OEChem-02102213163D

 29 28  0     1  0  0  0  0  0999 V2000
   -3.3998   -3.6239    1.3678 H   0  0  0  0  0  0  0  0  0  0  0  0
   -3.3608   -2.6749    0.8348 C   0  0  0  0  0  0  0  0  0  0  0  0
   -4.0988   -1.9909    1.2498 H   0  0  0  0  0  0  0  0  0  0  0  0
   -3.5618   -2.8419   -0.2222 H   0  0  0  0  0  0  0  0  0  0  0  0
   -1.9818   -2.0809    0.9918 C   0  0  0  0  0  0  0  0  0  0  0  0
   -1.1288   -2.6669    1.6468 O   0  0  0  0  0  0  0  0  0  0  0  0
   -1.7648   -0.9089    0.3998 N   0  0  0  0  0  0  0  0  0  0  0  0
   -2.5238   -0.4719   -0.1032 H   0  0  0  0  0  0  0  0  0  0  0  0
   -0.4848   -0.1959    0.4138 C   0  0  1  0  0  0  0  0  0  0  0  0
    0.1386   -0.6144    1.2058 H   0  0  0  0  0  0  0  0  0  0  0  0
    0.2271   -0.4272   -0.9334 C   0  0  0  0  0  0  0  0  0  0  0  0
   -0.0697    0.3687   -1.6197 H   0  0  0  0  0  0  0  0  0  0  0  0
    1.3057   -0.3626   -0.7823 H   0  0  0  0  0  0  0  0  0  0  0  0
   -0.1033   -1.7800   -1.5878 C   0  0  0  0  0  0  0  0  0  0  0  0
    0.4426   -1.8770   -2.5260 H   0  0  0  0  0  0  0  0  0  0  0  0
    0.2086   -2.5820   -0.9189 H   0  0  0  0  0  0  0  0  0  0  0  0
   -1.5919   -1.9554   -1.8875 C   0  0  0  0  0  0  0  0  0  0  0  0
   -2.4388   -1.1412   -1.5706 O   0  0  0  0  0  0  0  0  0  0  0  0
   -1.9783   -3.0378   -2.5274 N   0  0  0  0  0  0  0  0  0  0  0  0
   -2.9668   -3.1011   -2.6986 H   0  0  0  0  0  0  0  0  0  0  0  0
   -1.3235   -3.7373   -2.8131 H   0  0  0  0  0  0  0  0  0  0  0  0
   -0.7011    1.2952    0.7149 C   0  0  0  0  0  0  0  0  0  0  0  0
   -1.5917    1.9198    0.1415 O   0  0  0  0  0  0  0  0  0  0  0  0
    0.1191    1.8675    1.6055 N   0  0  0  0  0  0  0  0  0  0  0  0
    0.8092    1.2861    2.0537 H   0  0  0  0  0  0  0  0  0  0  0  0
    0.0509    3.2769    1.9894 C   0  0  0  0  0  0  0  0  0  0  0  0
   -0.9494    3.5076    2.3640 H   0  0  0  0  0  0  0  0  0  0  0  0
    0.7844    3.4956    2.7668 H   0  0  0  0  0  0  0  0  0  0  0  0
    0.2468    3.9058    1.1193 H   0  0  0  0  0  0  0  0  0  0  0  0
  5  6  2  0  0  0  0
  5  7  1  0  0  0  0
  2  3  1  0  0  0  0
  2  4  1  0  0  0  0
  2  5  1  0  0  0  0
  1  2  1  0  0  0  0
 22 23  2  0  0  0  0
 22 24  1  0  0  0  0
 19 20  1  0  0  0  0
 19 21  1  0  0  0  0
 17 18  2  0  0  0  0
 17 19  1  0  0  0  0
 14 15  1  0  0  0  0
 14 16  1  0  0  0  0
 14 17  1  0  0  0  0
 11 12  1  0  0  0  0
 11 13  1  0  0  0  0
 11 14  1  0  0  0  0
  9 10  1  0  0  0  0
  9 11  1  0  0  0  0
  9 22  1  0  0  0  0
  7  8  1  0  0  0  0
  7  9  1  0  0  0  0
 26 27  1  0  0  0  0
 26 28  1  0  0  0  0
 26 29  1  0  0  0  0
 24 25  1  0  0  0  0
 24 26  1  0  0  0  0
M  END
$$$$
default_name
  -OEChem-02102213163D

 29 28  0     1  0  0  0  0  0999 V2000
   -3.3998   -3.6239    1.3678 H   0  0  0  0  0  0  0  0  0  0  0  0
   -3.3608   -2.6749    0.8348 C   0  0  0  0  0  0  0  0  0  0  0  0
   -4.0988   -1.9909    1.2498 H   0  0  0  0  0  0  0  0  0  0  0  0
   -3.5618   -2.8419   -0.2222 H   0  0  0  0  0  0  0  0  0  0  0  0
   -1.9818   -2.0809    0.9918 C   0  0  0  0  0  0  0  0  0  0  0  0
   -1.1288   -2.6669    1.6468 O   0  0  0  0  0  0  0  0  0  0  0  0
   -1.7648   -0.9089    0.3998 N   0  0  0  0  0  0  0  0  0  0  0  0
   -2.5238   -0.4719   -0.1032 H   0  0  0  0  0  0  0  0  0  0  0  0
   -0.4848   -0.1959    0.4138 C   0  0  1  0  0  0  0  0  0  0  0  0
    0.1386   -0.6144    1.2058 H   0  0  0  0  0  0  0  0  0  0  0  0
    0.2271   -0.4272   -0.9334 C   0  0  0  0  0  0  0  0  0  0  0  0
   -0.0697    0.3687   -1.6197 H   0  0  0  0  0  0  0  0  0  0  0  0
    1.3057   -0.3626   -0.7823 H   0  0  0  0  0  0  0  0  0  0  0  0
   -0.1033   -1.7800   -1.5878 C   0  0  0  0  0  0  0  0  0  0  0  0
    0.6241   -1.9969   -2.3698 H   0  0  0  0  0  0  0  0  0  0  0  0
   -0.0451   -2.5625   -0.8313 H   0  0  0  0  0  0  0  0  0  0  0  0
   -1.4967   -1.8203   -2.2150 C   0  0  0  0  0  0  0  0  0  0  0  0
   -2.2924   -0.9029   -2.1371 O   0  0  0  0  0  0  0  0  0  0  0  0
   -1.8530   -2.8979   -2.8798 N   0  0  0  0  0  0  0  0  0  0  0  0
   -2.7783   -2.8700   -3.2715 H   0  0  0  0  0  0  0  0  0  0  0  0
   -1.2369   -3.6794   -2.9766 H   0  0  0  0  0  0  0  0  0  0  0  0
   -0.7011    1.2952    0.7149 C   0  0  0  0  0  0  0  0  0  0  0  0
   -1.5917    1.9198    0.1415 O   0  0  0  0  0  0  0  0  0  0  0  0
    0.1191    1.8675    1.6055 N   0  0  0  0  0  0  0  0  0  0  0  0
    0.8092    1.2861    2.0537 H   0  0  0  0  0  0  0  0  0  0  0  0
    0.0509    3.2769    1.9894 C   0  0  0  0  0  0  0  0  0  0  0  0
   -0.9494    3.5076    2.3640 H   0  0  0  0  0  0  0  0  0  0  0  0
    0.7844    3.4956    2.7668 H   0  0  0  0  0  0  0  0  0  0  0  0
    0.2468    3.9058    1.1193 H   0  0  0  0  0  0  0  0  0  0  0  0
  5  6  2  0  0  0  0
  5  7  1  0  0  0  0
  2  3  1  0  0  0  0
  2  4  1  0  0  0  0
  2  5  1  0  0  0  0
  1  2  1  0  0  0  0
 22 23  2  0  0  0  0
 22 24  1  0  0  0  0
 19 20  1  0  0  0  0
 19 21  1  0  0  0  0
 17 18  2  0  0  0  0
 17 19  1  0  0  0  0
 14 15  1  0  0  0  0
 14 16  1  0  0  0  0
 14 17  1  0  0  0  0
 11 12  1  0  0  0  0
 11 13  1  0  0  0  0
 11 14  1  0  0  0  0
  9 10  1  0  0  0  0
  9 11  1  0  0  0  0
  9 22  1  0  0  0  0
  7  8  1  0  0  0  0
  7  9  1  0  0  0  0
 26 27  1  0  0  0  0
 26 28  1  0  0  0  0
 26 29  1  0  0  0  0
 24 25  1  0  0  0  0
 24 26  1  0  0  0  0
M  END
$$$$
default_name
  -OEChem-02102213163D

 29 28  0     1  0  0  0  0  0999 V2000
   -3.3998   -3.6239    1.3678 H   0  0  0  0  0  0  0  0  0  0  0  0
   -3.3608   -2.6749    0.8348 C   0  0  0  0  0  0  0  0  0  0  0  0
   -4.0988   -1.9909    1.2498 H   0  0  0  0  0  0  0  0  0  0  0  0
   -3.5618   -2.8419   -0.2222 H   0  0  0  0  0  0  0  0  0  0  0  0
   -1.9818   -2.0809    0.9918 C   0  0  0  0  0  0  0  0  0  0  0  0
   -1.1288   -2.6669    1.6468 O   0  0  0  0  0  0  0  0  0  0  0  0
   -1.7648   -0.9089    0.3998 N   0  0  0  0  0  0  0  0  0  0  0  0
   -2.5238   -0.4719   -0.1032 H   0  0  0  0  0  0  0  0  0  0  0  0
   -0.4848   -0.1959    0.4138 C   0  0  1  0  0  0  0  0  0  0  0  0
    0.1386   -0.6144    1.2058 H   0  0  0  0  0  0  0  0  0  0  0  0
    0.2271   -0.4272   -0.9334 C   0  0  0  0  0  0  0  0  0  0  0  0
   -0.0697    0.3687   -1.6197 H   0  0  0  0  0  0  0  0  0  0  0  0
    1.3057   -0.3626   -0.7823 H   0  0  0  0  0  0  0  0  0  0  0  0
   -0.1033   -1.7800   -1.5878 C   0  0  0  0  0  0  0  0  0  0  0  0
    0.7507   -2.1240   -2.1708 H   0  0  0  0  0  0  0  0  0  0  0  0
   -0.3079   -2.5108   -0.8055 H   0  0  0  0  0  0  0  0  0  0  0  0
   -1.3154   -1.7184   -2.5171 C   0  0  0  0  0  0  0  0  0  0  0  0
   -1.9957   -0.7204   -2.6643 O   0  0  0  0  0  0  0  0  0  0  0  0
   -1.6364   -2.7962   -3.1994 N   0  0  0  0  0  0  0  0  0  0  0  0
   -2.4405   -2.6994   -3.7949 H   0  0  0  0  0  0  0  0  0  0  0  0
   -1.1096   -3.6421   -3.1179 H   0  0  0  0  0  0  0  0  0  0  0  0
   -0.7011    1.2952    0.7149 C   0  0  0  0  0  0  0  0  0  0  0  0
   -1.5917    1.9198    0.1415 O   0  0  0  0  0  0  0  0  0  0  0  0
    0.1191    1.8675    1.6055 N   0  0  0  0  0  0  0  0  0  0  0  0
    0.8092    1.2861    2.0537 H   0  0  0  0  0  0  0  0  0  0  0  0
    0.0509    3.2769    1.9894 C   0  0  0  0  0  0  0  0  0  0  0  0
   -0.9494    3.5076    2.3640 H   0  0  0  0  0  0  0  0  0  0  0  0
    0.7844    3.4956    2.7668 H   0  0  0  0  0  0  0  0  0  0  0  0
    0.2468    3.9058    1.1193 H   0  0  0  0  0  0  0  0  0  0  0  0
  5  6  2  0  0  0  0
  5  7  1  0  0  0  0
  2  3  1  0  0  0  0
  2  4  1  0  0  0  0
  2  5  1  0  0  0  0
  1  2  1  0  0  0  0
 22 23  2  0  0  0  0
 22 24  1  0  0  0  0
 19 20  1  0  0  0  0
 19 21  1  0  0  0  0
 17 18  2  0  0  0  0
 17 19  1  0  0  0  0
 14 15  1  0  0  0  0
 14 16  1  0  0  0  0
 14 17  1  0  0  0  0
 11 12  1  0  0  0  0
 11 13  1  0  0  0  0
 11 14  1  0  0  0  0
  9 10  1  0  0  0  0
  9 11  1  0  0  0  0
  9 22  1  0  0  0  0
  7  8  1  0  0  0  0
  7  9  1  0  0  0  0
 26 27  1  0  0  0  0
 26 28  1  0  0  0  0
 26 29  1  0  0  0  0
 24 25  1  0  0  0  0
 24 26  1  0  0  0  0
M  END
$$$$
default_name
  -OEChem-02102213163D

 29 28  0     1  0  0  0  0  0999 V2000
   -3.3998   -3.6239    1.3678 H   0  0  0  0  0  0  0  0  0  0  0  0
   -3.3608   -2.6749    0.8348 C   0  0  0  0  0  0  0  0  0  0  0  0
   -4.0988   -1.9909    1.2498 H   0  0  0  0  0  0  0  0  0  0  0  0
   -3.5618   -2.8419   -0.2222 H   0  0  0  0  0  0  0  0  0  0  0  0
   -1.9818   -2.0809    0.9918 C   0  0  0  0  0  0  0  0  0  0  0  0
   -1.1288   -2.6669    1.6468 O   0  0  0  0  0  0  0  0  0  0  0  0
   -1.7648   -0.9089    0.3998 N   0  0  0  0  0  0  0  0  0  0  0  0
   -2.5238   -0.4719   -0.1032 H   0  0  0  0  0  0  0  0  0  0  0  0
   -0.4848   -0.1959    0.4138 C   0  0  1  0  0  0  0  0  0  0  0  0
    0.1386   -0.6144    1.2058 H   0  0  0  0  0  0  0  0  0  0  0  0
    0.2271   -0.4272   -0.9334 C   0  0  0  0  0  0  0  0  0  0  0  0
   -0.0697    0.3687   -1.6197 H   0  0  0  0  0  0  0  0  0  0  0  0
    1.3057   -0.3626   -0.7823 H   0  0  0  0  0  0  0  0  0  0  0  0
   -0.1033   -1.7800   -1.5878 C   0  0  0  0  0  0  0  0  0  0  0  0
    0.8137   -2.2497   -1.9428 H   0  0  0  0  0  0  0  0  0  0  0  0
   -0.5620   -2.4305   -0.8432 H   0  0  0  0  0  0  0  0  0  0  0  0
   -1.0602   -1.6567   -2.7734 C   0  0  0  0  0  0  0  0  0  0  0  0
   -1.5692   -0.6060   -3.1162 O   0  0  0  0  0  0  0  0  0  0  0  0
   -1.3432   -2.7395   -3.4645 N   0  0  0  0  0  0  0  0  0  0  0  0
   -1.9763   -2.6008   -4.2330 H   0  0  0  0  0  0  0  0  0  0  0  0
   -0.9504   -3.6279   -3.2276 H   0  0  0  0  0  0  0  0  0  0  0  0
   -0.7011    1.2952    0.7149 C   0  0  0  0  0  0  0  0  0  0  0  0
   -1.5917    1.9198    0.1415 O   0  0  0  0  0  0  0  0  0  0  0  0
    0.1191    1.8675    1.6055 N   0  0  0  0  0  0  0  0  0  0  0  0
    0.8092    1.2861    2.0537 H   0  0  0  0  0  0  0  0  0  0  0  0
    0.0509    3.2769    1.9894 C   0  0  0  0  0  0  0  0  0  0  0  0
   -0.9494    3.5076    2.3640 H   0  0  0  0  0  0  0  0  0  0  0  0
    0.7844    3.4956    2.7668 H   0  0  0  0  0  0  0  0  0  0  0  0
    0.2468    3.9058    1.1193 H   0  0  0  0  0  0  0  0  0  0  0  0
  5  6  2  0  0  0  0
  5  7  1  0  0  0  0
  2  3  1  0  0  0  0
  2  4  1  0  0  0  0
  2  5  1  0  0  0  0
  1  2  1  0  0  0  0
 22 23  2  0  0  0  0
 22 24  1  0  0  0  0
 19 20  1  0  0  0  0
 19 21  1  0  0  0  0
 17 18  2  0  0  0  0
 17 19  1  0  0  0  0
 14 15  1  0  0  0  0
 14 16  1  0  0  0  0
 14 17  1  0  0  0  0
 11 12  1  0  0  0  0
 11 13  1  0  0  0  0
 11 14  1  0  0  0  0
  9 10  1  0  0  0  0
  9 11  1  0  0  0  0
  9 22  1  0  0  0  0
  7  8  1  0  0  0  0
  7  9  1  0  0  0  0
 26 27  1  0  0  0  0
 26 28  1  0  0  0  0
 26 29  1  0  0  0  0
 24 25  1  0  0  0  0
 24 26  1  0  0  0  0
M  END
$$$$
default_name
  -OEChem-02102213163D

 29 28  0     1  0  0  0  0  0999 V2000
   -3.3998   -3.6239    1.3678 H   0  0  0  0  0  0  0  0  0  0  0  0
   -3.3608   -2.6749    0.8348 C   0  0  0  0  0  0  0  0  0  0  0  0
   -4.0988   -1.9909    1.2498 H   0  0  0  0  0  0  0  0  0  0  0  0
   -3.5618   -2.8419   -0.2222 H   0  0  0  0  0  0  0  0  0  0  0  0
   -1.9818   -2.0809    0.9918 C   0  0  0  0  0  0  0  0  0  0  0  0
   -1.1288   -2.6669    1.6468 O   0  0  0  0  0  0  0  0  0  0  0  0
   -1.7648   -0.9089    0.3998 N   0  0  0  0  0  0  0  0  0  0  0  0
   -2.5238   -0.4719   -0.1032 H   0  0  0  0  0  0  0  0  0  0  0  0
   -0.4848   -0.1959    0.4138 C   0  0  1  0  0  0  0  0  0  0  0  0
    0.1386   -0.6144    1.2058 H   0  0  0  0  0  0  0  0  0  0  0  0
    0.2271   -0.4272   -0.9334 C   0  0  0  0  0  0  0  0  0  0  0  0
   -0.0697    0.3687   -1.6197 H   0  0  0  0  0  0  0  0  0  0  0  0
    1.3057   -0.3626   -0.7823 H   0  0  0  0  0  0  0  0  0  0  0  0
   -0.1033   -1.7800   -1.5878 C   0  0  0  0  0  0  0  0  0  0  0  0
    0.8089   -2.3654   -1.7013 H   0  0  0  0  0  0  0  0  0  0  0  0
   -0.7900   -2.3270   -0.9419 H   0  0  0  0  0  0  0  0  0  0  0  0
   -0.7487   -1.6395   -2.9664 C   0  0  0  0  0  0  0  0  0  0  0  0
   -1.0417   -0.5676   -3.4619 O   0  0  0  0  0  0  0  0  0  0  0  0
   -0.9935   -2.7318   -3.6571 N   0  0  0  0  0  0  0  0  0  0  0  0
   -1.4173   -2.5811   -4.5560 H   0  0  0  0  0  0  0  0  0  0  0  0
   -0.7702   -3.6379   -3.2980 H   0  0  0  0  0  0  0  0  0  0  0  0
   -0.7011    1.2952    0.7149 C   0  0  0  0  0  0  0  0  0  0  0  0
   -1.5917    1.9198    0.1415 O   0  0  0  0  0  0  0  0  0  0  0  0
    0.1191    1.8675    1.6055 N   0  0  0  0  0  0  0  0  0  0  0  0
    0.8092    1.2861    2.0537 H   0  0  0  0  0  0  0  0  0  0  0  0
    0.0509    3.2769    1.9894 C   0  0  0  0  0  0  0  0  0  0  0  0
   -0.9494    3.5076    2.3640 H   0  0  0  0  0  0  0  0  0  0  0  0
    0.7844    3.4956    2.7668 H   0  0  0  0  0  0  0  0  0  0  0  0
    0.2468    3.9058    1.1193 H   0  0  0  0  0  0  0  0  0  0  0  0
  5  6  2  0  0  0  0
  5  7  1  0  0  0  0
  2  3  1  0  0  0  0
  2  4  1  0  0  0  0
  2  5  1  0  0  0  0
  1  2  1  0  0  0  0
 22 23  2  0  0  0  0
 22 24  1  0  0  0  0
 19 20  1  0  0  0  0
 19 21  1  0  0  0  0
 17 18  2  0  0  0  0
 17 19  1  0  0  0  0
 14 15  1  0  0  0  0
 14 16  1  0  0  0  0
 14 17  1  0  0  0  0
 11 12  1  0  0  0  0
 11 13  1  0  0  0  0
 11 14  1  0  0  0  0
  9 10  1  0  0  0  0
  9 11  1  0  0  0  0
  9 22  1  0  0  0  0
  7  8  1  0  0  0  0
  7  9  1  0  0  0  0
 26 27  1  0  0  0  0
 26 28  1  0  0  0  0
 26 29  1  0  0  0  0
 24 25  1  0  0  0  0
 24 26  1  0  0  0  0
M  END
$$$$
default_name
  -OEChem-02102213163D

 29 28  0     1  0  0  0  0  0999 V2000
   -3.3998   -3.6239    1.3678 H   0  0  0  0  0  0  0  0  0  0  0  0
   -3.3608   -2.6749    0.8348 C   0  0  0  0  0  0  0  0  0  0  0  0
   -4.0988   -1.9909    1.2498 H   0  0  0  0  0  0  0  0  0  0  0  0
   -3.5618   -2.8419   -0.2222 H   0  0  0  0  0  0  0  0  0  0  0  0
   -1.9818   -2.0809    0.9918 C   0  0  0  0  0  0  0  0  0  0  0  0
   -1.1288   -2.6669    1.6468 O   0  0  0  0  0  0  0  0  0  0  0  0
   -1.7648   -0.9089    0.3998 N   0  0  0  0  0  0  0  0  0  0  0  0
   -2.5238   -0.4719   -0.1032 H   0  0  0  0  0  0  0  0  0  0  0  0
   -0.4848   -0.1959    0.4138 C   0  0  1  0  0  0  0  0  0  0  0  0
    0.1386   -0.6144    1.2058 H   0  0  0  0  0  0  0  0  0  0  0  0
    0.2271   -0.4272   -0.9334 C   0  0  0  0  0  0  0  0  0  0  0  0
   -0.0697    0.3687   -1.6197 H   0  0  0  0  0  0  0  0  0  0  0  0
    1.3057   -0.3626   -0.7823 H   0  0  0  0  0  0  0  0  0  0  0  0
   -0.1033   -1.7800   -1.5878 C   0  0  0  0  0  0  0  0  0  0  0  0
    0.7365   -2.4631   -1.4626 H   0  0  0  0  0  0  0  0  0  0  0  0
   -0.9764   -2.2075   -1.0949 H   0  0  0  0  0  0  0  0  0  0  0  0
   -0.4019   -1.6679   -3.0828 C   0  0  0  0  0  0  0  0  0  0  0  0
   -0.4493   -0.6077   -3.6780 O   0  0  0  0  0  0  0  0  0  0  0  0
   -0.6111   -2.7736   -3.7639 N   0  0  0  0  0  0  0  0  0  0  0  0
   -0.8017   -2.6415   -4.7420 H   0  0  0  0  0  0  0  0  0  0  0  0
   -0.5811   -3.6712   -3.3245 H   0  0  0  0  0  0  0  0  0  0  0  0
   -0.7011    1.2952    0.7149 C   0  0  0  0  0  0  0  0  0  0  0  0
   -1.5917    1.9198    0.1415 O   0  0  0  0  0  0  0  0  0  0  0  0
    0.1191    1.8675    1.6055 N   0  0  0  0  0  0  0  0  0  0  0  0
    0.8092    1.2861    2.0537 H   0  0  0  0  0  0  0  0  0  0  0  0
    0.0509    3.2769    1.9894 C   0  0  0  0  0  0  0  0  0  0  0  0
   -0.9494    3.5076    2.3640 H   0  0  0  0  0  0  0  0  0  0  0  0
    0.7844    3.4956    2.7668 H   0  0  0  0  0  0  0  0  0  0  0  0
    0.2468    3.9058    1.1193 H   0  0  0  0  0  0  0  0  0  0  0  0
  5  6  2  0  0  0  0
  5  7  1  0  0  0  0
  2  3  1  0  0  0  0
  2  4  1  0  0  0  0
  2  5  1  0  0  0  0
  1  2  1  0  0  0  0
 22 23  2  0  0  0  0
 22 24  1  0  0  0  0
 19 20  1  0  0  0  0
 19 21  1  0  0  0  0
 17 18  2  0  0  0  0
 17 19  1  0  0  0  0
 14 15  1  0  0  0  0
 14 16  1  0  0  0  0
 14 17  1  0  0  0  0
 11 12  1  0  0  0  0
 11 13  1  0  0  0  0
 11 14  1  0  0  0  0
  9 10  1  0  0  0  0
  9 11  1  0  0  0  0
  9 22  1  0  0  0  0
  7  8  1  0  0  0  0
  7  9  1  0  0  0  0
 26 27  1  0  0  0  0
 26 28  1  0  0  0  0
 26 29  1  0  0  0  0
 24 25  1  0  0  0  0
 24 26  1  0  0  0  0
M  END
$$$$
default_name
  -OEChem-02102213163D

 29 28  0     1  0  0  0  0  0999 V2000
   -3.3998   -3.6239    1.3678 H   0  0  0  0  0  0  0  0  0  0  0  0
   -3.3608   -2.6749    0.8348 C   0  0  0  0  0  0  0  0  0  0  0  0
   -4.0988   -1.9909    1.2498 H   0  0  0  0  0  0  0  0  0  0  0  0
   -3.5618   -2.8419   -0.2222 H   0  0  0  0  0  0  0  0  0  0  0  0
   -1.9818   -2.0809    0.9918 C   0  0  0  0  0  0  0  0  0  0  0  0
   -1.1288   -2.6669    1.6468 O   0  0  0  0  0  0  0  0  0  0  0  0
   -1.7648   -0.9089    0.3998 N   0  0  0  0  0  0  0  0  0  0  0  0
   -2.5238   -0.4719   -0.1032 H   0  0  0  0  0  0  0  0  0  0  0  0
   -0.4848   -0.1959    0.4138 C   0  0  1  0  0  0  0  0  0  0  0  0
    0.1386   -0.6144    1.2058 H   0  0  0  0  0  0  0  0  0  0  0  0
    0.2271   -0.4272   -0.9334 C   0  0  0  0  0  0  0  0  0  0  0  0
   -0.0697    0.3687   -1.6197 H   0  0  0  0  0  0  0  0  0  0  0  0
    1.3057   -0.3626   -0.7823 H   0  0  0  0  0  0  0  0  0  0  0  0
   -0.1033   -1.7800   -1.5878 C   0  0  0  0  0  0  0  0  0  0  0  0
    0.6015   -2.5363   -1.2431 H   0  0  0  0  0  0  0  0  0  0  0  0
   -1.1085   -2.0800   -1.2918 H   0  0  0  0  0  0  0  0  0  0  0  0
   -0.0436   -1.7399   -3.1147 C   0  0  0  0  0  0  0  0  0  0  0  0
    0.1677   -0.7237   -3.7497 O   0  0  0  0  0  0  0  0  0  0  0  0
   -0.2219   -2.8619   -3.7777 N   0  0  0  0  0  0  0  0  0  0  0  0
   -0.1715   -2.7779   -4.7782 H   0  0  0  0  0  0  0  0  0  0  0  0
   -0.3961   -3.7257   -3.3053 H   0  0  0  0  0  0  0  0  0  0  0  0
   -0.7011    1.2952    0.7149 C   0  0  0  0  0  0  0  0  0  0  0  0
   -1.5917    1.9198    0.1415 O   0  0  0  0  0  0  0  0  0  0  0  0
    0.1191    1.8675    1.6055 N   0  0  0  0  0  0  0  0  0  0  0  0
    0.8092    1.2861    2.0537 H   0  0  0  0  0  0  0  0  0  0  0  0
    0.0509    3.2769    1.9894 C   0  0  0  0  0  0  0  0  0  0  0  0
   -0.9494    3.5076    2.3640 H   0  0  0  0  0  0  0  0  0  0  0  0
    0.7844    3.4956    2.7668 H   0  0  0  0  0  0  0  0  0  0  0  0
    0.2468    3.9058    1.1193 H   0  0  0  0  0  0  0  0  0  0  0  0
  5  6  2  0  0  0  0
  5  7  1  0  0  0  0
  2  3  1  0  0  0  0
  2  4  1  0  0  0  0
  2  5  1  0  0  0  0
  1  2  1  0  0  0  0
 22 23  2  0  0  0  0
 22 24  1  0  0  0  0
 19 20  1  0  0  0  0
 19 21  1  0  0  0  0
 17 18  2  0  0  0  0
 17 19  1  0  0  0  0
 14 15  1  0  0  0  0
 14 16  1  0  0  0  0
 14 17  1  0  0  0  0
 11 12  1  0  0  0  0
 11 13  1  0  0  0  0
 11 14  1  0  0  0  0
  9 10  1  0  0  0  0
  9 11  1  0  0  0  0
  9 22  1  0  0  0  0
  7  8  1  0  0  0  0
  7  9  1  0  0  0  0
 26 27  1  0  0  0  0
 26 28  1  0  0  0  0
 26 29  1  0  0  0  0
 24 25  1  0  0  0  0
 24 26  1  0  0  0  0
M  END
$$$$
default_name
  -OEChem-02102213163D

 29 28  0     1  0  0  0  0  0999 V2000
   -3.3998   -3.6239    1.3678 H   0  0  0  0  0  0  0  0  0  0  0  0
   -3.3608   -2.6749    0.8348 C   0  0  0  0  0  0  0  0  0  0  0  0
   -4.0988   -1.9909    1.2498 H   0  0  0  0  0  0  0  0  0  0  0  0
   -3.5618   -2.8419   -0.2222 H   0  0  0  0  0  0  0  0  0  0  0  0
   -1.9818   -2.0809    0.9918 C   0  0  0  0  0  0  0  0  0  0  0  0
   -1.1288   -2.6669    1.6468 O   0  0  0  0  0  0  0  0  0  0  0  0
   -1.7648   -0.9089    0.3998 N   0  0  0  0  0  0  0  0  0  0  0  0
   -2.5238   -0.4719   -0.1032 H   0  0  0  0  0  0  0  0  0  0  0  0
   -0.4848   -0.1959    0.4138 C   0  0  1  0  0  0  0  0  0  0  0  0
    0.1386   -0.6144    1.2058 H   0  0  0  0  0  0  0  0  0  0  0  0
    0.2271   -0.4272   -0.9334 C   0  0  0  0  0  0  0  0  0  0  0  0
   -0.0697    0.3687   -1.6197 H   0  0  0  0  0  0  0  0  0  0  0  0
    1.3057   -0.3626   -0.7823 H   0  0  0  0  0  0  0  0  0  0  0  0
   -0.1033   -1.7800   -1.5878 C   0  0  0  0  0  0  0  0  0  0  0  0
    0.4131   -2.5800   -1.0578 H   0  0  0  0  0  0  0  0  0  0  0  0
   -1.1772   -1.9533   -1.5190 H   0  0  0  0  0  0  0  0  0  0  0  0
    0.3018   -1.8508   -3.0600 C   0  0  0  0  0  0  0  0  0  0  0  0
    0.7671   -0.9077   -3.6721 O   0  0  0  0  0  0  0  0  0  0  0  0
    0.1474   -2.9909   -3.6976 N   0  0  0  0  0  0  0  0  0  0  0  0
    0.4305   -2.9811   -4.6621 H   0  0  0  0  0  0  0  0  0  0  0  0
   -0.2279   -3.7977   -3.2415 H   0  0  0  0  0  0  0  0  0  0  0  0
   -0.7011    1.2952    0.7149 C   0  0  0  0  0  0  0  0  0  0  0  0
   -1.5917    1.9198    0.1415 O   0  0  0  0  0  0  0  0  0  0  0  0
    0.1191    1.8675    1.6055 N   0  0  0  0  0  0  0  0  0  0  0  0
    0.8092    1.2861    2.0537 H   0  0  0  0  0  0  0  0  0  0  0  0
    0.0509    3.2769    1.9894 C   0  0  0  0  0  0  0  0  0  0  0  0
   -0.9494    3.5076    2.3640 H   0  0  0  0  0  0  0  0  0  0  0  0
    0.7844    3.4956    2.7668 H   0  0  0  0  0  0  0  0  0  0  0  0
    0.2468    3.9058    1.1193 H   0  0  0  0  0  0  0  0  0  0  0  0
  5  6  2  0  0  0  0
  5  7  1  0  0  0  0
  2  3  1  0  0  0  0
  2  4  1  0  0  0  0
  2  5  1  0  0  0  0
  1  2  1  0  0  0  0
 22 23  2  0  0  0  0
 22 24  1  0  0  0  0
 19 20  1  0  0  0  0
 19 21  1  0  0  0  0
 17 18  2  0  0  0  0
 17 19  1  0  0  0  0
 14 15  1  0  0  0  0
 14 16  1  0  0  0  0
 14 17  1  0  0  0  0
 11 12  1  0  0  0  0
 11 13  1  0  0  0  0
 11 14  1  0  0  0  0
  9 10  1  0  0  0  0
  9 11  1  0  0  0  0
  9 22  1  0  0  0  0
  7  8  1  0  0  0  0
  7  9  1  0  0  0  0
 26 27  1  0  0  0  0
 26 28  1  0  0  0  0
 26 29  1  0  0  0  0
 24 25  1  0  0  0  0
 24 26  1  0  0  0  0
M  END
$$$$
default_name
  -OEChem-02102213163D

 29 28  0     1  0  0  0  0  0999 V2000
   -3.3998   -3.6239    1.3678 H   0  0  0  0  0  0  0  0  0  0  0  0
   -3.3608   -2.6749    0.8348 C   0  0  0  0  0  0  0  0  0  0  0  0
   -4.0988   -1.9909    1.2498 H   0  0  0  0  0  0  0  0  0  0  0  0
   -3.5618   -2.8419   -0.2222 H   0  0  0  0  0  0  0  0  0  0  0  0
   -1.9818   -2.0809    0.9918 C   0  0  0  0  0  0  0  0  0  0  0  0
   -1.1288   -2.6669    1.6468 O   0  0  0  0  0  0  0  0  0  0  0  0
   -1.7648   -0.9089    0.3998 N   0  0  0  0  0  0  0  0  0  0  0  0
   -2.5238   -0.4719   -0.1032 H   0  0  0  0  0  0  0  0  0  0  0  0
   -0.4848   -0.1959    0.4138 C   0  0  1  0  0  0  0  0  0  0  0  0
    0.1386   -0.6144    1.2058 H   0  0  0  0  0  0  0  0  0  0  0  0
    0.2271   -0.4272   -0.9334 C   0  0  0  0  0  0  0  0  0  0  0  0
    0.1525    0.4890   -1.5229 H   0  0  0  0  0  0  0  0  0  0  0  0
    1.2833   -0.6287   -0.7485 H   0  0  0  0  0  0  0  0  0  0  0  0
   -0.3629   -1.5841   -1.7586 C   0  0  0  0  0  0  0  0  0  0  0  0
   -0.2999   -2.5109   -1.1887 H   0  0  0  0  0  0  0  0  0  0  0  0
   -1.4121   -1.3726   -1.9645 H   0  0  0  0  0  0  0  0  0  0  0  0
    0.3546   -1.7995   -3.0910 C   0  0  0  0  0  0  0  0  0  0  0  0
    1.2505   -1.0806   -3.4925 O   0  0  0  0  0  0  0  0  0  0  0  0
   -0.0083   -2.8181   -3.8399 N   0  0  0  0  0  0  0  0  0  0  0  0
    0.4968   -2.9127   -4.7039 H   0  0  0  0  0  0  0  0  0  0  0  0
   -0.7369   -3.4414   -3.5563 H   0  0  0  0  0  0  0  0  0  0  0  0
   -0.7011    1.2952    0.7149 C   0  0  0  0  0  0  0  0  0  0  0  0
   -1.5917    1.9198    0.1415 O   0  0  0  0  0  0  0  0  0  0  0  0
    0.1191    1.8675    1.6055 N   0  0  0  0  0  0  0  0  0  0  0  0
    0.8092    1.2861    2.0537 H   0  0  0  0  0  0  0  0  0  0  0  0
    0.0509    3.2769    1.9894 C   0  0  0  0  0  0  0  0  0  0  0  0
   -0.9494    3.5076    2.3640 H   0  0  0  0  0  0  0  0  0  0  0  0
    0.7844    3.4956    2.7668 H   0  0  0  0  0  0  0  0  0  0  0  0
    0.2468    3.9058    1.1193 H   0  0  0  0  0  0  0  0  0  0  0  0
  5  6  2  0  0  0  0
  5  7  1  0  0  0  0
  2  3  1  0  0  0  0
  2  4  1  0  0  0  0
  2  5  1  0  0  0  0
  1  2  1  0  0  0  0
 22 23  2  0  0  0  0
 22 24  1  0  0  0  0
 19 20  1  0  0  0  0
 19 21  1  0  0  0  0
 17 18  2  0  0  0  0
 17 19  1  0  0  0  0
 14 15  1  0  0  0  0
 14 16  1  0  0  0  0
 14 17  1  0  0  0  0
 11 12  1  0  0  0  0
 11 13  1  0  0  0  0
 11 14  1  0  0  0  0
  9 10  1  0  0  0  0
  9 11  1  0  0  0  0
  9 22  1  0  0  0  0
  7  8  1  0  0  0  0
  7  9  1  0  0  0  0
 26 27  1  0  0  0  0
 26 28  1  0  0  0  0
 26 29  1  0  0  0  0
 24 25  1  0  0  0  0
 24 26  1  0  0  0  0
M  END
$$$$
default_name
  -OEChem-02102213163D

 29 28  0     1  0  0  0  0  0999 V2000
   -3.3998   -3.6239    1.3678 H   0  0  0  0  0  0  0  0  0  0  0  0
   -3.3608   -2.6749    0.8348 C   0  0  0  0  0  0  0  0  0  0  0  0
   -4.0988   -1.9909    1.2498 H   0  0  0  0  0  0  0  0  0  0  0  0
   -3.5618   -2.8419   -0.2222 H   0  0  0  0  0  0  0  0  0  0  0  0
   -1.9818   -2.0809    0.9918 C   0  0  0  0  0  0  0  0  0  0  0  0
   -1.1288   -2.6669    1.6468 O   0  0  0  0  0  0  0  0  0  0  0  0
   -1.7648   -0.9089    0.3998 N   0  0  0  0  0  0  0  0  0  0  0  0
   -2.5238   -0.4719   -0.1032 H   0  0  0  0  0  0  0  0  0  0  0  0
   -0.4848   -0.1959    0.4138 C   0  0  1  0  0  0  0  0  0  0  0  0
    0.1386   -0.6144    1.2058 H   0  0  0  0  0  0  0  0  0  0  0  0
    0.2271   -0.4272   -0.9334 C   0  0  0  0  0  0  0  0  0  0  0  0
    0.1525    0.4890   -1.5229 H   0  0  0  0  0  0  0  0  0  0  0  0
    1.2833   -0.6287   -0.7485 H   0  0  0  0  0  0  0  0  0  0  0  0
   -0.3629   -1.5841   -1.7586 C   0  0  0  0  0  0  0  0  0  0  0  0
   -0.5464   -2.4409   -1.1106 H   0  0  0  0  0  0  0  0  0  0  0  0
   -1.3115   -1.2636   -2.1892 H   0  0  0  0  0  0  0  0  0  0  0  0
    0.5517   -2.0394   -2.8956 C   0  0  0  0  0  0  0  0  0  0  0  0
    1.6037   -1.4920   -3.1681 O   0  0  0  0  0  0  0  0  0  0  0  0
    0.1884   -3.0807   -3.6124 N   0  0  0  0  0  0  0  0  0  0  0  0
    0.8268   -3.3367   -4.3454 H   0  0  0  0  0  0  0  0  0  0  0  0
   -0.6648   -3.5688   -3.4293 H   0  0  0  0  0  0  0  0  0  0  0  0
   -0.7011    1.2952    0.7149 C   0  0  0  0  0  0  0  0  0  0  0  0
   -1.5917    1.9198    0.1415 O   0  0  0  0  0  0  0  0  0  0  0  0
    0.1191    1.8675    1.6055 N   0  0  0  0  0  0  0  0  0  0  0  0
    0.8092    1.2861    2.0537 H   0  0  0  0  0  0  0  0  0  0  0  0
    0.0509    3.2769    1.9894 C   0  0  0  0  0  0  0  0  0  0  0  0
   -0.9494    3.5076    2.3640 H   0  0  0  0  0  0  0  0  0  0  0  0
    0.7844    3.4956    2.7668 H   0  0  0  0  0  0  0  0  0  0  0  0
    0.2468    3.9058    1.1193 H   0  0  0  0  0  0  0  0  0  0  0  0
  5  6  2  0  0  0  0
  5  7  1  0  0  0  0
  2  3  1  0  0  0  0
  2  4  1  0  0  0  0
  2  5  1  0  0  0  0
  1  2  1  0  0  0  0
 22 23  2  0  0  0  0
 22 24  1  0  0  0  0
 19 20  1  0  0  0  0
 19 21  1  0  0  0  0
 17 18  2  0  0  0  0
 17 19  1  0  0  0  0
 14 15  1  0  0  0  0
 14 16  1  0  0  0  0
 14 17  1  0  0  0  0
 11 12  1  0  0  0  0
 11 13  1  0  0  0  0
 11 14  1  0  0  0  0
  9 10  1  0  0  0  0
  9 11  1  0  0  0  0
  9 22  1  0  0  0  0
  7  8  1  0  0  0  0
  7  9  1  0  0  0  0
 26 27  1  0  0  0  0
 26 28  1  0  0  0  0
 26 29  1  0  0  0  0
 24 25  1  0  0  0  0
 24 26  1  0  0  0  0
M  END
$$$$
default_name
  -OEChem-02102213163D

 29 28  0     1  0  0  0  0  0999 V2000
   -3.3998   -3.6239    1.3678 H   0  0  0  0  0  0  0  0  0  0  0  0
   -3.3608   -2.6749    0.8348 C   0  0  0  0  0  0  0  0  0  0  0  0
   -4.0988   -1.9909    1.2498 H   0  0  0  0  0  0  0  0  0  0  0  0
   -3.5618   -2.8419   -0.2222 H   0  0  0  0  0  0  0  0  0  0  0  0
   -1.9818   -2.0809    0.9918 C   0  0  0  0  0  0  0  0  0  0  0  0
   -1.1288   -2.6669    1.6468 O   0  0  0  0  0  0  0  0  0  0  0  0
   -1.7648   -0.9089    0.3998 N   0  0  0  0  0  0  0  0  0  0  0  0
   -2.5238   -0.4719   -0.1032 H   0  0  0  0  0  0  0  0  0  0  0  0
   -0.4848   -0.1959    0.4138 C   0  0  1  0  0  0  0  0  0  0  0  0
    0.1386   -0.6144    1.2058 H   0  0  0  0  0  0  0  0  0  0  0  0
    0.2271   -0.4272   -0.9334 C   0  0  0  0  0  0  0  0  0  0  0  0
    0.1525    0.4890   -1.5229 H   0  0  0  0  0  0  0  0  0  0  0  0
    1.2833   -0.6287   -0.7485 H   0  0  0  0  0  0  0  0  0  0  0  0
   -0.3629   -1.5841   -1.7586 C   0  0  0  0  0  0  0  0  0  0  0  0
   -0.7900   -2.3313   -1.0901 H   0  0  0  0  0  0  0  0  0  0  0  0
   -1.1556   -1.1947   -2.3974 H   0  0  0  0  0  0  0  0  0  0  0  0
    0.6708   -2.2791   -2.6447 C   0  0  0  0  0  0  0  0  0  0  0  0
    1.8247   -1.9063   -2.7453 O   0  0  0  0  0  0  0  0  0  0  0  0
    0.2977   -3.3391   -3.3283 N   0  0  0  0  0  0  0  0  0  0  0  0
    1.0170   -3.7565   -3.8929 H   0  0  0  0  0  0  0  0  0  0  0  0
   -0.6376   -3.6892   -3.2799 H   0  0  0  0  0  0  0  0  0  0  0  0
   -0.7011    1.2952    0.7149 C   0  0  0  0  0  0  0  0  0  0  0  0
   -1.5917    1.9198    0.1415 O   0  0  0  0  0  0  0  0  0  0  0  0
    0.1191    1.8675    1.6055 N   0  0  0  0  0  0  0  0  0  0  0  0
    0.8092    1.2861    2.0537 H   0  0  0  0  0  0  0  0  0  0  0  0
    0.0509    3.2769    1.9894 C   0  0  0  0  0  0  0  0  0  0  0  0
   -0.9494    3.5076    2.3640 H   0  0  0  0  0  0  0  0  0  0  0  0
    0.7844    3.4956    2.7668 H   0  0  0  0  0  0  0  0  0  0  0  0
    0.2468    3.9058    1.1193 H   0  0  0  0  0  0  0  0  0  0  0  0
  5  6  2  0  0  0  0
  5  7  1  0  0  0  0
  2  3  1  0  0  0  0
  2  4  1  0  0  0  0
  2  5  1  0  0  0  0
  1  2  1  0  0  0  0
 22 23  2  0  0  0  0
 22 24  1  0  0  0  0
 19 20  1  0  0  0  0
 19 21  1  0  0  0  0
 17 18  2  0  0  0  0
 17 19  1  0  0  0  0
 14 15  1  0  0  0  0
 14 16  1  0  0  0  0
 14 17  1  0  0  0  0
 11 12  1  0  0  0  0
 11 13  1  0  0  0  0
 11 14  1  0  0  0  0
  9 10  1  0  0  0  0
  9 11  1  0  0  0  0
  9 22  1  0  0  0  0
  7  8  1  0  0  0  0
  7  9  1  0  0  0  0
 26 27  1  0  0  0  0
 26 28  1  0  0  0  0
 26 29  1  0  0  0  0
 24 25  1  0  0  0  0
 24 26  1  0  0  0  0
M  END
$$$$
default_name
  -OEChem-02102213163D

 29 28  0     1  0  0  0  0  0999 V2000
   -3.3998   -3.6239    1.3678 H   0  0  0  0  0  0  0  0  0  0  0  0
   -3.3608   -2.6749    0.8348 C   0  0  0  0  0  0  0  0  0  0  0  0
   -4.0988   -1.9909    1.2498 H   0  0  0  0  0  0  0  0  0  0  0  0
   -3.5618   -2.8419   -0.2222 H   0  0  0  0  0  0  0  0  0  0  0  0
   -1.9818   -2.0809    0.9918 C   0  0  0  0  0  0  0  0  0  0  0  0
   -1.1288   -2.6669    1.6468 O   0  0  0  0  0  0  0  0  0  0  0  0
   -1.7648   -0.9089    0.3998 N   0  0  0  0  0  0  0  0  0  0  0  0
   -2.5238   -0.4719   -0.1032 H   0  0  0  0  0  0  0  0  0  0  0  0
   -0.4848   -0.1959    0.4138 C   0  0  1  0  0  0  0  0  0  0  0  0
    0.1386   -0.6144    1.2058 H   0  0  0  0  0  0  0  0  0  0  0  0
    0.2271   -0.4272   -0.9334 C   0  0  0  0  0  0  0  0  0  0  0  0
    0.1525    0.4890   -1.5229 H   0  0  0  0  0  0  0  0  0  0  0  0
    1.2833   -0.6287   -0.7485 H   0  0  0  0  0  0  0  0  0  0  0  0
   -0.3629   -1.5841   -1.7586 C   0  0  0  0  0  0  0  0  0  0  0  0
   -1.0140   -2.1896   -1.1285 H   0  0  0  0  0  0  0  0  0  0  0  0
   -0.9548   -1.1704   -2.5750 H   0  0  0  0  0  0  0  0  0  0  0  0
    0.7037   -2.5022   -2.3554 C   0  0  0  0  0  0  0  0  0  0  0  0
    1.8983   -2.2952   -2.2528 O   0  0  0  0  0  0  0  0  0  0  0  0
    0.3121   -3.5757   -3.0069 N   0  0  0  0  0  0  0  0  0  0  0  0
    1.0544   -4.1434   -3.3771 H   0  0  0  0  0  0  0  0  0  0  0  0
   -0.6571   -3.7945   -3.1183 H   0  0  0  0  0  0  0  0  0  0  0  0
   -0.7011    1.2952    0.7149 C   0  0  0  0  0  0  0  0  0  0  0  0
   -1.5917    1.9198    0.1415 O   0  0  0  0  0  0  0  0  0  0  0  0
    0.1191    1.8675    1.6055 N   0  0  0  0  0  0  0  0  0  0  0  0
    0.8092    1.2861    2.0537 H   0  0  0  0  0  0  0  0  0  0  0  0
    0.0509    3.2769    1.9894 C   0  0  0  0  0  0  0  0  0  0  0  0
   -0.9494    3.5076    2.3640 H   0  0  0  0  0  0  0  0  0  0  0  0
    0.7844    3.4956    2.7668 H   0  0  0  0  0  0  0  0  0  0  0  0
    0.2468    3.9058    1.1193 H   0  0  0  0  0  0  0  0  0  0  0  0
  5  6  2  0  0  0  0
  5  7  1  0  0  0  0
  2  3  1  0  0  0  0
  2  4  1  0  0  0  0
  2  5  1  0  0  0  0
  1  2  1  0  0  0  0
 22 23  2  0  0  0  0
 22 24  1  0  0  0  0
 19 20  1  0  0  0  0
 19 21  1  0  0  0  0
 17 18  2  0  0  0  0
 17 19  1  0  0  0  0
 14 15  1  0  0  0  0
 14 16  1  0  0  0  0
 14 17  1  0  0  0  0
 11 12  1  0  0  0  0
 11 13  1  0  0  0  0
 11 14  1  0  0  0  0
  9 10  1  0  0  0  0
  9 11  1  0  0  0  0
  9 22  1  0  0  0  0
  7  8  1  0  0  0  0
  7  9  1  0  0  0  0
 26 27  1  0  0  0  0
 26 28  1  0  0  0  0
 26 29  1  0  0  0  0
 24 25  1  0  0  0  0
 24 26  1  0  0  0  0
M  END
$$$$
default_name
  -OEChem-02102213163D

 29 28  0     1  0  0  0  0  0999 V2000
   -3.3998   -3.6239    1.3678 H   0  0  0  0  0  0  0  0  0  0  0  0
   -3.3608   -2.6749    0.8348 C   0  0  0  0  0  0  0  0  0  0  0  0
   -4.0988   -1.9909    1.2498 H   0  0  0  0  0  0  0  0  0  0  0  0
   -3.5618   -2.8419   -0.2222 H   0  0  0  0  0  0  0  0  0  0  0  0
   -1.9818   -2.0809    0.9918 C   0  0  0  0  0  0  0  0  0  0  0  0
   -1.1288   -2.6669    1.6468 O   0  0  0  0  0  0  0  0  0  0  0  0
   -1.7648   -0.9089    0.3998 N   0  0  0  0  0  0  0  0  0  0  0  0
   -2.5238   -0.4719   -0.1032 H   0  0  0  0  0  0  0  0  0  0  0  0
   -0.4848   -0.1959    0.4138 C   0  0  1  0  0  0  0  0  0  0  0  0
    0.1386   -0.6144    1.2058 H   0  0  0  0  0  0  0  0  0  0  0  0
    0.2271   -0.4272   -0.9334 C   0  0  0  0  0  0  0  0  0  0  0  0
    0.1525    0.4890   -1.5229 H   0  0  0  0  0  0  0  0  0  0  0  0
    1.2833   -0.6287   -0.7485 H   0  0  0  0  0  0  0  0  0  0  0  0
   -0.3629   -1.5841   -1.7586 C   0  0  0  0  0  0  0  0  0  0  0  0
   -1.2033   -2.0255   -1.2233 H   0  0  0  0  0  0  0  0  0  0  0  0
   -0.7230   -1.1924   -2.7099 H   0  0  0  0  0  0  0  0  0  0  0  0
    0.6482   -2.6936   -2.0473 C   0  0  0  0  0  0  0  0  0  0  0  0
    1.8196   -2.6321   -1.7241 O   0  0  0  0  0  0  0  0  0  0  0  0
    0.2306   -3.7743   -2.6702 N   0  0  0  0  0  0  0  0  0  0  0  0
    0.9365   -4.4712   -2.8333 H   0  0  0  0  0  0  0  0  0  0  0  0
   -0.7220   -3.8774   -2.9557 H   0  0  0  0  0  0  0  0  0  0  0  0
   -0.7011    1.2952    0.7149 C   0  0  0  0  0  0  0  0  0  0  0  0
   -1.5917    1.9198    0.1415 O   0  0  0  0  0  0  0  0  0  0  0  0
    0.1191    1.8675    1.6055 N   0  0  0  0  0  0  0  0  0  0  0  0
    0.8092    1.2861    2.0537 H   0  0  0  0  0  0  0  0  0  0  0  0
    0.0509    3.2769    1.9894 C   0  0  0  0  0  0  0  0  0  0  0  0
   -0.9494    3.5076    2.3640 H   0  0  0  0  0  0  0  0  0  0  0  0
    0.7844    3.4956    2.7668 H   0  0  0  0  0  0  0  0  0  0  0  0
    0.2468    3.9058    1.1193 H   0  0  0  0  0  0  0  0  0  0  0  0
  5  6  2  0  0  0  0
  5  7  1  0  0  0  0
  2  3  1  0  0  0  0
  2  4  1  0  0  0  0
  2  5  1  0  0  0  0
  1  2  1  0  0  0  0
 22 23  2  0  0  0  0
 22 24  1  0  0  0  0
 19 20  1  0  0  0  0
 19 21  1  0  0  0  0
 17 18  2  0  0  0  0
 17 19  1  0  0  0  0
 14 15  1  0  0  0  0
 14 16  1  0  0  0  0
 14 17  1  0  0  0  0
 11 12  1  0  0  0  0
 11 13  1  0  0  0  0
 11 14  1  0  0  0  0
  9 10  1  0  0  0  0
  9 11  1  0  0  0  0
  9 22  1  0  0  0  0
  7  8  1  0  0  0  0
  7  9  1  0  0  0  0
 26 27  1  0  0  0  0
 26 28  1  0  0  0  0
 26 29  1  0  0  0  0
 24 25  1  0  0  0  0
 24 26  1  0  0  0  0
M  END
$$$$
default_name
  -OEChem-02102213163D

 29 28  0     1  0  0  0  0  0999 V2000
   -3.3998   -3.6239    1.3678 H   0  0  0  0  0  0  0  0  0  0  0  0
   -3.3608   -2.6749    0.8348 C   0  0  0  0  0  0  0  0  0  0  0  0
   -4.0988   -1.9909    1.2498 H   0  0  0  0  0  0  0  0  0  0  0  0
   -3.5618   -2.8419   -0.2222 H   0  0  0  0  0  0  0  0  0  0  0  0
   -1.9818   -2.0809    0.9918 C   0  0  0  0  0  0  0  0  0  0  0  0
   -1.1288   -2.6669    1.6468 O   0  0  0  0  0  0  0  0  0  0  0  0
   -1.7648   -0.9089    0.3998 N   0  0  0  0  0  0  0  0  0  0  0  0
   -2.5238   -0.4719   -0.1032 H   0  0  0  0  0  0  0  0  0  0  0  0
   -0.4848   -0.1959    0.4138 C   0  0  1  0  0  0  0  0  0  0  0  0
    0.1386   -0.6144    1.2058 H   0  0  0  0  0  0  0  0  0  0  0  0
    0.2271   -0.4272   -0.9334 C   0  0  0  0  0  0  0  0  0  0  0  0
    0.1525    0.4890   -1.5229 H   0  0  0  0  0  0  0  0  0  0  0  0
    1.2833   -0.6287   -0.7485 H   0  0  0  0  0  0  0  0  0  0  0  0
   -0.3629   -1.5841   -1.7586 C   0  0  0  0  0  0  0  0  0  0  0  0
   -1.3449   -1.8501   -1.3680 H   0  0  0  0  0  0  0  0  0  0  0  0
   -0.4758   -1.2592   -2.7929 H   0  0  0  0  0  0  0  0  0  0  0  0
    0.5080   -2.8402   -1.7416 C   0  0  0  0  0  0  0  0  0  0  0  0
    1.5939   -2.8942   -1.1953 O   0  0  0  0  0  0  0  0  0  0  0  0
    0.0589   -3.9214   -2.3412 N   0  0  0  0  0  0  0  0  0  0  0  0
    0.6712   -4.7175   -2.2983 H   0  0  0  0  0  0  0  0  0  0  0  0
   -0.8279   -3.9324   -2.8029 H   0  0  0  0  0  0  0  0  0  0  0  0
   -0.7011    1.2952    0.7149 C   0  0  0  0  0  0  0  0  0  0  0  0
   -1.5917    1.9198    0.1415 O   0  0  0  0  0  0  0  0  0  0  0  0
    0.1191    1.8675    1.6055 N   0  0  0  0  0  0  0  0  0  0  0  0
    0.8092    1.2861    2.0537 H   0  0  0  0  0  0  0  0  0  0  0  0
    0.0509    3.2769    1.9894 C   0  0  0  0  0  0  0  0  0  0  0  0
   -0.9494    3.5076    2.3640 H   0  0  0  0  0  0  0  0  0  0  0  0
    0.7844    3.4956    2.7668 H   0  0  0  0  0  0  0  0  0  0  0  0
    0.2468    3.9058    1.1193 H   0  0  0  0  0  0  0  0  0  0  0  0
  5  6  2  0  0  0  0
  5  7  1  0  0  0  0
  2  3  1  0  0  0  0
  2  4  1  0  0  0  0
  2  5  1  0  0  0  0
  1  2  1  0  0  0  0
 22 23  2  0  0  0  0
 22 24  1  0  0  0  0
 19 20  1  0  0  0  0
 19 21  1  0  0  0  0
 17 18  2  0  0  0  0
 17 19  1  0  0  0  0
 14 15  1  0  0  0  0
 14 16  1  0  0  0  0
 14 17  1  0  0  0  0
 11 12  1  0  0  0  0
 11 13  1  0  0  0  0
 11 14  1  0  0  0  0
  9 10  1  0  0  0  0
  9 11  1  0  0  0  0
  9 22  1  0  0  0  0
  7  8  1  0  0  0  0
  7  9  1  0  0  0  0
 26 27  1  0  0  0  0
 26 28  1  0  0  0  0
 26 29  1  0  0  0  0
 24 25  1  0  0  0  0
 24 26  1  0  0  0  0
M  END
$$$$
default_name
  -OEChem-02102213163D

 29 28  0     1  0  0  0  0  0999 V2000
   -3.3998   -3.6239    1.3678 H   0  0  0  0  0  0  0  0  0  0  0  0
   -3.3608   -2.6749    0.8348 C   0  0  0  0  0  0  0  0  0  0  0  0
   -4.0988   -1.9909    1.2498 H   0  0  0  0  0  0  0  0  0  0  0  0
   -3.5618   -2.8419   -0.2222 H   0  0  0  0  0  0  0  0  0  0  0  0
   -1.9818   -2.0809    0.9918 C   0  0  0  0  0  0  0  0  0  0  0  0
   -1.1288   -2.6669    1.6468 O   0  0  0  0  0  0  0  0  0  0  0  0
   -1.7648   -0.9089    0.3998 N   0  0  0  0  0  0  0  0  0  0  0  0
   -2.5238   -0.4719   -0.1032 H   0  0  0  0  0  0  0  0  0  0  0  0
   -0.4848   -0.1959    0.4138 C   0  0  1  0  0  0  0  0  0  0  0  0
    0.1386   -0.6144    1.2058 H   0  0  0  0  0  0  0  0  0  0  0  0
    0.2271   -0.4272   -0.9334 C   0  0  0  0  0  0  0  0  0  0  0  0
    0.1525    0.4890   -1.5229 H   0  0  0  0  0  0  0  0  0  0  0  0
    1.2833   -0.6287   -0.7485 H   0  0  0  0  0  0  0  0  0  0  0  0
   -0.3629   -1.5841   -1.7586 C   0  0  0  0  0  0  0  0  0  0  0  0
   -1.4292   -1.6753   -1.5527 H   0  0  0  0  0  0  0  0  0  0  0  0
   -0.2303   -1.3663   -2.8183 H   0  0  0  0  0  0  0  0  0  0  0  0
    0.2928   -2.9320   -1.4590 C   0  0  0  0  0  0  0  0  0  0  0  0
    1.2367   -3.0636   -0.7024 O   0  0  0  0  0  0  0  0  0  0  0  0
   -0.1915   -4.0070   -2.0421 N   0  0  0  0  0  0  0  0  0  0  0  0
    0.2767   -4.8654   -1.8088 H   0  0  0  0  0  0  0  0  0  0  0  0
   -0.9675   -3.9556   -2.6705 H   0  0  0  0  0  0  0  0  0  0  0  0
   -0.7011    1.2952    0.7149 C   0  0  0  0  0  0  0  0  0  0  0  0
   -1.5917    1.9198    0.1415 O   0  0  0  0  0  0  0  0  0  0  0  0
    0.1191    1.8675    1.6055 N   0  0  0  0  0  0  0  0  0  0  0  0
    0.8092    1.2861    2.0537 H   0  0  0  0  0  0  0  0  0  0  0  0
    0.0509    3.2769    1.9894 C   0  0  0  0  0  0  0  0  0  0  0  0
   -0.9494    3.5076    2.3640 H   0  0  0  0  0  0  0  0  0  0  0  0
    0.7844    3.4956    2.7668 H   0  0  0  0  0  0  0  0  0  0  0  0
    0.2468    3.9058    1.1193 H   0  0  0  0  0  0  0  0  0  0  0  0
  5  6  2  0  0  0  0
  5  7  1  0  0  0  0
  2  3  1  0  0  0  0
  2  4  1  0  0  0  0
  2  5  1  0  0  0  0
  1  2  1  0  0  0  0
 22 23  2  0  0  0  0
 22 24  1  0  0  0  0
 19 20  1  0  0  0  0
 19 21  1  0  0  0  0
 17 18  2  0  0  0  0
 17 19  1  0  0  0  0
 14 15  1  0  0  0  0
 14 16  1  0  0  0  0
 14 17  1  0  0  0  0
 11 12  1  0  0  0  0
 11 13  1  0  0  0  0
 11 14  1  0  0  0  0
  9 10  1  0  0  0  0
  9 11  1  0  0  0  0
  9 22  1  0  0  0  0
  7  8  1  0  0  0  0
  7  9  1  0  0  0  0
 26 27  1  0  0  0  0
 26 28  1  0  0  0  0
 26 29  1  0  0  0  0
 24 25  1  0  0  0  0
 24 26  1  0  0  0  0
M  END
$$$$
default_name
  -OEChem-02102213163D

 29 28  0     1  0  0  0  0  0999 V2000
   -3.3998   -3.6239    1.3678 H   0  0  0  0  0  0  0  0  0  0  0  0
   -3.3608   -2.6749    0.8348 C   0  0  0  0  0  0  0  0  0  0  0  0
   -4.0988   -1.9909    1.2498 H   0  0  0  0  0  0  0  0  0  0  0  0
   -3.5618   -2.8419   -0.2222 H   0  0  0  0  0  0  0  0  0  0  0  0
   -1.9818   -2.0809    0.9918 C   0  0  0  0  0  0  0  0  0  0  0  0
   -1.1288   -2.6669    1.6468 O   0  0  0  0  0  0  0  0  0  0  0  0
   -1.7648   -0.9089    0.3998 N   0  0  0  0  0  0  0  0  0  0  0  0
   -2.5238   -0.4719   -0.1032 H   0  0  0  0  0  0  0  0  0  0  0  0
   -0.4848   -0.1959    0.4138 C   0  0  1  0  0  0  0  0  0  0  0  0
    0.1386   -0.6144    1.2058 H   0  0  0  0  0  0  0  0  0  0  0  0
    0.2271   -0.4272   -0.9334 C   0  0  0  0  0  0  0  0  0  0  0  0
    0.1525    0.4890   -1.5229 H   0  0  0  0  0  0  0  0  0  0  0  0
    1.2833   -0.6287   -0.7485 H   0  0  0  0  0  0  0  0  0  0  0  0
   -0.3629   -1.5841   -1.7586 C   0  0  0  0  0  0  0  0  0  0  0  0
   -1.4504   -1.5132   -1.7649 H   0  0  0  0  0  0  0  0  0  0  0  0
   -0.0029   -1.5064   -2.7845 H   0  0  0  0  0  0  0  0  0  0  0  0
    0.0172   -2.9628   -1.2189 C   0  0  0  0  0  0  0  0  0  0  0  0
    0.7721   -3.1286   -0.2791 O   0  0  0  0  0  0  0  0  0  0  0  0
   -0.5034   -4.0253   -1.7935 N   0  0  0  0  0  0  0  0  0  0  0  0
   -0.2202   -4.9050   -1.3981 H   0  0  0  0  0  0  0  0  0  0  0  0
   -1.1314   -3.9456   -2.5675 H   0  0  0  0  0  0  0  0  0  0  0  0
   -0.7011    1.2952    0.7149 C   0  0  0  0  0  0  0  0  0  0  0  0
   -1.5917    1.9198    0.1415 O   0  0  0  0  0  0  0  0  0  0  0  0
    0.1191    1.8675    1.6055 N   0  0  0  0  0  0  0  0  0  0  0  0
    0.8092    1.2861    2.0537 H   0  0  0  0  0  0  0  0  0  0  0  0
    0.0509    3.2769    1.9894 C   0  0  0  0  0  0  0  0  0  0  0  0
   -0.9494    3.5076    2.3640 H   0  0  0  0  0  0  0  0  0  0  0  0
    0.7844    3.4956    2.7668 H   0  0  0  0  0  0  0  0  0  0  0  0
    0.2468    3.9058    1.1193 H   0  0  0  0  0  0  0  0  0  0  0  0
  5  6  2  0  0  0  0
  5  7  1  0  0  0  0
  2  3  1  0  0  0  0
  2  4  1  0  0  0  0
  2  5  1  0  0  0  0
  1  2  1  0  0  0  0
 22 23  2  0  0  0  0
 22 24  1  0  0  0  0
 19 20  1  0  0  0  0
 19 21  1  0  0  0  0
 17 18  2  0  0  0  0
 17 19  1  0  0  0  0
 14 15  1  0  0  0  0
 14 16  1  0  0  0  0
 14 17  1  0  0  0  0
 11 12  1  0  0  0  0
 11 13  1  0  0  0  0
 11 14  1  0  0  0  0
  9 10  1  0  0  0  0
  9 11  1  0  0  0  0
  9 22  1  0  0  0  0
  7  8  1  0  0  0  0
  7  9  1  0  0  0  0
 26 27  1  0  0  0  0
 26 28  1  0  0  0  0
 26 29  1  0  0  0  0
 24 25  1  0  0  0  0
 24 26  1  0  0  0  0
M  END
$$$$
default_name
  -OEChem-02102213163D

 29 28  0     1  0  0  0  0  0999 V2000
   -3.3998   -3.6239    1.3678 H   0  0  0  0  0  0  0  0  0  0  0  0
   -3.3608   -2.6749    0.8348 C   0  0  0  0  0  0  0  0  0  0  0  0
   -4.0988   -1.9909    1.2498 H   0  0  0  0  0  0  0  0  0  0  0  0
   -3.5618   -2.8419   -0.2222 H   0  0  0  0  0  0  0  0  0  0  0  0
   -1.9818   -2.0809    0.9918 C   0  0  0  0  0  0  0  0  0  0  0  0
   -1.1288   -2.6669    1.6468 O   0  0  0  0  0  0  0  0  0  0  0  0
   -1.7648   -0.9089    0.3998 N   0  0  0  0  0  0  0  0  0  0  0  0
   -2.5238   -0.4719   -0.1032 H   0  0  0  0  0  0  0  0  0  0  0  0
   -0.4848   -0.1959    0.4138 C   0  0  1  0  0  0  0  0  0  0  0  0
    0.1386   -0.6144    1.2058 H   0  0  0  0  0  0  0  0  0  0  0  0
    0.2271   -0.4272   -0.9334 C   0  0  0  0  0  0  0  0  0  0  0  0
    0.1525    0.4890   -1.5229 H   0  0  0  0  0  0  0  0  0  0  0  0
    1.2833   -0.6287   -0.7485 H   0  0  0  0  0  0  0  0  0  0  0  0
   -0.3629   -1.5841   -1.7586 C   0  0  0  0  0  0  0  0  0  0  0  0
   -1.4070   -1.3747   -1.9900 H   0  0  0  0  0  0  0  0  0  0  0  0
    0.1906   -1.6699   -2.6936 H   0  0  0  0  0  0  0  0  0  0  0  0
   -0.3000   -2.9304   -1.0374 C   0  0  0  0  0  0  0  0  0  0  0  0
    0.2320   -3.0850    0.0459 O   0  0  0  0  0  0  0  0  0  0  0  0
   -0.8556   -3.9749   -1.6123 N   0  0  0  0  0  0  0  0  0  0  0  0
   -0.7856   -4.8335   -1.0941 H   0  0  0  0  0  0  0  0  0  0  0  0
   -1.3083   -3.9029   -2.5009 H   0  0  0  0  0  0  0  0  0  0  0  0
   -0.7011    1.2952    0.7149 C   0  0  0  0  0  0  0  0  0  0  0  0
   -1.5917    1.9198    0.1415 O   0  0  0  0  0  0  0  0  0  0  0  0
    0.1191    1.8675    1.6055 N   0  0  0  0  0  0  0  0  0  0  0  0
    0.8092    1.2861    2.0537 H   0  0  0  0  0  0  0  0  0  0  0  0
    0.0509    3.2769    1.9894 C   0  0  0  0  0  0  0  0  0  0  0  0
   -0.9494    3.5076    2.3640 H   0  0  0  0  0  0  0  0  0  0  0  0
    0.7844    3.4956    2.7668 H   0  0  0  0  0  0  0  0  0  0  0  0
    0.2468    3.9058    1.1193 H   0  0  0  0  0  0  0  0  0  0  0  0
  5  6  2  0  0  0  0
  5  7  1  0  0  0  0
  2  3  1  0  0  0  0
  2  4  1  0  0  0  0
  2  5  1  0  0  0  0
  1  2  1  0  0  0  0
 22 23  2  0  0  0  0
 22 24  1  0  0  0  0
 19 20  1  0  0  0  0
 19 21  1  0  0  0  0
 17 18  2  0  0  0  0
 17 19  1  0  0  0  0
 14 15  1  0  0  0  0
 14 16  1  0  0  0  0
 14 17  1  0  0  0  0
 11 12  1  0  0  0  0
 11 13  1  0  0  0  0
 11 14  1  0  0  0  0
  9 10  1  0  0  0  0
  9 11  1  0  0  0  0
  9 22  1  0  0  0  0
  7  8  1  0  0  0  0
  7  9  1  0  0  0  0
 26 27  1  0  0  0  0
 26 28  1  0  0  0  0
 26 29  1  0  0  0  0
 24 25  1  0  0  0  0
 24 26  1  0  0  0  0
M  END
$$$$
default_name
  -OEChem-02102213163D

 29 28  0     1  0  0  0  0  0999 V2000
   -3.3998   -3.6239    1.3678 H   0  0  0  0  0  0  0  0  0  0  0  0
   -3.3608   -2.6749    0.8348 C   0  0  0  0  0  0  0  0  0  0  0  0
   -4.0988   -1.9909    1.2498 H   0  0  0  0  0  0  0  0  0  0  0  0
   -3.5618   -2.8419   -0.2222 H   0  0  0  0  0  0  0  0  0  0  0  0
   -1.9818   -2.0809    0.9918 C   0  0  0  0  0  0  0  0  0  0  0  0
   -1.1288   -2.6669    1.6468 O   0  0  0  0  0  0  0  0  0  0  0  0
   -1.7648   -0.9089    0.3998 N   0  0  0  0  0  0  0  0  0  0  0  0
   -2.5238   -0.4719   -0.1032 H   0  0  0  0  0  0  0  0  0  0  0  0
   -0.4848   -0.1959    0.4138 C   0  0  1  0  0  0  0  0  0  0  0  0
    0.1386   -0.6144    1.2058 H   0  0  0  0  0  0  0  0  0  0  0  0
    0.2271   -0.4272   -0.9334 C   0  0  0  0  0  0  0  0  0  0  0  0
    0.1525    0.4890   -1.5229 H   0  0  0  0  0  0  0  0  0  0  0  0
    1.2833   -0.6287   -0.7485 H   0  0  0  0  0  0  0  0  0  0  0  0
   -0.3629   -1.5841   -1.7586 C   0  0  0  0  0  0  0  0  0  0  0  0
   -1.3021   -1.2693   -2.2128 H   0  0  0  0  0  0  0  0  0  0  0  0
    0.3372   -1.8456   -2.5520 H   0  0  0  0  0  0  0  0  0  0  0  0
   -0.6372   -2.8371   -0.9271 C   0  0  0  0  0  0  0  0  0  0  0  0
   -0.3469   -2.9356    0.2504 O   0  0  0  0  0  0  0  0  0  0  0  0
   -1.2241   -3.8594   -1.5107 N   0  0  0  0  0  0  0  0  0  0  0  0
   -1.3809   -4.6558   -0.9176 H   0  0  0  0  0  0  0  0  0  0  0  0
   -1.4862   -3.8304   -2.4752 H   0  0  0  0  0  0  0  0  0  0  0  0
   -0.7011    1.2952    0.7149 C   0  0  0  0  0  0  0  0  0  0  0  0
   -1.5917    1.9198    0.1415 O   0  0  0  0  0  0  0  0  0  0  0  0
    0.1191    1.8675    1.6055 N   0  0  0  0  0  0  0  0  0  0  0  0
    0.8092    1.2861    2.0537 H   0  0  0  0  0  0  0  0  0  0  0  0
    0.0509    3.2769    1.9894 C   0  0  0  0  0  0  0  0  0  0  0  0
   -0.9494    3.5076    2.3640 H   0  0  0  0  0  0  0  0  0  0  0  0
    0.7844    3.4956    2.7668 H   0  0  0  0  0  0  0  0  0  0  0  0
    0.2468    3.9058    1.1193 H   0  0  0  0  0  0  0  0  0  0  0  0
  5  6  2  0  0  0  0
  5  7  1  0  0  0  0
  2  3  1  0  0  0  0
  2  4  1  0  0  0  0
  2  5  1  0  0  0  0
  1  2  1  0  0  0  0
 22 23  2  0  0  0  0
 22 24  1  0  0  0  0
 19 20  1  0  0  0  0
 19 21  1  0  0  0  0
 17 18  2  0  0  0  0
 17 19  1  0  0  0  0
 14 15  1  0  0  0  0
 14 16  1  0  0  0  0
 14 17  1  0  0  0  0
 11 12  1  0  0  0  0
 11 13  1  0  0  0  0
 11 14  1  0  0  0  0
  9 10  1  0  0  0  0
  9 11  1  0  0  0  0
  9 22  1  0  0  0  0
  7  8  1  0  0  0  0
  7  9  1  0  0  0  0
 26 27  1  0  0  0  0
 26 28  1  0  0  0  0
 26 29  1  0  0  0  0
 24 25  1  0  0  0  0
 24 26  1  0  0  0  0
M  END
$$$$
default_name
  -OEChem-02102213163D

 29 28  0     1  0  0  0  0  0999 V2000
   -3.3998   -3.6239    1.3678 H   0  0  0  0  0  0  0  0  0  0  0  0
   -3.3608   -2.6749    0.8348 C   0  0  0  0  0  0  0  0  0  0  0  0
   -4.0988   -1.9909    1.2498 H   0  0  0  0  0  0  0  0  0  0  0  0
   -3.5618   -2.8419   -0.2222 H   0  0  0  0  0  0  0  0  0  0  0  0
   -1.9818   -2.0809    0.9918 C   0  0  0  0  0  0  0  0  0  0  0  0
   -1.1288   -2.6669    1.6468 O   0  0  0  0  0  0  0  0  0  0  0  0
   -1.7648   -0.9089    0.3998 N   0  0  0  0  0  0  0  0  0  0  0  0
   -2.5238   -0.4719   -0.1032 H   0  0  0  0  0  0  0  0  0  0  0  0
   -0.4848   -0.1959    0.4138 C   0  0  1  0  0  0  0  0  0  0  0  0
    0.1386   -0.6144    1.2058 H   0  0  0  0  0  0  0  0  0  0  0  0
    0.2271   -0.4272   -0.9334 C   0  0  0  0  0  0  0  0  0  0  0  0
    0.1525    0.4890   -1.5229 H   0  0  0  0  0  0  0  0  0  0  0  0
    1.2833   -0.6287   -0.7485 H   0  0  0  0  0  0  0  0  0  0  0  0
   -0.3629   -1.5841   -1.7586 C   0  0  0  0  0  0  0  0  0  0  0  0
   -1.1428   -1.2041   -2.4181 H   0  0  0  0  0  0  0  0  0  0  0  0
    0.4268   -2.0217   -2.3693 H   0  0  0  0  0  0  0  0  0  0  0  0
   -0.9715   -2.6892   -0.8955 C   0  0  0  0  0  0  0  0  0  0  0  0
   -0.9251   -2.6907    0.3204 O   0  0  0  0  0  0  0  0  0  0  0  0
   -1.5838   -3.6866   -1.4958 N   0  0  0  0  0  0  0  0  0  0  0  0
   -1.9656   -4.3839   -0.8806 H   0  0  0  0  0  0  0  0  0  0  0  0
   -1.6530   -3.7333   -2.4922 H   0  0  0  0  0  0  0  0  0  0  0  0
   -0.7011    1.2952    0.7149 C   0  0  0  0  0  0  0  0  0  0  0  0
   -1.5917    1.9198    0.1415 O   0  0  0  0  0  0  0  0  0  0  0  0
    0.1191    1.8675    1.6055 N   0  0  0  0  0  0  0  0  0  0  0  0
    0.8092    1.2861    2.0537 H   0  0  0  0  0  0  0  0  0  0  0  0
    0.0509    3.2769    1.9894 C   0  0  0  0  0  0  0  0  0  0  0  0
   -0.9494    3.5076    2.3640 H   0  0  0  0  0  0  0  0  0  0  0  0
    0.7844    3.4956    2.7668 H   0  0  0  0  0  0  0  0  0  0  0  0
    0.2468    3.9058    1.1193 H   0  0  0  0  0  0  0  0  0  0  0  0
  5  6  2  0  0  0  0
  5  7  1  0  0  0  0
  2  3  1  0  0  0  0
  2  4  1  0  0  0  0
  2  5  1  0  0  0  0
  1  2  1  0  0  0  0
 22 23  2  0  0  0  0
 22 24  1  0  0  0  0
 19 20  1  0  0  0  0
 19 21  1  0  0  0  0
 17 18  2  0  0  0  0
 17 19  1  0  0  0  0
 14 15  1  0  0  0  0
 14 16  1  0  0  0  0
 14 17  1  0  0  0  0
 11 12  1  0  0  0  0
 11 13  1  0  0  0  0
 11 14  1  0  0  0  0
  9 10  1  0  0  0  0
  9 11  1  0  0  0  0
  9 22  1  0  0  0  0
  7  8  1  0  0  0  0
  7  9  1  0  0  0  0
 26 27  1  0  0  0  0
 26 28  1  0  0  0  0
 26 29  1  0  0  0  0
 24 25  1  0  0  0  0
 24 26  1  0  0  0  0
M  END
$$$$
default_name
  -OEChem-02102213163D

 29 28  0     1  0  0  0  0  0999 V2000
   -3.3998   -3.6239    1.3678 H   0  0  0  0  0  0  0  0  0  0  0  0
   -3.3608   -2.6749    0.8348 C   0  0  0  0  0  0  0  0  0  0  0  0
   -4.0988   -1.9909    1.2498 H   0  0  0  0  0  0  0  0  0  0  0  0
   -3.5618   -2.8419   -0.2222 H   0  0  0  0  0  0  0  0  0  0  0  0
   -1.9818   -2.0809    0.9918 C   0  0  0  0  0  0  0  0  0  0  0  0
   -1.1288   -2.6669    1.6468 O   0  0  0  0  0  0  0  0  0  0  0  0
   -1.7648   -0.9089    0.3998 N   0  0  0  0  0  0  0  0  0  0  0  0
   -2.5238   -0.4719   -0.1032 H   0  0  0  0  0  0  0  0  0  0  0  0
   -0.4848   -0.1959    0.4138 C   0  0  1  0  0  0  0  0  0  0  0  0
    0.1386   -0.6144    1.2058 H   0  0  0  0  0  0  0  0  0  0  0  0
    0.2271   -0.4272   -0.9334 C   0  0  0  0  0  0  0  0  0  0  0  0
    0.1525    0.4890   -1.5229 H   0  0  0  0  0  0  0  0  0  0  0  0
    1.2833   -0.6287   -0.7485 H   0  0  0  0  0  0  0  0  0  0  0  0
   -0.3629   -1.5841   -1.7586 C   0  0  0  0  0  0  0  0  0  0  0  0
   -0.9400   -1.1836   -2.5918 H   0  0  0  0  0  0  0  0  0  0  0  0
    0.4533   -2.1861   -2.1578 H   0  0  0  0  0  0  0  0  0  0  0  0
   -1.2799   -2.4968   -0.9446 C   0  0  0  0  0  0  0  0  0  0  0  0
   -1.4632   -2.3669    0.2512 O   0  0  0  0  0  0  0  0  0  0  0  0
   -1.9101   -3.4683   -1.5685 N   0  0  0  0  0  0  0  0  0  0  0  0
   -2.4999   -4.0366   -0.9857 H   0  0  0  0  0  0  0  0  0  0  0  0
   -1.7973   -3.6179   -2.5507 H   0  0  0  0  0  0  0  0  0  0  0  0
   -0.7011    1.2952    0.7149 C   0  0  0  0  0  0  0  0  0  0  0  0
   -1.5917    1.9198    0.1415 O   0  0  0  0  0  0  0  0  0  0  0  0
    0.1191    1.8675    1.6055 N   0  0  0  0  0  0  0  0  0  0  0  0
    0.8092    1.2861    2.0537 H   0  0  0  0  0  0  0  0  0  0  0  0
    0.0509    3.2769    1.9894 C   0  0  0  0  0  0  0  0  0  0  0  0
   -0.9494    3.5076    2.3640 H   0  0  0  0  0  0  0  0  0  0  0  0
    0.7844    3.4956    2.7668 H   0  0  0  0  0  0  0  0  0  0  0  0
    0.2468    3.9058    1.1193 H   0  0  0  0  0  0  0  0  0  0  0  0
  5  6  2  0  0  0  0
  5  7  1  0  0  0  0
  2  3  1  0  0  0  0
  2  4  1  0  0  0  0
  2  5  1  0  0  0  0
  1  2  1  0  0  0  0
 22 23  2  0  0  0  0
 22 24  1  0  0  0  0
 19 20  1  0  0  0  0
 19 21  1  0  0  0  0
 17 18  2  0  0  0  0
 17 19  1  0  0  0  0
 14 15  1  0  0  0  0
 14 16  1  0  0  0  0
 14 17  1  0  0  0  0
 11 12  1  0  0  0  0
 11 13  1  0  0  0  0
 11 14  1  0  0  0  0
  9 10  1  0  0  0  0
  9 11  1  0  0  0  0
  9 22  1  0  0  0  0
  7  8  1  0  0  0  0
  7  9  1  0  0  0  0
 26 27  1  0  0  0  0
 26 28  1  0  0  0  0
 26 29  1  0  0  0  0
 24 25  1  0  0  0  0
 24 26  1  0  0  0  0
M  END
$$$$
default_name
  -OEChem-02102213163D

 29 28  0     1  0  0  0  0  0999 V2000
   -3.3998   -3.6239    1.3678 H   0  0  0  0  0  0  0  0  0  0  0  0
   -3.3608   -2.6749    0.8348 C   0  0  0  0  0  0  0  0  0  0  0  0
   -4.0988   -1.9909    1.2498 H   0  0  0  0  0  0  0  0  0  0  0  0
   -3.5618   -2.8419   -0.2222 H   0  0  0  0  0  0  0  0  0  0  0  0
   -1.9818   -2.0809    0.9918 C   0  0  0  0  0  0  0  0  0  0  0  0
   -1.1288   -2.6669    1.6468 O   0  0  0  0  0  0  0  0  0  0  0  0
   -1.7648   -0.9089    0.3998 N   0  0  0  0  0  0  0  0  0  0  0  0
   -2.5238   -0.4719   -0.1032 H   0  0  0  0  0  0  0  0  0  0  0  0
   -0.4848   -0.1959    0.4138 C   0  0  1  0  0  0  0  0  0  0  0  0
    0.1386   -0.6144    1.2058 H   0  0  0  0  0  0  0  0  0  0  0  0
    0.2271   -0.4272   -0.9334 C   0  0  0  0  0  0  0  0  0  0  0  0
    0.1525    0.4890   -1.5229 H   0  0  0  0  0  0  0  0  0  0  0  0
    1.2833   -0.6287   -0.7485 H   0  0  0  0  0  0  0  0  0  0  0  0
   -0.3629   -1.5841   -1.7586 C   0  0  0  0  0  0  0  0  0  0  0  0
   -0.7074   -1.2093   -2.7222 H   0  0  0  0  0  0  0  0  0  0  0  0
    0.4150   -2.3275   -1.9321 H   0  0  0  0  0  0  0  0  0  0  0  0
   -1.5416   -2.2730   -1.0712 C   0  0  0  0  0  0  0  0  0  0  0  0
   -1.9246   -1.9863    0.0475 O   0  0  0  0  0  0  0  0  0  0  0  0
   -2.1808   -3.2194   -1.7240 N   0  0  0  0  0  0  0  0  0  0  0  0
   -2.9473   -3.6373   -1.2256 H   0  0  0  0  0  0  0  0  0  0  0  0
   -1.9093   -3.4923   -2.6468 H   0  0  0  0  0  0  0  0  0  0  0  0
   -0.7011    1.2952    0.7149 C   0  0  0  0  0  0  0  0  0  0  0  0
   -1.5917    1.9198    0.1415 O   0  0  0  0  0  0  0  0  0  0  0  0
    0.1191    1.8675    1.6055 N   0  0  0  0  0  0  0  0  0  0  0  0
    0.8092    1.2861    2.0537 H   0  0  0  0  0  0  0  0  0  0  0  0
    0.0509    3.2769    1.9894 C   0  0  0  0  0  0  0  0  0  0  0  0
   -0.9494    3.5076    2.3640 H   0  0  0  0  0  0  0  0  0  0  0  0
    0.7844    3.4956    2.7668 H   0  0  0  0  0  0  0  0  0  0  0  0
    0.2468    3.9058    1.1193 H   0  0  0  0  0  0  0  0  0  0  0  0
  5  6  2  0  0  0  0
  5  7  1  0  0  0  0
  2  3  1  0  0  0  0
  2  4  1  0  0  0  0
  2  5  1  0  0  0  0
  1  2  1  0  0  0  0
 22 23  2  0  0  0  0
 22 24  1  0  0  0  0
 19 20  1  0  0  0  0
 19 21  1  0  0  0  0
 17 18  2  0  0  0  0
 17 19  1  0  0  0  0
 14 15  1  0  0  0  0
 14 16  1  0  0  0  0
 14 17  1  0  0  0  0
 11 12  1  0  0  0  0
 11 13  1  0  0  0  0
 11 14  1  0  0  0  0
  9 10  1  0  0  0  0
  9 11  1  0  0  0  0
  9 22  1  0  0  0  0
  7  8  1  0  0  0  0
  7  9  1  0  0  0  0
 26 27  1  0  0  0  0
 26 28  1  0  0  0  0
 26 29  1  0  0  0  0
 24 25  1  0  0  0  0
 24 26  1  0  0  0  0
M  END
$$$$
default_name
  -OEChem-02102213163D

 29 28  0     1  0  0  0  0  0999 V2000
   -3.3998   -3.6239    1.3678 H   0  0  0  0  0  0  0  0  0  0  0  0
   -3.3608   -2.6749    0.8348 C   0  0  0  0  0  0  0  0  0  0  0  0
   -4.0988   -1.9909    1.2498 H   0  0  0  0  0  0  0  0  0  0  0  0
   -3.5618   -2.8419   -0.2222 H   0  0  0  0  0  0  0  0  0  0  0  0
   -1.9818   -2.0809    0.9918 C   0  0  0  0  0  0  0  0  0  0  0  0
   -1.1288   -2.6669    1.6468 O   0  0  0  0  0  0  0  0  0  0  0  0
   -1.7648   -0.9089    0.3998 N   0  0  0  0  0  0  0  0  0  0  0  0
   -2.5238   -0.4719   -0.1032 H   0  0  0  0  0  0  0  0  0  0  0  0
   -0.4848   -0.1959    0.4138 C   0  0  1  0  0  0  0  0  0  0  0  0
    0.1386   -0.6144    1.2058 H   0  0  0  0  0  0  0  0  0  0  0  0
    0.2271   -0.4272   -0.9334 C   0  0  0  0  0  0  0  0  0  0  0  0
    0.1525    0.4890   -1.5229 H   0  0  0  0  0  0  0  0  0  0  0  0
    1.2833   -0.6287   -0.7485 H   0  0  0  0  0  0  0  0  0  0  0  0
   -0.3629   -1.5841   -1.7586 C   0  0  0  0  0  0  0  0  0  0  0  0
   -0.4609   -1.2793   -2.8003 H   0  0  0  0  0  0  0  0  0  0  0  0
    0.3145   -2.4365   -1.7075 H   0  0  0  0  0  0  0  0  0  0  0  0
   -1.7387   -2.0331   -1.2667 C   0  0  0  0  0  0  0  0  0  0  0  0
   -2.2778   -1.5748   -0.2768 O   0  0  0  0  0  0  0  0  0  0  0  0
   -2.3776   -2.9568   -1.9515 N   0  0  0  0  0  0  0  0  0  0  0  0
   -3.2773   -3.2133   -1.5840 H   0  0  0  0  0  0  0  0  0  0  0  0
   -1.9814   -3.3649   -2.7738 H   0  0  0  0  0  0  0  0  0  0  0  0
   -0.7011    1.2952    0.7149 C   0  0  0  0  0  0  0  0  0  0  0  0
   -1.5917    1.9198    0.1415 O   0  0  0  0  0  0  0  0  0  0  0  0
    0.1191    1.8675    1.6055 N   0  0  0  0  0  0  0  0  0  0  0  0
    0.8092    1.2861    2.0537 H   0  0  0  0  0  0  0  0  0  0  0  0
    0.0509    3.2769    1.9894 C   0  0  0  0  0  0  0  0  0  0  0  0
   -0.9494    3.5076    2.3640 H   0  0  0  0  0  0  0  0  0  0  0  0
    0.7844    3.4956    2.7668 H   0  0  0  0  0  0  0  0  0  0  0  0
    0.2468    3.9058    1.1193 H   0  0  0  0  0  0  0  0  0  0  0  0
  5  6  2  0  0  0  0
  5  7  1  0  0  0  0
  2  3  1  0  0  0  0
  2  4  1  0  0  0  0
  2  5  1  0  0  0  0
  1  2  1  0  0  0  0
 22 23  2  0  0  0  0
 22 24  1  0  0  0  0
 19 20  1  0  0  0  0
 19 21  1  0  0  0  0
 17 18  2  0  0  0  0
 17 19  1  0  0  0  0
 14 15  1  0  0  0  0
 14 16  1  0  0  0  0
 14 17  1  0  0  0  0
 11 12  1  0  0  0  0
 11 13  1  0  0  0  0
 11 14  1  0  0  0  0
  9 10  1  0  0  0  0
  9 11  1  0  0  0  0
  9 22  1  0  0  0  0
  7  8  1  0  0  0  0
  7  9  1  0  0  0  0
 26 27  1  0  0  0  0
 26 28  1  0  0  0  0
 26 29  1  0  0  0  0
 24 25  1  0  0  0  0
 24 26  1  0  0  0  0
M  END
$$$$
default_name
  -OEChem-02102213163D

 29 28  0     1  0  0  0  0  0999 V2000
   -3.3998   -3.6239    1.3678 H   0  0  0  0  0  0  0  0  0  0  0  0
   -3.3608   -2.6749    0.8348 C   0  0  0  0  0  0  0  0  0  0  0  0
   -4.0988   -1.9909    1.2498 H   0  0  0  0  0  0  0  0  0  0  0  0
   -3.5618   -2.8419   -0.2222 H   0  0  0  0  0  0  0  0  0  0  0  0
   -1.9818   -2.0809    0.9918 C   0  0  0  0  0  0  0  0  0  0  0  0
   -1.1288   -2.6669    1.6468 O   0  0  0  0  0  0  0  0  0  0  0  0
   -1.7648   -0.9089    0.3998 N   0  0  0  0  0  0  0  0  0  0  0  0
   -2.5238   -0.4719   -0.1032 H   0  0  0  0  0  0  0  0  0  0  0  0
   -0.4848   -0.1959    0.4138 C   0  0  1  0  0  0  0  0  0  0  0  0
    0.1386   -0.6144    1.2058 H   0  0  0  0  0  0  0  0  0  0  0  0
    0.2271   -0.4272   -0.9334 C   0  0  0  0  0  0  0  0  0  0  0  0
    0.1525    0.4890   -1.5229 H   0  0  0  0  0  0  0  0  0  0  0  0
    1.2833   -0.6287   -0.7485 H   0  0  0  0  0  0  0  0  0  0  0  0
   -0.3629   -1.5841   -1.7586 C   0  0  0  0  0  0  0  0  0  0  0  0
   -0.2173   -1.3888   -2.8208 H   0  0  0  0  0  0  0  0  0  0  0  0
    0.1585   -2.5054   -1.4993 H   0  0  0  0  0  0  0  0  0  0  0  0
   -1.8578   -1.7934   -1.5176 C   0  0  0  0  0  0  0  0  0  0  0  0
   -2.4988   -1.1605   -0.6996 O   0  0  0  0  0  0  0  0  0  0  0  0
   -2.4868   -2.6984   -2.2356 N   0  0  0  0  0  0  0  0  0  0  0  0
   -3.4676   -2.7935   -2.0365 H   0  0  0  0  0  0  0  0  0  0  0  0
   -2.0086   -3.2445   -2.9232 H   0  0  0  0  0  0  0  0  0  0  0  0
   -0.7011    1.2952    0.7149 C   0  0  0  0  0  0  0  0  0  0  0  0
   -1.5917    1.9198    0.1415 O   0  0  0  0  0  0  0  0  0  0  0  0
    0.1191    1.8675    1.6055 N   0  0  0  0  0  0  0  0  0  0  0  0
    0.8092    1.2861    2.0537 H   0  0  0  0  0  0  0  0  0  0  0  0
    0.0509    3.2769    1.9894 C   0  0  0  0  0  0  0  0  0  0  0  0
   -0.9494    3.5076    2.3640 H   0  0  0  0  0  0  0  0  0  0  0  0
    0.7844    3.4956    2.7668 H   0  0  0  0  0  0  0  0  0  0  0  0
    0.2468    3.9058    1.1193 H   0  0  0  0  0  0  0  0  0  0  0  0
  5  6  2  0  0  0  0
  5  7  1  0  0  0  0
  2  3  1  0  0  0  0
  2  4  1  0  0  0  0
  2  5  1  0  0  0  0
  1  2  1  0  0  0  0
 22 23  2  0  0  0  0
 22 24  1  0  0  0  0
 19 20  1  0  0  0  0
 19 21  1  0  0  0  0
 17 18  2  0  0  0  0
 17 19  1  0  0  0  0
 14 15  1  0  0  0  0
 14 16  1  0  0  0  0
 14 17  1  0  0  0  0
 11 12  1  0  0  0  0
 11 13  1  0  0  0  0
 11 14  1  0  0  0  0
  9 10  1  0  0  0  0
  9 11  1  0  0  0  0
  9 22  1  0  0  0  0
  7  8  1  0  0  0  0
  7  9  1  0  0  0  0
 26 27  1  0  0  0  0
 26 28  1  0  0  0  0
 26 29  1  0  0  0  0
 24 25  1  0  0  0  0
 24 26  1  0  0  0  0
M  END
$$$$
default_name
  -OEChem-02102213163D

 29 28  0     1  0  0  0  0  0999 V2000
   -3.3998   -3.6239    1.3678 H   0  0  0  0  0  0  0  0  0  0  0  0
   -3.3608   -2.6749    0.8348 C   0  0  0  0  0  0  0  0  0  0  0  0
   -4.0988   -1.9909    1.2498 H   0  0  0  0  0  0  0  0  0  0  0  0
   -3.5618   -2.8419   -0.2222 H   0  0  0  0  0  0  0  0  0  0  0  0
   -1.9818   -2.0809    0.9918 C   0  0  0  0  0  0  0  0  0  0  0  0
   -1.1288   -2.6669    1.6468 O   0  0  0  0  0  0  0  0  0  0  0  0
   -1.7648   -0.9089    0.3998 N   0  0  0  0  0  0  0  0  0  0  0  0
   -2.5238   -0.4719   -0.1032 H   0  0  0  0  0  0  0  0  0  0  0  0
   -0.4848   -0.1959    0.4138 C   0  0  1  0  0  0  0  0  0  0  0  0
    0.1386   -0.6144    1.2058 H   0  0  0  0  0  0  0  0  0  0  0  0
    0.2271   -0.4272   -0.9334 C   0  0  0  0  0  0  0  0  0  0  0  0
    0.1525    0.4890   -1.5229 H   0  0  0  0  0  0  0  0  0  0  0  0
    1.2833   -0.6287   -0.7485 H   0  0  0  0  0  0  0  0  0  0  0  0
   -0.3629   -1.5841   -1.7586 C   0  0  0  0  0  0  0  0  0  0  0  0
    0.0067   -1.5305   -2.7824 H   0  0  0  0  0  0  0  0  0  0  0  0
   -0.0422   -2.5297   -1.3217 H   0  0  0  0  0  0  0  0  0  0  0  0
   -1.8907   -1.5703   -1.8069 C   0  0  0  0  0  0  0  0  0  0  0  0
   -2.5724   -0.7716   -1.1922 O   0  0  0  0  0  0  0  0  0  0  0  0
   -2.5012   -2.4618   -2.5570 N   0  0  0  0  0  0  0  0  0  0  0  0
   -3.5049   -2.4066   -2.5523 H   0  0  0  0  0  0  0  0  0  0  0  0
   -1.9891   -3.1392   -3.0848 H   0  0  0  0  0  0  0  0  0  0  0  0
   -0.7011    1.2952    0.7149 C   0  0  0  0  0  0  0  0  0  0  0  0
   -1.5917    1.9198    0.1415 O   0  0  0  0  0  0  0  0  0  0  0  0
    0.1191    1.8675    1.6055 N   0  0  0  0  0  0  0  0  0  0  0  0
    0.8092    1.2861    2.0537 H   0  0  0  0  0  0  0  0  0  0  0  0
    0.0509    3.2769    1.9894 C   0  0  0  0  0  0  0  0  0  0  0  0
   -0.9494    3.5076    2.3640 H   0  0  0  0  0  0  0  0  0  0  0  0
    0.7844    3.4956    2.7668 H   0  0  0  0  0  0  0  0  0  0  0  0
    0.2468    3.9058    1.1193 H   0  0  0  0  0  0  0  0  0  0  0  0
  5  6  2  0  0  0  0
  5  7  1  0  0  0  0
  2  3  1  0  0  0  0
  2  4  1  0  0  0  0
  2  5  1  0  0  0  0
  1  2  1  0  0  0  0
 22 23  2  0  0  0  0
 22 24  1  0  0  0  0
 19 20  1  0  0  0  0
 19 21  1  0  0  0  0
 17 18  2  0  0  0  0
 17 19  1  0  0  0  0
 14 15  1  0  0  0  0
 14 16  1  0  0  0  0
 14 17  1  0  0  0  0
 11 12  1  0  0  0  0
 11 13  1  0  0  0  0
 11 14  1  0  0  0  0
  9 10  1  0  0  0  0
  9 11  1  0  0  0  0
  9 22  1  0  0  0  0
  7  8  1  0  0  0  0
  7  9  1  0  0  0  0
 26 27  1  0  0  0  0
 26 28  1  0  0  0  0
 26 29  1  0  0  0  0
 24 25  1  0  0  0  0
 24 26  1  0  0  0  0
M  END
$$$$
default_name
  -OEChem-02102213163D

 29 28  0     1  0  0  0  0  0999 V2000
   -3.3998   -3.6239    1.3678 H   0  0  0  0  0  0  0  0  0  0  0  0
   -3.3608   -2.6749    0.8348 C   0  0  0  0  0  0  0  0  0  0  0  0
   -4.0988   -1.9909    1.2498 H   0  0  0  0  0  0  0  0  0  0  0  0
   -3.5618   -2.8419   -0.2222 H   0  0  0  0  0  0  0  0  0  0  0  0
   -1.9818   -2.0809    0.9918 C   0  0  0  0  0  0  0  0  0  0  0  0
   -1.1288   -2.6669    1.6468 O   0  0  0  0  0  0  0  0  0  0  0  0
   -1.7648   -0.9089    0.3998 N   0  0  0  0  0  0  0  0  0  0  0  0
   -2.5238   -0.4719   -0.1032 H   0  0  0  0  0  0  0  0  0  0  0  0
   -0.4848   -0.1959    0.4138 C   0  0  1  0  0  0  0  0  0  0  0  0
    0.1386   -0.6144    1.2058 H   0  0  0  0  0  0  0  0  0  0  0  0
    0.2271   -0.4272   -0.9334 C   0  0  0  0  0  0  0  0  0  0  0  0
    0.1525    0.4890   -1.5229 H   0  0  0  0  0  0  0  0  0  0  0  0
    1.2833   -0.6287   -0.7485 H   0  0  0  0  0  0  0  0  0  0  0  0
   -0.3629   -1.5841   -1.7586 C   0  0  0  0  0  0  0  0  0  0  0  0
    0.1960   -1.6947   -2.6876 H   0  0  0  0  0  0  0  0  0  0  0  0
   -0.2741   -2.5077   -1.1868 H   0  0  0  0  0  0  0  0  0  0  0  0
   -1.8351   -1.3789   -2.1149 C   0  0  0  0  0  0  0  0  0  0  0  0
   -2.4937   -0.4347   -1.7208 O   0  0  0  0  0  0  0  0  0  0  0  0
   -2.4198   -2.2632   -2.8937 N   0  0  0  0  0  0  0  0  0  0  0  0
   -3.3870   -2.0788   -3.0962 H   0  0  0  0  0  0  0  0  0  0  0  0
   -1.9242   -3.0562   -3.2474 H   0  0  0  0  0  0  0  0  0  0  0  0
   -0.7011    1.2952    0.7149 C   0  0  0  0  0  0  0  0  0  0  0  0
   -1.5917    1.9198    0.1415 O   0  0  0  0  0  0  0  0  0  0  0  0
    0.1191    1.8675    1.6055 N   0  0  0  0  0  0  0  0  0  0  0  0
    0.8092    1.2861    2.0537 H   0  0  0  0  0  0  0  0  0  0  0  0
    0.0509    3.2769    1.9894 C   0  0  0  0  0  0  0  0  0  0  0  0
   -0.9494    3.5076    2.3640 H   0  0  0  0  0  0  0  0  0  0  0  0
    0.7844    3.4956    2.7668 H   0  0  0  0  0  0  0  0  0  0  0  0
    0.2468    3.9058    1.1193 H   0  0  0  0  0  0  0  0  0  0  0  0
  5  6  2  0  0  0  0
  5  7  1  0  0  0  0
  2  3  1  0  0  0  0
  2  4  1  0  0  0  0
  2  5  1  0  0  0  0
  1  2  1  0  0  0  0
 22 23  2  0  0  0  0
 22 24  1  0  0  0  0
 19 20  1  0  0  0  0
 19 21  1  0  0  0  0
 17 18  2  0  0  0  0
 17 19  1  0  0  0  0
 14 15  1  0  0  0  0
 14 16  1  0  0  0  0
 14 17  1  0  0  0  0
 11 12  1  0  0  0  0
 11 13  1  0  0  0  0
 11 14  1  0  0  0  0
  9 10  1  0  0  0  0
  9 11  1  0  0  0  0
  9 22  1  0  0  0  0
  7  8  1  0  0  0  0
  7  9  1  0  0  0  0
 26 27  1  0  0  0  0
 26 28  1  0  0  0  0
 26 29  1  0  0  0  0
 24 25  1  0  0  0  0
 24 26  1  0  0  0  0
M  END
$$$$
default_name
  -OEChem-02102213163D

 29 28  0     1  0  0  0  0  0999 V2000
   -3.3998   -3.6239    1.3678 H   0  0  0  0  0  0  0  0  0  0  0  0
   -3.3608   -2.6749    0.8348 C   0  0  0  0  0  0  0  0  0  0  0  0
   -4.0988   -1.9909    1.2498 H   0  0  0  0  0  0  0  0  0  0  0  0
   -3.5618   -2.8419   -0.2222 H   0  0  0  0  0  0  0  0  0  0  0  0
   -1.9818   -2.0809    0.9918 C   0  0  0  0  0  0  0  0  0  0  0  0
   -1.1288   -2.6669    1.6468 O   0  0  0  0  0  0  0  0  0  0  0  0
   -1.7648   -0.9089    0.3998 N   0  0  0  0  0  0  0  0  0  0  0  0
   -2.5238   -0.4719   -0.1032 H   0  0  0  0  0  0  0  0  0  0  0  0
   -0.4848   -0.1959    0.4138 C   0  0  1  0  0  0  0  0  0  0  0  0
    0.1386   -0.6144    1.2058 H   0  0  0  0  0  0  0  0  0  0  0  0
    0.2271   -0.4272   -0.9334 C   0  0  0  0  0  0  0  0  0  0  0  0
    0.1525    0.4890   -1.5229 H   0  0  0  0  0  0  0  0  0  0  0  0
    1.2833   -0.6287   -0.7485 H   0  0  0  0  0  0  0  0  0  0  0  0
   -0.3629   -1.5841   -1.7586 C   0  0  0  0  0  0  0  0  0  0  0  0
    0.3376   -1.8701   -2.5429 H   0  0  0  0  0  0  0  0  0  0  0  0
   -0.5212   -2.4409   -1.1038 H   0  0  0  0  0  0  0  0  0  0  0  0
   -1.6950   -1.2323   -2.4207 C   0  0  0  0  0  0  0  0  0  0  0  0
   -2.2680   -0.1726   -2.2496 O   0  0  0  0  0  0  0  0  0  0  0  0
   -2.2480   -2.1161   -3.2227 N   0  0  0  0  0  0  0  0  0  0  0  0
   -3.1217   -1.8325   -3.6311 H   0  0  0  0  0  0  0  0  0  0  0  0
   -1.8183   -3.0013   -3.4002 H   0  0  0  0  0  0  0  0  0  0  0  0
   -0.7011    1.2952    0.7149 C   0  0  0  0  0  0  0  0  0  0  0  0
   -1.5917    1.9198    0.1415 O   0  0  0  0  0  0  0  0  0  0  0  0
    0.1191    1.8675    1.6055 N   0  0  0  0  0  0  0  0  0  0  0  0
    0.8092    1.2861    2.0537 H   0  0  0  0  0  0  0  0  0  0  0  0
    0.0509    3.2769    1.9894 C   0  0  0  0  0  0  0  0  0  0  0  0
   -0.9494    3.5076    2.3640 H   0  0  0  0  0  0  0  0  0  0  0  0
    0.7844    3.4956    2.7668 H   0  0  0  0  0  0  0  0  0  0  0  0
    0.2468    3.9058    1.1193 H   0  0  0  0  0  0  0  0  0  0  0  0
  5  6  2  0  0  0  0
  5  7  1  0  0  0  0
  2  3  1  0  0  0  0
  2  4  1  0  0  0  0
  2  5  1  0  0  0  0
  1  2  1  0  0  0  0
 22 23  2  0  0  0  0
 22 24  1  0  0  0  0
 19 20  1  0  0  0  0
 19 21  1  0  0  0  0
 17 18  2  0  0  0  0
 17 19  1  0  0  0  0
 14 15  1  0  0  0  0
 14 16  1  0  0  0  0
 14 17  1  0  0  0  0
 11 12  1  0  0  0  0
 11 13  1  0  0  0  0
 11 14  1  0  0  0  0
  9 10  1  0  0  0  0
  9 11  1  0  0  0  0
  9 22  1  0  0  0  0
  7  8  1  0  0  0  0
  7  9  1  0  0  0  0
 26 27  1  0  0  0  0
 26 28  1  0  0  0  0
 26 29  1  0  0  0  0
 24 25  1  0  0  0  0
 24 26  1  0  0  0  0
M  END
$$$$
default_name
  -OEChem-02102213163D

 29 28  0     1  0  0  0  0  0999 V2000
   -3.3998   -3.6239    1.3678 H   0  0  0  0  0  0  0  0  0  0  0  0
   -3.3608   -2.6749    0.8348 C   0  0  0  0  0  0  0  0  0  0  0  0
   -4.0988   -1.9909    1.2498 H   0  0  0  0  0  0  0  0  0  0  0  0
   -3.5618   -2.8419   -0.2222 H   0  0  0  0  0  0  0  0  0  0  0  0
   -1.9818   -2.0809    0.9918 C   0  0  0  0  0  0  0  0  0  0  0  0
   -1.1288   -2.6669    1.6468 O   0  0  0  0  0  0  0  0  0  0  0  0
   -1.7648   -0.9089    0.3998 N   0  0  0  0  0  0  0  0  0  0  0  0
   -2.5238   -0.4719   -0.1032 H   0  0  0  0  0  0  0  0  0  0  0  0
   -0.4848   -0.1959    0.4138 C   0  0  1  0  0  0  0  0  0  0  0  0
    0.1386   -0.6144    1.2058 H   0  0  0  0  0  0  0  0  0  0  0  0
    0.2271   -0.4272   -0.9334 C   0  0  0  0  0  0  0  0  0  0  0  0
    0.1525    0.4890   -1.5229 H   0  0  0  0  0  0  0  0  0  0  0  0
    1.2833   -0.6287   -0.7485 H   0  0  0  0  0  0  0  0  0  0  0  0
   -0.3629   -1.5841   -1.7586 C   0  0  0  0  0  0  0  0  0  0  0  0
    0.4219   -2.0448   -2.3582 H   0  0  0  0  0  0  0  0  0  0  0  0
   -0.7668   -2.3338   -1.0783 H   0  0  0  0  0  0  0  0  0  0  0  0
   -1.4798   -1.1405   -2.7032 C   0  0  0  0  0  0  0  0  0  0  0  0
   -1.9108   -0.0033   -2.7425 O   0  0  0  0  0  0  0  0  0  0  0  0
   -1.9976   -2.0305   -3.5217 N   0  0  0  0  0  0  0  0  0  0  0  0
   -2.7272   -1.6846   -4.1206 H   0  0  0  0  0  0  0  0  0  0  0  0
   -1.6787   -2.9781   -3.5326 H   0  0  0  0  0  0  0  0  0  0  0  0
   -0.7011    1.2952    0.7149 C   0  0  0  0  0  0  0  0  0  0  0  0
   -1.5917    1.9198    0.1415 O   0  0  0  0  0  0  0  0  0  0  0  0
    0.1191    1.8675    1.6055 N   0  0  0  0  0  0  0  0  0  0  0  0
    0.8092    1.2861    2.0537 H   0  0  0  0  0  0  0  0  0  0  0  0
    0.0509    3.2769    1.9894 C   0  0  0  0  0  0  0  0  0  0  0  0
   -0.9494    3.5076    2.3640 H   0  0  0  0  0  0  0  0  0  0  0  0
    0.7844    3.4956    2.7668 H   0  0  0  0  0  0  0  0  0  0  0  0
    0.2468    3.9058    1.1193 H   0  0  0  0  0  0  0  0  0  0  0  0
  5  6  2  0  0  0  0
  5  7  1  0  0  0  0
  2  3  1  0  0  0  0
  2  4  1  0  0  0  0
  2  5  1  0  0  0  0
  1  2  1  0  0  0  0
 22 23  2  0  0  0  0
 22 24  1  0  0  0  0
 19 20  1  0  0  0  0
 19 21  1  0  0  0  0
 17 18  2  0  0  0  0
 17 19  1  0  0  0  0
 14 15  1  0  0  0  0
 14 16  1  0  0  0  0
 14 17  1  0  0  0  0
 11 12  1  0  0  0  0
 11 13  1  0  0  0  0
 11 14  1  0  0  0  0
  9 10  1  0  0  0  0
  9 11  1  0  0  0  0
  9 22  1  0  0  0  0
  7  8  1  0  0  0  0
  7  9  1  0  0  0  0
 26 27  1  0  0  0  0
 26 28  1  0  0  0  0
 26 29  1  0  0  0  0
 24 25  1  0  0  0  0
 24 26  1  0  0  0  0
M  END
$$$$
default_name
  -OEChem-02102213163D

 29 28  0     1  0  0  0  0  0999 V2000
   -3.3998   -3.6239    1.3678 H   0  0  0  0  0  0  0  0  0  0  0  0
   -3.3608   -2.6749    0.8348 C   0  0  0  0  0  0  0  0  0  0  0  0
   -4.0988   -1.9909    1.2498 H   0  0  0  0  0  0  0  0  0  0  0  0
   -3.5618   -2.8419   -0.2222 H   0  0  0  0  0  0  0  0  0  0  0  0
   -1.9818   -2.0809    0.9918 C   0  0  0  0  0  0  0  0  0  0  0  0
   -1.1288   -2.6669    1.6468 O   0  0  0  0  0  0  0  0  0  0  0  0
   -1.7648   -0.9089    0.3998 N   0  0  0  0  0  0  0  0  0  0  0  0
   -2.5238   -0.4719   -0.1032 H   0  0  0  0  0  0  0  0  0  0  0  0
   -0.4848   -0.1959    0.4138 C   0  0  1  0  0  0  0  0  0  0  0  0
    0.1386   -0.6144    1.2058 H   0  0  0  0  0  0  0  0  0  0  0  0
    0.2271   -0.4272   -0.9334 C   0  0  0  0  0  0  0  0  0  0  0  0
    0.1525    0.4890   -1.5229 H   0  0  0  0  0  0  0  0  0  0  0  0
    1.2833   -0.6287   -0.7485 H   0  0  0  0  0  0  0  0  0  0  0  0
   -0.3629   -1.5841   -1.7586 C   0  0  0  0  0  0  0  0  0  0  0  0
    0.4431   -2.2069   -2.1460 H   0  0  0  0  0  0  0  0  0  0  0  0
   -0.9941   -2.1937   -1.1122 H   0  0  0  0  0  0  0  0  0  0  0  0
   -1.2042   -1.1097   -2.9434 C   0  0  0  0  0  0  0  0  0  0  0  0
   -1.4462    0.0618   -3.1659 O   0  0  0  0  0  0  0  0  0  0  0  0
   -1.6857   -2.0123   -3.7704 N   0  0  0  0  0  0  0  0  0  0  0  0
   -2.2303   -1.6450   -4.5313 H   0  0  0  0  0  0  0  0  0  0  0  0
   -1.5148   -2.9881   -3.6356 H   0  0  0  0  0  0  0  0  0  0  0  0
   -0.7011    1.2952    0.7149 C   0  0  0  0  0  0  0  0  0  0  0  0
   -1.5917    1.9198    0.1415 O   0  0  0  0  0  0  0  0  0  0  0  0
    0.1191    1.8675    1.6055 N   0  0  0  0  0  0  0  0  0  0  0  0
    0.8092    1.2861    2.0537 H   0  0  0  0  0  0  0  0  0  0  0  0
    0.0509    3.2769    1.9894 C   0  0  0  0  0  0  0  0  0  0  0  0
   -0.9494    3.5076    2.3640 H   0  0  0  0  0  0  0  0  0  0  0  0
    0.7844    3.4956    2.7668 H   0  0  0  0  0  0  0  0  0  0  0  0
    0.2468    3.9058    1.1193 H   0  0  0  0  0  0  0  0  0  0  0  0
  5  6  2  0  0  0  0
  5  7  1  0  0  0  0
  2  3  1  0  0  0  0
  2  4  1  0  0  0  0
  2  5  1  0  0  0  0
  1  2  1  0  0  0  0
 22 23  2  0  0  0  0
 22 24  1  0  0  0  0
 19 20  1  0  0  0  0
 19 21  1  0  0  0  0
 17 18  2  0  0  0  0
 17 19  1  0  0  0  0
 14 15  1  0  0  0  0
 14 16  1  0  0  0  0
 14 17  1  0  0  0  0
 11 12  1  0  0  0  0
 11 13  1  0  0  0  0
 11 14  1  0  0  0  0
  9 10  1  0  0  0  0
  9 11  1  0  0  0  0
  9 22  1  0  0  0  0
  7  8  1  0  0  0  0
  7  9  1  0  0  0  0
 26 27  1  0  0  0  0
 26 28  1  0  0  0  0
 26 29  1  0  0  0  0
 24 25  1  0  0  0  0
 24 26  1  0  0  0  0
M  END
$$$$
default_name
  -OEChem-02102213163D

 29 28  0     1  0  0  0  0  0999 V2000
   -3.3998   -3.6239    1.3678 H   0  0  0  0  0  0  0  0  0  0  0  0
   -3.3608   -2.6749    0.8348 C   0  0  0  0  0  0  0  0  0  0  0  0
   -4.0988   -1.9909    1.2498 H   0  0  0  0  0  0  0  0  0  0  0  0
   -3.5618   -2.8419   -0.2222 H   0  0  0  0  0  0  0  0  0  0  0  0
   -1.9818   -2.0809    0.9918 C   0  0  0  0  0  0  0  0  0  0  0  0
   -1.1288   -2.6669    1.6468 O   0  0  0  0  0  0  0  0  0  0  0  0
   -1.7648   -0.9089    0.3998 N   0  0  0  0  0  0  0  0  0  0  0  0
   -2.5238   -0.4719   -0.1032 H   0  0  0  0  0  0  0  0  0  0  0  0
   -0.4848   -0.1959    0.4138 C   0  0  1  0  0  0  0  0  0  0  0  0
    0.1386   -0.6144    1.2058 H   0  0  0  0  0  0  0  0  0  0  0  0
    0.2271   -0.4272   -0.9334 C   0  0  0  0  0  0  0  0  0  0  0  0
    0.1525    0.4890   -1.5229 H   0  0  0  0  0  0  0  0  0  0  0  0
    1.2833   -0.6287   -0.7485 H   0  0  0  0  0  0  0  0  0  0  0  0
   -0.3629   -1.5841   -1.7586 C   0  0  0  0  0  0  0  0  0  0  0  0
    0.3997   -2.3454   -1.9209 H   0  0  0  0  0  0  0  0  0  0  0  0
   -1.1876   -2.0302   -1.2030 H   0  0  0  0  0  0  0  0  0  0  0  0
   -0.8870   -1.1421   -3.1248 C   0  0  0  0  0  0  0  0  0  0  0  0
   -0.9061    0.0182   -3.4908 O   0  0  0  0  0  0  0  0  0  0  0  0
   -1.3335   -2.0626   -3.9516 N   0  0  0  0  0  0  0  0  0  0  0  0
   -1.6649   -1.7165   -4.8353 H   0  0  0  0  0  0  0  0  0  0  0  0
   -1.3379   -3.0308   -3.7022 H   0  0  0  0  0  0  0  0  0  0  0  0
   -0.7011    1.2952    0.7149 C   0  0  0  0  0  0  0  0  0  0  0  0
   -1.5917    1.9198    0.1415 O   0  0  0  0  0  0  0  0  0  0  0  0
    0.1191    1.8675    1.6055 N   0  0  0  0  0  0  0  0  0  0  0  0
    0.8092    1.2861    2.0537 H   0  0  0  0  0  0  0  0  0  0  0  0
    0.0509    3.2769    1.9894 C   0  0  0  0  0  0  0  0  0  0  0  0
   -0.9494    3.5076    2.3640 H   0  0  0  0  0  0  0  0  0  0  0  0
    0.7844    3.4956    2.7668 H   0  0  0  0  0  0  0  0  0  0  0  0
    0.2468    3.9058    1.1193 H   0  0  0  0  0  0  0  0  0  0  0  0
  5  6  2  0  0  0  0
  5  7  1  0  0  0  0
  2  3  1  0  0  0  0
  2  4  1  0  0  0  0
  2  5  1  0  0  0  0
  1  2  1  0  0  0  0
 22 23  2  0  0  0  0
 22 24  1  0  0  0  0
 19 20  1  0  0  0  0
 19 21  1  0  0  0  0
 17 18  2  0  0  0  0
 17 19  1  0  0  0  0
 14 15  1  0  0  0  0
 14 16  1  0  0  0  0
 14 17  1  0  0  0  0
 11 12  1  0  0  0  0
 11 13  1  0  0  0  0
 11 14  1  0  0  0  0
  9 10  1  0  0  0  0
  9 11  1  0  0  0  0
  9 22  1  0  0  0  0
  7  8  1  0  0  0  0
  7  9  1  0  0  0  0
 26 27  1  0  0  0  0
 26 28  1  0  0  0  0
 26 29  1  0  0  0  0
 24 25  1  0  0  0  0
 24 26  1  0  0  0  0
M  END
$$$$
default_name
  -OEChem-02102213163D

 29 28  0     1  0  0  0  0  0999 V2000
   -3.3998   -3.6239    1.3678 H   0  0  0  0  0  0  0  0  0  0  0  0
   -3.3608   -2.6749    0.8348 C   0  0  0  0  0  0  0  0  0  0  0  0
   -4.0988   -1.9909    1.2498 H   0  0  0  0  0  0  0  0  0  0  0  0
   -3.5618   -2.8419   -0.2222 H   0  0  0  0  0  0  0  0  0  0  0  0
   -1.9818   -2.0809    0.9918 C   0  0  0  0  0  0  0  0  0  0  0  0
   -1.1288   -2.6669    1.6468 O   0  0  0  0  0  0  0  0  0  0  0  0
   -1.7648   -0.9089    0.3998 N   0  0  0  0  0  0  0  0  0  0  0  0
   -2.5238   -0.4719   -0.1032 H   0  0  0  0  0  0  0  0  0  0  0  0
   -0.4848   -0.1959    0.4138 C   0  0  1  0  0  0  0  0  0  0  0  0
    0.1386   -0.6144    1.2058 H   0  0  0  0  0  0  0  0  0  0  0  0
    0.2271   -0.4272   -0.9334 C   0  0  0  0  0  0  0  0  0  0  0  0
    0.1525    0.4890   -1.5229 H   0  0  0  0  0  0  0  0  0  0  0  0
    1.2833   -0.6287   -0.7485 H   0  0  0  0  0  0  0  0  0  0  0  0
   -0.3629   -1.5841   -1.7586 C   0  0  0  0  0  0  0  0  0  0  0  0
    0.2949   -2.4509   -1.6981 H   0  0  0  0  0  0  0  0  0  0  0  0
   -1.3342   -1.8545   -1.3446 H   0  0  0  0  0  0  0  0  0  0  0  0
   -0.5498   -1.2354   -3.2351 C   0  0  0  0  0  0  0  0  0  0  0  0
   -0.3272   -0.1312   -3.6953 O   0  0  0  0  0  0  0  0  0  0  0  0
   -0.9650   -2.1781   -4.0532 N   0  0  0  0  0  0  0  0  0  0  0  0
   -1.0696   -1.8942   -5.0118 H   0  0  0  0  0  0  0  0  0  0  0  0
   -1.1600   -3.1032   -3.7279 H   0  0  0  0  0  0  0  0  0  0  0  0
   -0.7011    1.2952    0.7149 C   0  0  0  0  0  0  0  0  0  0  0  0
   -1.5917    1.9198    0.1415 O   0  0  0  0  0  0  0  0  0  0  0  0
    0.1191    1.8675    1.6055 N   0  0  0  0  0  0  0  0  0  0  0  0
    0.8092    1.2861    2.0537 H   0  0  0  0  0  0  0  0  0  0  0  0
    0.0509    3.2769    1.9894 C   0  0  0  0  0  0  0  0  0  0  0  0
   -0.9494    3.5076    2.3640 H   0  0  0  0  0  0  0  0  0  0  0  0
    0.7844    3.4956    2.7668 H   0  0  0  0  0  0  0  0  0  0  0  0
    0.2468    3.9058    1.1193 H   0  0  0  0  0  0  0  0  0  0  0  0
  5  6  2  0  0  0  0
  5  7  1  0  0  0  0
  2  3  1  0  0  0  0
  2  4  1  0  0  0  0
  2  5  1  0  0  0  0
  1  2  1  0  0  0  0
 22 23  2  0  0  0  0
 22 24  1  0  0  0  0
 19 20  1  0  0  0  0
 19 21  1  0  0  0  0
 17 18  2  0  0  0  0
 17 19  1  0  0  0  0
 14 15  1  0  0  0  0
 14 16  1  0  0  0  0
 14 17  1  0  0  0  0
 11 12  1  0  0  0  0
 11 13  1  0  0  0  0
 11 14  1  0  0  0  0
  9 10  1  0  0  0  0
  9 11  1  0  0  0  0
  9 22  1  0  0  0  0
  7  8  1  0  0  0  0
  7  9  1  0  0  0  0
 26 27  1  0  0  0  0
 26 28  1  0  0  0  0
 26 29  1  0  0  0  0
 24 25  1  0  0  0  0
 24 26  1  0  0  0  0
M  END
$$$$
default_name
  -OEChem-02102213163D

 29 28  0     1  0  0  0  0  0999 V2000
   -3.3998   -3.6239    1.3678 H   0  0  0  0  0  0  0  0  0  0  0  0
   -3.3608   -2.6749    0.8348 C   0  0  0  0  0  0  0  0  0  0  0  0
   -4.0988   -1.9909    1.2498 H   0  0  0  0  0  0  0  0  0  0  0  0
   -3.5618   -2.8419   -0.2222 H   0  0  0  0  0  0  0  0  0  0  0  0
   -1.9818   -2.0809    0.9918 C   0  0  0  0  0  0  0  0  0  0  0  0
   -1.1288   -2.6669    1.6468 O   0  0  0  0  0  0  0  0  0  0  0  0
   -1.7648   -0.9089    0.3998 N   0  0  0  0  0  0  0  0  0  0  0  0
   -2.5238   -0.4719   -0.1032 H   0  0  0  0  0  0  0  0  0  0  0  0
   -0.4848   -0.1959    0.4138 C   0  0  1  0  0  0  0  0  0  0  0  0
    0.1386   -0.6144    1.2058 H   0  0  0  0  0  0  0  0  0  0  0  0
    0.2271   -0.4272   -0.9334 C   0  0  0  0  0  0  0  0  0  0  0  0
    0.1525    0.4890   -1.5229 H   0  0  0  0  0  0  0  0  0  0  0  0
    1.2833   -0.6287   -0.7485 H   0  0  0  0  0  0  0  0  0  0  0  0
   -0.3629   -1.5841   -1.7586 C   0  0  0  0  0  0  0  0  0  0  0  0
    0.1356   -2.5160   -1.4928 H   0  0  0  0  0  0  0  0  0  0  0  0
   -1.4238   -1.6784   -1.5274 H   0  0  0  0  0  0  0  0  0  0  0  0
   -0.2155   -1.3833   -3.2668 C   0  0  0  0  0  0  0  0  0  0  0  0
    0.2510   -0.3762   -3.7653 O   0  0  0  0  0  0  0  0  0  0  0  0
   -0.6054   -2.3509   -4.0681 N   0  0  0  0  0  0  0  0  0  0  0  0
   -0.4849   -2.1660   -5.0488 H   0  0  0  0  0  0  0  0  0  0  0  0
   -0.9932   -3.2004   -3.7109 H   0  0  0  0  0  0  0  0  0  0  0  0
   -0.7011    1.2952    0.7149 C   0  0  0  0  0  0  0  0  0  0  0  0
   -1.5917    1.9198    0.1415 O   0  0  0  0  0  0  0  0  0  0  0  0
    0.1191    1.8675    1.6055 N   0  0  0  0  0  0  0  0  0  0  0  0
    0.8092    1.2861    2.0537 H   0  0  0  0  0  0  0  0  0  0  0  0
    0.0509    3.2769    1.9894 C   0  0  0  0  0  0  0  0  0  0  0  0
   -0.9494    3.5076    2.3640 H   0  0  0  0  0  0  0  0  0  0  0  0
    0.7844    3.4956    2.7668 H   0  0  0  0  0  0  0  0  0  0  0  0
    0.2468    3.9058    1.1193 H   0  0  0  0  0  0  0  0  0  0  0  0
  5  6  2  0  0  0  0
  5  7  1  0  0  0  0
  2  3  1  0  0  0  0
  2  4  1  0  0  0  0
  2  5  1  0  0  0  0
  1  2  1  0  0  0  0
 22 23  2  0  0  0  0
 22 24  1  0  0  0  0
 19 20  1  0  0  0  0
 19 21  1  0  0  0  0
 17 18  2  0  0  0  0
 17 19  1  0  0  0  0
 14 15  1  0  0  0  0
 14 16  1  0  0  0  0
 14 17  1  0  0  0  0
 11 12  1  0  0  0  0
 11 13  1  0  0  0  0
 11 14  1  0  0  0  0
  9 10  1  0  0  0  0
  9 11  1  0  0  0  0
  9 22  1  0  0  0  0
  7  8  1  0  0  0  0
  7  9  1  0  0  0  0
 26 27  1  0  0  0  0
 26 28  1  0  0  0  0
 26 29  1  0  0  0  0
 24 25  1  0  0  0  0
 24 26  1  0  0  0  0
M  END
$$$$
default_name
  -OEChem-02102213163D

 29 28  0     1  0  0  0  0  0999 V2000
   -3.3998   -3.6239    1.3678 H   0  0  0  0  0  0  0  0  0  0  0  0
   -3.3608   -2.6749    0.8348 C   0  0  0  0  0  0  0  0  0  0  0  0
   -4.0988   -1.9909    1.2498 H   0  0  0  0  0  0  0  0  0  0  0  0
   -3.5618   -2.8419   -0.2222 H   0  0  0  0  0  0  0  0  0  0  0  0
   -1.9818   -2.0809    0.9918 C   0  0  0  0  0  0  0  0  0  0  0  0
   -1.1288   -2.6669    1.6468 O   0  0  0  0  0  0  0  0  0  0  0  0
   -1.7648   -0.9089    0.3998 N   0  0  0  0  0  0  0  0  0  0  0  0
   -2.5238   -0.4719   -0.1032 H   0  0  0  0  0  0  0  0  0  0  0  0
   -0.4848   -0.1959    0.4138 C   0  0  1  0  0  0  0  0  0  0  0  0
    0.1386   -0.6144    1.2058 H   0  0  0  0  0  0  0  0  0  0  0  0
    0.2271   -0.4272   -0.9334 C   0  0  0  0  0  0  0  0  0  0  0  0
    0.1525    0.4890   -1.5229 H   0  0  0  0  0  0  0  0  0  0  0  0
    1.2833   -0.6287   -0.7485 H   0  0  0  0  0  0  0  0  0  0  0  0
   -0.3629   -1.5841   -1.7586 C   0  0  0  0  0  0  0  0  0  0  0  0
   -0.0673   -2.5365   -1.3191 H   0  0  0  0  0  0  0  0  0  0  0  0
   -1.4504   -1.5140   -1.7388 H   0  0  0  0  0  0  0  0  0  0  0  0
    0.0929   -1.5757   -3.2176 C   0  0  0  0  0  0  0  0  0  0  0  0
    0.7891   -0.7000   -3.6962 O   0  0  0  0  0  0  0  0  0  0  0  0
   -0.2791   -2.5692   -3.9953 N   0  0  0  0  0  0  0  0  0  0  0  0
    0.0494   -2.5134   -4.9438 H   0  0  0  0  0  0  0  0  0  0  0  0
   -0.8489   -3.3158   -3.6524 H   0  0  0  0  0  0  0  0  0  0  0  0
   -0.7011    1.2952    0.7149 C   0  0  0  0  0  0  0  0  0  0  0  0
   -1.5917    1.9198    0.1415 O   0  0  0  0  0  0  0  0  0  0  0  0
    0.1191    1.8675    1.6055 N   0  0  0  0  0  0  0  0  0  0  0  0
    0.8092    1.2861    2.0537 H   0  0  0  0  0  0  0  0  0  0  0  0
    0.0509    3.2769    1.9894 C   0  0  0  0  0  0  0  0  0  0  0  0
   -0.9494    3.5076    2.3640 H   0  0  0  0  0  0  0  0  0  0  0  0
    0.7844    3.4956    2.7668 H   0  0  0  0  0  0  0  0  0  0  0  0
    0.2468    3.9058    1.1193 H   0  0  0  0  0  0  0  0  0  0  0  0
  5  6  2  0  0  0  0
  5  7  1  0  0  0  0
  2  3  1  0  0  0  0
  2  4  1  0  0  0  0
  2  5  1  0  0  0  0
  1  2  1  0  0  0  0
 22 23  2  0  0  0  0
 22 24  1  0  0  0  0
 19 20  1  0  0  0  0
 19 21  1  0  0  0  0
 17 18  2  0  0  0  0
 17 19  1  0  0  0  0
 14 15  1  0  0  0  0
 14 16  1  0  0  0  0
 14 17  1  0  0  0  0
 11 12  1  0  0  0  0
 11 13  1  0  0  0  0
 11 14  1  0  0  0  0
  9 10  1  0  0  0  0
  9 11  1  0  0  0  0
  9 22  1  0  0  0  0
  7  8  1  0  0  0  0
  7  9  1  0  0  0  0
 26 27  1  0  0  0  0
 26 28  1  0  0  0  0
 26 29  1  0  0  0  0
 24 25  1  0  0  0  0
 24 26  1  0  0  0  0
M  END
$$$$
default_name
  -OEChem-02102213163D

 29 28  0     1  0  0  0  0  0999 V2000
   -3.3998   -3.6239    1.3678 H   0  0  0  0  0  0  0  0  0  0  0  0
   -3.3608   -2.6749    0.8348 C   0  0  0  0  0  0  0  0  0  0  0  0
   -4.0988   -1.9909    1.2498 H   0  0  0  0  0  0  0  0  0  0  0  0
   -3.5618   -2.8419   -0.2222 H   0  0  0  0  0  0  0  0  0  0  0  0
   -1.9818   -2.0809    0.9918 C   0  0  0  0  0  0  0  0  0  0  0  0
   -1.1288   -2.6669    1.6468 O   0  0  0  0  0  0  0  0  0  0  0  0
   -1.7648   -0.9089    0.3998 N   0  0  0  0  0  0  0  0  0  0  0  0
   -2.5238   -0.4719   -0.1032 H   0  0  0  0  0  0  0  0  0  0  0  0
   -0.4848   -0.1959    0.4138 C   0  0  1  0  0  0  0  0  0  0  0  0
    0.1386   -0.6144    1.2058 H   0  0  0  0  0  0  0  0  0  0  0  0
    0.2271   -0.4272   -0.9334 C   0  0  0  0  0  0  0  0  0  0  0  0
    0.3906    0.5434   -1.4064 H   0  0  0  0  0  0  0  0  0  0  0  0
    1.2002   -0.8847   -0.7485 H   0  0  0  0  0  0  0  0  0  0  0  0
   -0.5627   -1.3157   -1.9102 C   0  0  0  0  0  0  0  0  0  0  0  0
   -0.7389   -2.2916   -1.4583 H   0  0  0  0  0  0  0  0  0  0  0  0
   -1.5256   -0.8477   -2.1146 H   0  0  0  0  0  0  0  0  0  0  0  0
    0.1575   -1.5346   -3.2407 C   0  0  0  0  0  0  0  0  0  0  0  0
    1.2114   -0.9983   -3.5273 O   0  0  0  0  0  0  0  0  0  0  0  0
   -0.3844   -2.3502   -4.1190 N   0  0  0  0  0  0  0  0  0  0  0  0
    0.1314   -2.4577   -4.9750 H   0  0  0  0  0  0  0  0  0  0  0  0
   -1.2479   -2.8188   -3.9333 H   0  0  0  0  0  0  0  0  0  0  0  0
   -0.7011    1.2952    0.7149 C   0  0  0  0  0  0  0  0  0  0  0  0
   -1.5917    1.9198    0.1415 O   0  0  0  0  0  0  0  0  0  0  0  0
    0.1191    1.8675    1.6055 N   0  0  0  0  0  0  0  0  0  0  0  0
    0.8092    1.2861    2.0537 H   0  0  0  0  0  0  0  0  0  0  0  0
    0.0509    3.2769    1.9894 C   0  0  0  0  0  0  0  0  0  0  0  0
   -0.9494    3.5076    2.3640 H   0  0  0  0  0  0  0  0  0  0  0  0
    0.7844    3.4956    2.7668 H   0  0  0  0  0  0  0  0  0  0  0  0
    0.2468    3.9058    1.1193 H   0  0  0  0  0  0  0  0  0  0  0  0
  5  6  2  0  0  0  0
  5  7  1  0  0  0  0
  2  3  1  0  0  0  0
  2  4  1  0  0  0  0
  2  5  1  0  0  0  0
  1  2  1  0  0  0  0
 22 23  2  0  0  0  0
 22 24  1  0  0  0  0
 19 20  1  0  0  0  0
 19 21  1  0  0  0  0
 17 18  2  0  0  0  0
 17 19  1  0  0  0  0
 14 15  1  0  0  0  0
 14 16  1  0  0  0  0
 14 17  1  0  0  0  0
 11 12  1  0  0  0  0
 11 13  1  0  0  0  0
 11 14  1  0  0  0  0
  9 10  1  0  0  0  0
  9 11  1  0  0  0  0
  9 22  1  0  0  0  0
  7  8  1  0  0  0  0
  7  9  1  0  0  0  0
 26 27  1  0  0  0  0
 26 28  1  0  0  0  0
 26 29  1  0  0  0  0
 24 25  1  0  0  0  0
 24 26  1  0  0  0  0
M  END
$$$$
default_name
  -OEChem-02102213163D

 29 28  0     1  0  0  0  0  0999 V2000
   -3.3998   -3.6239    1.3678 H   0  0  0  0  0  0  0  0  0  0  0  0
   -3.3608   -2.6749    0.8348 C   0  0  0  0  0  0  0  0  0  0  0  0
   -4.0988   -1.9909    1.2498 H   0  0  0  0  0  0  0  0  0  0  0  0
   -3.5618   -2.8419   -0.2222 H   0  0  0  0  0  0  0  0  0  0  0  0
   -1.9818   -2.0809    0.9918 C   0  0  0  0  0  0  0  0  0  0  0  0
   -1.1288   -2.6669    1.6468 O   0  0  0  0  0  0  0  0  0  0  0  0
   -1.7648   -0.9089    0.3998 N   0  0  0  0  0  0  0  0  0  0  0  0
   -2.5238   -0.4719   -0.1032 H   0  0  0  0  0  0  0  0  0  0  0  0
   -0.4848   -0.1959    0.4138 C   0  0  1  0  0  0  0  0  0  0  0  0
    0.1386   -0.6144    1.2058 H   0  0  0  0  0  0  0  0  0  0  0  0
    0.2271   -0.4272   -0.9334 C   0  0  0  0  0  0  0  0  0  0  0  0
    0.3906    0.5434   -1.4064 H   0  0  0  0  0  0  0  0  0  0  0  0
    1.2002   -0.8847   -0.7485 H   0  0  0  0  0  0  0  0  0  0  0  0
   -0.5627   -1.3157   -1.9102 C   0  0  0  0  0  0  0  0  0  0  0  0
   -0.9672   -2.1766   -1.3783 H   0  0  0  0  0  0  0  0  0  0  0  0
   -1.3915   -0.7395   -2.3214 H   0  0  0  0  0  0  0  0  0  0  0  0
    0.2853   -1.8341   -3.0716 C   0  0  0  0  0  0  0  0  0  0  0  0
    1.4460   -1.5141   -3.2477 O   0  0  0  0  0  0  0  0  0  0  0  0
   -0.2637   -2.6752   -3.9209 N   0  0  0  0  0  0  0  0  0  0  0  0
    0.3388   -2.9843   -4.6638 H   0  0  0  0  0  0  0  0  0  0  0  0
   -1.2130   -2.9730   -3.8212 H   0  0  0  0  0  0  0  0  0  0  0  0
   -0.7011    1.2952    0.7149 C   0  0  0  0  0  0  0  0  0  0  0  0
   -1.5917    1.9198    0.1415 O   0  0  0  0  0  0  0  0  0  0  0  0
    0.1191    1.8675    1.6055 N   0  0  0  0  0  0  0  0  0  0  0  0
    0.8092    1.2861    2.0537 H   0  0  0  0  0  0  0  0  0  0  0  0
    0.0509    3.2769    1.9894 C   0  0  0  0  0  0  0  0  0  0  0  0
   -0.9494    3.5076    2.3640 H   0  0  0  0  0  0  0  0  0  0  0  0
    0.7844    3.4956    2.7668 H   0  0  0  0  0  0  0  0  0  0  0  0
    0.2468    3.9058    1.1193 H   0  0  0  0  0  0  0  0  0  0  0  0
  5  6  2  0  0  0  0
  5  7  1  0  0  0  0
  2  3  1  0  0  0  0
  2  4  1  0  0  0  0
  2  5  1  0  0  0  0
  1  2  1  0  0  0  0
 22 23  2  0  0  0  0
 22 24  1  0  0  0  0
 19 20  1  0  0  0  0
 19 21  1  0  0  0  0
 17 18  2  0  0  0  0
 17 19  1  0  0  0  0
 14 15  1  0  0  0  0
 14 16  1  0  0  0  0
 14 17  1  0  0  0  0
 11 12  1  0  0  0  0
 11 13  1  0  0  0  0
 11 14  1  0  0  0  0
  9 10  1  0  0  0  0
  9 11  1  0  0  0  0
  9 22  1  0  0  0  0
  7  8  1  0  0  0  0
  7  9  1  0  0  0  0
 26 27  1  0  0  0  0
 26 28  1  0  0  0  0
 26 29  1  0  0  0  0
 24 25  1  0  0  0  0
 24 26  1  0  0  0  0
M  END
$$$$
default_name
  -OEChem-02102213163D

 29 28  0     1  0  0  0  0  0999 V2000
   -3.3998   -3.6239    1.3678 H   0  0  0  0  0  0  0  0  0  0  0  0
   -3.3608   -2.6749    0.8348 C   0  0  0  0  0  0  0  0  0  0  0  0
   -4.0988   -1.9909    1.2498 H   0  0  0  0  0  0  0  0  0  0  0  0
   -3.5618   -2.8419   -0.2222 H   0  0  0  0  0  0  0  0  0  0  0  0
   -1.9818   -2.0809    0.9918 C   0  0  0  0  0  0  0  0  0  0  0  0
   -1.1288   -2.6669    1.6468 O   0  0  0  0  0  0  0  0  0  0  0  0
   -1.7648   -0.9089    0.3998 N   0  0  0  0  0  0  0  0  0  0  0  0
   -2.5238   -0.4719   -0.1032 H   0  0  0  0  0  0  0  0  0  0  0  0
   -0.4848   -0.1959    0.4138 C   0  0  1  0  0  0  0  0  0  0  0  0
    0.1386   -0.6144    1.2058 H   0  0  0  0  0  0  0  0  0  0  0  0
    0.2271   -0.4272   -0.9334 C   0  0  0  0  0  0  0  0  0  0  0  0
    0.3906    0.5434   -1.4064 H   0  0  0  0  0  0  0  0  0  0  0  0
    1.2002   -0.8847   -0.7485 H   0  0  0  0  0  0  0  0  0  0  0  0
   -0.5627   -1.3157   -1.9102 C   0  0  0  0  0  0  0  0  0  0  0  0
   -1.1808   -2.0173   -1.3505 H   0  0  0  0  0  0  0  0  0  0  0  0
   -1.2133   -0.6845   -2.5154 H   0  0  0  0  0  0  0  0  0  0  0  0
    0.3343   -2.1219   -2.8495 C   0  0  0  0  0  0  0  0  0  0  0  0
    1.5460   -2.0137   -2.8741 O   0  0  0  0  0  0  0  0  0  0  0  0
   -0.2302   -2.9827   -3.6684 N   0  0  0  0  0  0  0  0  0  0  0  0
    0.4061   -3.4856   -4.2622 H   0  0  0  0  0  0  0  0  0  0  0  0
   -1.2213   -3.1129   -3.6873 H   0  0  0  0  0  0  0  0  0  0  0  0
   -0.7011    1.2952    0.7149 C   0  0  0  0  0  0  0  0  0  0  0  0
   -1.5917    1.9198    0.1415 O   0  0  0  0  0  0  0  0  0  0  0  0
    0.1191    1.8675    1.6055 N   0  0  0  0  0  0  0  0  0  0  0  0
    0.8092    1.2861    2.0537 H   0  0  0  0  0  0  0  0  0  0  0  0
    0.0509    3.2769    1.9894 C   0  0  0  0  0  0  0  0  0  0  0  0
   -0.9494    3.5076    2.3640 H   0  0  0  0  0  0  0  0  0  0  0  0
    0.7844    3.4956    2.7668 H   0  0  0  0  0  0  0  0  0  0  0  0
    0.2468    3.9058    1.1193 H   0  0  0  0  0  0  0  0  0  0  0  0
  5  6  2  0  0  0  0
  5  7  1  0  0  0  0
  2  3  1  0  0  0  0
  2  4  1  0  0  0  0
  2  5  1  0  0  0  0
  1  2  1  0  0  0  0
 22 23  2  0  0  0  0
 22 24  1  0  0  0  0
 19 20  1  0  0  0  0
 19 21  1  0  0  0  0
 17 18  2  0  0  0  0
 17 19  1  0  0  0  0
 14 15  1  0  0  0  0
 14 16  1  0  0  0  0
 14 17  1  0  0  0  0
 11 12  1  0  0  0  0
 11 13  1  0  0  0  0
 11 14  1  0  0  0  0
  9 10  1  0  0  0  0
  9 11  1  0  0  0  0
  9 22  1  0  0  0  0
  7  8  1  0  0  0  0
  7  9  1  0  0  0  0
 26 27  1  0  0  0  0
 26 28  1  0  0  0  0
 26 29  1  0  0  0  0
 24 25  1  0  0  0  0
 24 26  1  0  0  0  0
M  END
$$$$
default_name
  -OEChem-02102213163D

 29 28  0     1  0  0  0  0  0999 V2000
   -3.3998   -3.6239    1.3678 H   0  0  0  0  0  0  0  0  0  0  0  0
   -3.3608   -2.6749    0.8348 C   0  0  0  0  0  0  0  0  0  0  0  0
   -4.0988   -1.9909    1.2498 H   0  0  0  0  0  0  0  0  0  0  0  0
   -3.5618   -2.8419   -0.2222 H   0  0  0  0  0  0  0  0  0  0  0  0
   -1.9818   -2.0809    0.9918 C   0  0  0  0  0  0  0  0  0  0  0  0
   -1.1288   -2.6669    1.6468 O   0  0  0  0  0  0  0  0  0  0  0  0
   -1.7648   -0.9089    0.3998 N   0  0  0  0  0  0  0  0  0  0  0  0
   -2.5238   -0.4719   -0.1032 H   0  0  0  0  0  0  0  0  0  0  0  0
   -0.4848   -0.1959    0.4138 C   0  0  1  0  0  0  0  0  0  0  0  0
    0.1386   -0.6144    1.2058 H   0  0  0  0  0  0  0  0  0  0  0  0
    0.2271   -0.4272   -0.9334 C   0  0  0  0  0  0  0  0  0  0  0  0
    0.3906    0.5434   -1.4064 H   0  0  0  0  0  0  0  0  0  0  0  0
    1.2002   -0.8847   -0.7485 H   0  0  0  0  0  0  0  0  0  0  0  0
   -0.5627   -1.3157   -1.9102 C   0  0  0  0  0  0  0  0  0  0  0  0
   -1.3651   -1.8247   -1.3767 H   0  0  0  0  0  0  0  0  0  0  0  0
   -1.0032   -0.6865   -2.6836 H   0  0  0  0  0  0  0  0  0  0  0  0
    0.3011   -2.3784   -2.5893 C   0  0  0  0  0  0  0  0  0  0  0  0
    1.5047   -2.4632   -2.4319 O   0  0  0  0  0  0  0  0  0  0  0  0
   -0.2860   -3.2516   -3.3786 N   0  0  0  0  0  0  0  0  0  0  0  0
    0.3288   -3.9276   -3.7976 H   0  0  0  0  0  0  0  0  0  0  0  0
   -1.2724   -3.2288   -3.5406 H   0  0  0  0  0  0  0  0  0  0  0  0
   -0.7011    1.2952    0.7149 C   0  0  0  0  0  0  0  0  0  0  0  0
   -1.5917    1.9198    0.1415 O   0  0  0  0  0  0  0  0  0  0  0  0
    0.1191    1.8675    1.6055 N   0  0  0  0  0  0  0  0  0  0  0  0
    0.8092    1.2861    2.0537 H   0  0  0  0  0  0  0  0  0  0  0  0
    0.0509    3.2769    1.9894 C   0  0  0  0  0  0  0  0  0  0  0  0
   -0.9494    3.5076    2.3640 H   0  0  0  0  0  0  0  0  0  0  0  0
    0.7844    3.4956    2.7668 H   0  0  0  0  0  0  0  0  0  0  0  0
    0.2468    3.9058    1.1193 H   0  0  0  0  0  0  0  0  0  0  0  0
  5  6  2  0  0  0  0
  5  7  1  0  0  0  0
  2  3  1  0  0  0  0
  2  4  1  0  0  0  0
  2  5  1  0  0  0  0
  1  2  1  0  0  0  0
 22 23  2  0  0  0  0
 22 24  1  0  0  0  0
 19 20  1  0  0  0  0
 19 21  1  0  0  0  0
 17 18  2  0  0  0  0
 17 19  1  0  0  0  0
 14 15  1  0  0  0  0
 14 16  1  0  0  0  0
 14 17  1  0  0  0  0
 11 12  1  0  0  0  0
 11 13  1  0  0  0  0
 11 14  1  0  0  0  0
  9 10  1  0  0  0  0
  9 11  1  0  0  0  0
  9 22  1  0  0  0  0
  7  8  1  0  0  0  0
  7  9  1  0  0  0  0
 26 27  1  0  0  0  0
 26 28  1  0  0  0  0
 26 29  1  0  0  0  0
 24 25  1  0  0  0  0
 24 26  1  0  0  0  0
M  END
$$$$
default_name
  -OEChem-02102213163D

 29 28  0     1  0  0  0  0  0999 V2000
   -3.3998   -3.6239    1.3678 H   0  0  0  0  0  0  0  0  0  0  0  0
   -3.3608   -2.6749    0.8348 C   0  0  0  0  0  0  0  0  0  0  0  0
   -4.0988   -1.9909    1.2498 H   0  0  0  0  0  0  0  0  0  0  0  0
   -3.5618   -2.8419   -0.2222 H   0  0  0  0  0  0  0  0  0  0  0  0
   -1.9818   -2.0809    0.9918 C   0  0  0  0  0  0  0  0  0  0  0  0
   -1.1288   -2.6669    1.6468 O   0  0  0  0  0  0  0  0  0  0  0  0
   -1.7648   -0.9089    0.3998 N   0  0  0  0  0  0  0  0  0  0  0  0
   -2.5238   -0.4719   -0.1032 H   0  0  0  0  0  0  0  0  0  0  0  0
   -0.4848   -0.1959    0.4138 C   0  0  1  0  0  0  0  0  0  0  0  0
    0.1386   -0.6144    1.2058 H   0  0  0  0  0  0  0  0  0  0  0  0
    0.2271   -0.4272   -0.9334 C   0  0  0  0  0  0  0  0  0  0  0  0
    0.3906    0.5434   -1.4064 H   0  0  0  0  0  0  0  0  0  0  0  0
    1.2002   -0.8847   -0.7485 H   0  0  0  0  0  0  0  0  0  0  0  0
   -0.5627   -1.3157   -1.9102 C   0  0  0  0  0  0  0  0  0  0  0  0
   -1.5075   -1.6119   -1.4551 H   0  0  0  0  0  0  0  0  0  0  0  0
   -0.7754   -0.7452   -2.8143 H   0  0  0  0  0  0  0  0  0  0  0  0
    0.1880   -2.5862   -2.3089 C   0  0  0  0  0  0  0  0  0  0  0  0
    1.3249   -2.8318   -1.9513 O   0  0  0  0  0  0  0  0  0  0  0  0
   -0.4275   -3.4637   -3.0713 N   0  0  0  0  0  0  0  0  0  0  0  0
    0.1120   -4.2801   -3.3017 H   0  0  0  0  0  0  0  0  0  0  0  0
   -1.3627   -3.3128   -3.3911 H   0  0  0  0  0  0  0  0  0  0  0  0
   -0.7011    1.2952    0.7149 C   0  0  0  0  0  0  0  0  0  0  0  0
   -1.5917    1.9198    0.1415 O   0  0  0  0  0  0  0  0  0  0  0  0
    0.1191    1.8675    1.6055 N   0  0  0  0  0  0  0  0  0  0  0  0
    0.8092    1.2861    2.0537 H   0  0  0  0  0  0  0  0  0  0  0  0
    0.0509    3.2769    1.9894 C   0  0  0  0  0  0  0  0  0  0  0  0
   -0.9494    3.5076    2.3640 H   0  0  0  0  0  0  0  0  0  0  0  0
    0.7844    3.4956    2.7668 H   0  0  0  0  0  0  0  0  0  0  0  0
    0.2468    3.9058    1.1193 H   0  0  0  0  0  0  0  0  0  0  0  0
  5  6  2  0  0  0  0
  5  7  1  0  0  0  0
  2  3  1  0  0  0  0
  2  4  1  0  0  0  0
  2  5  1  0  0  0  0
  1  2  1  0  0  0  0
 22 23  2  0  0  0  0
 22 24  1  0  0  0  0
 19 20  1  0  0  0  0
 19 21  1  0  0  0  0
 17 18  2  0  0  0  0
 17 19  1  0  0  0  0
 14 15  1  0  0  0  0
 14 16  1  0  0  0  0
 14 17  1  0  0  0  0
 11 12  1  0  0  0  0
 11 13  1  0  0  0  0
 11 14  1  0  0  0  0
  9 10  1  0  0  0  0
  9 11  1  0  0  0  0
  9 22  1  0  0  0  0
  7  8  1  0  0  0  0
  7  9  1  0  0  0  0
 26 27  1  0  0  0  0
 26 28  1  0  0  0  0
 26 29  1  0  0  0  0
 24 25  1  0  0  0  0
 24 26  1  0  0  0  0
M  END
$$$$
default_name
  -OEChem-02102213163D

 29 28  0     1  0  0  0  0  0999 V2000
   -3.3998   -3.6239    1.3678 H   0  0  0  0  0  0  0  0  0  0  0  0
   -3.3608   -2.6749    0.8348 C   0  0  0  0  0  0  0  0  0  0  0  0
   -4.0988   -1.9909    1.2498 H   0  0  0  0  0  0  0  0  0  0  0  0
   -3.5618   -2.8419   -0.2222 H   0  0  0  0  0  0  0  0  0  0  0  0
   -1.9818   -2.0809    0.9918 C   0  0  0  0  0  0  0  0  0  0  0  0
   -1.1288   -2.6669    1.6468 O   0  0  0  0  0  0  0  0  0  0  0  0
   -1.7648   -0.9089    0.3998 N   0  0  0  0  0  0  0  0  0  0  0  0
   -2.5238   -0.4719   -0.1032 H   0  0  0  0  0  0  0  0  0  0  0  0
   -0.4848   -0.1959    0.4138 C   0  0  1  0  0  0  0  0  0  0  0  0
    0.1386   -0.6144    1.2058 H   0  0  0  0  0  0  0  0  0  0  0  0
    0.2271   -0.4272   -0.9334 C   0  0  0  0  0  0  0  0  0  0  0  0
    0.3906    0.5434   -1.4064 H   0  0  0  0  0  0  0  0  0  0  0  0
    1.2002   -0.8847   -0.7485 H   0  0  0  0  0  0  0  0  0  0  0  0
   -0.5627   -1.3157   -1.9102 C   0  0  0  0  0  0  0  0  0  0  0  0
   -1.5985   -1.3933   -1.5804 H   0  0  0  0  0  0  0  0  0  0  0  0
   -0.5455   -0.8568   -2.8987 H   0  0  0  0  0  0  0  0  0  0  0  0
    0.0028   -2.7310   -2.0273 C   0  0  0  0  0  0  0  0  0  0  0  0
    1.0187   -3.0944   -1.4649 O   0  0  0  0  0  0  0  0  0  0  0  0
   -0.6449   -3.6046   -2.7674 N   0  0  0  0  0  0  0  0  0  0  0  0
   -0.2294   -4.5190   -2.8083 H   0  0  0  0  0  0  0  0  0  0  0  0
   -1.4861   -3.3593   -3.2491 H   0  0  0  0  0  0  0  0  0  0  0  0
   -0.7011    1.2952    0.7149 C   0  0  0  0  0  0  0  0  0  0  0  0
   -1.5917    1.9198    0.1415 O   0  0  0  0  0  0  0  0  0  0  0  0
    0.1191    1.8675    1.6055 N   0  0  0  0  0  0  0  0  0  0  0  0
    0.8092    1.2861    2.0537 H   0  0  0  0  0  0  0  0  0  0  0  0
    0.0509    3.2769    1.9894 C   0  0  0  0  0  0  0  0  0  0  0  0
   -0.9494    3.5076    2.3640 H   0  0  0  0  0  0  0  0  0  0  0  0
    0.7844    3.4956    2.7668 H   0  0  0  0  0  0  0  0  0  0  0  0
    0.2468    3.9058    1.1193 H   0  0  0  0  0  0  0  0  0  0  0  0
  5  6  2  0  0  0  0
  5  7  1  0  0  0  0
  2  3  1  0  0  0  0
  2  4  1  0  0  0  0
  2  5  1  0  0  0  0
  1  2  1  0  0  0  0
 22 23  2  0  0  0  0
 22 24  1  0  0  0  0
 19 20  1  0  0  0  0
 19 21  1  0  0  0  0
 17 18  2  0  0  0  0
 17 19  1  0  0  0  0
 14 15  1  0  0  0  0
 14 16  1  0  0  0  0
 14 17  1  0  0  0  0
 11 12  1  0  0  0  0
 11 13  1  0  0  0  0
 11 14  1  0  0  0  0
  9 10  1  0  0  0  0
  9 11  1  0  0  0  0
  9 22  1  0  0  0  0
  7  8  1  0  0  0  0
  7  9  1  0  0  0  0
 26 27  1  0  0  0  0
 26 28  1  0  0  0  0
 26 29  1  0  0  0  0
 24 25  1  0  0  0  0
 24 26  1  0  0  0  0
M  END
$$$$
default_name
  -OEChem-02102213163D

 29 28  0     1  0  0  0  0  0999 V2000
   -3.3998   -3.6239    1.3678 H   0  0  0  0  0  0  0  0  0  0  0  0
   -3.3608   -2.6749    0.8348 C   0  0  0  0  0  0  0  0  0  0  0  0
   -4.0988   -1.9909    1.2498 H   0  0  0  0  0  0  0  0  0  0  0  0
   -3.5618   -2.8419   -0.2222 H   0  0  0  0  0  0  0  0  0  0  0  0
   -1.9818   -2.0809    0.9918 C   0  0  0  0  0  0  0  0  0  0  0  0
   -1.1288   -2.6669    1.6468 O   0  0  0  0  0  0  0  0  0  0  0  0
   -1.7648   -0.9089    0.3998 N   0  0  0  0  0  0  0  0  0  0  0  0
   -2.5238   -0.4719   -0.1032 H   0  0  0  0  0  0  0  0  0  0  0  0
   -0.4848   -0.1959    0.4138 C   0  0  1  0  0  0  0  0  0  0  0  0
    0.1386   -0.6144    1.2058 H   0  0  0  0  0  0  0  0  0  0  0  0
    0.2271   -0.4272   -0.9334 C   0  0  0  0  0  0  0  0  0  0  0  0
    0.3906    0.5434   -1.4064 H   0  0  0  0  0  0  0  0  0  0  0  0
    1.2002   -0.8847   -0.7485 H   0  0  0  0  0  0  0  0  0  0  0  0
   -0.5627   -1.3157   -1.9102 C   0  0  0  0  0  0  0  0  0  0  0  0
   -1.6316   -1.1839   -1.7441 H   0  0  0  0  0  0  0  0  0  0  0  0
   -0.3291   -1.0136   -2.9311 H   0  0  0  0  0  0  0  0  0  0  0  0
   -0.2421   -2.8031   -1.7638 C   0  0  0  0  0  0  0  0  0  0  0  0
    0.6072   -3.2331   -1.0059 O   0  0  0  0  0  0  0  0  0  0  0  0
   -0.9234   -3.6645   -2.4877 N   0  0  0  0  0  0  0  0  0  0  0  0
   -0.6723   -4.6282   -2.3510 H   0  0  0  0  0  0  0  0  0  0  0  0
   -1.6341   -3.3651   -3.1241 H   0  0  0  0  0  0  0  0  0  0  0  0
   -0.7011    1.2952    0.7149 C   0  0  0  0  0  0  0  0  0  0  0  0
   -1.5917    1.9198    0.1415 O   0  0  0  0  0  0  0  0  0  0  0  0
    0.1191    1.8675    1.6055 N   0  0  0  0  0  0  0  0  0  0  0  0
    0.8092    1.2861    2.0537 H   0  0  0  0  0  0  0  0  0  0  0  0
    0.0509    3.2769    1.9894 C   0  0  0  0  0  0  0  0  0  0  0  0
   -0.9494    3.5076    2.3640 H   0  0  0  0  0  0  0  0  0  0  0  0
    0.7844    3.4956    2.7668 H   0  0  0  0  0  0  0  0  0  0  0  0
    0.2468    3.9058    1.1193 H   0  0  0  0  0  0  0  0  0  0  0  0
  5  6  2  0  0  0  0
  5  7  1  0  0  0  0
  2  3  1  0  0  0  0
  2  4  1  0  0  0  0
  2  5  1  0  0  0  0
  1  2  1  0  0  0  0
 22 23  2  0  0  0  0
 22 24  1  0  0  0  0
 19 20  1  0  0  0  0
 19 21  1  0  0  0  0
 17 18  2  0  0  0  0
 17 19  1  0  0  0  0
 14 15  1  0  0  0  0
 14 16  1  0  0  0  0
 14 17  1  0  0  0  0
 11 12  1  0  0  0  0
 11 13  1  0  0  0  0
 11 14  1  0  0  0  0
  9 10  1  0  0  0  0
  9 11  1  0  0  0  0
  9 22  1  0  0  0  0
  7  8  1  0  0  0  0
  7  9  1  0  0  0  0
 26 27  1  0  0  0  0
 26 28  1  0  0  0  0
 26 29  1  0  0  0  0
 24 25  1  0  0  0  0
 24 26  1  0  0  0  0
M  END
$$$$
default_name
  -OEChem-02102213163D

 29 28  0     1  0  0  0  0  0999 V2000
   -3.3998   -3.6239    1.3678 H   0  0  0  0  0  0  0  0  0  0  0  0
   -3.3608   -2.6749    0.8348 C   0  0  0  0  0  0  0  0  0  0  0  0
   -4.0988   -1.9909    1.2498 H   0  0  0  0  0  0  0  0  0  0  0  0
   -3.5618   -2.8419   -0.2222 H   0  0  0  0  0  0  0  0  0  0  0  0
   -1.9818   -2.0809    0.9918 C   0  0  0  0  0  0  0  0  0  0  0  0
   -1.1288   -2.6669    1.6468 O   0  0  0  0  0  0  0  0  0  0  0  0
   -1.7648   -0.9089    0.3998 N   0  0  0  0  0  0  0  0  0  0  0  0
   -2.5238   -0.4719   -0.1032 H   0  0  0  0  0  0  0  0  0  0  0  0
   -0.4848   -0.1959    0.4138 C   0  0  1  0  0  0  0  0  0  0  0  0
    0.1386   -0.6144    1.2058 H   0  0  0  0  0  0  0  0  0  0  0  0
    0.2271   -0.4272   -0.9334 C   0  0  0  0  0  0  0  0  0  0  0  0
    0.3906    0.5434   -1.4064 H   0  0  0  0  0  0  0  0  0  0  0  0
    1.2002   -0.8847   -0.7485 H   0  0  0  0  0  0  0  0  0  0  0  0
   -0.5627   -1.3157   -1.9102 C   0  0  0  0  0  0  0  0  0  0  0  0
   -1.6048   -0.9978   -1.9350 H   0  0  0  0  0  0  0  0  0  0  0  0
   -0.1410   -1.2048   -2.9092 H   0  0  0  0  0  0  0  0  0  0  0  0
   -0.5298   -2.7975   -1.5363 C   0  0  0  0  0  0  0  0  0  0  0  0
    0.1183   -3.2385   -0.6057 O   0  0  0  0  0  0  0  0  0  0  0  0
   -1.2442   -3.6394   -2.2512 N   0  0  0  0  0  0  0  0  0  0  0  0
   -1.1863   -4.6001   -1.9609 H   0  0  0  0  0  0  0  0  0  0  0  0
   -1.7967   -3.3298   -3.0248 H   0  0  0  0  0  0  0  0  0  0  0  0
   -0.7011    1.2952    0.7149 C   0  0  0  0  0  0  0  0  0  0  0  0
   -1.5917    1.9198    0.1415 O   0  0  0  0  0  0  0  0  0  0  0  0
    0.1191    1.8675    1.6055 N   0  0  0  0  0  0  0  0  0  0  0  0
    0.8092    1.2861    2.0537 H   0  0  0  0  0  0  0  0  0  0  0  0
    0.0509    3.2769    1.9894 C   0  0  0  0  0  0  0  0  0  0  0  0
   -0.9494    3.5076    2.3640 H   0  0  0  0  0  0  0  0  0  0  0  0
    0.7844    3.4956    2.7668 H   0  0  0  0  0  0  0  0  0  0  0  0
    0.2468    3.9058    1.1193 H   0  0  0  0  0  0  0  0  0  0  0  0
  5  6  2  0  0  0  0
  5  7  1  0  0  0  0
  2  3  1  0  0  0  0
  2  4  1  0  0  0  0
  2  5  1  0  0  0  0
  1  2  1  0  0  0  0
 22 23  2  0  0  0  0
 22 24  1  0  0  0  0
 19 20  1  0  0  0  0
 19 21  1  0  0  0  0
 17 18  2  0  0  0  0
 17 19  1  0  0  0  0
 14 15  1  0  0  0  0
 14 16  1  0  0  0  0
 14 17  1  0  0  0  0
 11 12  1  0  0  0  0
 11 13  1  0  0  0  0
 11 14  1  0  0  0  0
  9 10  1  0  0  0  0
  9 11  1  0  0  0  0
  9 22  1  0  0  0  0
  7  8  1  0  0  0  0
  7  9  1  0  0  0  0
 26 27  1  0  0  0  0
 26 28  1  0  0  0  0
 26 29  1  0  0  0  0
 24 25  1  0  0  0  0
 24 26  1  0  0  0  0
M  END
$$$$
default_name
  -OEChem-02102213163D

 29 28  0     1  0  0  0  0  0999 V2000
   -3.3998   -3.6239    1.3678 H   0  0  0  0  0  0  0  0  0  0  0  0
   -3.3608   -2.6749    0.8348 C   0  0  0  0  0  0  0  0  0  0  0  0
   -4.0988   -1.9909    1.2498 H   0  0  0  0  0  0  0  0  0  0  0  0
   -3.5618   -2.8419   -0.2222 H   0  0  0  0  0  0  0  0  0  0  0  0
   -1.9818   -2.0809    0.9918 C   0  0  0  0  0  0  0  0  0  0  0  0
   -1.1288   -2.6669    1.6468 O   0  0  0  0  0  0  0  0  0  0  0  0
   -1.7648   -0.9089    0.3998 N   0  0  0  0  0  0  0  0  0  0  0  0
   -2.5238   -0.4719   -0.1032 H   0  0  0  0  0  0  0  0  0  0  0  0
   -0.4848   -0.1959    0.4138 C   0  0  1  0  0  0  0  0  0  0  0  0
    0.1386   -0.6144    1.2058 H   0  0  0  0  0  0  0  0  0  0  0  0
    0.2271   -0.4272   -0.9334 C   0  0  0  0  0  0  0  0  0  0  0  0
    0.3906    0.5434   -1.4064 H   0  0  0  0  0  0  0  0  0  0  0  0
    1.2002   -0.8847   -0.7485 H   0  0  0  0  0  0  0  0  0  0  0  0
   -0.5627   -1.3157   -1.9102 C   0  0  0  0  0  0  0  0  0  0  0  0
   -1.5198   -0.8480   -2.1400 H   0  0  0  0  0  0  0  0  0  0  0  0
    0.0059   -1.4175   -2.8345 H   0  0  0  0  0  0  0  0  0  0  0  0
   -0.8408   -2.7145   -1.3603 C   0  0  0  0  0  0  0  0  0  0  0  0
   -0.4147   -3.1103   -0.2915 O   0  0  0  0  0  0  0  0  0  0  0  0
   -1.5852   -3.5311   -2.0739 N   0  0  0  0  0  0  0  0  0  0  0  0
   -1.7365   -4.4367   -1.6647 H   0  0  0  0  0  0  0  0  0  0  0  0
   -1.9628   -3.2557   -2.9578 H   0  0  0  0  0  0  0  0  0  0  0  0
   -0.7011    1.2952    0.7149 C   0  0  0  0  0  0  0  0  0  0  0  0
   -1.5917    1.9198    0.1415 O   0  0  0  0  0  0  0  0  0  0  0  0
    0.1191    1.8675    1.6055 N   0  0  0  0  0  0  0  0  0  0  0  0
    0.8092    1.2861    2.0537 H   0  0  0  0  0  0  0  0  0  0  0  0
    0.0509    3.2769    1.9894 C   0  0  0  0  0  0  0  0  0  0  0  0
   -0.9494    3.5076    2.3640 H   0  0  0  0  0  0  0  0  0  0  0  0
    0.7844    3.4956    2.7668 H   0  0  0  0  0  0  0  0  0  0  0  0
    0.2468    3.9058    1.1193 H   0  0  0  0  0  0  0  0  0  0  0  0
  5  6  2  0  0  0  0
  5  7  1  0  0  0  0
  2  3  1  0  0  0  0
  2  4  1  0  0  0  0
  2  5  1  0  0  0  0
  1  2  1  0  0  0  0
 22 23  2  0  0  0  0
 22 24  1  0  0  0  0
 19 20  1  0  0  0  0
 19 21  1  0  0  0  0
 17 18  2  0  0  0  0
 17 19  1  0  0  0  0
 14 15  1  0  0  0  0
 14 16  1  0  0  0  0
 14 17  1  0  0  0  0
 11 12  1  0  0  0  0
 11 13  1  0  0  0  0
 11 14  1  0  0  0  0
  9 10  1  0  0  0  0
  9 11  1  0  0  0  0
  9 22  1  0  0  0  0
  7  8  1  0  0  0  0
  7  9  1  0  0  0  0
 26 27  1  0  0  0  0
 26 28  1  0  0  0  0
 26 29  1  0  0  0  0
 24 25  1  0  0  0  0
 24 26  1  0  0  0  0
M  END
$$$$
default_name
  -OEChem-02102213163D

 29 28  0     1  0  0  0  0  0999 V2000
   -3.3998   -3.6239    1.3678 H   0  0  0  0  0  0  0  0  0  0  0  0
   -3.3608   -2.6749    0.8348 C   0  0  0  0  0  0  0  0  0  0  0  0
   -4.0988   -1.9909    1.2498 H   0  0  0  0  0  0  0  0  0  0  0  0
   -3.5618   -2.8419   -0.2222 H   0  0  0  0  0  0  0  0  0  0  0  0
   -1.9818   -2.0809    0.9918 C   0  0  0  0  0  0  0  0  0  0  0  0
   -1.1288   -2.6669    1.6468 O   0  0  0  0  0  0  0  0  0  0  0  0
   -1.7648   -0.9089    0.3998 N   0  0  0  0  0  0  0  0  0  0  0  0
   -2.5238   -0.4719   -0.1032 H   0  0  0  0  0  0  0  0  0  0  0  0
   -0.4848   -0.1959    0.4138 C   0  0  1  0  0  0  0  0  0  0  0  0
    0.1386   -0.6144    1.2058 H   0  0  0  0  0  0  0  0  0  0  0  0
    0.2271   -0.4272   -0.9334 C   0  0  0  0  0  0  0  0  0  0  0  0
    0.3906    0.5434   -1.4064 H   0  0  0  0  0  0  0  0  0  0  0  0
    1.2002   -0.8847   -0.7485 H   0  0  0  0  0  0  0  0  0  0  0  0
   -0.5627   -1.3157   -1.9102 C   0  0  0  0  0  0  0  0  0  0  0  0
   -1.3824   -0.7444   -2.3453 H   0  0  0  0  0  0  0  0  0  0  0  0
    0.1018   -1.6373   -2.7122 H   0  0  0  0  0  0  0  0  0  0  0  0
   -1.1539   -2.5599   -1.2477 C   0  0  0  0  0  0  0  0  0  0  0  0
   -0.9553   -2.8571   -0.0846 O   0  0  0  0  0  0  0  0  0  0  0  0
   -1.9233   -3.3469   -1.9681 N   0  0  0  0  0  0  0  0  0  0  0  0
   -2.2853   -4.1491   -1.4825 H   0  0  0  0  0  0  0  0  0  0  0  0
   -2.1211   -3.1480   -2.9278 H   0  0  0  0  0  0  0  0  0  0  0  0
   -0.7011    1.2952    0.7149 C   0  0  0  0  0  0  0  0  0  0  0  0
   -1.5917    1.9198    0.1415 O   0  0  0  0  0  0  0  0  0  0  0  0
    0.1191    1.8675    1.6055 N   0  0  0  0  0  0  0  0  0  0  0  0
    0.8092    1.2861    2.0537 H   0  0  0  0  0  0  0  0  0  0  0  0
    0.0509    3.2769    1.9894 C   0  0  0  0  0  0  0  0  0  0  0  0
   -0.9494    3.5076    2.3640 H   0  0  0  0  0  0  0  0  0  0  0  0
    0.7844    3.4956    2.7668 H   0  0  0  0  0  0  0  0  0  0  0  0
    0.2468    3.9058    1.1193 H   0  0  0  0  0  0  0  0  0  0  0  0
  5  6  2  0  0  0  0
  5  7  1  0  0  0  0
  2  3  1  0  0  0  0
  2  4  1  0  0  0  0
  2  5  1  0  0  0  0
  1  2  1  0  0  0  0
 22 23  2  0  0  0  0
 22 24  1  0  0  0  0
 19 20  1  0  0  0  0
 19 21  1  0  0  0  0
 17 18  2  0  0  0  0
 17 19  1  0  0  0  0
 14 15  1  0  0  0  0
 14 16  1  0  0  0  0
 14 17  1  0  0  0  0
 11 12  1  0  0  0  0
 11 13  1  0  0  0  0
 11 14  1  0  0  0  0
  9 10  1  0  0  0  0
  9 11  1  0  0  0  0
  9 22  1  0  0  0  0
  7  8  1  0  0  0  0
  7  9  1  0  0  0  0
 26 27  1  0  0  0  0
 26 28  1  0  0  0  0
 26 29  1  0  0  0  0
 24 25  1  0  0  0  0
 24 26  1  0  0  0  0
M  END
$$$$
default_name
  -OEChem-02102213163D

 29 28  0     1  0  0  0  0  0999 V2000
   -3.3998   -3.6239    1.3678 H   0  0  0  0  0  0  0  0  0  0  0  0
   -3.3608   -2.6749    0.8348 C   0  0  0  0  0  0  0  0  0  0  0  0
   -4.0988   -1.9909    1.2498 H   0  0  0  0  0  0  0  0  0  0  0  0
   -3.5618   -2.8419   -0.2222 H   0  0  0  0  0  0  0  0  0  0  0  0
   -1.9818   -2.0809    0.9918 C   0  0  0  0  0  0  0  0  0  0  0  0
   -1.1288   -2.6669    1.6468 O   0  0  0  0  0  0  0  0  0  0  0  0
   -1.7648   -0.9089    0.3998 N   0  0  0  0  0  0  0  0  0  0  0  0
   -2.5238   -0.4719   -0.1032 H   0  0  0  0  0  0  0  0  0  0  0  0
   -0.4848   -0.1959    0.4138 C   0  0  1  0  0  0  0  0  0  0  0  0
    0.1386   -0.6144    1.2058 H   0  0  0  0  0  0  0  0  0  0  0  0
    0.2271   -0.4272   -0.9334 C   0  0  0  0  0  0  0  0  0  0  0  0
    0.3906    0.5434   -1.4064 H   0  0  0  0  0  0  0  0  0  0  0  0
    1.2002   -0.8847   -0.7485 H   0  0  0  0  0  0  0  0  0  0  0  0
   -0.5627   -1.3157   -1.9102 C   0  0  0  0  0  0  0  0  0  0  0  0
   -1.2020   -0.6942   -2.5369 H   0  0  0  0  0  0  0  0  0  0  0  0
    0.1400   -1.8490   -2.5505 H   0  0  0  0  0  0  0  0  0  0  0  0
   -1.4477   -2.3442   -1.2064 C   0  0  0  0  0  0  0  0  0  0  0  0
   -1.4669   -2.4962    0.0007 O   0  0  0  0  0  0  0  0  0  0  0  0
   -2.2354   -3.0994   -1.9409 N   0  0  0  0  0  0  0  0  0  0  0  0
   -2.7955   -3.7570   -1.4268 H   0  0  0  0  0  0  0  0  0  0  0  0
   -2.2608   -3.0139   -2.9368 H   0  0  0  0  0  0  0  0  0  0  0  0
   -0.7011    1.2952    0.7149 C   0  0  0  0  0  0  0  0  0  0  0  0
   -1.5917    1.9198    0.1415 O   0  0  0  0  0  0  0  0  0  0  0  0
    0.1191    1.8675    1.6055 N   0  0  0  0  0  0  0  0  0  0  0  0
    0.8092    1.2861    2.0537 H   0  0  0  0  0  0  0  0  0  0  0  0
    0.0509    3.2769    1.9894 C   0  0  0  0  0  0  0  0  0  0  0  0
   -0.9494    3.5076    2.3640 H   0  0  0  0  0  0  0  0  0  0  0  0
    0.7844    3.4956    2.7668 H   0  0  0  0  0  0  0  0  0  0  0  0
    0.2468    3.9058    1.1193 H   0  0  0  0  0  0  0  0  0  0  0  0
  5  6  2  0  0  0  0
  5  7  1  0  0  0  0
  2  3  1  0  0  0  0
  2  4  1  0  0  0  0
  2  5  1  0  0  0  0
  1  2  1  0  0  0  0
 22 23  2  0  0  0  0
 22 24  1  0  0  0  0
 19 20  1  0  0  0  0
 19 21  1  0  0  0  0
 17 18  2  0  0  0  0
 17 19  1  0  0  0  0
 14 15  1  0  0  0  0
 14 16  1  0  0  0  0
 14 17  1  0  0  0  0
 11 12  1  0  0  0  0
 11 13  1  0  0  0  0
 11 14  1  0  0  0  0
  9 10  1  0  0  0  0
  9 11  1  0  0  0  0
  9 22  1  0  0  0  0
  7  8  1  0  0  0  0
  7  9  1  0  0  0  0
 26 27  1  0  0  0  0
 26 28  1  0  0  0  0
 26 29  1  0  0  0  0
 24 25  1  0  0  0  0
 24 26  1  0  0  0  0
M  END
$$$$
default_name
  -OEChem-02102213163D

 29 28  0     1  0  0  0  0  0999 V2000
   -3.3998   -3.6239    1.3678 H   0  0  0  0  0  0  0  0  0  0  0  0
   -3.3608   -2.6749    0.8348 C   0  0  0  0  0  0  0  0  0  0  0  0
   -4.0988   -1.9909    1.2498 H   0  0  0  0  0  0  0  0  0  0  0  0
   -3.5618   -2.8419   -0.2222 H   0  0  0  0  0  0  0  0  0  0  0  0
   -1.9818   -2.0809    0.9918 C   0  0  0  0  0  0  0  0  0  0  0  0
   -1.1288   -2.6669    1.6468 O   0  0  0  0  0  0  0  0  0  0  0  0
   -1.7648   -0.9089    0.3998 N   0  0  0  0  0  0  0  0  0  0  0  0
   -2.5238   -0.4719   -0.1032 H   0  0  0  0  0  0  0  0  0  0  0  0
   -0.4848   -0.1959    0.4138 C   0  0  1  0  0  0  0  0  0  0  0  0
    0.1386   -0.6144    1.2058 H   0  0  0  0  0  0  0  0  0  0  0  0
    0.2271   -0.4272   -0.9334 C   0  0  0  0  0  0  0  0  0  0  0  0
    0.3906    0.5434   -1.4064 H   0  0  0  0  0  0  0  0  0  0  0  0
    1.2002   -0.8847   -0.7485 H   0  0  0  0  0  0  0  0  0  0  0  0
   -0.5627   -1.3157   -1.9102 C   0  0  0  0  0  0  0  0  0  0  0  0
   -0.9908   -0.7008   -2.7016 H   0  0  0  0  0  0  0  0  0  0  0  0
    0.1179   -2.0383   -2.3604 H   0  0  0  0  0  0  0  0  0  0  0  0
   -1.7023   -2.0821   -1.2390 C   0  0  0  0  0  0  0  0  0  0  0  0
   -1.9145   -2.0522   -0.0412 O   0  0  0  0  0  0  0  0  0  0  0  0
   -2.5003   -2.8054   -1.9942 N   0  0  0  0  0  0  0  0  0  0  0  0
   -3.2321   -3.2869   -1.5013 H   0  0  0  0  0  0  0  0  0  0  0  0
   -2.3723   -2.8627   -2.9842 H   0  0  0  0  0  0  0  0  0  0  0  0
   -0.7011    1.2952    0.7149 C   0  0  0  0  0  0  0  0  0  0  0  0
   -1.5917    1.9198    0.1415 O   0  0  0  0  0  0  0  0  0  0  0  0
    0.1191    1.8675    1.6055 N   0  0  0  0  0  0  0  0  0  0  0  0
    0.8092    1.2861    2.0537 H   0  0  0  0  0  0  0  0  0  0  0  0
    0.0509    3.2769    1.9894 C   0  0  0  0  0  0  0  0  0  0  0  0
   -0.9494    3.5076    2.3640 H   0  0  0  0  0  0  0  0  0  0  0  0
    0.7844    3.4956    2.7668 H   0  0  0  0  0  0  0  0  0  0  0  0
    0.2468    3.9058    1.1193 H   0  0  0  0  0  0  0  0  0  0  0  0
  5  6  2  0  0  0  0
  5  7  1  0  0  0  0
  2  3  1  0  0  0  0
  2  4  1  0  0  0  0
  2  5  1  0  0  0  0
  1  2  1  0  0  0  0
 22 23  2  0  0  0  0
 22 24  1  0  0  0  0
 19 20  1  0  0  0  0
 19 21  1  0  0  0  0
 17 18  2  0  0  0  0
 17 19  1  0  0  0  0
 14 15  1  0  0  0  0
 14 16  1  0  0  0  0
 14 17  1  0  0  0  0
 11 12  1  0  0  0  0
 11 13  1  0  0  0  0
 11 14  1  0  0  0  0
  9 10  1  0  0  0  0
  9 11  1  0  0  0  0
  9 22  1  0  0  0  0
  7  8  1  0  0  0  0
  7  9  1  0  0  0  0
 26 27  1  0  0  0  0
 26 28  1  0  0  0  0
 26 29  1  0  0  0  0
 24 25  1  0  0  0  0
 24 26  1  0  0  0  0
M  END
$$$$
default_name
  -OEChem-02102213163D

 29 28  0     1  0  0  0  0  0999 V2000
   -3.3998   -3.6239    1.3678 H   0  0  0  0  0  0  0  0  0  0  0  0
   -3.3608   -2.6749    0.8348 C   0  0  0  0  0  0  0  0  0  0  0  0
   -4.0988   -1.9909    1.2498 H   0  0  0  0  0  0  0  0  0  0  0  0
   -3.5618   -2.8419   -0.2222 H   0  0  0  0  0  0  0  0  0  0  0  0
   -1.9818   -2.0809    0.9918 C   0  0  0  0  0  0  0  0  0  0  0  0
   -1.1288   -2.6669    1.6468 O   0  0  0  0  0  0  0  0  0  0  0  0
   -1.7648   -0.9089    0.3998 N   0  0  0  0  0  0  0  0  0  0  0  0
   -2.5238   -0.4719   -0.1032 H   0  0  0  0  0  0  0  0  0  0  0  0
   -0.4848   -0.1959    0.4138 C   0  0  1  0  0  0  0  0  0  0  0  0
    0.1386   -0.6144    1.2058 H   0  0  0  0  0  0  0  0  0  0  0  0
    0.2271   -0.4272   -0.9334 C   0  0  0  0  0  0  0  0  0  0  0  0
    0.3906    0.5434   -1.4064 H   0  0  0  0  0  0  0  0  0  0  0  0
    1.2002   -0.8847   -0.7485 H   0  0  0  0  0  0  0  0  0  0  0  0
   -0.5627   -1.3157   -1.9102 C   0  0  0  0  0  0  0  0  0  0  0  0
   -0.7634   -0.7637   -2.8282 H   0  0  0  0  0  0  0  0  0  0  0  0
    0.0371   -2.1923   -2.1550 H   0  0  0  0  0  0  0  0  0  0  0  0
   -1.9002   -1.7914   -1.3434 C   0  0  0  0  0  0  0  0  0  0  0  0
   -2.2676   -1.5553   -0.2077 O   0  0  0  0  0  0  0  0  0  0  0  0
   -2.6998   -2.4849   -2.1243 N   0  0  0  0  0  0  0  0  0  0  0  0
   -3.5655   -2.7710   -1.7009 H   0  0  0  0  0  0  0  0  0  0  0  0
   -2.4482   -2.7046   -3.0667 H   0  0  0  0  0  0  0  0  0  0  0  0
   -0.7011    1.2952    0.7149 C   0  0  0  0  0  0  0  0  0  0  0  0
   -1.5917    1.9198    0.1415 O   0  0  0  0  0  0  0  0  0  0  0  0
    0.1191    1.8675    1.6055 N   0  0  0  0  0  0  0  0  0  0  0  0
    0.8092    1.2861    2.0537 H   0  0  0  0  0  0  0  0  0  0  0  0
    0.0509    3.2769    1.9894 C   0  0  0  0  0  0  0  0  0  0  0  0
   -0.9494    3.5076    2.3640 H   0  0  0  0  0  0  0  0  0  0  0  0
    0.7844    3.4956    2.7668 H   0  0  0  0  0  0  0  0  0  0  0  0
    0.2468    3.9058    1.1193 H   0  0  0  0  0  0  0  0  0  0  0  0
  5  6  2  0  0  0  0
  5  7  1  0  0  0  0
  2  3  1  0  0  0  0
  2  4  1  0  0  0  0
  2  5  1  0  0  0  0
  1  2  1  0  0  0  0
 22 23  2  0  0  0  0
 22 24  1  0  0  0  0
 19 20  1  0  0  0  0
 19 21  1  0  0  0  0
 17 18  2  0  0  0  0
 17 19  1  0  0  0  0
 14 15  1  0  0  0  0
 14 16  1  0  0  0  0
 14 17  1  0  0  0  0
 11 12  1  0  0  0  0
 11 13  1  0  0  0  0
 11 14  1  0  0  0  0
  9 10  1  0  0  0  0
  9 11  1  0  0  0  0
  9 22  1  0  0  0  0
  7  8  1  0  0  0  0
  7  9  1  0  0  0  0
 26 27  1  0  0  0  0
 26 28  1  0  0  0  0
 26 29  1  0  0  0  0
 24 25  1  0  0  0  0
 24 26  1  0  0  0  0
M  END
$$$$
default_name
  -OEChem-02102213163D

 29 28  0     1  0  0  0  0  0999 V2000
   -3.3998   -3.6239    1.3678 H   0  0  0  0  0  0  0  0  0  0  0  0
   -3.3608   -2.6749    0.8348 C   0  0  0  0  0  0  0  0  0  0  0  0
   -4.0988   -1.9909    1.2498 H   0  0  0  0  0  0  0  0  0  0  0  0
   -3.5618   -2.8419   -0.2222 H   0  0  0  0  0  0  0  0  0  0  0  0
   -1.9818   -2.0809    0.9918 C   0  0  0  0  0  0  0  0  0  0  0  0
   -1.1288   -2.6669    1.6468 O   0  0  0  0  0  0  0  0  0  0  0  0
   -1.7648   -0.9089    0.3998 N   0  0  0  0  0  0  0  0  0  0  0  0
   -2.5238   -0.4719   -0.1032 H   0  0  0  0  0  0  0  0  0  0  0  0
   -0.4848   -0.1959    0.4138 C   0  0  1  0  0  0  0  0  0  0  0  0
    0.1386   -0.6144    1.2058 H   0  0  0  0  0  0  0  0  0  0  0  0
    0.2271   -0.4272   -0.9334 C   0  0  0  0  0  0  0  0  0  0  0  0
    0.3906    0.5434   -1.4064 H   0  0  0  0  0  0  0  0  0  0  0  0
    1.2002   -0.8847   -0.7485 H   0  0  0  0  0  0  0  0  0  0  0  0
   -0.5627   -1.3157   -1.9102 C   0  0  0  0  0  0  0  0  0  0  0  0
   -0.5350   -0.8788   -2.9082 H   0  0  0  0  0  0  0  0  0  0  0  0
   -0.0970   -2.3004   -1.9482 H   0  0  0  0  0  0  0  0  0  0  0  0
   -2.0281   -1.4919   -1.5124 C   0  0  0  0  0  0  0  0  0  0  0  0
   -2.5022   -1.0395   -0.4872 O   0  0  0  0  0  0  0  0  0  0  0  0
   -2.8205   -2.1599   -2.3224 N   0  0  0  0  0  0  0  0  0  0  0  0
   -3.7730   -2.2445   -2.0122 H   0  0  0  0  0  0  0  0  0  0  0  0
   -2.4831   -2.5504   -3.1787 H   0  0  0  0  0  0  0  0  0  0  0  0
   -0.7011    1.2952    0.7149 C   0  0  0  0  0  0  0  0  0  0  0  0
   -1.5917    1.9198    0.1415 O   0  0  0  0  0  0  0  0  0  0  0  0
    0.1191    1.8675    1.6055 N   0  0  0  0  0  0  0  0  0  0  0  0
    0.8092    1.2861    2.0537 H   0  0  0  0  0  0  0  0  0  0  0  0
    0.0509    3.2769    1.9894 C   0  0  0  0  0  0  0  0  0  0  0  0
   -0.9494    3.5076    2.3640 H   0  0  0  0  0  0  0  0  0  0  0  0
    0.7844    3.4956    2.7668 H   0  0  0  0  0  0  0  0  0  0  0  0
    0.2468    3.9058    1.1193 H   0  0  0  0  0  0  0  0  0  0  0  0
  5  6  2  0  0  0  0
  5  7  1  0  0  0  0
  2  3  1  0  0  0  0
  2  4  1  0  0  0  0
  2  5  1  0  0  0  0
  1  2  1  0  0  0  0
 22 23  2  0  0  0  0
 22 24  1  0  0  0  0
 19 20  1  0  0  0  0
 19 21  1  0  0  0  0
 17 18  2  0  0  0  0
 17 19  1  0  0  0  0
 14 15  1  0  0  0  0
 14 16  1  0  0  0  0
 14 17  1  0  0  0  0
 11 12  1  0  0  0  0
 11 13  1  0  0  0  0
 11 14  1  0  0  0  0
  9 10  1  0  0  0  0
  9 11  1  0  0  0  0
  9 22  1  0  0  0  0
  7  8  1  0  0  0  0
  7  9  1  0  0  0  0
 26 27  1  0  0  0  0
 26 28  1  0  0  0  0
 26 29  1  0  0  0  0
 24 25  1  0  0  0  0
 24 26  1  0  0  0  0
M  END
$$$$
default_name
  -OEChem-02102213163D

 29 28  0     1  0  0  0  0  0999 V2000
   -3.3998   -3.6239    1.3678 H   0  0  0  0  0  0  0  0  0  0  0  0
   -3.3608   -2.6749    0.8348 C   0  0  0  0  0  0  0  0  0  0  0  0
   -4.0988   -1.9909    1.2498 H   0  0  0  0  0  0  0  0  0  0  0  0
   -3.5618   -2.8419   -0.2222 H   0  0  0  0  0  0  0  0  0  0  0  0
   -1.9818   -2.0809    0.9918 C   0  0  0  0  0  0  0  0  0  0  0  0
   -1.1288   -2.6669    1.6468 O   0  0  0  0  0  0  0  0  0  0  0  0
   -1.7648   -0.9089    0.3998 N   0  0  0  0  0  0  0  0  0  0  0  0
   -2.5238   -0.4719   -0.1032 H   0  0  0  0  0  0  0  0  0  0  0  0
   -0.4848   -0.1959    0.4138 C   0  0  1  0  0  0  0  0  0  0  0  0
    0.1386   -0.6144    1.2058 H   0  0  0  0  0  0  0  0  0  0  0  0
    0.2271   -0.4272   -0.9334 C   0  0  0  0  0  0  0  0  0  0  0  0
    0.3906    0.5434   -1.4064 H   0  0  0  0  0  0  0  0  0  0  0  0
    1.2002   -0.8847   -0.7485 H   0  0  0  0  0  0  0  0  0  0  0  0
   -0.5627   -1.3157   -1.9102 C   0  0  0  0  0  0  0  0  0  0  0  0
   -0.3215   -1.0380   -2.9361 H   0  0  0  0  0  0  0  0  0  0  0  0
   -0.2752   -2.3554   -1.7542 H   0  0  0  0  0  0  0  0  0  0  0  0
   -2.0771   -1.2041   -1.7346 C   0  0  0  0  0  0  0  0  0  0  0  0
   -2.6022   -0.5398   -0.8608 O   0  0  0  0  0  0  0  0  0  0  0  0
   -2.8541   -1.8525   -2.5749 N   0  0  0  0  0  0  0  0  0  0  0  0
   -3.8403   -1.7431   -2.4138 H   0  0  0  0  0  0  0  0  0  0  0  0
   -2.4747   -2.4105   -3.3127 H   0  0  0  0  0  0  0  0  0  0  0  0
   -0.7011    1.2952    0.7149 C   0  0  0  0  0  0  0  0  0  0  0  0
   -1.5917    1.9198    0.1415 O   0  0  0  0  0  0  0  0  0  0  0  0
    0.1191    1.8675    1.6055 N   0  0  0  0  0  0  0  0  0  0  0  0
    0.8092    1.2861    2.0537 H   0  0  0  0  0  0  0  0  0  0  0  0
    0.0509    3.2769    1.9894 C   0  0  0  0  0  0  0  0  0  0  0  0
   -0.9494    3.5076    2.3640 H   0  0  0  0  0  0  0  0  0  0  0  0
    0.7844    3.4956    2.7668 H   0  0  0  0  0  0  0  0  0  0  0  0
    0.2468    3.9058    1.1193 H   0  0  0  0  0  0  0  0  0  0  0  0
  5  6  2  0  0  0  0
  5  7  1  0  0  0  0
  2  3  1  0  0  0  0
  2  4  1  0  0  0  0
  2  5  1  0  0  0  0
  1  2  1  0  0  0  0
 22 23  2  0  0  0  0
 22 24  1  0  0  0  0
 19 20  1  0  0  0  0
 19 21  1  0  0  0  0
 17 18  2  0  0  0  0
 17 19  1  0  0  0  0
 14 15  1  0  0  0  0
 14 16  1  0  0  0  0
 14 17  1  0  0  0  0
 11 12  1  0  0  0  0
 11 13  1  0  0  0  0
 11 14  1  0  0  0  0
  9 10  1  0  0  0  0
  9 11  1  0  0  0  0
  9 22  1  0  0  0  0
  7  8  1  0  0  0  0
  7  9  1  0  0  0  0
 26 27  1  0  0  0  0
 26 28  1  0  0  0  0
 26 29  1  0  0  0  0
 24 25  1  0  0  0  0
 24 26  1  0  0  0  0
M  END
$$$$
default_name
  -OEChem-02102213163D

 29 28  0     1  0  0  0  0  0999 V2000
   -3.3998   -3.6239    1.3678 H   0  0  0  0  0  0  0  0  0  0  0  0
   -3.3608   -2.6749    0.8348 C   0  0  0  0  0  0  0  0  0  0  0  0
   -4.0988   -1.9909    1.2498 H   0  0  0  0  0  0  0  0  0  0  0  0
   -3.5618   -2.8419   -0.2222 H   0  0  0  0  0  0  0  0  0  0  0  0
   -1.9818   -2.0809    0.9918 C   0  0  0  0  0  0  0  0  0  0  0  0
   -1.1288   -2.6669    1.6468 O   0  0  0  0  0  0  0  0  0  0  0  0
   -1.7648   -0.9089    0.3998 N   0  0  0  0  0  0  0  0  0  0  0  0
   -2.5238   -0.4719   -0.1032 H   0  0  0  0  0  0  0  0  0  0  0  0
   -0.4848   -0.1959    0.4138 C   0  0  1  0  0  0  0  0  0  0  0  0
    0.1386   -0.6144    1.2058 H   0  0  0  0  0  0  0  0  0  0  0  0
    0.2271   -0.4272   -0.9334 C   0  0  0  0  0  0  0  0  0  0  0  0
    0.3906    0.5434   -1.4064 H   0  0  0  0  0  0  0  0  0  0  0  0
    1.2002   -0.8847   -0.7485 H   0  0  0  0  0  0  0  0  0  0  0  0
   -0.5627   -1.3157   -1.9102 C   0  0  0  0  0  0  0  0  0  0  0  0
   -0.1371   -1.2306   -2.9099 H   0  0  0  0  0  0  0  0  0  0  0  0
   -0.4853   -2.3534   -1.5860 H   0  0  0  0  0  0  0  0  0  0  0  0
   -2.0439   -0.9476   -1.9948 C   0  0  0  0  0  0  0  0  0  0  0  0
   -2.5609   -0.0904   -1.3030 O   0  0  0  0  0  0  0  0  0  0  0  0
   -2.7983   -1.5835   -2.8647 N   0  0  0  0  0  0  0  0  0  0  0  0
   -3.7629   -1.3012   -2.8783 H   0  0  0  0  0  0  0  0  0  0  0  0
   -2.4237   -2.2946   -3.4594 H   0  0  0  0  0  0  0  0  0  0  0  0
   -0.7011    1.2952    0.7149 C   0  0  0  0  0  0  0  0  0  0  0  0
   -1.5917    1.9198    0.1415 O   0  0  0  0  0  0  0  0  0  0  0  0
    0.1191    1.8675    1.6055 N   0  0  0  0  0  0  0  0  0  0  0  0
    0.8092    1.2861    2.0537 H   0  0  0  0  0  0  0  0  0  0  0  0
    0.0509    3.2769    1.9894 C   0  0  0  0  0  0  0  0  0  0  0  0
   -0.9494    3.5076    2.3640 H   0  0  0  0  0  0  0  0  0  0  0  0
    0.7844    3.4956    2.7668 H   0  0  0  0  0  0  0  0  0  0  0  0
    0.2468    3.9058    1.1193 H   0  0  0  0  0  0  0  0  0  0  0  0
  5  6  2  0  0  0  0
  5  7  1  0  0  0  0
  2  3  1  0  0  0  0
  2  4  1  0  0  0  0
  2  5  1  0  0  0  0
  1  2  1  0  0  0  0
 22 23  2  0  0  0  0
 22 24  1  0  0  0  0
 19 20  1  0  0  0  0
 19 21  1  0  0  0  0
 17 18  2  0  0  0  0
 17 19  1  0  0  0  0
 14 15  1  0  0  0  0
 14 16  1  0  0  0  0
 14 17  1  0  0  0  0
 11 12  1  0  0  0  0
 11 13  1  0  0  0  0
 11 14  1  0  0  0  0
  9 10  1  0  0  0  0
  9 11  1  0  0  0  0
  9 22  1  0  0  0  0
  7  8  1  0  0  0  0
  7  9  1  0  0  0  0
 26 27  1  0  0  0  0
 26 28  1  0  0  0  0
 26 29  1  0  0  0  0
 24 25  1  0  0  0  0
 24 26  1  0  0  0  0
M  END
$$$$
default_name
  -OEChem-02102213163D

 29 28  0     1  0  0  0  0  0999 V2000
   -3.3998   -3.6239    1.3678 H   0  0  0  0  0  0  0  0  0  0  0  0
   -3.3608   -2.6749    0.8348 C   0  0  0  0  0  0  0  0  0  0  0  0
   -4.0988   -1.9909    1.2498 H   0  0  0  0  0  0  0  0  0  0  0  0
   -3.5618   -2.8419   -0.2222 H   0  0  0  0  0  0  0  0  0  0  0  0
   -1.9818   -2.0809    0.9918 C   0  0  0  0  0  0  0  0  0  0  0  0
   -1.1288   -2.6669    1.6468 O   0  0  0  0  0  0  0  0  0  0  0  0
   -1.7648   -0.9089    0.3998 N   0  0  0  0  0  0  0  0  0  0  0  0
   -2.5238   -0.4719   -0.1032 H   0  0  0  0  0  0  0  0  0  0  0  0
   -0.4848   -0.1959    0.4138 C   0  0  1  0  0  0  0  0  0  0  0  0
    0.1386   -0.6144    1.2058 H   0  0  0  0  0  0  0  0  0  0  0  0
    0.2271   -0.4272   -0.9334 C   0  0  0  0  0  0  0  0  0  0  0  0
    0.3906    0.5434   -1.4064 H   0  0  0  0  0  0  0  0  0  0  0  0
    1.2002   -0.8847   -0.7485 H   0  0  0  0  0  0  0  0  0  0  0  0
   -0.5627   -1.3157   -1.9102 C   0  0  0  0  0  0  0  0  0  0  0  0
    0.0053   -1.4435   -2.8315 H   0  0  0  0  0  0  0  0  0  0  0  0
   -0.7131   -2.2947   -1.4553 H   0  0  0  0  0  0  0  0  0  0  0  0
   -1.9308   -0.7398   -2.2752 C   0  0  0  0  0  0  0  0  0  0  0  0
   -2.3810    0.2782   -1.7837 O   0  0  0  0  0  0  0  0  0  0  0  0
   -2.6568   -1.3714   -3.1720 N   0  0  0  0  0  0  0  0  0  0  0  0
   -3.5461   -0.9487   -3.3742 H   0  0  0  0  0  0  0  0  0  0  0  0
   -2.3334   -2.2106   -3.6088 H   0  0  0  0  0  0  0  0  0  0  0  0
   -0.7011    1.2952    0.7149 C   0  0  0  0  0  0  0  0  0  0  0  0
   -1.5917    1.9198    0.1415 O   0  0  0  0  0  0  0  0  0  0  0  0
    0.1191    1.8675    1.6055 N   0  0  0  0  0  0  0  0  0  0  0  0
    0.8092    1.2861    2.0537 H   0  0  0  0  0  0  0  0  0  0  0  0
    0.0509    3.2769    1.9894 C   0  0  0  0  0  0  0  0  0  0  0  0
   -0.9494    3.5076    2.3640 H   0  0  0  0  0  0  0  0  0  0  0  0
    0.7844    3.4956    2.7668 H   0  0  0  0  0  0  0  0  0  0  0  0
    0.2468    3.9058    1.1193 H   0  0  0  0  0  0  0  0  0  0  0  0
  5  6  2  0  0  0  0
  5  7  1  0  0  0  0
  2  3  1  0  0  0  0
  2  4  1  0  0  0  0
  2  5  1  0  0  0  0
  1  2  1  0  0  0  0
 22 23  2  0  0  0  0
 22 24  1  0  0  0  0
 19 20  1  0  0  0  0
 19 21  1  0  0  0  0
 17 18  2  0  0  0  0
 17 19  1  0  0  0  0
 14 15  1  0  0  0  0
 14 16  1  0  0  0  0
 14 17  1  0  0  0  0
 11 12  1  0  0  0  0
 11 13  1  0  0  0  0
 11 14  1  0  0  0  0
  9 10  1  0  0  0  0
  9 11  1  0  0  0  0
  9 22  1  0  0  0  0
  7  8  1  0  0  0  0
  7  9  1  0  0  0  0
 26 27  1  0  0  0  0
 26 28  1  0  0  0  0
 26 29  1  0  0  0  0
 24 25  1  0  0  0  0
 24 26  1  0  0  0  0
M  END
$$$$
default_name
  -OEChem-02102213163D

 29 28  0     1  0  0  0  0  0999 V2000
   -3.3998   -3.6239    1.3678 H   0  0  0  0  0  0  0  0  0  0  0  0
   -3.3608   -2.6749    0.8348 C   0  0  0  0  0  0  0  0  0  0  0  0
   -4.0988   -1.9909    1.2498 H   0  0  0  0  0  0  0  0  0  0  0  0
   -3.5618   -2.8419   -0.2222 H   0  0  0  0  0  0  0  0  0  0  0  0
   -1.9818   -2.0809    0.9918 C   0  0  0  0  0  0  0  0  0  0  0  0
   -1.1288   -2.6669    1.6468 O   0  0  0  0  0  0  0  0  0  0  0  0
   -1.7648   -0.9089    0.3998 N   0  0  0  0  0  0  0  0  0  0  0  0
   -2.5238   -0.4719   -0.1032 H   0  0  0  0  0  0  0  0  0  0  0  0
   -0.4848   -0.1959    0.4138 C   0  0  1  0  0  0  0  0  0  0  0  0
    0.1386   -0.6144    1.2058 H   0  0  0  0  0  0  0  0  0  0  0  0
    0.2271   -0.4272   -0.9334 C   0  0  0  0  0  0  0  0  0  0  0  0
    0.3906    0.5434   -1.4064 H   0  0  0  0  0  0  0  0  0  0  0  0
    1.2002   -0.8847   -0.7485 H   0  0  0  0  0  0  0  0  0  0  0  0
   -0.5627   -1.3157   -1.9102 C   0  0  0  0  0  0  0  0  0  0  0  0
    0.0962   -1.6620   -2.7062 H   0  0  0  0  0  0  0  0  0  0  0  0
   -0.9430   -2.1831   -1.3709 H   0  0  0  0  0  0  0  0  0  0  0  0
   -1.7455   -0.5949   -2.5568 C   0  0  0  0  0  0  0  0  0  0  0  0
   -2.0749    0.5408   -2.2701 O   0  0  0  0  0  0  0  0  0  0  0  0
   -2.4394   -1.2306   -3.4758 N   0  0  0  0  0  0  0  0  0  0  0  0
   -3.2047   -0.7097   -3.8677 H   0  0  0  0  0  0  0  0  0  0  0  0
   -2.2100   -2.1641   -3.7509 H   0  0  0  0  0  0  0  0  0  0  0  0
   -0.7011    1.2952    0.7149 C   0  0  0  0  0  0  0  0  0  0  0  0
   -1.5917    1.9198    0.1415 O   0  0  0  0  0  0  0  0  0  0  0  0
    0.1191    1.8675    1.6055 N   0  0  0  0  0  0  0  0  0  0  0  0
    0.8092    1.2861    2.0537 H   0  0  0  0  0  0  0  0  0  0  0  0
    0.0509    3.2769    1.9894 C   0  0  0  0  0  0  0  0  0  0  0  0
   -0.9494    3.5076    2.3640 H   0  0  0  0  0  0  0  0  0  0  0  0
    0.7844    3.4956    2.7668 H   0  0  0  0  0  0  0  0  0  0  0  0
    0.2468    3.9058    1.1193 H   0  0  0  0  0  0  0  0  0  0  0  0
  5  6  2  0  0  0  0
  5  7  1  0  0  0  0
  2  3  1  0  0  0  0
  2  4  1  0  0  0  0
  2  5  1  0  0  0  0
  1  2  1  0  0  0  0
 22 23  2  0  0  0  0
 22 24  1  0  0  0  0
 19 20  1  0  0  0  0
 19 21  1  0  0  0  0
 17 18  2  0  0  0  0
 17 19  1  0  0  0  0
 14 15  1  0  0  0  0
 14 16  1  0  0  0  0
 14 17  1  0  0  0  0
 11 12  1  0  0  0  0
 11 13  1  0  0  0  0
 11 14  1  0  0  0  0
  9 10  1  0  0  0  0
  9 11  1  0  0  0  0
  9 22  1  0  0  0  0
  7  8  1  0  0  0  0
  7  9  1  0  0  0  0
 26 27  1  0  0  0  0
 26 28  1  0  0  0  0
 26 29  1  0  0  0  0
 24 25  1  0  0  0  0
 24 26  1  0  0  0  0
M  END
$$$$
default_name
  -OEChem-02102213163D

 29 28  0     1  0  0  0  0  0999 V2000
   -3.3998   -3.6239    1.3678 H   0  0  0  0  0  0  0  0  0  0  0  0
   -3.3608   -2.6749    0.8348 C   0  0  0  0  0  0  0  0  0  0  0  0
   -4.0988   -1.9909    1.2498 H   0  0  0  0  0  0  0  0  0  0  0  0
   -3.5618   -2.8419   -0.2222 H   0  0  0  0  0  0  0  0  0  0  0  0
   -1.9818   -2.0809    0.9918 C   0  0  0  0  0  0  0  0  0  0  0  0
   -1.1288   -2.6669    1.6468 O   0  0  0  0  0  0  0  0  0  0  0  0
   -1.7648   -0.9089    0.3998 N   0  0  0  0  0  0  0  0  0  0  0  0
   -2.5238   -0.4719   -0.1032 H   0  0  0  0  0  0  0  0  0  0  0  0
   -0.4848   -0.1959    0.4138 C   0  0  1  0  0  0  0  0  0  0  0  0
    0.1386   -0.6144    1.2058 H   0  0  0  0  0  0  0  0  0  0  0  0
    0.2271   -0.4272   -0.9334 C   0  0  0  0  0  0  0  0  0  0  0  0
    0.3906    0.5434   -1.4064 H   0  0  0  0  0  0  0  0  0  0  0  0
    1.2002   -0.8847   -0.7485 H   0  0  0  0  0  0  0  0  0  0  0  0
   -0.5627   -1.3157   -1.9102 C   0  0  0  0  0  0  0  0  0  0  0  0
    0.1294   -1.8715   -2.5425 H   0  0  0  0  0  0  0  0  0  0  0  0
   -1.1594   -2.0264   -1.3385 H   0  0  0  0  0  0  0  0  0  0  0  0
   -1.5007   -0.5229   -2.8203 C   0  0  0  0  0  0  0  0  0  0  0  0
   -1.6634    0.6795   -2.7290 O   0  0  0  0  0  0  0  0  0  0  0  0
   -2.1608   -1.1706   -3.7556 N   0  0  0  0  0  0  0  0  0  0  0  0
   -2.7619   -0.6005   -4.3250 H   0  0  0  0  0  0  0  0  0  0  0  0
   -2.0620   -2.1583   -3.8758 H   0  0  0  0  0  0  0  0  0  0  0  0
   -0.7011    1.2952    0.7149 C   0  0  0  0  0  0  0  0  0  0  0  0
   -1.5917    1.9198    0.1415 O   0  0  0  0  0  0  0  0  0  0  0  0
    0.1191    1.8675    1.6055 N   0  0  0  0  0  0  0  0  0  0  0  0
    0.8092    1.2861    2.0537 H   0  0  0  0  0  0  0  0  0  0  0  0
    0.0509    3.2769    1.9894 C   0  0  0  0  0  0  0  0  0  0  0  0
   -0.9494    3.5076    2.3640 H   0  0  0  0  0  0  0  0  0  0  0  0
    0.7844    3.4956    2.7668 H   0  0  0  0  0  0  0  0  0  0  0  0
    0.2468    3.9058    1.1193 H   0  0  0  0  0  0  0  0  0  0  0  0
  5  6  2  0  0  0  0
  5  7  1  0  0  0  0
  2  3  1  0  0  0  0
  2  4  1  0  0  0  0
  2  5  1  0  0  0  0
  1  2  1  0  0  0  0
 22 23  2  0  0  0  0
 22 24  1  0  0  0  0
 19 20  1  0  0  0  0
 19 21  1  0  0  0  0
 17 18  2  0  0  0  0
 17 19  1  0  0  0  0
 14 15  1  0  0  0  0
 14 16  1  0  0  0  0
 14 17  1  0  0  0  0
 11 12  1  0  0  0  0
 11 13  1  0  0  0  0
 11 14  1  0  0  0  0
  9 10  1  0  0  0  0
  9 11  1  0  0  0  0
  9 22  1  0  0  0  0
  7  8  1  0  0  0  0
  7  9  1  0  0  0  0
 26 27  1  0  0  0  0
 26 28  1  0  0  0  0
 26 29  1  0  0  0  0
 24 25  1  0  0  0  0
 24 26  1  0  0  0  0
M  END
$$$$
default_name
  -OEChem-02102213163D

 29 28  0     1  0  0  0  0  0999 V2000
   -3.3998   -3.6239    1.3678 H   0  0  0  0  0  0  0  0  0  0  0  0
   -3.3608   -2.6749    0.8348 C   0  0  0  0  0  0  0  0  0  0  0  0
   -4.0988   -1.9909    1.2498 H   0  0  0  0  0  0  0  0  0  0  0  0
   -3.5618   -2.8419   -0.2222 H   0  0  0  0  0  0  0  0  0  0  0  0
   -1.9818   -2.0809    0.9918 C   0  0  0  0  0  0  0  0  0  0  0  0
   -1.1288   -2.6669    1.6468 O   0  0  0  0  0  0  0  0  0  0  0  0
   -1.7648   -0.9089    0.3998 N   0  0  0  0  0  0  0  0  0  0  0  0
   -2.5238   -0.4719   -0.1032 H   0  0  0  0  0  0  0  0  0  0  0  0
   -0.4848   -0.1959    0.4138 C   0  0  1  0  0  0  0  0  0  0  0  0
    0.1386   -0.6144    1.2058 H   0  0  0  0  0  0  0  0  0  0  0  0
    0.2271   -0.4272   -0.9334 C   0  0  0  0  0  0  0  0  0  0  0  0
    0.3906    0.5434   -1.4064 H   0  0  0  0  0  0  0  0  0  0  0  0
    1.2002   -0.8847   -0.7485 H   0  0  0  0  0  0  0  0  0  0  0  0
   -0.5627   -1.3157   -1.9102 C   0  0  0  0  0  0  0  0  0  0  0  0
    0.1026   -2.0575   -2.3516 H   0  0  0  0  0  0  0  0  0  0  0  0
   -1.3475   -1.8351   -1.3604 H   0  0  0  0  0  0  0  0  0  0  0  0
   -1.2130   -0.5285   -3.0478 C   0  0  0  0  0  0  0  0  0  0  0  0
   -1.1745    0.6850   -3.1292 O   0  0  0  0  0  0  0  0  0  0  0  0
   -1.8401   -1.1957   -3.9921 N   0  0  0  0  0  0  0  0  0  0  0  0
   -2.2479   -0.6286   -4.7151 H   0  0  0  0  0  0  0  0  0  0  0  0
   -1.8994   -2.1936   -3.9752 H   0  0  0  0  0  0  0  0  0  0  0  0
   -0.7011    1.2952    0.7149 C   0  0  0  0  0  0  0  0  0  0  0  0
   -1.5917    1.9198    0.1415 O   0  0  0  0  0  0  0  0  0  0  0  0
    0.1191    1.8675    1.6055 N   0  0  0  0  0  0  0  0  0  0  0  0
    0.8092    1.2861    2.0537 H   0  0  0  0  0  0  0  0  0  0  0  0
    0.0509    3.2769    1.9894 C   0  0  0  0  0  0  0  0  0  0  0  0
   -0.9494    3.5076    2.3640 H   0  0  0  0  0  0  0  0  0  0  0  0
    0.7844    3.4956    2.7668 H   0  0  0  0  0  0  0  0  0  0  0  0
    0.2468    3.9058    1.1193 H   0  0  0  0  0  0  0  0  0  0  0  0
  5  6  2  0  0  0  0
  5  7  1  0  0  0  0
  2  3  1  0  0  0  0
  2  4  1  0  0  0  0
  2  5  1  0  0  0  0
  1  2  1  0  0  0  0
 22 23  2  0  0  0  0
 22 24  1  0  0  0  0
 19 20  1  0  0  0  0
 19 21  1  0  0  0  0
 17 18  2  0  0  0  0
 17 19  1  0  0  0  0
 14 15  1  0  0  0  0
 14 16  1  0  0  0  0
 14 17  1  0  0  0  0
 11 12  1  0  0  0  0
 11 13  1  0  0  0  0
 11 14  1  0  0  0  0
  9 10  1  0  0  0  0
  9 11  1  0  0  0  0
  9 22  1  0  0  0  0
  7  8  1  0  0  0  0
  7  9  1  0  0  0  0
 26 27  1  0  0  0  0
 26 28  1  0  0  0  0
 26 29  1  0  0  0  0
 24 25  1  0  0  0  0
 24 26  1  0  0  0  0
M  END
$$$$
default_name
  -OEChem-02102213163D

 29 28  0     1  0  0  0  0  0999 V2000
   -3.3998   -3.6239    1.3678 H   0  0  0  0  0  0  0  0  0  0  0  0
   -3.3608   -2.6749    0.8348 C   0  0  0  0  0  0  0  0  0  0  0  0
   -4.0988   -1.9909    1.2498 H   0  0  0  0  0  0  0  0  0  0  0  0
   -3.5618   -2.8419   -0.2222 H   0  0  0  0  0  0  0  0  0  0  0  0
   -1.9818   -2.0809    0.9918 C   0  0  0  0  0  0  0  0  0  0  0  0
   -1.1288   -2.6669    1.6468 O   0  0  0  0  0  0  0  0  0  0  0  0
   -1.7648   -0.9089    0.3998 N   0  0  0  0  0  0  0  0  0  0  0  0
   -2.5238   -0.4719   -0.1032 H   0  0  0  0  0  0  0  0  0  0  0  0
   -0.4848   -0.1959    0.4138 C   0  0  1  0  0  0  0  0  0  0  0  0
    0.1386   -0.6144    1.2058 H   0  0  0  0  0  0  0  0  0  0  0  0
    0.2271   -0.4272   -0.9334 C   0  0  0  0  0  0  0  0  0  0  0  0
    0.3906    0.5434   -1.4064 H   0  0  0  0  0  0  0  0  0  0  0  0
    1.2002   -0.8847   -0.7485 H   0  0  0  0  0  0  0  0  0  0  0  0
   -0.5627   -1.3157   -1.9102 C   0  0  0  0  0  0  0  0  0  0  0  0
    0.0176   -2.2074   -2.1465 H   0  0  0  0  0  0  0  0  0  0  0  0
   -1.4944   -1.6224   -1.4351 H   0  0  0  0  0  0  0  0  0  0  0  0
   -0.9020   -0.6114   -3.2238 C   0  0  0  0  0  0  0  0  0  0  0  0
   -0.6415    0.5567   -3.4435 O   0  0  0  0  0  0  0  0  0  0  0  0
   -1.4991   -1.3040   -4.1693 N   0  0  0  0  0  0  0  0  0  0  0  0
   -1.6977   -0.7920   -5.0113 H   0  0  0  0  0  0  0  0  0  0  0  0
   -1.7333   -2.2677   -4.0421 H   0  0  0  0  0  0  0  0  0  0  0  0
   -0.7011    1.2952    0.7149 C   0  0  0  0  0  0  0  0  0  0  0  0
   -1.5917    1.9198    0.1415 O   0  0  0  0  0  0  0  0  0  0  0  0
    0.1191    1.8675    1.6055 N   0  0  0  0  0  0  0  0  0  0  0  0
    0.8092    1.2861    2.0537 H   0  0  0  0  0  0  0  0  0  0  0  0
    0.0509    3.2769    1.9894 C   0  0  0  0  0  0  0  0  0  0  0  0
   -0.9494    3.5076    2.3640 H   0  0  0  0  0  0  0  0  0  0  0  0
    0.7844    3.4956    2.7668 H   0  0  0  0  0  0  0  0  0  0  0  0
    0.2468    3.9058    1.1193 H   0  0  0  0  0  0  0  0  0  0  0  0
  5  6  2  0  0  0  0
  5  7  1  0  0  0  0
  2  3  1  0  0  0  0
  2  4  1  0  0  0  0
  2  5  1  0  0  0  0
  1  2  1  0  0  0  0
 22 23  2  0  0  0  0
 22 24  1  0  0  0  0
 19 20  1  0  0  0  0
 19 21  1  0  0  0  0
 17 18  2  0  0  0  0
 17 19  1  0  0  0  0
 14 15  1  0  0  0  0
 14 16  1  0  0  0  0
 14 17  1  0  0  0  0
 11 12  1  0  0  0  0
 11 13  1  0  0  0  0
 11 14  1  0  0  0  0
  9 10  1  0  0  0  0
  9 11  1  0  0  0  0
  9 22  1  0  0  0  0
  7  8  1  0  0  0  0
  7  9  1  0  0  0  0
 26 27  1  0  0  0  0
 26 28  1  0  0  0  0
 26 29  1  0  0  0  0
 24 25  1  0  0  0  0
 24 26  1  0  0  0  0
M  END
$$$$
default_name
  -OEChem-02102213163D

 29 28  0     1  0  0  0  0  0999 V2000
   -3.3998   -3.6239    1.3678 H   0  0  0  0  0  0  0  0  0  0  0  0
   -3.3608   -2.6749    0.8348 C   0  0  0  0  0  0  0  0  0  0  0  0
   -4.0988   -1.9909    1.2498 H   0  0  0  0  0  0  0  0  0  0  0  0
   -3.5618   -2.8419   -0.2222 H   0  0  0  0  0  0  0  0  0  0  0  0
   -1.9818   -2.0809    0.9918 C   0  0  0  0  0  0  0  0  0  0  0  0
   -1.1288   -2.6669    1.6468 O   0  0  0  0  0  0  0  0  0  0  0  0
   -1.7648   -0.9089    0.3998 N   0  0  0  0  0  0  0  0  0  0  0  0
   -2.5238   -0.4719   -0.1032 H   0  0  0  0  0  0  0  0  0  0  0  0
   -0.4848   -0.1959    0.4138 C   0  0  1  0  0  0  0  0  0  0  0  0
    0.1386   -0.6144    1.2058 H   0  0  0  0  0  0  0  0  0  0  0  0
    0.2271   -0.4272   -0.9334 C   0  0  0  0  0  0  0  0  0  0  0  0
    0.3906    0.5434   -1.4064 H   0  0  0  0  0  0  0  0  0  0  0  0
    1.2002   -0.8847   -0.7485 H   0  0  0  0  0  0  0  0  0  0  0  0
   -0.5627   -1.3157   -1.9102 C   0  0  0  0  0  0  0  0  0  0  0  0
   -0.1198   -2.3110   -1.9412 H   0  0  0  0  0  0  0  0  0  0  0  0
   -1.5903   -1.4027   -1.5575 H   0  0  0  0  0  0  0  0  0  0  0  0
   -0.5889   -0.7660   -3.3363 C   0  0  0  0  0  0  0  0  0  0  0  0
   -0.1009    0.3035   -3.6503 O   0  0  0  0  0  0  0  0  0  0  0  0
   -1.1610   -1.4882   -4.2751 N   0  0  0  0  0  0  0  0  0  0  0  0
   -1.1488   -1.0796   -5.1935 H   0  0  0  0  0  0  0  0  0  0  0  0
   -1.5750   -2.3754   -4.0721 H   0  0  0  0  0  0  0  0  0  0  0  0
   -0.7011    1.2952    0.7149 C   0  0  0  0  0  0  0  0  0  0  0  0
   -1.5917    1.9198    0.1415 O   0  0  0  0  0  0  0  0  0  0  0  0
    0.1191    1.8675    1.6055 N   0  0  0  0  0  0  0  0  0  0  0  0
    0.8092    1.2861    2.0537 H   0  0  0  0  0  0  0  0  0  0  0  0
    0.0509    3.2769    1.9894 C   0  0  0  0  0  0  0  0  0  0  0  0
   -0.9494    3.5076    2.3640 H   0  0  0  0  0  0  0  0  0  0  0  0
    0.7844    3.4956    2.7668 H   0  0  0  0  0  0  0  0  0  0  0  0
    0.2468    3.9058    1.1193 H   0  0  0  0  0  0  0  0  0  0  0  0
  5  6  2  0  0  0  0
  5  7  1  0  0  0  0
  2  3  1  0  0  0  0
  2  4  1  0  0  0  0
  2  5  1  0  0  0  0
  1  2  1  0  0  0  0
 22 23  2  0  0  0  0
 22 24  1  0  0  0  0
 19 20  1  0  0  0  0
 19 21  1  0  0  0  0
 17 18  2  0  0  0  0
 17 19  1  0  0  0  0
 14 15  1  0  0  0  0
 14 16  1  0  0  0  0
 14 17  1  0  0  0  0
 11 12  1  0  0  0  0
 11 13  1  0  0  0  0
 11 14  1  0  0  0  0
  9 10  1  0  0  0  0
  9 11  1  0  0  0  0
  9 22  1  0  0  0  0
  7  8  1  0  0  0  0
  7  9  1  0  0  0  0
 26 27  1  0  0  0  0
 26 28  1  0  0  0  0
 26 29  1  0  0  0  0
 24 25  1  0  0  0  0
 24 26  1  0  0  0  0
M  END
$$$$
default_name
  -OEChem-02102213163D

 29 28  0     1  0  0  0  0  0999 V2000
   -3.3998   -3.6239    1.3678 H   0  0  0  0  0  0  0  0  0  0  0  0
   -3.3608   -2.6749    0.8348 C   0  0  0  0  0  0  0  0  0  0  0  0
   -4.0988   -1.9909    1.2498 H   0  0  0  0  0  0  0  0  0  0  0  0
   -3.5618   -2.8419   -0.2222 H   0  0  0  0  0  0  0  0  0  0  0  0
   -1.9818   -2.0809    0.9918 C   0  0  0  0  0  0  0  0  0  0  0  0
   -1.1288   -2.6669    1.6468 O   0  0  0  0  0  0  0  0  0  0  0  0
   -1.7648   -0.9089    0.3998 N   0  0  0  0  0  0  0  0  0  0  0  0
   -2.5238   -0.4719   -0.1032 H   0  0  0  0  0  0  0  0  0  0  0  0
   -0.4848   -0.1959    0.4138 C   0  0  1  0  0  0  0  0  0  0  0  0
    0.1386   -0.6144    1.2058 H   0  0  0  0  0  0  0  0  0  0  0  0
    0.2271   -0.4272   -0.9334 C   0  0  0  0  0  0  0  0  0  0  0  0
    0.3906    0.5434   -1.4064 H   0  0  0  0  0  0  0  0  0  0  0  0
    1.2002   -0.8847   -0.7485 H   0  0  0  0  0  0  0  0  0  0  0  0
   -0.5627   -1.3157   -1.9102 C   0  0  0  0  0  0  0  0  0  0  0  0
   -0.3002   -2.3612   -1.7497 H   0  0  0  0  0  0  0  0  0  0  0  0
   -1.6285   -1.1909   -1.7192 H   0  0  0  0  0  0  0  0  0  0  0  0
   -0.2950   -0.9817   -3.3777 C   0  0  0  0  0  0  0  0  0  0  0  0
    0.4107   -0.0574   -3.7357 O   0  0  0  0  0  0  0  0  0  0  0  0
   -0.8489   -1.7358   -4.3023 N   0  0  0  0  0  0  0  0  0  0  0  0
   -0.6387   -1.4718   -5.2492 H   0  0  0  0  0  0  0  0  0  0  0  0
   -1.4353   -2.5095   -4.0631 H   0  0  0  0  0  0  0  0  0  0  0  0
   -0.7011    1.2952    0.7149 C   0  0  0  0  0  0  0  0  0  0  0  0
   -1.5917    1.9198    0.1415 O   0  0  0  0  0  0  0  0  0  0  0  0
    0.1191    1.8675    1.6055 N   0  0  0  0  0  0  0  0  0  0  0  0
    0.8092    1.2861    2.0537 H   0  0  0  0  0  0  0  0  0  0  0  0
    0.0509    3.2769    1.9894 C   0  0  0  0  0  0  0  0  0  0  0  0
   -0.9494    3.5076    2.3640 H   0  0  0  0  0  0  0  0  0  0  0  0
    0.7844    3.4956    2.7668 H   0  0  0  0  0  0  0  0  0  0  0  0
    0.2468    3.9058    1.1193 H   0  0  0  0  0  0  0  0  0  0  0  0
  5  6  2  0  0  0  0
  5  7  1  0  0  0  0
  2  3  1  0  0  0  0
  2  4  1  0  0  0  0
  2  5  1  0  0  0  0
  1  2  1  0  0  0  0
 22 23  2  0  0  0  0
 22 24  1  0  0  0  0
 19 20  1  0  0  0  0
 19 21  1  0  0  0  0
 17 18  2  0  0  0  0
 17 19  1  0  0  0  0
 14 15  1  0  0  0  0
 14 16  1  0  0  0  0
 14 17  1  0  0  0  0
 11 12  1  0  0  0  0
 11 13  1  0  0  0  0
 11 14  1  0  0  0  0
  9 10  1  0  0  0  0
  9 11  1  0  0  0  0
  9 22  1  0  0  0  0
  7  8  1  0  0  0  0
  7  9  1  0  0  0  0
 26 27  1  0  0  0  0
 26 28  1  0  0  0  0
 26 29  1  0  0  0  0
 24 25  1  0  0  0  0
 24 26  1  0  0  0  0
M  END
$$$$
default_name
  -OEChem-02102213163D

 29 28  0     1  0  0  0  0  0999 V2000
   -3.3998   -3.6239    1.3678 H   0  0  0  0  0  0  0  0  0  0  0  0
   -3.3608   -2.6749    0.8348 C   0  0  0  0  0  0  0  0  0  0  0  0
   -4.0988   -1.9909    1.2498 H   0  0  0  0  0  0  0  0  0  0  0  0
   -3.5618   -2.8419   -0.2222 H   0  0  0  0  0  0  0  0  0  0  0  0
   -1.9818   -2.0809    0.9918 C   0  0  0  0  0  0  0  0  0  0  0  0
   -1.1288   -2.6669    1.6468 O   0  0  0  0  0  0  0  0  0  0  0  0
   -1.7648   -0.9089    0.3998 N   0  0  0  0  0  0  0  0  0  0  0  0
   -2.5238   -0.4719   -0.1032 H   0  0  0  0  0  0  0  0  0  0  0  0
   -0.4848   -0.1959    0.4138 C   0  0  1  0  0  0  0  0  0  0  0  0
    0.1386   -0.6144    1.2058 H   0  0  0  0  0  0  0  0  0  0  0  0
    0.2271   -0.4272   -0.9334 C   0  0  0  0  0  0  0  0  0  0  0  0
    0.3906    0.5434   -1.4064 H   0  0  0  0  0  0  0  0  0  0  0  0
    1.2002   -0.8847   -0.7485 H   0  0  0  0  0  0  0  0  0  0  0  0
   -0.5627   -1.3157   -1.9102 C   0  0  0  0  0  0  0  0  0  0  0  0
   -0.5114   -2.3545   -1.5850 H   0  0  0  0  0  0  0  0  0  0  0  0
   -1.6064   -1.0016   -1.9092 H   0  0  0  0  0  0  0  0  0  0  0  0
   -0.0405   -1.2439   -3.3451 C   0  0  0  0  0  0  0  0  0  0  0  0
    0.8583   -0.5014   -3.6937 O   0  0  0  0  0  0  0  0  0  0  0  0
   -0.5840   -2.0298   -4.2491 N   0  0  0  0  0  0  0  0  0  0  0  0
   -0.2020   -1.9418   -5.1747 H   0  0  0  0  0  0  0  0  0  0  0  0
   -1.3237   -2.6607   -4.0158 H   0  0  0  0  0  0  0  0  0  0  0  0
   -0.7011    1.2952    0.7149 C   0  0  0  0  0  0  0  0  0  0  0  0
   -1.5917    1.9198    0.1415 O   0  0  0  0  0  0  0  0  0  0  0  0
    0.1191    1.8675    1.6055 N   0  0  0  0  0  0  0  0  0  0  0  0
    0.8092    1.2861    2.0537 H   0  0  0  0  0  0  0  0  0  0  0  0
    0.0509    3.2769    1.9894 C   0  0  0  0  0  0  0  0  0  0  0  0
   -0.9494    3.5076    2.3640 H   0  0  0  0  0  0  0  0  0  0  0  0
    0.7844    3.4956    2.7668 H   0  0  0  0  0  0  0  0  0  0  0  0
    0.2468    3.9058    1.1193 H   0  0  0  0  0  0  0  0  0  0  0  0
  5  6  2  0  0  0  0
  5  7  1  0  0  0  0
  2  3  1  0  0  0  0
  2  4  1  0  0  0  0
  2  5  1  0  0  0  0
  1  2  1  0  0  0  0
 22 23  2  0  0  0  0
 22 24  1  0  0  0  0
 19 20  1  0  0  0  0
 19 21  1  0  0  0  0
 17 18  2  0  0  0  0
 17 19  1  0  0  0  0
 14 15  1  0  0  0  0
 14 16  1  0  0  0  0
 14 17  1  0  0  0  0
 11 12  1  0  0  0  0
 11 13  1  0  0  0  0
 11 14  1  0  0  0  0
  9 10  1  0  0  0  0
  9 11  1  0  0  0  0
  9 22  1  0  0  0  0
  7  8  1  0  0  0  0
  7  9  1  0  0  0  0
 26 27  1  0  0  0  0
 26 28  1  0  0  0  0
 26 29  1  0  0  0  0
 24 25  1  0  0  0  0
 24 26  1  0  0  0  0
M  END
$$$$
default_name
  -OEChem-02102213163D

 29 28  0     1  0  0  0  0  0999 V2000
   -3.3998   -3.6239    1.3678 H   0  0  0  0  0  0  0  0  0  0  0  0
   -3.3608   -2.6749    0.8348 C   0  0  0  0  0  0  0  0  0  0  0  0
   -4.0988   -1.9909    1.2498 H   0  0  0  0  0  0  0  0  0  0  0  0
   -3.5618   -2.8419   -0.2222 H   0  0  0  0  0  0  0  0  0  0  0  0
   -1.9818   -2.0809    0.9918 C   0  0  0  0  0  0  0  0  0  0  0  0
   -1.1288   -2.6669    1.6468 O   0  0  0  0  0  0  0  0  0  0  0  0
   -1.7648   -0.9089    0.3998 N   0  0  0  0  0  0  0  0  0  0  0  0
   -2.5238   -0.4719   -0.1032 H   0  0  0  0  0  0  0  0  0  0  0  0
   -0.4848   -0.1959    0.4138 C   0  0  1  0  0  0  0  0  0  0  0  0
    0.1386   -0.6144    1.2058 H   0  0  0  0  0  0  0  0  0  0  0  0
    0.2271   -0.4272   -0.9334 C   0  0  0  0  0  0  0  0  0  0  0  0
    0.6284    0.5281   -1.2781 H   0  0  0  0  0  0  0  0  0  0  0  0
    1.0619   -1.1132   -0.7823 H   0  0  0  0  0  0  0  0  0  0  0  0
   -0.6891   -0.9931   -2.0324 C   0  0  0  0  0  0  0  0  0  0  0  0
   -1.1028   -1.9483   -1.7096 H   0  0  0  0  0  0  0  0  0  0  0  0
   -1.5106   -0.2971   -2.2012 H   0  0  0  0  0  0  0  0  0  0  0  0
    0.0327   -1.2163   -3.3612 C   0  0  0  0  0  0  0  0  0  0  0  0
    1.1936   -0.9058   -3.5526 O   0  0  0  0  0  0  0  0  0  0  0  0
   -0.6310   -1.7797   -4.3472 N   0  0  0  0  0  0  0  0  0  0  0  0
   -0.1081   -1.9031   -5.1968 H   0  0  0  0  0  0  0  0  0  0  0  0
   -1.5861   -2.0567   -4.2427 H   0  0  0  0  0  0  0  0  0  0  0  0
   -0.7011    1.2952    0.7149 C   0  0  0  0  0  0  0  0  0  0  0  0
   -1.5917    1.9198    0.1415 O   0  0  0  0  0  0  0  0  0  0  0  0
    0.1191    1.8675    1.6055 N   0  0  0  0  0  0  0  0  0  0  0  0
    0.8092    1.2861    2.0537 H   0  0  0  0  0  0  0  0  0  0  0  0
    0.0509    3.2769    1.9894 C   0  0  0  0  0  0  0  0  0  0  0  0
   -0.9494    3.5076    2.3640 H   0  0  0  0  0  0  0  0  0  0  0  0
    0.7844    3.4956    2.7668 H   0  0  0  0  0  0  0  0  0  0  0  0
    0.2468    3.9058    1.1193 H   0  0  0  0  0  0  0  0  0  0  0  0
  5  6  2  0  0  0  0
  5  7  1  0  0  0  0
  2  3  1  0  0  0  0
  2  4  1  0  0  0  0
  2  5  1  0  0  0  0
  1  2  1  0  0  0  0
 22 23  2  0  0  0  0
 22 24  1  0  0  0  0
 19 20  1  0  0  0  0
 19 21  1  0  0  0  0
 17 18  2  0  0  0  0
 17 19  1  0  0  0  0
 14 15  1  0  0  0  0
 14 16  1  0  0  0  0
 14 17  1  0  0  0  0
 11 12  1  0  0  0  0
 11 13  1  0  0  0  0
 11 14  1  0  0  0  0
  9 10  1  0  0  0  0
  9 11  1  0  0  0  0
  9 22  1  0  0  0  0
  7  8  1  0  0  0  0
  7  9  1  0  0  0  0
 26 27  1  0  0  0  0
 26 28  1  0  0  0  0
 26 29  1  0  0  0  0
 24 25  1  0  0  0  0
 24 26  1  0  0  0  0
M  END
$$$$
default_name
  -OEChem-02102213163D

 29 28  0     1  0  0  0  0  0999 V2000
   -3.3998   -3.6239    1.3678 H   0  0  0  0  0  0  0  0  0  0  0  0
   -3.3608   -2.6749    0.8348 C   0  0  0  0  0  0  0  0  0  0  0  0
   -4.0988   -1.9909    1.2498 H   0  0  0  0  0  0  0  0  0  0  0  0
   -3.5618   -2.8419   -0.2222 H   0  0  0  0  0  0  0  0  0  0  0  0
   -1.9818   -2.0809    0.9918 C   0  0  0  0  0  0  0  0  0  0  0  0
   -1.1288   -2.6669    1.6468 O   0  0  0  0  0  0  0  0  0  0  0  0
   -1.7648   -0.9089    0.3998 N   0  0  0  0  0  0  0  0  0  0  0  0
   -2.5238   -0.4719   -0.1032 H   0  0  0  0  0  0  0  0  0  0  0  0
   -0.4848   -0.1959    0.4138 C   0  0  1  0  0  0  0  0  0  0  0  0
    0.1386   -0.6144    1.2058 H   0  0  0  0  0  0  0  0  0  0  0  0
    0.2271   -0.4272   -0.9334 C   0  0  0  0  0  0  0  0  0  0  0  0
    0.6284    0.5281   -1.2781 H   0  0  0  0  0  0  0  0  0  0  0  0
    1.0619   -1.1132   -0.7823 H   0  0  0  0  0  0  0  0  0  0  0  0
   -0.6891   -0.9931   -2.0324 C   0  0  0  0  0  0  0  0  0  0  0  0
   -1.3034   -1.7941   -1.6217 H   0  0  0  0  0  0  0  0  0  0  0  0
   -1.3451   -0.1993   -2.3895 H   0  0  0  0  0  0  0  0  0  0  0  0
    0.0812   -1.5544   -3.2275 C   0  0  0  0  0  0  0  0  0  0  0  0
    1.2917   -1.4902   -3.3334 O   0  0  0  0  0  0  0  0  0  0  0  0
   -0.5968   -2.1443   -4.1880 N   0  0  0  0  0  0  0  0  0  0  0  0
   -0.0405   -2.4953   -4.9481 H   0  0  0  0  0  0  0  0  0  0  0  0
   -1.5925   -2.2267   -4.1498 H   0  0  0  0  0  0  0  0  0  0  0  0
   -0.7011    1.2952    0.7149 C   0  0  0  0  0  0  0  0  0  0  0  0
   -1.5917    1.9198    0.1415 O   0  0  0  0  0  0  0  0  0  0  0  0
    0.1191    1.8675    1.6055 N   0  0  0  0  0  0  0  0  0  0  0  0
    0.8092    1.2861    2.0537 H   0  0  0  0  0  0  0  0  0  0  0  0
    0.0509    3.2769    1.9894 C   0  0  0  0  0  0  0  0  0  0  0  0
   -0.9494    3.5076    2.3640 H   0  0  0  0  0  0  0  0  0  0  0  0
    0.7844    3.4956    2.7668 H   0  0  0  0  0  0  0  0  0  0  0  0
    0.2468    3.9058    1.1193 H   0  0  0  0  0  0  0  0  0  0  0  0
  5  6  2  0  0  0  0
  5  7  1  0  0  0  0
  2  3  1  0  0  0  0
  2  4  1  0  0  0  0
  2  5  1  0  0  0  0
  1  2  1  0  0  0  0
 22 23  2  0  0  0  0
 22 24  1  0  0  0  0
 19 20  1  0  0  0  0
 19 21  1  0  0  0  0
 17 18  2  0  0  0  0
 17 19  1  0  0  0  0
 14 15  1  0  0  0  0
 14 16  1  0  0  0  0
 14 17  1  0  0  0  0
 11 12  1  0  0  0  0
 11 13  1  0  0  0  0
 11 14  1  0  0  0  0
  9 10  1  0  0  0  0
  9 11  1  0  0  0  0
  9 22  1  0  0  0  0
  7  8  1  0  0  0  0
  7  9  1  0  0  0  0
 26 27  1  0  0  0  0
 26 28  1  0  0  0  0
 26 29  1  0  0  0  0
 24 25  1  0  0  0  0
 24 26  1  0  0  0  0
M  END
$$$$
default_name
  -OEChem-02102213163D

 29 28  0     1  0  0  0  0  0999 V2000
   -3.3998   -3.6239    1.3678 H   0  0  0  0  0  0  0  0  0  0  0  0
   -3.3608   -2.6749    0.8348 C   0  0  0  0  0  0  0  0  0  0  0  0
   -4.0988   -1.9909    1.2498 H   0  0  0  0  0  0  0  0  0  0  0  0
   -3.5618   -2.8419   -0.2222 H   0  0  0  0  0  0  0  0  0  0  0  0
   -1.9818   -2.0809    0.9918 C   0  0  0  0  0  0  0  0  0  0  0  0
   -1.1288   -2.6669    1.6468 O   0  0  0  0  0  0  0  0  0  0  0  0
   -1.7648   -0.9089    0.3998 N   0  0  0  0  0  0  0  0  0  0  0  0
   -2.5238   -0.4719   -0.1032 H   0  0  0  0  0  0  0  0  0  0  0  0
   -0.4848   -0.1959    0.4138 C   0  0  1  0  0  0  0  0  0  0  0  0
    0.1386   -0.6144    1.2058 H   0  0  0  0  0  0  0  0  0  0  0  0
    0.2271   -0.4272   -0.9334 C   0  0  0  0  0  0  0  0  0  0  0  0
    0.6284    0.5281   -1.2781 H   0  0  0  0  0  0  0  0  0  0  0  0
    1.0619   -1.1132   -0.7823 H   0  0  0  0  0  0  0  0  0  0  0  0
   -0.6891   -0.9931   -2.0324 C   0  0  0  0  0  0  0  0  0  0  0  0
   -1.4771   -1.5945   -1.5797 H   0  0  0  0  0  0  0  0  0  0  0  0
   -1.1491   -0.1646   -2.5708 H   0  0  0  0  0  0  0  0  0  0  0  0
    0.0528   -1.8694   -3.0416 C   0  0  0  0  0  0  0  0  0  0  0  0
    1.2575   -2.0391   -3.0222 O   0  0  0  0  0  0  0  0  0  0  0  0
   -0.6462   -2.4783   -3.9748 N   0  0  0  0  0  0  0  0  0  0  0  0
   -0.1083   -3.0416   -4.6103 H   0  0  0  0  0  0  0  0  0  0  0  0
   -1.6390   -2.3754   -4.0345 H   0  0  0  0  0  0  0  0  0  0  0  0
   -0.7011    1.2952    0.7149 C   0  0  0  0  0  0  0  0  0  0  0  0
   -1.5917    1.9198    0.1415 O   0  0  0  0  0  0  0  0  0  0  0  0
    0.1191    1.8675    1.6055 N   0  0  0  0  0  0  0  0  0  0  0  0
    0.8092    1.2861    2.0537 H   0  0  0  0  0  0  0  0  0  0  0  0
    0.0509    3.2769    1.9894 C   0  0  0  0  0  0  0  0  0  0  0  0
   -0.9494    3.5076    2.3640 H   0  0  0  0  0  0  0  0  0  0  0  0
    0.7844    3.4956    2.7668 H   0  0  0  0  0  0  0  0  0  0  0  0
    0.2468    3.9058    1.1193 H   0  0  0  0  0  0  0  0  0  0  0  0
  5  6  2  0  0  0  0
  5  7  1  0  0  0  0
  2  3  1  0  0  0  0
  2  4  1  0  0  0  0
  2  5  1  0  0  0  0
  1  2  1  0  0  0  0
 22 23  2  0  0  0  0
 22 24  1  0  0  0  0
 19 20  1  0  0  0  0
 19 21  1  0  0  0  0
 17 18  2  0  0  0  0
 17 19  1  0  0  0  0
 14 15  1  0  0  0  0
 14 16  1  0  0  0  0
 14 17  1  0  0  0  0
 11 12  1  0  0  0  0
 11 13  1  0  0  0  0
 11 14  1  0  0  0  0
  9 10  1  0  0  0  0
  9 11  1  0  0  0  0
  9 22  1  0  0  0  0
  7  8  1  0  0  0  0
  7  9  1  0  0  0  0
 26 27  1  0  0  0  0
 26 28  1  0  0  0  0
 26 29  1  0  0  0  0
 24 25  1  0  0  0  0
 24 26  1  0  0  0  0
M  END
$$$$
default_name
  -OEChem-02102213163D

 29 28  0     1  0  0  0  0  0999 V2000
   -3.3998   -3.6239    1.3678 H   0  0  0  0  0  0  0  0  0  0  0  0
   -3.3608   -2.6749    0.8348 C   0  0  0  0  0  0  0  0  0  0  0  0
   -4.0988   -1.9909    1.2498 H   0  0  0  0  0  0  0  0  0  0  0  0
   -3.5618   -2.8419   -0.2222 H   0  0  0  0  0  0  0  0  0  0  0  0
   -1.9818   -2.0809    0.9918 C   0  0  0  0  0  0  0  0  0  0  0  0
   -1.1288   -2.6669    1.6468 O   0  0  0  0  0  0  0  0  0  0  0  0
   -1.7648   -0.9089    0.3998 N   0  0  0  0  0  0  0  0  0  0  0  0
   -2.5238   -0.4719   -0.1032 H   0  0  0  0  0  0  0  0  0  0  0  0
   -0.4848   -0.1959    0.4138 C   0  0  1  0  0  0  0  0  0  0  0  0
    0.1386   -0.6144    1.2058 H   0  0  0  0  0  0  0  0  0  0  0  0
    0.2271   -0.4272   -0.9334 C   0  0  0  0  0  0  0  0  0  0  0  0
    0.6284    0.5281   -1.2781 H   0  0  0  0  0  0  0  0  0  0  0  0
    1.0619   -1.1132   -0.7823 H   0  0  0  0  0  0  0  0  0  0  0  0
   -0.6891   -0.9931   -2.0324 C   0  0  0  0  0  0  0  0  0  0  0  0
   -1.6120   -1.3632   -1.5863 H   0  0  0  0  0  0  0  0  0  0  0  0
   -0.9362   -0.1952   -2.7325 H   0  0  0  0  0  0  0  0  0  0  0  0
   -0.0506   -2.1398   -2.8161 C   0  0  0  0  0  0  0  0  0  0  0  0
    1.0934   -2.5150   -2.6403 O   0  0  0  0  0  0  0  0  0  0  0  0
   -0.7760   -2.7589   -3.7221 N   0  0  0  0  0  0  0  0  0  0  0  0
   -0.3070   -3.5046   -4.2062 H   0  0  0  0  0  0  0  0  0  0  0  0
   -1.7223   -2.4926   -3.9047 H   0  0  0  0  0  0  0  0  0  0  0  0
   -0.7011    1.2952    0.7149 C   0  0  0  0  0  0  0  0  0  0  0  0
   -1.5917    1.9198    0.1415 O   0  0  0  0  0  0  0  0  0  0  0  0
    0.1191    1.8675    1.6055 N   0  0  0  0  0  0  0  0  0  0  0  0
    0.8092    1.2861    2.0537 H   0  0  0  0  0  0  0  0  0  0  0  0
    0.0509    3.2769    1.9894 C   0  0  0  0  0  0  0  0  0  0  0  0
   -0.9494    3.5076    2.3640 H   0  0  0  0  0  0  0  0  0  0  0  0
    0.7844    3.4956    2.7668 H   0  0  0  0  0  0  0  0  0  0  0  0
    0.2468    3.9058    1.1193 H   0  0  0  0  0  0  0  0  0  0  0  0
  5  6  2  0  0  0  0
  5  7  1  0  0  0  0
  2  3  1  0  0  0  0
  2  4  1  0  0  0  0
  2  5  1  0  0  0  0
  1  2  1  0  0  0  0
 22 23  2  0  0  0  0
 22 24  1  0  0  0  0
 19 20  1  0  0  0  0
 19 21  1  0  0  0  0
 17 18  2  0  0  0  0
 17 19  1  0  0  0  0
 14 15  1  0  0  0  0
 14 16  1  0  0  0  0
 14 17  1  0  0  0  0
 11 12  1  0  0  0  0
 11 13  1  0  0  0  0
 11 14  1  0  0  0  0
  9 10  1  0  0  0  0
  9 11  1  0  0  0  0
  9 22  1  0  0  0  0
  7  8  1  0  0  0  0
  7  9  1  0  0  0  0
 26 27  1  0  0  0  0
 26 28  1  0  0  0  0
 26 29  1  0  0  0  0
 24 25  1  0  0  0  0
 24 26  1  0  0  0  0
M  END
$$$$
default_name
  -OEChem-02102213163D

 29 28  0     1  0  0  0  0  0999 V2000
   -3.3998   -3.6239    1.3678 H   0  0  0  0  0  0  0  0  0  0  0  0
   -3.3608   -2.6749    0.8348 C   0  0  0  0  0  0  0  0  0  0  0  0
   -4.0988   -1.9909    1.2498 H   0  0  0  0  0  0  0  0  0  0  0  0
   -3.5618   -2.8419   -0.2222 H   0  0  0  0  0  0  0  0  0  0  0  0
   -1.9818   -2.0809    0.9918 C   0  0  0  0  0  0  0  0  0  0  0  0
   -1.1288   -2.6669    1.6468 O   0  0  0  0  0  0  0  0  0  0  0  0
   -1.7648   -0.9089    0.3998 N   0  0  0  0  0  0  0  0  0  0  0  0
   -2.5238   -0.4719   -0.1032 H   0  0  0  0  0  0  0  0  0  0  0  0
   -0.4848   -0.1959    0.4138 C   0  0  1  0  0  0  0  0  0  0  0  0
    0.1386   -0.6144    1.2058 H   0  0  0  0  0  0  0  0  0  0  0  0
    0.2271   -0.4272   -0.9334 C   0  0  0  0  0  0  0  0  0  0  0  0
    0.6284    0.5281   -1.2781 H   0  0  0  0  0  0  0  0  0  0  0  0
    1.0619   -1.1132   -0.7823 H   0  0  0  0  0  0  0  0  0  0  0  0
   -0.6891   -0.9931   -2.0324 C   0  0  0  0  0  0  0  0  0  0  0  0
   -1.6988   -1.1158   -1.6413 H   0  0  0  0  0  0  0  0  0  0  0  0
   -0.7208   -0.2890   -2.8638 H   0  0  0  0  0  0  0  0  0  0  0  0
   -0.2219   -2.3470   -2.5666 C   0  0  0  0  0  0  0  0  0  0  0  0
    0.8106   -2.8855   -2.2138 O   0  0  0  0  0  0  0  0  0  0  0  0
   -0.9773   -2.9669   -3.4471 N   0  0  0  0  0  0  0  0  0  0  0  0
   -0.6230   -3.8529   -3.7634 H   0  0  0  0  0  0  0  0  0  0  0  0
   -1.8369   -2.5704   -3.7691 H   0  0  0  0  0  0  0  0  0  0  0  0
   -0.7011    1.2952    0.7149 C   0  0  0  0  0  0  0  0  0  0  0  0
   -1.5917    1.9198    0.1415 O   0  0  0  0  0  0  0  0  0  0  0  0
    0.1191    1.8675    1.6055 N   0  0  0  0  0  0  0  0  0  0  0  0
    0.8092    1.2861    2.0537 H   0  0  0  0  0  0  0  0  0  0  0  0
    0.0509    3.2769    1.9894 C   0  0  0  0  0  0  0  0  0  0  0  0
   -0.9494    3.5076    2.3640 H   0  0  0  0  0  0  0  0  0  0  0  0
    0.7844    3.4956    2.7668 H   0  0  0  0  0  0  0  0  0  0  0  0
    0.2468    3.9058    1.1193 H   0  0  0  0  0  0  0  0  0  0  0  0
  5  6  2  0  0  0  0
  5  7  1  0  0  0  0
  2  3  1  0  0  0  0
  2  4  1  0  0  0  0
  2  5  1  0  0  0  0
  1  2  1  0  0  0  0
 22 23  2  0  0  0  0
 22 24  1  0  0  0  0
 19 20  1  0  0  0  0
 19 21  1  0  0  0  0
 17 18  2  0  0  0  0
 17 19  1  0  0  0  0
 14 15  1  0  0  0  0
 14 16  1  0  0  0  0
 14 17  1  0  0  0  0
 11 12  1  0  0  0  0
 11 13  1  0  0  0  0
 11 14  1  0  0  0  0
  9 10  1  0  0  0  0
  9 11  1  0  0  0  0
  9 22  1  0  0  0  0
  7  8  1  0  0  0  0
  7  9  1  0  0  0  0
 26 27  1  0  0  0  0
 26 28  1  0  0  0  0
 26 29  1  0  0  0  0
 24 25  1  0  0  0  0
 24 26  1  0  0  0  0
M  END
$$$$
default_name
  -OEChem-02102213163D

 29 28  0     1  0  0  0  0  0999 V2000
   -3.3998   -3.6239    1.3678 H   0  0  0  0  0  0  0  0  0  0  0  0
   -3.3608   -2.6749    0.8348 C   0  0  0  0  0  0  0  0  0  0  0  0
   -4.0988   -1.9909    1.2498 H   0  0  0  0  0  0  0  0  0  0  0  0
   -3.5618   -2.8419   -0.2222 H   0  0  0  0  0  0  0  0  0  0  0  0
   -1.9818   -2.0809    0.9918 C   0  0  0  0  0  0  0  0  0  0  0  0
   -1.1288   -2.6669    1.6468 O   0  0  0  0  0  0  0  0  0  0  0  0
   -1.7648   -0.9089    0.3998 N   0  0  0  0  0  0  0  0  0  0  0  0
   -2.5238   -0.4719   -0.1032 H   0  0  0  0  0  0  0  0  0  0  0  0
   -0.4848   -0.1959    0.4138 C   0  0  1  0  0  0  0  0  0  0  0  0
    0.1386   -0.6144    1.2058 H   0  0  0  0  0  0  0  0  0  0  0  0
    0.2271   -0.4272   -0.9334 C   0  0  0  0  0  0  0  0  0  0  0  0
    0.6284    0.5281   -1.2781 H   0  0  0  0  0  0  0  0  0  0  0  0
    1.0619   -1.1132   -0.7823 H   0  0  0  0  0  0  0  0  0  0  0  0
   -0.6891   -0.9931   -2.0324 C   0  0  0  0  0  0  0  0  0  0  0  0
   -1.7318   -0.8693   -1.7408 H   0  0  0  0  0  0  0  0  0  0  0  0
   -0.5176   -0.4397   -2.9556 H   0  0  0  0  0  0  0  0  0  0  0  0
   -0.4495   -2.4771   -2.3099 C   0  0  0  0  0  0  0  0  0  0  0  0
    0.4283   -3.1253   -1.7715 O   0  0  0  0  0  0  0  0  0  0  0  0
   -1.2364   -3.0883   -3.1686 N   0  0  0  0  0  0  0  0  0  0  0  0
   -1.0347   -4.0626   -3.3122 H   0  0  0  0  0  0  0  0  0  0  0  0
   -1.9748   -2.6035   -3.6370 H   0  0  0  0  0  0  0  0  0  0  0  0
   -0.7011    1.2952    0.7149 C   0  0  0  0  0  0  0  0  0  0  0  0
   -1.5917    1.9198    0.1415 O   0  0  0  0  0  0  0  0  0  0  0  0
    0.1191    1.8675    1.6055 N   0  0  0  0  0  0  0  0  0  0  0  0
    0.8092    1.2861    2.0537 H   0  0  0  0  0  0  0  0  0  0  0  0
    0.0509    3.2769    1.9894 C   0  0  0  0  0  0  0  0  0  0  0  0
   -0.9494    3.5076    2.3640 H   0  0  0  0  0  0  0  0  0  0  0  0
    0.7844    3.4956    2.7668 H   0  0  0  0  0  0  0  0  0  0  0  0
    0.2468    3.9058    1.1193 H   0  0  0  0  0  0  0  0  0  0  0  0
  5  6  2  0  0  0  0
  5  7  1  0  0  0  0
  2  3  1  0  0  0  0
  2  4  1  0  0  0  0
  2  5  1  0  0  0  0
  1  2  1  0  0  0  0
 22 23  2  0  0  0  0
 22 24  1  0  0  0  0
 19 20  1  0  0  0  0
 19 21  1  0  0  0  0
 17 18  2  0  0  0  0
 17 19  1  0  0  0  0
 14 15  1  0  0  0  0
 14 16  1  0  0  0  0
 14 17  1  0  0  0  0
 11 12  1  0  0  0  0
 11 13  1  0  0  0  0
 11 14  1  0  0  0  0
  9 10  1  0  0  0  0
  9 11  1  0  0  0  0
  9 22  1  0  0  0  0
  7  8  1  0  0  0  0
  7  9  1  0  0  0  0
 26 27  1  0  0  0  0
 26 28  1  0  0  0  0
 26 29  1  0  0  0  0
 24 25  1  0  0  0  0
 24 26  1  0  0  0  0
M  END
$$$$
default_name
  -OEChem-02102213163D

 29 28  0     1  0  0  0  0  0999 V2000
   -3.3998   -3.6239    1.3678 H   0  0  0  0  0  0  0  0  0  0  0  0
   -3.3608   -2.6749    0.8348 C   0  0  0  0  0  0  0  0  0  0  0  0
   -4.0988   -1.9909    1.2498 H   0  0  0  0  0  0  0  0  0  0  0  0
   -3.5618   -2.8419   -0.2222 H   0  0  0  0  0  0  0  0  0  0  0  0
   -1.9818   -2.0809    0.9918 C   0  0  0  0  0  0  0  0  0  0  0  0
   -1.1288   -2.6669    1.6468 O   0  0  0  0  0  0  0  0  0  0  0  0
   -1.7648   -0.9089    0.3998 N   0  0  0  0  0  0  0  0  0  0  0  0
   -2.5238   -0.4719   -0.1032 H   0  0  0  0  0  0  0  0  0  0  0  0
   -0.4848   -0.1959    0.4138 C   0  0  1  0  0  0  0  0  0  0  0  0
    0.1386   -0.6144    1.2058 H   0  0  0  0  0  0  0  0  0  0  0  0
    0.2271   -0.4272   -0.9334 C   0  0  0  0  0  0  0  0  0  0  0  0
    0.6284    0.5281   -1.2781 H   0  0  0  0  0  0  0  0  0  0  0  0
    1.0619   -1.1132   -0.7823 H   0  0  0  0  0  0  0  0  0  0  0  0
   -0.6891   -0.9931   -2.0324 C   0  0  0  0  0  0  0  0  0  0  0  0
   -1.7086   -0.6404   -1.8780 H   0  0  0  0  0  0  0  0  0  0  0  0
   -0.3404   -0.6370   -3.0017 H   0  0  0  0  0  0  0  0  0  0  0  0
   -0.7178   -2.5211   -2.0636 C   0  0  0  0  0  0  0  0  0  0  0  0
   -0.0274   -3.2182   -1.3438 O   0  0  0  0  0  0  0  0  0  0  0  0
   -1.5356   -3.1148   -2.9055 N   0  0  0  0  0  0  0  0  0  0  0  0
   -1.5141   -4.1195   -2.8831 H   0  0  0  0  0  0  0  0  0  0  0  0
   -2.1267   -2.5897   -3.5175 H   0  0  0  0  0  0  0  0  0  0  0  0
   -0.7011    1.2952    0.7149 C   0  0  0  0  0  0  0  0  0  0  0  0
   -1.5917    1.9198    0.1415 O   0  0  0  0  0  0  0  0  0  0  0  0
    0.1191    1.8675    1.6055 N   0  0  0  0  0  0  0  0  0  0  0  0
    0.8092    1.2861    2.0537 H   0  0  0  0  0  0  0  0  0  0  0  0
    0.0509    3.2769    1.9894 C   0  0  0  0  0  0  0  0  0  0  0  0
   -0.9494    3.5076    2.3640 H   0  0  0  0  0  0  0  0  0  0  0  0
    0.7844    3.4956    2.7668 H   0  0  0  0  0  0  0  0  0  0  0  0
    0.2468    3.9058    1.1193 H   0  0  0  0  0  0  0  0  0  0  0  0
  5  6  2  0  0  0  0
  5  7  1  0  0  0  0
  2  3  1  0  0  0  0
  2  4  1  0  0  0  0
  2  5  1  0  0  0  0
  1  2  1  0  0  0  0
 22 23  2  0  0  0  0
 22 24  1  0  0  0  0
 19 20  1  0  0  0  0
 19 21  1  0  0  0  0
 17 18  2  0  0  0  0
 17 19  1  0  0  0  0
 14 15  1  0  0  0  0
 14 16  1  0  0  0  0
 14 17  1  0  0  0  0
 11 12  1  0  0  0  0
 11 13  1  0  0  0  0
 11 14  1  0  0  0  0
  9 10  1  0  0  0  0
  9 11  1  0  0  0  0
  9 22  1  0  0  0  0
  7  8  1  0  0  0  0
  7  9  1  0  0  0  0
 26 27  1  0  0  0  0
 26 28  1  0  0  0  0
 26 29  1  0  0  0  0
 24 25  1  0  0  0  0
 24 26  1  0  0  0  0
M  END
$$$$
default_name
  -OEChem-02102213163D

 29 28  0     1  0  0  0  0  0999 V2000
   -3.3998   -3.6239    1.3678 H   0  0  0  0  0  0  0  0  0  0  0  0
   -3.3608   -2.6749    0.8348 C   0  0  0  0  0  0  0  0  0  0  0  0
   -4.0988   -1.9909    1.2498 H   0  0  0  0  0  0  0  0  0  0  0  0
   -3.5618   -2.8419   -0.2222 H   0  0  0  0  0  0  0  0  0  0  0  0
   -1.9818   -2.0809    0.9918 C   0  0  0  0  0  0  0  0  0  0  0  0
   -1.1288   -2.6669    1.6468 O   0  0  0  0  0  0  0  0  0  0  0  0
   -1.7648   -0.9089    0.3998 N   0  0  0  0  0  0  0  0  0  0  0  0
   -2.5238   -0.4719   -0.1032 H   0  0  0  0  0  0  0  0  0  0  0  0
   -0.4848   -0.1959    0.4138 C   0  0  1  0  0  0  0  0  0  0  0  0
    0.1386   -0.6144    1.2058 H   0  0  0  0  0  0  0  0  0  0  0  0
    0.2271   -0.4272   -0.9334 C   0  0  0  0  0  0  0  0  0  0  0  0
    0.6284    0.5281   -1.2781 H   0  0  0  0  0  0  0  0  0  0  0  0
    1.0619   -1.1132   -0.7823 H   0  0  0  0  0  0  0  0  0  0  0  0
   -0.6891   -0.9931   -2.0324 C   0  0  0  0  0  0  0  0  0  0  0  0
   -1.6308   -0.4448   -2.0436 H   0  0  0  0  0  0  0  0  0  0  0  0
   -0.2014   -0.8674   -2.9990 H   0  0  0  0  0  0  0  0  0  0  0  0
   -1.0085   -2.4761   -1.8444 C   0  0  0  0  0  0  0  0  0  0  0  0
   -0.5254   -3.1577   -0.9597 O   0  0  0  0  0  0  0  0  0  0  0  0
   -1.8546   -3.0445   -2.6758 N   0  0  0  0  0  0  0  0  0  0  0  0
   -2.0286   -4.0198   -2.5056 H   0  0  0  0  0  0  0  0  0  0  0  0
   -2.2823   -2.5298   -3.4187 H   0  0  0  0  0  0  0  0  0  0  0  0
   -0.7011    1.2952    0.7149 C   0  0  0  0  0  0  0  0  0  0  0  0
   -1.5917    1.9198    0.1415 O   0  0  0  0  0  0  0  0  0  0  0  0
    0.1191    1.8675    1.6055 N   0  0  0  0  0  0  0  0  0  0  0  0
    0.8092    1.2861    2.0537 H   0  0  0  0  0  0  0  0  0  0  0  0
    0.0509    3.2769    1.9894 C   0  0  0  0  0  0  0  0  0  0  0  0
   -0.9494    3.5076    2.3640 H   0  0  0  0  0  0  0  0  0  0  0  0
    0.7844    3.4956    2.7668 H   0  0  0  0  0  0  0  0  0  0  0  0
    0.2468    3.9058    1.1193 H   0  0  0  0  0  0  0  0  0  0  0  0
  5  6  2  0  0  0  0
  5  7  1  0  0  0  0
  2  3  1  0  0  0  0
  2  4  1  0  0  0  0
  2  5  1  0  0  0  0
  1  2  1  0  0  0  0
 22 23  2  0  0  0  0
 22 24  1  0  0  0  0
 19 20  1  0  0  0  0
 19 21  1  0  0  0  0
 17 18  2  0  0  0  0
 17 19  1  0  0  0  0
 14 15  1  0  0  0  0
 14 16  1  0  0  0  0
 14 17  1  0  0  0  0
 11 12  1  0  0  0  0
 11 13  1  0  0  0  0
 11 14  1  0  0  0  0
  9 10  1  0  0  0  0
  9 11  1  0  0  0  0
  9 22  1  0  0  0  0
  7  8  1  0  0  0  0
  7  9  1  0  0  0  0
 26 27  1  0  0  0  0
 26 28  1  0  0  0  0
 26 29  1  0  0  0  0
 24 25  1  0  0  0  0
 24 26  1  0  0  0  0
M  END
$$$$
default_name
  -OEChem-02102213163D

 29 28  0     1  0  0  0  0  0999 V2000
   -3.3998   -3.6239    1.3678 H   0  0  0  0  0  0  0  0  0  0  0  0
   -3.3608   -2.6749    0.8348 C   0  0  0  0  0  0  0  0  0  0  0  0
   -4.0988   -1.9909    1.2498 H   0  0  0  0  0  0  0  0  0  0  0  0
   -3.5618   -2.8419   -0.2222 H   0  0  0  0  0  0  0  0  0  0  0  0
   -1.9818   -2.0809    0.9918 C   0  0  0  0  0  0  0  0  0  0  0  0
   -1.1288   -2.6669    1.6468 O   0  0  0  0  0  0  0  0  0  0  0  0
   -1.7648   -0.9089    0.3998 N   0  0  0  0  0  0  0  0  0  0  0  0
   -2.5238   -0.4719   -0.1032 H   0  0  0  0  0  0  0  0  0  0  0  0
   -0.4848   -0.1959    0.4138 C   0  0  1  0  0  0  0  0  0  0  0  0
    0.1386   -0.6144    1.2058 H   0  0  0  0  0  0  0  0  0  0  0  0
    0.2271   -0.4272   -0.9334 C   0  0  0  0  0  0  0  0  0  0  0  0
    0.6284    0.5281   -1.2781 H   0  0  0  0  0  0  0  0  0  0  0  0
    1.0619   -1.1132   -0.7823 H   0  0  0  0  0  0  0  0  0  0  0  0
   -0.6891   -0.9931   -2.0324 C   0  0  0  0  0  0  0  0  0  0  0  0
   -1.5037   -0.2957   -2.2263 H   0  0  0  0  0  0  0  0  0  0  0  0
   -0.1099   -1.1152   -2.9476 H   0  0  0  0  0  0  0  0  0  0  0  0
   -1.3018   -2.3451   -1.6673 C   0  0  0  0  0  0  0  0  0  0  0  0
   -1.0319   -2.9481   -0.6455 O   0  0  0  0  0  0  0  0  0  0  0  0
   -2.1715   -2.8822   -2.4952 N   0  0  0  0  0  0  0  0  0  0  0  0
   -2.5431   -3.7701   -2.2053 H   0  0  0  0  0  0  0  0  0  0  0  0
   -2.4309   -2.4279   -3.3473 H   0  0  0  0  0  0  0  0  0  0  0  0
   -0.7011    1.2952    0.7149 C   0  0  0  0  0  0  0  0  0  0  0  0
   -1.5917    1.9198    0.1415 O   0  0  0  0  0  0  0  0  0  0  0  0
    0.1191    1.8675    1.6055 N   0  0  0  0  0  0  0  0  0  0  0  0
    0.8092    1.2861    2.0537 H   0  0  0  0  0  0  0  0  0  0  0  0
    0.0509    3.2769    1.9894 C   0  0  0  0  0  0  0  0  0  0  0  0
   -0.9494    3.5076    2.3640 H   0  0  0  0  0  0  0  0  0  0  0  0
    0.7844    3.4956    2.7668 H   0  0  0  0  0  0  0  0  0  0  0  0
    0.2468    3.9058    1.1193 H   0  0  0  0  0  0  0  0  0  0  0  0
  5  6  2  0  0  0  0
  5  7  1  0  0  0  0
  2  3  1  0  0  0  0
  2  4  1  0  0  0  0
  2  5  1  0  0  0  0
  1  2  1  0  0  0  0
 22 23  2  0  0  0  0
 22 24  1  0  0  0  0
 19 20  1  0  0  0  0
 19 21  1  0  0  0  0
 17 18  2  0  0  0  0
 17 19  1  0  0  0  0
 14 15  1  0  0  0  0
 14 16  1  0  0  0  0
 14 17  1  0  0  0  0
 11 12  1  0  0  0  0
 11 13  1  0  0  0  0
 11 14  1  0  0  0  0
  9 10  1  0  0  0  0
  9 11  1  0  0  0  0
  9 22  1  0  0  0  0
  7  8  1  0  0  0  0
  7  9  1  0  0  0  0
 26 27  1  0  0  0  0
 26 28  1  0  0  0  0
 26 29  1  0  0  0  0
 24 25  1  0  0  0  0
 24 26  1  0  0  0  0
M  END
$$$$
default_name
  -OEChem-02102213163D

 29 28  0     1  0  0  0  0  0999 V2000
   -3.3998   -3.6239    1.3678 H   0  0  0  0  0  0  0  0  0  0  0  0
   -3.3608   -2.6749    0.8348 C   0  0  0  0  0  0  0  0  0  0  0  0
   -4.0988   -1.9909    1.2498 H   0  0  0  0  0  0  0  0  0  0  0  0
   -3.5618   -2.8419   -0.2222 H   0  0  0  0  0  0  0  0  0  0  0  0
   -1.9818   -2.0809    0.9918 C   0  0  0  0  0  0  0  0  0  0  0  0
   -1.1288   -2.6669    1.6468 O   0  0  0  0  0  0  0  0  0  0  0  0
   -1.7648   -0.9089    0.3998 N   0  0  0  0  0  0  0  0  0  0  0  0
   -2.5238   -0.4719   -0.1032 H   0  0  0  0  0  0  0  0  0  0  0  0
   -0.4848   -0.1959    0.4138 C   0  0  1  0  0  0  0  0  0  0  0  0
    0.1386   -0.6144    1.2058 H   0  0  0  0  0  0  0  0  0  0  0  0
    0.2271   -0.4272   -0.9334 C   0  0  0  0  0  0  0  0  0  0  0  0
    0.6284    0.5281   -1.2781 H   0  0  0  0  0  0  0  0  0  0  0  0
    1.0619   -1.1132   -0.7823 H   0  0  0  0  0  0  0  0  0  0  0  0
   -0.6891   -0.9931   -2.0324 C   0  0  0  0  0  0  0  0  0  0  0  0
   -1.3360   -0.2034   -2.4137 H   0  0  0  0  0  0  0  0  0  0  0  0
   -0.0722   -1.3636   -2.8511 H   0  0  0  0  0  0  0  0  0  0  0  0
   -1.5779   -2.1370   -1.5443 C   0  0  0  0  0  0  0  0  0  0  0  0
   -1.5123   -2.6035   -0.4224 O   0  0  0  0  0  0  0  0  0  0  0  0
   -2.4649   -2.6390   -2.3759 N   0  0  0  0  0  0  0  0  0  0  0  0
   -3.0224   -3.3876   -2.0027 H   0  0  0  0  0  0  0  0  0  0  0  0
   -2.5624   -2.2910   -3.3081 H   0  0  0  0  0  0  0  0  0  0  0  0
   -0.7011    1.2952    0.7149 C   0  0  0  0  0  0  0  0  0  0  0  0
   -1.5917    1.9198    0.1415 O   0  0  0  0  0  0  0  0  0  0  0  0
    0.1191    1.8675    1.6055 N   0  0  0  0  0  0  0  0  0  0  0  0
    0.8092    1.2861    2.0537 H   0  0  0  0  0  0  0  0  0  0  0  0
    0.0509    3.2769    1.9894 C   0  0  0  0  0  0  0  0  0  0  0  0
   -0.9494    3.5076    2.3640 H   0  0  0  0  0  0  0  0  0  0  0  0
    0.7844    3.4956    2.7668 H   0  0  0  0  0  0  0  0  0  0  0  0
    0.2468    3.9058    1.1193 H   0  0  0  0  0  0  0  0  0  0  0  0
  5  6  2  0  0  0  0
  5  7  1  0  0  0  0
  2  3  1  0  0  0  0
  2  4  1  0  0  0  0
  2  5  1  0  0  0  0
  1  2  1  0  0  0  0
 22 23  2  0  0  0  0
 22 24  1  0  0  0  0
 19 20  1  0  0  0  0
 19 21  1  0  0  0  0
 17 18  2  0  0  0  0
 17 19  1  0  0  0  0
 14 15  1  0  0  0  0
 14 16  1  0  0  0  0
 14 17  1  0  0  0  0
 11 12  1  0  0  0  0
 11 13  1  0  0  0  0
 11 14  1  0  0  0  0
  9 10  1  0  0  0  0
  9 11  1  0  0  0  0
  9 22  1  0  0  0  0
  7  8  1  0  0  0  0
  7  9  1  0  0  0  0
 26 27  1  0  0  0  0
 26 28  1  0  0  0  0
 26 29  1  0  0  0  0
 24 25  1  0  0  0  0
 24 26  1  0  0  0  0
M  END
$$$$
default_name
  -OEChem-02102213163D

 29 28  0     1  0  0  0  0  0999 V2000
   -3.3998   -3.6239    1.3678 H   0  0  0  0  0  0  0  0  0  0  0  0
   -3.3608   -2.6749    0.8348 C   0  0  0  0  0  0  0  0  0  0  0  0
   -4.0988   -1.9909    1.2498 H   0  0  0  0  0  0  0  0  0  0  0  0
   -3.5618   -2.8419   -0.2222 H   0  0  0  0  0  0  0  0  0  0  0  0
   -1.9818   -2.0809    0.9918 C   0  0  0  0  0  0  0  0  0  0  0  0
   -1.1288   -2.6669    1.6468 O   0  0  0  0  0  0  0  0  0  0  0  0
   -1.7648   -0.9089    0.3998 N   0  0  0  0  0  0  0  0  0  0  0  0
   -2.5238   -0.4719   -0.1032 H   0  0  0  0  0  0  0  0  0  0  0  0
   -0.4848   -0.1959    0.4138 C   0  0  1  0  0  0  0  0  0  0  0  0
    0.1386   -0.6144    1.2058 H   0  0  0  0  0  0  0  0  0  0  0  0
    0.2271   -0.4272   -0.9334 C   0  0  0  0  0  0  0  0  0  0  0  0
    0.6284    0.5281   -1.2781 H   0  0  0  0  0  0  0  0  0  0  0  0
    1.0619   -1.1132   -0.7823 H   0  0  0  0  0  0  0  0  0  0  0  0
   -0.6891   -0.9931   -2.0324 C   0  0  0  0  0  0  0  0  0  0  0  0
   -1.1391   -0.1741   -2.5929 H   0  0  0  0  0  0  0  0  0  0  0  0
   -0.0910   -1.5956   -2.7160 H   0  0  0  0  0  0  0  0  0  0  0  0
   -1.8177   -1.8661   -1.4839 C   0  0  0  0  0  0  0  0  0  0  0  0
   -1.9338   -2.1475   -0.3059 O   0  0  0  0  0  0  0  0  0  0  0  0
   -2.7147   -2.3315   -2.3260 N   0  0  0  0  0  0  0  0  0  0  0  0
   -3.4340   -2.8983   -1.9115 H   0  0  0  0  0  0  0  0  0  0  0  0
   -2.6679   -2.1285   -3.3039 H   0  0  0  0  0  0  0  0  0  0  0  0
   -0.7011    1.2952    0.7149 C   0  0  0  0  0  0  0  0  0  0  0  0
   -1.5917    1.9198    0.1415 O   0  0  0  0  0  0  0  0  0  0  0  0
    0.1191    1.8675    1.6055 N   0  0  0  0  0  0  0  0  0  0  0  0
    0.8092    1.2861    2.0537 H   0  0  0  0  0  0  0  0  0  0  0  0
    0.0509    3.2769    1.9894 C   0  0  0  0  0  0  0  0  0  0  0  0
   -0.9494    3.5076    2.3640 H   0  0  0  0  0  0  0  0  0  0  0  0
    0.7844    3.4956    2.7668 H   0  0  0  0  0  0  0  0  0  0  0  0
    0.2468    3.9058    1.1193 H   0  0  0  0  0  0  0  0  0  0  0  0
  5  6  2  0  0  0  0
  5  7  1  0  0  0  0
  2  3  1  0  0  0  0
  2  4  1  0  0  0  0
  2  5  1  0  0  0  0
  1  2  1  0  0  0  0
 22 23  2  0  0  0  0
 22 24  1  0  0  0  0
 19 20  1  0  0  0  0
 19 21  1  0  0  0  0
 17 18  2  0  0  0  0
 17 19  1  0  0  0  0
 14 15  1  0  0  0  0
 14 16  1  0  0  0  0
 14 17  1  0  0  0  0
 11 12  1  0  0  0  0
 11 13  1  0  0  0  0
 11 14  1  0  0  0  0
  9 10  1  0  0  0  0
  9 11  1  0  0  0  0
  9 22  1  0  0  0  0
  7  8  1  0  0  0  0
  7  9  1  0  0  0  0
 26 27  1  0  0  0  0
 26 28  1  0  0  0  0
 26 29  1  0  0  0  0
 24 25  1  0  0  0  0
 24 26  1  0  0  0  0
M  END
$$$$
default_name
  -OEChem-02102213163D

 29 28  0     1  0  0  0  0  0999 V2000
   -3.3998   -3.6239    1.3678 H   0  0  0  0  0  0  0  0  0  0  0  0
   -3.3608   -2.6749    0.8348 C   0  0  0  0  0  0  0  0  0  0  0  0
   -4.0988   -1.9909    1.2498 H   0  0  0  0  0  0  0  0  0  0  0  0
   -3.5618   -2.8419   -0.2222 H   0  0  0  0  0  0  0  0  0  0  0  0
   -1.9818   -2.0809    0.9918 C   0  0  0  0  0  0  0  0  0  0  0  0
   -1.1288   -2.6669    1.6468 O   0  0  0  0  0  0  0  0  0  0  0  0
   -1.7648   -0.9089    0.3998 N   0  0  0  0  0  0  0  0  0  0  0  0
   -2.5238   -0.4719   -0.1032 H   0  0  0  0  0  0  0  0  0  0  0  0
   -0.4848   -0.1959    0.4138 C   0  0  1  0  0  0  0  0  0  0  0  0
    0.1386   -0.6144    1.2058 H   0  0  0  0  0  0  0  0  0  0  0  0
    0.2271   -0.4272   -0.9334 C   0  0  0  0  0  0  0  0  0  0  0  0
    0.6284    0.5281   -1.2781 H   0  0  0  0  0  0  0  0  0  0  0  0
    1.0619   -1.1132   -0.7823 H   0  0  0  0  0  0  0  0  0  0  0  0
   -0.6891   -0.9931   -2.0324 C   0  0  0  0  0  0  0  0  0  0  0  0
   -0.9265   -0.2098   -2.7518 H   0  0  0  0  0  0  0  0  0  0  0  0
   -0.1648   -1.7954   -2.5515 H   0  0  0  0  0  0  0  0  0  0  0  0
   -2.0050   -1.5507   -1.4902 C   0  0  0  0  0  0  0  0  0  0  0  0
   -2.2678   -1.6111   -0.3036 O   0  0  0  0  0  0  0  0  0  0  0  0
   -2.9038   -1.9806   -2.3490 N   0  0  0  0  0  0  0  0  0  0  0  0
   -3.7498   -2.3355   -1.9381 H   0  0  0  0  0  0  0  0  0  0  0  0
   -2.7401   -1.9513   -3.3349 H   0  0  0  0  0  0  0  0  0  0  0  0
   -0.7011    1.2952    0.7149 C   0  0  0  0  0  0  0  0  0  0  0  0
   -1.5917    1.9198    0.1415 O   0  0  0  0  0  0  0  0  0  0  0  0
    0.1191    1.8675    1.6055 N   0  0  0  0  0  0  0  0  0  0  0  0
    0.8092    1.2861    2.0537 H   0  0  0  0  0  0  0  0  0  0  0  0
    0.0509    3.2769    1.9894 C   0  0  0  0  0  0  0  0  0  0  0  0
   -0.9494    3.5076    2.3640 H   0  0  0  0  0  0  0  0  0  0  0  0
    0.7844    3.4956    2.7668 H   0  0  0  0  0  0  0  0  0  0  0  0
    0.2468    3.9058    1.1193 H   0  0  0  0  0  0  0  0  0  0  0  0
  5  6  2  0  0  0  0
  5  7  1  0  0  0  0
  2  3  1  0  0  0  0
  2  4  1  0  0  0  0
  2  5  1  0  0  0  0
  1  2  1  0  0  0  0
 22 23  2  0  0  0  0
 22 24  1  0  0  0  0
 19 20  1  0  0  0  0
 19 21  1  0  0  0  0
 17 18  2  0  0  0  0
 17 19  1  0  0  0  0
 14 15  1  0  0  0  0
 14 16  1  0  0  0  0
 14 17  1  0  0  0  0
 11 12  1  0  0  0  0
 11 13  1  0  0  0  0
 11 14  1  0  0  0  0
  9 10  1  0  0  0  0
  9 11  1  0  0  0  0
  9 22  1  0  0  0  0
  7  8  1  0  0  0  0
  7  9  1  0  0  0  0
 26 27  1  0  0  0  0
 26 28  1  0  0  0  0
 26 29  1  0  0  0  0
 24 25  1  0  0  0  0
 24 26  1  0  0  0  0
M  END
$$$$
default_name
  -OEChem-02102213163D

 29 28  0     1  0  0  0  0  0999 V2000
   -3.3998   -3.6239    1.3678 H   0  0  0  0  0  0  0  0  0  0  0  0
   -3.3608   -2.6749    0.8348 C   0  0  0  0  0  0  0  0  0  0  0  0
   -4.0988   -1.9909    1.2498 H   0  0  0  0  0  0  0  0  0  0  0  0
   -3.5618   -2.8419   -0.2222 H   0  0  0  0  0  0  0  0  0  0  0  0
   -1.9818   -2.0809    0.9918 C   0  0  0  0  0  0  0  0  0  0  0  0
   -1.1288   -2.6669    1.6468 O   0  0  0  0  0  0  0  0  0  0  0  0
   -1.7648   -0.9089    0.3998 N   0  0  0  0  0  0  0  0  0  0  0  0
   -2.5238   -0.4719   -0.1032 H   0  0  0  0  0  0  0  0  0  0  0  0
   -0.4848   -0.1959    0.4138 C   0  0  1  0  0  0  0  0  0  0  0  0
    0.1386   -0.6144    1.2058 H   0  0  0  0  0  0  0  0  0  0  0  0
    0.2271   -0.4272   -0.9334 C   0  0  0  0  0  0  0  0  0  0  0  0
    0.6284    0.5281   -1.2781 H   0  0  0  0  0  0  0  0  0  0  0  0
    1.0619   -1.1132   -0.7823 H   0  0  0  0  0  0  0  0  0  0  0  0
   -0.6891   -0.9931   -2.0324 C   0  0  0  0  0  0  0  0  0  0  0  0
   -0.7125   -0.3080   -2.8796 H   0  0  0  0  0  0  0  0  0  0  0  0
   -0.2888   -1.9494   -2.3689 H   0  0  0  0  0  0  0  0  0  0  0  0
   -2.1271   -1.2124   -1.5626 C   0  0  0  0  0  0  0  0  0  0  0  0
   -2.4915   -1.0309   -0.4160 O   0  0  0  0  0  0  0  0  0  0  0  0
   -3.0195   -1.6102   -2.4433 N   0  0  0  0  0  0  0  0  0  0  0  0
   -3.9483   -1.7376   -2.0806 H   0  0  0  0  0  0  0  0  0  0  0  0
   -2.7741   -1.7717   -3.3991 H   0  0  0  0  0  0  0  0  0  0  0  0
   -0.7011    1.2952    0.7149 C   0  0  0  0  0  0  0  0  0  0  0  0
   -1.5917    1.9198    0.1415 O   0  0  0  0  0  0  0  0  0  0  0  0
    0.1191    1.8675    1.6055 N   0  0  0  0  0  0  0  0  0  0  0  0
    0.8092    1.2861    2.0537 H   0  0  0  0  0  0  0  0  0  0  0  0
    0.0509    3.2769    1.9894 C   0  0  0  0  0  0  0  0  0  0  0  0
   -0.9494    3.5076    2.3640 H   0  0  0  0  0  0  0  0  0  0  0  0
    0.7844    3.4956    2.7668 H   0  0  0  0  0  0  0  0  0  0  0  0
    0.2468    3.9058    1.1193 H   0  0  0  0  0  0  0  0  0  0  0  0
  5  6  2  0  0  0  0
  5  7  1  0  0  0  0
  2  3  1  0  0  0  0
  2  4  1  0  0  0  0
  2  5  1  0  0  0  0
  1  2  1  0  0  0  0
 22 23  2  0  0  0  0
 22 24  1  0  0  0  0
 19 20  1  0  0  0  0
 19 21  1  0  0  0  0
 17 18  2  0  0  0  0
 17 19  1  0  0  0  0
 14 15  1  0  0  0  0
 14 16  1  0  0  0  0
 14 17  1  0  0  0  0
 11 12  1  0  0  0  0
 11 13  1  0  0  0  0
 11 14  1  0  0  0  0
  9 10  1  0  0  0  0
  9 11  1  0  0  0  0
  9 22  1  0  0  0  0
  7  8  1  0  0  0  0
  7  9  1  0  0  0  0
 26 27  1  0  0  0  0
 26 28  1  0  0  0  0
 26 29  1  0  0  0  0
 24 25  1  0  0  0  0
 24 26  1  0  0  0  0
M  END
$$$$
default_name
  -OEChem-02102213163D

 29 28  0     1  0  0  0  0  0999 V2000
   -3.3998   -3.6239    1.3678 H   0  0  0  0  0  0  0  0  0  0  0  0
   -3.3608   -2.6749    0.8348 C   0  0  0  0  0  0  0  0  0  0  0  0
   -4.0988   -1.9909    1.2498 H   0  0  0  0  0  0  0  0  0  0  0  0
   -3.5618   -2.8419   -0.2222 H   0  0  0  0  0  0  0  0  0  0  0  0
   -1.9818   -2.0809    0.9918 C   0  0  0  0  0  0  0  0  0  0  0  0
   -1.1288   -2.6669    1.6468 O   0  0  0  0  0  0  0  0  0  0  0  0
   -1.7648   -0.9089    0.3998 N   0  0  0  0  0  0  0  0  0  0  0  0
   -2.5238   -0.4719   -0.1032 H   0  0  0  0  0  0  0  0  0  0  0  0
   -0.4848   -0.1959    0.4138 C   0  0  1  0  0  0  0  0  0  0  0  0
    0.1386   -0.6144    1.2058 H   0  0  0  0  0  0  0  0  0  0  0  0
    0.2271   -0.4272   -0.9334 C   0  0  0  0  0  0  0  0  0  0  0  0
    0.6284    0.5281   -1.2781 H   0  0  0  0  0  0  0  0  0  0  0  0
    1.0619   -1.1132   -0.7823 H   0  0  0  0  0  0  0  0  0  0  0  0
   -0.6891   -0.9931   -2.0324 C   0  0  0  0  0  0  0  0  0  0  0  0
   -0.5119   -0.4622   -2.9675 H   0  0  0  0  0  0  0  0  0  0  0  0
   -0.4543   -2.0472   -2.1805 H   0  0  0  0  0  0  0  0  0  0  0  0
   -2.1755   -0.8742   -1.6964 C   0  0  0  0  0  0  0  0  0  0  0  0
   -2.5896   -0.4465   -0.6352 O   0  0  0  0  0  0  0  0  0  0  0  0
   -3.0537   -1.2457   -2.6025 N   0  0  0  0  0  0  0  0  0  0  0  0
   -4.0159   -1.1454   -2.3292 H   0  0  0  0  0  0  0  0  0  0  0  0
   -2.7677   -1.6017   -3.4920 H   0  0  0  0  0  0  0  0  0  0  0  0
   -0.7011    1.2952    0.7149 C   0  0  0  0  0  0  0  0  0  0  0  0
   -1.5917    1.9198    0.1415 O   0  0  0  0  0  0  0  0  0  0  0  0
    0.1191    1.8675    1.6055 N   0  0  0  0  0  0  0  0  0  0  0  0
    0.8092    1.2861    2.0537 H   0  0  0  0  0  0  0  0  0  0  0  0
    0.0509    3.2769    1.9894 C   0  0  0  0  0  0  0  0  0  0  0  0
   -0.9494    3.5076    2.3640 H   0  0  0  0  0  0  0  0  0  0  0  0
    0.7844    3.4956    2.7668 H   0  0  0  0  0  0  0  0  0  0  0  0
    0.2468    3.9058    1.1193 H   0  0  0  0  0  0  0  0  0  0  0  0
  5  6  2  0  0  0  0
  5  7  1  0  0  0  0
  2  3  1  0  0  0  0
  2  4  1  0  0  0  0
  2  5  1  0  0  0  0
  1  2  1  0  0  0  0
 22 23  2  0  0  0  0
 22 24  1  0  0  0  0
 19 20  1  0  0  0  0
 19 21  1  0  0  0  0
 17 18  2  0  0  0  0
 17 19  1  0  0  0  0
 14 15  1  0  0  0  0
 14 16  1  0  0  0  0
 14 17  1  0  0  0  0
 11 12  1  0  0  0  0
 11 13  1  0  0  0  0
 11 14  1  0  0  0  0
  9 10  1  0  0  0  0
  9 11  1  0  0  0  0
  9 22  1  0  0  0  0
  7  8  1  0  0  0  0
  7  9  1  0  0  0  0
 26 27  1  0  0  0  0
 26 28  1  0  0  0  0
 26 29  1  0  0  0  0
 24 25  1  0  0  0  0
 24 26  1  0  0  0  0
M  END
$$$$
default_name
  -OEChem-02102213163D

 29 28  0     1  0  0  0  0  0999 V2000
   -3.3998   -3.6239    1.3678 H   0  0  0  0  0  0  0  0  0  0  0  0
   -3.3608   -2.6749    0.8348 C   0  0  0  0  0  0  0  0  0  0  0  0
   -4.0988   -1.9909    1.2498 H   0  0  0  0  0  0  0  0  0  0  0  0
   -3.5618   -2.8419   -0.2222 H   0  0  0  0  0  0  0  0  0  0  0  0
   -1.9818   -2.0809    0.9918 C   0  0  0  0  0  0  0  0  0  0  0  0
   -1.1288   -2.6669    1.6468 O   0  0  0  0  0  0  0  0  0  0  0  0
   -1.7648   -0.9089    0.3998 N   0  0  0  0  0  0  0  0  0  0  0  0
   -2.5238   -0.4719   -0.1032 H   0  0  0  0  0  0  0  0  0  0  0  0
   -0.4848   -0.1959    0.4138 C   0  0  1  0  0  0  0  0  0  0  0  0
    0.1386   -0.6144    1.2058 H   0  0  0  0  0  0  0  0  0  0  0  0
    0.2271   -0.4272   -0.9334 C   0  0  0  0  0  0  0  0  0  0  0  0
    0.6284    0.5281   -1.2781 H   0  0  0  0  0  0  0  0  0  0  0  0
    1.0619   -1.1132   -0.7823 H   0  0  0  0  0  0  0  0  0  0  0  0
   -0.6891   -0.9931   -2.0324 C   0  0  0  0  0  0  0  0  0  0  0  0
   -0.3382   -0.6618   -3.0095 H   0  0  0  0  0  0  0  0  0  0  0  0
   -0.6502   -2.0819   -1.9993 H   0  0  0  0  0  0  0  0  0  0  0  0
   -2.1471   -0.5593   -1.8823 C   0  0  0  0  0  0  0  0  0  0  0  0
   -2.5554    0.1024   -0.9463 O   0  0  0  0  0  0  0  0  0  0  0  0
   -3.0043   -0.9117   -2.8157 N   0  0  0  0  0  0  0  0  0  0  0  0
   -3.9480   -0.5991   -2.6671 H   0  0  0  0  0  0  0  0  0  0  0  0
   -2.7212   -1.4530   -3.6073 H   0  0  0  0  0  0  0  0  0  0  0  0
   -0.7011    1.2952    0.7149 C   0  0  0  0  0  0  0  0  0  0  0  0
   -1.5917    1.9198    0.1415 O   0  0  0  0  0  0  0  0  0  0  0  0
    0.1191    1.8675    1.6055 N   0  0  0  0  0  0  0  0  0  0  0  0
    0.8092    1.2861    2.0537 H   0  0  0  0  0  0  0  0  0  0  0  0
    0.0509    3.2769    1.9894 C   0  0  0  0  0  0  0  0  0  0  0  0
   -0.9494    3.5076    2.3640 H   0  0  0  0  0  0  0  0  0  0  0  0
    0.7844    3.4956    2.7668 H   0  0  0  0  0  0  0  0  0  0  0  0
    0.2468    3.9058    1.1193 H   0  0  0  0  0  0  0  0  0  0  0  0
  5  6  2  0  0  0  0
  5  7  1  0  0  0  0
  2  3  1  0  0  0  0
  2  4  1  0  0  0  0
  2  5  1  0  0  0  0
  1  2  1  0  0  0  0
 22 23  2  0  0  0  0
 22 24  1  0  0  0  0
 19 20  1  0  0  0  0
 19 21  1  0  0  0  0
 17 18  2  0  0  0  0
 17 19  1  0  0  0  0
 14 15  1  0  0  0  0
 14 16  1  0  0  0  0
 14 17  1  0  0  0  0
 11 12  1  0  0  0  0
 11 13  1  0  0  0  0
 11 14  1  0  0  0  0
  9 10  1  0  0  0  0
  9 11  1  0  0  0  0
  9 22  1  0  0  0  0
  7  8  1  0  0  0  0
  7  9  1  0  0  0  0
 26 27  1  0  0  0  0
 26 28  1  0  0  0  0
 26 29  1  0  0  0  0
 24 25  1  0  0  0  0
 24 26  1  0  0  0  0
M  END
$$$$
default_name
  -OEChem-02102213163D

 29 28  0     1  0  0  0  0  0999 V2000
   -3.3998   -3.6239    1.3678 H   0  0  0  0  0  0  0  0  0  0  0  0
   -3.3608   -2.6749    0.8348 C   0  0  0  0  0  0  0  0  0  0  0  0
   -4.0988   -1.9909    1.2498 H   0  0  0  0  0  0  0  0  0  0  0  0
   -3.5618   -2.8419   -0.2222 H   0  0  0  0  0  0  0  0  0  0  0  0
   -1.9818   -2.0809    0.9918 C   0  0  0  0  0  0  0  0  0  0  0  0
   -1.1288   -2.6669    1.6468 O   0  0  0  0  0  0  0  0  0  0  0  0
   -1.7648   -0.9089    0.3998 N   0  0  0  0  0  0  0  0  0  0  0  0
   -2.5238   -0.4719   -0.1032 H   0  0  0  0  0  0  0  0  0  0  0  0
   -0.4848   -0.1959    0.4138 C   0  0  1  0  0  0  0  0  0  0  0  0
    0.1386   -0.6144    1.2058 H   0  0  0  0  0  0  0  0  0  0  0  0
    0.2271   -0.4272   -0.9334 C   0  0  0  0  0  0  0  0  0  0  0  0
    0.6284    0.5281   -1.2781 H   0  0  0  0  0  0  0  0  0  0  0  0
    1.0619   -1.1132   -0.7823 H   0  0  0  0  0  0  0  0  0  0  0  0
   -0.6891   -0.9931   -2.0324 C   0  0  0  0  0  0  0  0  0  0  0  0
   -0.2033   -0.8931   -3.0028 H   0  0  0  0  0  0  0  0  0  0  0  0
   -0.8632   -2.0513   -1.8376 H   0  0  0  0  0  0  0  0  0  0  0  0
   -2.0437   -0.2889   -2.1077 C   0  0  0  0  0  0  0  0  0  0  0  0
   -2.3913    0.5783   -1.3282 O   0  0  0  0  0  0  0  0  0  0  0  0
   -2.8745   -0.6311   -3.0684 N   0  0  0  0  0  0  0  0  0  0  0  0
   -3.7493   -0.1361   -3.0711 H   0  0  0  0  0  0  0  0  0  0  0  0
   -2.6379   -1.3358   -3.7372 H   0  0  0  0  0  0  0  0  0  0  0  0
   -0.7011    1.2952    0.7149 C   0  0  0  0  0  0  0  0  0  0  0  0
   -1.5917    1.9198    0.1415 O   0  0  0  0  0  0  0  0  0  0  0  0
    0.1191    1.8675    1.6055 N   0  0  0  0  0  0  0  0  0  0  0  0
    0.8092    1.2861    2.0537 H   0  0  0  0  0  0  0  0  0  0  0  0
    0.0509    3.2769    1.9894 C   0  0  0  0  0  0  0  0  0  0  0  0
   -0.9494    3.5076    2.3640 H   0  0  0  0  0  0  0  0  0  0  0  0
    0.7844    3.4956    2.7668 H   0  0  0  0  0  0  0  0  0  0  0  0
    0.2468    3.9058    1.1193 H   0  0  0  0  0  0  0  0  0  0  0  0
  5  6  2  0  0  0  0
  5  7  1  0  0  0  0
  2  3  1  0  0  0  0
  2  4  1  0  0  0  0
  2  5  1  0  0  0  0
  1  2  1  0  0  0  0
 22 23  2  0  0  0  0
 22 24  1  0  0  0  0
 19 20  1  0  0  0  0
 19 21  1  0  0  0  0
 17 18  2  0  0  0  0
 17 19  1  0  0  0  0
 14 15  1  0  0  0  0
 14 16  1  0  0  0  0
 14 17  1  0  0  0  0
 11 12  1  0  0  0  0
 11 13  1  0  0  0  0
 11 14  1  0  0  0  0
  9 10  1  0  0  0  0
  9 11  1  0  0  0  0
  9 22  1  0  0  0  0
  7  8  1  0  0  0  0
  7  9  1  0  0  0  0
 26 27  1  0  0  0  0
 26 28  1  0  0  0  0
 26 29  1  0  0  0  0
 24 25  1  0  0  0  0
 24 26  1  0  0  0  0
M  END
$$$$
default_name
  -OEChem-02102213163D

 29 28  0     1  0  0  0  0  0999 V2000
   -3.3998   -3.6239    1.3678 H   0  0  0  0  0  0  0  0  0  0  0  0
   -3.3608   -2.6749    0.8348 C   0  0  0  0  0  0  0  0  0  0  0  0
   -4.0988   -1.9909    1.2498 H   0  0  0  0  0  0  0  0  0  0  0  0
   -3.5618   -2.8419   -0.2222 H   0  0  0  0  0  0  0  0  0  0  0  0
   -1.9818   -2.0809    0.9918 C   0  0  0  0  0  0  0  0  0  0  0  0
   -1.1288   -2.6669    1.6468 O   0  0  0  0  0  0  0  0  0  0  0  0
   -1.7648   -0.9089    0.3998 N   0  0  0  0  0  0  0  0  0  0  0  0
   -2.5238   -0.4719   -0.1032 H   0  0  0  0  0  0  0  0  0  0  0  0
   -0.4848   -0.1959    0.4138 C   0  0  1  0  0  0  0  0  0  0  0  0
    0.1386   -0.6144    1.2058 H   0  0  0  0  0  0  0  0  0  0  0  0
    0.2271   -0.4272   -0.9334 C   0  0  0  0  0  0  0  0  0  0  0  0
    0.6284    0.5281   -1.2781 H   0  0  0  0  0  0  0  0  0  0  0  0
    1.0619   -1.1132   -0.7823 H   0  0  0  0  0  0  0  0  0  0  0  0
   -0.6891   -0.9931   -2.0324 C   0  0  0  0  0  0  0  0  0  0  0  0
   -0.1164   -1.1405   -2.9478 H   0  0  0  0  0  0  0  0  0  0  0  0
   -1.0786   -1.9575   -1.7063 H   0  0  0  0  0  0  0  0  0  0  0  0
   -1.8724   -0.0817   -2.3573 C   0  0  0  0  0  0  0  0  0  0  0  0
   -2.1085    0.9488   -1.7548 O   0  0  0  0  0  0  0  0  0  0  0  0
   -2.6732   -0.4230   -3.3434 N   0  0  0  0  0  0  0  0  0  0  0  0
   -3.4334    0.2122   -3.5139 H   0  0  0  0  0  0  0  0  0  0  0  0
   -2.5233   -1.2579   -3.8727 H   0  0  0  0  0  0  0  0  0  0  0  0
   -0.7011    1.2952    0.7149 C   0  0  0  0  0  0  0  0  0  0  0  0
   -1.5917    1.9198    0.1415 O   0  0  0  0  0  0  0  0  0  0  0  0
    0.1191    1.8675    1.6055 N   0  0  0  0  0  0  0  0  0  0  0  0
    0.8092    1.2861    2.0537 H   0  0  0  0  0  0  0  0  0  0  0  0
    0.0509    3.2769    1.9894 C   0  0  0  0  0  0  0  0  0  0  0  0
   -0.9494    3.5076    2.3640 H   0  0  0  0  0  0  0  0  0  0  0  0
    0.7844    3.4956    2.7668 H   0  0  0  0  0  0  0  0  0  0  0  0
    0.2468    3.9058    1.1193 H   0  0  0  0  0  0  0  0  0  0  0  0
  5  6  2  0  0  0  0
  5  7  1  0  0  0  0
  2  3  1  0  0  0  0
  2  4  1  0  0  0  0
  2  5  1  0  0  0  0
  1  2  1  0  0  0  0
 22 23  2  0  0  0  0
 22 24  1  0  0  0  0
 19 20  1  0  0  0  0
 19 21  1  0  0  0  0
 17 18  2  0  0  0  0
 17 19  1  0  0  0  0
 14 15  1  0  0  0  0
 14 16  1  0  0  0  0
 14 17  1  0  0  0  0
 11 12  1  0  0  0  0
 11 13  1  0  0  0  0
 11 14  1  0  0  0  0
  9 10  1  0  0  0  0
  9 11  1  0  0  0  0
  9 22  1  0  0  0  0
  7  8  1  0  0  0  0
  7  9  1  0  0  0  0
 26 27  1  0  0  0  0
 26 28  1  0  0  0  0
 26 29  1  0  0  0  0
 24 25  1  0  0  0  0
 24 26  1  0  0  0  0
M  END
$$$$
default_name
  -OEChem-02102213163D

 29 28  0     1  0  0  0  0  0999 V2000
   -3.3998   -3.6239    1.3678 H   0  0  0  0  0  0  0  0  0  0  0  0
   -3.3608   -2.6749    0.8348 C   0  0  0  0  0  0  0  0  0  0  0  0
   -4.0988   -1.9909    1.2498 H   0  0  0  0  0  0  0  0  0  0  0  0
   -3.5618   -2.8419   -0.2222 H   0  0  0  0  0  0  0  0  0  0  0  0
   -1.9818   -2.0809    0.9918 C   0  0  0  0  0  0  0  0  0  0  0  0
   -1.1288   -2.6669    1.6468 O   0  0  0  0  0  0  0  0  0  0  0  0
   -1.7648   -0.9089    0.3998 N   0  0  0  0  0  0  0  0  0  0  0  0
   -2.5238   -0.4719   -0.1032 H   0  0  0  0  0  0  0  0  0  0  0  0
   -0.4848   -0.1959    0.4138 C   0  0  1  0  0  0  0  0  0  0  0  0
    0.1386   -0.6144    1.2058 H   0  0  0  0  0  0  0  0  0  0  0  0
    0.2271   -0.4272   -0.9334 C   0  0  0  0  0  0  0  0  0  0  0  0
    0.6284    0.5281   -1.2781 H   0  0  0  0  0  0  0  0  0  0  0  0
    1.0619   -1.1132   -0.7823 H   0  0  0  0  0  0  0  0  0  0  0  0
   -0.6891   -0.9931   -2.0324 C   0  0  0  0  0  0  0  0  0  0  0  0
   -0.0835   -1.3870   -2.8483 H   0  0  0  0  0  0  0  0  0  0  0  0
   -1.2818   -1.8068   -1.6145 H   0  0  0  0  0  0  0  0  0  0  0  0
   -1.6448    0.0484   -2.6140 C   0  0  0  0  0  0  0  0  0  0  0  0
   -1.7262    1.1886   -2.1970 O   0  0  0  0  0  0  0  0  0  0  0  0
   -2.4141   -0.3016   -3.6219 N   0  0  0  0  0  0  0  0  0  0  0  0
   -3.0216    0.4219   -3.9652 H   0  0  0  0  0  0  0  0  0  0  0  0
   -2.3854   -1.2248   -4.0048 H   0  0  0  0  0  0  0  0  0  0  0  0
   -0.7011    1.2952    0.7149 C   0  0  0  0  0  0  0  0  0  0  0  0
   -1.5917    1.9198    0.1415 O   0  0  0  0  0  0  0  0  0  0  0  0
    0.1191    1.8675    1.6055 N   0  0  0  0  0  0  0  0  0  0  0  0
    0.8092    1.2861    2.0537 H   0  0  0  0  0  0  0  0  0  0  0  0
    0.0509    3.2769    1.9894 C   0  0  0  0  0  0  0  0  0  0  0  0
   -0.9494    3.5076    2.3640 H   0  0  0  0  0  0  0  0  0  0  0  0
    0.7844    3.4956    2.7668 H   0  0  0  0  0  0  0  0  0  0  0  0
    0.2468    3.9058    1.1193 H   0  0  0  0  0  0  0  0  0  0  0  0
  5  6  2  0  0  0  0
  5  7  1  0  0  0  0
  2  3  1  0  0  0  0
  2  4  1  0  0  0  0
  2  5  1  0  0  0  0
  1  2  1  0  0  0  0
 22 23  2  0  0  0  0
 22 24  1  0  0  0  0
 19 20  1  0  0  0  0
 19 21  1  0  0  0  0
 17 18  2  0  0  0  0
 17 19  1  0  0  0  0
 14 15  1  0  0  0  0
 14 16  1  0  0  0  0
 14 17  1  0  0  0  0
 11 12  1  0  0  0  0
 11 13  1  0  0  0  0
 11 14  1  0  0  0  0
  9 10  1  0  0  0  0
  9 11  1  0  0  0  0
  9 22  1  0  0  0  0
  7  8  1  0  0  0  0
  7  9  1  0  0  0  0
 26 27  1  0  0  0  0
 26 28  1  0  0  0  0
 26 29  1  0  0  0  0
 24 25  1  0  0  0  0
 24 26  1  0  0  0  0
M  END
$$$$
default_name
  -OEChem-02102213163D

 29 28  0     1  0  0  0  0  0999 V2000
   -3.3998   -3.6239    1.3678 H   0  0  0  0  0  0  0  0  0  0  0  0
   -3.3608   -2.6749    0.8348 C   0  0  0  0  0  0  0  0  0  0  0  0
   -4.0988   -1.9909    1.2498 H   0  0  0  0  0  0  0  0  0  0  0  0
   -3.5618   -2.8419   -0.2222 H   0  0  0  0  0  0  0  0  0  0  0  0
   -1.9818   -2.0809    0.9918 C   0  0  0  0  0  0  0  0  0  0  0  0
   -1.1288   -2.6669    1.6468 O   0  0  0  0  0  0  0  0  0  0  0  0
   -1.7648   -0.9089    0.3998 N   0  0  0  0  0  0  0  0  0  0  0  0
   -2.5238   -0.4719   -0.1032 H   0  0  0  0  0  0  0  0  0  0  0  0
   -0.4848   -0.1959    0.4138 C   0  0  1  0  0  0  0  0  0  0  0  0
    0.1386   -0.6144    1.2058 H   0  0  0  0  0  0  0  0  0  0  0  0
    0.2271   -0.4272   -0.9334 C   0  0  0  0  0  0  0  0  0  0  0  0
    0.6284    0.5281   -1.2781 H   0  0  0  0  0  0  0  0  0  0  0  0
    1.0619   -1.1132   -0.7823 H   0  0  0  0  0  0  0  0  0  0  0  0
   -0.6891   -0.9931   -2.0324 C   0  0  0  0  0  0  0  0  0  0  0  0
   -0.1067   -1.6159   -2.7111 H   0  0  0  0  0  0  0  0  0  0  0  0
   -1.4590   -1.6095   -1.5684 H   0  0  0  0  0  0  0  0  0  0  0  0
   -1.3766    0.0925   -2.8603 C   0  0  0  0  0  0  0  0  0  0  0  0
   -1.2705    1.2815   -2.6247 O   0  0  0  0  0  0  0  0  0  0  0  0
   -2.1149   -0.2752   -3.8850 N   0  0  0  0  0  0  0  0  0  0  0  0
   -2.5422    0.4788   -4.3942 H   0  0  0  0  0  0  0  0  0  0  0  0
   -2.2334   -1.2387   -4.1243 H   0  0  0  0  0  0  0  0  0  0  0  0
   -0.7011    1.2952    0.7149 C   0  0  0  0  0  0  0  0  0  0  0  0
   -1.5917    1.9198    0.1415 O   0  0  0  0  0  0  0  0  0  0  0  0
    0.1191    1.8675    1.6055 N   0  0  0  0  0  0  0  0  0  0  0  0
    0.8092    1.2861    2.0537 H   0  0  0  0  0  0  0  0  0  0  0  0
    0.0509    3.2769    1.9894 C   0  0  0  0  0  0  0  0  0  0  0  0
   -0.9494    3.5076    2.3640 H   0  0  0  0  0  0  0  0  0  0  0  0
    0.7844    3.4956    2.7668 H   0  0  0  0  0  0  0  0  0  0  0  0
    0.2468    3.9058    1.1193 H   0  0  0  0  0  0  0  0  0  0  0  0
  5  6  2  0  0  0  0
  5  7  1  0  0  0  0
  2  3  1  0  0  0  0
  2  4  1  0  0  0  0
  2  5  1  0  0  0  0
  1  2  1  0  0  0  0
 22 23  2  0  0  0  0
 22 24  1  0  0  0  0
 19 20  1  0  0  0  0
 19 21  1  0  0  0  0
 17 18  2  0  0  0  0
 17 19  1  0  0  0  0
 14 15  1  0  0  0  0
 14 16  1  0  0  0  0
 14 17  1  0  0  0  0
 11 12  1  0  0  0  0
 11 13  1  0  0  0  0
 11 14  1  0  0  0  0
  9 10  1  0  0  0  0
  9 11  1  0  0  0  0
  9 22  1  0  0  0  0
  7  8  1  0  0  0  0
  7  9  1  0  0  0  0
 26 27  1  0  0  0  0
 26 28  1  0  0  0  0
 26 29  1  0  0  0  0
 24 25  1  0  0  0  0
 24 26  1  0  0  0  0
M  END
$$$$
default_name
  -OEChem-02102213163D

 29 28  0     1  0  0  0  0  0999 V2000
   -3.3998   -3.6239    1.3678 H   0  0  0  0  0  0  0  0  0  0  0  0
   -3.3608   -2.6749    0.8348 C   0  0  0  0  0  0  0  0  0  0  0  0
   -4.0988   -1.9909    1.2498 H   0  0  0  0  0  0  0  0  0  0  0  0
   -3.5618   -2.8419   -0.2222 H   0  0  0  0  0  0  0  0  0  0  0  0
   -1.9818   -2.0809    0.9918 C   0  0  0  0  0  0  0  0  0  0  0  0
   -1.1288   -2.6669    1.6468 O   0  0  0  0  0  0  0  0  0  0  0  0
   -1.7648   -0.9089    0.3998 N   0  0  0  0  0  0  0  0  0  0  0  0
   -2.5238   -0.4719   -0.1032 H   0  0  0  0  0  0  0  0  0  0  0  0
   -0.4848   -0.1959    0.4138 C   0  0  1  0  0  0  0  0  0  0  0  0
    0.1386   -0.6144    1.2058 H   0  0  0  0  0  0  0  0  0  0  0  0
    0.2271   -0.4272   -0.9334 C   0  0  0  0  0  0  0  0  0  0  0  0
    0.6284    0.5281   -1.2781 H   0  0  0  0  0  0  0  0  0  0  0  0
    1.0619   -1.1132   -0.7823 H   0  0  0  0  0  0  0  0  0  0  0  0
   -0.6891   -0.9931   -2.0324 C   0  0  0  0  0  0  0  0  0  0  0  0
   -0.1845   -1.8115   -2.5455 H   0  0  0  0  0  0  0  0  0  0  0  0
   -1.5980   -1.3791   -1.5711 H   0  0  0  0  0  0  0  0  0  0  0  0
   -1.0858    0.0474   -3.0795 C   0  0  0  0  0  0  0  0  0  0  0  0
   -0.7724    1.2210   -3.0088 O   0  0  0  0  0  0  0  0  0  0  0  0
   -1.7959   -0.3455   -4.1147 N   0  0  0  0  0  0  0  0  0  0  0  0
   -2.0277    0.3791   -4.7717 H   0  0  0  0  0  0  0  0  0  0  0  0
   -2.0779   -1.2986   -4.2231 H   0  0  0  0  0  0  0  0  0  0  0  0
   -0.7011    1.2952    0.7149 C   0  0  0  0  0  0  0  0  0  0  0  0
   -1.5917    1.9198    0.1415 O   0  0  0  0  0  0  0  0  0  0  0  0
    0.1191    1.8675    1.6055 N   0  0  0  0  0  0  0  0  0  0  0  0
    0.8092    1.2861    2.0537 H   0  0  0  0  0  0  0  0  0  0  0  0
    0.0509    3.2769    1.9894 C   0  0  0  0  0  0  0  0  0  0  0  0
   -0.9494    3.5076    2.3640 H   0  0  0  0  0  0  0  0  0  0  0  0
    0.7844    3.4956    2.7668 H   0  0  0  0  0  0  0  0  0  0  0  0
    0.2468    3.9058    1.1193 H   0  0  0  0  0  0  0  0  0  0  0  0
  5  6  2  0  0  0  0
  5  7  1  0  0  0  0
  2  3  1  0  0  0  0
  2  4  1  0  0  0  0
  2  5  1  0  0  0  0
  1  2  1  0  0  0  0
 22 23  2  0  0  0  0
 22 24  1  0  0  0  0
 19 20  1  0  0  0  0
 19 21  1  0  0  0  0
 17 18  2  0  0  0  0
 17 19  1  0  0  0  0
 14 15  1  0  0  0  0
 14 16  1  0  0  0  0
 14 17  1  0  0  0  0
 11 12  1  0  0  0  0
 11 13  1  0  0  0  0
 11 14  1  0  0  0  0
  9 10  1  0  0  0  0
  9 11  1  0  0  0  0
  9 22  1  0  0  0  0
  7  8  1  0  0  0  0
  7  9  1  0  0  0  0
 26 27  1  0  0  0  0
 26 28  1  0  0  0  0
 26 29  1  0  0  0  0
 24 25  1  0  0  0  0
 24 26  1  0  0  0  0
M  END
$$$$
default_name
  -OEChem-02102213163D

 29 28  0     1  0  0  0  0  0999 V2000
   -3.3998   -3.6239    1.3678 H   0  0  0  0  0  0  0  0  0  0  0  0
   -3.3608   -2.6749    0.8348 C   0  0  0  0  0  0  0  0  0  0  0  0
   -4.0988   -1.9909    1.2498 H   0  0  0  0  0  0  0  0  0  0  0  0
   -3.5618   -2.8419   -0.2222 H   0  0  0  0  0  0  0  0  0  0  0  0
   -1.9818   -2.0809    0.9918 C   0  0  0  0  0  0  0  0  0  0  0  0
   -1.1288   -2.6669    1.6468 O   0  0  0  0  0  0  0  0  0  0  0  0
   -1.7648   -0.9089    0.3998 N   0  0  0  0  0  0  0  0  0  0  0  0
   -2.5238   -0.4719   -0.1032 H   0  0  0  0  0  0  0  0  0  0  0  0
   -0.4848   -0.1959    0.4138 C   0  0  1  0  0  0  0  0  0  0  0  0
    0.1386   -0.6144    1.2058 H   0  0  0  0  0  0  0  0  0  0  0  0
    0.2271   -0.4272   -0.9334 C   0  0  0  0  0  0  0  0  0  0  0  0
    0.6284    0.5281   -1.2781 H   0  0  0  0  0  0  0  0  0  0  0  0
    1.0619   -1.1132   -0.7823 H   0  0  0  0  0  0  0  0  0  0  0  0
   -0.6891   -0.9931   -2.0324 C   0  0  0  0  0  0  0  0  0  0  0  0
   -0.3116   -1.9606   -2.3628 H   0  0  0  0  0  0  0  0  0  0  0  0
   -1.6895   -1.1313   -1.6225 H   0  0  0  0  0  0  0  0  0  0  0  0
   -0.7925   -0.0836   -3.2566 C   0  0  0  0  0  0  0  0  0  0  0  0
   -0.2660    1.0114   -3.3231 O   0  0  0  0  0  0  0  0  0  0  0  0
   -1.4790   -0.5078   -4.2953 N   0  0  0  0  0  0  0  0  0  0  0  0
   -1.5133    0.1295   -5.0720 H   0  0  0  0  0  0  0  0  0  0  0  0
   -1.9293   -1.4005   -4.2946 H   0  0  0  0  0  0  0  0  0  0  0  0
   -0.7011    1.2952    0.7149 C   0  0  0  0  0  0  0  0  0  0  0  0
   -1.5917    1.9198    0.1415 O   0  0  0  0  0  0  0  0  0  0  0  0
    0.1191    1.8675    1.6055 N   0  0  0  0  0  0  0  0  0  0  0  0
    0.8092    1.2861    2.0537 H   0  0  0  0  0  0  0  0  0  0  0  0
    0.0509    3.2769    1.9894 C   0  0  0  0  0  0  0  0  0  0  0  0
   -0.9494    3.5076    2.3640 H   0  0  0  0  0  0  0  0  0  0  0  0
    0.7844    3.4956    2.7668 H   0  0  0  0  0  0  0  0  0  0  0  0
    0.2468    3.9058    1.1193 H   0  0  0  0  0  0  0  0  0  0  0  0
  5  6  2  0  0  0  0
  5  7  1  0  0  0  0
  2  3  1  0  0  0  0
  2  4  1  0  0  0  0
  2  5  1  0  0  0  0
  1  2  1  0  0  0  0
 22 23  2  0  0  0  0
 22 24  1  0  0  0  0
 19 20  1  0  0  0  0
 19 21  1  0  0  0  0
 17 18  2  0  0  0  0
 17 19  1  0  0  0  0
 14 15  1  0  0  0  0
 14 16  1  0  0  0  0
 14 17  1  0  0  0  0
 11 12  1  0  0  0  0
 11 13  1  0  0  0  0
 11 14  1  0  0  0  0
  9 10  1  0  0  0  0
  9 11  1  0  0  0  0
  9 22  1  0  0  0  0
  7  8  1  0  0  0  0
  7  9  1  0  0  0  0
 26 27  1  0  0  0  0
 26 28  1  0  0  0  0
 26 29  1  0  0  0  0
 24 25  1  0  0  0  0
 24 26  1  0  0  0  0
M  END
$$$$
default_name
  -OEChem-02102213163D

 29 28  0     1  0  0  0  0  0999 V2000
   -3.3998   -3.6239    1.3678 H   0  0  0  0  0  0  0  0  0  0  0  0
   -3.3608   -2.6749    0.8348 C   0  0  0  0  0  0  0  0  0  0  0  0
   -4.0988   -1.9909    1.2498 H   0  0  0  0  0  0  0  0  0  0  0  0
   -3.5618   -2.8419   -0.2222 H   0  0  0  0  0  0  0  0  0  0  0  0
   -1.9818   -2.0809    0.9918 C   0  0  0  0  0  0  0  0  0  0  0  0
   -1.1288   -2.6669    1.6468 O   0  0  0  0  0  0  0  0  0  0  0  0
   -1.7648   -0.9089    0.3998 N   0  0  0  0  0  0  0  0  0  0  0  0
   -2.5238   -0.4719   -0.1032 H   0  0  0  0  0  0  0  0  0  0  0  0
   -0.4848   -0.1959    0.4138 C   0  0  1  0  0  0  0  0  0  0  0  0
    0.1386   -0.6144    1.2058 H   0  0  0  0  0  0  0  0  0  0  0  0
    0.2271   -0.4272   -0.9334 C   0  0  0  0  0  0  0  0  0  0  0  0
    0.6284    0.5281   -1.2781 H   0  0  0  0  0  0  0  0  0  0  0  0
    1.0619   -1.1132   -0.7823 H   0  0  0  0  0  0  0  0  0  0  0  0
   -0.6891   -0.9931   -2.0324 C   0  0  0  0  0  0  0  0  0  0  0  0
   -0.4793   -2.0529   -2.1754 H   0  0  0  0  0  0  0  0  0  0  0  0
   -1.7272   -0.8829   -1.7190 H   0  0  0  0  0  0  0  0  0  0  0  0
   -0.5165   -0.2917   -3.3795 C   0  0  0  0  0  0  0  0  0  0  0  0
    0.2144    0.6668   -3.5461 O   0  0  0  0  0  0  0  0  0  0  0  0
   -1.1856   -0.7510   -4.4147 N   0  0  0  0  0  0  0  0  0  0  0  0
   -1.0339   -0.2531   -5.2747 H   0  0  0  0  0  0  0  0  0  0  0  0
   -1.7978   -1.5374   -4.3337 H   0  0  0  0  0  0  0  0  0  0  0  0
   -0.7011    1.2952    0.7149 C   0  0  0  0  0  0  0  0  0  0  0  0
   -1.5917    1.9198    0.1415 O   0  0  0  0  0  0  0  0  0  0  0  0
    0.1191    1.8675    1.6055 N   0  0  0  0  0  0  0  0  0  0  0  0
    0.8092    1.2861    2.0537 H   0  0  0  0  0  0  0  0  0  0  0  0
    0.0509    3.2769    1.9894 C   0  0  0  0  0  0  0  0  0  0  0  0
   -0.9494    3.5076    2.3640 H   0  0  0  0  0  0  0  0  0  0  0  0
    0.7844    3.4956    2.7668 H   0  0  0  0  0  0  0  0  0  0  0  0
    0.2468    3.9058    1.1193 H   0  0  0  0  0  0  0  0  0  0  0  0
  5  6  2  0  0  0  0
  5  7  1  0  0  0  0
  2  3  1  0  0  0  0
  2  4  1  0  0  0  0
  2  5  1  0  0  0  0
  1  2  1  0  0  0  0
 22 23  2  0  0  0  0
 22 24  1  0  0  0  0
 19 20  1  0  0  0  0
 19 21  1  0  0  0  0
 17 18  2  0  0  0  0
 17 19  1  0  0  0  0
 14 15  1  0  0  0  0
 14 16  1  0  0  0  0
 14 17  1  0  0  0  0
 11 12  1  0  0  0  0
 11 13  1  0  0  0  0
 11 14  1  0  0  0  0
  9 10  1  0  0  0  0
  9 11  1  0  0  0  0
  9 22  1  0  0  0  0
  7  8  1  0  0  0  0
  7  9  1  0  0  0  0
 26 27  1  0  0  0  0
 26 28  1  0  0  0  0
 26 29  1  0  0  0  0
 24 25  1  0  0  0  0
 24 26  1  0  0  0  0
M  END
$$$$
default_name
  -OEChem-02102213163D

 29 28  0     1  0  0  0  0  0999 V2000
   -3.3998   -3.6239    1.3678 H   0  0  0  0  0  0  0  0  0  0  0  0
   -3.3608   -2.6749    0.8348 C   0  0  0  0  0  0  0  0  0  0  0  0
   -4.0988   -1.9909    1.2498 H   0  0  0  0  0  0  0  0  0  0  0  0
   -3.5618   -2.8419   -0.2222 H   0  0  0  0  0  0  0  0  0  0  0  0
   -1.9818   -2.0809    0.9918 C   0  0  0  0  0  0  0  0  0  0  0  0
   -1.1288   -2.6669    1.6468 O   0  0  0  0  0  0  0  0  0  0  0  0
   -1.7648   -0.9089    0.3998 N   0  0  0  0  0  0  0  0  0  0  0  0
   -2.5238   -0.4719   -0.1032 H   0  0  0  0  0  0  0  0  0  0  0  0
   -0.4848   -0.1959    0.4138 C   0  0  1  0  0  0  0  0  0  0  0  0
    0.1386   -0.6144    1.2058 H   0  0  0  0  0  0  0  0  0  0  0  0
    0.2271   -0.4272   -0.9334 C   0  0  0  0  0  0  0  0  0  0  0  0
    0.6284    0.5281   -1.2781 H   0  0  0  0  0  0  0  0  0  0  0  0
    1.0619   -1.1132   -0.7823 H   0  0  0  0  0  0  0  0  0  0  0  0
   -0.6891   -0.9931   -2.0324 C   0  0  0  0  0  0  0  0  0  0  0  0
   -0.6761   -2.0822   -1.9962 H   0  0  0  0  0  0  0  0  0  0  0  0
   -1.7084   -0.6509   -1.8541 H   0  0  0  0  0  0  0  0  0  0  0  0
   -0.2766   -0.5626   -3.4399 C   0  0  0  0  0  0  0  0  0  0  0  0
    0.6360    0.2108   -3.6627 O   0  0  0  0  0  0  0  0  0  0  0  0
   -0.9358   -1.0585   -4.4645 N   0  0  0  0  0  0  0  0  0  0  0  0
   -0.6223   -0.7424   -5.3658 H   0  0  0  0  0  0  0  0  0  0  0  0
   -1.6923   -1.6999   -4.3379 H   0  0  0  0  0  0  0  0  0  0  0  0
   -0.7011    1.2952    0.7149 C   0  0  0  0  0  0  0  0  0  0  0  0
   -1.5917    1.9198    0.1415 O   0  0  0  0  0  0  0  0  0  0  0  0
    0.1191    1.8675    1.6055 N   0  0  0  0  0  0  0  0  0  0  0  0
    0.8092    1.2861    2.0537 H   0  0  0  0  0  0  0  0  0  0  0  0
    0.0509    3.2769    1.9894 C   0  0  0  0  0  0  0  0  0  0  0  0
   -0.9494    3.5076    2.3640 H   0  0  0  0  0  0  0  0  0  0  0  0
    0.7844    3.4956    2.7668 H   0  0  0  0  0  0  0  0  0  0  0  0
    0.2468    3.9058    1.1193 H   0  0  0  0  0  0  0  0  0  0  0  0
  5  6  2  0  0  0  0
  5  7  1  0  0  0  0
  2  3  1  0  0  0  0
  2  4  1  0  0  0  0
  2  5  1  0  0  0  0
  1  2  1  0  0  0  0
 22 23  2  0  0  0  0
 22 24  1  0  0  0  0
 19 20  1  0  0  0  0
 19 21  1  0  0  0  0
 17 18  2  0  0  0  0
 17 19  1  0  0  0  0
 14 15  1  0  0  0  0
 14 16  1  0  0  0  0
 14 17  1  0  0  0  0
 11 12  1  0  0  0  0
 11 13  1  0  0  0  0
 11 14  1  0  0  0  0
  9 10  1  0  0  0  0
  9 11  1  0  0  0  0
  9 22  1  0  0  0  0
  7  8  1  0  0  0  0
  7  9  1  0  0  0  0
 26 27  1  0  0  0  0
 26 28  1  0  0  0  0
 26 29  1  0  0  0  0
 24 25  1  0  0  0  0
 24 26  1  0  0  0  0
M  END
$$$$
default_name
  -OEChem-02102213163D

 29 28  0     1  0  0  0  0  0999 V2000
   -3.3998   -3.6239    1.3678 H   0  0  0  0  0  0  0  0  0  0  0  0
   -3.3608   -2.6749    0.8348 C   0  0  0  0  0  0  0  0  0  0  0  0
   -4.0988   -1.9909    1.2498 H   0  0  0  0  0  0  0  0  0  0  0  0
   -3.5618   -2.8419   -0.2222 H   0  0  0  0  0  0  0  0  0  0  0  0
   -1.9818   -2.0809    0.9918 C   0  0  0  0  0  0  0  0  0  0  0  0
   -1.1288   -2.6669    1.6468 O   0  0  0  0  0  0  0  0  0  0  0  0
   -1.7648   -0.9089    0.3998 N   0  0  0  0  0  0  0  0  0  0  0  0
   -2.5238   -0.4719   -0.1032 H   0  0  0  0  0  0  0  0  0  0  0  0
   -0.4848   -0.1959    0.4138 C   0  0  1  0  0  0  0  0  0  0  0  0
    0.1386   -0.6144    1.2058 H   0  0  0  0  0  0  0  0  0  0  0  0
    0.2271   -0.4272   -0.9334 C   0  0  0  0  0  0  0  0  0  0  0  0
    0.6284    0.5281   -1.2781 H   0  0  0  0  0  0  0  0  0  0  0  0
    1.0619   -1.1132   -0.7823 H   0  0  0  0  0  0  0  0  0  0  0  0
   -0.6891   -0.9931   -2.0324 C   0  0  0  0  0  0  0  0  0  0  0  0
   -0.8888   -2.0465   -1.8373 H   0  0  0  0  0  0  0  0  0  0  0  0
   -1.6346   -0.4511   -2.0186 H   0  0  0  0  0  0  0  0  0  0  0  0
   -0.0893   -0.8780   -3.4337 C   0  0  0  0  0  0  0  0  0  0  0  0
    0.9699   -0.3256   -3.6649 O   0  0  0  0  0  0  0  0  0  0  0  0
   -0.7467   -1.4094   -4.4415 N   0  0  0  0  0  0  0  0  0  0  0  0
   -0.3065   -1.3052   -5.3392 H   0  0  0  0  0  0  0  0  0  0  0  0
   -1.6201   -1.8771   -4.3069 H   0  0  0  0  0  0  0  0  0  0  0  0
   -0.7011    1.2952    0.7149 C   0  0  0  0  0  0  0  0  0  0  0  0
   -1.5917    1.9198    0.1415 O   0  0  0  0  0  0  0  0  0  0  0  0
    0.1191    1.8675    1.6055 N   0  0  0  0  0  0  0  0  0  0  0  0
    0.8092    1.2861    2.0537 H   0  0  0  0  0  0  0  0  0  0  0  0
    0.0509    3.2769    1.9894 C   0  0  0  0  0  0  0  0  0  0  0  0
   -0.9494    3.5076    2.3640 H   0  0  0  0  0  0  0  0  0  0  0  0
    0.7844    3.4956    2.7668 H   0  0  0  0  0  0  0  0  0  0  0  0
    0.2468    3.9058    1.1193 H   0  0  0  0  0  0  0  0  0  0  0  0
  5  6  2  0  0  0  0
  5  7  1  0  0  0  0
  2  3  1  0  0  0  0
  2  4  1  0  0  0  0
  2  5  1  0  0  0  0
  1  2  1  0  0  0  0
 22 23  2  0  0  0  0
 22 24  1  0  0  0  0
 19 20  1  0  0  0  0
 19 21  1  0  0  0  0
 17 18  2  0  0  0  0
 17 19  1  0  0  0  0
 14 15  1  0  0  0  0
 14 16  1  0  0  0  0
 14 17  1  0  0  0  0
 11 12  1  0  0  0  0
 11 13  1  0  0  0  0
 11 14  1  0  0  0  0
  9 10  1  0  0  0  0
  9 11  1  0  0  0  0
  9 22  1  0  0  0  0
  7  8  1  0  0  0  0
  7  9  1  0  0  0  0
 26 27  1  0  0  0  0
 26 28  1  0  0  0  0
 26 29  1  0  0  0  0
 24 25  1  0  0  0  0
 24 26  1  0  0  0  0
M  END
$$$$
default_name
  -OEChem-02102213163D

 29 28  0     1  0  0  0  0  0999 V2000
   -3.3998   -3.6239    1.3678 H   0  0  0  0  0  0  0  0  0  0  0  0
   -3.3608   -2.6749    0.8348 C   0  0  0  0  0  0  0  0  0  0  0  0
   -4.0988   -1.9909    1.2498 H   0  0  0  0  0  0  0  0  0  0  0  0
   -3.5618   -2.8419   -0.2222 H   0  0  0  0  0  0  0  0  0  0  0  0
   -1.9818   -2.0809    0.9918 C   0  0  0  0  0  0  0  0  0  0  0  0
   -1.1288   -2.6669    1.6468 O   0  0  0  0  0  0  0  0  0  0  0  0
   -1.7648   -0.9089    0.3998 N   0  0  0  0  0  0  0  0  0  0  0  0
   -2.5238   -0.4719   -0.1032 H   0  0  0  0  0  0  0  0  0  0  0  0
   -0.4848   -0.1959    0.4138 C   0  0  1  0  0  0  0  0  0  0  0  0
    0.1386   -0.6144    1.2058 H   0  0  0  0  0  0  0  0  0  0  0  0
    0.2271   -0.4272   -0.9334 C   0  0  0  0  0  0  0  0  0  0  0  0
    0.8497    0.4442   -1.1468 H   0  0  0  0  0  0  0  0  0  0  0  0
    0.8780   -1.2986   -0.8477 H   0  0  0  0  0  0  0  0  0  0  0  0
   -0.7334   -0.6384   -2.1167 C   0  0  0  0  0  0  0  0  0  0  0  0
   -1.3668   -1.5043   -1.9253 H   0  0  0  0  0  0  0  0  0  0  0  0
   -1.3682    0.2418   -2.2185 H   0  0  0  0  0  0  0  0  0  0  0  0
   -0.0110   -0.8662   -3.4445 C   0  0  0  0  0  0  0  0  0  0  0  0
    1.1983   -0.8093   -3.5666 O   0  0  0  0  0  0  0  0  0  0  0  0
   -0.7313   -1.1457   -4.5090 N   0  0  0  0  0  0  0  0  0  0  0  0
   -0.2053   -1.2867   -5.3540 H   0  0  0  0  0  0  0  0  0  0  0  0
   -1.7282   -1.2071   -4.4637 H   0  0  0  0  0  0  0  0  0  0  0  0
   -0.7011    1.2952    0.7149 C   0  0  0  0  0  0  0  0  0  0  0  0
   -1.5917    1.9198    0.1415 O   0  0  0  0  0  0  0  0  0  0  0  0
    0.1191    1.8675    1.6055 N   0  0  0  0  0  0  0  0  0  0  0  0
    0.8092    1.2861    2.0537 H   0  0  0  0  0  0  0  0  0  0  0  0
    0.0509    3.2769    1.9894 C   0  0  0  0  0  0  0  0  0  0  0  0
   -0.9494    3.5076    2.3640 H   0  0  0  0  0  0  0  0  0  0  0  0
    0.7844    3.4956    2.7668 H   0  0  0  0  0  0  0  0  0  0  0  0
    0.2468    3.9058    1.1193 H   0  0  0  0  0  0  0  0  0  0  0  0
  5  6  2  0  0  0  0
  5  7  1  0  0  0  0
  2  3  1  0  0  0  0
  2  4  1  0  0  0  0
  2  5  1  0  0  0  0
  1  2  1  0  0  0  0
 22 23  2  0  0  0  0
 22 24  1  0  0  0  0
 19 20  1  0  0  0  0
 19 21  1  0  0  0  0
 17 18  2  0  0  0  0
 17 19  1  0  0  0  0
 14 15  1  0  0  0  0
 14 16  1  0  0  0  0
 14 17  1  0  0  0  0
 11 12  1  0  0  0  0
 11 13  1  0  0  0  0
 11 14  1  0  0  0  0
  9 10  1  0  0  0  0
  9 11  1  0  0  0  0
  9 22  1  0  0  0  0
  7  8  1  0  0  0  0
  7  9  1  0  0  0  0
 26 27  1  0  0  0  0
 26 28  1  0  0  0  0
 26 29  1  0  0  0  0
 24 25  1  0  0  0  0
 24 26  1  0  0  0  0
M  END
$$$$
default_name
  -OEChem-02102213163D

 29 28  0     1  0  0  0  0  0999 V2000
   -3.3998   -3.6239    1.3678 H   0  0  0  0  0  0  0  0  0  0  0  0
   -3.3608   -2.6749    0.8348 C   0  0  0  0  0  0  0  0  0  0  0  0
   -4.0988   -1.9909    1.2498 H   0  0  0  0  0  0  0  0  0  0  0  0
   -3.5618   -2.8419   -0.2222 H   0  0  0  0  0  0  0  0  0  0  0  0
   -1.9818   -2.0809    0.9918 C   0  0  0  0  0  0  0  0  0  0  0  0
   -1.1288   -2.6669    1.6468 O   0  0  0  0  0  0  0  0  0  0  0  0
   -1.7648   -0.9089    0.3998 N   0  0  0  0  0  0  0  0  0  0  0  0
   -2.5238   -0.4719   -0.1032 H   0  0  0  0  0  0  0  0  0  0  0  0
   -0.4848   -0.1959    0.4138 C   0  0  1  0  0  0  0  0  0  0  0  0
    0.1386   -0.6144    1.2058 H   0  0  0  0  0  0  0  0  0  0  0  0
    0.2271   -0.4272   -0.9334 C   0  0  0  0  0  0  0  0  0  0  0  0
    0.8497    0.4442   -1.1468 H   0  0  0  0  0  0  0  0  0  0  0  0
    0.8780   -1.2986   -0.8477 H   0  0  0  0  0  0  0  0  0  0  0  0
   -0.7334   -0.6384   -2.1167 C   0  0  0  0  0  0  0  0  0  0  0  0
   -1.5322   -1.3195   -1.8240 H   0  0  0  0  0  0  0  0  0  0  0  0
   -1.1753    0.3200   -2.3890 H   0  0  0  0  0  0  0  0  0  0  0  0
   -0.0466   -1.2195   -3.3525 C   0  0  0  0  0  0  0  0  0  0  0  0
    1.1514   -1.4220   -3.4192 O   0  0  0  0  0  0  0  0  0  0  0  0
   -0.7880   -1.5242   -4.3955 N   0  0  0  0  0  0  0  0  0  0  0  0
   -0.2852   -1.9033   -5.1791 H   0  0  0  0  0  0  0  0  0  0  0  0
   -1.7774   -1.3806   -4.3928 H   0  0  0  0  0  0  0  0  0  0  0  0
   -0.7011    1.2952    0.7149 C   0  0  0  0  0  0  0  0  0  0  0  0
   -1.5917    1.9198    0.1415 O   0  0  0  0  0  0  0  0  0  0  0  0
    0.1191    1.8675    1.6055 N   0  0  0  0  0  0  0  0  0  0  0  0
    0.8092    1.2861    2.0537 H   0  0  0  0  0  0  0  0  0  0  0  0
    0.0509    3.2769    1.9894 C   0  0  0  0  0  0  0  0  0  0  0  0
   -0.9494    3.5076    2.3640 H   0  0  0  0  0  0  0  0  0  0  0  0
    0.7844    3.4956    2.7668 H   0  0  0  0  0  0  0  0  0  0  0  0
    0.2468    3.9058    1.1193 H   0  0  0  0  0  0  0  0  0  0  0  0
  5  6  2  0  0  0  0
  5  7  1  0  0  0  0
  2  3  1  0  0  0  0
  2  4  1  0  0  0  0
  2  5  1  0  0  0  0
  1  2  1  0  0  0  0
 22 23  2  0  0  0  0
 22 24  1  0  0  0  0
 19 20  1  0  0  0  0
 19 21  1  0  0  0  0
 17 18  2  0  0  0  0
 17 19  1  0  0  0  0
 14 15  1  0  0  0  0
 14 16  1  0  0  0  0
 14 17  1  0  0  0  0
 11 12  1  0  0  0  0
 11 13  1  0  0  0  0
 11 14  1  0  0  0  0
  9 10  1  0  0  0  0
  9 11  1  0  0  0  0
  9 22  1  0  0  0  0
  7  8  1  0  0  0  0
  7  9  1  0  0  0  0
 26 27  1  0  0  0  0
 26 28  1  0  0  0  0
 26 29  1  0  0  0  0
 24 25  1  0  0  0  0
 24 26  1  0  0  0  0
M  END
$$$$
default_name
  -OEChem-02102213163D

 29 28  0     1  0  0  0  0  0999 V2000
   -3.3998   -3.6239    1.3678 H   0  0  0  0  0  0  0  0  0  0  0  0
   -3.3608   -2.6749    0.8348 C   0  0  0  0  0  0  0  0  0  0  0  0
   -4.0988   -1.9909    1.2498 H   0  0  0  0  0  0  0  0  0  0  0  0
   -3.5618   -2.8419   -0.2222 H   0  0  0  0  0  0  0  0  0  0  0  0
   -1.9818   -2.0809    0.9918 C   0  0  0  0  0  0  0  0  0  0  0  0
   -1.1288   -2.6669    1.6468 O   0  0  0  0  0  0  0  0  0  0  0  0
   -1.7648   -0.9089    0.3998 N   0  0  0  0  0  0  0  0  0  0  0  0
   -2.5238   -0.4719   -0.1032 H   0  0  0  0  0  0  0  0  0  0  0  0
   -0.4848   -0.1959    0.4138 C   0  0  1  0  0  0  0  0  0  0  0  0
    0.1386   -0.6144    1.2058 H   0  0  0  0  0  0  0  0  0  0  0  0
    0.2271   -0.4272   -0.9334 C   0  0  0  0  0  0  0  0  0  0  0  0
    0.8497    0.4442   -1.1468 H   0  0  0  0  0  0  0  0  0  0  0  0
    0.8780   -1.2986   -0.8477 H   0  0  0  0  0  0  0  0  0  0  0  0
   -0.7334   -0.6384   -2.1167 C   0  0  0  0  0  0  0  0  0  0  0  0
   -1.6588   -1.0917   -1.7620 H   0  0  0  0  0  0  0  0  0  0  0  0
   -0.9674    0.3297   -2.5596 H   0  0  0  0  0  0  0  0  0  0  0  0
   -0.1546   -1.5389   -3.2079 C   0  0  0  0  0  0  0  0  0  0  0  0
    0.9789   -1.9806   -3.1795 O   0  0  0  0  0  0  0  0  0  0  0  0
   -0.9221   -1.8603   -4.2266 N   0  0  0  0  0  0  0  0  0  0  0  0
   -0.4913   -2.4547   -4.9134 H   0  0  0  0  0  0  0  0  0  0  0  0
   -1.8620   -1.5270   -4.2980 H   0  0  0  0  0  0  0  0  0  0  0  0
   -0.7011    1.2952    0.7149 C   0  0  0  0  0  0  0  0  0  0  0  0
   -1.5917    1.9198    0.1415 O   0  0  0  0  0  0  0  0  0  0  0  0
    0.1191    1.8675    1.6055 N   0  0  0  0  0  0  0  0  0  0  0  0
    0.8092    1.2861    2.0537 H   0  0  0  0  0  0  0  0  0  0  0  0
    0.0509    3.2769    1.9894 C   0  0  0  0  0  0  0  0  0  0  0  0
   -0.9494    3.5076    2.3640 H   0  0  0  0  0  0  0  0  0  0  0  0
    0.7844    3.4956    2.7668 H   0  0  0  0  0  0  0  0  0  0  0  0
    0.2468    3.9058    1.1193 H   0  0  0  0  0  0  0  0  0  0  0  0
  5  6  2  0  0  0  0
  5  7  1  0  0  0  0
  2  3  1  0  0  0  0
  2  4  1  0  0  0  0
  2  5  1  0  0  0  0
  1  2  1  0  0  0  0
 22 23  2  0  0  0  0
 22 24  1  0  0  0  0
 19 20  1  0  0  0  0
 19 21  1  0  0  0  0
 17 18  2  0  0  0  0
 17 19  1  0  0  0  0
 14 15  1  0  0  0  0
 14 16  1  0  0  0  0
 14 17  1  0  0  0  0
 11 12  1  0  0  0  0
 11 13  1  0  0  0  0
 11 14  1  0  0  0  0
  9 10  1  0  0  0  0
  9 11  1  0  0  0  0
  9 22  1  0  0  0  0
  7  8  1  0  0  0  0
  7  9  1  0  0  0  0
 26 27  1  0  0  0  0
 26 28  1  0  0  0  0
 26 29  1  0  0  0  0
 24 25  1  0  0  0  0
 24 26  1  0  0  0  0
M  END
$$$$
default_name
  -OEChem-02102213163D

 29 28  0     1  0  0  0  0  0999 V2000
   -3.3998   -3.6239    1.3678 H   0  0  0  0  0  0  0  0  0  0  0  0
   -3.3608   -2.6749    0.8348 C   0  0  0  0  0  0  0  0  0  0  0  0
   -4.0988   -1.9909    1.2498 H   0  0  0  0  0  0  0  0  0  0  0  0
   -3.5618   -2.8419   -0.2222 H   0  0  0  0  0  0  0  0  0  0  0  0
   -1.9818   -2.0809    0.9918 C   0  0  0  0  0  0  0  0  0  0  0  0
   -1.1288   -2.6669    1.6468 O   0  0  0  0  0  0  0  0  0  0  0  0
   -1.7648   -0.9089    0.3998 N   0  0  0  0  0  0  0  0  0  0  0  0
   -2.5238   -0.4719   -0.1032 H   0  0  0  0  0  0  0  0  0  0  0  0
   -0.4848   -0.1959    0.4138 C   0  0  1  0  0  0  0  0  0  0  0  0
    0.1386   -0.6144    1.2058 H   0  0  0  0  0  0  0  0  0  0  0  0
    0.2271   -0.4272   -0.9334 C   0  0  0  0  0  0  0  0  0  0  0  0
    0.8497    0.4442   -1.1468 H   0  0  0  0  0  0  0  0  0  0  0  0
    0.8780   -1.2986   -0.8477 H   0  0  0  0  0  0  0  0  0  0  0  0
   -0.7334   -0.6384   -2.1167 C   0  0  0  0  0  0  0  0  0  0  0  0
   -1.7379   -0.8364   -1.7433 H   0  0  0  0  0  0  0  0  0  0  0  0
   -0.7585    0.2701   -2.7185 H   0  0  0  0  0  0  0  0  0  0  0  0
   -0.3276   -1.8026   -3.0204 C   0  0  0  0  0  0  0  0  0  0  0  0
    0.6926   -2.4471   -2.8638 O   0  0  0  0  0  0  0  0  0  0  0  0
   -1.1245   -2.1310   -4.0140 N   0  0  0  0  0  0  0  0  0  0  0  0
   -0.8095   -2.9034   -4.5749 H   0  0  0  0  0  0  0  0  0  0  0  0
   -1.9762   -1.6362   -4.1858 H   0  0  0  0  0  0  0  0  0  0  0  0
   -0.7011    1.2952    0.7149 C   0  0  0  0  0  0  0  0  0  0  0  0
   -1.5917    1.9198    0.1415 O   0  0  0  0  0  0  0  0  0  0  0  0
    0.1191    1.8675    1.6055 N   0  0  0  0  0  0  0  0  0  0  0  0
    0.8092    1.2861    2.0537 H   0  0  0  0  0  0  0  0  0  0  0  0
    0.0509    3.2769    1.9894 C   0  0  0  0  0  0  0  0  0  0  0  0
   -0.9494    3.5076    2.3640 H   0  0  0  0  0  0  0  0  0  0  0  0
    0.7844    3.4956    2.7668 H   0  0  0  0  0  0  0  0  0  0  0  0
    0.2468    3.9058    1.1193 H   0  0  0  0  0  0  0  0  0  0  0  0
  5  6  2  0  0  0  0
  5  7  1  0  0  0  0
  2  3  1  0  0  0  0
  2  4  1  0  0  0  0
  2  5  1  0  0  0  0
  1  2  1  0  0  0  0
 22 23  2  0  0  0  0
 22 24  1  0  0  0  0
 19 20  1  0  0  0  0
 19 21  1  0  0  0  0
 17 18  2  0  0  0  0
 17 19  1  0  0  0  0
 14 15  1  0  0  0  0
 14 16  1  0  0  0  0
 14 17  1  0  0  0  0
 11 12  1  0  0  0  0
 11 13  1  0  0  0  0
 11 14  1  0  0  0  0
  9 10  1  0  0  0  0
  9 11  1  0  0  0  0
  9 22  1  0  0  0  0
  7  8  1  0  0  0  0
  7  9  1  0  0  0  0
 26 27  1  0  0  0  0
 26 28  1  0  0  0  0
 26 29  1  0  0  0  0
 24 25  1  0  0  0  0
 24 26  1  0  0  0  0
M  END
$$$$
default_name
  -OEChem-02102213163D

 29 28  0     1  0  0  0  0  0999 V2000
   -3.3998   -3.6239    1.3678 H   0  0  0  0  0  0  0  0  0  0  0  0
   -3.3608   -2.6749    0.8348 C   0  0  0  0  0  0  0  0  0  0  0  0
   -4.0988   -1.9909    1.2498 H   0  0  0  0  0  0  0  0  0  0  0  0
   -3.5618   -2.8419   -0.2222 H   0  0  0  0  0  0  0  0  0  0  0  0
   -1.9818   -2.0809    0.9918 C   0  0  0  0  0  0  0  0  0  0  0  0
   -1.1288   -2.6669    1.6468 O   0  0  0  0  0  0  0  0  0  0  0  0
   -1.7648   -0.9089    0.3998 N   0  0  0  0  0  0  0  0  0  0  0  0
   -2.5238   -0.4719   -0.1032 H   0  0  0  0  0  0  0  0  0  0  0  0
   -0.4848   -0.1959    0.4138 C   0  0  1  0  0  0  0  0  0  0  0  0
    0.1386   -0.6144    1.2058 H   0  0  0  0  0  0  0  0  0  0  0  0
    0.2271   -0.4272   -0.9334 C   0  0  0  0  0  0  0  0  0  0  0  0
    0.8497    0.4442   -1.1468 H   0  0  0  0  0  0  0  0  0  0  0  0
    0.8780   -1.2986   -0.8477 H   0  0  0  0  0  0  0  0  0  0  0  0
   -0.7334   -0.6384   -2.1167 C   0  0  0  0  0  0  0  0  0  0  0  0
   -1.7642   -0.5711   -1.7693 H   0  0  0  0  0  0  0  0  0  0  0  0
   -0.5630    0.1452   -2.8549 H   0  0  0  0  0  0  0  0  0  0  0  0
   -0.5538   -1.9925   -2.8028 C   0  0  0  0  0  0  0  0  0  0  0  0
    0.3119   -2.7897   -2.4937 O   0  0  0  0  0  0  0  0  0  0  0  0
   -1.3814   -2.3177   -3.7721 N   0  0  0  0  0  0  0  0  0  0  0  0
   -1.2183   -3.2188   -4.1868 H   0  0  0  0  0  0  0  0  0  0  0  0
   -2.1122   -1.7009   -4.0639 H   0  0  0  0  0  0  0  0  0  0  0  0
   -0.7011    1.2952    0.7149 C   0  0  0  0  0  0  0  0  0  0  0  0
   -1.5917    1.9198    0.1415 O   0  0  0  0  0  0  0  0  0  0  0  0
    0.1191    1.8675    1.6055 N   0  0  0  0  0  0  0  0  0  0  0  0
    0.8092    1.2861    2.0537 H   0  0  0  0  0  0  0  0  0  0  0  0
    0.0509    3.2769    1.9894 C   0  0  0  0  0  0  0  0  0  0  0  0
   -0.9494    3.5076    2.3640 H   0  0  0  0  0  0  0  0  0  0  0  0
    0.7844    3.4956    2.7668 H   0  0  0  0  0  0  0  0  0  0  0  0
    0.2468    3.9058    1.1193 H   0  0  0  0  0  0  0  0  0  0  0  0
  5  6  2  0  0  0  0
  5  7  1  0  0  0  0
  2  3  1  0  0  0  0
  2  4  1  0  0  0  0
  2  5  1  0  0  0  0
  1  2  1  0  0  0  0
 22 23  2  0  0  0  0
 22 24  1  0  0  0  0
 19 20  1  0  0  0  0
 19 21  1  0  0  0  0
 17 18  2  0  0  0  0
 17 19  1  0  0  0  0
 14 15  1  0  0  0  0
 14 16  1  0  0  0  0
 14 17  1  0  0  0  0
 11 12  1  0  0  0  0
 11 13  1  0  0  0  0
 11 14  1  0  0  0  0
  9 10  1  0  0  0  0
  9 11  1  0  0  0  0
  9 22  1  0  0  0  0
  7  8  1  0  0  0  0
  7  9  1  0  0  0  0
 26 27  1  0  0  0  0
 26 28  1  0  0  0  0
 26 29  1  0  0  0  0
 24 25  1  0  0  0  0
 24 26  1  0  0  0  0
M  END
$$$$
default_name
  -OEChem-02102213163D

 29 28  0     1  0  0  0  0  0999 V2000
   -3.3998   -3.6239    1.3678 H   0  0  0  0  0  0  0  0  0  0  0  0
   -3.3608   -2.6749    0.8348 C   0  0  0  0  0  0  0  0  0  0  0  0
   -4.0988   -1.9909    1.2498 H   0  0  0  0  0  0  0  0  0  0  0  0
   -3.5618   -2.8419   -0.2222 H   0  0  0  0  0  0  0  0  0  0  0  0
   -1.9818   -2.0809    0.9918 C   0  0  0  0  0  0  0  0  0  0  0  0
   -1.1288   -2.6669    1.6468 O   0  0  0  0  0  0  0  0  0  0  0  0
   -1.7648   -0.9089    0.3998 N   0  0  0  0  0  0  0  0  0  0  0  0
   -2.5238   -0.4719   -0.1032 H   0  0  0  0  0  0  0  0  0  0  0  0
   -0.4848   -0.1959    0.4138 C   0  0  1  0  0  0  0  0  0  0  0  0
    0.1386   -0.6144    1.2058 H   0  0  0  0  0  0  0  0  0  0  0  0
    0.2271   -0.4272   -0.9334 C   0  0  0  0  0  0  0  0  0  0  0  0
    0.8497    0.4442   -1.1468 H   0  0  0  0  0  0  0  0  0  0  0  0
    0.8780   -1.2986   -0.8477 H   0  0  0  0  0  0  0  0  0  0  0  0
   -0.7334   -0.6384   -2.1167 C   0  0  0  0  0  0  0  0  0  0  0  0
   -1.7358   -0.3139   -1.8383 H   0  0  0  0  0  0  0  0  0  0  0  0
   -0.3941   -0.0363   -2.9596 H   0  0  0  0  0  0  0  0  0  0  0  0
   -0.8179   -2.0958   -2.5700 C   0  0  0  0  0  0  0  0  0  0  0  0
   -0.1371   -2.9850   -2.0944 O   0  0  0  0  0  0  0  0  0  0  0  0
   -1.6754   -2.4079   -3.5174 N   0  0  0  0  0  0  0  0  0  0  0  0
   -1.6897   -3.3793   -3.7755 H   0  0  0  0  0  0  0  0  0  0  0  0
   -2.2609   -1.7165   -3.9404 H   0  0  0  0  0  0  0  0  0  0  0  0
   -0.7011    1.2952    0.7149 C   0  0  0  0  0  0  0  0  0  0  0  0
   -1.5917    1.9198    0.1415 O   0  0  0  0  0  0  0  0  0  0  0  0
    0.1191    1.8675    1.6055 N   0  0  0  0  0  0  0  0  0  0  0  0
    0.8092    1.2861    2.0537 H   0  0  0  0  0  0  0  0  0  0  0  0
    0.0509    3.2769    1.9894 C   0  0  0  0  0  0  0  0  0  0  0  0
   -0.9494    3.5076    2.3640 H   0  0  0  0  0  0  0  0  0  0  0  0
    0.7844    3.4956    2.7668 H   0  0  0  0  0  0  0  0  0  0  0  0
    0.2468    3.9058    1.1193 H   0  0  0  0  0  0  0  0  0  0  0  0
  5  6  2  0  0  0  0
  5  7  1  0  0  0  0
  2  3  1  0  0  0  0
  2  4  1  0  0  0  0
  2  5  1  0  0  0  0
  1  2  1  0  0  0  0
 22 23  2  0  0  0  0
 22 24  1  0  0  0  0
 19 20  1  0  0  0  0
 19 21  1  0  0  0  0
 17 18  2  0  0  0  0
 17 19  1  0  0  0  0
 14 15  1  0  0  0  0
 14 16  1  0  0  0  0
 14 17  1  0  0  0  0
 11 12  1  0  0  0  0
 11 13  1  0  0  0  0
 11 14  1  0  0  0  0
  9 10  1  0  0  0  0
  9 11  1  0  0  0  0
  9 22  1  0  0  0  0
  7  8  1  0  0  0  0
  7  9  1  0  0  0  0
 26 27  1  0  0  0  0
 26 28  1  0  0  0  0
 26 29  1  0  0  0  0
 24 25  1  0  0  0  0
 24 26  1  0  0  0  0
M  END
$$$$
default_name
  -OEChem-02102213163D

 29 28  0     1  0  0  0  0  0999 V2000
   -3.3998   -3.6239    1.3678 H   0  0  0  0  0  0  0  0  0  0  0  0
   -3.3608   -2.6749    0.8348 C   0  0  0  0  0  0  0  0  0  0  0  0
   -4.0988   -1.9909    1.2498 H   0  0  0  0  0  0  0  0  0  0  0  0
   -3.5618   -2.8419   -0.2222 H   0  0  0  0  0  0  0  0  0  0  0  0
   -1.9818   -2.0809    0.9918 C   0  0  0  0  0  0  0  0  0  0  0  0
   -1.1288   -2.6669    1.6468 O   0  0  0  0  0  0  0  0  0  0  0  0
   -1.7648   -0.9089    0.3998 N   0  0  0  0  0  0  0  0  0  0  0  0
   -2.5238   -0.4719   -0.1032 H   0  0  0  0  0  0  0  0  0  0  0  0
   -0.4848   -0.1959    0.4138 C   0  0  1  0  0  0  0  0  0  0  0  0
    0.1386   -0.6144    1.2058 H   0  0  0  0  0  0  0  0  0  0  0  0
    0.2271   -0.4272   -0.9334 C   0  0  0  0  0  0  0  0  0  0  0  0
    0.8497    0.4442   -1.1468 H   0  0  0  0  0  0  0  0  0  0  0  0
    0.8780   -1.2986   -0.8477 H   0  0  0  0  0  0  0  0  0  0  0  0
   -0.7334   -0.6384   -2.1167 C   0  0  0  0  0  0  0  0  0  0  0  0
   -1.6548   -0.0821   -1.9454 H   0  0  0  0  0  0  0  0  0  0  0  0
   -0.2634   -0.2622   -3.0253 H   0  0  0  0  0  0  0  0  0  0  0  0
   -1.1018   -2.1053   -2.3379 C   0  0  0  0  0  0  0  0  0  0  0  0
   -0.6238   -3.0198   -1.6930 O   0  0  0  0  0  0  0  0  0  0  0  0
   -1.9864   -2.3953   -3.2672 N   0  0  0  0  0  0  0  0  0  0  0  0
   -2.1916   -3.3741   -3.3691 H   0  0  0  0  0  0  0  0  0  0  0  0
   -2.4119   -1.6822   -3.8240 H   0  0  0  0  0  0  0  0  0  0  0  0
   -0.7011    1.2952    0.7149 C   0  0  0  0  0  0  0  0  0  0  0  0
   -1.5917    1.9198    0.1415 O   0  0  0  0  0  0  0  0  0  0  0  0
    0.1191    1.8675    1.6055 N   0  0  0  0  0  0  0  0  0  0  0  0
    0.8092    1.2861    2.0537 H   0  0  0  0  0  0  0  0  0  0  0  0
    0.0509    3.2769    1.9894 C   0  0  0  0  0  0  0  0  0  0  0  0
   -0.9494    3.5076    2.3640 H   0  0  0  0  0  0  0  0  0  0  0  0
    0.7844    3.4956    2.7668 H   0  0  0  0  0  0  0  0  0  0  0  0
    0.2468    3.9058    1.1193 H   0  0  0  0  0  0  0  0  0  0  0  0
  5  6  2  0  0  0  0
  5  7  1  0  0  0  0
  2  3  1  0  0  0  0
  2  4  1  0  0  0  0
  2  5  1  0  0  0  0
  1  2  1  0  0  0  0
 22 23  2  0  0  0  0
 22 24  1  0  0  0  0
 19 20  1  0  0  0  0
 19 21  1  0  0  0  0
 17 18  2  0  0  0  0
 17 19  1  0  0  0  0
 14 15  1  0  0  0  0
 14 16  1  0  0  0  0
 14 17  1  0  0  0  0
 11 12  1  0  0  0  0
 11 13  1  0  0  0  0
 11 14  1  0  0  0  0
  9 10  1  0  0  0  0
  9 11  1  0  0  0  0
  9 22  1  0  0  0  0
  7  8  1  0  0  0  0
  7  9  1  0  0  0  0
 26 27  1  0  0  0  0
 26 28  1  0  0  0  0
 26 29  1  0  0  0  0
 24 25  1  0  0  0  0
 24 26  1  0  0  0  0
M  END
$$$$
default_name
  -OEChem-02102213163D

 29 28  0     1  0  0  0  0  0999 V2000
   -3.3998   -3.6239    1.3678 H   0  0  0  0  0  0  0  0  0  0  0  0
   -3.3608   -2.6749    0.8348 C   0  0  0  0  0  0  0  0  0  0  0  0
   -4.0988   -1.9909    1.2498 H   0  0  0  0  0  0  0  0  0  0  0  0
   -3.5618   -2.8419   -0.2222 H   0  0  0  0  0  0  0  0  0  0  0  0
   -1.9818   -2.0809    0.9918 C   0  0  0  0  0  0  0  0  0  0  0  0
   -1.1288   -2.6669    1.6468 O   0  0  0  0  0  0  0  0  0  0  0  0
   -1.7648   -0.9089    0.3998 N   0  0  0  0  0  0  0  0  0  0  0  0
   -2.5238   -0.4719   -0.1032 H   0  0  0  0  0  0  0  0  0  0  0  0
   -0.4848   -0.1959    0.4138 C   0  0  1  0  0  0  0  0  0  0  0  0
    0.1386   -0.6144    1.2058 H   0  0  0  0  0  0  0  0  0  0  0  0
    0.2271   -0.4272   -0.9334 C   0  0  0  0  0  0  0  0  0  0  0  0
    0.8497    0.4442   -1.1468 H   0  0  0  0  0  0  0  0  0  0  0  0
    0.8780   -1.2986   -0.8477 H   0  0  0  0  0  0  0  0  0  0  0  0
   -0.7334   -0.6384   -2.1167 C   0  0  0  0  0  0  0  0  0  0  0  0
   -1.5265    0.1083   -2.0835 H   0  0  0  0  0  0  0  0  0  0  0  0
   -0.1798   -0.5171   -3.0477 H   0  0  0  0  0  0  0  0  0  0  0  0
   -1.3862   -2.0206   -2.1222 C   0  0  0  0  0  0  0  0  0  0  0  0
   -1.1152   -2.8917   -1.3170 O   0  0  0  0  0  0  0  0  0  0  0  0
   -2.2931   -2.2809   -3.0386 N   0  0  0  0  0  0  0  0  0  0  0  0
   -2.6898   -3.2035   -2.9951 H   0  0  0  0  0  0  0  0  0  0  0  0
   -2.5551   -1.6000   -3.7224 H   0  0  0  0  0  0  0  0  0  0  0  0
   -0.7011    1.2952    0.7149 C   0  0  0  0  0  0  0  0  0  0  0  0
   -1.5917    1.9198    0.1415 O   0  0  0  0  0  0  0  0  0  0  0  0
    0.1191    1.8675    1.6055 N   0  0  0  0  0  0  0  0  0  0  0  0
    0.8092    1.2861    2.0537 H   0  0  0  0  0  0  0  0  0  0  0  0
    0.0509    3.2769    1.9894 C   0  0  0  0  0  0  0  0  0  0  0  0
   -0.9494    3.5076    2.3640 H   0  0  0  0  0  0  0  0  0  0  0  0
    0.7844    3.4956    2.7668 H   0  0  0  0  0  0  0  0  0  0  0  0
    0.2468    3.9058    1.1193 H   0  0  0  0  0  0  0  0  0  0  0  0
  5  6  2  0  0  0  0
  5  7  1  0  0  0  0
  2  3  1  0  0  0  0
  2  4  1  0  0  0  0
  2  5  1  0  0  0  0
  1  2  1  0  0  0  0
 22 23  2  0  0  0  0
 22 24  1  0  0  0  0
 19 20  1  0  0  0  0
 19 21  1  0  0  0  0
 17 18  2  0  0  0  0
 17 19  1  0  0  0  0
 14 15  1  0  0  0  0
 14 16  1  0  0  0  0
 14 17  1  0  0  0  0
 11 12  1  0  0  0  0
 11 13  1  0  0  0  0
 11 14  1  0  0  0  0
  9 10  1  0  0  0  0
  9 11  1  0  0  0  0
  9 22  1  0  0  0  0
  7  8  1  0  0  0  0
  7  9  1  0  0  0  0
 26 27  1  0  0  0  0
 26 28  1  0  0  0  0
 26 29  1  0  0  0  0
 24 25  1  0  0  0  0
 24 26  1  0  0  0  0
M  END
$$$$
default_name
  -OEChem-02102213163D

 29 28  0     1  0  0  0  0  0999 V2000
   -3.3998   -3.6239    1.3678 H   0  0  0  0  0  0  0  0  0  0  0  0
   -3.3608   -2.6749    0.8348 C   0  0  0  0  0  0  0  0  0  0  0  0
   -4.0988   -1.9909    1.2498 H   0  0  0  0  0  0  0  0  0  0  0  0
   -3.5618   -2.8419   -0.2222 H   0  0  0  0  0  0  0  0  0  0  0  0
   -1.9818   -2.0809    0.9918 C   0  0  0  0  0  0  0  0  0  0  0  0
   -1.1288   -2.6669    1.6468 O   0  0  0  0  0  0  0  0  0  0  0  0
   -1.7648   -0.9089    0.3998 N   0  0  0  0  0  0  0  0  0  0  0  0
   -2.5238   -0.4719   -0.1032 H   0  0  0  0  0  0  0  0  0  0  0  0
   -0.4848   -0.1959    0.4138 C   0  0  1  0  0  0  0  0  0  0  0  0
    0.1386   -0.6144    1.2058 H   0  0  0  0  0  0  0  0  0  0  0  0
    0.2271   -0.4272   -0.9334 C   0  0  0  0  0  0  0  0  0  0  0  0
    0.8497    0.4442   -1.1468 H   0  0  0  0  0  0  0  0  0  0  0  0
    0.8780   -1.2986   -0.8477 H   0  0  0  0  0  0  0  0  0  0  0  0
   -0.7334   -0.6384   -2.1167 C   0  0  0  0  0  0  0  0  0  0  0  0
   -1.3599    0.2444   -2.2430 H   0  0  0  0  0  0  0  0  0  0  0  0
   -0.1490   -0.7835   -3.0252 H   0  0  0  0  0  0  0  0  0  0  0  0
   -1.6517   -1.8472   -1.9376 C   0  0  0  0  0  0  0  0  0  0  0  0
   -1.5777   -2.6094   -0.9920 O   0  0  0  0  0  0  0  0  0  0  0  0
   -2.5747   -2.0723   -2.8472 N   0  0  0  0  0  0  0  0  0  0  0  0
   -3.1503   -2.8791   -2.6791 H   0  0  0  0  0  0  0  0  0  0  0  0
   -2.6806   -1.4758   -3.6426 H   0  0  0  0  0  0  0  0  0  0  0  0
   -0.7011    1.2952    0.7149 C   0  0  0  0  0  0  0  0  0  0  0  0
   -1.5917    1.9198    0.1415 O   0  0  0  0  0  0  0  0  0  0  0  0
    0.1191    1.8675    1.6055 N   0  0  0  0  0  0  0  0  0  0  0  0
    0.8092    1.2861    2.0537 H   0  0  0  0  0  0  0  0  0  0  0  0
    0.0509    3.2769    1.9894 C   0  0  0  0  0  0  0  0  0  0  0  0
   -0.9494    3.5076    2.3640 H   0  0  0  0  0  0  0  0  0  0  0  0
    0.7844    3.4956    2.7668 H   0  0  0  0  0  0  0  0  0  0  0  0
    0.2468    3.9058    1.1193 H   0  0  0  0  0  0  0  0  0  0  0  0
  5  6  2  0  0  0  0
  5  7  1  0  0  0  0
  2  3  1  0  0  0  0
  2  4  1  0  0  0  0
  2  5  1  0  0  0  0
  1  2  1  0  0  0  0
 22 23  2  0  0  0  0
 22 24  1  0  0  0  0
 19 20  1  0  0  0  0
 19 21  1  0  0  0  0
 17 18  2  0  0  0  0
 17 19  1  0  0  0  0
 14 15  1  0  0  0  0
 14 16  1  0  0  0  0
 14 17  1  0  0  0  0
 11 12  1  0  0  0  0
 11 13  1  0  0  0  0
 11 14  1  0  0  0  0
  9 10  1  0  0  0  0
  9 11  1  0  0  0  0
  9 22  1  0  0  0  0
  7  8  1  0  0  0  0
  7  9  1  0  0  0  0
 26 27  1  0  0  0  0
 26 28  1  0  0  0  0
 26 29  1  0  0  0  0
 24 25  1  0  0  0  0
 24 26  1  0  0  0  0
M  END
$$$$
default_name
  -OEChem-02102213163D

 29 28  0     1  0  0  0  0  0999 V2000
   -3.3998   -3.6239    1.3678 H   0  0  0  0  0  0  0  0  0  0  0  0
   -3.3608   -2.6749    0.8348 C   0  0  0  0  0  0  0  0  0  0  0  0
   -4.0988   -1.9909    1.2498 H   0  0  0  0  0  0  0  0  0  0  0  0
   -3.5618   -2.8419   -0.2222 H   0  0  0  0  0  0  0  0  0  0  0  0
   -1.9818   -2.0809    0.9918 C   0  0  0  0  0  0  0  0  0  0  0  0
   -1.1288   -2.6669    1.6468 O   0  0  0  0  0  0  0  0  0  0  0  0
   -1.7648   -0.9089    0.3998 N   0  0  0  0  0  0  0  0  0  0  0  0
   -2.5238   -0.4719   -0.1032 H   0  0  0  0  0  0  0  0  0  0  0  0
   -0.4848   -0.1959    0.4138 C   0  0  1  0  0  0  0  0  0  0  0  0
    0.1386   -0.6144    1.2058 H   0  0  0  0  0  0  0  0  0  0  0  0
    0.2271   -0.4272   -0.9334 C   0  0  0  0  0  0  0  0  0  0  0  0
    0.8497    0.4442   -1.1468 H   0  0  0  0  0  0  0  0  0  0  0  0
    0.8780   -1.2986   -0.8477 H   0  0  0  0  0  0  0  0  0  0  0  0
   -0.7334   -0.6384   -2.1167 C   0  0  0  0  0  0  0  0  0  0  0  0
   -1.1662    0.3169   -2.4132 H   0  0  0  0  0  0  0  0  0  0  0  0
   -0.1730   -1.0433   -2.9593 H   0  0  0  0  0  0  0  0  0  0  0  0
   -1.8801   -1.5971   -1.7968 C   0  0  0  0  0  0  0  0  0  0  0  0
   -1.9798   -2.1922   -0.7401 O   0  0  0  0  0  0  0  0  0  0  0  0
   -2.8121   -1.7839   -2.7061 N   0  0  0  0  0  0  0  0  0  0  0  0
   -3.5419   -2.4231   -2.4427 H   0  0  0  0  0  0  0  0  0  0  0  0
   -2.7800   -1.3180   -3.5901 H   0  0  0  0  0  0  0  0  0  0  0  0
   -0.7011    1.2952    0.7149 C   0  0  0  0  0  0  0  0  0  0  0  0
   -1.5917    1.9198    0.1415 O   0  0  0  0  0  0  0  0  0  0  0  0
    0.1191    1.8675    1.6055 N   0  0  0  0  0  0  0  0  0  0  0  0
    0.8092    1.2861    2.0537 H   0  0  0  0  0  0  0  0  0  0  0  0
    0.0509    3.2769    1.9894 C   0  0  0  0  0  0  0  0  0  0  0  0
   -0.9494    3.5076    2.3640 H   0  0  0  0  0  0  0  0  0  0  0  0
    0.7844    3.4956    2.7668 H   0  0  0  0  0  0  0  0  0  0  0  0
    0.2468    3.9058    1.1193 H   0  0  0  0  0  0  0  0  0  0  0  0
  5  6  2  0  0  0  0
  5  7  1  0  0  0  0
  2  3  1  0  0  0  0
  2  4  1  0  0  0  0
  2  5  1  0  0  0  0
  1  2  1  0  0  0  0
 22 23  2  0  0  0  0
 22 24  1  0  0  0  0
 19 20  1  0  0  0  0
 19 21  1  0  0  0  0
 17 18  2  0  0  0  0
 17 19  1  0  0  0  0
 14 15  1  0  0  0  0
 14 16  1  0  0  0  0
 14 17  1  0  0  0  0
 11 12  1  0  0  0  0
 11 13  1  0  0  0  0
 11 14  1  0  0  0  0
  9 10  1  0  0  0  0
  9 11  1  0  0  0  0
  9 22  1  0  0  0  0
  7  8  1  0  0  0  0
  7  9  1  0  0  0  0
 26 27  1  0  0  0  0
 26 28  1  0  0  0  0
 26 29  1  0  0  0  0
 24 25  1  0  0  0  0
 24 26  1  0  0  0  0
M  END
$$$$
default_name
  -OEChem-02102213163D

 29 28  0     1  0  0  0  0  0999 V2000
   -3.3998   -3.6239    1.3678 H   0  0  0  0  0  0  0  0  0  0  0  0
   -3.3608   -2.6749    0.8348 C   0  0  0  0  0  0  0  0  0  0  0  0
   -4.0988   -1.9909    1.2498 H   0  0  0  0  0  0  0  0  0  0  0  0
   -3.5618   -2.8419   -0.2222 H   0  0  0  0  0  0  0  0  0  0  0  0
   -1.9818   -2.0809    0.9918 C   0  0  0  0  0  0  0  0  0  0  0  0
   -1.1288   -2.6669    1.6468 O   0  0  0  0  0  0  0  0  0  0  0  0
   -1.7648   -0.9089    0.3998 N   0  0  0  0  0  0  0  0  0  0  0  0
   -2.5238   -0.4719   -0.1032 H   0  0  0  0  0  0  0  0  0  0  0  0
   -0.4848   -0.1959    0.4138 C   0  0  1  0  0  0  0  0  0  0  0  0
    0.1386   -0.6144    1.2058 H   0  0  0  0  0  0  0  0  0  0  0  0
    0.2271   -0.4272   -0.9334 C   0  0  0  0  0  0  0  0  0  0  0  0
    0.8497    0.4442   -1.1468 H   0  0  0  0  0  0  0  0  0  0  0  0
    0.8780   -1.2986   -0.8477 H   0  0  0  0  0  0  0  0  0  0  0  0
   -0.7334   -0.6384   -2.1167 C   0  0  0  0  0  0  0  0  0  0  0  0
   -0.9585    0.3208   -2.5825 H   0  0  0  0  0  0  0  0  0  0  0  0
   -0.2503   -1.2788   -2.8545 H   0  0  0  0  0  0  0  0  0  0  0  0
   -2.0561   -1.2873   -1.7092 C   0  0  0  0  0  0  0  0  0  0  0  0
   -2.2941   -1.6684   -0.5784 O   0  0  0  0  0  0  0  0  0  0  0  0
   -2.9889   -1.4353   -2.6247 N   0  0  0  0  0  0  0  0  0  0  0  0
   -3.8377   -1.8665   -2.3020 H   0  0  0  0  0  0  0  0  0  0  0  0
   -2.8465   -1.1372   -3.5684 H   0  0  0  0  0  0  0  0  0  0  0  0
   -0.7011    1.2952    0.7149 C   0  0  0  0  0  0  0  0  0  0  0  0
   -1.5917    1.9198    0.1415 O   0  0  0  0  0  0  0  0  0  0  0  0
    0.1191    1.8675    1.6055 N   0  0  0  0  0  0  0  0  0  0  0  0
    0.8092    1.2861    2.0537 H   0  0  0  0  0  0  0  0  0  0  0  0
    0.0509    3.2769    1.9894 C   0  0  0  0  0  0  0  0  0  0  0  0
   -0.9494    3.5076    2.3640 H   0  0  0  0  0  0  0  0  0  0  0  0
    0.7844    3.4956    2.7668 H   0  0  0  0  0  0  0  0  0  0  0  0
    0.2468    3.9058    1.1193 H   0  0  0  0  0  0  0  0  0  0  0  0
  5  6  2  0  0  0  0
  5  7  1  0  0  0  0
  2  3  1  0  0  0  0
  2  4  1  0  0  0  0
  2  5  1  0  0  0  0
  1  2  1  0  0  0  0
 22 23  2  0  0  0  0
 22 24  1  0  0  0  0
 19 20  1  0  0  0  0
 19 21  1  0  0  0  0
 17 18  2  0  0  0  0
 17 19  1  0  0  0  0
 14 15  1  0  0  0  0
 14 16  1  0  0  0  0
 14 17  1  0  0  0  0
 11 12  1  0  0  0  0
 11 13  1  0  0  0  0
 11 14  1  0  0  0  0
  9 10  1  0  0  0  0
  9 11  1  0  0  0  0
  9 22  1  0  0  0  0
  7  8  1  0  0  0  0
  7  9  1  0  0  0  0
 26 27  1  0  0  0  0
 26 28  1  0  0  0  0
 26 29  1  0  0  0  0
 24 25  1  0  0  0  0
 24 26  1  0  0  0  0
M  END
$$$$
default_name
  -OEChem-02102213163D

 29 28  0     1  0  0  0  0  0999 V2000
   -3.3998   -3.6239    1.3678 H   0  0  0  0  0  0  0  0  0  0  0  0
   -3.3608   -2.6749    0.8348 C   0  0  0  0  0  0  0  0  0  0  0  0
   -4.0988   -1.9909    1.2498 H   0  0  0  0  0  0  0  0  0  0  0  0
   -3.5618   -2.8419   -0.2222 H   0  0  0  0  0  0  0  0  0  0  0  0
   -1.9818   -2.0809    0.9918 C   0  0  0  0  0  0  0  0  0  0  0  0
   -1.1288   -2.6669    1.6468 O   0  0  0  0  0  0  0  0  0  0  0  0
   -1.7648   -0.9089    0.3998 N   0  0  0  0  0  0  0  0  0  0  0  0
   -2.5238   -0.4719   -0.1032 H   0  0  0  0  0  0  0  0  0  0  0  0
   -0.4848   -0.1959    0.4138 C   0  0  1  0  0  0  0  0  0  0  0  0
    0.1386   -0.6144    1.2058 H   0  0  0  0  0  0  0  0  0  0  0  0
    0.2271   -0.4272   -0.9334 C   0  0  0  0  0  0  0  0  0  0  0  0
    0.8497    0.4442   -1.1468 H   0  0  0  0  0  0  0  0  0  0  0  0
    0.8780   -1.2986   -0.8477 H   0  0  0  0  0  0  0  0  0  0  0  0
   -0.7334   -0.6384   -2.1167 C   0  0  0  0  0  0  0  0  0  0  0  0
   -0.7512    0.2560   -2.7392 H   0  0  0  0  0  0  0  0  0  0  0  0
   -0.3755   -1.4740   -2.7180 H   0  0  0  0  0  0  0  0  0  0  0  0
   -2.1674   -0.9389   -1.6810 C   0  0  0  0  0  0  0  0  0  0  0  0
   -2.4991   -1.0738   -0.5181 O   0  0  0  0  0  0  0  0  0  0  0  0
   -3.0932   -1.0502   -2.6088 N   0  0  0  0  0  0  0  0  0  0  0  0
   -4.0176   -1.2472   -2.2664 H   0  0  0  0  0  0  0  0  0  0  0  0
   -2.8755   -0.9459   -3.5791 H   0  0  0  0  0  0  0  0  0  0  0  0
   -0.7011    1.2952    0.7149 C   0  0  0  0  0  0  0  0  0  0  0  0
   -1.5917    1.9198    0.1415 O   0  0  0  0  0  0  0  0  0  0  0  0
    0.1191    1.8675    1.6055 N   0  0  0  0  0  0  0  0  0  0  0  0
    0.8092    1.2861    2.0537 H   0  0  0  0  0  0  0  0  0  0  0  0
    0.0509    3.2769    1.9894 C   0  0  0  0  0  0  0  0  0  0  0  0
   -0.9494    3.5076    2.3640 H   0  0  0  0  0  0  0  0  0  0  0  0
    0.7844    3.4956    2.7668 H   0  0  0  0  0  0  0  0  0  0  0  0
    0.2468    3.9058    1.1193 H   0  0  0  0  0  0  0  0  0  0  0  0
  5  6  2  0  0  0  0
  5  7  1  0  0  0  0
  2  3  1  0  0  0  0
  2  4  1  0  0  0  0
  2  5  1  0  0  0  0
  1  2  1  0  0  0  0
 22 23  2  0  0  0  0
 22 24  1  0  0  0  0
 19 20  1  0  0  0  0
 19 21  1  0  0  0  0
 17 18  2  0  0  0  0
 17 19  1  0  0  0  0
 14 15  1  0  0  0  0
 14 16  1  0  0  0  0
 14 17  1  0  0  0  0
 11 12  1  0  0  0  0
 11 13  1  0  0  0  0
 11 14  1  0  0  0  0
  9 10  1  0  0  0  0
  9 11  1  0  0  0  0
  9 22  1  0  0  0  0
  7  8  1  0  0  0  0
  7  9  1  0  0  0  0
 26 27  1  0  0  0  0
 26 28  1  0  0  0  0
 26 29  1  0  0  0  0
 24 25  1  0  0  0  0
 24 26  1  0  0  0  0
M  END
$$$$
default_name
  -OEChem-02102213163D

 29 28  0     1  0  0  0  0  0999 V2000
   -3.3998   -3.6239    1.3678 H   0  0  0  0  0  0  0  0  0  0  0  0
   -3.3608   -2.6749    0.8348 C   0  0  0  0  0  0  0  0  0  0  0  0
   -4.0988   -1.9909    1.2498 H   0  0  0  0  0  0  0  0  0  0  0  0
   -3.5618   -2.8419   -0.2222 H   0  0  0  0  0  0  0  0  0  0  0  0
   -1.9818   -2.0809    0.9918 C   0  0  0  0  0  0  0  0  0  0  0  0
   -1.1288   -2.6669    1.6468 O   0  0  0  0  0  0  0  0  0  0  0  0
   -1.7648   -0.9089    0.3998 N   0  0  0  0  0  0  0  0  0  0  0  0
   -2.5238   -0.4719   -0.1032 H   0  0  0  0  0  0  0  0  0  0  0  0
   -0.4848   -0.1959    0.4138 C   0  0  1  0  0  0  0  0  0  0  0  0
    0.1386   -0.6144    1.2058 H   0  0  0  0  0  0  0  0  0  0  0  0
    0.2271   -0.4272   -0.9334 C   0  0  0  0  0  0  0  0  0  0  0  0
    0.8497    0.4442   -1.1468 H   0  0  0  0  0  0  0  0  0  0  0  0
    0.8780   -1.2986   -0.8477 H   0  0  0  0  0  0  0  0  0  0  0  0
   -0.7334   -0.6384   -2.1167 C   0  0  0  0  0  0  0  0  0  0  0  0
   -0.5583    0.1268   -2.8727 H   0  0  0  0  0  0  0  0  0  0  0  0
   -0.5402   -1.6156   -2.5591 H   0  0  0  0  0  0  0  0  0  0  0  0
   -2.2067   -0.5757   -1.7140 C   0  0  0  0  0  0  0  0  0  0  0  0
   -2.5810   -0.4489   -0.5632 O   0  0  0  0  0  0  0  0  0  0  0  0
   -3.1179   -0.6549   -2.6593 N   0  0  0  0  0  0  0  0  0  0  0  0
   -4.0694   -0.6074   -2.3386 H   0  0  0  0  0  0  0  0  0  0  0  0
   -2.8650   -0.7570   -3.6213 H   0  0  0  0  0  0  0  0  0  0  0  0
   -0.7011    1.2952    0.7149 C   0  0  0  0  0  0  0  0  0  0  0  0
   -1.5917    1.9198    0.1415 O   0  0  0  0  0  0  0  0  0  0  0  0
    0.1191    1.8675    1.6055 N   0  0  0  0  0  0  0  0  0  0  0  0
    0.8092    1.2861    2.0537 H   0  0  0  0  0  0  0  0  0  0  0  0
    0.0509    3.2769    1.9894 C   0  0  0  0  0  0  0  0  0  0  0  0
   -0.9494    3.5076    2.3640 H   0  0  0  0  0  0  0  0  0  0  0  0
    0.7844    3.4956    2.7668 H   0  0  0  0  0  0  0  0  0  0  0  0
    0.2468    3.9058    1.1193 H   0  0  0  0  0  0  0  0  0  0  0  0
  5  6  2  0  0  0  0
  5  7  1  0  0  0  0
  2  3  1  0  0  0  0
  2  4  1  0  0  0  0
  2  5  1  0  0  0  0
  1  2  1  0  0  0  0
 22 23  2  0  0  0  0
 22 24  1  0  0  0  0
 19 20  1  0  0  0  0
 19 21  1  0  0  0  0
 17 18  2  0  0  0  0
 17 19  1  0  0  0  0
 14 15  1  0  0  0  0
 14 16  1  0  0  0  0
 14 17  1  0  0  0  0
 11 12  1  0  0  0  0
 11 13  1  0  0  0  0
 11 14  1  0  0  0  0
  9 10  1  0  0  0  0
  9 11  1  0  0  0  0
  9 22  1  0  0  0  0
  7  8  1  0  0  0  0
  7  9  1  0  0  0  0
 26 27  1  0  0  0  0
 26 28  1  0  0  0  0
 26 29  1  0  0  0  0
 24 25  1  0  0  0  0
 24 26  1  0  0  0  0
M  END
$$$$
default_name
  -OEChem-02102213163D

 29 28  0     1  0  0  0  0  0999 V2000
   -3.3998   -3.6239    1.3678 H   0  0  0  0  0  0  0  0  0  0  0  0
   -3.3608   -2.6749    0.8348 C   0  0  0  0  0  0  0  0  0  0  0  0
   -4.0988   -1.9909    1.2498 H   0  0  0  0  0  0  0  0  0  0  0  0
   -3.5618   -2.8419   -0.2222 H   0  0  0  0  0  0  0  0  0  0  0  0
   -1.9818   -2.0809    0.9918 C   0  0  0  0  0  0  0  0  0  0  0  0
   -1.1288   -2.6669    1.6468 O   0  0  0  0  0  0  0  0  0  0  0  0
   -1.7648   -0.9089    0.3998 N   0  0  0  0  0  0  0  0  0  0  0  0
   -2.5238   -0.4719   -0.1032 H   0  0  0  0  0  0  0  0  0  0  0  0
   -0.4848   -0.1959    0.4138 C   0  0  1  0  0  0  0  0  0  0  0  0
    0.1386   -0.6144    1.2058 H   0  0  0  0  0  0  0  0  0  0  0  0
    0.2271   -0.4272   -0.9334 C   0  0  0  0  0  0  0  0  0  0  0  0
    0.8497    0.4442   -1.1468 H   0  0  0  0  0  0  0  0  0  0  0  0
    0.8780   -1.2986   -0.8477 H   0  0  0  0  0  0  0  0  0  0  0  0
   -0.7334   -0.6384   -2.1167 C   0  0  0  0  0  0  0  0  0  0  0  0
   -0.3929   -0.0580   -2.9740 H   0  0  0  0  0  0  0  0  0  0  0  0
   -0.7332   -1.6939   -2.3885 H   0  0  0  0  0  0  0  0  0  0  0  0
   -2.1711   -0.2223   -1.8060 C   0  0  0  0  0  0  0  0  0  0  0  0
   -2.5341    0.1637   -0.7106 O   0  0  0  0  0  0  0  0  0  0  0  0
   -3.0612   -0.2763   -2.7729 N   0  0  0  0  0  0  0  0  0  0  0  0
   -3.9895    0.0092   -2.5134 H   0  0  0  0  0  0  0  0  0  0  0  0
   -2.8158   -0.5835   -3.6922 H   0  0  0  0  0  0  0  0  0  0  0  0
   -0.7011    1.2952    0.7149 C   0  0  0  0  0  0  0  0  0  0  0  0
   -1.5917    1.9198    0.1415 O   0  0  0  0  0  0  0  0  0  0  0  0
    0.1191    1.8675    1.6055 N   0  0  0  0  0  0  0  0  0  0  0  0
    0.8092    1.2861    2.0537 H   0  0  0  0  0  0  0  0  0  0  0  0
    0.0509    3.2769    1.9894 C   0  0  0  0  0  0  0  0  0  0  0  0
   -0.9494    3.5076    2.3640 H   0  0  0  0  0  0  0  0  0  0  0  0
    0.7844    3.4956    2.7668 H   0  0  0  0  0  0  0  0  0  0  0  0
    0.2468    3.9058    1.1193 H   0  0  0  0  0  0  0  0  0  0  0  0
  5  6  2  0  0  0  0
  5  7  1  0  0  0  0
  2  3  1  0  0  0  0
  2  4  1  0  0  0  0
  2  5  1  0  0  0  0
  1  2  1  0  0  0  0
 22 23  2  0  0  0  0
 22 24  1  0  0  0  0
 19 20  1  0  0  0  0
 19 21  1  0  0  0  0
 17 18  2  0  0  0  0
 17 19  1  0  0  0  0
 14 15  1  0  0  0  0
 14 16  1  0  0  0  0
 14 17  1  0  0  0  0
 11 12  1  0  0  0  0
 11 13  1  0  0  0  0
 11 14  1  0  0  0  0
  9 10  1  0  0  0  0
  9 11  1  0  0  0  0
  9 22  1  0  0  0  0
  7  8  1  0  0  0  0
  7  9  1  0  0  0  0
 26 27  1  0  0  0  0
 26 28  1  0  0  0  0
 26 29  1  0  0  0  0
 24 25  1  0  0  0  0
 24 26  1  0  0  0  0
M  END
$$$$
default_name
  -OEChem-02102213163D

 29 28  0     1  0  0  0  0  0999 V2000
   -3.3998   -3.6239    1.3678 H   0  0  0  0  0  0  0  0  0  0  0  0
   -3.3608   -2.6749    0.8348 C   0  0  0  0  0  0  0  0  0  0  0  0
   -4.0988   -1.9909    1.2498 H   0  0  0  0  0  0  0  0  0  0  0  0
   -3.5618   -2.8419   -0.2222 H   0  0  0  0  0  0  0  0  0  0  0  0
   -1.9818   -2.0809    0.9918 C   0  0  0  0  0  0  0  0  0  0  0  0
   -1.1288   -2.6669    1.6468 O   0  0  0  0  0  0  0  0  0  0  0  0
   -1.7648   -0.9089    0.3998 N   0  0  0  0  0  0  0  0  0  0  0  0
   -2.5238   -0.4719   -0.1032 H   0  0  0  0  0  0  0  0  0  0  0  0
   -0.4848   -0.1959    0.4138 C   0  0  1  0  0  0  0  0  0  0  0  0
    0.1386   -0.6144    1.2058 H   0  0  0  0  0  0  0  0  0  0  0  0
    0.2271   -0.4272   -0.9334 C   0  0  0  0  0  0  0  0  0  0  0  0
    0.8497    0.4442   -1.1468 H   0  0  0  0  0  0  0  0  0  0  0  0
    0.8780   -1.2986   -0.8477 H   0  0  0  0  0  0  0  0  0  0  0  0
   -0.7334   -0.6384   -2.1167 C   0  0  0  0  0  0  0  0  0  0  0  0
   -0.2664   -0.2858   -3.0361 H   0  0  0  0  0  0  0  0  0  0  0  0
   -0.9411   -1.7035   -2.2180 H   0  0  0  0  0  0  0  0  0  0  0  0
   -2.0631    0.0971   -1.9506 C   0  0  0  0  0  0  0  0  0  0  0  0
   -2.3616    0.7223   -0.9503 O   0  0  0  0  0  0  0  0  0  0  0  0
   -2.9271    0.0598   -2.9417 N   0  0  0  0  0  0  0  0  0  0  0  0
   -3.7834    0.5606   -2.7791 H   0  0  0  0  0  0  0  0  0  0  0  0
   -2.7312   -0.4371   -3.7870 H   0  0  0  0  0  0  0  0  0  0  0  0
   -0.7011    1.2952    0.7149 C   0  0  0  0  0  0  0  0  0  0  0  0
   -1.5917    1.9198    0.1415 O   0  0  0  0  0  0  0  0  0  0  0  0
    0.1191    1.8675    1.6055 N   0  0  0  0  0  0  0  0  0  0  0  0
    0.8092    1.2861    2.0537 H   0  0  0  0  0  0  0  0  0  0  0  0
    0.0509    3.2769    1.9894 C   0  0  0  0  0  0  0  0  0  0  0  0
   -0.9494    3.5076    2.3640 H   0  0  0  0  0  0  0  0  0  0  0  0
    0.7844    3.4956    2.7668 H   0  0  0  0  0  0  0  0  0  0  0  0
    0.2468    3.9058    1.1193 H   0  0  0  0  0  0  0  0  0  0  0  0
  5  6  2  0  0  0  0
  5  7  1  0  0  0  0
  2  3  1  0  0  0  0
  2  4  1  0  0  0  0
  2  5  1  0  0  0  0
  1  2  1  0  0  0  0
 22 23  2  0  0  0  0
 22 24  1  0  0  0  0
 19 20  1  0  0  0  0
 19 21  1  0  0  0  0
 17 18  2  0  0  0  0
 17 19  1  0  0  0  0
 14 15  1  0  0  0  0
 14 16  1  0  0  0  0
 14 17  1  0  0  0  0
 11 12  1  0  0  0  0
 11 13  1  0  0  0  0
 11 14  1  0  0  0  0
  9 10  1  0  0  0  0
  9 11  1  0  0  0  0
  9 22  1  0  0  0  0
  7  8  1  0  0  0  0
  7  9  1  0  0  0  0
 26 27  1  0  0  0  0
 26 28  1  0  0  0  0
 26 29  1  0  0  0  0
 24 25  1  0  0  0  0
 24 26  1  0  0  0  0
M  END
$$$$
default_name
  -OEChem-02102213163D

 29 28  0     1  0  0  0  0  0999 V2000
   -3.3998   -3.6239    1.3678 H   0  0  0  0  0  0  0  0  0  0  0  0
   -3.3608   -2.6749    0.8348 C   0  0  0  0  0  0  0  0  0  0  0  0
   -4.0988   -1.9909    1.2498 H   0  0  0  0  0  0  0  0  0  0  0  0
   -3.5618   -2.8419   -0.2222 H   0  0  0  0  0  0  0  0  0  0  0  0
   -1.9818   -2.0809    0.9918 C   0  0  0  0  0  0  0  0  0  0  0  0
   -1.1288   -2.6669    1.6468 O   0  0  0  0  0  0  0  0  0  0  0  0
   -1.7648   -0.9089    0.3998 N   0  0  0  0  0  0  0  0  0  0  0  0
   -2.5238   -0.4719   -0.1032 H   0  0  0  0  0  0  0  0  0  0  0  0
   -0.4848   -0.1959    0.4138 C   0  0  1  0  0  0  0  0  0  0  0  0
    0.1386   -0.6144    1.2058 H   0  0  0  0  0  0  0  0  0  0  0  0
    0.2271   -0.4272   -0.9334 C   0  0  0  0  0  0  0  0  0  0  0  0
    0.8497    0.4442   -1.1468 H   0  0  0  0  0  0  0  0  0  0  0  0
    0.8780   -1.2986   -0.8477 H   0  0  0  0  0  0  0  0  0  0  0  0
   -0.7334   -0.6384   -2.1167 C   0  0  0  0  0  0  0  0  0  0  0  0
   -0.1872   -0.5411   -3.0547 H   0  0  0  0  0  0  0  0  0  0  0  0
   -1.1500   -1.6439   -2.0591 H   0  0  0  0  0  0  0  0  0  0  0  0
   -1.8901    0.3607   -2.1381 C   0  0  0  0  0  0  0  0  0  0  0  0
   -2.0753    1.1888   -1.2660 O   0  0  0  0  0  0  0  0  0  0  0  0
   -2.7247    0.3304   -3.1543 N   0  0  0  0  0  0  0  0  0  0  0  0
   -3.4652    1.0093   -3.1176 H   0  0  0  0  0  0  0  0  0  0  0  0
   -2.6170   -0.3279   -3.8991 H   0  0  0  0  0  0  0  0  0  0  0  0
   -0.7011    1.2952    0.7149 C   0  0  0  0  0  0  0  0  0  0  0  0
   -1.5917    1.9198    0.1415 O   0  0  0  0  0  0  0  0  0  0  0  0
    0.1191    1.8675    1.6055 N   0  0  0  0  0  0  0  0  0  0  0  0
    0.8092    1.2861    2.0537 H   0  0  0  0  0  0  0  0  0  0  0  0
    0.0509    3.2769    1.9894 C   0  0  0  0  0  0  0  0  0  0  0  0
   -0.9494    3.5076    2.3640 H   0  0  0  0  0  0  0  0  0  0  0  0
    0.7844    3.4956    2.7668 H   0  0  0  0  0  0  0  0  0  0  0  0
    0.2468    3.9058    1.1193 H   0  0  0  0  0  0  0  0  0  0  0  0
  5  6  2  0  0  0  0
  5  7  1  0  0  0  0
  2  3  1  0  0  0  0
  2  4  1  0  0  0  0
  2  5  1  0  0  0  0
  1  2  1  0  0  0  0
 22 23  2  0  0  0  0
 22 24  1  0  0  0  0
 19 20  1  0  0  0  0
 19 21  1  0  0  0  0
 17 18  2  0  0  0  0
 17 19  1  0  0  0  0
 14 15  1  0  0  0  0
 14 16  1  0  0  0  0
 14 17  1  0  0  0  0
 11 12  1  0  0  0  0
 11 13  1  0  0  0  0
 11 14  1  0  0  0  0
  9 10  1  0  0  0  0
  9 11  1  0  0  0  0
  9 22  1  0  0  0  0
  7  8  1  0  0  0  0
  7  9  1  0  0  0  0
 26 27  1  0  0  0  0
 26 28  1  0  0  0  0
 26 29  1  0  0  0  0
 24 25  1  0  0  0  0
 24 26  1  0  0  0  0
M  END
$$$$
default_name
  -OEChem-02102213163D

 29 28  0     1  0  0  0  0  0999 V2000
   -3.3998   -3.6239    1.3678 H   0  0  0  0  0  0  0  0  0  0  0  0
   -3.3608   -2.6749    0.8348 C   0  0  0  0  0  0  0  0  0  0  0  0
   -4.0988   -1.9909    1.2498 H   0  0  0  0  0  0  0  0  0  0  0  0
   -3.5618   -2.8419   -0.2222 H   0  0  0  0  0  0  0  0  0  0  0  0
   -1.9818   -2.0809    0.9918 C   0  0  0  0  0  0  0  0  0  0  0  0
   -1.1288   -2.6669    1.6468 O   0  0  0  0  0  0  0  0  0  0  0  0
   -1.7648   -0.9089    0.3998 N   0  0  0  0  0  0  0  0  0  0  0  0
   -2.5238   -0.4719   -0.1032 H   0  0  0  0  0  0  0  0  0  0  0  0
   -0.4848   -0.1959    0.4138 C   0  0  1  0  0  0  0  0  0  0  0  0
    0.1386   -0.6144    1.2058 H   0  0  0  0  0  0  0  0  0  0  0  0
    0.2271   -0.4272   -0.9334 C   0  0  0  0  0  0  0  0  0  0  0  0
    0.8497    0.4442   -1.1468 H   0  0  0  0  0  0  0  0  0  0  0  0
    0.8780   -1.2986   -0.8477 H   0  0  0  0  0  0  0  0  0  0  0  0
   -0.7334   -0.6384   -2.1167 C   0  0  0  0  0  0  0  0  0  0  0  0
   -0.1610   -0.8064   -3.0287 H   0  0  0  0  0  0  0  0  0  0  0  0
   -1.3455   -1.5191   -1.9226 H   0  0  0  0  0  0  0  0  0  0  0  0
   -1.6639    0.5507   -2.3556 C   0  0  0  0  0  0  0  0  0  0  0  0
   -1.6946    1.5314   -1.6361 O   0  0  0  0  0  0  0  0  0  0  0  0
   -2.4677    0.5172   -3.3963 N   0  0  0  0  0  0  0  0  0  0  0  0
   -3.0564    1.3247   -3.5057 H   0  0  0  0  0  0  0  0  0  0  0  0
   -2.4810   -0.2633   -4.0211 H   0  0  0  0  0  0  0  0  0  0  0  0
   -0.7011    1.2952    0.7149 C   0  0  0  0  0  0  0  0  0  0  0  0
   -1.5917    1.9198    0.1415 O   0  0  0  0  0  0  0  0  0  0  0  0
    0.1191    1.8675    1.6055 N   0  0  0  0  0  0  0  0  0  0  0  0
    0.8092    1.2861    2.0537 H   0  0  0  0  0  0  0  0  0  0  0  0
    0.0509    3.2769    1.9894 C   0  0  0  0  0  0  0  0  0  0  0  0
   -0.9494    3.5076    2.3640 H   0  0  0  0  0  0  0  0  0  0  0  0
    0.7844    3.4956    2.7668 H   0  0  0  0  0  0  0  0  0  0  0  0
    0.2468    3.9058    1.1193 H   0  0  0  0  0  0  0  0  0  0  0  0
  5  6  2  0  0  0  0
  5  7  1  0  0  0  0
  2  3  1  0  0  0  0
  2  4  1  0  0  0  0
  2  5  1  0  0  0  0
  1  2  1  0  0  0  0
 22 23  2  0  0  0  0
 22 24  1  0  0  0  0
 19 20  1  0  0  0  0
 19 21  1  0  0  0  0
 17 18  2  0  0  0  0
 17 19  1  0  0  0  0
 14 15  1  0  0  0  0
 14 16  1  0  0  0  0
 14 17  1  0  0  0  0
 11 12  1  0  0  0  0
 11 13  1  0  0  0  0
 11 14  1  0  0  0  0
  9 10  1  0  0  0  0
  9 11  1  0  0  0  0
  9 22  1  0  0  0  0
  7  8  1  0  0  0  0
  7  9  1  0  0  0  0
 26 27  1  0  0  0  0
 26 28  1  0  0  0  0
 26 29  1  0  0  0  0
 24 25  1  0  0  0  0
 24 26  1  0  0  0  0
M  END
$$$$
default_name
  -OEChem-02102213163D

 29 28  0     1  0  0  0  0  0999 V2000
   -3.3998   -3.6239    1.3678 H   0  0  0  0  0  0  0  0  0  0  0  0
   -3.3608   -2.6749    0.8348 C   0  0  0  0  0  0  0  0  0  0  0  0
   -4.0988   -1.9909    1.2498 H   0  0  0  0  0  0  0  0  0  0  0  0
   -3.5618   -2.8419   -0.2222 H   0  0  0  0  0  0  0  0  0  0  0  0
   -1.9818   -2.0809    0.9918 C   0  0  0  0  0  0  0  0  0  0  0  0
   -1.1288   -2.6669    1.6468 O   0  0  0  0  0  0  0  0  0  0  0  0
   -1.7648   -0.9089    0.3998 N   0  0  0  0  0  0  0  0  0  0  0  0
   -2.5238   -0.4719   -0.1032 H   0  0  0  0  0  0  0  0  0  0  0  0
   -0.4848   -0.1959    0.4138 C   0  0  1  0  0  0  0  0  0  0  0  0
    0.1386   -0.6144    1.2058 H   0  0  0  0  0  0  0  0  0  0  0  0
    0.2271   -0.4272   -0.9334 C   0  0  0  0  0  0  0  0  0  0  0  0
    0.8497    0.4442   -1.1468 H   0  0  0  0  0  0  0  0  0  0  0  0
    0.8780   -1.2986   -0.8477 H   0  0  0  0  0  0  0  0  0  0  0  0
   -0.7334   -0.6384   -2.1167 C   0  0  0  0  0  0  0  0  0  0  0  0
   -0.1893   -1.0636   -2.9598 H   0  0  0  0  0  0  0  0  0  0  0  0
   -1.5144   -1.3375   -1.8180 H   0  0  0  0  0  0  0  0  0  0  0  0
   -1.3998    0.6539   -2.5884 C   0  0  0  0  0  0  0  0  0  0  0  0
   -1.2456    1.7268   -2.0354 O   0  0  0  0  0  0  0  0  0  0  0  0
   -2.1738    0.6074   -3.6510 N   0  0  0  0  0  0  0  0  0  0  0  0
   -2.5850    1.4852   -3.9170 H   0  0  0  0  0  0  0  0  0  0  0  0
   -2.3324   -0.2476   -4.1445 H   0  0  0  0  0  0  0  0  0  0  0  0
   -0.7011    1.2952    0.7149 C   0  0  0  0  0  0  0  0  0  0  0  0
   -1.5917    1.9198    0.1415 O   0  0  0  0  0  0  0  0  0  0  0  0
    0.1191    1.8675    1.6055 N   0  0  0  0  0  0  0  0  0  0  0  0
    0.8092    1.2861    2.0537 H   0  0  0  0  0  0  0  0  0  0  0  0
    0.0509    3.2769    1.9894 C   0  0  0  0  0  0  0  0  0  0  0  0
   -0.9494    3.5076    2.3640 H   0  0  0  0  0  0  0  0  0  0  0  0
    0.7844    3.4956    2.7668 H   0  0  0  0  0  0  0  0  0  0  0  0
    0.2468    3.9058    1.1193 H   0  0  0  0  0  0  0  0  0  0  0  0
  5  6  2  0  0  0  0
  5  7  1  0  0  0  0
  2  3  1  0  0  0  0
  2  4  1  0  0  0  0
  2  5  1  0  0  0  0
  1  2  1  0  0  0  0
 22 23  2  0  0  0  0
 22 24  1  0  0  0  0
 19 20  1  0  0  0  0
 19 21  1  0  0  0  0
 17 18  2  0  0  0  0
 17 19  1  0  0  0  0
 14 15  1  0  0  0  0
 14 16  1  0  0  0  0
 14 17  1  0  0  0  0
 11 12  1  0  0  0  0
 11 13  1  0  0  0  0
 11 14  1  0  0  0  0
  9 10  1  0  0  0  0
  9 11  1  0  0  0  0
  9 22  1  0  0  0  0
  7  8  1  0  0  0  0
  7  9  1  0  0  0  0
 26 27  1  0  0  0  0
 26 28  1  0  0  0  0
 26 29  1  0  0  0  0
 24 25  1  0  0  0  0
 24 26  1  0  0  0  0
M  END
$$$$
default_name
  -OEChem-02102213163D

 29 28  0     1  0  0  0  0  0999 V2000
   -3.3998   -3.6239    1.3678 H   0  0  0  0  0  0  0  0  0  0  0  0
   -3.3608   -2.6749    0.8348 C   0  0  0  0  0  0  0  0  0  0  0  0
   -4.0988   -1.9909    1.2498 H   0  0  0  0  0  0  0  0  0  0  0  0
   -3.5618   -2.8419   -0.2222 H   0  0  0  0  0  0  0  0  0  0  0  0
   -1.9818   -2.0809    0.9918 C   0  0  0  0  0  0  0  0  0  0  0  0
   -1.1288   -2.6669    1.6468 O   0  0  0  0  0  0  0  0  0  0  0  0
   -1.7648   -0.9089    0.3998 N   0  0  0  0  0  0  0  0  0  0  0  0
   -2.5238   -0.4719   -0.1032 H   0  0  0  0  0  0  0  0  0  0  0  0
   -0.4848   -0.1959    0.4138 C   0  0  1  0  0  0  0  0  0  0  0  0
    0.1386   -0.6144    1.2058 H   0  0  0  0  0  0  0  0  0  0  0  0
    0.2271   -0.4272   -0.9334 C   0  0  0  0  0  0  0  0  0  0  0  0
    0.8497    0.4442   -1.1468 H   0  0  0  0  0  0  0  0  0  0  0  0
    0.8780   -1.2986   -0.8477 H   0  0  0  0  0  0  0  0  0  0  0  0
   -0.7334   -0.6384   -2.1167 C   0  0  0  0  0  0  0  0  0  0  0  0
   -0.2704   -1.2954   -2.8526 H   0  0  0  0  0  0  0  0  0  0  0  0
   -1.6451   -1.1116   -1.7522 H   0  0  0  0  0  0  0  0  0  0  0  0
   -1.1159    0.6635   -2.8206 C   0  0  0  0  0  0  0  0  0  0  0  0
   -0.7589    1.7616   -2.4368 O   0  0  0  0  0  0  0  0  0  0  0  0
   -1.8628    0.5948   -3.9011 N   0  0  0  0  0  0  0  0  0  0  0  0
   -2.0831    1.4800   -4.3235 H   0  0  0  0  0  0  0  0  0  0  0  0
   -2.1814   -0.2820   -4.2610 H   0  0  0  0  0  0  0  0  0  0  0  0
   -0.7011    1.2952    0.7149 C   0  0  0  0  0  0  0  0  0  0  0  0
   -1.5917    1.9198    0.1415 O   0  0  0  0  0  0  0  0  0  0  0  0
    0.1191    1.8675    1.6055 N   0  0  0  0  0  0  0  0  0  0  0  0
    0.8092    1.2861    2.0537 H   0  0  0  0  0  0  0  0  0  0  0  0
    0.0509    3.2769    1.9894 C   0  0  0  0  0  0  0  0  0  0  0  0
   -0.9494    3.5076    2.3640 H   0  0  0  0  0  0  0  0  0  0  0  0
    0.7844    3.4956    2.7668 H   0  0  0  0  0  0  0  0  0  0  0  0
    0.2468    3.9058    1.1193 H   0  0  0  0  0  0  0  0  0  0  0  0
  5  6  2  0  0  0  0
  5  7  1  0  0  0  0
  2  3  1  0  0  0  0
  2  4  1  0  0  0  0
  2  5  1  0  0  0  0
  1  2  1  0  0  0  0
 22 23  2  0  0  0  0
 22 24  1  0  0  0  0
 19 20  1  0  0  0  0
 19 21  1  0  0  0  0
 17 18  2  0  0  0  0
 17 19  1  0  0  0  0
 14 15  1  0  0  0  0
 14 16  1  0  0  0  0
 14 17  1  0  0  0  0
 11 12  1  0  0  0  0
 11 13  1  0  0  0  0
 11 14  1  0  0  0  0
  9 10  1  0  0  0  0
  9 11  1  0  0  0  0
  9 22  1  0  0  0  0
  7  8  1  0  0  0  0
  7  9  1  0  0  0  0
 26 27  1  0  0  0  0
 26 28  1  0  0  0  0
 26 29  1  0  0  0  0
 24 25  1  0  0  0  0
 24 26  1  0  0  0  0
M  END
$$$$
default_name
  -OEChem-02102213163D

 29 28  0     1  0  0  0  0  0999 V2000
   -3.3998   -3.6239    1.3678 H   0  0  0  0  0  0  0  0  0  0  0  0
   -3.3608   -2.6749    0.8348 C   0  0  0  0  0  0  0  0  0  0  0  0
   -4.0988   -1.9909    1.2498 H   0  0  0  0  0  0  0  0  0  0  0  0
   -3.5618   -2.8419   -0.2222 H   0  0  0  0  0  0  0  0  0  0  0  0
   -1.9818   -2.0809    0.9918 C   0  0  0  0  0  0  0  0  0  0  0  0
   -1.1288   -2.6669    1.6468 O   0  0  0  0  0  0  0  0  0  0  0  0
   -1.7648   -0.9089    0.3998 N   0  0  0  0  0  0  0  0  0  0  0  0
   -2.5238   -0.4719   -0.1032 H   0  0  0  0  0  0  0  0  0  0  0  0
   -0.4848   -0.1959    0.4138 C   0  0  1  0  0  0  0  0  0  0  0  0
    0.1386   -0.6144    1.2058 H   0  0  0  0  0  0  0  0  0  0  0  0
    0.2271   -0.4272   -0.9334 C   0  0  0  0  0  0  0  0  0  0  0  0
    0.8497    0.4442   -1.1468 H   0  0  0  0  0  0  0  0  0  0  0  0
    0.8780   -1.2986   -0.8477 H   0  0  0  0  0  0  0  0  0  0  0  0
   -0.7334   -0.6384   -2.1167 C   0  0  0  0  0  0  0  0  0  0  0  0
   -0.3986   -1.4858   -2.7146 H   0  0  0  0  0  0  0  0  0  0  0  0
   -1.7287   -0.8568   -1.7298 H   0  0  0  0  0  0  0  0  0  0  0  0
   -0.8315    0.5787   -3.0363 C   0  0  0  0  0  0  0  0  0  0  0  0
   -0.2675    1.6335   -2.8128 O   0  0  0  0  0  0  0  0  0  0  0  0
   -1.5561    0.4803   -4.1297 N   0  0  0  0  0  0  0  0  0  0  0  0
   -1.5849    1.3094   -4.6974 H   0  0  0  0  0  0  0  0  0  0  0  0
   -2.0382   -0.3641   -4.3626 H   0  0  0  0  0  0  0  0  0  0  0  0
   -0.7011    1.2952    0.7149 C   0  0  0  0  0  0  0  0  0  0  0  0
   -1.5917    1.9198    0.1415 O   0  0  0  0  0  0  0  0  0  0  0  0
    0.1191    1.8675    1.6055 N   0  0  0  0  0  0  0  0  0  0  0  0
    0.8092    1.2861    2.0537 H   0  0  0  0  0  0  0  0  0  0  0  0
    0.0509    3.2769    1.9894 C   0  0  0  0  0  0  0  0  0  0  0  0
   -0.9494    3.5076    2.3640 H   0  0  0  0  0  0  0  0  0  0  0  0
    0.7844    3.4956    2.7668 H   0  0  0  0  0  0  0  0  0  0  0  0
    0.2468    3.9058    1.1193 H   0  0  0  0  0  0  0  0  0  0  0  0
  5  6  2  0  0  0  0
  5  7  1  0  0  0  0
  2  3  1  0  0  0  0
  2  4  1  0  0  0  0
  2  5  1  0  0  0  0
  1  2  1  0  0  0  0
 22 23  2  0  0  0  0
 22 24  1  0  0  0  0
 19 20  1  0  0  0  0
 19 21  1  0  0  0  0
 17 18  2  0  0  0  0
 17 19  1  0  0  0  0
 14 15  1  0  0  0  0
 14 16  1  0  0  0  0
 14 17  1  0  0  0  0
 11 12  1  0  0  0  0
 11 13  1  0  0  0  0
 11 14  1  0  0  0  0
  9 10  1  0  0  0  0
  9 11  1  0  0  0  0
  9 22  1  0  0  0  0
  7  8  1  0  0  0  0
  7  9  1  0  0  0  0
 26 27  1  0  0  0  0
 26 28  1  0  0  0  0
 26 29  1  0  0  0  0
 24 25  1  0  0  0  0
 24 26  1  0  0  0  0
M  END
$$$$
default_name
  -OEChem-02102213163D

 29 28  0     1  0  0  0  0  0999 V2000
   -3.3998   -3.6239    1.3678 H   0  0  0  0  0  0  0  0  0  0  0  0
   -3.3608   -2.6749    0.8348 C   0  0  0  0  0  0  0  0  0  0  0  0
   -4.0988   -1.9909    1.2498 H   0  0  0  0  0  0  0  0  0  0  0  0
   -3.5618   -2.8419   -0.2222 H   0  0  0  0  0  0  0  0  0  0  0  0
   -1.9818   -2.0809    0.9918 C   0  0  0  0  0  0  0  0  0  0  0  0
   -1.1288   -2.6669    1.6468 O   0  0  0  0  0  0  0  0  0  0  0  0
   -1.7648   -0.9089    0.3998 N   0  0  0  0  0  0  0  0  0  0  0  0
   -2.5238   -0.4719   -0.1032 H   0  0  0  0  0  0  0  0  0  0  0  0
   -0.4848   -0.1959    0.4138 C   0  0  1  0  0  0  0  0  0  0  0  0
    0.1386   -0.6144    1.2058 H   0  0  0  0  0  0  0  0  0  0  0  0
    0.2271   -0.4272   -0.9334 C   0  0  0  0  0  0  0  0  0  0  0  0
    0.8497    0.4442   -1.1468 H   0  0  0  0  0  0  0  0  0  0  0  0
    0.8780   -1.2986   -0.8477 H   0  0  0  0  0  0  0  0  0  0  0  0
   -0.7334   -0.6384   -2.1167 C   0  0  0  0  0  0  0  0  0  0  0  0
   -0.5652   -1.6219   -2.5550 H   0  0  0  0  0  0  0  0  0  0  0  0
   -1.7595   -0.5904   -1.7523 H   0  0  0  0  0  0  0  0  0  0  0  0
   -0.5660    0.4054   -3.2209 C   0  0  0  0  0  0  0  0  0  0  0  0
    0.1950    1.3512   -3.1378 O   0  0  0  0  0  0  0  0  0  0  0  0
   -1.2745    0.2718   -4.3211 N   0  0  0  0  0  0  0  0  0  0  0  0
   -1.1243    0.9850   -5.0134 H   0  0  0  0  0  0  0  0  0  0  0  0
   -1.9126   -0.4883   -4.4423 H   0  0  0  0  0  0  0  0  0  0  0  0
   -0.7011    1.2952    0.7149 C   0  0  0  0  0  0  0  0  0  0  0  0
   -1.5917    1.9198    0.1415 O   0  0  0  0  0  0  0  0  0  0  0  0
    0.1191    1.8675    1.6055 N   0  0  0  0  0  0  0  0  0  0  0  0
    0.8092    1.2861    2.0537 H   0  0  0  0  0  0  0  0  0  0  0  0
    0.0509    3.2769    1.9894 C   0  0  0  0  0  0  0  0  0  0  0  0
   -0.9494    3.5076    2.3640 H   0  0  0  0  0  0  0  0  0  0  0  0
    0.7844    3.4956    2.7668 H   0  0  0  0  0  0  0  0  0  0  0  0
    0.2468    3.9058    1.1193 H   0  0  0  0  0  0  0  0  0  0  0  0
  5  6  2  0  0  0  0
  5  7  1  0  0  0  0
  2  3  1  0  0  0  0
  2  4  1  0  0  0  0
  2  5  1  0  0  0  0
  1  2  1  0  0  0  0
 22 23  2  0  0  0  0
 22 24  1  0  0  0  0
 19 20  1  0  0  0  0
 19 21  1  0  0  0  0
 17 18  2  0  0  0  0
 17 19  1  0  0  0  0
 14 15  1  0  0  0  0
 14 16  1  0  0  0  0
 14 17  1  0  0  0  0
 11 12  1  0  0  0  0
 11 13  1  0  0  0  0
 11 14  1  0  0  0  0
  9 10  1  0  0  0  0
  9 11  1  0  0  0  0
  9 22  1  0  0  0  0
  7  8  1  0  0  0  0
  7  9  1  0  0  0  0
 26 27  1  0  0  0  0
 26 28  1  0  0  0  0
 26 29  1  0  0  0  0
 24 25  1  0  0  0  0
 24 26  1  0  0  0  0
M  END
$$$$
default_name
  -OEChem-02102213163D

 29 28  0     1  0  0  0  0  0999 V2000
   -3.3998   -3.6239    1.3678 H   0  0  0  0  0  0  0  0  0  0  0  0
   -3.3608   -2.6749    0.8348 C   0  0  0  0  0  0  0  0  0  0  0  0
   -4.0988   -1.9909    1.2498 H   0  0  0  0  0  0  0  0  0  0  0  0
   -3.5618   -2.8419   -0.2222 H   0  0  0  0  0  0  0  0  0  0  0  0
   -1.9818   -2.0809    0.9918 C   0  0  0  0  0  0  0  0  0  0  0  0
   -1.1288   -2.6669    1.6468 O   0  0  0  0  0  0  0  0  0  0  0  0
   -1.7648   -0.9089    0.3998 N   0  0  0  0  0  0  0  0  0  0  0  0
   -2.5238   -0.4719   -0.1032 H   0  0  0  0  0  0  0  0  0  0  0  0
   -0.4848   -0.1959    0.4138 C   0  0  1  0  0  0  0  0  0  0  0  0
    0.1386   -0.6144    1.2058 H   0  0  0  0  0  0  0  0  0  0  0  0
    0.2271   -0.4272   -0.9334 C   0  0  0  0  0  0  0  0  0  0  0  0
    0.8497    0.4442   -1.1468 H   0  0  0  0  0  0  0  0  0  0  0  0
    0.8780   -1.2986   -0.8477 H   0  0  0  0  0  0  0  0  0  0  0  0
   -0.7334   -0.6384   -2.1167 C   0  0  0  0  0  0  0  0  0  0  0  0
   -0.7590   -1.6944   -2.3848 H   0  0  0  0  0  0  0  0  0  0  0  0
   -1.7355   -0.3305   -1.8182 H   0  0  0  0  0  0  0  0  0  0  0  0
   -0.3376    0.1553   -3.3617 C   0  0  0  0  0  0  0  0  0  0  0  0
    0.5971    0.9339   -3.3897 O   0  0  0  0  0  0  0  0  0  0  0  0
   -1.0371   -0.0166   -4.4623 N   0  0  0  0  0  0  0  0  0  0  0  0
   -0.7328    0.5290   -5.2498 H   0  0  0  0  0  0  0  0  0  0  0  0
   -1.8132   -0.6462   -4.4948 H   0  0  0  0  0  0  0  0  0  0  0  0
   -0.7011    1.2952    0.7149 C   0  0  0  0  0  0  0  0  0  0  0  0
   -1.5917    1.9198    0.1415 O   0  0  0  0  0  0  0  0  0  0  0  0
    0.1191    1.8675    1.6055 N   0  0  0  0  0  0  0  0  0  0  0  0
    0.8092    1.2861    2.0537 H   0  0  0  0  0  0  0  0  0  0  0  0
    0.0509    3.2769    1.9894 C   0  0  0  0  0  0  0  0  0  0  0  0
   -0.9494    3.5076    2.3640 H   0  0  0  0  0  0  0  0  0  0  0  0
    0.7844    3.4956    2.7668 H   0  0  0  0  0  0  0  0  0  0  0  0
    0.2468    3.9058    1.1193 H   0  0  0  0  0  0  0  0  0  0  0  0
  5  6  2  0  0  0  0
  5  7  1  0  0  0  0
  2  3  1  0  0  0  0
  2  4  1  0  0  0  0
  2  5  1  0  0  0  0
  1  2  1  0  0  0  0
 22 23  2  0  0  0  0
 22 24  1  0  0  0  0
 19 20  1  0  0  0  0
 19 21  1  0  0  0  0
 17 18  2  0  0  0  0
 17 19  1  0  0  0  0
 14 15  1  0  0  0  0
 14 16  1  0  0  0  0
 14 17  1  0  0  0  0
 11 12  1  0  0  0  0
 11 13  1  0  0  0  0
 11 14  1  0  0  0  0
  9 10  1  0  0  0  0
  9 11  1  0  0  0  0
  9 22  1  0  0  0  0
  7  8  1  0  0  0  0
  7  9  1  0  0  0  0
 26 27  1  0  0  0  0
 26 28  1  0  0  0  0
 26 29  1  0  0  0  0
 24 25  1  0  0  0  0
 24 26  1  0  0  0  0
M  END
$$$$
default_name
  -OEChem-02102213163D

 29 28  0     1  0  0  0  0  0999 V2000
   -3.3998   -3.6239    1.3678 H   0  0  0  0  0  0  0  0  0  0  0  0
   -3.3608   -2.6749    0.8348 C   0  0  0  0  0  0  0  0  0  0  0  0
   -4.0988   -1.9909    1.2498 H   0  0  0  0  0  0  0  0  0  0  0  0
   -3.5618   -2.8419   -0.2222 H   0  0  0  0  0  0  0  0  0  0  0  0
   -1.9818   -2.0809    0.9918 C   0  0  0  0  0  0  0  0  0  0  0  0
   -1.1288   -2.6669    1.6468 O   0  0  0  0  0  0  0  0  0  0  0  0
   -1.7648   -0.9089    0.3998 N   0  0  0  0  0  0  0  0  0  0  0  0
   -2.5238   -0.4719   -0.1032 H   0  0  0  0  0  0  0  0  0  0  0  0
   -0.4848   -0.1959    0.4138 C   0  0  1  0  0  0  0  0  0  0  0  0
    0.1386   -0.6144    1.2058 H   0  0  0  0  0  0  0  0  0  0  0  0
    0.2271   -0.4272   -0.9334 C   0  0  0  0  0  0  0  0  0  0  0  0
    0.8497    0.4442   -1.1468 H   0  0  0  0  0  0  0  0  0  0  0  0
    0.8780   -1.2986   -0.8477 H   0  0  0  0  0  0  0  0  0  0  0  0
   -0.7334   -0.6384   -2.1167 C   0  0  0  0  0  0  0  0  0  0  0  0
   -0.9666   -1.6983   -2.2156 H   0  0  0  0  0  0  0  0  0  0  0  0
   -1.6582   -0.0950   -1.9230 H   0  0  0  0  0  0  0  0  0  0  0  0
   -0.1616   -0.1545   -3.4492 C   0  0  0  0  0  0  0  0  0  0  0  0
    0.9114    0.4102   -3.5514 O   0  0  0  0  0  0  0  0  0  0  0  0
   -0.8603   -0.3652   -4.5436 N   0  0  0  0  0  0  0  0  0  0  0  0
   -0.4370   -0.0276   -5.3906 H   0  0  0  0  0  0  0  0  0  0  0  0
   -1.7468   -0.8269   -4.5165 H   0  0  0  0  0  0  0  0  0  0  0  0
   -0.7011    1.2952    0.7149 C   0  0  0  0  0  0  0  0  0  0  0  0
   -1.5917    1.9198    0.1415 O   0  0  0  0  0  0  0  0  0  0  0  0
    0.1191    1.8675    1.6055 N   0  0  0  0  0  0  0  0  0  0  0  0
    0.8092    1.2861    2.0537 H   0  0  0  0  0  0  0  0  0  0  0  0
    0.0509    3.2769    1.9894 C   0  0  0  0  0  0  0  0  0  0  0  0
   -0.9494    3.5076    2.3640 H   0  0  0  0  0  0  0  0  0  0  0  0
    0.7844    3.4956    2.7668 H   0  0  0  0  0  0  0  0  0  0  0  0
    0.2468    3.9058    1.1193 H   0  0  0  0  0  0  0  0  0  0  0  0
  5  6  2  0  0  0  0
  5  7  1  0  0  0  0
  2  3  1  0  0  0  0
  2  4  1  0  0  0  0
  2  5  1  0  0  0  0
  1  2  1  0  0  0  0
 22 23  2  0  0  0  0
 22 24  1  0  0  0  0
 19 20  1  0  0  0  0
 19 21  1  0  0  0  0
 17 18  2  0  0  0  0
 17 19  1  0  0  0  0
 14 15  1  0  0  0  0
 14 16  1  0  0  0  0
 14 17  1  0  0  0  0
 11 12  1  0  0  0  0
 11 13  1  0  0  0  0
 11 14  1  0  0  0  0
  9 10  1  0  0  0  0
  9 11  1  0  0  0  0
  9 22  1  0  0  0  0
  7  8  1  0  0  0  0
  7  9  1  0  0  0  0
 26 27  1  0  0  0  0
 26 28  1  0  0  0  0
 26 29  1  0  0  0  0
 24 25  1  0  0  0  0
 24 26  1  0  0  0  0
M  END
$$$$
default_name
  -OEChem-02102213163D

 29 28  0     1  0  0  0  0  0999 V2000
   -3.3998   -3.6239    1.3678 H   0  0  0  0  0  0  0  0  0  0  0  0
   -3.3608   -2.6749    0.8348 C   0  0  0  0  0  0  0  0  0  0  0  0
   -4.0988   -1.9909    1.2498 H   0  0  0  0  0  0  0  0  0  0  0  0
   -3.5618   -2.8419   -0.2222 H   0  0  0  0  0  0  0  0  0  0  0  0
   -1.9818   -2.0809    0.9918 C   0  0  0  0  0  0  0  0  0  0  0  0
   -1.1288   -2.6669    1.6468 O   0  0  0  0  0  0  0  0  0  0  0  0
   -1.7648   -0.9089    0.3998 N   0  0  0  0  0  0  0  0  0  0  0  0
   -2.5238   -0.4719   -0.1032 H   0  0  0  0  0  0  0  0  0  0  0  0
   -0.4848   -0.1959    0.4138 C   0  0  1  0  0  0  0  0  0  0  0  0
    0.1386   -0.6144    1.2058 H   0  0  0  0  0  0  0  0  0  0  0  0
    0.2271   -0.4272   -0.9334 C   0  0  0  0  0  0  0  0  0  0  0  0
    0.8497    0.4442   -1.1468 H   0  0  0  0  0  0  0  0  0  0  0  0
    0.8780   -1.2986   -0.8477 H   0  0  0  0  0  0  0  0  0  0  0  0
   -0.7334   -0.6384   -2.1167 C   0  0  0  0  0  0  0  0  0  0  0  0
   -1.1739   -1.6335   -2.0589 H   0  0  0  0  0  0  0  0  0  0  0  0
   -1.5329    0.1002   -2.0595 H   0  0  0  0  0  0  0  0  0  0  0  0
   -0.0503   -0.5029   -3.4774 C   0  0  0  0  0  0  0  0  0  0  0  0
    1.1164   -0.1844   -3.6117 O   0  0  0  0  0  0  0  0  0  0  0  0
   -0.7560   -0.7503   -4.5595 N   0  0  0  0  0  0  0  0  0  0  0  0
   -0.2571   -0.6469   -5.4261 H   0  0  0  0  0  0  0  0  0  0  0  0
   -1.7178   -1.0183   -4.5059 H   0  0  0  0  0  0  0  0  0  0  0  0
   -0.7011    1.2952    0.7149 C   0  0  0  0  0  0  0  0  0  0  0  0
   -1.5917    1.9198    0.1415 O   0  0  0  0  0  0  0  0  0  0  0  0
    0.1191    1.8675    1.6055 N   0  0  0  0  0  0  0  0  0  0  0  0
    0.8092    1.2861    2.0537 H   0  0  0  0  0  0  0  0  0  0  0  0
    0.0509    3.2769    1.9894 C   0  0  0  0  0  0  0  0  0  0  0  0
   -0.9494    3.5076    2.3640 H   0  0  0  0  0  0  0  0  0  0  0  0
    0.7844    3.4956    2.7668 H   0  0  0  0  0  0  0  0  0  0  0  0
    0.2468    3.9058    1.1193 H   0  0  0  0  0  0  0  0  0  0  0  0
  5  6  2  0  0  0  0
  5  7  1  0  0  0  0
  2  3  1  0  0  0  0
  2  4  1  0  0  0  0
  2  5  1  0  0  0  0
  1  2  1  0  0  0  0
 22 23  2  0  0  0  0
 22 24  1  0  0  0  0
 19 20  1  0  0  0  0
 19 21  1  0  0  0  0
 17 18  2  0  0  0  0
 17 19  1  0  0  0  0
 14 15  1  0  0  0  0
 14 16  1  0  0  0  0
 14 17  1  0  0  0  0
 11 12  1  0  0  0  0
 11 13  1  0  0  0  0
 11 14  1  0  0  0  0
  9 10  1  0  0  0  0
  9 11  1  0  0  0  0
  9 22  1  0  0  0  0
  7  8  1  0  0  0  0
  7  9  1  0  0  0  0
 26 27  1  0  0  0  0
 26 28  1  0  0  0  0
 26 29  1  0  0  0  0
 24 25  1  0  0  0  0
 24 26  1  0  0  0  0
M  END
$$$$
default_name
  -OEChem-02102213163D

 29 28  0     1  0  0  0  0  0999 V2000
   -3.3998   -3.6239    1.3678 H   0  0  0  0  0  0  0  0  0  0  0  0
   -3.3608   -2.6749    0.8348 C   0  0  0  0  0  0  0  0  0  0  0  0
   -4.0988   -1.9909    1.2498 H   0  0  0  0  0  0  0  0  0  0  0  0
   -3.5618   -2.8419   -0.2222 H   0  0  0  0  0  0  0  0  0  0  0  0
   -1.9818   -2.0809    0.9918 C   0  0  0  0  0  0  0  0  0  0  0  0
   -1.1288   -2.6669    1.6468 O   0  0  0  0  0  0  0  0  0  0  0  0
   -1.7648   -0.9089    0.3998 N   0  0  0  0  0  0  0  0  0  0  0  0
   -2.5238   -0.4719   -0.1032 H   0  0  0  0  0  0  0  0  0  0  0  0
   -0.4848   -0.1959    0.4138 C   0  0  1  0  0  0  0  0  0  0  0  0
    0.1386   -0.6144    1.2058 H   0  0  0  0  0  0  0  0  0  0  0  0
    0.2271   -0.4272   -0.9334 C   0  0  0  0  0  0  0  0  0  0  0  0
    1.0393    0.2974   -1.0214 H   0  0  0  0  0  0  0  0  0  0  0  0
    0.6609   -1.4282   -0.9401 H   0  0  0  0  0  0  0  0  0  0  0  0
   -0.6927   -0.2756   -2.1575 C   0  0  0  0  0  0  0  0  0  0  0  0
   -1.5131   -0.9899   -2.0909 H   0  0  0  0  0  0  0  0  0  0  0  0
   -1.1081    0.7321   -2.1652 H   0  0  0  0  0  0  0  0  0  0  0  0
    0.0291   -0.5081   -3.4847 C   0  0  0  0  0  0  0  0  0  0  0  0
    1.2252   -0.7156   -3.5685 O   0  0  0  0  0  0  0  0  0  0  0  0
   -0.6784   -0.4911   -4.5934 N   0  0  0  0  0  0  0  0  0  0  0  0
   -0.1536   -0.6505   -5.4359 H   0  0  0  0  0  0  0  0  0  0  0  0
   -1.6648   -0.3279   -4.5811 H   0  0  0  0  0  0  0  0  0  0  0  0
   -0.7011    1.2952    0.7149 C   0  0  0  0  0  0  0  0  0  0  0  0
   -1.5917    1.9198    0.1415 O   0  0  0  0  0  0  0  0  0  0  0  0
    0.1191    1.8675    1.6055 N   0  0  0  0  0  0  0  0  0  0  0  0
    0.8092    1.2861    2.0537 H   0  0  0  0  0  0  0  0  0  0  0  0
    0.0509    3.2769    1.9894 C   0  0  0  0  0  0  0  0  0  0  0  0
   -0.9494    3.5076    2.3640 H   0  0  0  0  0  0  0  0  0  0  0  0
    0.7844    3.4956    2.7668 H   0  0  0  0  0  0  0  0  0  0  0  0
    0.2468    3.9058    1.1193 H   0  0  0  0  0  0  0  0  0  0  0  0
  5  6  2  0  0  0  0
  5  7  1  0  0  0  0
  2  3  1  0  0  0  0
  2  4  1  0  0  0  0
  2  5  1  0  0  0  0
  1  2  1  0  0  0  0
 22 23  2  0  0  0  0
 22 24  1  0  0  0  0
 19 20  1  0  0  0  0
 19 21  1  0  0  0  0
 17 18  2  0  0  0  0
 17 19  1  0  0  0  0
 14 15  1  0  0  0  0
 14 16  1  0  0  0  0
 14 17  1  0  0  0  0
 11 12  1  0  0  0  0
 11 13  1  0  0  0  0
 11 14  1  0  0  0  0
  9 10  1  0  0  0  0
  9 11  1  0  0  0  0
  9 22  1  0  0  0  0
  7  8  1  0  0  0  0
  7  9  1  0  0  0  0
 26 27  1  0  0  0  0
 26 28  1  0  0  0  0
 26 29  1  0  0  0  0
 24 25  1  0  0  0  0
 24 26  1  0  0  0  0
M  END
$$$$
default_name
  -OEChem-02102213163D

 29 28  0     1  0  0  0  0  0999 V2000
   -3.3998   -3.6239    1.3678 H   0  0  0  0  0  0  0  0  0  0  0  0
   -3.3608   -2.6749    0.8348 C   0  0  0  0  0  0  0  0  0  0  0  0
   -4.0988   -1.9909    1.2498 H   0  0  0  0  0  0  0  0  0  0  0  0
   -3.5618   -2.8419   -0.2222 H   0  0  0  0  0  0  0  0  0  0  0  0
   -1.9818   -2.0809    0.9918 C   0  0  0  0  0  0  0  0  0  0  0  0
   -1.1288   -2.6669    1.6468 O   0  0  0  0  0  0  0  0  0  0  0  0
   -1.7648   -0.9089    0.3998 N   0  0  0  0  0  0  0  0  0  0  0  0
   -2.5238   -0.4719   -0.1032 H   0  0  0  0  0  0  0  0  0  0  0  0
   -0.4848   -0.1959    0.4138 C   0  0  1  0  0  0  0  0  0  0  0  0
    0.1386   -0.6144    1.2058 H   0  0  0  0  0  0  0  0  0  0  0  0
    0.2271   -0.4272   -0.9334 C   0  0  0  0  0  0  0  0  0  0  0  0
    1.0393    0.2974   -1.0214 H   0  0  0  0  0  0  0  0  0  0  0  0
    0.6609   -1.4282   -0.9401 H   0  0  0  0  0  0  0  0  0  0  0  0
   -0.6927   -0.2756   -2.1575 C   0  0  0  0  0  0  0  0  0  0  0  0
   -1.6380   -0.7851   -1.9717 H   0  0  0  0  0  0  0  0  0  0  0  0
   -0.8939    0.7833   -2.3198 H   0  0  0  0  0  0  0  0  0  0  0  0
   -0.0894   -0.8522   -3.4382 C   0  0  0  0  0  0  0  0  0  0  0  0
    1.0346   -1.3141   -3.4994 O   0  0  0  0  0  0  0  0  0  0  0  0
   -0.8243   -0.8572   -4.5292 N   0  0  0  0  0  0  0  0  0  0  0  0
   -0.3786   -1.2484   -5.3409 H   0  0  0  0  0  0  0  0  0  0  0  0
   -1.7552   -0.4925   -4.5335 H   0  0  0  0  0  0  0  0  0  0  0  0
   -0.7011    1.2952    0.7149 C   0  0  0  0  0  0  0  0  0  0  0  0
   -1.5917    1.9198    0.1415 O   0  0  0  0  0  0  0  0  0  0  0  0
    0.1191    1.8675    1.6055 N   0  0  0  0  0  0  0  0  0  0  0  0
    0.8092    1.2861    2.0537 H   0  0  0  0  0  0  0  0  0  0  0  0
    0.0509    3.2769    1.9894 C   0  0  0  0  0  0  0  0  0  0  0  0
   -0.9494    3.5076    2.3640 H   0  0  0  0  0  0  0  0  0  0  0  0
    0.7844    3.4956    2.7668 H   0  0  0  0  0  0  0  0  0  0  0  0
    0.2468    3.9058    1.1193 H   0  0  0  0  0  0  0  0  0  0  0  0
  5  6  2  0  0  0  0
  5  7  1  0  0  0  0
  2  3  1  0  0  0  0
  2  4  1  0  0  0  0
  2  5  1  0  0  0  0
  1  2  1  0  0  0  0
 22 23  2  0  0  0  0
 22 24  1  0  0  0  0
 19 20  1  0  0  0  0
 19 21  1  0  0  0  0
 17 18  2  0  0  0  0
 17 19  1  0  0  0  0
 14 15  1  0  0  0  0
 14 16  1  0  0  0  0
 14 17  1  0  0  0  0
 11 12  1  0  0  0  0
 11 13  1  0  0  0  0
 11 14  1  0  0  0  0
  9 10  1  0  0  0  0
  9 11  1  0  0  0  0
  9 22  1  0  0  0  0
  7  8  1  0  0  0  0
  7  9  1  0  0  0  0
 26 27  1  0  0  0  0
 26 28  1  0  0  0  0
 26 29  1  0  0  0  0
 24 25  1  0  0  0  0
 24 26  1  0  0  0  0
M  END
$$$$
default_name
  -OEChem-02102213163D

 29 28  0     1  0  0  0  0  0999 V2000
   -3.3998   -3.6239    1.3678 H   0  0  0  0  0  0  0  0  0  0  0  0
   -3.3608   -2.6749    0.8348 C   0  0  0  0  0  0  0  0  0  0  0  0
   -4.0988   -1.9909    1.2498 H   0  0  0  0  0  0  0  0  0  0  0  0
   -3.5618   -2.8419   -0.2222 H   0  0  0  0  0  0  0  0  0  0  0  0
   -1.9818   -2.0809    0.9918 C   0  0  0  0  0  0  0  0  0  0  0  0
   -1.1288   -2.6669    1.6468 O   0  0  0  0  0  0  0  0  0  0  0  0
   -1.7648   -0.9089    0.3998 N   0  0  0  0  0  0  0  0  0  0  0  0
   -2.5238   -0.4719   -0.1032 H   0  0  0  0  0  0  0  0  0  0  0  0
   -0.4848   -0.1959    0.4138 C   0  0  1  0  0  0  0  0  0  0  0  0
    0.1386   -0.6144    1.2058 H   0  0  0  0  0  0  0  0  0  0  0  0
    0.2271   -0.4272   -0.9334 C   0  0  0  0  0  0  0  0  0  0  0  0
    1.0393    0.2974   -1.0214 H   0  0  0  0  0  0  0  0  0  0  0  0
    0.6609   -1.4282   -0.9401 H   0  0  0  0  0  0  0  0  0  0  0  0
   -0.6927   -0.2756   -2.1575 C   0  0  0  0  0  0  0  0  0  0  0  0
   -1.7134   -0.5431   -1.8850 H   0  0  0  0  0  0  0  0  0  0  0  0
   -0.6804    0.7647   -2.4826 H   0  0  0  0  0  0  0  0  0  0  0  0
   -0.2736   -1.1529   -3.3370 C   0  0  0  0  0  0  0  0  0  0  0  0
    0.7291   -1.8422   -3.3352 O   0  0  0  0  0  0  0  0  0  0  0  0
   -1.0389   -1.1709   -4.4067 N   0  0  0  0  0  0  0  0  0  0  0  0
   -0.7166   -1.7649   -5.1508 H   0  0  0  0  0  0  0  0  0  0  0  0
   -1.8753   -0.6256   -4.4598 H   0  0  0  0  0  0  0  0  0  0  0  0
   -0.7011    1.2952    0.7149 C   0  0  0  0  0  0  0  0  0  0  0  0
   -1.5917    1.9198    0.1415 O   0  0  0  0  0  0  0  0  0  0  0  0
    0.1191    1.8675    1.6055 N   0  0  0  0  0  0  0  0  0  0  0  0
    0.8092    1.2861    2.0537 H   0  0  0  0  0  0  0  0  0  0  0  0
    0.0509    3.2769    1.9894 C   0  0  0  0  0  0  0  0  0  0  0  0
   -0.9494    3.5076    2.3640 H   0  0  0  0  0  0  0  0  0  0  0  0
    0.7844    3.4956    2.7668 H   0  0  0  0  0  0  0  0  0  0  0  0
    0.2468    3.9058    1.1193 H   0  0  0  0  0  0  0  0  0  0  0  0
  5  6  2  0  0  0  0
  5  7  1  0  0  0  0
  2  3  1  0  0  0  0
  2  4  1  0  0  0  0
  2  5  1  0  0  0  0
  1  2  1  0  0  0  0
 22 23  2  0  0  0  0
 22 24  1  0  0  0  0
 19 20  1  0  0  0  0
 19 21  1  0  0  0  0
 17 18  2  0  0  0  0
 17 19  1  0  0  0  0
 14 15  1  0  0  0  0
 14 16  1  0  0  0  0
 14 17  1  0  0  0  0
 11 12  1  0  0  0  0
 11 13  1  0  0  0  0
 11 14  1  0  0  0  0
  9 10  1  0  0  0  0
  9 11  1  0  0  0  0
  9 22  1  0  0  0  0
  7  8  1  0  0  0  0
  7  9  1  0  0  0  0
 26 27  1  0  0  0  0
 26 28  1  0  0  0  0
 26 29  1  0  0  0  0
 24 25  1  0  0  0  0
 24 26  1  0  0  0  0
M  END
$$$$
default_name
  -OEChem-02102213163D

 29 28  0     1  0  0  0  0  0999 V2000
   -3.3998   -3.6239    1.3678 H   0  0  0  0  0  0  0  0  0  0  0  0
   -3.3608   -2.6749    0.8348 C   0  0  0  0  0  0  0  0  0  0  0  0
   -4.0988   -1.9909    1.2498 H   0  0  0  0  0  0  0  0  0  0  0  0
   -3.5618   -2.8419   -0.2222 H   0  0  0  0  0  0  0  0  0  0  0  0
   -1.9818   -2.0809    0.9918 C   0  0  0  0  0  0  0  0  0  0  0  0
   -1.1288   -2.6669    1.6468 O   0  0  0  0  0  0  0  0  0  0  0  0
   -1.7648   -0.9089    0.3998 N   0  0  0  0  0  0  0  0  0  0  0  0
   -2.5238   -0.4719   -0.1032 H   0  0  0  0  0  0  0  0  0  0  0  0
   -0.4848   -0.1959    0.4138 C   0  0  1  0  0  0  0  0  0  0  0  0
    0.1386   -0.6144    1.2058 H   0  0  0  0  0  0  0  0  0  0  0  0
    0.2271   -0.4272   -0.9334 C   0  0  0  0  0  0  0  0  0  0  0  0
    1.0393    0.2974   -1.0214 H   0  0  0  0  0  0  0  0  0  0  0  0
    0.6609   -1.4282   -0.9401 H   0  0  0  0  0  0  0  0  0  0  0  0
   -0.6927   -0.2756   -2.1575 C   0  0  0  0  0  0  0  0  0  0  0  0
   -1.7343   -0.2804   -1.8368 H   0  0  0  0  0  0  0  0  0  0  0  0
   -0.4821    0.6776   -2.6424 H   0  0  0  0  0  0  0  0  0  0  0  0
   -0.5109   -1.3898   -3.1881 C   0  0  0  0  0  0  0  0  0  0  0  0
    0.3294   -2.2640   -3.0871 O   0  0  0  0  0  0  0  0  0  0  0  0
   -1.3077   -1.4107   -4.2344 N   0  0  0  0  0  0  0  0  0  0  0  0
   -1.1446   -2.1649   -4.8788 H   0  0  0  0  0  0  0  0  0  0  0  0
   -2.0168   -0.7180   -4.3649 H   0  0  0  0  0  0  0  0  0  0  0  0
   -0.7011    1.2952    0.7149 C   0  0  0  0  0  0  0  0  0  0  0  0
   -1.5917    1.9198    0.1415 O   0  0  0  0  0  0  0  0  0  0  0  0
    0.1191    1.8675    1.6055 N   0  0  0  0  0  0  0  0  0  0  0  0
    0.8092    1.2861    2.0537 H   0  0  0  0  0  0  0  0  0  0  0  0
    0.0509    3.2769    1.9894 C   0  0  0  0  0  0  0  0  0  0  0  0
   -0.9494    3.5076    2.3640 H   0  0  0  0  0  0  0  0  0  0  0  0
    0.7844    3.4956    2.7668 H   0  0  0  0  0  0  0  0  0  0  0  0
    0.2468    3.9058    1.1193 H   0  0  0  0  0  0  0  0  0  0  0  0
  5  6  2  0  0  0  0
  5  7  1  0  0  0  0
  2  3  1  0  0  0  0
  2  4  1  0  0  0  0
  2  5  1  0  0  0  0
  1  2  1  0  0  0  0
 22 23  2  0  0  0  0
 22 24  1  0  0  0  0
 19 20  1  0  0  0  0
 19 21  1  0  0  0  0
 17 18  2  0  0  0  0
 17 19  1  0  0  0  0
 14 15  1  0  0  0  0
 14 16  1  0  0  0  0
 14 17  1  0  0  0  0
 11 12  1  0  0  0  0
 11 13  1  0  0  0  0
 11 14  1  0  0  0  0
  9 10  1  0  0  0  0
  9 11  1  0  0  0  0
  9 22  1  0  0  0  0
  7  8  1  0  0  0  0
  7  9  1  0  0  0  0
 26 27  1  0  0  0  0
 26 28  1  0  0  0  0
 26 29  1  0  0  0  0
 24 25  1  0  0  0  0
 24 26  1  0  0  0  0
M  END
$$$$
default_name
  -OEChem-02102213163D

 29 28  0     1  0  0  0  0  0999 V2000
   -3.3998   -3.6239    1.3678 H   0  0  0  0  0  0  0  0  0  0  0  0
   -3.3608   -2.6749    0.8348 C   0  0  0  0  0  0  0  0  0  0  0  0
   -4.0988   -1.9909    1.2498 H   0  0  0  0  0  0  0  0  0  0  0  0
   -3.5618   -2.8419   -0.2222 H   0  0  0  0  0  0  0  0  0  0  0  0
   -1.9818   -2.0809    0.9918 C   0  0  0  0  0  0  0  0  0  0  0  0
   -1.1288   -2.6669    1.6468 O   0  0  0  0  0  0  0  0  0  0  0  0
   -1.7648   -0.9089    0.3998 N   0  0  0  0  0  0  0  0  0  0  0  0
   -2.5238   -0.4719   -0.1032 H   0  0  0  0  0  0  0  0  0  0  0  0
   -0.4848   -0.1959    0.4138 C   0  0  1  0  0  0  0  0  0  0  0  0
    0.1386   -0.6144    1.2058 H   0  0  0  0  0  0  0  0  0  0  0  0
    0.2271   -0.4272   -0.9334 C   0  0  0  0  0  0  0  0  0  0  0  0
    1.0393    0.2974   -1.0214 H   0  0  0  0  0  0  0  0  0  0  0  0
    0.6609   -1.4282   -0.9401 H   0  0  0  0  0  0  0  0  0  0  0  0
   -0.6927   -0.2756   -2.1575 C   0  0  0  0  0  0  0  0  0  0  0  0
   -1.6991   -0.0149   -1.8304 H   0  0  0  0  0  0  0  0  0  0  0  0
   -0.3126    0.5279   -2.7883 H   0  0  0  0  0  0  0  0  0  0  0  0
   -0.7850   -1.5467   -3.0015 C   0  0  0  0  0  0  0  0  0  0  0  0
   -0.1372   -2.5508   -2.7720 O   0  0  0  0  0  0  0  0  0  0  0  0
   -1.6123   -1.5604   -4.0241 N   0  0  0  0  0  0  0  0  0  0  0  0
   -1.6334   -2.4209   -4.5432 H   0  0  0  0  0  0  0  0  0  0  0  0
   -2.1701   -0.7634   -4.2553 H   0  0  0  0  0  0  0  0  0  0  0  0
   -0.7011    1.2952    0.7149 C   0  0  0  0  0  0  0  0  0  0  0  0
   -1.5917    1.9198    0.1415 O   0  0  0  0  0  0  0  0  0  0  0  0
    0.1191    1.8675    1.6055 N   0  0  0  0  0  0  0  0  0  0  0  0
    0.8092    1.2861    2.0537 H   0  0  0  0  0  0  0  0  0  0  0  0
    0.0509    3.2769    1.9894 C   0  0  0  0  0  0  0  0  0  0  0  0
   -0.9494    3.5076    2.3640 H   0  0  0  0  0  0  0  0  0  0  0  0
    0.7844    3.4956    2.7668 H   0  0  0  0  0  0  0  0  0  0  0  0
    0.2468    3.9058    1.1193 H   0  0  0  0  0  0  0  0  0  0  0  0
  5  6  2  0  0  0  0
  5  7  1  0  0  0  0
  2  3  1  0  0  0  0
  2  4  1  0  0  0  0
  2  5  1  0  0  0  0
  1  2  1  0  0  0  0
 22 23  2  0  0  0  0
 22 24  1  0  0  0  0
 19 20  1  0  0  0  0
 19 21  1  0  0  0  0
 17 18  2  0  0  0  0
 17 19  1  0  0  0  0
 14 15  1  0  0  0  0
 14 16  1  0  0  0  0
 14 17  1  0  0  0  0
 11 12  1  0  0  0  0
 11 13  1  0  0  0  0
 11 14  1  0  0  0  0
  9 10  1  0  0  0  0
  9 11  1  0  0  0  0
  9 22  1  0  0  0  0
  7  8  1  0  0  0  0
  7  9  1  0  0  0  0
 26 27  1  0  0  0  0
 26 28  1  0  0  0  0
 26 29  1  0  0  0  0
 24 25  1  0  0  0  0
 24 26  1  0  0  0  0
M  END
$$$$
default_name
  -OEChem-02102213163D

 29 28  0     1  0  0  0  0  0999 V2000
   -3.3998   -3.6239    1.3678 H   0  0  0  0  0  0  0  0  0  0  0  0
   -3.3608   -2.6749    0.8348 C   0  0  0  0  0  0  0  0  0  0  0  0
   -4.0988   -1.9909    1.2498 H   0  0  0  0  0  0  0  0  0  0  0  0
   -3.5618   -2.8419   -0.2222 H   0  0  0  0  0  0  0  0  0  0  0  0
   -1.9818   -2.0809    0.9918 C   0  0  0  0  0  0  0  0  0  0  0  0
   -1.1288   -2.6669    1.6468 O   0  0  0  0  0  0  0  0  0  0  0  0
   -1.7648   -0.9089    0.3998 N   0  0  0  0  0  0  0  0  0  0  0  0
   -2.5238   -0.4719   -0.1032 H   0  0  0  0  0  0  0  0  0  0  0  0
   -0.4848   -0.1959    0.4138 C   0  0  1  0  0  0  0  0  0  0  0  0
    0.1386   -0.6144    1.2058 H   0  0  0  0  0  0  0  0  0  0  0  0
    0.2271   -0.4272   -0.9334 C   0  0  0  0  0  0  0  0  0  0  0  0
    1.0393    0.2974   -1.0214 H   0  0  0  0  0  0  0  0  0  0  0  0
    0.6609   -1.4282   -0.9401 H   0  0  0  0  0  0  0  0  0  0  0  0
   -0.6927   -0.2756   -2.1575 C   0  0  0  0  0  0  0  0  0  0  0  0
   -1.6102    0.2352   -1.8662 H   0  0  0  0  0  0  0  0  0  0  0  0
   -0.1834    0.3258   -2.9104 H   0  0  0  0  0  0  0  0  0  0  0  0
   -1.0774   -1.6129   -2.7900 C   0  0  0  0  0  0  0  0  0  0  0  0
   -0.6389   -2.6830   -2.4114 O   0  0  0  0  0  0  0  0  0  0  0  0
   -1.9320   -1.6096   -3.7900 N   0  0  0  0  0  0  0  0  0  0  0  0
   -2.1498   -2.5157   -4.1669 H   0  0  0  0  0  0  0  0  0  0  0  0
   -2.3247   -0.7588   -4.1386 H   0  0  0  0  0  0  0  0  0  0  0  0
   -0.7011    1.2952    0.7149 C   0  0  0  0  0  0  0  0  0  0  0  0
   -1.5917    1.9198    0.1415 O   0  0  0  0  0  0  0  0  0  0  0  0
    0.1191    1.8675    1.6055 N   0  0  0  0  0  0  0  0  0  0  0  0
    0.8092    1.2861    2.0537 H   0  0  0  0  0  0  0  0  0  0  0  0
    0.0509    3.2769    1.9894 C   0  0  0  0  0  0  0  0  0  0  0  0
   -0.9494    3.5076    2.3640 H   0  0  0  0  0  0  0  0  0  0  0  0
    0.7844    3.4956    2.7668 H   0  0  0  0  0  0  0  0  0  0  0  0
    0.2468    3.9058    1.1193 H   0  0  0  0  0  0  0  0  0  0  0  0
  5  6  2  0  0  0  0
  5  7  1  0  0  0  0
  2  3  1  0  0  0  0
  2  4  1  0  0  0  0
  2  5  1  0  0  0  0
  1  2  1  0  0  0  0
 22 23  2  0  0  0  0
 22 24  1  0  0  0  0
 19 20  1  0  0  0  0
 19 21  1  0  0  0  0
 17 18  2  0  0  0  0
 17 19  1  0  0  0  0
 14 15  1  0  0  0  0
 14 16  1  0  0  0  0
 14 17  1  0  0  0  0
 11 12  1  0  0  0  0
 11 13  1  0  0  0  0
 11 14  1  0  0  0  0
  9 10  1  0  0  0  0
  9 11  1  0  0  0  0
  9 22  1  0  0  0  0
  7  8  1  0  0  0  0
  7  9  1  0  0  0  0
 26 27  1  0  0  0  0
 26 28  1  0  0  0  0
 26 29  1  0  0  0  0
 24 25  1  0  0  0  0
 24 26  1  0  0  0  0
M  END
$$$$
default_name
  -OEChem-02102213163D

 29 28  0     1  0  0  0  0  0999 V2000
   -3.3998   -3.6239    1.3678 H   0  0  0  0  0  0  0  0  0  0  0  0
   -3.3608   -2.6749    0.8348 C   0  0  0  0  0  0  0  0  0  0  0  0
   -4.0988   -1.9909    1.2498 H   0  0  0  0  0  0  0  0  0  0  0  0
   -3.5618   -2.8419   -0.2222 H   0  0  0  0  0  0  0  0  0  0  0  0
   -1.9818   -2.0809    0.9918 C   0  0  0  0  0  0  0  0  0  0  0  0
   -1.1288   -2.6669    1.6468 O   0  0  0  0  0  0  0  0  0  0  0  0
   -1.7648   -0.9089    0.3998 N   0  0  0  0  0  0  0  0  0  0  0  0
   -2.5238   -0.4719   -0.1032 H   0  0  0  0  0  0  0  0  0  0  0  0
   -0.4848   -0.1959    0.4138 C   0  0  1  0  0  0  0  0  0  0  0  0
    0.1386   -0.6144    1.2058 H   0  0  0  0  0  0  0  0  0  0  0  0
    0.2271   -0.4272   -0.9334 C   0  0  0  0  0  0  0  0  0  0  0  0
    1.0393    0.2974   -1.0214 H   0  0  0  0  0  0  0  0  0  0  0  0
    0.6609   -1.4282   -0.9401 H   0  0  0  0  0  0  0  0  0  0  0  0
   -0.6927   -0.2756   -2.1575 C   0  0  0  0  0  0  0  0  0  0  0  0
   -1.4738    0.4531   -1.9417 H   0  0  0  0  0  0  0  0  0  0  0  0
   -0.1033    0.0852   -3.0004 H   0  0  0  0  0  0  0  0  0  0  0  0
   -1.3680   -1.5840   -2.5680 C   0  0  0  0  0  0  0  0  0  0  0  0
   -1.1415   -2.6515   -2.0298 O   0  0  0  0  0  0  0  0  0  0  0  0
   -2.2449   -1.5552   -3.5480 N   0  0  0  0  0  0  0  0  0  0  0  0
   -2.6584   -2.4427   -3.7756 H   0  0  0  0  0  0  0  0  0  0  0  0
   -2.4701   -0.7044   -4.0226 H   0  0  0  0  0  0  0  0  0  0  0  0
   -0.7011    1.2952    0.7149 C   0  0  0  0  0  0  0  0  0  0  0  0
   -1.5917    1.9198    0.1415 O   0  0  0  0  0  0  0  0  0  0  0  0
    0.1191    1.8675    1.6055 N   0  0  0  0  0  0  0  0  0  0  0  0
    0.8092    1.2861    2.0537 H   0  0  0  0  0  0  0  0  0  0  0  0
    0.0509    3.2769    1.9894 C   0  0  0  0  0  0  0  0  0  0  0  0
   -0.9494    3.5076    2.3640 H   0  0  0  0  0  0  0  0  0  0  0  0
    0.7844    3.4956    2.7668 H   0  0  0  0  0  0  0  0  0  0  0  0
    0.2468    3.9058    1.1193 H   0  0  0  0  0  0  0  0  0  0  0  0
  5  6  2  0  0  0  0
  5  7  1  0  0  0  0
  2  3  1  0  0  0  0
  2  4  1  0  0  0  0
  2  5  1  0  0  0  0
  1  2  1  0  0  0  0
 22 23  2  0  0  0  0
 22 24  1  0  0  0  0
 19 20  1  0  0  0  0
 19 21  1  0  0  0  0
 17 18  2  0  0  0  0
 17 19  1  0  0  0  0
 14 15  1  0  0  0  0
 14 16  1  0  0  0  0
 14 17  1  0  0  0  0
 11 12  1  0  0  0  0
 11 13  1  0  0  0  0
 11 14  1  0  0  0  0
  9 10  1  0  0  0  0
  9 11  1  0  0  0  0
  9 22  1  0  0  0  0
  7  8  1  0  0  0  0
  7  9  1  0  0  0  0
 26 27  1  0  0  0  0
 26 28  1  0  0  0  0
 26 29  1  0  0  0  0
 24 25  1  0  0  0  0
 24 26  1  0  0  0  0
M  END
$$$$
default_name
  -OEChem-02102213163D

 29 28  0     1  0  0  0  0  0999 V2000
   -3.3998   -3.6239    1.3678 H   0  0  0  0  0  0  0  0  0  0  0  0
   -3.3608   -2.6749    0.8348 C   0  0  0  0  0  0  0  0  0  0  0  0
   -4.0988   -1.9909    1.2498 H   0  0  0  0  0  0  0  0  0  0  0  0
   -3.5618   -2.8419   -0.2222 H   0  0  0  0  0  0  0  0  0  0  0  0
   -1.9818   -2.0809    0.9918 C   0  0  0  0  0  0  0  0  0  0  0  0
   -1.1288   -2.6669    1.6468 O   0  0  0  0  0  0  0  0  0  0  0  0
   -1.7648   -0.9089    0.3998 N   0  0  0  0  0  0  0  0  0  0  0  0
   -2.5238   -0.4719   -0.1032 H   0  0  0  0  0  0  0  0  0  0  0  0
   -0.4848   -0.1959    0.4138 C   0  0  1  0  0  0  0  0  0  0  0  0
    0.1386   -0.6144    1.2058 H   0  0  0  0  0  0  0  0  0  0  0  0
    0.2271   -0.4272   -0.9334 C   0  0  0  0  0  0  0  0  0  0  0  0
    1.0393    0.2974   -1.0214 H   0  0  0  0  0  0  0  0  0  0  0  0
    0.6609   -1.4282   -0.9401 H   0  0  0  0  0  0  0  0  0  0  0  0
   -0.6927   -0.2756   -2.1575 C   0  0  0  0  0  0  0  0  0  0  0  0
   -1.2992    0.6237   -2.0518 H   0  0  0  0  0  0  0  0  0  0  0  0
   -0.0778   -0.1777   -3.0521 H   0  0  0  0  0  0  0  0  0  0  0  0
   -1.6372   -1.4619   -2.3507 C   0  0  0  0  0  0  0  0  0  0  0  0
   -1.6108   -2.4586   -1.6533 O   0  0  0  0  0  0  0  0  0  0  0  0
   -2.5299   -1.4007   -3.3148 N   0  0  0  0  0  0  0  0  0  0  0  0
   -3.1247   -2.2070   -3.3960 H   0  0  0  0  0  0  0  0  0  0  0  0
   -2.5964   -0.6040   -3.9152 H   0  0  0  0  0  0  0  0  0  0  0  0
   -0.7011    1.2952    0.7149 C   0  0  0  0  0  0  0  0  0  0  0  0
   -1.5917    1.9198    0.1415 O   0  0  0  0  0  0  0  0  0  0  0  0
    0.1191    1.8675    1.6055 N   0  0  0  0  0  0  0  0  0  0  0  0
    0.8092    1.2861    2.0537 H   0  0  0  0  0  0  0  0  0  0  0  0
    0.0509    3.2769    1.9894 C   0  0  0  0  0  0  0  0  0  0  0  0
   -0.9494    3.5076    2.3640 H   0  0  0  0  0  0  0  0  0  0  0  0
    0.7844    3.4956    2.7668 H   0  0  0  0  0  0  0  0  0  0  0  0
    0.2468    3.9058    1.1193 H   0  0  0  0  0  0  0  0  0  0  0  0
  5  6  2  0  0  0  0
  5  7  1  0  0  0  0
  2  3  1  0  0  0  0
  2  4  1  0  0  0  0
  2  5  1  0  0  0  0
  1  2  1  0  0  0  0
 22 23  2  0  0  0  0
 22 24  1  0  0  0  0
 19 20  1  0  0  0  0
 19 21  1  0  0  0  0
 17 18  2  0  0  0  0
 17 19  1  0  0  0  0
 14 15  1  0  0  0  0
 14 16  1  0  0  0  0
 14 17  1  0  0  0  0
 11 12  1  0  0  0  0
 11 13  1  0  0  0  0
 11 14  1  0  0  0  0
  9 10  1  0  0  0  0
  9 11  1  0  0  0  0
  9 22  1  0  0  0  0
  7  8  1  0  0  0  0
  7  9  1  0  0  0  0
 26 27  1  0  0  0  0
 26 28  1  0  0  0  0
 26 29  1  0  0  0  0
 24 25  1  0  0  0  0
 24 26  1  0  0  0  0
M  END
$$$$
default_name
  -OEChem-02102213163D

 29 28  0     1  0  0  0  0  0999 V2000
   -3.3998   -3.6239    1.3678 H   0  0  0  0  0  0  0  0  0  0  0  0
   -3.3608   -2.6749    0.8348 C   0  0  0  0  0  0  0  0  0  0  0  0
   -4.0988   -1.9909    1.2498 H   0  0  0  0  0  0  0  0  0  0  0  0
   -3.5618   -2.8419   -0.2222 H   0  0  0  0  0  0  0  0  0  0  0  0
   -1.9818   -2.0809    0.9918 C   0  0  0  0  0  0  0  0  0  0  0  0
   -1.1288   -2.6669    1.6468 O   0  0  0  0  0  0  0  0  0  0  0  0
   -1.7648   -0.9089    0.3998 N   0  0  0  0  0  0  0  0  0  0  0  0
   -2.5238   -0.4719   -0.1032 H   0  0  0  0  0  0  0  0  0  0  0  0
   -0.4848   -0.1959    0.4138 C   0  0  1  0  0  0  0  0  0  0  0  0
    0.1386   -0.6144    1.2058 H   0  0  0  0  0  0  0  0  0  0  0  0
    0.2271   -0.4272   -0.9334 C   0  0  0  0  0  0  0  0  0  0  0  0
    1.0393    0.2974   -1.0214 H   0  0  0  0  0  0  0  0  0  0  0  0
    0.6609   -1.4282   -0.9401 H   0  0  0  0  0  0  0  0  0  0  0  0
   -0.6927   -0.2756   -2.1575 C   0  0  0  0  0  0  0  0  0  0  0  0
   -1.0981    0.7355   -2.1890 H   0  0  0  0  0  0  0  0  0  0  0  0
   -0.1086   -0.4449   -3.0620 H   0  0  0  0  0  0  0  0  0  0  0  0
   -1.8664   -1.2549   -2.1527 C   0  0  0  0  0  0  0  0  0  0  0  0
   -2.0148   -2.1174   -1.3074 O   0  0  0  0  0  0  0  0  0  0  0  0
   -2.7673   -1.1568   -3.1062 N   0  0  0  0  0  0  0  0  0  0  0  0
   -3.5169   -1.8245   -3.0539 H   0  0  0  0  0  0  0  0  0  0  0  0
   -2.6950   -0.4644   -3.8238 H   0  0  0  0  0  0  0  0  0  0  0  0
   -0.7011    1.2952    0.7149 C   0  0  0  0  0  0  0  0  0  0  0  0
   -1.5917    1.9198    0.1415 O   0  0  0  0  0  0  0  0  0  0  0  0
    0.1191    1.8675    1.6055 N   0  0  0  0  0  0  0  0  0  0  0  0
    0.8092    1.2861    2.0537 H   0  0  0  0  0  0  0  0  0  0  0  0
    0.0509    3.2769    1.9894 C   0  0  0  0  0  0  0  0  0  0  0  0
   -0.9494    3.5076    2.3640 H   0  0  0  0  0  0  0  0  0  0  0  0
    0.7844    3.4956    2.7668 H   0  0  0  0  0  0  0  0  0  0  0  0
    0.2468    3.9058    1.1193 H   0  0  0  0  0  0  0  0  0  0  0  0
  5  6  2  0  0  0  0
  5  7  1  0  0  0  0
  2  3  1  0  0  0  0
  2  4  1  0  0  0  0
  2  5  1  0  0  0  0
  1  2  1  0  0  0  0
 22 23  2  0  0  0  0
 22 24  1  0  0  0  0
 19 20  1  0  0  0  0
 19 21  1  0  0  0  0
 17 18  2  0  0  0  0
 17 19  1  0  0  0  0
 14 15  1  0  0  0  0
 14 16  1  0  0  0  0
 14 17  1  0  0  0  0
 11 12  1  0  0  0  0
 11 13  1  0  0  0  0
 11 14  1  0  0  0  0
  9 10  1  0  0  0  0
  9 11  1  0  0  0  0
  9 22  1  0  0  0  0
  7  8  1  0  0  0  0
  7  9  1  0  0  0  0
 26 27  1  0  0  0  0
 26 28  1  0  0  0  0
 26 29  1  0  0  0  0
 24 25  1  0  0  0  0
 24 26  1  0  0  0  0
M  END
$$$$
default_name
  -OEChem-02102213163D

 29 28  0     1  0  0  0  0  0999 V2000
   -3.3998   -3.6239    1.3678 H   0  0  0  0  0  0  0  0  0  0  0  0
   -3.3608   -2.6749    0.8348 C   0  0  0  0  0  0  0  0  0  0  0  0
   -4.0988   -1.9909    1.2498 H   0  0  0  0  0  0  0  0  0  0  0  0
   -3.5618   -2.8419   -0.2222 H   0  0  0  0  0  0  0  0  0  0  0  0
   -1.9818   -2.0809    0.9918 C   0  0  0  0  0  0  0  0  0  0  0  0
   -1.1288   -2.6669    1.6468 O   0  0  0  0  0  0  0  0  0  0  0  0
   -1.7648   -0.9089    0.3998 N   0  0  0  0  0  0  0  0  0  0  0  0
   -2.5238   -0.4719   -0.1032 H   0  0  0  0  0  0  0  0  0  0  0  0
   -0.4848   -0.1959    0.4138 C   0  0  1  0  0  0  0  0  0  0  0  0
    0.1386   -0.6144    1.2058 H   0  0  0  0  0  0  0  0  0  0  0  0
    0.2271   -0.4272   -0.9334 C   0  0  0  0  0  0  0  0  0  0  0  0
    1.0393    0.2974   -1.0214 H   0  0  0  0  0  0  0  0  0  0  0  0
    0.6609   -1.4282   -0.9401 H   0  0  0  0  0  0  0  0  0  0  0  0
   -0.6927   -0.2756   -2.1575 C   0  0  0  0  0  0  0  0  0  0  0  0
   -0.8844    0.7809   -2.3440 H   0  0  0  0  0  0  0  0  0  0  0  0
   -0.1937   -0.6982   -3.0295 H   0  0  0  0  0  0  0  0  0  0  0  0
   -2.0402   -0.9771   -1.9878 C   0  0  0  0  0  0  0  0  0  0  0  0
   -2.3260   -1.6511   -1.0159 O   0  0  0  0  0  0  0  0  0  0  0  0
   -2.9411   -0.8400   -2.9363 N   0  0  0  0  0  0  0  0  0  0  0  0
   -3.8083   -1.3213   -2.7726 H   0  0  0  0  0  0  0  0  0  0  0  0
   -2.7591   -0.2951   -3.7547 H   0  0  0  0  0  0  0  0  0  0  0  0
   -0.7011    1.2952    0.7149 C   0  0  0  0  0  0  0  0  0  0  0  0
   -1.5917    1.9198    0.1415 O   0  0  0  0  0  0  0  0  0  0  0  0
    0.1191    1.8675    1.6055 N   0  0  0  0  0  0  0  0  0  0  0  0
    0.8092    1.2861    2.0537 H   0  0  0  0  0  0  0  0  0  0  0  0
    0.0509    3.2769    1.9894 C   0  0  0  0  0  0  0  0  0  0  0  0
   -0.9494    3.5076    2.3640 H   0  0  0  0  0  0  0  0  0  0  0  0
    0.7844    3.4956    2.7668 H   0  0  0  0  0  0  0  0  0  0  0  0
    0.2468    3.9058    1.1193 H   0  0  0  0  0  0  0  0  0  0  0  0
  5  6  2  0  0  0  0
  5  7  1  0  0  0  0
  2  3  1  0  0  0  0
  2  4  1  0  0  0  0
  2  5  1  0  0  0  0
  1  2  1  0  0  0  0
 22 23  2  0  0  0  0
 22 24  1  0  0  0  0
 19 20  1  0  0  0  0
 19 21  1  0  0  0  0
 17 18  2  0  0  0  0
 17 19  1  0  0  0  0
 14 15  1  0  0  0  0
 14 16  1  0  0  0  0
 14 17  1  0  0  0  0
 11 12  1  0  0  0  0
 11 13  1  0  0  0  0
 11 14  1  0  0  0  0
  9 10  1  0  0  0  0
  9 11  1  0  0  0  0
  9 22  1  0  0  0  0
  7  8  1  0  0  0  0
  7  9  1  0  0  0  0
 26 27  1  0  0  0  0
 26 28  1  0  0  0  0
 26 29  1  0  0  0  0
 24 25  1  0  0  0  0
 24 26  1  0  0  0  0
M  END
$$$$
default_name
  -OEChem-02102213163D

 29 28  0     1  0  0  0  0  0999 V2000
   -3.3998   -3.6239    1.3678 H   0  0  0  0  0  0  0  0  0  0  0  0
   -3.3608   -2.6749    0.8348 C   0  0  0  0  0  0  0  0  0  0  0  0
   -4.0988   -1.9909    1.2498 H   0  0  0  0  0  0  0  0  0  0  0  0
   -3.5618   -2.8419   -0.2222 H   0  0  0  0  0  0  0  0  0  0  0  0
   -1.9818   -2.0809    0.9918 C   0  0  0  0  0  0  0  0  0  0  0  0
   -1.1288   -2.6669    1.6468 O   0  0  0  0  0  0  0  0  0  0  0  0
   -1.7648   -0.9089    0.3998 N   0  0  0  0  0  0  0  0  0  0  0  0
   -2.5238   -0.4719   -0.1032 H   0  0  0  0  0  0  0  0  0  0  0  0
   -0.4848   -0.1959    0.4138 C   0  0  1  0  0  0  0  0  0  0  0  0
    0.1386   -0.6144    1.2058 H   0  0  0  0  0  0  0  0  0  0  0  0
    0.2271   -0.4272   -0.9334 C   0  0  0  0  0  0  0  0  0  0  0  0
    1.0393    0.2974   -1.0214 H   0  0  0  0  0  0  0  0  0  0  0  0
    0.6609   -1.4282   -0.9401 H   0  0  0  0  0  0  0  0  0  0  0  0
   -0.6927   -0.2756   -2.1575 C   0  0  0  0  0  0  0  0  0  0  0  0
   -0.6726    0.7567   -2.5062 H   0  0  0  0  0  0  0  0  0  0  0  0
   -0.3271   -0.9203   -2.9567 H   0  0  0  0  0  0  0  0  0  0  0  0
   -2.1466   -0.6474   -1.8669 C   0  0  0  0  0  0  0  0  0  0  0  0
   -2.5230   -1.0915   -0.7984 O   0  0  0  0  0  0  0  0  0  0  0  0
   -3.0395   -0.4719   -2.8168 N   0  0  0  0  0  0  0  0  0  0  0  0
   -3.9790   -0.7318   -2.5714 H   0  0  0  0  0  0  0  0  0  0  0  0
   -2.7845   -0.1077   -3.7124 H   0  0  0  0  0  0  0  0  0  0  0  0
   -0.7011    1.2952    0.7149 C   0  0  0  0  0  0  0  0  0  0  0  0
   -1.5917    1.9198    0.1415 O   0  0  0  0  0  0  0  0  0  0  0  0
    0.1191    1.8675    1.6055 N   0  0  0  0  0  0  0  0  0  0  0  0
    0.8092    1.2861    2.0537 H   0  0  0  0  0  0  0  0  0  0  0  0
    0.0509    3.2769    1.9894 C   0  0  0  0  0  0  0  0  0  0  0  0
   -0.9494    3.5076    2.3640 H   0  0  0  0  0  0  0  0  0  0  0  0
    0.7844    3.4956    2.7668 H   0  0  0  0  0  0  0  0  0  0  0  0
    0.2468    3.9058    1.1193 H   0  0  0  0  0  0  0  0  0  0  0  0
  5  6  2  0  0  0  0
  5  7  1  0  0  0  0
  2  3  1  0  0  0  0
  2  4  1  0  0  0  0
  2  5  1  0  0  0  0
  1  2  1  0  0  0  0
 22 23  2  0  0  0  0
 22 24  1  0  0  0  0
 19 20  1  0  0  0  0
 19 21  1  0  0  0  0
 17 18  2  0  0  0  0
 17 19  1  0  0  0  0
 14 15  1  0  0  0  0
 14 16  1  0  0  0  0
 14 17  1  0  0  0  0
 11 12  1  0  0  0  0
 11 13  1  0  0  0  0
 11 14  1  0  0  0  0
  9 10  1  0  0  0  0
  9 11  1  0  0  0  0
  9 22  1  0  0  0  0
  7  8  1  0  0  0  0
  7  9  1  0  0  0  0
 26 27  1  0  0  0  0
 26 28  1  0  0  0  0
 26 29  1  0  0  0  0
 24 25  1  0  0  0  0
 24 26  1  0  0  0  0
M  END
$$$$
default_name
  -OEChem-02102213163D

 29 28  0     1  0  0  0  0  0999 V2000
   -3.3998   -3.6239    1.3678 H   0  0  0  0  0  0  0  0  0  0  0  0
   -3.3608   -2.6749    0.8348 C   0  0  0  0  0  0  0  0  0  0  0  0
   -4.0988   -1.9909    1.2498 H   0  0  0  0  0  0  0  0  0  0  0  0
   -3.5618   -2.8419   -0.2222 H   0  0  0  0  0  0  0  0  0  0  0  0
   -1.9818   -2.0809    0.9918 C   0  0  0  0  0  0  0  0  0  0  0  0
   -1.1288   -2.6669    1.6468 O   0  0  0  0  0  0  0  0  0  0  0  0
   -1.7648   -0.9089    0.3998 N   0  0  0  0  0  0  0  0  0  0  0  0
   -2.5238   -0.4719   -0.1032 H   0  0  0  0  0  0  0  0  0  0  0  0
   -0.4848   -0.1959    0.4138 C   0  0  1  0  0  0  0  0  0  0  0  0
    0.1386   -0.6144    1.2058 H   0  0  0  0  0  0  0  0  0  0  0  0
    0.2271   -0.4272   -0.9334 C   0  0  0  0  0  0  0  0  0  0  0  0
    1.0393    0.2974   -1.0214 H   0  0  0  0  0  0  0  0  0  0  0  0
    0.6609   -1.4282   -0.9401 H   0  0  0  0  0  0  0  0  0  0  0  0
   -0.6927   -0.2756   -2.1575 C   0  0  0  0  0  0  0  0  0  0  0  0
   -0.4771    0.6647   -2.6645 H   0  0  0  0  0  0  0  0  0  0  0  0
   -0.4999   -1.0960   -2.8486 H   0  0  0  0  0  0  0  0  0  0  0  0
   -2.1785   -0.2884   -1.7985 C   0  0  0  0  0  0  0  0  0  0  0  0
   -2.5927   -0.4768   -0.6700 O   0  0  0  0  0  0  0  0  0  0  0  0
   -3.0556   -0.0776   -2.7559 N   0  0  0  0  0  0  0  0  0  0  0  0
   -4.0173   -0.0961   -2.4639 H   0  0  0  0  0  0  0  0  0  0  0  0
   -2.7693    0.0851   -3.6999 H   0  0  0  0  0  0  0  0  0  0  0  0
   -0.7011    1.2952    0.7149 C   0  0  0  0  0  0  0  0  0  0  0  0
   -1.5917    1.9198    0.1415 O   0  0  0  0  0  0  0  0  0  0  0  0
    0.1191    1.8675    1.6055 N   0  0  0  0  0  0  0  0  0  0  0  0
    0.8092    1.2861    2.0537 H   0  0  0  0  0  0  0  0  0  0  0  0
    0.0509    3.2769    1.9894 C   0  0  0  0  0  0  0  0  0  0  0  0
   -0.9494    3.5076    2.3640 H   0  0  0  0  0  0  0  0  0  0  0  0
    0.7844    3.4956    2.7668 H   0  0  0  0  0  0  0  0  0  0  0  0
    0.2468    3.9058    1.1193 H   0  0  0  0  0  0  0  0  0  0  0  0
  5  6  2  0  0  0  0
  5  7  1  0  0  0  0
  2  3  1  0  0  0  0
  2  4  1  0  0  0  0
  2  5  1  0  0  0  0
  1  2  1  0  0  0  0
 22 23  2  0  0  0  0
 22 24  1  0  0  0  0
 19 20  1  0  0  0  0
 19 21  1  0  0  0  0
 17 18  2  0  0  0  0
 17 19  1  0  0  0  0
 14 15  1  0  0  0  0
 14 16  1  0  0  0  0
 14 17  1  0  0  0  0
 11 12  1  0  0  0  0
 11 13  1  0  0  0  0
 11 14  1  0  0  0  0
  9 10  1  0  0  0  0
  9 11  1  0  0  0  0
  9 22  1  0  0  0  0
  7  8  1  0  0  0  0
  7  9  1  0  0  0  0
 26 27  1  0  0  0  0
 26 28  1  0  0  0  0
 26 29  1  0  0  0  0
 24 25  1  0  0  0  0
 24 26  1  0  0  0  0
M  END
$$$$
default_name
  -OEChem-02102213163D

 29 28  0     1  0  0  0  0  0999 V2000
   -3.3998   -3.6239    1.3678 H   0  0  0  0  0  0  0  0  0  0  0  0
   -3.3608   -2.6749    0.8348 C   0  0  0  0  0  0  0  0  0  0  0  0
   -4.0988   -1.9909    1.2498 H   0  0  0  0  0  0  0  0  0  0  0  0
   -3.5618   -2.8419   -0.2222 H   0  0  0  0  0  0  0  0  0  0  0  0
   -1.9818   -2.0809    0.9918 C   0  0  0  0  0  0  0  0  0  0  0  0
   -1.1288   -2.6669    1.6468 O   0  0  0  0  0  0  0  0  0  0  0  0
   -1.7648   -0.9089    0.3998 N   0  0  0  0  0  0  0  0  0  0  0  0
   -2.5238   -0.4719   -0.1032 H   0  0  0  0  0  0  0  0  0  0  0  0
   -0.4848   -0.1959    0.4138 C   0  0  1  0  0  0  0  0  0  0  0  0
    0.1386   -0.6144    1.2058 H   0  0  0  0  0  0  0  0  0  0  0  0
    0.2271   -0.4272   -0.9334 C   0  0  0  0  0  0  0  0  0  0  0  0
    1.0393    0.2974   -1.0214 H   0  0  0  0  0  0  0  0  0  0  0  0
    0.6609   -1.4282   -0.9401 H   0  0  0  0  0  0  0  0  0  0  0  0
   -0.6927   -0.2756   -2.1575 C   0  0  0  0  0  0  0  0  0  0  0  0
   -0.3112    0.5110   -2.8081 H   0  0  0  0  0  0  0  0  0  0  0  0
   -0.7002   -1.2135   -2.7126 H   0  0  0  0  0  0  0  0  0  0  0  0
   -2.1336    0.0755   -1.7872 C   0  0  0  0  0  0  0  0  0  0  0  0
   -2.5300    0.1512   -0.6393 O   0  0  0  0  0  0  0  0  0  0  0  0
   -2.9884    0.3160   -2.7576 N   0  0  0  0  0  0  0  0  0  0  0  0
   -3.9207    0.5425   -2.4574 H   0  0  0  0  0  0  0  0  0  0  0  0
   -2.7146    0.2702   -3.7181 H   0  0  0  0  0  0  0  0  0  0  0  0
   -0.7011    1.2952    0.7149 C   0  0  0  0  0  0  0  0  0  0  0  0
   -1.5917    1.9198    0.1415 O   0  0  0  0  0  0  0  0  0  0  0  0
    0.1191    1.8675    1.6055 N   0  0  0  0  0  0  0  0  0  0  0  0
    0.8092    1.2861    2.0537 H   0  0  0  0  0  0  0  0  0  0  0  0
    0.0509    3.2769    1.9894 C   0  0  0  0  0  0  0  0  0  0  0  0
   -0.9494    3.5076    2.3640 H   0  0  0  0  0  0  0  0  0  0  0  0
    0.7844    3.4956    2.7668 H   0  0  0  0  0  0  0  0  0  0  0  0
    0.2468    3.9058    1.1193 H   0  0  0  0  0  0  0  0  0  0  0  0
  5  6  2  0  0  0  0
  5  7  1  0  0  0  0
  2  3  1  0  0  0  0
  2  4  1  0  0  0  0
  2  5  1  0  0  0  0
  1  2  1  0  0  0  0
 22 23  2  0  0  0  0
 22 24  1  0  0  0  0
 19 20  1  0  0  0  0
 19 21  1  0  0  0  0
 17 18  2  0  0  0  0
 17 19  1  0  0  0  0
 14 15  1  0  0  0  0
 14 16  1  0  0  0  0
 14 17  1  0  0  0  0
 11 12  1  0  0  0  0
 11 13  1  0  0  0  0
 11 14  1  0  0  0  0
  9 10  1  0  0  0  0
  9 11  1  0  0  0  0
  9 22  1  0  0  0  0
  7  8  1  0  0  0  0
  7  9  1  0  0  0  0
 26 27  1  0  0  0  0
 26 28  1  0  0  0  0
 26 29  1  0  0  0  0
 24 25  1  0  0  0  0
 24 26  1  0  0  0  0
M  END
$$$$
default_name
  -OEChem-02102213163D

 29 28  0     1  0  0  0  0  0999 V2000
   -3.3998   -3.6239    1.3678 H   0  0  0  0  0  0  0  0  0  0  0  0
   -3.3608   -2.6749    0.8348 C   0  0  0  0  0  0  0  0  0  0  0  0
   -4.0988   -1.9909    1.2498 H   0  0  0  0  0  0  0  0  0  0  0  0
   -3.5618   -2.8419   -0.2222 H   0  0  0  0  0  0  0  0  0  0  0  0
   -1.9818   -2.0809    0.9918 C   0  0  0  0  0  0  0  0  0  0  0  0
   -1.1288   -2.6669    1.6468 O   0  0  0  0  0  0  0  0  0  0  0  0
   -1.7648   -0.9089    0.3998 N   0  0  0  0  0  0  0  0  0  0  0  0
   -2.5238   -0.4719   -0.1032 H   0  0  0  0  0  0  0  0  0  0  0  0
   -0.4848   -0.1959    0.4138 C   0  0  1  0  0  0  0  0  0  0  0  0
    0.1386   -0.6144    1.2058 H   0  0  0  0  0  0  0  0  0  0  0  0
    0.2271   -0.4272   -0.9334 C   0  0  0  0  0  0  0  0  0  0  0  0
    1.0393    0.2974   -1.0214 H   0  0  0  0  0  0  0  0  0  0  0  0
    0.6609   -1.4282   -0.9401 H   0  0  0  0  0  0  0  0  0  0  0  0
   -0.6927   -0.2756   -2.1575 C   0  0  0  0  0  0  0  0  0  0  0  0
   -0.1863    0.3062   -2.9274 H   0  0  0  0  0  0  0  0  0  0  0  0
   -0.9145   -1.2647   -2.5580 H   0  0  0  0  0  0  0  0  0  0  0  0
   -2.0151    0.4195   -1.8337 C   0  0  0  0  0  0  0  0  0  0  0  0
   -2.3395    0.7496   -0.7083 O   0  0  0  0  0  0  0  0  0  0  0  0
   -2.8426    0.6821   -2.8218 N   0  0  0  0  0  0  0  0  0  0  0  0
   -3.6957    1.1404   -2.5524 H   0  0  0  0  0  0  0  0  0  0  0  0
   -2.6242    0.4348   -3.7657 H   0  0  0  0  0  0  0  0  0  0  0  0
   -0.7011    1.2952    0.7149 C   0  0  0  0  0  0  0  0  0  0  0  0
   -1.5917    1.9198    0.1415 O   0  0  0  0  0  0  0  0  0  0  0  0
    0.1191    1.8675    1.6055 N   0  0  0  0  0  0  0  0  0  0  0  0
    0.8092    1.2861    2.0537 H   0  0  0  0  0  0  0  0  0  0  0  0
    0.0509    3.2769    1.9894 C   0  0  0  0  0  0  0  0  0  0  0  0
   -0.9494    3.5076    2.3640 H   0  0  0  0  0  0  0  0  0  0  0  0
    0.7844    3.4956    2.7668 H   0  0  0  0  0  0  0  0  0  0  0  0
    0.2468    3.9058    1.1193 H   0  0  0  0  0  0  0  0  0  0  0  0
  5  6  2  0  0  0  0
  5  7  1  0  0  0  0
  2  3  1  0  0  0  0
  2  4  1  0  0  0  0
  2  5  1  0  0  0  0
  1  2  1  0  0  0  0
 22 23  2  0  0  0  0
 22 24  1  0  0  0  0
 19 20  1  0  0  0  0
 19 21  1  0  0  0  0
 17 18  2  0  0  0  0
 17 19  1  0  0  0  0
 14 15  1  0  0  0  0
 14 16  1  0  0  0  0
 14 17  1  0  0  0  0
 11 12  1  0  0  0  0
 11 13  1  0  0  0  0
 11 14  1  0  0  0  0
  9 10  1  0  0  0  0
  9 11  1  0  0  0  0
  9 22  1  0  0  0  0
  7  8  1  0  0  0  0
  7  9  1  0  0  0  0
 26 27  1  0  0  0  0
 26 28  1  0  0  0  0
 26 29  1  0  0  0  0
 24 25  1  0  0  0  0
 24 26  1  0  0  0  0
M  END
$$$$
default_name
  -OEChem-02102213163D

 29 28  0     1  0  0  0  0  0999 V2000
   -3.3998   -3.6239    1.3678 H   0  0  0  0  0  0  0  0  0  0  0  0
   -3.3608   -2.6749    0.8348 C   0  0  0  0  0  0  0  0  0  0  0  0
   -4.0988   -1.9909    1.2498 H   0  0  0  0  0  0  0  0  0  0  0  0
   -3.5618   -2.8419   -0.2222 H   0  0  0  0  0  0  0  0  0  0  0  0
   -1.9818   -2.0809    0.9918 C   0  0  0  0  0  0  0  0  0  0  0  0
   -1.1288   -2.6669    1.6468 O   0  0  0  0  0  0  0  0  0  0  0  0
   -1.7648   -0.9089    0.3998 N   0  0  0  0  0  0  0  0  0  0  0  0
   -2.5238   -0.4719   -0.1032 H   0  0  0  0  0  0  0  0  0  0  0  0
   -0.4848   -0.1959    0.4138 C   0  0  1  0  0  0  0  0  0  0  0  0
    0.1386   -0.6144    1.2058 H   0  0  0  0  0  0  0  0  0  0  0  0
    0.2271   -0.4272   -0.9334 C   0  0  0  0  0  0  0  0  0  0  0  0
    1.0393    0.2974   -1.0214 H   0  0  0  0  0  0  0  0  0  0  0  0
    0.6609   -1.4282   -0.9401 H   0  0  0  0  0  0  0  0  0  0  0  0
   -0.6927   -0.2756   -2.1575 C   0  0  0  0  0  0  0  0  0  0  0  0
   -0.1109    0.0643   -3.0140 H   0  0  0  0  0  0  0  0  0  0  0  0
   -1.1280   -1.2461   -2.3952 H   0  0  0  0  0  0  0  0  0  0  0  0
   -1.8309    0.7203   -1.9348 C   0  0  0  0  0  0  0  0  0  0  0  0
   -2.0339    1.2778   -0.8725 O   0  0  0  0  0  0  0  0  0  0  0  0
   -2.6279    0.9957   -2.9443 N   0  0  0  0  0  0  0  0  0  0  0  0
   -3.3577    1.6569   -2.7424 H   0  0  0  0  0  0  0  0  0  0  0  0
   -2.5041    0.5679   -3.8394 H   0  0  0  0  0  0  0  0  0  0  0  0
   -0.7011    1.2952    0.7149 C   0  0  0  0  0  0  0  0  0  0  0  0
   -1.5917    1.9198    0.1415 O   0  0  0  0  0  0  0  0  0  0  0  0
    0.1191    1.8675    1.6055 N   0  0  0  0  0  0  0  0  0  0  0  0
    0.8092    1.2861    2.0537 H   0  0  0  0  0  0  0  0  0  0  0  0
    0.0509    3.2769    1.9894 C   0  0  0  0  0  0  0  0  0  0  0  0
   -0.9494    3.5076    2.3640 H   0  0  0  0  0  0  0  0  0  0  0  0
    0.7844    3.4956    2.7668 H   0  0  0  0  0  0  0  0  0  0  0  0
    0.2468    3.9058    1.1193 H   0  0  0  0  0  0  0  0  0  0  0  0
  5  6  2  0  0  0  0
  5  7  1  0  0  0  0
  2  3  1  0  0  0  0
  2  4  1  0  0  0  0
  2  5  1  0  0  0  0
  1  2  1  0  0  0  0
 22 23  2  0  0  0  0
 22 24  1  0  0  0  0
 19 20  1  0  0  0  0
 19 21  1  0  0  0  0
 17 18  2  0  0  0  0
 17 19  1  0  0  0  0
 14 15  1  0  0  0  0
 14 16  1  0  0  0  0
 14 17  1  0  0  0  0
 11 12  1  0  0  0  0
 11 13  1  0  0  0  0
 11 14  1  0  0  0  0
  9 10  1  0  0  0  0
  9 11  1  0  0  0  0
  9 22  1  0  0  0  0
  7  8  1  0  0  0  0
  7  9  1  0  0  0  0
 26 27  1  0  0  0  0
 26 28  1  0  0  0  0
 26 29  1  0  0  0  0
 24 25  1  0  0  0  0
 24 26  1  0  0  0  0
M  END
$$$$
default_name
  -OEChem-02102213163D

 29 28  0     1  0  0  0  0  0999 V2000
   -3.3998   -3.6239    1.3678 H   0  0  0  0  0  0  0  0  0  0  0  0
   -3.3608   -2.6749    0.8348 C   0  0  0  0  0  0  0  0  0  0  0  0
   -4.0988   -1.9909    1.2498 H   0  0  0  0  0  0  0  0  0  0  0  0
   -3.5618   -2.8419   -0.2222 H   0  0  0  0  0  0  0  0  0  0  0  0
   -1.9818   -2.0809    0.9918 C   0  0  0  0  0  0  0  0  0  0  0  0
   -1.1288   -2.6669    1.6468 O   0  0  0  0  0  0  0  0  0  0  0  0
   -1.7648   -0.9089    0.3998 N   0  0  0  0  0  0  0  0  0  0  0  0
   -2.5238   -0.4719   -0.1032 H   0  0  0  0  0  0  0  0  0  0  0  0
   -0.4848   -0.1959    0.4138 C   0  0  1  0  0  0  0  0  0  0  0  0
    0.1386   -0.6144    1.2058 H   0  0  0  0  0  0  0  0  0  0  0  0
    0.2271   -0.4272   -0.9334 C   0  0  0  0  0  0  0  0  0  0  0  0
    1.0393    0.2974   -1.0214 H   0  0  0  0  0  0  0  0  0  0  0  0
    0.6609   -1.4282   -0.9401 H   0  0  0  0  0  0  0  0  0  0  0  0
   -0.6927   -0.2756   -2.1575 C   0  0  0  0  0  0  0  0  0  0  0  0
   -0.0901   -0.1984   -3.0622 H   0  0  0  0  0  0  0  0  0  0  0  0
   -1.3263   -1.1590   -2.2354 H   0  0  0  0  0  0  0  0  0  0  0  0
   -1.5936    0.9571   -2.0838 C   0  0  0  0  0  0  0  0  0  0  0  0
   -1.6343    1.6996   -1.1206 O   0  0  0  0  0  0  0  0  0  0  0  0
   -2.3592    1.2356   -3.1166 N   0  0  0  0  0  0  0  0  0  0  0  0
   -2.9297    2.0569   -3.0145 H   0  0  0  0  0  0  0  0  0  0  0  0
   -2.3626    0.6603   -3.9343 H   0  0  0  0  0  0  0  0  0  0  0  0
   -0.7011    1.2952    0.7149 C   0  0  0  0  0  0  0  0  0  0  0  0
   -1.5917    1.9198    0.1415 O   0  0  0  0  0  0  0  0  0  0  0  0
    0.1191    1.8675    1.6055 N   0  0  0  0  0  0  0  0  0  0  0  0
    0.8092    1.2861    2.0537 H   0  0  0  0  0  0  0  0  0  0  0  0
    0.0509    3.2769    1.9894 C   0  0  0  0  0  0  0  0  0  0  0  0
   -0.9494    3.5076    2.3640 H   0  0  0  0  0  0  0  0  0  0  0  0
    0.7844    3.4956    2.7668 H   0  0  0  0  0  0  0  0  0  0  0  0
    0.2468    3.9058    1.1193 H   0  0  0  0  0  0  0  0  0  0  0  0
  5  6  2  0  0  0  0
  5  7  1  0  0  0  0
  2  3  1  0  0  0  0
  2  4  1  0  0  0  0
  2  5  1  0  0  0  0
  1  2  1  0  0  0  0
 22 23  2  0  0  0  0
 22 24  1  0  0  0  0
 19 20  1  0  0  0  0
 19 21  1  0  0  0  0
 17 18  2  0  0  0  0
 17 19  1  0  0  0  0
 14 15  1  0  0  0  0
 14 16  1  0  0  0  0
 14 17  1  0  0  0  0
 11 12  1  0  0  0  0
 11 13  1  0  0  0  0
 11 14  1  0  0  0  0
  9 10  1  0  0  0  0
  9 11  1  0  0  0  0
  9 22  1  0  0  0  0
  7  8  1  0  0  0  0
  7  9  1  0  0  0  0
 26 27  1  0  0  0  0
 26 28  1  0  0  0  0
 26 29  1  0  0  0  0
 24 25  1  0  0  0  0
 24 26  1  0  0  0  0
M  END
$$$$
default_name
  -OEChem-02102213163D

 29 28  0     1  0  0  0  0  0999 V2000
   -3.3998   -3.6239    1.3678 H   0  0  0  0  0  0  0  0  0  0  0  0
   -3.3608   -2.6749    0.8348 C   0  0  0  0  0  0  0  0  0  0  0  0
   -4.0988   -1.9909    1.2498 H   0  0  0  0  0  0  0  0  0  0  0  0
   -3.5618   -2.8419   -0.2222 H   0  0  0  0  0  0  0  0  0  0  0  0
   -1.9818   -2.0809    0.9918 C   0  0  0  0  0  0  0  0  0  0  0  0
   -1.1288   -2.6669    1.6468 O   0  0  0  0  0  0  0  0  0  0  0  0
   -1.7648   -0.9089    0.3998 N   0  0  0  0  0  0  0  0  0  0  0  0
   -2.5238   -0.4719   -0.1032 H   0  0  0  0  0  0  0  0  0  0  0  0
   -0.4848   -0.1959    0.4138 C   0  0  1  0  0  0  0  0  0  0  0  0
    0.1386   -0.6144    1.2058 H   0  0  0  0  0  0  0  0  0  0  0  0
    0.2271   -0.4272   -0.9334 C   0  0  0  0  0  0  0  0  0  0  0  0
    1.0393    0.2974   -1.0214 H   0  0  0  0  0  0  0  0  0  0  0  0
    0.6609   -1.4282   -0.9401 H   0  0  0  0  0  0  0  0  0  0  0  0
   -0.6927   -0.2756   -2.1575 C   0  0  0  0  0  0  0  0  0  0  0  0
   -0.1253   -0.4639   -3.0686 H   0  0  0  0  0  0  0  0  0  0  0  0
   -1.4958   -1.0094   -2.0895 H   0  0  0  0  0  0  0  0  0  0  0  0
   -1.3195    1.1141   -2.2704 C   0  0  0  0  0  0  0  0  0  0  0  0
   -1.1677    1.9864   -1.4357 O   0  0  0  0  0  0  0  0  0  0  0  0
   -2.0546    1.3852   -3.3269 N   0  0  0  0  0  0  0  0  0  0  0  0
   -2.4409    2.3130   -3.3501 H   0  0  0  0  0  0  0  0  0  0  0  0
   -2.2093    0.7057   -4.0439 H   0  0  0  0  0  0  0  0  0  0  0  0
   -0.7011    1.2952    0.7149 C   0  0  0  0  0  0  0  0  0  0  0  0
   -1.5917    1.9198    0.1415 O   0  0  0  0  0  0  0  0  0  0  0  0
    0.1191    1.8675    1.6055 N   0  0  0  0  0  0  0  0  0  0  0  0
    0.8092    1.2861    2.0537 H   0  0  0  0  0  0  0  0  0  0  0  0
    0.0509    3.2769    1.9894 C   0  0  0  0  0  0  0  0  0  0  0  0
   -0.9494    3.5076    2.3640 H   0  0  0  0  0  0  0  0  0  0  0  0
    0.7844    3.4956    2.7668 H   0  0  0  0  0  0  0  0  0  0  0  0
    0.2468    3.9058    1.1193 H   0  0  0  0  0  0  0  0  0  0  0  0
  5  6  2  0  0  0  0
  5  7  1  0  0  0  0
  2  3  1  0  0  0  0
  2  4  1  0  0  0  0
  2  5  1  0  0  0  0
  1  2  1  0  0  0  0
 22 23  2  0  0  0  0
 22 24  1  0  0  0  0
 19 20  1  0  0  0  0
 19 21  1  0  0  0  0
 17 18  2  0  0  0  0
 17 19  1  0  0  0  0
 14 15  1  0  0  0  0
 14 16  1  0  0  0  0
 14 17  1  0  0  0  0
 11 12  1  0  0  0  0
 11 13  1  0  0  0  0
 11 14  1  0  0  0  0
  9 10  1  0  0  0  0
  9 11  1  0  0  0  0
  9 22  1  0  0  0  0
  7  8  1  0  0  0  0
  7  9  1  0  0  0  0
 26 27  1  0  0  0  0
 26 28  1  0  0  0  0
 26 29  1  0  0  0  0
 24 25  1  0  0  0  0
 24 26  1  0  0  0  0
M  END
$$$$
default_name
  -OEChem-02102213163D

 29 28  0     1  0  0  0  0  0999 V2000
   -3.3998   -3.6239    1.3678 H   0  0  0  0  0  0  0  0  0  0  0  0
   -3.3608   -2.6749    0.8348 C   0  0  0  0  0  0  0  0  0  0  0  0
   -4.0988   -1.9909    1.2498 H   0  0  0  0  0  0  0  0  0  0  0  0
   -3.5618   -2.8419   -0.2222 H   0  0  0  0  0  0  0  0  0  0  0  0
   -1.9818   -2.0809    0.9918 C   0  0  0  0  0  0  0  0  0  0  0  0
   -1.1288   -2.6669    1.6468 O   0  0  0  0  0  0  0  0  0  0  0  0
   -1.7648   -0.9089    0.3998 N   0  0  0  0  0  0  0  0  0  0  0  0
   -2.5238   -0.4719   -0.1032 H   0  0  0  0  0  0  0  0  0  0  0  0
   -0.4848   -0.1959    0.4138 C   0  0  1  0  0  0  0  0  0  0  0  0
    0.1386   -0.6144    1.2058 H   0  0  0  0  0  0  0  0  0  0  0  0
    0.2271   -0.4272   -0.9334 C   0  0  0  0  0  0  0  0  0  0  0  0
    1.0393    0.2974   -1.0214 H   0  0  0  0  0  0  0  0  0  0  0  0
    0.6609   -1.4282   -0.9401 H   0  0  0  0  0  0  0  0  0  0  0  0
   -0.6927   -0.2756   -2.1575 C   0  0  0  0  0  0  0  0  0  0  0  0
   -0.2141   -0.7141   -3.0329 H   0  0  0  0  0  0  0  0  0  0  0  0
   -1.6250   -0.8073   -1.9674 H   0  0  0  0  0  0  0  0  0  0  0  0
   -1.0271    1.1803   -2.4818 C   0  0  0  0  0  0  0  0  0  0  0  0
   -0.6660    2.1185   -1.7964 O   0  0  0  0  0  0  0  0  0  0  0  0
   -1.7349    1.4345   -3.5610 N   0  0  0  0  0  0  0  0  0  0  0  0
   -1.9246    2.4077   -3.7263 H   0  0  0  0  0  0  0  0  0  0  0  0
   -2.0547    0.7011   -4.1606 H   0  0  0  0  0  0  0  0  0  0  0  0
   -0.7011    1.2952    0.7149 C   0  0  0  0  0  0  0  0  0  0  0  0
   -1.5917    1.9198    0.1415 O   0  0  0  0  0  0  0  0  0  0  0  0
    0.1191    1.8675    1.6055 N   0  0  0  0  0  0  0  0  0  0  0  0
    0.8092    1.2861    2.0537 H   0  0  0  0  0  0  0  0  0  0  0  0
    0.0509    3.2769    1.9894 C   0  0  0  0  0  0  0  0  0  0  0  0
   -0.9494    3.5076    2.3640 H   0  0  0  0  0  0  0  0  0  0  0  0
    0.7844    3.4956    2.7668 H   0  0  0  0  0  0  0  0  0  0  0  0
    0.2468    3.9058    1.1193 H   0  0  0  0  0  0  0  0  0  0  0  0
  5  6  2  0  0  0  0
  5  7  1  0  0  0  0
  2  3  1  0  0  0  0
  2  4  1  0  0  0  0
  2  5  1  0  0  0  0
  1  2  1  0  0  0  0
 22 23  2  0  0  0  0
 22 24  1  0  0  0  0
 19 20  1  0  0  0  0
 19 21  1  0  0  0  0
 17 18  2  0  0  0  0
 17 19  1  0  0  0  0
 14 15  1  0  0  0  0
 14 16  1  0  0  0  0
 14 17  1  0  0  0  0
 11 12  1  0  0  0  0
 11 13  1  0  0  0  0
 11 14  1  0  0  0  0
  9 10  1  0  0  0  0
  9 11  1  0  0  0  0
  9 22  1  0  0  0  0
  7  8  1  0  0  0  0
  7  9  1  0  0  0  0
 26 27  1  0  0  0  0
 26 28  1  0  0  0  0
 26 29  1  0  0  0  0
 24 25  1  0  0  0  0
 24 26  1  0  0  0  0
M  END
$$$$
default_name
  -OEChem-02102213163D

 29 28  0     1  0  0  0  0  0999 V2000
   -3.3998   -3.6239    1.3678 H   0  0  0  0  0  0  0  0  0  0  0  0
   -3.3608   -2.6749    0.8348 C   0  0  0  0  0  0  0  0  0  0  0  0
   -4.0988   -1.9909    1.2498 H   0  0  0  0  0  0  0  0  0  0  0  0
   -3.5618   -2.8419   -0.2222 H   0  0  0  0  0  0  0  0  0  0  0  0
   -1.9818   -2.0809    0.9918 C   0  0  0  0  0  0  0  0  0  0  0  0
   -1.1288   -2.6669    1.6468 O   0  0  0  0  0  0  0  0  0  0  0  0
   -1.7648   -0.9089    0.3998 N   0  0  0  0  0  0  0  0  0  0  0  0
   -2.5238   -0.4719   -0.1032 H   0  0  0  0  0  0  0  0  0  0  0  0
   -0.4848   -0.1959    0.4138 C   0  0  1  0  0  0  0  0  0  0  0  0
    0.1386   -0.6144    1.2058 H   0  0  0  0  0  0  0  0  0  0  0  0
    0.2271   -0.4272   -0.9334 C   0  0  0  0  0  0  0  0  0  0  0  0
    1.0393    0.2974   -1.0214 H   0  0  0  0  0  0  0  0  0  0  0  0
    0.6609   -1.4282   -0.9401 H   0  0  0  0  0  0  0  0  0  0  0  0
   -0.6927   -0.2756   -2.1575 C   0  0  0  0  0  0  0  0  0  0  0  0
   -0.3505   -0.9319   -2.9574 H   0  0  0  0  0  0  0  0  0  0  0  0
   -1.7051   -0.5666   -1.8774 H   0  0  0  0  0  0  0  0  0  0  0  0
   -0.7365    1.1514   -2.7038 C   0  0  0  0  0  0  0  0  0  0  0  0
   -0.1633    2.0871   -2.1780 O   0  0  0  0  0  0  0  0  0  0  0  0
   -1.4219    1.3801   -3.8030 N   0  0  0  0  0  0  0  0  0  0  0  0
   -1.4159    2.3348   -4.1176 H   0  0  0  0  0  0  0  0  0  0  0  0
   -1.9093    0.6467   -4.2766 H   0  0  0  0  0  0  0  0  0  0  0  0
   -0.7011    1.2952    0.7149 C   0  0  0  0  0  0  0  0  0  0  0  0
   -1.5917    1.9198    0.1415 O   0  0  0  0  0  0  0  0  0  0  0  0
    0.1191    1.8675    1.6055 N   0  0  0  0  0  0  0  0  0  0  0  0
    0.8092    1.2861    2.0537 H   0  0  0  0  0  0  0  0  0  0  0  0
    0.0509    3.2769    1.9894 C   0  0  0  0  0  0  0  0  0  0  0  0
   -0.9494    3.5076    2.3640 H   0  0  0  0  0  0  0  0  0  0  0  0
    0.7844    3.4956    2.7668 H   0  0  0  0  0  0  0  0  0  0  0  0
    0.2468    3.9058    1.1193 H   0  0  0  0  0  0  0  0  0  0  0  0
  5  6  2  0  0  0  0
  5  7  1  0  0  0  0
  2  3  1  0  0  0  0
  2  4  1  0  0  0  0
  2  5  1  0  0  0  0
  1  2  1  0  0  0  0
 22 23  2  0  0  0  0
 22 24  1  0  0  0  0
 19 20  1  0  0  0  0
 19 21  1  0  0  0  0
 17 18  2  0  0  0  0
 17 19  1  0  0  0  0
 14 15  1  0  0  0  0
 14 16  1  0  0  0  0
 14 17  1  0  0  0  0
 11 12  1  0  0  0  0
 11 13  1  0  0  0  0
 11 14  1  0  0  0  0
  9 10  1  0  0  0  0
  9 11  1  0  0  0  0
  9 22  1  0  0  0  0
  7  8  1  0  0  0  0
  7  9  1  0  0  0  0
 26 27  1  0  0  0  0
 26 28  1  0  0  0  0
 26 29  1  0  0  0  0
 24 25  1  0  0  0  0
 24 26  1  0  0  0  0
M  END
$$$$
default_name
  -OEChem-02102213163D

 29 28  0     1  0  0  0  0  0999 V2000
   -3.3998   -3.6239    1.3678 H   0  0  0  0  0  0  0  0  0  0  0  0
   -3.3608   -2.6749    0.8348 C   0  0  0  0  0  0  0  0  0  0  0  0
   -4.0988   -1.9909    1.2498 H   0  0  0  0  0  0  0  0  0  0  0  0
   -3.5618   -2.8419   -0.2222 H   0  0  0  0  0  0  0  0  0  0  0  0
   -1.9818   -2.0809    0.9918 C   0  0  0  0  0  0  0  0  0  0  0  0
   -1.1288   -2.6669    1.6468 O   0  0  0  0  0  0  0  0  0  0  0  0
   -1.7648   -0.9089    0.3998 N   0  0  0  0  0  0  0  0  0  0  0  0
   -2.5238   -0.4719   -0.1032 H   0  0  0  0  0  0  0  0  0  0  0  0
   -0.4848   -0.1959    0.4138 C   0  0  1  0  0  0  0  0  0  0  0  0
    0.1386   -0.6144    1.2058 H   0  0  0  0  0  0  0  0  0  0  0  0
    0.2271   -0.4272   -0.9334 C   0  0  0  0  0  0  0  0  0  0  0  0
    1.0393    0.2974   -1.0214 H   0  0  0  0  0  0  0  0  0  0  0  0
    0.6609   -1.4282   -0.9401 H   0  0  0  0  0  0  0  0  0  0  0  0
   -0.6927   -0.2756   -2.1575 C   0  0  0  0  0  0  0  0  0  0  0  0
   -0.5252   -1.1025   -2.8472 H   0  0  0  0  0  0  0  0  0  0  0  0
   -1.7306   -0.3037   -1.8257 H   0  0  0  0  0  0  0  0  0  0  0  0
   -0.4673    1.0292   -2.9212 C   0  0  0  0  0  0  0  0  0  0  0  0
    0.3060    1.8942   -2.5545 O   0  0  0  0  0  0  0  0  0  0  0  0
   -1.1370    1.2256   -4.0362 N   0  0  0  0  0  0  0  0  0  0  0  0
   -0.9496    2.0990   -4.4972 H   0  0  0  0  0  0  0  0  0  0  0  0
   -1.7830    0.5463   -4.3840 H   0  0  0  0  0  0  0  0  0  0  0  0
   -0.7011    1.2952    0.7149 C   0  0  0  0  0  0  0  0  0  0  0  0
   -1.5917    1.9198    0.1415 O   0  0  0  0  0  0  0  0  0  0  0  0
    0.1191    1.8675    1.6055 N   0  0  0  0  0  0  0  0  0  0  0  0
    0.8092    1.2861    2.0537 H   0  0  0  0  0  0  0  0  0  0  0  0
    0.0509    3.2769    1.9894 C   0  0  0  0  0  0  0  0  0  0  0  0
   -0.9494    3.5076    2.3640 H   0  0  0  0  0  0  0  0  0  0  0  0
    0.7844    3.4956    2.7668 H   0  0  0  0  0  0  0  0  0  0  0  0
    0.2468    3.9058    1.1193 H   0  0  0  0  0  0  0  0  0  0  0  0
  5  6  2  0  0  0  0
  5  7  1  0  0  0  0
  2  3  1  0  0  0  0
  2  4  1  0  0  0  0
  2  5  1  0  0  0  0
  1  2  1  0  0  0  0
 22 23  2  0  0  0  0
 22 24  1  0  0  0  0
 19 20  1  0  0  0  0
 19 21  1  0  0  0  0
 17 18  2  0  0  0  0
 17 19  1  0  0  0  0
 14 15  1  0  0  0  0
 14 16  1  0  0  0  0
 14 17  1  0  0  0  0
 11 12  1  0  0  0  0
 11 13  1  0  0  0  0
 11 14  1  0  0  0  0
  9 10  1  0  0  0  0
  9 11  1  0  0  0  0
  9 22  1  0  0  0  0
  7  8  1  0  0  0  0
  7  9  1  0  0  0  0
 26 27  1  0  0  0  0
 26 28  1  0  0  0  0
 26 29  1  0  0  0  0
 24 25  1  0  0  0  0
 24 26  1  0  0  0  0
M  END
$$$$
default_name
  -OEChem-02102213163D

 29 28  0     1  0  0  0  0  0999 V2000
   -3.3998   -3.6239    1.3678 H   0  0  0  0  0  0  0  0  0  0  0  0
   -3.3608   -2.6749    0.8348 C   0  0  0  0  0  0  0  0  0  0  0  0
   -4.0988   -1.9909    1.2498 H   0  0  0  0  0  0  0  0  0  0  0  0
   -3.5618   -2.8419   -0.2222 H   0  0  0  0  0  0  0  0  0  0  0  0
   -1.9818   -2.0809    0.9918 C   0  0  0  0  0  0  0  0  0  0  0  0
   -1.1288   -2.6669    1.6468 O   0  0  0  0  0  0  0  0  0  0  0  0
   -1.7648   -0.9089    0.3998 N   0  0  0  0  0  0  0  0  0  0  0  0
   -2.5238   -0.4719   -0.1032 H   0  0  0  0  0  0  0  0  0  0  0  0
   -0.4848   -0.1959    0.4138 C   0  0  1  0  0  0  0  0  0  0  0  0
    0.1386   -0.6144    1.2058 H   0  0  0  0  0  0  0  0  0  0  0  0
    0.2271   -0.4272   -0.9334 C   0  0  0  0  0  0  0  0  0  0  0  0
    1.0393    0.2974   -1.0214 H   0  0  0  0  0  0  0  0  0  0  0  0
    0.6609   -1.4282   -0.9401 H   0  0  0  0  0  0  0  0  0  0  0  0
   -0.6927   -0.2756   -2.1575 C   0  0  0  0  0  0  0  0  0  0  0  0
   -0.7262   -1.2143   -2.7100 H   0  0  0  0  0  0  0  0  0  0  0  0
   -1.6997   -0.0365   -1.8158 H   0  0  0  0  0  0  0  0  0  0  0  0
   -0.2381    0.8222   -3.1191 C   0  0  0  0  0  0  0  0  0  0  0  0
    0.7099    1.5530   -2.9003 O   0  0  0  0  0  0  0  0  0  0  0  0
   -0.8995    0.9816   -4.2448 N   0  0  0  0  0  0  0  0  0  0  0  0
   -0.5574    1.7165   -4.8393 H   0  0  0  0  0  0  0  0  0  0  0  0
   -1.6844    0.4067   -4.4754 H   0  0  0  0  0  0  0  0  0  0  0  0
   -0.7011    1.2952    0.7149 C   0  0  0  0  0  0  0  0  0  0  0  0
   -1.5917    1.9198    0.1415 O   0  0  0  0  0  0  0  0  0  0  0  0
    0.1191    1.8675    1.6055 N   0  0  0  0  0  0  0  0  0  0  0  0
    0.8092    1.2861    2.0537 H   0  0  0  0  0  0  0  0  0  0  0  0
    0.0509    3.2769    1.9894 C   0  0  0  0  0  0  0  0  0  0  0  0
   -0.9494    3.5076    2.3640 H   0  0  0  0  0  0  0  0  0  0  0  0
    0.7844    3.4956    2.7668 H   0  0  0  0  0  0  0  0  0  0  0  0
    0.2468    3.9058    1.1193 H   0  0  0  0  0  0  0  0  0  0  0  0
  5  6  2  0  0  0  0
  5  7  1  0  0  0  0
  2  3  1  0  0  0  0
  2  4  1  0  0  0  0
  2  5  1  0  0  0  0
  1  2  1  0  0  0  0
 22 23  2  0  0  0  0
 22 24  1  0  0  0  0
 19 20  1  0  0  0  0
 19 21  1  0  0  0  0
 17 18  2  0  0  0  0
 17 19  1  0  0  0  0
 14 15  1  0  0  0  0
 14 16  1  0  0  0  0
 14 17  1  0  0  0  0
 11 12  1  0  0  0  0
 11 13  1  0  0  0  0
 11 14  1  0  0  0  0
  9 10  1  0  0  0  0
  9 11  1  0  0  0  0
  9 22  1  0  0  0  0
  7  8  1  0  0  0  0
  7  9  1  0  0  0  0
 26 27  1  0  0  0  0
 26 28  1  0  0  0  0
 26 29  1  0  0  0  0
 24 25  1  0  0  0  0
 24 26  1  0  0  0  0
M  END
$$$$
default_name
  -OEChem-02102213163D

 29 28  0     1  0  0  0  0  0999 V2000
   -3.3998   -3.6239    1.3678 H   0  0  0  0  0  0  0  0  0  0  0  0
   -3.3608   -2.6749    0.8348 C   0  0  0  0  0  0  0  0  0  0  0  0
   -4.0988   -1.9909    1.2498 H   0  0  0  0  0  0  0  0  0  0  0  0
   -3.5618   -2.8419   -0.2222 H   0  0  0  0  0  0  0  0  0  0  0  0
   -1.9818   -2.0809    0.9918 C   0  0  0  0  0  0  0  0  0  0  0  0
   -1.1288   -2.6669    1.6468 O   0  0  0  0  0  0  0  0  0  0  0  0
   -1.7648   -0.9089    0.3998 N   0  0  0  0  0  0  0  0  0  0  0  0
   -2.5238   -0.4719   -0.1032 H   0  0  0  0  0  0  0  0  0  0  0  0
   -0.4848   -0.1959    0.4138 C   0  0  1  0  0  0  0  0  0  0  0  0
    0.1386   -0.6144    1.2058 H   0  0  0  0  0  0  0  0  0  0  0  0
    0.2271   -0.4272   -0.9334 C   0  0  0  0  0  0  0  0  0  0  0  0
    1.0393    0.2974   -1.0214 H   0  0  0  0  0  0  0  0  0  0  0  0
    0.6609   -1.4282   -0.9401 H   0  0  0  0  0  0  0  0  0  0  0  0
   -0.6927   -0.2756   -2.1575 C   0  0  0  0  0  0  0  0  0  0  0  0
   -0.9399   -1.2597   -2.5550 H   0  0  0  0  0  0  0  0  0  0  0  0
   -1.6147    0.2167   -1.8483 H   0  0  0  0  0  0  0  0  0  0  0  0
   -0.0643    0.5444   -3.2841 C   0  0  0  0  0  0  0  0  0  0  0  0
    1.0211    1.0867   -3.1919 O   0  0  0  0  0  0  0  0  0  0  0  0
   -0.7257    0.6648   -4.4147 N   0  0  0  0  0  0  0  0  0  0  0  0
   -0.2660    1.2133   -5.1206 H   0  0  0  0  0  0  0  0  0  0  0  0
   -1.6202    0.2374   -4.5445 H   0  0  0  0  0  0  0  0  0  0  0  0
   -0.7011    1.2952    0.7149 C   0  0  0  0  0  0  0  0  0  0  0  0
   -1.5917    1.9198    0.1415 O   0  0  0  0  0  0  0  0  0  0  0  0
    0.1191    1.8675    1.6055 N   0  0  0  0  0  0  0  0  0  0  0  0
    0.8092    1.2861    2.0537 H   0  0  0  0  0  0  0  0  0  0  0  0
    0.0509    3.2769    1.9894 C   0  0  0  0  0  0  0  0  0  0  0  0
   -0.9494    3.5076    2.3640 H   0  0  0  0  0  0  0  0  0  0  0  0
    0.7844    3.4956    2.7668 H   0  0  0  0  0  0  0  0  0  0  0  0
    0.2468    3.9058    1.1193 H   0  0  0  0  0  0  0  0  0  0  0  0
  5  6  2  0  0  0  0
  5  7  1  0  0  0  0
  2  3  1  0  0  0  0
  2  4  1  0  0  0  0
  2  5  1  0  0  0  0
  1  2  1  0  0  0  0
 22 23  2  0  0  0  0
 22 24  1  0  0  0  0
 19 20  1  0  0  0  0
 19 21  1  0  0  0  0
 17 18  2  0  0  0  0
 17 19  1  0  0  0  0
 14 15  1  0  0  0  0
 14 16  1  0  0  0  0
 14 17  1  0  0  0  0
 11 12  1  0  0  0  0
 11 13  1  0  0  0  0
 11 14  1  0  0  0  0
  9 10  1  0  0  0  0
  9 11  1  0  0  0  0
  9 22  1  0  0  0  0
  7  8  1  0  0  0  0
  7  9  1  0  0  0  0
 26 27  1  0  0  0  0
 26 28  1  0  0  0  0
 26 29  1  0  0  0  0
 24 25  1  0  0  0  0
 24 26  1  0  0  0  0
M  END
$$$$
default_name
  -OEChem-02102213163D

 29 28  0     1  0  0  0  0  0999 V2000
   -3.3998   -3.6239    1.3678 H   0  0  0  0  0  0  0  0  0  0  0  0
   -3.3608   -2.6749    0.8348 C   0  0  0  0  0  0  0  0  0  0  0  0
   -4.0988   -1.9909    1.2498 H   0  0  0  0  0  0  0  0  0  0  0  0
   -3.5618   -2.8419   -0.2222 H   0  0  0  0  0  0  0  0  0  0  0  0
   -1.9818   -2.0809    0.9918 C   0  0  0  0  0  0  0  0  0  0  0  0
   -1.1288   -2.6669    1.6468 O   0  0  0  0  0  0  0  0  0  0  0  0
   -1.7648   -0.9089    0.3998 N   0  0  0  0  0  0  0  0  0  0  0  0
   -2.5238   -0.4719   -0.1032 H   0  0  0  0  0  0  0  0  0  0  0  0
   -0.4848   -0.1959    0.4138 C   0  0  1  0  0  0  0  0  0  0  0  0
    0.1386   -0.6144    1.2058 H   0  0  0  0  0  0  0  0  0  0  0  0
    0.2271   -0.4272   -0.9334 C   0  0  0  0  0  0  0  0  0  0  0  0
    1.0393    0.2974   -1.0214 H   0  0  0  0  0  0  0  0  0  0  0  0
    0.6609   -1.4282   -0.9401 H   0  0  0  0  0  0  0  0  0  0  0  0
   -0.6927   -0.2756   -2.1575 C   0  0  0  0  0  0  0  0  0  0  0  0
   -1.1517   -1.2355   -2.3929 H   0  0  0  0  0  0  0  0  0  0  0  0
   -1.4812    0.4388   -1.9211 H   0  0  0  0  0  0  0  0  0  0  0  0
    0.0422    0.2148   -3.4049 C   0  0  0  0  0  0  0  0  0  0  0  0
    1.2182    0.5271   -3.4093 O   0  0  0  0  0  0  0  0  0  0  0  0
   -0.6274    0.2967   -4.5342 N   0  0  0  0  0  0  0  0  0  0  0  0
   -0.0954    0.6238   -5.3218 H   0  0  0  0  0  0  0  0  0  0  0  0
   -1.5949    0.0500   -4.5868 H   0  0  0  0  0  0  0  0  0  0  0  0
   -0.7011    1.2952    0.7149 C   0  0  0  0  0  0  0  0  0  0  0  0
   -1.5917    1.9198    0.1415 O   0  0  0  0  0  0  0  0  0  0  0  0
    0.1191    1.8675    1.6055 N   0  0  0  0  0  0  0  0  0  0  0  0
    0.8092    1.2861    2.0537 H   0  0  0  0  0  0  0  0  0  0  0  0
    0.0509    3.2769    1.9894 C   0  0  0  0  0  0  0  0  0  0  0  0
   -0.9494    3.5076    2.3640 H   0  0  0  0  0  0  0  0  0  0  0  0
    0.7844    3.4956    2.7668 H   0  0  0  0  0  0  0  0  0  0  0  0
    0.2468    3.9058    1.1193 H   0  0  0  0  0  0  0  0  0  0  0  0
  5  6  2  0  0  0  0
  5  7  1  0  0  0  0
  2  3  1  0  0  0  0
  2  4  1  0  0  0  0
  2  5  1  0  0  0  0
  1  2  1  0  0  0  0
 22 23  2  0  0  0  0
 22 24  1  0  0  0  0
 19 20  1  0  0  0  0
 19 21  1  0  0  0  0
 17 18  2  0  0  0  0
 17 19  1  0  0  0  0
 14 15  1  0  0  0  0
 14 16  1  0  0  0  0
 14 17  1  0  0  0  0
 11 12  1  0  0  0  0
 11 13  1  0  0  0  0
 11 14  1  0  0  0  0
  9 10  1  0  0  0  0
  9 11  1  0  0  0  0
  9 22  1  0  0  0  0
  7  8  1  0  0  0  0
  7  9  1  0  0  0  0
 26 27  1  0  0  0  0
 26 28  1  0  0  0  0
 26 29  1  0  0  0  0
 24 25  1  0  0  0  0
 24 26  1  0  0  0  0
M  END
$$$$
default_name
  -OEChem-02102213163D

 29 28  0     1  0  0  0  0  0999 V2000
   -3.3998   -3.6239    1.3678 H   0  0  0  0  0  0  0  0  0  0  0  0
   -3.3608   -2.6749    0.8348 C   0  0  0  0  0  0  0  0  0  0  0  0
   -4.0988   -1.9909    1.2498 H   0  0  0  0  0  0  0  0  0  0  0  0
   -3.5618   -2.8419   -0.2222 H   0  0  0  0  0  0  0  0  0  0  0  0
   -1.9818   -2.0809    0.9918 C   0  0  0  0  0  0  0  0  0  0  0  0
   -1.1288   -2.6669    1.6468 O   0  0  0  0  0  0  0  0  0  0  0  0
   -1.7648   -0.9089    0.3998 N   0  0  0  0  0  0  0  0  0  0  0  0
   -2.5238   -0.4719   -0.1032 H   0  0  0  0  0  0  0  0  0  0  0  0
   -0.4848   -0.1959    0.4138 C   0  0  1  0  0  0  0  0  0  0  0  0
    0.1386   -0.6144    1.2058 H   0  0  0  0  0  0  0  0  0  0  0  0
    0.2271   -0.4272   -0.9334 C   0  0  0  0  0  0  0  0  0  0  0  0
    1.0393    0.2974   -1.0214 H   0  0  0  0  0  0  0  0  0  0  0  0
    0.6609   -1.4282   -0.9401 H   0  0  0  0  0  0  0  0  0  0  0  0
   -0.6927   -0.2756   -2.1575 C   0  0  0  0  0  0  0  0  0  0  0  0
   -1.3472   -1.1435   -2.2345 H   0  0  0  0  0  0  0  0  0  0  0  0
   -1.3085    0.6146   -2.0292 H   0  0  0  0  0  0  0  0  0  0  0  0
    0.0740   -0.1442   -3.4733 C   0  0  0  0  0  0  0  0  0  0  0  0
    1.2878   -0.0876   -3.5378 O   0  0  0  0  0  0  0  0  0  0  0  0
   -0.6113   -0.0975   -4.5951 N   0  0  0  0  0  0  0  0  0  0  0  0
   -0.0570   -0.0119   -5.4294 H   0  0  0  0  0  0  0  0  0  0  0  0
   -1.6101   -0.1428   -4.5993 H   0  0  0  0  0  0  0  0  0  0  0  0
   -0.7011    1.2952    0.7149 C   0  0  0  0  0  0  0  0  0  0  0  0
   -1.5917    1.9198    0.1415 O   0  0  0  0  0  0  0  0  0  0  0  0
    0.1191    1.8675    1.6055 N   0  0  0  0  0  0  0  0  0  0  0  0
    0.8092    1.2861    2.0537 H   0  0  0  0  0  0  0  0  0  0  0  0
    0.0509    3.2769    1.9894 C   0  0  0  0  0  0  0  0  0  0  0  0
   -0.9494    3.5076    2.3640 H   0  0  0  0  0  0  0  0  0  0  0  0
    0.7844    3.4956    2.7668 H   0  0  0  0  0  0  0  0  0  0  0  0
    0.2468    3.9058    1.1193 H   0  0  0  0  0  0  0  0  0  0  0  0
  5  6  2  0  0  0  0
  5  7  1  0  0  0  0
  2  3  1  0  0  0  0
  2  4  1  0  0  0  0
  2  5  1  0  0  0  0
  1  2  1  0  0  0  0
 22 23  2  0  0  0  0
 22 24  1  0  0  0  0
 19 20  1  0  0  0  0
 19 21  1  0  0  0  0
 17 18  2  0  0  0  0
 17 19  1  0  0  0  0
 14 15  1  0  0  0  0
 14 16  1  0  0  0  0
 14 17  1  0  0  0  0
 11 12  1  0  0  0  0
 11 13  1  0  0  0  0
 11 14  1  0  0  0  0
  9 10  1  0  0  0  0
  9 11  1  0  0  0  0
  9 22  1  0  0  0  0
  7  8  1  0  0  0  0
  7  9  1  0  0  0  0
 26 27  1  0  0  0  0
 26 28  1  0  0  0  0
 26 29  1  0  0  0  0
 24 25  1  0  0  0  0
 24 26  1  0  0  0  0
M  END
$$$$
default_name
  -OEChem-02102213163D

 29 28  0     1  0  0  0  0  0999 V2000
   -3.3998   -3.6239    1.3678 H   0  0  0  0  0  0  0  0  0  0  0  0
   -3.3608   -2.6749    0.8348 C   0  0  0  0  0  0  0  0  0  0  0  0
   -4.0988   -1.9909    1.2498 H   0  0  0  0  0  0  0  0  0  0  0  0
   -3.5618   -2.8419   -0.2222 H   0  0  0  0  0  0  0  0  0  0  0  0
   -1.9818   -2.0809    0.9918 C   0  0  0  0  0  0  0  0  0  0  0  0
   -1.1288   -2.6669    1.6468 O   0  0  0  0  0  0  0  0  0  0  0  0
   -1.7648   -0.9089    0.3998 N   0  0  0  0  0  0  0  0  0  0  0  0
   -2.5238   -0.4719   -0.1032 H   0  0  0  0  0  0  0  0  0  0  0  0
   -0.4848   -0.1959    0.4138 C   0  0  1  0  0  0  0  0  0  0  0  0
    0.1386   -0.6144    1.2058 H   0  0  0  0  0  0  0  0  0  0  0  0
    0.2271   -0.4272   -0.9334 C   0  0  0  0  0  0  0  0  0  0  0  0
    1.1844    0.0978   -0.9105 H   0  0  0  0  0  0  0  0  0  0  0  0
    0.4255   -1.4933   -1.0533 H   0  0  0  0  0  0  0  0  0  0  0  0
   -0.5697    0.0705   -2.1519 C   0  0  0  0  0  0  0  0  0  0  0  0
   -1.5315   -0.4401   -2.1950 H   0  0  0  0  0  0  0  0  0  0  0  0
   -0.7480    1.1405   -2.0450 H   0  0  0  0  0  0  0  0  0  0  0  0
    0.1505   -0.1666   -3.4792 C   0  0  0  0  0  0  0  0  0  0  0  0
    1.2724   -0.6309   -3.5581 O   0  0  0  0  0  0  0  0  0  0  0  0
   -0.4760    0.1392   -4.5946 N   0  0  0  0  0  0  0  0  0  0  0  0
    0.0434   -0.0378   -5.4369 H   0  0  0  0  0  0  0  0  0  0  0  0
   -1.4000    0.5211   -4.5869 H   0  0  0  0  0  0  0  0  0  0  0  0
   -0.7011    1.2952    0.7149 C   0  0  0  0  0  0  0  0  0  0  0  0
   -1.5917    1.9198    0.1415 O   0  0  0  0  0  0  0  0  0  0  0  0
    0.1191    1.8675    1.6055 N   0  0  0  0  0  0  0  0  0  0  0  0
    0.8092    1.2861    2.0537 H   0  0  0  0  0  0  0  0  0  0  0  0
    0.0509    3.2769    1.9894 C   0  0  0  0  0  0  0  0  0  0  0  0
   -0.9494    3.5076    2.3640 H   0  0  0  0  0  0  0  0  0  0  0  0
    0.7844    3.4956    2.7668 H   0  0  0  0  0  0  0  0  0  0  0  0
    0.2468    3.9058    1.1193 H   0  0  0  0  0  0  0  0  0  0  0  0
  5  6  2  0  0  0  0
  5  7  1  0  0  0  0
  2  3  1  0  0  0  0
  2  4  1  0  0  0  0
  2  5  1  0  0  0  0
  1  2  1  0  0  0  0
 22 23  2  0  0  0  0
 22 24  1  0  0  0  0
 19 20  1  0  0  0  0
 19 21  1  0  0  0  0
 17 18  2  0  0  0  0
 17 19  1  0  0  0  0
 14 15  1  0  0  0  0
 14 16  1  0  0  0  0
 14 17  1  0  0  0  0
 11 12  1  0  0  0  0
 11 13  1  0  0  0  0
 11 14  1  0  0  0  0
  9 10  1  0  0  0  0
  9 11  1  0  0  0  0
  9 22  1  0  0  0  0
  7  8  1  0  0  0  0
  7  9  1  0  0  0  0
 26 27  1  0  0  0  0
 26 28  1  0  0  0  0
 26 29  1  0  0  0  0
 24 25  1  0  0  0  0
 24 26  1  0  0  0  0
M  END
$$$$
default_name
  -OEChem-02102213163D

 29 28  0     1  0  0  0  0  0999 V2000
   -3.3998   -3.6239    1.3678 H   0  0  0  0  0  0  0  0  0  0  0  0
   -3.3608   -2.6749    0.8348 C   0  0  0  0  0  0  0  0  0  0  0  0
   -4.0988   -1.9909    1.2498 H   0  0  0  0  0  0  0  0  0  0  0  0
   -3.5618   -2.8419   -0.2222 H   0  0  0  0  0  0  0  0  0  0  0  0
   -1.9818   -2.0809    0.9918 C   0  0  0  0  0  0  0  0  0  0  0  0
   -1.1288   -2.6669    1.6468 O   0  0  0  0  0  0  0  0  0  0  0  0
   -1.7648   -0.9089    0.3998 N   0  0  0  0  0  0  0  0  0  0  0  0
   -2.5238   -0.4719   -0.1032 H   0  0  0  0  0  0  0  0  0  0  0  0
   -0.4848   -0.1959    0.4138 C   0  0  1  0  0  0  0  0  0  0  0  0
    0.1386   -0.6144    1.2058 H   0  0  0  0  0  0  0  0  0  0  0  0
    0.2271   -0.4272   -0.9334 C   0  0  0  0  0  0  0  0  0  0  0  0
    1.1844    0.0978   -0.9105 H   0  0  0  0  0  0  0  0  0  0  0  0
    0.4255   -1.4933   -1.0533 H   0  0  0  0  0  0  0  0  0  0  0  0
   -0.5697    0.0705   -2.1519 C   0  0  0  0  0  0  0  0  0  0  0  0
   -1.6135   -0.2273   -2.0545 H   0  0  0  0  0  0  0  0  0  0  0  0
   -0.5199    1.1588   -2.1867 H   0  0  0  0  0  0  0  0  0  0  0  0
   -0.0444   -0.4774   -3.4787 C   0  0  0  0  0  0  0  0  0  0  0  0
    0.9494   -1.1738   -3.5685 O   0  0  0  0  0  0  0  0  0  0  0  0
   -0.7033   -0.1888   -4.5800 N   0  0  0  0  0  0  0  0  0  0  0  0
   -0.3144   -0.5754   -5.4225 H   0  0  0  0  0  0  0  0  0  0  0  0
   -1.5274    0.3771   -4.5624 H   0  0  0  0  0  0  0  0  0  0  0  0
   -0.7011    1.2952    0.7149 C   0  0  0  0  0  0  0  0  0  0  0  0
   -1.5917    1.9198    0.1415 O   0  0  0  0  0  0  0  0  0  0  0  0
    0.1191    1.8675    1.6055 N   0  0  0  0  0  0  0  0  0  0  0  0
    0.8092    1.2861    2.0537 H   0  0  0  0  0  0  0  0  0  0  0  0
    0.0509    3.2769    1.9894 C   0  0  0  0  0  0  0  0  0  0  0  0
   -0.9494    3.5076    2.3640 H   0  0  0  0  0  0  0  0  0  0  0  0
    0.7844    3.4956    2.7668 H   0  0  0  0  0  0  0  0  0  0  0  0
    0.2468    3.9058    1.1193 H   0  0  0  0  0  0  0  0  0  0  0  0
  5  6  2  0  0  0  0
  5  7  1  0  0  0  0
  2  3  1  0  0  0  0
  2  4  1  0  0  0  0
  2  5  1  0  0  0  0
  1  2  1  0  0  0  0
 22 23  2  0  0  0  0
 22 24  1  0  0  0  0
 19 20  1  0  0  0  0
 19 21  1  0  0  0  0
 17 18  2  0  0  0  0
 17 19  1  0  0  0  0
 14 15  1  0  0  0  0
 14 16  1  0  0  0  0
 14 17  1  0  0  0  0
 11 12  1  0  0  0  0
 11 13  1  0  0  0  0
 11 14  1  0  0  0  0
  9 10  1  0  0  0  0
  9 11  1  0  0  0  0
  9 22  1  0  0  0  0
  7  8  1  0  0  0  0
  7  9  1  0  0  0  0
 26 27  1  0  0  0  0
 26 28  1  0  0  0  0
 26 29  1  0  0  0  0
 24 25  1  0  0  0  0
 24 26  1  0  0  0  0
M  END
$$$$
default_name
  -OEChem-02102213163D

 29 28  0     1  0  0  0  0  0999 V2000
   -3.3998   -3.6239    1.3678 H   0  0  0  0  0  0  0  0  0  0  0  0
   -3.3608   -2.6749    0.8348 C   0  0  0  0  0  0  0  0  0  0  0  0
   -4.0988   -1.9909    1.2498 H   0  0  0  0  0  0  0  0  0  0  0  0
   -3.5618   -2.8419   -0.2222 H   0  0  0  0  0  0  0  0  0  0  0  0
   -1.9818   -2.0809    0.9918 C   0  0  0  0  0  0  0  0  0  0  0  0
   -1.1288   -2.6669    1.6468 O   0  0  0  0  0  0  0  0  0  0  0  0
   -1.7648   -0.9089    0.3998 N   0  0  0  0  0  0  0  0  0  0  0  0
   -2.5238   -0.4719   -0.1032 H   0  0  0  0  0  0  0  0  0  0  0  0
   -0.4848   -0.1959    0.4138 C   0  0  1  0  0  0  0  0  0  0  0  0
    0.1386   -0.6144    1.2058 H   0  0  0  0  0  0  0  0  0  0  0  0
    0.2271   -0.4272   -0.9334 C   0  0  0  0  0  0  0  0  0  0  0  0
    1.1844    0.0978   -0.9105 H   0  0  0  0  0  0  0  0  0  0  0  0
    0.4255   -1.4933   -1.0533 H   0  0  0  0  0  0  0  0  0  0  0  0
   -0.5697    0.0705   -2.1519 C   0  0  0  0  0  0  0  0  0  0  0  0
   -1.6373    0.0139   -1.9404 H   0  0  0  0  0  0  0  0  0  0  0  0
   -0.3077    1.1107   -2.3451 H   0  0  0  0  0  0  0  0  0  0  0  0
   -0.2963   -0.7376   -3.4203 C   0  0  0  0  0  0  0  0  0  0  0  0
    0.5251   -1.6334   -3.4788 O   0  0  0  0  0  0  0  0  0  0  0  0
   -0.9888   -0.4570   -4.5028 N   0  0  0  0  0  0  0  0  0  0  0  0
   -0.7690   -1.0193   -5.3065 H   0  0  0  0  0  0  0  0  0  0  0  0
   -1.6779    0.2675   -4.5088 H   0  0  0  0  0  0  0  0  0  0  0  0
   -0.7011    1.2952    0.7149 C   0  0  0  0  0  0  0  0  0  0  0  0
   -1.5917    1.9198    0.1415 O   0  0  0  0  0  0  0  0  0  0  0  0
    0.1191    1.8675    1.6055 N   0  0  0  0  0  0  0  0  0  0  0  0
    0.8092    1.2861    2.0537 H   0  0  0  0  0  0  0  0  0  0  0  0
    0.0509    3.2769    1.9894 C   0  0  0  0  0  0  0  0  0  0  0  0
   -0.9494    3.5076    2.3640 H   0  0  0  0  0  0  0  0  0  0  0  0
    0.7844    3.4956    2.7668 H   0  0  0  0  0  0  0  0  0  0  0  0
    0.2468    3.9058    1.1193 H   0  0  0  0  0  0  0  0  0  0  0  0
  5  6  2  0  0  0  0
  5  7  1  0  0  0  0
  2  3  1  0  0  0  0
  2  4  1  0  0  0  0
  2  5  1  0  0  0  0
  1  2  1  0  0  0  0
 22 23  2  0  0  0  0
 22 24  1  0  0  0  0
 19 20  1  0  0  0  0
 19 21  1  0  0  0  0
 17 18  2  0  0  0  0
 17 19  1  0  0  0  0
 14 15  1  0  0  0  0
 14 16  1  0  0  0  0
 14 17  1  0  0  0  0
 11 12  1  0  0  0  0
 11 13  1  0  0  0  0
 11 14  1  0  0  0  0
  9 10  1  0  0  0  0
  9 11  1  0  0  0  0
  9 22  1  0  0  0  0
  7  8  1  0  0  0  0
  7  9  1  0  0  0  0
 26 27  1  0  0  0  0
 26 28  1  0  0  0  0
 26 29  1  0  0  0  0
 24 25  1  0  0  0  0
 24 26  1  0  0  0  0
M  END
$$$$
default_name
  -OEChem-02102213163D

 29 28  0     1  0  0  0  0  0999 V2000
   -3.3998   -3.6239    1.3678 H   0  0  0  0  0  0  0  0  0  0  0  0
   -3.3608   -2.6749    0.8348 C   0  0  0  0  0  0  0  0  0  0  0  0
   -4.0988   -1.9909    1.2498 H   0  0  0  0  0  0  0  0  0  0  0  0
   -3.5618   -2.8419   -0.2222 H   0  0  0  0  0  0  0  0  0  0  0  0
   -1.9818   -2.0809    0.9918 C   0  0  0  0  0  0  0  0  0  0  0  0
   -1.1288   -2.6669    1.6468 O   0  0  0  0  0  0  0  0  0  0  0  0
   -1.7648   -0.9089    0.3998 N   0  0  0  0  0  0  0  0  0  0  0  0
   -2.5238   -0.4719   -0.1032 H   0  0  0  0  0  0  0  0  0  0  0  0
   -0.4848   -0.1959    0.4138 C   0  0  1  0  0  0  0  0  0  0  0  0
    0.1386   -0.6144    1.2058 H   0  0  0  0  0  0  0  0  0  0  0  0
    0.2271   -0.4272   -0.9334 C   0  0  0  0  0  0  0  0  0  0  0  0
    1.1844    0.0978   -0.9105 H   0  0  0  0  0  0  0  0  0  0  0  0
    0.4255   -1.4933   -1.0533 H   0  0  0  0  0  0  0  0  0  0  0  0
   -0.5697    0.0705   -2.1519 C   0  0  0  0  0  0  0  0  0  0  0  0
   -1.6013    0.2671   -1.8605 H   0  0  0  0  0  0  0  0  0  0  0  0
   -0.1258    0.9996   -2.5094 H   0  0  0  0  0  0  0  0  0  0  0  0
   -0.5880   -0.9295   -3.3078 C   0  0  0  0  0  0  0  0  0  0  0  0
    0.0287   -1.9784   -3.2951 O   0  0  0  0  0  0  0  0  0  0  0  0
   -1.3131   -0.6472   -4.3684 N   0  0  0  0  0  0  0  0  0  0  0  0
   -1.2894   -1.3394   -5.0970 H   0  0  0  0  0  0  0  0  0  0  0  0
   -1.8413    0.1996   -4.4296 H   0  0  0  0  0  0  0  0  0  0  0  0
   -0.7011    1.2952    0.7149 C   0  0  0  0  0  0  0  0  0  0  0  0
   -1.5917    1.9198    0.1415 O   0  0  0  0  0  0  0  0  0  0  0  0
    0.1191    1.8675    1.6055 N   0  0  0  0  0  0  0  0  0  0  0  0
    0.8092    1.2861    2.0537 H   0  0  0  0  0  0  0  0  0  0  0  0
    0.0509    3.2769    1.9894 C   0  0  0  0  0  0  0  0  0  0  0  0
   -0.9494    3.5076    2.3640 H   0  0  0  0  0  0  0  0  0  0  0  0
    0.7844    3.4956    2.7668 H   0  0  0  0  0  0  0  0  0  0  0  0
    0.2468    3.9058    1.1193 H   0  0  0  0  0  0  0  0  0  0  0  0
  5  6  2  0  0  0  0
  5  7  1  0  0  0  0
  2  3  1  0  0  0  0
  2  4  1  0  0  0  0
  2  5  1  0  0  0  0
  1  2  1  0  0  0  0
 22 23  2  0  0  0  0
 22 24  1  0  0  0  0
 19 20  1  0  0  0  0
 19 21  1  0  0  0  0
 17 18  2  0  0  0  0
 17 19  1  0  0  0  0
 14 15  1  0  0  0  0
 14 16  1  0  0  0  0
 14 17  1  0  0  0  0
 11 12  1  0  0  0  0
 11 13  1  0  0  0  0
 11 14  1  0  0  0  0
  9 10  1  0  0  0  0
  9 11  1  0  0  0  0
  9 22  1  0  0  0  0
  7  8  1  0  0  0  0
  7  9  1  0  0  0  0
 26 27  1  0  0  0  0
 26 28  1  0  0  0  0
 26 29  1  0  0  0  0
 24 25  1  0  0  0  0
 24 26  1  0  0  0  0
M  END
$$$$
default_name
  -OEChem-02102213163D

 29 28  0     1  0  0  0  0  0999 V2000
   -3.3998   -3.6239    1.3678 H   0  0  0  0  0  0  0  0  0  0  0  0
   -3.3608   -2.6749    0.8348 C   0  0  0  0  0  0  0  0  0  0  0  0
   -4.0988   -1.9909    1.2498 H   0  0  0  0  0  0  0  0  0  0  0  0
   -3.5618   -2.8419   -0.2222 H   0  0  0  0  0  0  0  0  0  0  0  0
   -1.9818   -2.0809    0.9918 C   0  0  0  0  0  0  0  0  0  0  0  0
   -1.1288   -2.6669    1.6468 O   0  0  0  0  0  0  0  0  0  0  0  0
   -1.7648   -0.9089    0.3998 N   0  0  0  0  0  0  0  0  0  0  0  0
   -2.5238   -0.4719   -0.1032 H   0  0  0  0  0  0  0  0  0  0  0  0
   -0.4848   -0.1959    0.4138 C   0  0  1  0  0  0  0  0  0  0  0  0
    0.1386   -0.6144    1.2058 H   0  0  0  0  0  0  0  0  0  0  0  0
    0.2271   -0.4272   -0.9334 C   0  0  0  0  0  0  0  0  0  0  0  0
    1.1844    0.0978   -0.9105 H   0  0  0  0  0  0  0  0  0  0  0  0
    0.4255   -1.4933   -1.0533 H   0  0  0  0  0  0  0  0  0  0  0  0
   -0.5697    0.0705   -2.1519 C   0  0  0  0  0  0  0  0  0  0  0  0
   -1.5080    0.5149   -1.8204 H   0  0  0  0  0  0  0  0  0  0  0  0
    0.0133    0.8329   -2.6685 H   0  0  0  0  0  0  0  0  0  0  0  0
   -0.8998   -1.0400   -3.1491 C   0  0  0  0  0  0  0  0  0  0  0  0
   -0.5062   -2.1852   -3.0298 O   0  0  0  0  0  0  0  0  0  0  0  0
   -1.6541   -0.7464   -4.1859 N   0  0  0  0  0  0  0  0  0  0  0  0
   -1.8401   -1.5138   -4.8081 H   0  0  0  0  0  0  0  0  0  0  0  0
   -2.0064    0.1781   -4.3304 H   0  0  0  0  0  0  0  0  0  0  0  0
   -0.7011    1.2952    0.7149 C   0  0  0  0  0  0  0  0  0  0  0  0
   -1.5917    1.9198    0.1415 O   0  0  0  0  0  0  0  0  0  0  0  0
    0.1191    1.8675    1.6055 N   0  0  0  0  0  0  0  0  0  0  0  0
    0.8092    1.2861    2.0537 H   0  0  0  0  0  0  0  0  0  0  0  0
    0.0509    3.2769    1.9894 C   0  0  0  0  0  0  0  0  0  0  0  0
   -0.9494    3.5076    2.3640 H   0  0  0  0  0  0  0  0  0  0  0  0
    0.7844    3.4956    2.7668 H   0  0  0  0  0  0  0  0  0  0  0  0
    0.2468    3.9058    1.1193 H   0  0  0  0  0  0  0  0  0  0  0  0
  5  6  2  0  0  0  0
  5  7  1  0  0  0  0
  2  3  1  0  0  0  0
  2  4  1  0  0  0  0
  2  5  1  0  0  0  0
  1  2  1  0  0  0  0
 22 23  2  0  0  0  0
 22 24  1  0  0  0  0
 19 20  1  0  0  0  0
 19 21  1  0  0  0  0
 17 18  2  0  0  0  0
 17 19  1  0  0  0  0
 14 15  1  0  0  0  0
 14 16  1  0  0  0  0
 14 17  1  0  0  0  0
 11 12  1  0  0  0  0
 11 13  1  0  0  0  0
 11 14  1  0  0  0  0
  9 10  1  0  0  0  0
  9 11  1  0  0  0  0
  9 22  1  0  0  0  0
  7  8  1  0  0  0  0
  7  9  1  0  0  0  0
 26 27  1  0  0  0  0
 26 28  1  0  0  0  0
 26 29  1  0  0  0  0
 24 25  1  0  0  0  0
 24 26  1  0  0  0  0
M  END
$$$$
default_name
  -OEChem-02102213163D

 29 28  0     1  0  0  0  0  0999 V2000
   -3.3998   -3.6239    1.3678 H   0  0  0  0  0  0  0  0  0  0  0  0
   -3.3608   -2.6749    0.8348 C   0  0  0  0  0  0  0  0  0  0  0  0
   -4.0988   -1.9909    1.2498 H   0  0  0  0  0  0  0  0  0  0  0  0
   -3.5618   -2.8419   -0.2222 H   0  0  0  0  0  0  0  0  0  0  0  0
   -1.9818   -2.0809    0.9918 C   0  0  0  0  0  0  0  0  0  0  0  0
   -1.1288   -2.6669    1.6468 O   0  0  0  0  0  0  0  0  0  0  0  0
   -1.7648   -0.9089    0.3998 N   0  0  0  0  0  0  0  0  0  0  0  0
   -2.5238   -0.4719   -0.1032 H   0  0  0  0  0  0  0  0  0  0  0  0
   -0.4848   -0.1959    0.4138 C   0  0  1  0  0  0  0  0  0  0  0  0
    0.1386   -0.6144    1.2058 H   0  0  0  0  0  0  0  0  0  0  0  0
    0.2271   -0.4272   -0.9334 C   0  0  0  0  0  0  0  0  0  0  0  0
    1.1844    0.0978   -0.9105 H   0  0  0  0  0  0  0  0  0  0  0  0
    0.4255   -1.4933   -1.0533 H   0  0  0  0  0  0  0  0  0  0  0  0
   -0.5697    0.0705   -2.1519 C   0  0  0  0  0  0  0  0  0  0  0  0
   -1.3636    0.7405   -1.8226 H   0  0  0  0  0  0  0  0  0  0  0  0
    0.1002    0.6221   -2.8114 H   0  0  0  0  0  0  0  0  0  0  0  0
   -1.2102   -1.0616   -2.9549 C   0  0  0  0  0  0  0  0  0  0  0  0
   -1.0430   -2.2398   -2.7010 O   0  0  0  0  0  0  0  0  0  0  0  0
   -1.9886   -0.7479   -3.9678 N   0  0  0  0  0  0  0  0  0  0  0  0
   -2.3836   -1.5307   -4.4595 H   0  0  0  0  0  0  0  0  0  0  0  0
   -2.1620    0.2045   -4.2179 H   0  0  0  0  0  0  0  0  0  0  0  0
   -0.7011    1.2952    0.7149 C   0  0  0  0  0  0  0  0  0  0  0  0
   -1.5917    1.9198    0.1415 O   0  0  0  0  0  0  0  0  0  0  0  0
    0.1191    1.8675    1.6055 N   0  0  0  0  0  0  0  0  0  0  0  0
    0.8092    1.2861    2.0537 H   0  0  0  0  0  0  0  0  0  0  0  0
    0.0509    3.2769    1.9894 C   0  0  0  0  0  0  0  0  0  0  0  0
   -0.9494    3.5076    2.3640 H   0  0  0  0  0  0  0  0  0  0  0  0
    0.7844    3.4956    2.7668 H   0  0  0  0  0  0  0  0  0  0  0  0
    0.2468    3.9058    1.1193 H   0  0  0  0  0  0  0  0  0  0  0  0
  5  6  2  0  0  0  0
  5  7  1  0  0  0  0
  2  3  1  0  0  0  0
  2  4  1  0  0  0  0
  2  5  1  0  0  0  0
  1  2  1  0  0  0  0
 22 23  2  0  0  0  0
 22 24  1  0  0  0  0
 19 20  1  0  0  0  0
 19 21  1  0  0  0  0
 17 18  2  0  0  0  0
 17 19  1  0  0  0  0
 14 15  1  0  0  0  0
 14 16  1  0  0  0  0
 14 17  1  0  0  0  0
 11 12  1  0  0  0  0
 11 13  1  0  0  0  0
 11 14  1  0  0  0  0
  9 10  1  0  0  0  0
  9 11  1  0  0  0  0
  9 22  1  0  0  0  0
  7  8  1  0  0  0  0
  7  9  1  0  0  0  0
 26 27  1  0  0  0  0
 26 28  1  0  0  0  0
 26 29  1  0  0  0  0
 24 25  1  0  0  0  0
 24 26  1  0  0  0  0
M  END
$$$$
default_name
  -OEChem-02102213163D

 29 28  0     1  0  0  0  0  0999 V2000
   -3.3998   -3.6239    1.3678 H   0  0  0  0  0  0  0  0  0  0  0  0
   -3.3608   -2.6749    0.8348 C   0  0  0  0  0  0  0  0  0  0  0  0
   -4.0988   -1.9909    1.2498 H   0  0  0  0  0  0  0  0  0  0  0  0
   -3.5618   -2.8419   -0.2222 H   0  0  0  0  0  0  0  0  0  0  0  0
   -1.9818   -2.0809    0.9918 C   0  0  0  0  0  0  0  0  0  0  0  0
   -1.1288   -2.6669    1.6468 O   0  0  0  0  0  0  0  0  0  0  0  0
   -1.7648   -0.9089    0.3998 N   0  0  0  0  0  0  0  0  0  0  0  0
   -2.5238   -0.4719   -0.1032 H   0  0  0  0  0  0  0  0  0  0  0  0
   -0.4848   -0.1959    0.4138 C   0  0  1  0  0  0  0  0  0  0  0  0
    0.1386   -0.6144    1.2058 H   0  0  0  0  0  0  0  0  0  0  0  0
    0.2271   -0.4272   -0.9334 C   0  0  0  0  0  0  0  0  0  0  0  0
    1.1844    0.0978   -0.9105 H   0  0  0  0  0  0  0  0  0  0  0  0
    0.4255   -1.4933   -1.0533 H   0  0  0  0  0  0  0  0  0  0  0  0
   -0.5697    0.0705   -2.1519 C   0  0  0  0  0  0  0  0  0  0  0  0
   -1.1781    0.9286   -1.8671 H   0  0  0  0  0  0  0  0  0  0  0  0
    0.1290    0.3815   -2.9285 H   0  0  0  0  0  0  0  0  0  0  0  0
   -1.4983   -0.9927   -2.7384 C   0  0  0  0  0  0  0  0  0  0  0  0
   -1.5452   -2.1384   -2.3312 O   0  0  0  0  0  0  0  0  0  0  0  0
   -2.2937   -0.6516   -3.7289 N   0  0  0  0  0  0  0  0  0  0  0  0
   -2.8828   -1.3889   -4.0751 H   0  0  0  0  0  0  0  0  0  0  0  0
   -2.2974    0.2769   -4.0998 H   0  0  0  0  0  0  0  0  0  0  0  0
   -0.7011    1.2952    0.7149 C   0  0  0  0  0  0  0  0  0  0  0  0
   -1.5917    1.9198    0.1415 O   0  0  0  0  0  0  0  0  0  0  0  0
    0.1191    1.8675    1.6055 N   0  0  0  0  0  0  0  0  0  0  0  0
    0.8092    1.2861    2.0537 H   0  0  0  0  0  0  0  0  0  0  0  0
    0.0509    3.2769    1.9894 C   0  0  0  0  0  0  0  0  0  0  0  0
   -0.9494    3.5076    2.3640 H   0  0  0  0  0  0  0  0  0  0  0  0
    0.7844    3.4956    2.7668 H   0  0  0  0  0  0  0  0  0  0  0  0
    0.2468    3.9058    1.1193 H   0  0  0  0  0  0  0  0  0  0  0  0
  5  6  2  0  0  0  0
  5  7  1  0  0  0  0
  2  3  1  0  0  0  0
  2  4  1  0  0  0  0
  2  5  1  0  0  0  0
  1  2  1  0  0  0  0
 22 23  2  0  0  0  0
 22 24  1  0  0  0  0
 19 20  1  0  0  0  0
 19 21  1  0  0  0  0
 17 18  2  0  0  0  0
 17 19  1  0  0  0  0
 14 15  1  0  0  0  0
 14 16  1  0  0  0  0
 14 17  1  0  0  0  0
 11 12  1  0  0  0  0
 11 13  1  0  0  0  0
 11 14  1  0  0  0  0
  9 10  1  0  0  0  0
  9 11  1  0  0  0  0
  9 22  1  0  0  0  0
  7  8  1  0  0  0  0
  7  9  1  0  0  0  0
 26 27  1  0  0  0  0
 26 28  1  0  0  0  0
 26 29  1  0  0  0  0
 24 25  1  0  0  0  0
 24 26  1  0  0  0  0
M  END
$$$$
default_name
  -OEChem-02102213163D

 29 28  0     1  0  0  0  0  0999 V2000
   -3.3998   -3.6239    1.3678 H   0  0  0  0  0  0  0  0  0  0  0  0
   -3.3608   -2.6749    0.8348 C   0  0  0  0  0  0  0  0  0  0  0  0
   -4.0988   -1.9909    1.2498 H   0  0  0  0  0  0  0  0  0  0  0  0
   -3.5618   -2.8419   -0.2222 H   0  0  0  0  0  0  0  0  0  0  0  0
   -1.9818   -2.0809    0.9918 C   0  0  0  0  0  0  0  0  0  0  0  0
   -1.1288   -2.6669    1.6468 O   0  0  0  0  0  0  0  0  0  0  0  0
   -1.7648   -0.9089    0.3998 N   0  0  0  0  0  0  0  0  0  0  0  0
   -2.5238   -0.4719   -0.1032 H   0  0  0  0  0  0  0  0  0  0  0  0
   -0.4848   -0.1959    0.4138 C   0  0  1  0  0  0  0  0  0  0  0  0
    0.1386   -0.6144    1.2058 H   0  0  0  0  0  0  0  0  0  0  0  0
    0.2271   -0.4272   -0.9334 C   0  0  0  0  0  0  0  0  0  0  0  0
    1.1844    0.0978   -0.9105 H   0  0  0  0  0  0  0  0  0  0  0  0
    0.4255   -1.4933   -1.0533 H   0  0  0  0  0  0  0  0  0  0  0  0
   -0.5697    0.0705   -2.1519 C   0  0  0  0  0  0  0  0  0  0  0  0
   -0.9642    1.0663   -1.9508 H   0  0  0  0  0  0  0  0  0  0  0  0
    0.0976    0.1275   -3.0118 H   0  0  0  0  0  0  0  0  0  0  0  0
   -1.7443   -0.8381   -2.5143 C   0  0  0  0  0  0  0  0  0  0  0  0
   -1.9785   -1.8880   -1.9455 O   0  0  0  0  0  0  0  0  0  0  0  0
   -2.5487   -0.4640   -3.4855 N   0  0  0  0  0  0  0  0  0  0  0  0
   -3.3038   -1.0980   -3.6810 H   0  0  0  0  0  0  0  0  0  0  0  0
   -2.4035    0.3905   -3.9840 H   0  0  0  0  0  0  0  0  0  0  0  0
   -0.7011    1.2952    0.7149 C   0  0  0  0  0  0  0  0  0  0  0  0
   -1.5917    1.9198    0.1415 O   0  0  0  0  0  0  0  0  0  0  0  0
    0.1191    1.8675    1.6055 N   0  0  0  0  0  0  0  0  0  0  0  0
    0.8092    1.2861    2.0537 H   0  0  0  0  0  0  0  0  0  0  0  0
    0.0509    3.2769    1.9894 C   0  0  0  0  0  0  0  0  0  0  0  0
   -0.9494    3.5076    2.3640 H   0  0  0  0  0  0  0  0  0  0  0  0
    0.7844    3.4956    2.7668 H   0  0  0  0  0  0  0  0  0  0  0  0
    0.2468    3.9058    1.1193 H   0  0  0  0  0  0  0  0  0  0  0  0
  5  6  2  0  0  0  0
  5  7  1  0  0  0  0
  2  3  1  0  0  0  0
  2  4  1  0  0  0  0
  2  5  1  0  0  0  0
  1  2  1  0  0  0  0
 22 23  2  0  0  0  0
 22 24  1  0  0  0  0
 19 20  1  0  0  0  0
 19 21  1  0  0  0  0
 17 18  2  0  0  0  0
 17 19  1  0  0  0  0
 14 15  1  0  0  0  0
 14 16  1  0  0  0  0
 14 17  1  0  0  0  0
 11 12  1  0  0  0  0
 11 13  1  0  0  0  0
 11 14  1  0  0  0  0
  9 10  1  0  0  0  0
  9 11  1  0  0  0  0
  9 22  1  0  0  0  0
  7  8  1  0  0  0  0
  7  9  1  0  0  0  0
 26 27  1  0  0  0  0
 26 28  1  0  0  0  0
 26 29  1  0  0  0  0
 24 25  1  0  0  0  0
 24 26  1  0  0  0  0
M  END
$$$$
default_name
  -OEChem-02102213163D

 29 28  0     1  0  0  0  0  0999 V2000
   -3.3998   -3.6239    1.3678 H   0  0  0  0  0  0  0  0  0  0  0  0
   -3.3608   -2.6749    0.8348 C   0  0  0  0  0  0  0  0  0  0  0  0
   -4.0988   -1.9909    1.2498 H   0  0  0  0  0  0  0  0  0  0  0  0
   -3.5618   -2.8419   -0.2222 H   0  0  0  0  0  0  0  0  0  0  0  0
   -1.9818   -2.0809    0.9918 C   0  0  0  0  0  0  0  0  0  0  0  0
   -1.1288   -2.6669    1.6468 O   0  0  0  0  0  0  0  0  0  0  0  0
   -1.7648   -0.9089    0.3998 N   0  0  0  0  0  0  0  0  0  0  0  0
   -2.5238   -0.4719   -0.1032 H   0  0  0  0  0  0  0  0  0  0  0  0
   -0.4848   -0.1959    0.4138 C   0  0  1  0  0  0  0  0  0  0  0  0
    0.1386   -0.6144    1.2058 H   0  0  0  0  0  0  0  0  0  0  0  0
    0.2271   -0.4272   -0.9334 C   0  0  0  0  0  0  0  0  0  0  0  0
    1.1844    0.0978   -0.9105 H   0  0  0  0  0  0  0  0  0  0  0  0
    0.4255   -1.4933   -1.0533 H   0  0  0  0  0  0  0  0  0  0  0  0
   -0.5697    0.0705   -2.1519 C   0  0  0  0  0  0  0  0  0  0  0  0
   -0.7363    1.1442   -2.0680 H   0  0  0  0  0  0  0  0  0  0  0  0
    0.0084   -0.1226   -3.0555 H   0  0  0  0  0  0  0  0  0  0  0  0
   -1.9315   -0.6084   -2.2981 C   0  0  0  0  0  0  0  0  0  0  0  0
   -2.3135   -1.5056   -1.5703 O   0  0  0  0  0  0  0  0  0  0  0  0
   -2.7361   -0.1979   -3.2543 N   0  0  0  0  0  0  0  0  0  0  0  0
   -3.6179   -0.6780   -3.3040 H   0  0  0  0  0  0  0  0  0  0  0  0
   -2.4730    0.5375   -3.8785 H   0  0  0  0  0  0  0  0  0  0  0  0
   -0.7011    1.2952    0.7149 C   0  0  0  0  0  0  0  0  0  0  0  0
   -1.5917    1.9198    0.1415 O   0  0  0  0  0  0  0  0  0  0  0  0
    0.1191    1.8675    1.6055 N   0  0  0  0  0  0  0  0  0  0  0  0
    0.8092    1.2861    2.0537 H   0  0  0  0  0  0  0  0  0  0  0  0
    0.0509    3.2769    1.9894 C   0  0  0  0  0  0  0  0  0  0  0  0
   -0.9494    3.5076    2.3640 H   0  0  0  0  0  0  0  0  0  0  0  0
    0.7844    3.4956    2.7668 H   0  0  0  0  0  0  0  0  0  0  0  0
    0.2468    3.9058    1.1193 H   0  0  0  0  0  0  0  0  0  0  0  0
  5  6  2  0  0  0  0
  5  7  1  0  0  0  0
  2  3  1  0  0  0  0
  2  4  1  0  0  0  0
  2  5  1  0  0  0  0
  1  2  1  0  0  0  0
 22 23  2  0  0  0  0
 22 24  1  0  0  0  0
 19 20  1  0  0  0  0
 19 21  1  0  0  0  0
 17 18  2  0  0  0  0
 17 19  1  0  0  0  0
 14 15  1  0  0  0  0
 14 16  1  0  0  0  0
 14 17  1  0  0  0  0
 11 12  1  0  0  0  0
 11 13  1  0  0  0  0
 11 14  1  0  0  0  0
  9 10  1  0  0  0  0
  9 11  1  0  0  0  0
  9 22  1  0  0  0  0
  7  8  1  0  0  0  0
  7  9  1  0  0  0  0
 26 27  1  0  0  0  0
 26 28  1  0  0  0  0
 26 29  1  0  0  0  0
 24 25  1  0  0  0  0
 24 26  1  0  0  0  0
M  END
$$$$
default_name
  -OEChem-02102213163D

 29 28  0     1  0  0  0  0  0999 V2000
   -3.3998   -3.6239    1.3678 H   0  0  0  0  0  0  0  0  0  0  0  0
   -3.3608   -2.6749    0.8348 C   0  0  0  0  0  0  0  0  0  0  0  0
   -4.0988   -1.9909    1.2498 H   0  0  0  0  0  0  0  0  0  0  0  0
   -3.5618   -2.8419   -0.2222 H   0  0  0  0  0  0  0  0  0  0  0  0
   -1.9818   -2.0809    0.9918 C   0  0  0  0  0  0  0  0  0  0  0  0
   -1.1288   -2.6669    1.6468 O   0  0  0  0  0  0  0  0  0  0  0  0
   -1.7648   -0.9089    0.3998 N   0  0  0  0  0  0  0  0  0  0  0  0
   -2.5238   -0.4719   -0.1032 H   0  0  0  0  0  0  0  0  0  0  0  0
   -0.4848   -0.1959    0.4138 C   0  0  1  0  0  0  0  0  0  0  0  0
    0.1386   -0.6144    1.2058 H   0  0  0  0  0  0  0  0  0  0  0  0
    0.2271   -0.4272   -0.9334 C   0  0  0  0  0  0  0  0  0  0  0  0
    1.1844    0.0978   -0.9105 H   0  0  0  0  0  0  0  0  0  0  0  0
    0.4255   -1.4933   -1.0533 H   0  0  0  0  0  0  0  0  0  0  0  0
   -0.5697    0.0705   -2.1519 C   0  0  0  0  0  0  0  0  0  0  0  0
   -0.5100    1.1571   -2.2107 H   0  0  0  0  0  0  0  0  0  0  0  0
   -0.1328   -0.3517   -3.0568 H   0  0  0  0  0  0  0  0  0  0  0  0
   -2.0471   -0.3191   -2.1043 C   0  0  0  0  0  0  0  0  0  0  0  0
   -2.5272   -1.0172   -1.2310 O   0  0  0  0  0  0  0  0  0  0  0  0
   -2.8433    0.1286   -3.0508 N   0  0  0  0  0  0  0  0  0  0  0  0
   -3.8036   -0.1574   -2.9699 H   0  0  0  0  0  0  0  0  0  0  0  0
   -2.5012    0.7078   -3.7905 H   0  0  0  0  0  0  0  0  0  0  0  0
   -0.7011    1.2952    0.7149 C   0  0  0  0  0  0  0  0  0  0  0  0
   -1.5917    1.9198    0.1415 O   0  0  0  0  0  0  0  0  0  0  0  0
    0.1191    1.8675    1.6055 N   0  0  0  0  0  0  0  0  0  0  0  0
    0.8092    1.2861    2.0537 H   0  0  0  0  0  0  0  0  0  0  0  0
    0.0509    3.2769    1.9894 C   0  0  0  0  0  0  0  0  0  0  0  0
   -0.9494    3.5076    2.3640 H   0  0  0  0  0  0  0  0  0  0  0  0
    0.7844    3.4956    2.7668 H   0  0  0  0  0  0  0  0  0  0  0  0
    0.2468    3.9058    1.1193 H   0  0  0  0  0  0  0  0  0  0  0  0
  5  6  2  0  0  0  0
  5  7  1  0  0  0  0
  2  3  1  0  0  0  0
  2  4  1  0  0  0  0
  2  5  1  0  0  0  0
  1  2  1  0  0  0  0
 22 23  2  0  0  0  0
 22 24  1  0  0  0  0
 19 20  1  0  0  0  0
 19 21  1  0  0  0  0
 17 18  2  0  0  0  0
 17 19  1  0  0  0  0
 14 15  1  0  0  0  0
 14 16  1  0  0  0  0
 14 17  1  0  0  0  0
 11 12  1  0  0  0  0
 11 13  1  0  0  0  0
 11 14  1  0  0  0  0
  9 10  1  0  0  0  0
  9 11  1  0  0  0  0
  9 22  1  0  0  0  0
  7  8  1  0  0  0  0
  7  9  1  0  0  0  0
 26 27  1  0  0  0  0
 26 28  1  0  0  0  0
 26 29  1  0  0  0  0
 24 25  1  0  0  0  0
 24 26  1  0  0  0  0
M  END
$$$$
default_name
  -OEChem-02102213163D

 29 28  0     1  0  0  0  0  0999 V2000
   -3.3998   -3.6239    1.3678 H   0  0  0  0  0  0  0  0  0  0  0  0
   -3.3608   -2.6749    0.8348 C   0  0  0  0  0  0  0  0  0  0  0  0
   -4.0988   -1.9909    1.2498 H   0  0  0  0  0  0  0  0  0  0  0  0
   -3.5618   -2.8419   -0.2222 H   0  0  0  0  0  0  0  0  0  0  0  0
   -1.9818   -2.0809    0.9918 C   0  0  0  0  0  0  0  0  0  0  0  0
   -1.1288   -2.6669    1.6468 O   0  0  0  0  0  0  0  0  0  0  0  0
   -1.7648   -0.9089    0.3998 N   0  0  0  0  0  0  0  0  0  0  0  0
   -2.5238   -0.4719   -0.1032 H   0  0  0  0  0  0  0  0  0  0  0  0
   -0.4848   -0.1959    0.4138 C   0  0  1  0  0  0  0  0  0  0  0  0
    0.1386   -0.6144    1.2058 H   0  0  0  0  0  0  0  0  0  0  0  0
    0.2271   -0.4272   -0.9334 C   0  0  0  0  0  0  0  0  0  0  0  0
    1.1844    0.0978   -0.9105 H   0  0  0  0  0  0  0  0  0  0  0  0
    0.4255   -1.4933   -1.0533 H   0  0  0  0  0  0  0  0  0  0  0  0
   -0.5697    0.0705   -2.1519 C   0  0  0  0  0  0  0  0  0  0  0  0
   -0.3007    1.1040   -2.3693 H   0  0  0  0  0  0  0  0  0  0  0  0
   -0.3163   -0.5443   -3.0155 H   0  0  0  0  0  0  0  0  0  0  0  0
   -2.0832    0.0100   -1.9463 C   0  0  0  0  0  0  0  0  0  0  0  0
   -2.6052   -0.4562   -0.9509 O   0  0  0  0  0  0  0  0  0  0  0  0
   -2.8628    0.4931   -2.8891 N   0  0  0  0  0  0  0  0  0  0  0  0
   -3.8483    0.4284   -2.7015 H   0  0  0  0  0  0  0  0  0  0  0  0
   -2.4861    0.8900   -3.7260 H   0  0  0  0  0  0  0  0  0  0  0  0
   -0.7011    1.2952    0.7149 C   0  0  0  0  0  0  0  0  0  0  0  0
   -1.5917    1.9198    0.1415 O   0  0  0  0  0  0  0  0  0  0  0  0
    0.1191    1.8675    1.6055 N   0  0  0  0  0  0  0  0  0  0  0  0
    0.8092    1.2861    2.0537 H   0  0  0  0  0  0  0  0  0  0  0  0
    0.0509    3.2769    1.9894 C   0  0  0  0  0  0  0  0  0  0  0  0
   -0.9494    3.5076    2.3640 H   0  0  0  0  0  0  0  0  0  0  0  0
    0.7844    3.4956    2.7668 H   0  0  0  0  0  0  0  0  0  0  0  0
    0.2468    3.9058    1.1193 H   0  0  0  0  0  0  0  0  0  0  0  0
  5  6  2  0  0  0  0
  5  7  1  0  0  0  0
  2  3  1  0  0  0  0
  2  4  1  0  0  0  0
  2  5  1  0  0  0  0
  1  2  1  0  0  0  0
 22 23  2  0  0  0  0
 22 24  1  0  0  0  0
 19 20  1  0  0  0  0
 19 21  1  0  0  0  0
 17 18  2  0  0  0  0
 17 19  1  0  0  0  0
 14 15  1  0  0  0  0
 14 16  1  0  0  0  0
 14 17  1  0  0  0  0
 11 12  1  0  0  0  0
 11 13  1  0  0  0  0
 11 14  1  0  0  0  0
  9 10  1  0  0  0  0
  9 11  1  0  0  0  0
  9 22  1  0  0  0  0
  7  8  1  0  0  0  0
  7  9  1  0  0  0  0
 26 27  1  0  0  0  0
 26 28  1  0  0  0  0
 26 29  1  0  0  0  0
 24 25  1  0  0  0  0
 24 26  1  0  0  0  0
M  END
$$$$
default_name
  -OEChem-02102213163D

 29 28  0     1  0  0  0  0  0999 V2000
   -3.3998   -3.6239    1.3678 H   0  0  0  0  0  0  0  0  0  0  0  0
   -3.3608   -2.6749    0.8348 C   0  0  0  0  0  0  0  0  0  0  0  0
   -4.0988   -1.9909    1.2498 H   0  0  0  0  0  0  0  0  0  0  0  0
   -3.5618   -2.8419   -0.2222 H   0  0  0  0  0  0  0  0  0  0  0  0
   -1.9818   -2.0809    0.9918 C   0  0  0  0  0  0  0  0  0  0  0  0
   -1.1288   -2.6669    1.6468 O   0  0  0  0  0  0  0  0  0  0  0  0
   -1.7648   -0.9089    0.3998 N   0  0  0  0  0  0  0  0  0  0  0  0
   -2.5238   -0.4719   -0.1032 H   0  0  0  0  0  0  0  0  0  0  0  0
   -0.4848   -0.1959    0.4138 C   0  0  1  0  0  0  0  0  0  0  0  0
    0.1386   -0.6144    1.2058 H   0  0  0  0  0  0  0  0  0  0  0  0
    0.2271   -0.4272   -0.9334 C   0  0  0  0  0  0  0  0  0  0  0  0
    1.1844    0.0978   -0.9105 H   0  0  0  0  0  0  0  0  0  0  0  0
    0.4255   -1.4933   -1.0533 H   0  0  0  0  0  0  0  0  0  0  0  0
   -0.5697    0.0705   -2.1519 C   0  0  0  0  0  0  0  0  0  0  0  0
   -0.1227    0.9885   -2.5328 H   0  0  0  0  0  0  0  0  0  0  0  0
   -0.5294   -0.6872   -2.9344 H   0  0  0  0  0  0  0  0  0  0  0  0
   -2.0375    0.3564   -1.8347 C   0  0  0  0  0  0  0  0  0  0  0  0
   -2.5420    0.1391   -0.7490 O   0  0  0  0  0  0  0  0  0  0  0  0
   -2.7935    0.8709   -2.7802 N   0  0  0  0  0  0  0  0  0  0  0  0
   -3.7489    1.0393   -2.5169 H   0  0  0  0  0  0  0  0  0  0  0  0
   -2.4288    1.0714   -3.6893 H   0  0  0  0  0  0  0  0  0  0  0  0
   -0.7011    1.2952    0.7149 C   0  0  0  0  0  0  0  0  0  0  0  0
   -1.5917    1.9198    0.1415 O   0  0  0  0  0  0  0  0  0  0  0  0
    0.1191    1.8675    1.6055 N   0  0  0  0  0  0  0  0  0  0  0  0
    0.8092    1.2861    2.0537 H   0  0  0  0  0  0  0  0  0  0  0  0
    0.0509    3.2769    1.9894 C   0  0  0  0  0  0  0  0  0  0  0  0
   -0.9494    3.5076    2.3640 H   0  0  0  0  0  0  0  0  0  0  0  0
    0.7844    3.4956    2.7668 H   0  0  0  0  0  0  0  0  0  0  0  0
    0.2468    3.9058    1.1193 H   0  0  0  0  0  0  0  0  0  0  0  0
  5  6  2  0  0  0  0
  5  7  1  0  0  0  0
  2  3  1  0  0  0  0
  2  4  1  0  0  0  0
  2  5  1  0  0  0  0
  1  2  1  0  0  0  0
 22 23  2  0  0  0  0
 22 24  1  0  0  0  0
 19 20  1  0  0  0  0
 19 21  1  0  0  0  0
 17 18  2  0  0  0  0
 17 19  1  0  0  0  0
 14 15  1  0  0  0  0
 14 16  1  0  0  0  0
 14 17  1  0  0  0  0
 11 12  1  0  0  0  0
 11 13  1  0  0  0  0
 11 14  1  0  0  0  0
  9 10  1  0  0  0  0
  9 11  1  0  0  0  0
  9 22  1  0  0  0  0
  7  8  1  0  0  0  0
  7  9  1  0  0  0  0
 26 27  1  0  0  0  0
 26 28  1  0  0  0  0
 26 29  1  0  0  0  0
 24 25  1  0  0  0  0
 24 26  1  0  0  0  0
M  END
$$$$
default_name
  -OEChem-02102213163D

 29 28  0     1  0  0  0  0  0999 V2000
   -3.3998   -3.6239    1.3678 H   0  0  0  0  0  0  0  0  0  0  0  0
   -3.3608   -2.6749    0.8348 C   0  0  0  0  0  0  0  0  0  0  0  0
   -4.0988   -1.9909    1.2498 H   0  0  0  0  0  0  0  0  0  0  0  0
   -3.5618   -2.8419   -0.2222 H   0  0  0  0  0  0  0  0  0  0  0  0
   -1.9818   -2.0809    0.9918 C   0  0  0  0  0  0  0  0  0  0  0  0
   -1.1288   -2.6669    1.6468 O   0  0  0  0  0  0  0  0  0  0  0  0
   -1.7648   -0.9089    0.3998 N   0  0  0  0  0  0  0  0  0  0  0  0
   -2.5238   -0.4719   -0.1032 H   0  0  0  0  0  0  0  0  0  0  0  0
   -0.4848   -0.1959    0.4138 C   0  0  1  0  0  0  0  0  0  0  0  0
    0.1386   -0.6144    1.2058 H   0  0  0  0  0  0  0  0  0  0  0  0
    0.2271   -0.4272   -0.9334 C   0  0  0  0  0  0  0  0  0  0  0  0
    1.1844    0.0978   -0.9105 H   0  0  0  0  0  0  0  0  0  0  0  0
    0.4255   -1.4933   -1.0533 H   0  0  0  0  0  0  0  0  0  0  0  0
   -0.5697    0.0705   -2.1519 C   0  0  0  0  0  0  0  0  0  0  0  0
    0.0119    0.8186   -2.6902 H   0  0  0  0  0  0  0  0  0  0  0  0
   -0.7579   -0.7706   -2.8191 H   0  0  0  0  0  0  0  0  0  0  0  0
   -1.9129    0.6967   -1.7772 C   0  0  0  0  0  0  0  0  0  0  0  0
   -2.3421    0.7284   -0.6390 O   0  0  0  0  0  0  0  0  0  0  0  0
   -2.6399    1.2363   -2.7314 N   0  0  0  0  0  0  0  0  0  0  0  0
   -3.5123    1.6338   -2.4289 H   0  0  0  0  0  0  0  0  0  0  0  0
   -2.3332    1.2399   -3.6830 H   0  0  0  0  0  0  0  0  0  0  0  0
   -0.7011    1.2952    0.7149 C   0  0  0  0  0  0  0  0  0  0  0  0
   -1.5917    1.9198    0.1415 O   0  0  0  0  0  0  0  0  0  0  0  0
    0.1191    1.8675    1.6055 N   0  0  0  0  0  0  0  0  0  0  0  0
    0.8092    1.2861    2.0537 H   0  0  0  0  0  0  0  0  0  0  0  0
    0.0509    3.2769    1.9894 C   0  0  0  0  0  0  0  0  0  0  0  0
   -0.9494    3.5076    2.3640 H   0  0  0  0  0  0  0  0  0  0  0  0
    0.7844    3.4956    2.7668 H   0  0  0  0  0  0  0  0  0  0  0  0
    0.2468    3.9058    1.1193 H   0  0  0  0  0  0  0  0  0  0  0  0
  5  6  2  0  0  0  0
  5  7  1  0  0  0  0
  2  3  1  0  0  0  0
  2  4  1  0  0  0  0
  2  5  1  0  0  0  0
  1  2  1  0  0  0  0
 22 23  2  0  0  0  0
 22 24  1  0  0  0  0
 19 20  1  0  0  0  0
 19 21  1  0  0  0  0
 17 18  2  0  0  0  0
 17 19  1  0  0  0  0
 14 15  1  0  0  0  0
 14 16  1  0  0  0  0
 14 17  1  0  0  0  0
 11 12  1  0  0  0  0
 11 13  1  0  0  0  0
 11 14  1  0  0  0  0
  9 10  1  0  0  0  0
  9 11  1  0  0  0  0
  9 22  1  0  0  0  0
  7  8  1  0  0  0  0
  7  9  1  0  0  0  0
 26 27  1  0  0  0  0
 26 28  1  0  0  0  0
 26 29  1  0  0  0  0
 24 25  1  0  0  0  0
 24 26  1  0  0  0  0
M  END
$$$$
default_name
  -OEChem-02102213163D

 29 28  0     1  0  0  0  0  0999 V2000
   -3.3998   -3.6239    1.3678 H   0  0  0  0  0  0  0  0  0  0  0  0
   -3.3608   -2.6749    0.8348 C   0  0  0  0  0  0  0  0  0  0  0  0
   -4.0988   -1.9909    1.2498 H   0  0  0  0  0  0  0  0  0  0  0  0
   -3.5618   -2.8419   -0.2222 H   0  0  0  0  0  0  0  0  0  0  0  0
   -1.9818   -2.0809    0.9918 C   0  0  0  0  0  0  0  0  0  0  0  0
   -1.1288   -2.6669    1.6468 O   0  0  0  0  0  0  0  0  0  0  0  0
   -1.7648   -0.9089    0.3998 N   0  0  0  0  0  0  0  0  0  0  0  0
   -2.5238   -0.4719   -0.1032 H   0  0  0  0  0  0  0  0  0  0  0  0
   -0.4848   -0.1959    0.4138 C   0  0  1  0  0  0  0  0  0  0  0  0
    0.1386   -0.6144    1.2058 H   0  0  0  0  0  0  0  0  0  0  0  0
    0.2271   -0.4272   -0.9334 C   0  0  0  0  0  0  0  0  0  0  0  0
    1.1844    0.0978   -0.9105 H   0  0  0  0  0  0  0  0  0  0  0  0
    0.4255   -1.4933   -1.0533 H   0  0  0  0  0  0  0  0  0  0  0  0
   -0.5697    0.0705   -2.1519 C   0  0  0  0  0  0  0  0  0  0  0  0
    0.0938    0.6058   -2.8307 H   0  0  0  0  0  0  0  0  0  0  0  0
   -0.9860   -0.7889   -2.6774 H   0  0  0  0  0  0  0  0  0  0  0  0
   -1.7180    1.0075   -1.7777 C   0  0  0  0  0  0  0  0  0  0  0  0
   -2.0191    1.2713   -0.6286 O   0  0  0  0  0  0  0  0  0  0  0  0
   -2.4126    1.5642   -2.7461 N   0  0  0  0  0  0  0  0  0  0  0  0
   -3.1545    2.1713   -2.4433 H   0  0  0  0  0  0  0  0  0  0  0  0
   -2.2058    1.3839   -3.7075 H   0  0  0  0  0  0  0  0  0  0  0  0
   -0.7011    1.2952    0.7149 C   0  0  0  0  0  0  0  0  0  0  0  0
   -1.5917    1.9198    0.1415 O   0  0  0  0  0  0  0  0  0  0  0  0
    0.1191    1.8675    1.6055 N   0  0  0  0  0  0  0  0  0  0  0  0
    0.8092    1.2861    2.0537 H   0  0  0  0  0  0  0  0  0  0  0  0
    0.0509    3.2769    1.9894 C   0  0  0  0  0  0  0  0  0  0  0  0
   -0.9494    3.5076    2.3640 H   0  0  0  0  0  0  0  0  0  0  0  0
    0.7844    3.4956    2.7668 H   0  0  0  0  0  0  0  0  0  0  0  0
    0.2468    3.9058    1.1193 H   0  0  0  0  0  0  0  0  0  0  0  0
  5  6  2  0  0  0  0
  5  7  1  0  0  0  0
  2  3  1  0  0  0  0
  2  4  1  0  0  0  0
  2  5  1  0  0  0  0
  1  2  1  0  0  0  0
 22 23  2  0  0  0  0
 22 24  1  0  0  0  0
 19 20  1  0  0  0  0
 19 21  1  0  0  0  0
 17 18  2  0  0  0  0
 17 19  1  0  0  0  0
 14 15  1  0  0  0  0
 14 16  1  0  0  0  0
 14 17  1  0  0  0  0
 11 12  1  0  0  0  0
 11 13  1  0  0  0  0
 11 14  1  0  0  0  0
  9 10  1  0  0  0  0
  9 11  1  0  0  0  0
  9 22  1  0  0  0  0
  7  8  1  0  0  0  0
  7  9  1  0  0  0  0
 26 27  1  0  0  0  0
 26 28  1  0  0  0  0
 26 29  1  0  0  0  0
 24 25  1  0  0  0  0
 24 26  1  0  0  0  0
M  END
$$$$
default_name
  -OEChem-02102213163D

 29 28  0     1  0  0  0  0  0999 V2000
   -3.3998   -3.6239    1.3678 H   0  0  0  0  0  0  0  0  0  0  0  0
   -3.3608   -2.6749    0.8348 C   0  0  0  0  0  0  0  0  0  0  0  0
   -4.0988   -1.9909    1.2498 H   0  0  0  0  0  0  0  0  0  0  0  0
   -3.5618   -2.8419   -0.2222 H   0  0  0  0  0  0  0  0  0  0  0  0
   -1.9818   -2.0809    0.9918 C   0  0  0  0  0  0  0  0  0  0  0  0
   -1.1288   -2.6669    1.6468 O   0  0  0  0  0  0  0  0  0  0  0  0
   -1.7648   -0.9089    0.3998 N   0  0  0  0  0  0  0  0  0  0  0  0
   -2.5238   -0.4719   -0.1032 H   0  0  0  0  0  0  0  0  0  0  0  0
   -0.4848   -0.1959    0.4138 C   0  0  1  0  0  0  0  0  0  0  0  0
    0.1386   -0.6144    1.2058 H   0  0  0  0  0  0  0  0  0  0  0  0
    0.2271   -0.4272   -0.9334 C   0  0  0  0  0  0  0  0  0  0  0  0
    1.1844    0.0978   -0.9105 H   0  0  0  0  0  0  0  0  0  0  0  0
    0.4255   -1.4933   -1.0533 H   0  0  0  0  0  0  0  0  0  0  0  0
   -0.5697    0.0705   -2.1519 C   0  0  0  0  0  0  0  0  0  0  0  0
    0.1176    0.3646   -2.9448 H   0  0  0  0  0  0  0  0  0  0  0  0
   -1.1982   -0.7408   -2.5190 H   0  0  0  0  0  0  0  0  0  0  0  0
   -1.4661    1.2677   -1.8361 C   0  0  0  0  0  0  0  0  0  0  0  0
   -1.5948    1.7309   -0.7183 O   0  0  0  0  0  0  0  0  0  0  0  0
   -2.1271    1.8325   -2.8233 N   0  0  0  0  0  0  0  0  0  0  0  0
   -2.6999    2.6152   -2.5593 H   0  0  0  0  0  0  0  0  0  0  0  0
   -2.0553    1.4935   -3.7612 H   0  0  0  0  0  0  0  0  0  0  0  0
   -0.7011    1.2952    0.7149 C   0  0  0  0  0  0  0  0  0  0  0  0
   -1.5917    1.9198    0.1415 O   0  0  0  0  0  0  0  0  0  0  0  0
    0.1191    1.8675    1.6055 N   0  0  0  0  0  0  0  0  0  0  0  0
    0.8092    1.2861    2.0537 H   0  0  0  0  0  0  0  0  0  0  0  0
    0.0509    3.2769    1.9894 C   0  0  0  0  0  0  0  0  0  0  0  0
   -0.9494    3.5076    2.3640 H   0  0  0  0  0  0  0  0  0  0  0  0
    0.7844    3.4956    2.7668 H   0  0  0  0  0  0  0  0  0  0  0  0
    0.2468    3.9058    1.1193 H   0  0  0  0  0  0  0  0  0  0  0  0
  5  6  2  0  0  0  0
  5  7  1  0  0  0  0
  2  3  1  0  0  0  0
  2  4  1  0  0  0  0
  2  5  1  0  0  0  0
  1  2  1  0  0  0  0
 22 23  2  0  0  0  0
 22 24  1  0  0  0  0
 19 20  1  0  0  0  0
 19 21  1  0  0  0  0
 17 18  2  0  0  0  0
 17 19  1  0  0  0  0
 14 15  1  0  0  0  0
 14 16  1  0  0  0  0
 14 17  1  0  0  0  0
 11 12  1  0  0  0  0
 11 13  1  0  0  0  0
 11 14  1  0  0  0  0
  9 10  1  0  0  0  0
  9 11  1  0  0  0  0
  9 22  1  0  0  0  0
  7  8  1  0  0  0  0
  7  9  1  0  0  0  0
 26 27  1  0  0  0  0
 26 28  1  0  0  0  0
 26 29  1  0  0  0  0
 24 25  1  0  0  0  0
 24 26  1  0  0  0  0
M  END
$$$$
default_name
  -OEChem-02102213163D

 29 28  0     1  0  0  0  0  0999 V2000
   -3.3998   -3.6239    1.3678 H   0  0  0  0  0  0  0  0  0  0  0  0
   -3.3608   -2.6749    0.8348 C   0  0  0  0  0  0  0  0  0  0  0  0
   -4.0988   -1.9909    1.2498 H   0  0  0  0  0  0  0  0  0  0  0  0
   -3.5618   -2.8419   -0.2222 H   0  0  0  0  0  0  0  0  0  0  0  0
   -1.9818   -2.0809    0.9918 C   0  0  0  0  0  0  0  0  0  0  0  0
   -1.1288   -2.6669    1.6468 O   0  0  0  0  0  0  0  0  0  0  0  0
   -1.7648   -0.9089    0.3998 N   0  0  0  0  0  0  0  0  0  0  0  0
   -2.5238   -0.4719   -0.1032 H   0  0  0  0  0  0  0  0  0  0  0  0
   -0.4848   -0.1959    0.4138 C   0  0  1  0  0  0  0  0  0  0  0  0
    0.1386   -0.6144    1.2058 H   0  0  0  0  0  0  0  0  0  0  0  0
    0.2271   -0.4272   -0.9334 C   0  0  0  0  0  0  0  0  0  0  0  0
    1.1844    0.0978   -0.9105 H   0  0  0  0  0  0  0  0  0  0  0  0
    0.4255   -1.4933   -1.0533 H   0  0  0  0  0  0  0  0  0  0  0  0
   -0.5697    0.0705   -2.1519 C   0  0  0  0  0  0  0  0  0  0  0  0
    0.0816    0.1115   -3.0247 H   0  0  0  0  0  0  0  0  0  0  0  0
   -1.3800   -0.6297   -2.3547 H   0  0  0  0  0  0  0  0  0  0  0  0
   -1.1744    1.4596   -1.9485 C   0  0  0  0  0  0  0  0  0  0  0  0
   -1.0984    2.0758   -0.9020 O   0  0  0  0  0  0  0  0  0  0  0  0
   -1.8028    2.0227   -2.9577 N   0  0  0  0  0  0  0  0  0  0  0  0
   -2.1795    2.9353   -2.7688 H   0  0  0  0  0  0  0  0  0  0  0  0
   -1.8919    1.5614   -3.8403 H   0  0  0  0  0  0  0  0  0  0  0  0
   -0.7011    1.2952    0.7149 C   0  0  0  0  0  0  0  0  0  0  0  0
   -1.5917    1.9198    0.1415 O   0  0  0  0  0  0  0  0  0  0  0  0
    0.1191    1.8675    1.6055 N   0  0  0  0  0  0  0  0  0  0  0  0
    0.8092    1.2861    2.0537 H   0  0  0  0  0  0  0  0  0  0  0  0
    0.0509    3.2769    1.9894 C   0  0  0  0  0  0  0  0  0  0  0  0
   -0.9494    3.5076    2.3640 H   0  0  0  0  0  0  0  0  0  0  0  0
    0.7844    3.4956    2.7668 H   0  0  0  0  0  0  0  0  0  0  0  0
    0.2468    3.9058    1.1193 H   0  0  0  0  0  0  0  0  0  0  0  0
  5  6  2  0  0  0  0
  5  7  1  0  0  0  0
  2  3  1  0  0  0  0
  2  4  1  0  0  0  0
  2  5  1  0  0  0  0
  1  2  1  0  0  0  0
 22 23  2  0  0  0  0
 22 24  1  0  0  0  0
 19 20  1  0  0  0  0
 19 21  1  0  0  0  0
 17 18  2  0  0  0  0
 17 19  1  0  0  0  0
 14 15  1  0  0  0  0
 14 16  1  0  0  0  0
 14 17  1  0  0  0  0
 11 12  1  0  0  0  0
 11 13  1  0  0  0  0
 11 14  1  0  0  0  0
  9 10  1  0  0  0  0
  9 11  1  0  0  0  0
  9 22  1  0  0  0  0
  7  8  1  0  0  0  0
  7  9  1  0  0  0  0
 26 27  1  0  0  0  0
 26 28  1  0  0  0  0
 26 29  1  0  0  0  0
 24 25  1  0  0  0  0
 24 26  1  0  0  0  0
M  END
$$$$
default_name
  -OEChem-02102213163D

 29 28  0     1  0  0  0  0  0999 V2000
   -3.3998   -3.6239    1.3678 H   0  0  0  0  0  0  0  0  0  0  0  0
   -3.3608   -2.6749    0.8348 C   0  0  0  0  0  0  0  0  0  0  0  0
   -4.0988   -1.9909    1.2498 H   0  0  0  0  0  0  0  0  0  0  0  0
   -3.5618   -2.8419   -0.2222 H   0  0  0  0  0  0  0  0  0  0  0  0
   -1.9818   -2.0809    0.9918 C   0  0  0  0  0  0  0  0  0  0  0  0
   -1.1288   -2.6669    1.6468 O   0  0  0  0  0  0  0  0  0  0  0  0
   -1.7648   -0.9089    0.3998 N   0  0  0  0  0  0  0  0  0  0  0  0
   -2.5238   -0.4719   -0.1032 H   0  0  0  0  0  0  0  0  0  0  0  0
   -0.4848   -0.1959    0.4138 C   0  0  1  0  0  0  0  0  0  0  0  0
    0.1386   -0.6144    1.2058 H   0  0  0  0  0  0  0  0  0  0  0  0
    0.2271   -0.4272   -0.9334 C   0  0  0  0  0  0  0  0  0  0  0  0
    1.1844    0.0978   -0.9105 H   0  0  0  0  0  0  0  0  0  0  0  0
    0.4255   -1.4933   -1.0533 H   0  0  0  0  0  0  0  0  0  0  0  0
   -0.5697    0.0705   -2.1519 C   0  0  0  0  0  0  0  0  0  0  0  0
   -0.0117   -0.1364   -3.0649 H   0  0  0  0  0  0  0  0  0  0  0  0
   -1.5192   -0.4630   -2.1956 H   0  0  0  0  0  0  0  0  0  0  0  0
   -0.8626    1.5701   -2.1073 C   0  0  0  0  0  0  0  0  0  0  0  0
   -0.5635    2.2826   -1.1673 O   0  0  0  0  0  0  0  0  0  0  0  0
   -1.4617    2.1219   -3.1401 N   0  0  0  0  0  0  0  0  0  0  0  0
   -1.6288    3.1097   -3.0577 H   0  0  0  0  0  0  0  0  0  0  0  0
   -1.7268    1.5829   -3.9395 H   0  0  0  0  0  0  0  0  0  0  0  0
   -0.7011    1.2952    0.7149 C   0  0  0  0  0  0  0  0  0  0  0  0
   -1.5917    1.9198    0.1415 O   0  0  0  0  0  0  0  0  0  0  0  0
    0.1191    1.8675    1.6055 N   0  0  0  0  0  0  0  0  0  0  0  0
    0.8092    1.2861    2.0537 H   0  0  0  0  0  0  0  0  0  0  0  0
    0.0509    3.2769    1.9894 C   0  0  0  0  0  0  0  0  0  0  0  0
   -0.9494    3.5076    2.3640 H   0  0  0  0  0  0  0  0  0  0  0  0
    0.7844    3.4956    2.7668 H   0  0  0  0  0  0  0  0  0  0  0  0
    0.2468    3.9058    1.1193 H   0  0  0  0  0  0  0  0  0  0  0  0
  5  6  2  0  0  0  0
  5  7  1  0  0  0  0
  2  3  1  0  0  0  0
  2  4  1  0  0  0  0
  2  5  1  0  0  0  0
  1  2  1  0  0  0  0
 22 23  2  0  0  0  0
 22 24  1  0  0  0  0
 19 20  1  0  0  0  0
 19 21  1  0  0  0  0
 17 18  2  0  0  0  0
 17 19  1  0  0  0  0
 14 15  1  0  0  0  0
 14 16  1  0  0  0  0
 14 17  1  0  0  0  0
 11 12  1  0  0  0  0
 11 13  1  0  0  0  0
 11 14  1  0  0  0  0
  9 10  1  0  0  0  0
  9 11  1  0  0  0  0
  9 22  1  0  0  0  0
  7  8  1  0  0  0  0
  7  9  1  0  0  0  0
 26 27  1  0  0  0  0
 26 28  1  0  0  0  0
 26 29  1  0  0  0  0
 24 25  1  0  0  0  0
 24 26  1  0  0  0  0
M  END
$$$$
default_name
  -OEChem-02102213163D

 29 28  0     1  0  0  0  0  0999 V2000
   -3.3998   -3.6239    1.3678 H   0  0  0  0  0  0  0  0  0  0  0  0
   -3.3608   -2.6749    0.8348 C   0  0  0  0  0  0  0  0  0  0  0  0
   -4.0988   -1.9909    1.2498 H   0  0  0  0  0  0  0  0  0  0  0  0
   -3.5618   -2.8419   -0.2222 H   0  0  0  0  0  0  0  0  0  0  0  0
   -1.9818   -2.0809    0.9918 C   0  0  0  0  0  0  0  0  0  0  0  0
   -1.1288   -2.6669    1.6468 O   0  0  0  0  0  0  0  0  0  0  0  0
   -1.7648   -0.9089    0.3998 N   0  0  0  0  0  0  0  0  0  0  0  0
   -2.5238   -0.4719   -0.1032 H   0  0  0  0  0  0  0  0  0  0  0  0
   -0.4848   -0.1959    0.4138 C   0  0  1  0  0  0  0  0  0  0  0  0
    0.1386   -0.6144    1.2058 H   0  0  0  0  0  0  0  0  0  0  0  0
    0.2271   -0.4272   -0.9334 C   0  0  0  0  0  0  0  0  0  0  0  0
    1.1844    0.0978   -0.9105 H   0  0  0  0  0  0  0  0  0  0  0  0
    0.4255   -1.4933   -1.0533 H   0  0  0  0  0  0  0  0  0  0  0  0
   -0.5697    0.0705   -2.1519 C   0  0  0  0  0  0  0  0  0  0  0  0
   -0.1561   -0.3620   -3.0626 H   0  0  0  0  0  0  0  0  0  0  0  0
   -1.6061   -0.2522   -2.0527 H   0  0  0  0  0  0  0  0  0  0  0  0
   -0.5522    1.5917   -2.3015 C   0  0  0  0  0  0  0  0  0  0  0  0
   -0.0267    2.3372   -1.4961 O   0  0  0  0  0  0  0  0  0  0  0  0
   -1.1273    2.1234   -3.3582 N   0  0  0  0  0  0  0  0  0  0  0  0
   -1.0853    3.1266   -3.4063 H   0  0  0  0  0  0  0  0  0  0  0  0
   -1.5712    1.5565   -4.0520 H   0  0  0  0  0  0  0  0  0  0  0  0
   -0.7011    1.2952    0.7149 C   0  0  0  0  0  0  0  0  0  0  0  0
   -1.5917    1.9198    0.1415 O   0  0  0  0  0  0  0  0  0  0  0  0
    0.1191    1.8675    1.6055 N   0  0  0  0  0  0  0  0  0  0  0  0
    0.8092    1.2861    2.0537 H   0  0  0  0  0  0  0  0  0  0  0  0
    0.0509    3.2769    1.9894 C   0  0  0  0  0  0  0  0  0  0  0  0
   -0.9494    3.5076    2.3640 H   0  0  0  0  0  0  0  0  0  0  0  0
    0.7844    3.4956    2.7668 H   0  0  0  0  0  0  0  0  0  0  0  0
    0.2468    3.9058    1.1193 H   0  0  0  0  0  0  0  0  0  0  0  0
  5  6  2  0  0  0  0
  5  7  1  0  0  0  0
  2  3  1  0  0  0  0
  2  4  1  0  0  0  0
  2  5  1  0  0  0  0
  1  2  1  0  0  0  0
 22 23  2  0  0  0  0
 22 24  1  0  0  0  0
 19 20  1  0  0  0  0
 19 21  1  0  0  0  0
 17 18  2  0  0  0  0
 17 19  1  0  0  0  0
 14 15  1  0  0  0  0
 14 16  1  0  0  0  0
 14 17  1  0  0  0  0
 11 12  1  0  0  0  0
 11 13  1  0  0  0  0
 11 14  1  0  0  0  0
  9 10  1  0  0  0  0
  9 11  1  0  0  0  0
  9 22  1  0  0  0  0
  7  8  1  0  0  0  0
  7  9  1  0  0  0  0
 26 27  1  0  0  0  0
 26 28  1  0  0  0  0
 26 29  1  0  0  0  0
 24 25  1  0  0  0  0
 24 26  1  0  0  0  0
M  END
$$$$
default_name
  -OEChem-02102213163D

 29 28  0     1  0  0  0  0  0999 V2000
   -3.3998   -3.6239    1.3678 H   0  0  0  0  0  0  0  0  0  0  0  0
   -3.3608   -2.6749    0.8348 C   0  0  0  0  0  0  0  0  0  0  0  0
   -4.0988   -1.9909    1.2498 H   0  0  0  0  0  0  0  0  0  0  0  0
   -3.5618   -2.8419   -0.2222 H   0  0  0  0  0  0  0  0  0  0  0  0
   -1.9818   -2.0809    0.9918 C   0  0  0  0  0  0  0  0  0  0  0  0
   -1.1288   -2.6669    1.6468 O   0  0  0  0  0  0  0  0  0  0  0  0
   -1.7648   -0.9089    0.3998 N   0  0  0  0  0  0  0  0  0  0  0  0
   -2.5238   -0.4719   -0.1032 H   0  0  0  0  0  0  0  0  0  0  0  0
   -0.4848   -0.1959    0.4138 C   0  0  1  0  0  0  0  0  0  0  0  0
    0.1386   -0.6144    1.2058 H   0  0  0  0  0  0  0  0  0  0  0  0
    0.2271   -0.4272   -0.9334 C   0  0  0  0  0  0  0  0  0  0  0  0
    1.1844    0.0978   -0.9105 H   0  0  0  0  0  0  0  0  0  0  0  0
    0.4255   -1.4933   -1.0533 H   0  0  0  0  0  0  0  0  0  0  0  0
   -0.5697    0.0705   -2.1519 C   0  0  0  0  0  0  0  0  0  0  0  0
   -0.3415   -0.5501   -3.0182 H   0  0  0  0  0  0  0  0  0  0  0  0
   -1.6348   -0.0116   -1.9356 H   0  0  0  0  0  0  0  0  0  0  0  0
   -0.2641    1.5228   -2.5180 C   0  0  0  0  0  0  0  0  0  0  0  0
    0.4755    2.2358   -1.8659 O   0  0  0  0  0  0  0  0  0  0  0  0
   -0.8222    2.0271   -3.5971 N   0  0  0  0  0  0  0  0  0  0  0  0
   -0.5860    2.9848   -3.7907 H   0  0  0  0  0  0  0  0  0  0  0  0
   -1.4358    1.4841   -4.1702 H   0  0  0  0  0  0  0  0  0  0  0  0
   -0.7011    1.2952    0.7149 C   0  0  0  0  0  0  0  0  0  0  0  0
   -1.5917    1.9198    0.1415 O   0  0  0  0  0  0  0  0  0  0  0  0
    0.1191    1.8675    1.6055 N   0  0  0  0  0  0  0  0  0  0  0  0
    0.8092    1.2861    2.0537 H   0  0  0  0  0  0  0  0  0  0  0  0
    0.0509    3.2769    1.9894 C   0  0  0  0  0  0  0  0  0  0  0  0
   -0.9494    3.5076    2.3640 H   0  0  0  0  0  0  0  0  0  0  0  0
    0.7844    3.4956    2.7668 H   0  0  0  0  0  0  0  0  0  0  0  0
    0.2468    3.9058    1.1193 H   0  0  0  0  0  0  0  0  0  0  0  0
  5  6  2  0  0  0  0
  5  7  1  0  0  0  0
  2  3  1  0  0  0  0
  2  4  1  0  0  0  0
  2  5  1  0  0  0  0
  1  2  1  0  0  0  0
 22 23  2  0  0  0  0
 22 24  1  0  0  0  0
 19 20  1  0  0  0  0
 19 21  1  0  0  0  0
 17 18  2  0  0  0  0
 17 19  1  0  0  0  0
 14 15  1  0  0  0  0
 14 16  1  0  0  0  0
 14 17  1  0  0  0  0
 11 12  1  0  0  0  0
 11 13  1  0  0  0  0
 11 14  1  0  0  0  0
  9 10  1  0  0  0  0
  9 11  1  0  0  0  0
  9 22  1  0  0  0  0
  7  8  1  0  0  0  0
  7  9  1  0  0  0  0
 26 27  1  0  0  0  0
 26 28  1  0  0  0  0
 26 29  1  0  0  0  0
 24 25  1  0  0  0  0
 24 26  1  0  0  0  0
M  END
$$$$
default_name
  -OEChem-02102213163D

 29 28  0     1  0  0  0  0  0999 V2000
   -3.3998   -3.6239    1.3678 H   0  0  0  0  0  0  0  0  0  0  0  0
   -3.3608   -2.6749    0.8348 C   0  0  0  0  0  0  0  0  0  0  0  0
   -4.0988   -1.9909    1.2498 H   0  0  0  0  0  0  0  0  0  0  0  0
   -3.5618   -2.8419   -0.2222 H   0  0  0  0  0  0  0  0  0  0  0  0
   -1.9818   -2.0809    0.9918 C   0  0  0  0  0  0  0  0  0  0  0  0
   -1.1288   -2.6669    1.6468 O   0  0  0  0  0  0  0  0  0  0  0  0
   -1.7648   -0.9089    0.3998 N   0  0  0  0  0  0  0  0  0  0  0  0
   -2.5238   -0.4719   -0.1032 H   0  0  0  0  0  0  0  0  0  0  0  0
   -0.4848   -0.1959    0.4138 C   0  0  1  0  0  0  0  0  0  0  0  0
    0.1386   -0.6144    1.2058 H   0  0  0  0  0  0  0  0  0  0  0  0
    0.2271   -0.4272   -0.9334 C   0  0  0  0  0  0  0  0  0  0  0  0
    1.1844    0.0978   -0.9105 H   0  0  0  0  0  0  0  0  0  0  0  0
    0.4255   -1.4933   -1.0533 H   0  0  0  0  0  0  0  0  0  0  0  0
   -0.5697    0.0705   -2.1519 C   0  0  0  0  0  0  0  0  0  0  0  0
   -0.5555   -0.6878   -2.9345 H   0  0  0  0  0  0  0  0  0  0  0  0
   -1.6035    0.2424   -1.8523 H   0  0  0  0  0  0  0  0  0  0  0  0
   -0.0181    1.3682   -2.7420 C   0  0  0  0  0  0  0  0  0  0  0  0
    0.9088    1.9854   -2.2516 O   0  0  0  0  0  0  0  0  0  0  0  0
   -0.5672    1.8395   -3.8405 N   0  0  0  0  0  0  0  0  0  0  0  0
   -0.1650    2.6940   -4.1848 H   0  0  0  0  0  0  0  0  0  0  0  0
   -1.3297    1.3705   -4.2859 H   0  0  0  0  0  0  0  0  0  0  0  0
   -0.7011    1.2952    0.7149 C   0  0  0  0  0  0  0  0  0  0  0  0
   -1.5917    1.9198    0.1415 O   0  0  0  0  0  0  0  0  0  0  0  0
    0.1191    1.8675    1.6055 N   0  0  0  0  0  0  0  0  0  0  0  0
    0.8092    1.2861    2.0537 H   0  0  0  0  0  0  0  0  0  0  0  0
    0.0509    3.2769    1.9894 C   0  0  0  0  0  0  0  0  0  0  0  0
   -0.9494    3.5076    2.3640 H   0  0  0  0  0  0  0  0  0  0  0  0
    0.7844    3.4956    2.7668 H   0  0  0  0  0  0  0  0  0  0  0  0
    0.2468    3.9058    1.1193 H   0  0  0  0  0  0  0  0  0  0  0  0
  5  6  2  0  0  0  0
  5  7  1  0  0  0  0
  2  3  1  0  0  0  0
  2  4  1  0  0  0  0
  2  5  1  0  0  0  0
  1  2  1  0  0  0  0
 22 23  2  0  0  0  0
 22 24  1  0  0  0  0
 19 20  1  0  0  0  0
 19 21  1  0  0  0  0
 17 18  2  0  0  0  0
 17 19  1  0  0  0  0
 14 15  1  0  0  0  0
 14 16  1  0  0  0  0
 14 17  1  0  0  0  0
 11 12  1  0  0  0  0
 11 13  1  0  0  0  0
 11 14  1  0  0  0  0
  9 10  1  0  0  0  0
  9 11  1  0  0  0  0
  9 22  1  0  0  0  0
  7  8  1  0  0  0  0
  7  9  1  0  0  0  0
 26 27  1  0  0  0  0
 26 28  1  0  0  0  0
 26 29  1  0  0  0  0
 24 25  1  0  0  0  0
 24 26  1  0  0  0  0
M  END
$$$$
default_name
  -OEChem-02102213163D

 29 28  0     1  0  0  0  0  0999 V2000
   -3.3998   -3.6239    1.3678 H   0  0  0  0  0  0  0  0  0  0  0  0
   -3.3608   -2.6749    0.8348 C   0  0  0  0  0  0  0  0  0  0  0  0
   -4.0988   -1.9909    1.2498 H   0  0  0  0  0  0  0  0  0  0  0  0
   -3.5618   -2.8419   -0.2222 H   0  0  0  0  0  0  0  0  0  0  0  0
   -1.9818   -2.0809    0.9918 C   0  0  0  0  0  0  0  0  0  0  0  0
   -1.1288   -2.6669    1.6468 O   0  0  0  0  0  0  0  0  0  0  0  0
   -1.7648   -0.9089    0.3998 N   0  0  0  0  0  0  0  0  0  0  0  0
   -2.5238   -0.4719   -0.1032 H   0  0  0  0  0  0  0  0  0  0  0  0
   -0.4848   -0.1959    0.4138 C   0  0  1  0  0  0  0  0  0  0  0  0
    0.1386   -0.6144    1.2058 H   0  0  0  0  0  0  0  0  0  0  0  0
    0.2271   -0.4272   -0.9334 C   0  0  0  0  0  0  0  0  0  0  0  0
    1.1844    0.0978   -0.9105 H   0  0  0  0  0  0  0  0  0  0  0  0
    0.4255   -1.4933   -1.0533 H   0  0  0  0  0  0  0  0  0  0  0  0
   -0.5697    0.0705   -2.1519 C   0  0  0  0  0  0  0  0  0  0  0  0
   -0.7834   -0.7657   -2.8172 H   0  0  0  0  0  0  0  0  0  0  0  0
   -1.5142    0.4925   -1.8086 H   0  0  0  0  0  0  0  0  0  0  0  0
    0.1691    1.1385   -2.9583 C   0  0  0  0  0  0  0  0  0  0  0  0
    1.2438    1.6030   -2.6269 O   0  0  0  0  0  0  0  0  0  0  0  0
   -0.3798    1.5734   -4.0718 N   0  0  0  0  0  0  0  0  0  0  0  0
    0.1490    2.2739   -4.5618 H   0  0  0  0  0  0  0  0  0  0  0  0
   -1.2602    1.2235   -4.3914 H   0  0  0  0  0  0  0  0  0  0  0  0
   -0.7011    1.2952    0.7149 C   0  0  0  0  0  0  0  0  0  0  0  0
   -1.5917    1.9198    0.1415 O   0  0  0  0  0  0  0  0  0  0  0  0
    0.1191    1.8675    1.6055 N   0  0  0  0  0  0  0  0  0  0  0  0
    0.8092    1.2861    2.0537 H   0  0  0  0  0  0  0  0  0  0  0  0
    0.0509    3.2769    1.9894 C   0  0  0  0  0  0  0  0  0  0  0  0
   -0.9494    3.5076    2.3640 H   0  0  0  0  0  0  0  0  0  0  0  0
    0.7844    3.4956    2.7668 H   0  0  0  0  0  0  0  0  0  0  0  0
    0.2468    3.9058    1.1193 H   0  0  0  0  0  0  0  0  0  0  0  0
  5  6  2  0  0  0  0
  5  7  1  0  0  0  0
  2  3  1  0  0  0  0
  2  4  1  0  0  0  0
  2  5  1  0  0  0  0
  1  2  1  0  0  0  0
 22 23  2  0  0  0  0
 22 24  1  0  0  0  0
 19 20  1  0  0  0  0
 19 21  1  0  0  0  0
 17 18  2  0  0  0  0
 17 19  1  0  0  0  0
 14 15  1  0  0  0  0
 14 16  1  0  0  0  0
 14 17  1  0  0  0  0
 11 12  1  0  0  0  0
 11 13  1  0  0  0  0
 11 14  1  0  0  0  0
  9 10  1  0  0  0  0
  9 11  1  0  0  0  0
  9 22  1  0  0  0  0
  7  8  1  0  0  0  0
  7  9  1  0  0  0  0
 26 27  1  0  0  0  0
 26 28  1  0  0  0  0
 26 29  1  0  0  0  0
 24 25  1  0  0  0  0
 24 26  1  0  0  0  0
M  END
$$$$
default_name
  -OEChem-02102213163D

 29 28  0     1  0  0  0  0  0999 V2000
   -3.3998   -3.6239    1.3678 H   0  0  0  0  0  0  0  0  0  0  0  0
   -3.3608   -2.6749    0.8348 C   0  0  0  0  0  0  0  0  0  0  0  0
   -4.0988   -1.9909    1.2498 H   0  0  0  0  0  0  0  0  0  0  0  0
   -3.5618   -2.8419   -0.2222 H   0  0  0  0  0  0  0  0  0  0  0  0
   -1.9818   -2.0809    0.9918 C   0  0  0  0  0  0  0  0  0  0  0  0
   -1.1288   -2.6669    1.6468 O   0  0  0  0  0  0  0  0  0  0  0  0
   -1.7648   -0.9089    0.3998 N   0  0  0  0  0  0  0  0  0  0  0  0
   -2.5238   -0.4719   -0.1032 H   0  0  0  0  0  0  0  0  0  0  0  0
   -0.4848   -0.1959    0.4138 C   0  0  1  0  0  0  0  0  0  0  0  0
    0.1386   -0.6144    1.2058 H   0  0  0  0  0  0  0  0  0  0  0  0
    0.2271   -0.4272   -0.9334 C   0  0  0  0  0  0  0  0  0  0  0  0
    1.1844    0.0978   -0.9105 H   0  0  0  0  0  0  0  0  0  0  0  0
    0.4255   -1.4933   -1.0533 H   0  0  0  0  0  0  0  0  0  0  0  0
   -0.5697    0.0705   -2.1519 C   0  0  0  0  0  0  0  0  0  0  0  0
   -1.0097   -0.7786   -2.6745 H   0  0  0  0  0  0  0  0  0  0  0  0
   -1.3731    0.7216   -1.8073 H   0  0  0  0  0  0  0  0  0  0  0  0
    0.2847    0.8492   -3.1520 C   0  0  0  0  0  0  0  0  0  0  0  0
    1.4575    1.1147   -2.9661 O   0  0  0  0  0  0  0  0  0  0  0  0
   -0.2726    1.2469   -4.2752 N   0  0  0  0  0  0  0  0  0  0  0  0
    0.3347    1.7533   -4.8958 H   0  0  0  0  0  0  0  0  0  0  0  0
   -1.2320    1.0532   -4.4794 H   0  0  0  0  0  0  0  0  0  0  0  0
   -0.7011    1.2952    0.7149 C   0  0  0  0  0  0  0  0  0  0  0  0
   -1.5917    1.9198    0.1415 O   0  0  0  0  0  0  0  0  0  0  0  0
    0.1191    1.8675    1.6055 N   0  0  0  0  0  0  0  0  0  0  0  0
    0.8092    1.2861    2.0537 H   0  0  0  0  0  0  0  0  0  0  0  0
    0.0509    3.2769    1.9894 C   0  0  0  0  0  0  0  0  0  0  0  0
   -0.9494    3.5076    2.3640 H   0  0  0  0  0  0  0  0  0  0  0  0
    0.7844    3.4956    2.7668 H   0  0  0  0  0  0  0  0  0  0  0  0
    0.2468    3.9058    1.1193 H   0  0  0  0  0  0  0  0  0  0  0  0
  5  6  2  0  0  0  0
  5  7  1  0  0  0  0
  2  3  1  0  0  0  0
  2  4  1  0  0  0  0
  2  5  1  0  0  0  0
  1  2  1  0  0  0  0
 22 23  2  0  0  0  0
 22 24  1  0  0  0  0
 19 20  1  0  0  0  0
 19 21  1  0  0  0  0
 17 18  2  0  0  0  0
 17 19  1  0  0  0  0
 14 15  1  0  0  0  0
 14 16  1  0  0  0  0
 14 17  1  0  0  0  0
 11 12  1  0  0  0  0
 11 13  1  0  0  0  0
 11 14  1  0  0  0  0
  9 10  1  0  0  0  0
  9 11  1  0  0  0  0
  9 22  1  0  0  0  0
  7  8  1  0  0  0  0
  7  9  1  0  0  0  0
 26 27  1  0  0  0  0
 26 28  1  0  0  0  0
 26 29  1  0  0  0  0
 24 25  1  0  0  0  0
 24 26  1  0  0  0  0
M  END
$$$$
default_name
  -OEChem-02102213163D

 29 28  0     1  0  0  0  0  0999 V2000
   -3.3998   -3.6239    1.3678 H   0  0  0  0  0  0  0  0  0  0  0  0
   -3.3608   -2.6749    0.8348 C   0  0  0  0  0  0  0  0  0  0  0  0
   -4.0988   -1.9909    1.2498 H   0  0  0  0  0  0  0  0  0  0  0  0
   -3.5618   -2.8419   -0.2222 H   0  0  0  0  0  0  0  0  0  0  0  0
   -1.9818   -2.0809    0.9918 C   0  0  0  0  0  0  0  0  0  0  0  0
   -1.1288   -2.6669    1.6468 O   0  0  0  0  0  0  0  0  0  0  0  0
   -1.7648   -0.9089    0.3998 N   0  0  0  0  0  0  0  0  0  0  0  0
   -2.5238   -0.4719   -0.1032 H   0  0  0  0  0  0  0  0  0  0  0  0
   -0.4848   -0.1959    0.4138 C   0  0  1  0  0  0  0  0  0  0  0  0
    0.1386   -0.6144    1.2058 H   0  0  0  0  0  0  0  0  0  0  0  0
    0.2271   -0.4272   -0.9334 C   0  0  0  0  0  0  0  0  0  0  0  0
    1.1844    0.0978   -0.9105 H   0  0  0  0  0  0  0  0  0  0  0  0
    0.4255   -1.4933   -1.0533 H   0  0  0  0  0  0  0  0  0  0  0  0
   -0.5697    0.0705   -2.1519 C   0  0  0  0  0  0  0  0  0  0  0  0
   -1.2190   -0.7255   -2.5160 H   0  0  0  0  0  0  0  0  0  0  0  0
   -1.1896    0.9142   -1.8486 H   0  0  0  0  0  0  0  0  0  0  0  0
    0.3208    0.5201   -3.3101 C   0  0  0  0  0  0  0  0  0  0  0  0
    1.5355    0.5537   -3.2462 O   0  0  0  0  0  0  0  0  0  0  0  0
   -0.2531    0.8824   -4.4369 N   0  0  0  0  0  0  0  0  0  0  0  0
    0.3794    1.1676   -5.1643 H   0  0  0  0  0  0  0  0  0  0  0  0
   -1.2471    0.8710   -4.5440 H   0  0  0  0  0  0  0  0  0  0  0  0
   -0.7011    1.2952    0.7149 C   0  0  0  0  0  0  0  0  0  0  0  0
   -1.5917    1.9198    0.1415 O   0  0  0  0  0  0  0  0  0  0  0  0
    0.1191    1.8675    1.6055 N   0  0  0  0  0  0  0  0  0  0  0  0
    0.8092    1.2861    2.0537 H   0  0  0  0  0  0  0  0  0  0  0  0
    0.0509    3.2769    1.9894 C   0  0  0  0  0  0  0  0  0  0  0  0
   -0.9494    3.5076    2.3640 H   0  0  0  0  0  0  0  0  0  0  0  0
    0.7844    3.4956    2.7668 H   0  0  0  0  0  0  0  0  0  0  0  0
    0.2468    3.9058    1.1193 H   0  0  0  0  0  0  0  0  0  0  0  0
  5  6  2  0  0  0  0
  5  7  1  0  0  0  0
  2  3  1  0  0  0  0
  2  4  1  0  0  0  0
  2  5  1  0  0  0  0
  1  2  1  0  0  0  0
 22 23  2  0  0  0  0
 22 24  1  0  0  0  0
 19 20  1  0  0  0  0
 19 21  1  0  0  0  0
 17 18  2  0  0  0  0
 17 19  1  0  0  0  0
 14 15  1  0  0  0  0
 14 16  1  0  0  0  0
 14 17  1  0  0  0  0
 11 12  1  0  0  0  0
 11 13  1  0  0  0  0
 11 14  1  0  0  0  0
  9 10  1  0  0  0  0
  9 11  1  0  0  0  0
  9 22  1  0  0  0  0
  7  8  1  0  0  0  0
  7  9  1  0  0  0  0
 26 27  1  0  0  0  0
 26 28  1  0  0  0  0
 26 29  1  0  0  0  0
 24 25  1  0  0  0  0
 24 26  1  0  0  0  0
M  END
$$$$
default_name
  -OEChem-02102213163D

 29 28  0     1  0  0  0  0  0999 V2000
   -3.3998   -3.6239    1.3678 H   0  0  0  0  0  0  0  0  0  0  0  0
   -3.3608   -2.6749    0.8348 C   0  0  0  0  0  0  0  0  0  0  0  0
   -4.0988   -1.9909    1.2498 H   0  0  0  0  0  0  0  0  0  0  0  0
   -3.5618   -2.8419   -0.2222 H   0  0  0  0  0  0  0  0  0  0  0  0
   -1.9818   -2.0809    0.9918 C   0  0  0  0  0  0  0  0  0  0  0  0
   -1.1288   -2.6669    1.6468 O   0  0  0  0  0  0  0  0  0  0  0  0
   -1.7648   -0.9089    0.3998 N   0  0  0  0  0  0  0  0  0  0  0  0
   -2.5238   -0.4719   -0.1032 H   0  0  0  0  0  0  0  0  0  0  0  0
   -0.4848   -0.1959    0.4138 C   0  0  1  0  0  0  0  0  0  0  0  0
    0.1386   -0.6144    1.2058 H   0  0  0  0  0  0  0  0  0  0  0  0
    0.2271   -0.4272   -0.9334 C   0  0  0  0  0  0  0  0  0  0  0  0
    1.1844    0.0978   -0.9105 H   0  0  0  0  0  0  0  0  0  0  0  0
    0.4255   -1.4933   -1.0533 H   0  0  0  0  0  0  0  0  0  0  0  0
   -0.5697    0.0705   -2.1519 C   0  0  0  0  0  0  0  0  0  0  0  0
   -1.3970   -0.6100   -2.3524 H   0  0  0  0  0  0  0  0  0  0  0  0
   -0.9764    1.0570   -1.9297 H   0  0  0  0  0  0  0  0  0  0  0  0
    0.2751    0.1737   -3.4217 C   0  0  0  0  0  0  0  0  0  0  0  0
    1.4724   -0.0417   -3.4481 O   0  0  0  0  0  0  0  0  0  0  0  0
   -0.3224    0.5045   -4.5458 N   0  0  0  0  0  0  0  0  0  0  0  0
    0.2800    0.5566   -5.3489 H   0  0  0  0  0  0  0  0  0  0  0  0
   -1.3044    0.6896   -4.5806 H   0  0  0  0  0  0  0  0  0  0  0  0
   -0.7011    1.2952    0.7149 C   0  0  0  0  0  0  0  0  0  0  0  0
   -1.5917    1.9198    0.1415 O   0  0  0  0  0  0  0  0  0  0  0  0
    0.1191    1.8675    1.6055 N   0  0  0  0  0  0  0  0  0  0  0  0
    0.8092    1.2861    2.0537 H   0  0  0  0  0  0  0  0  0  0  0  0
    0.0509    3.2769    1.9894 C   0  0  0  0  0  0  0  0  0  0  0  0
   -0.9494    3.5076    2.3640 H   0  0  0  0  0  0  0  0  0  0  0  0
    0.7844    3.4956    2.7668 H   0  0  0  0  0  0  0  0  0  0  0  0
    0.2468    3.9058    1.1193 H   0  0  0  0  0  0  0  0  0  0  0  0
  5  6  2  0  0  0  0
  5  7  1  0  0  0  0
  2  3  1  0  0  0  0
  2  4  1  0  0  0  0
  2  5  1  0  0  0  0
  1  2  1  0  0  0  0
 22 23  2  0  0  0  0
 22 24  1  0  0  0  0
 19 20  1  0  0  0  0
 19 21  1  0  0  0  0
 17 18  2  0  0  0  0
 17 19  1  0  0  0  0
 14 15  1  0  0  0  0
 14 16  1  0  0  0  0
 14 17  1  0  0  0  0
 11 12  1  0  0  0  0
 11 13  1  0  0  0  0
 11 14  1  0  0  0  0
  9 10  1  0  0  0  0
  9 11  1  0  0  0  0
  9 22  1  0  0  0  0
  7  8  1  0  0  0  0
  7  9  1  0  0  0  0
 26 27  1  0  0  0  0
 26 28  1  0  0  0  0
 26 29  1  0  0  0  0
 24 25  1  0  0  0  0
 24 26  1  0  0  0  0
M  END
$$$$
default_name
  -OEChem-02102213163D

 29 28  0     1  0  0  0  0  0999 V2000
   -3.3998   -3.6239    1.3678 H   0  0  0  0  0  0  0  0  0  0  0  0
   -3.3608   -2.6749    0.8348 C   0  0  0  0  0  0  0  0  0  0  0  0
   -4.0988   -1.9909    1.2498 H   0  0  0  0  0  0  0  0  0  0  0  0
   -3.5618   -2.8419   -0.2222 H   0  0  0  0  0  0  0  0  0  0  0  0
   -1.9818   -2.0809    0.9918 C   0  0  0  0  0  0  0  0  0  0  0  0
   -1.1288   -2.6669    1.6468 O   0  0  0  0  0  0  0  0  0  0  0  0
   -1.7648   -0.9089    0.3998 N   0  0  0  0  0  0  0  0  0  0  0  0
   -2.5238   -0.4719   -0.1032 H   0  0  0  0  0  0  0  0  0  0  0  0
   -0.4848   -0.1959    0.4138 C   0  0  1  0  0  0  0  0  0  0  0  0
    0.1386   -0.6144    1.2058 H   0  0  0  0  0  0  0  0  0  0  0  0
    0.2271   -0.4272   -0.9334 C   0  0  0  0  0  0  0  0  0  0  0  0
    1.2750   -0.1412   -0.8215 H   0  0  0  0  0  0  0  0  0  0  0  0
    0.1878   -1.4894   -1.1796 H   0  0  0  0  0  0  0  0  0  0  0  0
   -0.3729    0.3763   -2.1004 C   0  0  0  0  0  0  0  0  0  0  0  0
   -1.4209    0.1076   -2.2306 H   0  0  0  0  0  0  0  0  0  0  0  0
   -0.3124    1.4391   -1.8661 H   0  0  0  0  0  0  0  0  0  0  0  0
    0.3448    0.1352   -3.4283 C   0  0  0  0  0  0  0  0  0  0  0  0
    1.3368   -0.5611   -3.5360 O   0  0  0  0  0  0  0  0  0  0  0  0
   -0.1378    0.7024   -4.5126 N   0  0  0  0  0  0  0  0  0  0  0  0
    0.3723    0.5095   -5.3570 H   0  0  0  0  0  0  0  0  0  0  0  0
   -0.9519    1.2819   -4.4807 H   0  0  0  0  0  0  0  0  0  0  0  0
   -0.7011    1.2952    0.7149 C   0  0  0  0  0  0  0  0  0  0  0  0
   -1.5917    1.9198    0.1415 O   0  0  0  0  0  0  0  0  0  0  0  0
    0.1191    1.8675    1.6055 N   0  0  0  0  0  0  0  0  0  0  0  0
    0.8092    1.2861    2.0537 H   0  0  0  0  0  0  0  0  0  0  0  0
    0.0509    3.2769    1.9894 C   0  0  0  0  0  0  0  0  0  0  0  0
   -0.9494    3.5076    2.3640 H   0  0  0  0  0  0  0  0  0  0  0  0
    0.7844    3.4956    2.7668 H   0  0  0  0  0  0  0  0  0  0  0  0
    0.2468    3.9058    1.1193 H   0  0  0  0  0  0  0  0  0  0  0  0
  5  6  2  0  0  0  0
  5  7  1  0  0  0  0
  2  3  1  0  0  0  0
  2  4  1  0  0  0  0
  2  5  1  0  0  0  0
  1  2  1  0  0  0  0
 22 23  2  0  0  0  0
 22 24  1  0  0  0  0
 19 20  1  0  0  0  0
 19 21  1  0  0  0  0
 17 18  2  0  0  0  0
 17 19  1  0  0  0  0
 14 15  1  0  0  0  0
 14 16  1  0  0  0  0
 14 17  1  0  0  0  0
 11 12  1  0  0  0  0
 11 13  1  0  0  0  0
 11 14  1  0  0  0  0
  9 10  1  0  0  0  0
  9 11  1  0  0  0  0
  9 22  1  0  0  0  0
  7  8  1  0  0  0  0
  7  9  1  0  0  0  0
 26 27  1  0  0  0  0
 26 28  1  0  0  0  0
 26 29  1  0  0  0  0
 24 25  1  0  0  0  0
 24 26  1  0  0  0  0
M  END
$$$$
default_name
  -OEChem-02102213163D

 29 28  0     1  0  0  0  0  0999 V2000
   -3.3998   -3.6239    1.3678 H   0  0  0  0  0  0  0  0  0  0  0  0
   -3.3608   -2.6749    0.8348 C   0  0  0  0  0  0  0  0  0  0  0  0
   -4.0988   -1.9909    1.2498 H   0  0  0  0  0  0  0  0  0  0  0  0
   -3.5618   -2.8419   -0.2222 H   0  0  0  0  0  0  0  0  0  0  0  0
   -1.9818   -2.0809    0.9918 C   0  0  0  0  0  0  0  0  0  0  0  0
   -1.1288   -2.6669    1.6468 O   0  0  0  0  0  0  0  0  0  0  0  0
   -1.7648   -0.9089    0.3998 N   0  0  0  0  0  0  0  0  0  0  0  0
   -2.5238   -0.4719   -0.1032 H   0  0  0  0  0  0  0  0  0  0  0  0
   -0.4848   -0.1959    0.4138 C   0  0  1  0  0  0  0  0  0  0  0  0
    0.1386   -0.6144    1.2058 H   0  0  0  0  0  0  0  0  0  0  0  0
    0.2271   -0.4272   -0.9334 C   0  0  0  0  0  0  0  0  0  0  0  0
    1.2750   -0.1412   -0.8215 H   0  0  0  0  0  0  0  0  0  0  0  0
    0.1878   -1.4894   -1.1796 H   0  0  0  0  0  0  0  0  0  0  0  0
   -0.3729    0.3763   -2.1004 C   0  0  0  0  0  0  0  0  0  0  0  0
   -1.4605    0.3159   -2.0668 H   0  0  0  0  0  0  0  0  0  0  0  0
   -0.0789    1.4210   -1.9986 H   0  0  0  0  0  0  0  0  0  0  0  0
    0.0855   -0.1208   -3.4713 C   0  0  0  0  0  0  0  0  0  0  0  0
    0.9014   -1.0108   -3.6218 O   0  0  0  0  0  0  0  0  0  0  0  0
   -0.4332    0.4356   -4.5444 N   0  0  0  0  0  0  0  0  0  0  0  0
   -0.0970    0.0700   -5.4184 H   0  0  0  0  0  0  0  0  0  0  0  0
   -1.1094    1.1690   -4.4775 H   0  0  0  0  0  0  0  0  0  0  0  0
   -0.7011    1.2952    0.7149 C   0  0  0  0  0  0  0  0  0  0  0  0
   -1.5917    1.9198    0.1415 O   0  0  0  0  0  0  0  0  0  0  0  0
    0.1191    1.8675    1.6055 N   0  0  0  0  0  0  0  0  0  0  0  0
    0.8092    1.2861    2.0537 H   0  0  0  0  0  0  0  0  0  0  0  0
    0.0509    3.2769    1.9894 C   0  0  0  0  0  0  0  0  0  0  0  0
   -0.9494    3.5076    2.3640 H   0  0  0  0  0  0  0  0  0  0  0  0
    0.7844    3.4956    2.7668 H   0  0  0  0  0  0  0  0  0  0  0  0
    0.2468    3.9058    1.1193 H   0  0  0  0  0  0  0  0  0  0  0  0
  5  6  2  0  0  0  0
  5  7  1  0  0  0  0
  2  3  1  0  0  0  0
  2  4  1  0  0  0  0
  2  5  1  0  0  0  0
  1  2  1  0  0  0  0
 22 23  2  0  0  0  0
 22 24  1  0  0  0  0
 19 20  1  0  0  0  0
 19 21  1  0  0  0  0
 17 18  2  0  0  0  0
 17 19  1  0  0  0  0
 14 15  1  0  0  0  0
 14 16  1  0  0  0  0
 14 17  1  0  0  0  0
 11 12  1  0  0  0  0
 11 13  1  0  0  0  0
 11 14  1  0  0  0  0
  9 10  1  0  0  0  0
  9 11  1  0  0  0  0
  9 22  1  0  0  0  0
  7  8  1  0  0  0  0
  7  9  1  0  0  0  0
 26 27  1  0  0  0  0
 26 28  1  0  0  0  0
 26 29  1  0  0  0  0
 24 25  1  0  0  0  0
 24 26  1  0  0  0  0
M  END
$$$$
default_name
  -OEChem-02102213163D

 29 28  0     1  0  0  0  0  0999 V2000
   -3.3998   -3.6239    1.3678 H   0  0  0  0  0  0  0  0  0  0  0  0
   -3.3608   -2.6749    0.8348 C   0  0  0  0  0  0  0  0  0  0  0  0
   -4.0988   -1.9909    1.2498 H   0  0  0  0  0  0  0  0  0  0  0  0
   -3.5618   -2.8419   -0.2222 H   0  0  0  0  0  0  0  0  0  0  0  0
   -1.9818   -2.0809    0.9918 C   0  0  0  0  0  0  0  0  0  0  0  0
   -1.1288   -2.6669    1.6468 O   0  0  0  0  0  0  0  0  0  0  0  0
   -1.7648   -0.9089    0.3998 N   0  0  0  0  0  0  0  0  0  0  0  0
   -2.5238   -0.4719   -0.1032 H   0  0  0  0  0  0  0  0  0  0  0  0
   -0.4848   -0.1959    0.4138 C   0  0  1  0  0  0  0  0  0  0  0  0
    0.1386   -0.6144    1.2058 H   0  0  0  0  0  0  0  0  0  0  0  0
    0.2271   -0.4272   -0.9334 C   0  0  0  0  0  0  0  0  0  0  0  0
    1.2750   -0.1412   -0.8215 H   0  0  0  0  0  0  0  0  0  0  0  0
    0.1878   -1.4894   -1.1796 H   0  0  0  0  0  0  0  0  0  0  0  0
   -0.3729    0.3763   -2.1004 C   0  0  0  0  0  0  0  0  0  0  0  0
   -1.4356    0.5413   -1.9244 H   0  0  0  0  0  0  0  0  0  0  0  0
    0.1252    1.3442   -2.1564 H   0  0  0  0  0  0  0  0  0  0  0  0
   -0.2210   -0.3215   -3.4519 C   0  0  0  0  0  0  0  0  0  0  0  0
    0.3810   -1.3685   -3.6005 O   0  0  0  0  0  0  0  0  0  0  0  0
   -0.7752    0.2327   -4.5083 N   0  0  0  0  0  0  0  0  0  0  0  0
   -0.6449   -0.2686   -5.3698 H   0  0  0  0  0  0  0  0  0  0  0  0
   -1.2833    1.0913   -4.4416 H   0  0  0  0  0  0  0  0  0  0  0  0
   -0.7011    1.2952    0.7149 C   0  0  0  0  0  0  0  0  0  0  0  0
   -1.5917    1.9198    0.1415 O   0  0  0  0  0  0  0  0  0  0  0  0
    0.1191    1.8675    1.6055 N   0  0  0  0  0  0  0  0  0  0  0  0
    0.8092    1.2861    2.0537 H   0  0  0  0  0  0  0  0  0  0  0  0
    0.0509    3.2769    1.9894 C   0  0  0  0  0  0  0  0  0  0  0  0
   -0.9494    3.5076    2.3640 H   0  0  0  0  0  0  0  0  0  0  0  0
    0.7844    3.4956    2.7668 H   0  0  0  0  0  0  0  0  0  0  0  0
    0.2468    3.9058    1.1193 H   0  0  0  0  0  0  0  0  0  0  0  0
  5  6  2  0  0  0  0
  5  7  1  0  0  0  0
  2  3  1  0  0  0  0
  2  4  1  0  0  0  0
  2  5  1  0  0  0  0
  1  2  1  0  0  0  0
 22 23  2  0  0  0  0
 22 24  1  0  0  0  0
 19 20  1  0  0  0  0
 19 21  1  0  0  0  0
 17 18  2  0  0  0  0
 17 19  1  0  0  0  0
 14 15  1  0  0  0  0
 14 16  1  0  0  0  0
 14 17  1  0  0  0  0
 11 12  1  0  0  0  0
 11 13  1  0  0  0  0
 11 14  1  0  0  0  0
  9 10  1  0  0  0  0
  9 11  1  0  0  0  0
  9 22  1  0  0  0  0
  7  8  1  0  0  0  0
  7  9  1  0  0  0  0
 26 27  1  0  0  0  0
 26 28  1  0  0  0  0
 26 29  1  0  0  0  0
 24 25  1  0  0  0  0
 24 26  1  0  0  0  0
M  END
$$$$
default_name
  -OEChem-02102213163D

 29 28  0     1  0  0  0  0  0999 V2000
   -3.3998   -3.6239    1.3678 H   0  0  0  0  0  0  0  0  0  0  0  0
   -3.3608   -2.6749    0.8348 C   0  0  0  0  0  0  0  0  0  0  0  0
   -4.0988   -1.9909    1.2498 H   0  0  0  0  0  0  0  0  0  0  0  0
   -3.5618   -2.8419   -0.2222 H   0  0  0  0  0  0  0  0  0  0  0  0
   -1.9818   -2.0809    0.9918 C   0  0  0  0  0  0  0  0  0  0  0  0
   -1.1288   -2.6669    1.6468 O   0  0  0  0  0  0  0  0  0  0  0  0
   -1.7648   -0.9089    0.3998 N   0  0  0  0  0  0  0  0  0  0  0  0
   -2.5238   -0.4719   -0.1032 H   0  0  0  0  0  0  0  0  0  0  0  0
   -0.4848   -0.1959    0.4138 C   0  0  1  0  0  0  0  0  0  0  0  0
    0.1386   -0.6144    1.2058 H   0  0  0  0  0  0  0  0  0  0  0  0
    0.2271   -0.4272   -0.9334 C   0  0  0  0  0  0  0  0  0  0  0  0
    1.2750   -0.1412   -0.8215 H   0  0  0  0  0  0  0  0  0  0  0  0
    0.1878   -1.4894   -1.1796 H   0  0  0  0  0  0  0  0  0  0  0  0
   -0.3729    0.3763   -2.1004 C   0  0  0  0  0  0  0  0  0  0  0  0
   -1.3481    0.7686   -1.8128 H   0  0  0  0  0  0  0  0  0  0  0  0
    0.2859    1.2141   -2.3286 H   0  0  0  0  0  0  0  0  0  0  0  0
   -0.5538   -0.4532   -3.3715 C   0  0  0  0  0  0  0  0  0  0  0  0
   -0.1891   -1.6096   -3.4734 O   0  0  0  0  0  0  0  0  0  0  0  0
   -1.1405    0.1075   -4.4067 N   0  0  0  0  0  0  0  0  0  0  0  0
   -1.2340   -0.4832   -5.2147 H   0  0  0  0  0  0  0  0  0  0  0  0
   -1.4616    1.0539   -4.3757 H   0  0  0  0  0  0  0  0  0  0  0  0
   -0.7011    1.2952    0.7149 C   0  0  0  0  0  0  0  0  0  0  0  0
   -1.5917    1.9198    0.1415 O   0  0  0  0  0  0  0  0  0  0  0  0
    0.1191    1.8675    1.6055 N   0  0  0  0  0  0  0  0  0  0  0  0
    0.8092    1.2861    2.0537 H   0  0  0  0  0  0  0  0  0  0  0  0
    0.0509    3.2769    1.9894 C   0  0  0  0  0  0  0  0  0  0  0  0
   -0.9494    3.5076    2.3640 H   0  0  0  0  0  0  0  0  0  0  0  0
    0.7844    3.4956    2.7668 H   0  0  0  0  0  0  0  0  0  0  0  0
    0.2468    3.9058    1.1193 H   0  0  0  0  0  0  0  0  0  0  0  0
  5  6  2  0  0  0  0
  5  7  1  0  0  0  0
  2  3  1  0  0  0  0
  2  4  1  0  0  0  0
  2  5  1  0  0  0  0
  1  2  1  0  0  0  0
 22 23  2  0  0  0  0
 22 24  1  0  0  0  0
 19 20  1  0  0  0  0
 19 21  1  0  0  0  0
 17 18  2  0  0  0  0
 17 19  1  0  0  0  0
 14 15  1  0  0  0  0
 14 16  1  0  0  0  0
 14 17  1  0  0  0  0
 11 12  1  0  0  0  0
 11 13  1  0  0  0  0
 11 14  1  0  0  0  0
  9 10  1  0  0  0  0
  9 11  1  0  0  0  0
  9 22  1  0  0  0  0
  7  8  1  0  0  0  0
  7  9  1  0  0  0  0
 26 27  1  0  0  0  0
 26 28  1  0  0  0  0
 26 29  1  0  0  0  0
 24 25  1  0  0  0  0
 24 26  1  0  0  0  0
M  END
$$$$
default_name
  -OEChem-02102213163D

 29 28  0     1  0  0  0  0  0999 V2000
   -3.3998   -3.6239    1.3678 H   0  0  0  0  0  0  0  0  0  0  0  0
   -3.3608   -2.6749    0.8348 C   0  0  0  0  0  0  0  0  0  0  0  0
   -4.0988   -1.9909    1.2498 H   0  0  0  0  0  0  0  0  0  0  0  0
   -3.5618   -2.8419   -0.2222 H   0  0  0  0  0  0  0  0  0  0  0  0
   -1.9818   -2.0809    0.9918 C   0  0  0  0  0  0  0  0  0  0  0  0
   -1.1288   -2.6669    1.6468 O   0  0  0  0  0  0  0  0  0  0  0  0
   -1.7648   -0.9089    0.3998 N   0  0  0  0  0  0  0  0  0  0  0  0
   -2.5238   -0.4719   -0.1032 H   0  0  0  0  0  0  0  0  0  0  0  0
   -0.4848   -0.1959    0.4138 C   0  0  1  0  0  0  0  0  0  0  0  0
    0.1386   -0.6144    1.2058 H   0  0  0  0  0  0  0  0  0  0  0  0
    0.2271   -0.4272   -0.9334 C   0  0  0  0  0  0  0  0  0  0  0  0
    1.2750   -0.1412   -0.8215 H   0  0  0  0  0  0  0  0  0  0  0  0
    0.1878   -1.4894   -1.1796 H   0  0  0  0  0  0  0  0  0  0  0  0
   -0.3729    0.3763   -2.1004 C   0  0  0  0  0  0  0  0  0  0  0  0
   -1.2039    0.9822   -1.7399 H   0  0  0  0  0  0  0  0  0  0  0  0
    0.3924    1.0395   -2.5036 H   0  0  0  0  0  0  0  0  0  0  0  0
   -0.8902   -0.5070   -3.2356 C   0  0  0  0  0  0  0  0  0  0  0  0
   -0.7699   -1.7178   -3.2493 O   0  0  0  0  0  0  0  0  0  0  0  0
   -1.5041    0.0686   -4.2465 N   0  0  0  0  0  0  0  0  0  0  0  0
   -1.8242   -0.5591   -4.9635 H   0  0  0  0  0  0  0  0  0  0  0  0
   -1.6323    1.0594   -4.2841 H   0  0  0  0  0  0  0  0  0  0  0  0
   -0.7011    1.2952    0.7149 C   0  0  0  0  0  0  0  0  0  0  0  0
   -1.5917    1.9198    0.1415 O   0  0  0  0  0  0  0  0  0  0  0  0
    0.1191    1.8675    1.6055 N   0  0  0  0  0  0  0  0  0  0  0  0
    0.8092    1.2861    2.0537 H   0  0  0  0  0  0  0  0  0  0  0  0
    0.0509    3.2769    1.9894 C   0  0  0  0  0  0  0  0  0  0  0  0
   -0.9494    3.5076    2.3640 H   0  0  0  0  0  0  0  0  0  0  0  0
    0.7844    3.4956    2.7668 H   0  0  0  0  0  0  0  0  0  0  0  0
    0.2468    3.9058    1.1193 H   0  0  0  0  0  0  0  0  0  0  0  0
  5  6  2  0  0  0  0
  5  7  1  0  0  0  0
  2  3  1  0  0  0  0
  2  4  1  0  0  0  0
  2  5  1  0  0  0  0
  1  2  1  0  0  0  0
 22 23  2  0  0  0  0
 22 24  1  0  0  0  0
 19 20  1  0  0  0  0
 19 21  1  0  0  0  0
 17 18  2  0  0  0  0
 17 19  1  0  0  0  0
 14 15  1  0  0  0  0
 14 16  1  0  0  0  0
 14 17  1  0  0  0  0
 11 12  1  0  0  0  0
 11 13  1  0  0  0  0
 11 14  1  0  0  0  0
  9 10  1  0  0  0  0
  9 11  1  0  0  0  0
  9 22  1  0  0  0  0
  7  8  1  0  0  0  0
  7  9  1  0  0  0  0
 26 27  1  0  0  0  0
 26 28  1  0  0  0  0
 26 29  1  0  0  0  0
 24 25  1  0  0  0  0
 24 26  1  0  0  0  0
M  END
$$$$
default_name
  -OEChem-02102213163D

 29 28  0     1  0  0  0  0  0999 V2000
   -3.3998   -3.6239    1.3678 H   0  0  0  0  0  0  0  0  0  0  0  0
   -3.3608   -2.6749    0.8348 C   0  0  0  0  0  0  0  0  0  0  0  0
   -4.0988   -1.9909    1.2498 H   0  0  0  0  0  0  0  0  0  0  0  0
   -3.5618   -2.8419   -0.2222 H   0  0  0  0  0  0  0  0  0  0  0  0
   -1.9818   -2.0809    0.9918 C   0  0  0  0  0  0  0  0  0  0  0  0
   -1.1288   -2.6669    1.6468 O   0  0  0  0  0  0  0  0  0  0  0  0
   -1.7648   -0.9089    0.3998 N   0  0  0  0  0  0  0  0  0  0  0  0
   -2.5238   -0.4719   -0.1032 H   0  0  0  0  0  0  0  0  0  0  0  0
   -0.4848   -0.1959    0.4138 C   0  0  1  0  0  0  0  0  0  0  0  0
    0.1386   -0.6144    1.2058 H   0  0  0  0  0  0  0  0  0  0  0  0
    0.2271   -0.4272   -0.9334 C   0  0  0  0  0  0  0  0  0  0  0  0
    1.2750   -0.1412   -0.8215 H   0  0  0  0  0  0  0  0  0  0  0  0
    0.1878   -1.4894   -1.1796 H   0  0  0  0  0  0  0  0  0  0  0  0
   -0.3729    0.3763   -2.1004 C   0  0  0  0  0  0  0  0  0  0  0  0
   -1.0128    1.1676   -1.7105 H   0  0  0  0  0  0  0  0  0  0  0  0
    0.4373    0.8323   -2.6694 H   0  0  0  0  0  0  0  0  0  0  0  0
   -1.2074   -0.4792   -3.0533 C   0  0  0  0  0  0  0  0  0  0  0  0
   -1.3218   -1.6856   -2.9434 O   0  0  0  0  0  0  0  0  0  0  0  0
   -1.8414    0.1185   -4.0387 N   0  0  0  0  0  0  0  0  0  0  0  0
   -2.3752   -0.4913   -4.6335 H   0  0  0  0  0  0  0  0  0  0  0  0
   -1.7838    1.1076   -4.1731 H   0  0  0  0  0  0  0  0  0  0  0  0
   -0.7011    1.2952    0.7149 C   0  0  0  0  0  0  0  0  0  0  0  0
   -1.5917    1.9198    0.1415 O   0  0  0  0  0  0  0  0  0  0  0  0
    0.1191    1.8675    1.6055 N   0  0  0  0  0  0  0  0  0  0  0  0
    0.8092    1.2861    2.0537 H   0  0  0  0  0  0  0  0  0  0  0  0
    0.0509    3.2769    1.9894 C   0  0  0  0  0  0  0  0  0  0  0  0
   -0.9494    3.5076    2.3640 H   0  0  0  0  0  0  0  0  0  0  0  0
    0.7844    3.4956    2.7668 H   0  0  0  0  0  0  0  0  0  0  0  0
    0.2468    3.9058    1.1193 H   0  0  0  0  0  0  0  0  0  0  0  0
  5  6  2  0  0  0  0
  5  7  1  0  0  0  0
  2  3  1  0  0  0  0
  2  4  1  0  0  0  0
  2  5  1  0  0  0  0
  1  2  1  0  0  0  0
 22 23  2  0  0  0  0
 22 24  1  0  0  0  0
 19 20  1  0  0  0  0
 19 21  1  0  0  0  0
 17 18  2  0  0  0  0
 17 19  1  0  0  0  0
 14 15  1  0  0  0  0
 14 16  1  0  0  0  0
 14 17  1  0  0  0  0
 11 12  1  0  0  0  0
 11 13  1  0  0  0  0
 11 14  1  0  0  0  0
  9 10  1  0  0  0  0
  9 11  1  0  0  0  0
  9 22  1  0  0  0  0
  7  8  1  0  0  0  0
  7  9  1  0  0  0  0
 26 27  1  0  0  0  0
 26 28  1  0  0  0  0
 26 29  1  0  0  0  0
 24 25  1  0  0  0  0
 24 26  1  0  0  0  0
M  END
$$$$
default_name
  -OEChem-02102213163D

 29 28  0     1  0  0  0  0  0999 V2000
   -3.3998   -3.6239    1.3678 H   0  0  0  0  0  0  0  0  0  0  0  0
   -3.3608   -2.6749    0.8348 C   0  0  0  0  0  0  0  0  0  0  0  0
   -4.0988   -1.9909    1.2498 H   0  0  0  0  0  0  0  0  0  0  0  0
   -3.5618   -2.8419   -0.2222 H   0  0  0  0  0  0  0  0  0  0  0  0
   -1.9818   -2.0809    0.9918 C   0  0  0  0  0  0  0  0  0  0  0  0
   -1.1288   -2.6669    1.6468 O   0  0  0  0  0  0  0  0  0  0  0  0
   -1.7648   -0.9089    0.3998 N   0  0  0  0  0  0  0  0  0  0  0  0
   -2.5238   -0.4719   -0.1032 H   0  0  0  0  0  0  0  0  0  0  0  0
   -0.4848   -0.1959    0.4138 C   0  0  1  0  0  0  0  0  0  0  0  0
    0.1386   -0.6144    1.2058 H   0  0  0  0  0  0  0  0  0  0  0  0
    0.2271   -0.4272   -0.9334 C   0  0  0  0  0  0  0  0  0  0  0  0
    1.2750   -0.1412   -0.8215 H   0  0  0  0  0  0  0  0  0  0  0  0
    0.1878   -1.4894   -1.1796 H   0  0  0  0  0  0  0  0  0  0  0  0
   -0.3729    0.3763   -2.1004 C   0  0  0  0  0  0  0  0  0  0  0  0
   -0.7878    1.3122   -1.7266 H   0  0  0  0  0  0  0  0  0  0  0  0
    0.4176    0.6066   -2.8146 H   0  0  0  0  0  0  0  0  0  0  0  0
   -1.4837   -0.3717   -2.8373 C   0  0  0  0  0  0  0  0  0  0  0  0
   -1.8073   -1.5154   -2.5766 O   0  0  0  0  0  0  0  0  0  0  0  0
   -2.1294    0.2539   -3.7975 N   0  0  0  0  0  0  0  0  0  0  0  0
   -2.8496   -0.2843   -4.2471 H   0  0  0  0  0  0  0  0  0  0  0  0
   -1.9056    1.1950   -4.0503 H   0  0  0  0  0  0  0  0  0  0  0  0
   -0.7011    1.2952    0.7149 C   0  0  0  0  0  0  0  0  0  0  0  0
   -1.5917    1.9198    0.1415 O   0  0  0  0  0  0  0  0  0  0  0  0
    0.1191    1.8675    1.6055 N   0  0  0  0  0  0  0  0  0  0  0  0
    0.8092    1.2861    2.0537 H   0  0  0  0  0  0  0  0  0  0  0  0
    0.0509    3.2769    1.9894 C   0  0  0  0  0  0  0  0  0  0  0  0
   -0.9494    3.5076    2.3640 H   0  0  0  0  0  0  0  0  0  0  0  0
    0.7844    3.4956    2.7668 H   0  0  0  0  0  0  0  0  0  0  0  0
    0.2468    3.9058    1.1193 H   0  0  0  0  0  0  0  0  0  0  0  0
  5  6  2  0  0  0  0
  5  7  1  0  0  0  0
  2  3  1  0  0  0  0
  2  4  1  0  0  0  0
  2  5  1  0  0  0  0
  1  2  1  0  0  0  0
 22 23  2  0  0  0  0
 22 24  1  0  0  0  0
 19 20  1  0  0  0  0
 19 21  1  0  0  0  0
 17 18  2  0  0  0  0
 17 19  1  0  0  0  0
 14 15  1  0  0  0  0
 14 16  1  0  0  0  0
 14 17  1  0  0  0  0
 11 12  1  0  0  0  0
 11 13  1  0  0  0  0
 11 14  1  0  0  0  0
  9 10  1  0  0  0  0
  9 11  1  0  0  0  0
  9 22  1  0  0  0  0
  7  8  1  0  0  0  0
  7  9  1  0  0  0  0
 26 27  1  0  0  0  0
 26 28  1  0  0  0  0
 26 29  1  0  0  0  0
 24 25  1  0  0  0  0
 24 26  1  0  0  0  0
M  END
$$$$
default_name
  -OEChem-02102213163D

 29 28  0     1  0  0  0  0  0999 V2000
   -3.3998   -3.6239    1.3678 H   0  0  0  0  0  0  0  0  0  0  0  0
   -3.3608   -2.6749    0.8348 C   0  0  0  0  0  0  0  0  0  0  0  0
   -4.0988   -1.9909    1.2498 H   0  0  0  0  0  0  0  0  0  0  0  0
   -3.5618   -2.8419   -0.2222 H   0  0  0  0  0  0  0  0  0  0  0  0
   -1.9818   -2.0809    0.9918 C   0  0  0  0  0  0  0  0  0  0  0  0
   -1.1288   -2.6669    1.6468 O   0  0  0  0  0  0  0  0  0  0  0  0
   -1.7648   -0.9089    0.3998 N   0  0  0  0  0  0  0  0  0  0  0  0
   -2.5238   -0.4719   -0.1032 H   0  0  0  0  0  0  0  0  0  0  0  0
   -0.4848   -0.1959    0.4138 C   0  0  1  0  0  0  0  0  0  0  0  0
    0.1386   -0.6144    1.2058 H   0  0  0  0  0  0  0  0  0  0  0  0
    0.2271   -0.4272   -0.9334 C   0  0  0  0  0  0  0  0  0  0  0  0
    1.2750   -0.1412   -0.8215 H   0  0  0  0  0  0  0  0  0  0  0  0
    0.1878   -1.4894   -1.1796 H   0  0  0  0  0  0  0  0  0  0  0  0
   -0.3729    0.3763   -2.1004 C   0  0  0  0  0  0  0  0  0  0  0  0
   -0.5444    1.4060   -1.7872 H   0  0  0  0  0  0  0  0  0  0  0  0
    0.3346    0.3778   -2.9295 H   0  0  0  0  0  0  0  0  0  0  0  0
   -1.7003   -0.1918   -2.6020 C   0  0  0  0  0  0  0  0  0  0  0  0
   -2.1932   -1.2186   -2.1738 O   0  0  0  0  0  0  0  0  0  0  0  0
   -2.3483    0.4655   -3.5392 N   0  0  0  0  0  0  0  0  0  0  0  0
   -3.2149    0.0477   -3.8307 H   0  0  0  0  0  0  0  0  0  0  0  0
   -1.9895    1.3157   -3.9240 H   0  0  0  0  0  0  0  0  0  0  0  0
   -0.7011    1.2952    0.7149 C   0  0  0  0  0  0  0  0  0  0  0  0
   -1.5917    1.9198    0.1415 O   0  0  0  0  0  0  0  0  0  0  0  0
    0.1191    1.8675    1.6055 N   0  0  0  0  0  0  0  0  0  0  0  0
    0.8092    1.2861    2.0537 H   0  0  0  0  0  0  0  0  0  0  0  0
    0.0509    3.2769    1.9894 C   0  0  0  0  0  0  0  0  0  0  0  0
   -0.9494    3.5076    2.3640 H   0  0  0  0  0  0  0  0  0  0  0  0
    0.7844    3.4956    2.7668 H   0  0  0  0  0  0  0  0  0  0  0  0
    0.2468    3.9058    1.1193 H   0  0  0  0  0  0  0  0  0  0  0  0
  5  6  2  0  0  0  0
  5  7  1  0  0  0  0
  2  3  1  0  0  0  0
  2  4  1  0  0  0  0
  2  5  1  0  0  0  0
  1  2  1  0  0  0  0
 22 23  2  0  0  0  0
 22 24  1  0  0  0  0
 19 20  1  0  0  0  0
 19 21  1  0  0  0  0
 17 18  2  0  0  0  0
 17 19  1  0  0  0  0
 14 15  1  0  0  0  0
 14 16  1  0  0  0  0
 14 17  1  0  0  0  0
 11 12  1  0  0  0  0
 11 13  1  0  0  0  0
 11 14  1  0  0  0  0
  9 10  1  0  0  0  0
  9 11  1  0  0  0  0
  9 22  1  0  0  0  0
  7  8  1  0  0  0  0
  7  9  1  0  0  0  0
 26 27  1  0  0  0  0
 26 28  1  0  0  0  0
 26 29  1  0  0  0  0
 24 25  1  0  0  0  0
 24 26  1  0  0  0  0
M  END
$$$$
default_name
  -OEChem-02102213163D

 29 28  0     1  0  0  0  0  0999 V2000
   -3.3998   -3.6239    1.3678 H   0  0  0  0  0  0  0  0  0  0  0  0
   -3.3608   -2.6749    0.8348 C   0  0  0  0  0  0  0  0  0  0  0  0
   -4.0988   -1.9909    1.2498 H   0  0  0  0  0  0  0  0  0  0  0  0
   -3.5618   -2.8419   -0.2222 H   0  0  0  0  0  0  0  0  0  0  0  0
   -1.9818   -2.0809    0.9918 C   0  0  0  0  0  0  0  0  0  0  0  0
   -1.1288   -2.6669    1.6468 O   0  0  0  0  0  0  0  0  0  0  0  0
   -1.7648   -0.9089    0.3998 N   0  0  0  0  0  0  0  0  0  0  0  0
   -2.5238   -0.4719   -0.1032 H   0  0  0  0  0  0  0  0  0  0  0  0
   -0.4848   -0.1959    0.4138 C   0  0  1  0  0  0  0  0  0  0  0  0
    0.1386   -0.6144    1.2058 H   0  0  0  0  0  0  0  0  0  0  0  0
    0.2271   -0.4272   -0.9334 C   0  0  0  0  0  0  0  0  0  0  0  0
    1.2750   -0.1412   -0.8215 H   0  0  0  0  0  0  0  0  0  0  0  0
    0.1878   -1.4894   -1.1796 H   0  0  0  0  0  0  0  0  0  0  0  0
   -0.3729    0.3763   -2.1004 C   0  0  0  0  0  0  0  0  0  0  0  0
   -0.2989    1.4427   -1.8881 H   0  0  0  0  0  0  0  0  0  0  0  0
    0.1940    0.1615   -3.0062 H   0  0  0  0  0  0  0  0  0  0  0  0
   -1.8424    0.0482   -2.3637 C   0  0  0  0  0  0  0  0  0  0  0  0
   -2.4533   -0.8156   -1.7626 O   0  0  0  0  0  0  0  0  0  0  0  0
   -2.4833    0.7390   -3.2815 N   0  0  0  0  0  0  0  0  0  0  0  0
   -3.4463    0.4822   -3.4125 H   0  0  0  0  0  0  0  0  0  0  0  0
   -2.0297    1.4615   -3.8029 H   0  0  0  0  0  0  0  0  0  0  0  0
   -0.7011    1.2952    0.7149 C   0  0  0  0  0  0  0  0  0  0  0  0
   -1.5917    1.9198    0.1415 O   0  0  0  0  0  0  0  0  0  0  0  0
    0.1191    1.8675    1.6055 N   0  0  0  0  0  0  0  0  0  0  0  0
    0.8092    1.2861    2.0537 H   0  0  0  0  0  0  0  0  0  0  0  0
    0.0509    3.2769    1.9894 C   0  0  0  0  0  0  0  0  0  0  0  0
   -0.9494    3.5076    2.3640 H   0  0  0  0  0  0  0  0  0  0  0  0
    0.7844    3.4956    2.7668 H   0  0  0  0  0  0  0  0  0  0  0  0
    0.2468    3.9058    1.1193 H   0  0  0  0  0  0  0  0  0  0  0  0
  5  6  2  0  0  0  0
  5  7  1  0  0  0  0
  2  3  1  0  0  0  0
  2  4  1  0  0  0  0
  2  5  1  0  0  0  0
  1  2  1  0  0  0  0
 22 23  2  0  0  0  0
 22 24  1  0  0  0  0
 19 20  1  0  0  0  0
 19 21  1  0  0  0  0
 17 18  2  0  0  0  0
 17 19  1  0  0  0  0
 14 15  1  0  0  0  0
 14 16  1  0  0  0  0
 14 17  1  0  0  0  0
 11 12  1  0  0  0  0
 11 13  1  0  0  0  0
 11 14  1  0  0  0  0
  9 10  1  0  0  0  0
  9 11  1  0  0  0  0
  9 22  1  0  0  0  0
  7  8  1  0  0  0  0
  7  9  1  0  0  0  0
 26 27  1  0  0  0  0
 26 28  1  0  0  0  0
 26 29  1  0  0  0  0
 24 25  1  0  0  0  0
 24 26  1  0  0  0  0
M  END
$$$$
default_name
  -OEChem-02102213163D

 29 28  0     1  0  0  0  0  0999 V2000
   -3.3998   -3.6239    1.3678 H   0  0  0  0  0  0  0  0  0  0  0  0
   -3.3608   -2.6749    0.8348 C   0  0  0  0  0  0  0  0  0  0  0  0
   -4.0988   -1.9909    1.2498 H   0  0  0  0  0  0  0  0  0  0  0  0
   -3.5618   -2.8419   -0.2222 H   0  0  0  0  0  0  0  0  0  0  0  0
   -1.9818   -2.0809    0.9918 C   0  0  0  0  0  0  0  0  0  0  0  0
   -1.1288   -2.6669    1.6468 O   0  0  0  0  0  0  0  0  0  0  0  0
   -1.7648   -0.9089    0.3998 N   0  0  0  0  0  0  0  0  0  0  0  0
   -2.5238   -0.4719   -0.1032 H   0  0  0  0  0  0  0  0  0  0  0  0
   -0.4848   -0.1959    0.4138 C   0  0  1  0  0  0  0  0  0  0  0  0
    0.1386   -0.6144    1.2058 H   0  0  0  0  0  0  0  0  0  0  0  0
    0.2271   -0.4272   -0.9334 C   0  0  0  0  0  0  0  0  0  0  0  0
    1.2750   -0.1412   -0.8215 H   0  0  0  0  0  0  0  0  0  0  0  0
    0.1878   -1.4894   -1.1796 H   0  0  0  0  0  0  0  0  0  0  0  0
   -0.3729    0.3763   -2.1004 C   0  0  0  0  0  0  0  0  0  0  0  0
   -0.0683    1.4198   -2.0225 H   0  0  0  0  0  0  0  0  0  0  0  0
    0.0054   -0.0276   -3.0394 H   0  0  0  0  0  0  0  0  0  0  0  0
   -1.9003    0.3319   -2.1386 C   0  0  0  0  0  0  0  0  0  0  0  0
   -2.5698   -0.3337   -1.3709 O   0  0  0  0  0  0  0  0  0  0  0  0
   -2.5252    1.0556   -3.0419 N   0  0  0  0  0  0  0  0  0  0  0  0
   -3.5280    0.9895   -3.0212 H   0  0  0  0  0  0  0  0  0  0  0  0
   -2.0236    1.6225   -3.6952 H   0  0  0  0  0  0  0  0  0  0  0  0
   -0.7011    1.2952    0.7149 C   0  0  0  0  0  0  0  0  0  0  0  0
   -1.5917    1.9198    0.1415 O   0  0  0  0  0  0  0  0  0  0  0  0
    0.1191    1.8675    1.6055 N   0  0  0  0  0  0  0  0  0  0  0  0
    0.8092    1.2861    2.0537 H   0  0  0  0  0  0  0  0  0  0  0  0
    0.0509    3.2769    1.9894 C   0  0  0  0  0  0  0  0  0  0  0  0
   -0.9494    3.5076    2.3640 H   0  0  0  0  0  0  0  0  0  0  0  0
    0.7844    3.4956    2.7668 H   0  0  0  0  0  0  0  0  0  0  0  0
    0.2468    3.9058    1.1193 H   0  0  0  0  0  0  0  0  0  0  0  0
  5  6  2  0  0  0  0
  5  7  1  0  0  0  0
  2  3  1  0  0  0  0
  2  4  1  0  0  0  0
  2  5  1  0  0  0  0
  1  2  1  0  0  0  0
 22 23  2  0  0  0  0
 22 24  1  0  0  0  0
 19 20  1  0  0  0  0
 19 21  1  0  0  0  0
 17 18  2  0  0  0  0
 17 19  1  0  0  0  0
 14 15  1  0  0  0  0
 14 16  1  0  0  0  0
 14 17  1  0  0  0  0
 11 12  1  0  0  0  0
 11 13  1  0  0  0  0
 11 14  1  0  0  0  0
  9 10  1  0  0  0  0
  9 11  1  0  0  0  0
  9 22  1  0  0  0  0
  7  8  1  0  0  0  0
  7  9  1  0  0  0  0
 26 27  1  0  0  0  0
 26 28  1  0  0  0  0
 26 29  1  0  0  0  0
 24 25  1  0  0  0  0
 24 26  1  0  0  0  0
M  END
$$$$
default_name
  -OEChem-02102213163D

 29 28  0     1  0  0  0  0  0999 V2000
   -3.3998   -3.6239    1.3678 H   0  0  0  0  0  0  0  0  0  0  0  0
   -3.3608   -2.6749    0.8348 C   0  0  0  0  0  0  0  0  0  0  0  0
   -4.0988   -1.9909    1.2498 H   0  0  0  0  0  0  0  0  0  0  0  0
   -3.5618   -2.8419   -0.2222 H   0  0  0  0  0  0  0  0  0  0  0  0
   -1.9818   -2.0809    0.9918 C   0  0  0  0  0  0  0  0  0  0  0  0
   -1.1288   -2.6669    1.6468 O   0  0  0  0  0  0  0  0  0  0  0  0
   -1.7648   -0.9089    0.3998 N   0  0  0  0  0  0  0  0  0  0  0  0
   -2.5238   -0.4719   -0.1032 H   0  0  0  0  0  0  0  0  0  0  0  0
   -0.4848   -0.1959    0.4138 C   0  0  1  0  0  0  0  0  0  0  0  0
    0.1386   -0.6144    1.2058 H   0  0  0  0  0  0  0  0  0  0  0  0
    0.2271   -0.4272   -0.9334 C   0  0  0  0  0  0  0  0  0  0  0  0
    1.2750   -0.1412   -0.8215 H   0  0  0  0  0  0  0  0  0  0  0  0
    0.1878   -1.4894   -1.1796 H   0  0  0  0  0  0  0  0  0  0  0  0
   -0.3729    0.3763   -2.1004 C   0  0  0  0  0  0  0  0  0  0  0  0
    0.1318    1.3389   -2.1811 H   0  0  0  0  0  0  0  0  0  0  0  0
   -0.2184   -0.1766   -3.0269 H   0  0  0  0  0  0  0  0  0  0  0  0
   -1.8702    0.6401   -1.9419 C   0  0  0  0  0  0  0  0  0  0  0  0
   -2.5348    0.1942   -1.0254 O   0  0  0  0  0  0  0  0  0  0  0  0
   -2.4711    1.3939   -2.8368 N   0  0  0  0  0  0  0  0  0  0  0  0
   -3.4545    1.5350   -2.6834 H   0  0  0  0  0  0  0  0  0  0  0  0
   -1.9716    1.7877   -3.6082 H   0  0  0  0  0  0  0  0  0  0  0  0
   -0.7011    1.2952    0.7149 C   0  0  0  0  0  0  0  0  0  0  0  0
   -1.5917    1.9198    0.1415 O   0  0  0  0  0  0  0  0  0  0  0  0
    0.1191    1.8675    1.6055 N   0  0  0  0  0  0  0  0  0  0  0  0
    0.8092    1.2861    2.0537 H   0  0  0  0  0  0  0  0  0  0  0  0
    0.0509    3.2769    1.9894 C   0  0  0  0  0  0  0  0  0  0  0  0
   -0.9494    3.5076    2.3640 H   0  0  0  0  0  0  0  0  0  0  0  0
    0.7844    3.4956    2.7668 H   0  0  0  0  0  0  0  0  0  0  0  0
    0.2468    3.9058    1.1193 H   0  0  0  0  0  0  0  0  0  0  0  0
  5  6  2  0  0  0  0
  5  7  1  0  0  0  0
  2  3  1  0  0  0  0
  2  4  1  0  0  0  0
  2  5  1  0  0  0  0
  1  2  1  0  0  0  0
 22 23  2  0  0  0  0
 22 24  1  0  0  0  0
 19 20  1  0  0  0  0
 19 21  1  0  0  0  0
 17 18  2  0  0  0  0
 17 19  1  0  0  0  0
 14 15  1  0  0  0  0
 14 16  1  0  0  0  0
 14 17  1  0  0  0  0
 11 12  1  0  0  0  0
 11 13  1  0  0  0  0
 11 14  1  0  0  0  0
  9 10  1  0  0  0  0
  9 11  1  0  0  0  0
  9 22  1  0  0  0  0
  7  8  1  0  0  0  0
  7  9  1  0  0  0  0
 26 27  1  0  0  0  0
 26 28  1  0  0  0  0
 26 29  1  0  0  0  0
 24 25  1  0  0  0  0
 24 26  1  0  0  0  0
M  END
$$$$
default_name
  -OEChem-02102213163D

 29 28  0     1  0  0  0  0  0999 V2000
   -3.3998   -3.6239    1.3678 H   0  0  0  0  0  0  0  0  0  0  0  0
   -3.3608   -2.6749    0.8348 C   0  0  0  0  0  0  0  0  0  0  0  0
   -4.0988   -1.9909    1.2498 H   0  0  0  0  0  0  0  0  0  0  0  0
   -3.5618   -2.8419   -0.2222 H   0  0  0  0  0  0  0  0  0  0  0  0
   -1.9818   -2.0809    0.9918 C   0  0  0  0  0  0  0  0  0  0  0  0
   -1.1288   -2.6669    1.6468 O   0  0  0  0  0  0  0  0  0  0  0  0
   -1.7648   -0.9089    0.3998 N   0  0  0  0  0  0  0  0  0  0  0  0
   -2.5238   -0.4719   -0.1032 H   0  0  0  0  0  0  0  0  0  0  0  0
   -0.4848   -0.1959    0.4138 C   0  0  1  0  0  0  0  0  0  0  0  0
    0.1386   -0.6144    1.2058 H   0  0  0  0  0  0  0  0  0  0  0  0
    0.2271   -0.4272   -0.9334 C   0  0  0  0  0  0  0  0  0  0  0  0
    1.2750   -0.1412   -0.8215 H   0  0  0  0  0  0  0  0  0  0  0  0
    0.1878   -1.4894   -1.1796 H   0  0  0  0  0  0  0  0  0  0  0  0
   -0.3729    0.3763   -2.1004 C   0  0  0  0  0  0  0  0  0  0  0  0
    0.2877    1.2054   -2.3532 H   0  0  0  0  0  0  0  0  0  0  0  0
   -0.4621   -0.2753   -2.9695 H   0  0  0  0  0  0  0  0  0  0  0  0
   -1.7539    0.9518   -1.7870 C   0  0  0  0  0  0  0  0  0  0  0  0
   -2.3507    0.7321   -0.7497 O   0  0  0  0  0  0  0  0  0  0  0  0
   -2.3248    1.7308   -2.6801 N   0  0  0  0  0  0  0  0  0  0  0  0
   -3.2307    2.0816   -2.4220 H   0  0  0  0  0  0  0  0  0  0  0  0
   -1.8771    1.9458   -3.5479 H   0  0  0  0  0  0  0  0  0  0  0  0
   -0.7011    1.2952    0.7149 C   0  0  0  0  0  0  0  0  0  0  0  0
   -1.5917    1.9198    0.1415 O   0  0  0  0  0  0  0  0  0  0  0  0
    0.1191    1.8675    1.6055 N   0  0  0  0  0  0  0  0  0  0  0  0
    0.8092    1.2861    2.0537 H   0  0  0  0  0  0  0  0  0  0  0  0
    0.0509    3.2769    1.9894 C   0  0  0  0  0  0  0  0  0  0  0  0
   -0.9494    3.5076    2.3640 H   0  0  0  0  0  0  0  0  0  0  0  0
    0.7844    3.4956    2.7668 H   0  0  0  0  0  0  0  0  0  0  0  0
    0.2468    3.9058    1.1193 H   0  0  0  0  0  0  0  0  0  0  0  0
  5  6  2  0  0  0  0
  5  7  1  0  0  0  0
  2  3  1  0  0  0  0
  2  4  1  0  0  0  0
  2  5  1  0  0  0  0
  1  2  1  0  0  0  0
 22 23  2  0  0  0  0
 22 24  1  0  0  0  0
 19 20  1  0  0  0  0
 19 21  1  0  0  0  0
 17 18  2  0  0  0  0
 17 19  1  0  0  0  0
 14 15  1  0  0  0  0
 14 16  1  0  0  0  0
 14 17  1  0  0  0  0
 11 12  1  0  0  0  0
 11 13  1  0  0  0  0
 11 14  1  0  0  0  0
  9 10  1  0  0  0  0
  9 11  1  0  0  0  0
  9 22  1  0  0  0  0
  7  8  1  0  0  0  0
  7  9  1  0  0  0  0
 26 27  1  0  0  0  0
 26 28  1  0  0  0  0
 26 29  1  0  0  0  0
 24 25  1  0  0  0  0
 24 26  1  0  0  0  0
M  END
$$$$
default_name
  -OEChem-02102213163D

 29 28  0     1  0  0  0  0  0999 V2000
   -3.3998   -3.6239    1.3678 H   0  0  0  0  0  0  0  0  0  0  0  0
   -3.3608   -2.6749    0.8348 C   0  0  0  0  0  0  0  0  0  0  0  0
   -4.0988   -1.9909    1.2498 H   0  0  0  0  0  0  0  0  0  0  0  0
   -3.5618   -2.8419   -0.2222 H   0  0  0  0  0  0  0  0  0  0  0  0
   -1.9818   -2.0809    0.9918 C   0  0  0  0  0  0  0  0  0  0  0  0
   -1.1288   -2.6669    1.6468 O   0  0  0  0  0  0  0  0  0  0  0  0
   -1.7648   -0.9089    0.3998 N   0  0  0  0  0  0  0  0  0  0  0  0
   -2.5238   -0.4719   -0.1032 H   0  0  0  0  0  0  0  0  0  0  0  0
   -0.4848   -0.1959    0.4138 C   0  0  1  0  0  0  0  0  0  0  0  0
    0.1386   -0.6144    1.2058 H   0  0  0  0  0  0  0  0  0  0  0  0
    0.2271   -0.4272   -0.9334 C   0  0  0  0  0  0  0  0  0  0  0  0
    1.2750   -0.1412   -0.8215 H   0  0  0  0  0  0  0  0  0  0  0  0
    0.1878   -1.4894   -1.1796 H   0  0  0  0  0  0  0  0  0  0  0  0
   -0.3729    0.3763   -2.1004 C   0  0  0  0  0  0  0  0  0  0  0  0
    0.3889    1.0285   -2.5270 H   0  0  0  0  0  0  0  0  0  0  0  0
   -0.7092   -0.3170   -2.8712 H   0  0  0  0  0  0  0  0  0  0  0  0
   -1.5596    1.2456   -1.6847 C   0  0  0  0  0  0  0  0  0  0  0  0
   -2.0300    1.2434   -0.5625 O   0  0  0  0  0  0  0  0  0  0  0  0
   -2.0961    2.0432   -2.5825 N   0  0  0  0  0  0  0  0  0  0  0  0
   -2.8720    2.5921   -2.2550 H   0  0  0  0  0  0  0  0  0  0  0  0
   -1.7467    2.0861   -3.5184 H   0  0  0  0  0  0  0  0  0  0  0  0
   -0.7011    1.2952    0.7149 C   0  0  0  0  0  0  0  0  0  0  0  0
   -1.5917    1.9198    0.1415 O   0  0  0  0  0  0  0  0  0  0  0  0
    0.1191    1.8675    1.6055 N   0  0  0  0  0  0  0  0  0  0  0  0
    0.8092    1.2861    2.0537 H   0  0  0  0  0  0  0  0  0  0  0  0
    0.0509    3.2769    1.9894 C   0  0  0  0  0  0  0  0  0  0  0  0
   -0.9494    3.5076    2.3640 H   0  0  0  0  0  0  0  0  0  0  0  0
    0.7844    3.4956    2.7668 H   0  0  0  0  0  0  0  0  0  0  0  0
    0.2468    3.9058    1.1193 H   0  0  0  0  0  0  0  0  0  0  0  0
  5  6  2  0  0  0  0
  5  7  1  0  0  0  0
  2  3  1  0  0  0  0
  2  4  1  0  0  0  0
  2  5  1  0  0  0  0
  1  2  1  0  0  0  0
 22 23  2  0  0  0  0
 22 24  1  0  0  0  0
 19 20  1  0  0  0  0
 19 21  1  0  0  0  0
 17 18  2  0  0  0  0
 17 19  1  0  0  0  0
 14 15  1  0  0  0  0
 14 16  1  0  0  0  0
 14 17  1  0  0  0  0
 11 12  1  0  0  0  0
 11 13  1  0  0  0  0
 11 14  1  0  0  0  0
  9 10  1  0  0  0  0
  9 11  1  0  0  0  0
  9 22  1  0  0  0  0
  7  8  1  0  0  0  0
  7  9  1  0  0  0  0
 26 27  1  0  0  0  0
 26 28  1  0  0  0  0
 26 29  1  0  0  0  0
 24 25  1  0  0  0  0
 24 26  1  0  0  0  0
M  END
$$$$
default_name
  -OEChem-02102213163D

 29 28  0     1  0  0  0  0  0999 V2000
   -3.3998   -3.6239    1.3678 H   0  0  0  0  0  0  0  0  0  0  0  0
   -3.3608   -2.6749    0.8348 C   0  0  0  0  0  0  0  0  0  0  0  0
   -4.0988   -1.9909    1.2498 H   0  0  0  0  0  0  0  0  0  0  0  0
   -3.5618   -2.8419   -0.2222 H   0  0  0  0  0  0  0  0  0  0  0  0
   -1.9818   -2.0809    0.9918 C   0  0  0  0  0  0  0  0  0  0  0  0
   -1.1288   -2.6669    1.6468 O   0  0  0  0  0  0  0  0  0  0  0  0
   -1.7648   -0.9089    0.3998 N   0  0  0  0  0  0  0  0  0  0  0  0
   -2.5238   -0.4719   -0.1032 H   0  0  0  0  0  0  0  0  0  0  0  0
   -0.4848   -0.1959    0.4138 C   0  0  1  0  0  0  0  0  0  0  0  0
    0.1386   -0.6144    1.2058 H   0  0  0  0  0  0  0  0  0  0  0  0
    0.2271   -0.4272   -0.9334 C   0  0  0  0  0  0  0  0  0  0  0  0
    1.2750   -0.1412   -0.8215 H   0  0  0  0  0  0  0  0  0  0  0  0
    0.1878   -1.4894   -1.1796 H   0  0  0  0  0  0  0  0  0  0  0  0
   -0.3729    0.3763   -2.1004 C   0  0  0  0  0  0  0  0  0  0  0  0
    0.4284    0.8202   -2.6907 H   0  0  0  0  0  0  0  0  0  0  0  0
   -0.9427   -0.2988   -2.7387 H   0  0  0  0  0  0  0  0  0  0  0  0
   -1.3003    1.5016   -1.6417 C   0  0  0  0  0  0  0  0  0  0  0  0
   -1.5946    1.6931   -0.4767 O   0  0  0  0  0  0  0  0  0  0  0  0
   -1.8007    2.3100   -2.5507 N   0  0  0  0  0  0  0  0  0  0  0  0
   -2.4026    3.0316   -2.1937 H   0  0  0  0  0  0  0  0  0  0  0  0
   -1.5892    2.1990   -3.5216 H   0  0  0  0  0  0  0  0  0  0  0  0
   -0.7011    1.2952    0.7149 C   0  0  0  0  0  0  0  0  0  0  0  0
   -1.5917    1.9198    0.1415 O   0  0  0  0  0  0  0  0  0  0  0  0
    0.1191    1.8675    1.6055 N   0  0  0  0  0  0  0  0  0  0  0  0
    0.8092    1.2861    2.0537 H   0  0  0  0  0  0  0  0  0  0  0  0
    0.0509    3.2769    1.9894 C   0  0  0  0  0  0  0  0  0  0  0  0
   -0.9494    3.5076    2.3640 H   0  0  0  0  0  0  0  0  0  0  0  0
    0.7844    3.4956    2.7668 H   0  0  0  0  0  0  0  0  0  0  0  0
    0.2468    3.9058    1.1193 H   0  0  0  0  0  0  0  0  0  0  0  0
  5  6  2  0  0  0  0
  5  7  1  0  0  0  0
  2  3  1  0  0  0  0
  2  4  1  0  0  0  0
  2  5  1  0  0  0  0
  1  2  1  0  0  0  0
 22 23  2  0  0  0  0
 22 24  1  0  0  0  0
 19 20  1  0  0  0  0
 19 21  1  0  0  0  0
 17 18  2  0  0  0  0
 17 19  1  0  0  0  0
 14 15  1  0  0  0  0
 14 16  1  0  0  0  0
 14 17  1  0  0  0  0
 11 12  1  0  0  0  0
 11 13  1  0  0  0  0
 11 14  1  0  0  0  0
  9 10  1  0  0  0  0
  9 11  1  0  0  0  0
  9 22  1  0  0  0  0
  7  8  1  0  0  0  0
  7  9  1  0  0  0  0
 26 27  1  0  0  0  0
 26 28  1  0  0  0  0
 26 29  1  0  0  0  0
 24 25  1  0  0  0  0
 24 26  1  0  0  0  0
M  END
$$$$
default_name
  -OEChem-02102213163D

 29 28  0     1  0  0  0  0  0999 V2000
   -3.3998   -3.6239    1.3678 H   0  0  0  0  0  0  0  0  0  0  0  0
   -3.3608   -2.6749    0.8348 C   0  0  0  0  0  0  0  0  0  0  0  0
   -4.0988   -1.9909    1.2498 H   0  0  0  0  0  0  0  0  0  0  0  0
   -3.5618   -2.8419   -0.2222 H   0  0  0  0  0  0  0  0  0  0  0  0
   -1.9818   -2.0809    0.9918 C   0  0  0  0  0  0  0  0  0  0  0  0
   -1.1288   -2.6669    1.6468 O   0  0  0  0  0  0  0  0  0  0  0  0
   -1.7648   -0.9089    0.3998 N   0  0  0  0  0  0  0  0  0  0  0  0
   -2.5238   -0.4719   -0.1032 H   0  0  0  0  0  0  0  0  0  0  0  0
   -0.4848   -0.1959    0.4138 C   0  0  1  0  0  0  0  0  0  0  0  0
    0.1386   -0.6144    1.2058 H   0  0  0  0  0  0  0  0  0  0  0  0
    0.2271   -0.4272   -0.9334 C   0  0  0  0  0  0  0  0  0  0  0  0
    1.2750   -0.1412   -0.8215 H   0  0  0  0  0  0  0  0  0  0  0  0
    0.1878   -1.4894   -1.1796 H   0  0  0  0  0  0  0  0  0  0  0  0
   -0.3729    0.3763   -2.1004 C   0  0  0  0  0  0  0  0  0  0  0  0
    0.4036    0.5947   -2.8332 H   0  0  0  0  0  0  0  0  0  0  0  0
   -1.1468   -0.2221   -2.5809 H   0  0  0  0  0  0  0  0  0  0  0  0
   -0.9938    1.7023   -1.6611 C   0  0  0  0  0  0  0  0  0  0  0  0
   -1.0742    2.0507   -0.4981 O   0  0  0  0  0  0  0  0  0  0  0  0
   -1.4587    2.5129   -2.5869 N   0  0  0  0  0  0  0  0  0  0  0  0
   -1.8548    3.3701   -2.2423 H   0  0  0  0  0  0  0  0  0  0  0  0
   -1.4153    2.2768   -3.5575 H   0  0  0  0  0  0  0  0  0  0  0  0
   -0.7011    1.2952    0.7149 C   0  0  0  0  0  0  0  0  0  0  0  0
   -1.5917    1.9198    0.1415 O   0  0  0  0  0  0  0  0  0  0  0  0
    0.1191    1.8675    1.6055 N   0  0  0  0  0  0  0  0  0  0  0  0
    0.8092    1.2861    2.0537 H   0  0  0  0  0  0  0  0  0  0  0  0
    0.0509    3.2769    1.9894 C   0  0  0  0  0  0  0  0  0  0  0  0
   -0.9494    3.5076    2.3640 H   0  0  0  0  0  0  0  0  0  0  0  0
    0.7844    3.4956    2.7668 H   0  0  0  0  0  0  0  0  0  0  0  0
    0.2468    3.9058    1.1193 H   0  0  0  0  0  0  0  0  0  0  0  0
  5  6  2  0  0  0  0
  5  7  1  0  0  0  0
  2  3  1  0  0  0  0
  2  4  1  0  0  0  0
  2  5  1  0  0  0  0
  1  2  1  0  0  0  0
 22 23  2  0  0  0  0
 22 24  1  0  0  0  0
 19 20  1  0  0  0  0
 19 21  1  0  0  0  0
 17 18  2  0  0  0  0
 17 19  1  0  0  0  0
 14 15  1  0  0  0  0
 14 16  1  0  0  0  0
 14 17  1  0  0  0  0
 11 12  1  0  0  0  0
 11 13  1  0  0  0  0
 11 14  1  0  0  0  0
  9 10  1  0  0  0  0
  9 11  1  0  0  0  0
  9 22  1  0  0  0  0
  7  8  1  0  0  0  0
  7  9  1  0  0  0  0
 26 27  1  0  0  0  0
 26 28  1  0  0  0  0
 26 29  1  0  0  0  0
 24 25  1  0  0  0  0
 24 26  1  0  0  0  0
M  END
$$$$
default_name
  -OEChem-02102213163D

 29 28  0     1  0  0  0  0  0999 V2000
   -3.3998   -3.6239    1.3678 H   0  0  0  0  0  0  0  0  0  0  0  0
   -3.3608   -2.6749    0.8348 C   0  0  0  0  0  0  0  0  0  0  0  0
   -4.0988   -1.9909    1.2498 H   0  0  0  0  0  0  0  0  0  0  0  0
   -3.5618   -2.8419   -0.2222 H   0  0  0  0  0  0  0  0  0  0  0  0
   -1.9818   -2.0809    0.9918 C   0  0  0  0  0  0  0  0  0  0  0  0
   -1.1288   -2.6669    1.6468 O   0  0  0  0  0  0  0  0  0  0  0  0
   -1.7648   -0.9089    0.3998 N   0  0  0  0  0  0  0  0  0  0  0  0
   -2.5238   -0.4719   -0.1032 H   0  0  0  0  0  0  0  0  0  0  0  0
   -0.4848   -0.1959    0.4138 C   0  0  1  0  0  0  0  0  0  0  0  0
    0.1386   -0.6144    1.2058 H   0  0  0  0  0  0  0  0  0  0  0  0
    0.2271   -0.4272   -0.9334 C   0  0  0  0  0  0  0  0  0  0  0  0
    1.2750   -0.1412   -0.8215 H   0  0  0  0  0  0  0  0  0  0  0  0
    0.1878   -1.4894   -1.1796 H   0  0  0  0  0  0  0  0  0  0  0  0
   -0.3729    0.3763   -2.1004 C   0  0  0  0  0  0  0  0  0  0  0  0
    0.3161    0.3674   -2.9447 H   0  0  0  0  0  0  0  0  0  0  0  0
   -1.3075   -0.0920   -2.4087 H   0  0  0  0  0  0  0  0  0  0  0  0
   -0.6610    1.8340   -1.7415 C   0  0  0  0  0  0  0  0  0  0  0  0
   -0.5041    2.2919   -0.6251 O   0  0  0  0  0  0  0  0  0  0  0  0
   -1.0934    2.6381   -2.6885 N   0  0  0  0  0  0  0  0  0  0  0  0
   -1.2657    3.5847   -2.3974 H   0  0  0  0  0  0  0  0  0  0  0  0
   -1.2370    2.3141   -3.6234 H   0  0  0  0  0  0  0  0  0  0  0  0
   -0.7011    1.2952    0.7149 C   0  0  0  0  0  0  0  0  0  0  0  0
   -1.5917    1.9198    0.1415 O   0  0  0  0  0  0  0  0  0  0  0  0
    0.1191    1.8675    1.6055 N   0  0  0  0  0  0  0  0  0  0  0  0
    0.8092    1.2861    2.0537 H   0  0  0  0  0  0  0  0  0  0  0  0
    0.0509    3.2769    1.9894 C   0  0  0  0  0  0  0  0  0  0  0  0
   -0.9494    3.5076    2.3640 H   0  0  0  0  0  0  0  0  0  0  0  0
    0.7844    3.4956    2.7668 H   0  0  0  0  0  0  0  0  0  0  0  0
    0.2468    3.9058    1.1193 H   0  0  0  0  0  0  0  0  0  0  0  0
  5  6  2  0  0  0  0
  5  7  1  0  0  0  0
  2  3  1  0  0  0  0
  2  4  1  0  0  0  0
  2  5  1  0  0  0  0
  1  2  1  0  0  0  0
 22 23  2  0  0  0  0
 22 24  1  0  0  0  0
 19 20  1  0  0  0  0
 19 21  1  0  0  0  0
 17 18  2  0  0  0  0
 17 19  1  0  0  0  0
 14 15  1  0  0  0  0
 14 16  1  0  0  0  0
 14 17  1  0  0  0  0
 11 12  1  0  0  0  0
 11 13  1  0  0  0  0
 11 14  1  0  0  0  0
  9 10  1  0  0  0  0
  9 11  1  0  0  0  0
  9 22  1  0  0  0  0
  7  8  1  0  0  0  0
  7  9  1  0  0  0  0
 26 27  1  0  0  0  0
 26 28  1  0  0  0  0
 26 29  1  0  0  0  0
 24 25  1  0  0  0  0
 24 26  1  0  0  0  0
M  END
$$$$
default_name
  -OEChem-02102213163D

 29 28  0     1  0  0  0  0  0999 V2000
   -3.3998   -3.6239    1.3678 H   0  0  0  0  0  0  0  0  0  0  0  0
   -3.3608   -2.6749    0.8348 C   0  0  0  0  0  0  0  0  0  0  0  0
   -4.0988   -1.9909    1.2498 H   0  0  0  0  0  0  0  0  0  0  0  0
   -3.5618   -2.8419   -0.2222 H   0  0  0  0  0  0  0  0  0  0  0  0
   -1.9818   -2.0809    0.9918 C   0  0  0  0  0  0  0  0  0  0  0  0
   -1.1288   -2.6669    1.6468 O   0  0  0  0  0  0  0  0  0  0  0  0
   -1.7648   -0.9089    0.3998 N   0  0  0  0  0  0  0  0  0  0  0  0
   -2.5238   -0.4719   -0.1032 H   0  0  0  0  0  0  0  0  0  0  0  0
   -0.4848   -0.1959    0.4138 C   0  0  1  0  0  0  0  0  0  0  0  0
    0.1386   -0.6144    1.2058 H   0  0  0  0  0  0  0  0  0  0  0  0
    0.2271   -0.4272   -0.9334 C   0  0  0  0  0  0  0  0  0  0  0  0
    1.2750   -0.1412   -0.8215 H   0  0  0  0  0  0  0  0  0  0  0  0
    0.1878   -1.4894   -1.1796 H   0  0  0  0  0  0  0  0  0  0  0  0
   -0.3729    0.3763   -2.1004 C   0  0  0  0  0  0  0  0  0  0  0  0
    0.1719    0.1538   -3.0177 H   0  0  0  0  0  0  0  0  0  0  0  0
   -1.4140    0.0826   -2.2337 H   0  0  0  0  0  0  0  0  0  0  0  0
   -0.3245    1.8878   -1.8774 C   0  0  0  0  0  0  0  0  0  0  0  0
    0.0767    2.4001   -0.8492 O   0  0  0  0  0  0  0  0  0  0  0  0
   -0.7297    2.6770   -2.8486 N   0  0  0  0  0  0  0  0  0  0  0  0
   -0.6755    3.6607   -2.6486 H   0  0  0  0  0  0  0  0  0  0  0  0
   -1.0663    2.3086   -3.7150 H   0  0  0  0  0  0  0  0  0  0  0  0
   -0.7011    1.2952    0.7149 C   0  0  0  0  0  0  0  0  0  0  0  0
   -1.5917    1.9198    0.1415 O   0  0  0  0  0  0  0  0  0  0  0  0
    0.1191    1.8675    1.6055 N   0  0  0  0  0  0  0  0  0  0  0  0
    0.8092    1.2861    2.0537 H   0  0  0  0  0  0  0  0  0  0  0  0
    0.0509    3.2769    1.9894 C   0  0  0  0  0  0  0  0  0  0  0  0
   -0.9494    3.5076    2.3640 H   0  0  0  0  0  0  0  0  0  0  0  0
    0.7844    3.4956    2.7668 H   0  0  0  0  0  0  0  0  0  0  0  0
    0.2468    3.9058    1.1193 H   0  0  0  0  0  0  0  0  0  0  0  0
  5  6  2  0  0  0  0
  5  7  1  0  0  0  0
  2  3  1  0  0  0  0
  2  4  1  0  0  0  0
  2  5  1  0  0  0  0
  1  2  1  0  0  0  0
 22 23  2  0  0  0  0
 22 24  1  0  0  0  0
 19 20  1  0  0  0  0
 19 21  1  0  0  0  0
 17 18  2  0  0  0  0
 17 19  1  0  0  0  0
 14 15  1  0  0  0  0
 14 16  1  0  0  0  0
 14 17  1  0  0  0  0
 11 12  1  0  0  0  0
 11 13  1  0  0  0  0
 11 14  1  0  0  0  0
  9 10  1  0  0  0  0
  9 11  1  0  0  0  0
  9 22  1  0  0  0  0
  7  8  1  0  0  0  0
  7  9  1  0  0  0  0
 26 27  1  0  0  0  0
 26 28  1  0  0  0  0
 26 29  1  0  0  0  0
 24 25  1  0  0  0  0
 24 26  1  0  0  0  0
M  END
$$$$
default_name
  -OEChem-02102213163D

 29 28  0     1  0  0  0  0  0999 V2000
   -3.3998   -3.6239    1.3678 H   0  0  0  0  0  0  0  0  0  0  0  0
   -3.3608   -2.6749    0.8348 C   0  0  0  0  0  0  0  0  0  0  0  0
   -4.0988   -1.9909    1.2498 H   0  0  0  0  0  0  0  0  0  0  0  0
   -3.5618   -2.8419   -0.2222 H   0  0  0  0  0  0  0  0  0  0  0  0
   -1.9818   -2.0809    0.9918 C   0  0  0  0  0  0  0  0  0  0  0  0
   -1.1288   -2.6669    1.6468 O   0  0  0  0  0  0  0  0  0  0  0  0
   -1.7648   -0.9089    0.3998 N   0  0  0  0  0  0  0  0  0  0  0  0
   -2.5238   -0.4719   -0.1032 H   0  0  0  0  0  0  0  0  0  0  0  0
   -0.4848   -0.1959    0.4138 C   0  0  1  0  0  0  0  0  0  0  0  0
    0.1386   -0.6144    1.2058 H   0  0  0  0  0  0  0  0  0  0  0  0
    0.2271   -0.4272   -0.9334 C   0  0  0  0  0  0  0  0  0  0  0  0
    1.2750   -0.1412   -0.8215 H   0  0  0  0  0  0  0  0  0  0  0  0
    0.1878   -1.4894   -1.1796 H   0  0  0  0  0  0  0  0  0  0  0  0
   -0.3729    0.3763   -2.1004 C   0  0  0  0  0  0  0  0  0  0  0  0
   -0.0192   -0.0316   -3.0471 H   0  0  0  0  0  0  0  0  0  0  0  0
   -1.4589    0.2898   -2.0680 H   0  0  0  0  0  0  0  0  0  0  0  0
   -0.0073    1.8600   -2.0597 C   0  0  0  0  0  0  0  0  0  0  0  0
    0.6286    2.3679   -1.1551 O   0  0  0  0  0  0  0  0  0  0  0  0
   -0.3924    2.6271   -3.0564 N   0  0  0  0  0  0  0  0  0  0  0  0
   -0.1244    3.5929   -2.9786 H   0  0  0  0  0  0  0  0  0  0  0  0
   -0.9149    2.2605   -3.8260 H   0  0  0  0  0  0  0  0  0  0  0  0
   -0.7011    1.2952    0.7149 C   0  0  0  0  0  0  0  0  0  0  0  0
   -1.5917    1.9198    0.1415 O   0  0  0  0  0  0  0  0  0  0  0  0
    0.1191    1.8675    1.6055 N   0  0  0  0  0  0  0  0  0  0  0  0
    0.8092    1.2861    2.0537 H   0  0  0  0  0  0  0  0  0  0  0  0
    0.0509    3.2769    1.9894 C   0  0  0  0  0  0  0  0  0  0  0  0
   -0.9494    3.5076    2.3640 H   0  0  0  0  0  0  0  0  0  0  0  0
    0.7844    3.4956    2.7668 H   0  0  0  0  0  0  0  0  0  0  0  0
    0.2468    3.9058    1.1193 H   0  0  0  0  0  0  0  0  0  0  0  0
  5  6  2  0  0  0  0
  5  7  1  0  0  0  0
  2  3  1  0  0  0  0
  2  4  1  0  0  0  0
  2  5  1  0  0  0  0
  1  2  1  0  0  0  0
 22 23  2  0  0  0  0
 22 24  1  0  0  0  0
 19 20  1  0  0  0  0
 19 21  1  0  0  0  0
 17 18  2  0  0  0  0
 17 19  1  0  0  0  0
 14 15  1  0  0  0  0
 14 16  1  0  0  0  0
 14 17  1  0  0  0  0
 11 12  1  0  0  0  0
 11 13  1  0  0  0  0
 11 14  1  0  0  0  0
  9 10  1  0  0  0  0
  9 11  1  0  0  0  0
  9 22  1  0  0  0  0
  7  8  1  0  0  0  0
  7  9  1  0  0  0  0
 26 27  1  0  0  0  0
 26 28  1  0  0  0  0
 26 29  1  0  0  0  0
 24 25  1  0  0  0  0
 24 26  1  0  0  0  0
M  END
$$$$
default_name
  -OEChem-02102213163D

 29 28  0     1  0  0  0  0  0999 V2000
   -3.3998   -3.6239    1.3678 H   0  0  0  0  0  0  0  0  0  0  0  0
   -3.3608   -2.6749    0.8348 C   0  0  0  0  0  0  0  0  0  0  0  0
   -4.0988   -1.9909    1.2498 H   0  0  0  0  0  0  0  0  0  0  0  0
   -3.5618   -2.8419   -0.2222 H   0  0  0  0  0  0  0  0  0  0  0  0
   -1.9818   -2.0809    0.9918 C   0  0  0  0  0  0  0  0  0  0  0  0
   -1.1288   -2.6669    1.6468 O   0  0  0  0  0  0  0  0  0  0  0  0
   -1.7648   -0.9089    0.3998 N   0  0  0  0  0  0  0  0  0  0  0  0
   -2.5238   -0.4719   -0.1032 H   0  0  0  0  0  0  0  0  0  0  0  0
   -0.4848   -0.1959    0.4138 C   0  0  1  0  0  0  0  0  0  0  0  0
    0.1386   -0.6144    1.2058 H   0  0  0  0  0  0  0  0  0  0  0  0
    0.2271   -0.4272   -0.9334 C   0  0  0  0  0  0  0  0  0  0  0  0
    1.2750   -0.1412   -0.8215 H   0  0  0  0  0  0  0  0  0  0  0  0
    0.1878   -1.4894   -1.1796 H   0  0  0  0  0  0  0  0  0  0  0  0
   -0.3729    0.3763   -2.1004 C   0  0  0  0  0  0  0  0  0  0  0  0
   -0.2442   -0.1761   -3.0309 H   0  0  0  0  0  0  0  0  0  0  0  0
   -1.4392    0.5155   -1.9227 H   0  0  0  0  0  0  0  0  0  0  0  0
    0.2690    1.7525   -2.2757 C   0  0  0  0  0  0  0  0  0  0  0  0
    1.1141    2.1977   -1.5220 O   0  0  0  0  0  0  0  0  0  0  0  0
   -0.1045    2.4917   -3.2977 N   0  0  0  0  0  0  0  0  0  0  0  0
    0.3499    3.3859   -3.3650 H   0  0  0  0  0  0  0  0  0  0  0  0
   -0.7931    2.1731   -3.9488 H   0  0  0  0  0  0  0  0  0  0  0  0
   -0.7011    1.2952    0.7149 C   0  0  0  0  0  0  0  0  0  0  0  0
   -1.5917    1.9198    0.1415 O   0  0  0  0  0  0  0  0  0  0  0  0
    0.1191    1.8675    1.6055 N   0  0  0  0  0  0  0  0  0  0  0  0
    0.8092    1.2861    2.0537 H   0  0  0  0  0  0  0  0  0  0  0  0
    0.0509    3.2769    1.9894 C   0  0  0  0  0  0  0  0  0  0  0  0
   -0.9494    3.5076    2.3640 H   0  0  0  0  0  0  0  0  0  0  0  0
    0.7844    3.4956    2.7668 H   0  0  0  0  0  0  0  0  0  0  0  0
    0.2468    3.9058    1.1193 H   0  0  0  0  0  0  0  0  0  0  0  0
  5  6  2  0  0  0  0
  5  7  1  0  0  0  0
  2  3  1  0  0  0  0
  2  4  1  0  0  0  0
  2  5  1  0  0  0  0
  1  2  1  0  0  0  0
 22 23  2  0  0  0  0
 22 24  1  0  0  0  0
 19 20  1  0  0  0  0
 19 21  1  0  0  0  0
 17 18  2  0  0  0  0
 17 19  1  0  0  0  0
 14 15  1  0  0  0  0
 14 16  1  0  0  0  0
 14 17  1  0  0  0  0
 11 12  1  0  0  0  0
 11 13  1  0  0  0  0
 11 14  1  0  0  0  0
  9 10  1  0  0  0  0
  9 11  1  0  0  0  0
  9 22  1  0  0  0  0
  7  8  1  0  0  0  0
  7  9  1  0  0  0  0
 26 27  1  0  0  0  0
 26 28  1  0  0  0  0
 26 29  1  0  0  0  0
 24 25  1  0  0  0  0
 24 26  1  0  0  0  0
M  END
$$$$
default_name
  -OEChem-02102213163D

 29 28  0     1  0  0  0  0  0999 V2000
   -3.3998   -3.6239    1.3678 H   0  0  0  0  0  0  0  0  0  0  0  0
   -3.3608   -2.6749    0.8348 C   0  0  0  0  0  0  0  0  0  0  0  0
   -4.0988   -1.9909    1.2498 H   0  0  0  0  0  0  0  0  0  0  0  0
   -3.5618   -2.8419   -0.2222 H   0  0  0  0  0  0  0  0  0  0  0  0
   -1.9818   -2.0809    0.9918 C   0  0  0  0  0  0  0  0  0  0  0  0
   -1.1288   -2.6669    1.6468 O   0  0  0  0  0  0  0  0  0  0  0  0
   -1.7648   -0.9089    0.3998 N   0  0  0  0  0  0  0  0  0  0  0  0
   -2.5238   -0.4719   -0.1032 H   0  0  0  0  0  0  0  0  0  0  0  0
   -0.4848   -0.1959    0.4138 C   0  0  1  0  0  0  0  0  0  0  0  0
    0.1386   -0.6144    1.2058 H   0  0  0  0  0  0  0  0  0  0  0  0
    0.2271   -0.4272   -0.9334 C   0  0  0  0  0  0  0  0  0  0  0  0
    1.2750   -0.1412   -0.8215 H   0  0  0  0  0  0  0  0  0  0  0  0
    0.1878   -1.4894   -1.1796 H   0  0  0  0  0  0  0  0  0  0  0  0
   -0.3729    0.3763   -2.1004 C   0  0  0  0  0  0  0  0  0  0  0  0
   -0.4877   -0.2699   -2.9703 H   0  0  0  0  0  0  0  0  0  0  0  0
   -1.3562    0.7443   -1.8078 H   0  0  0  0  0  0  0  0  0  0  0  0
    0.4856    1.5726   -2.5110 C   0  0  0  0  0  0  0  0  0  0  0  0
    1.5000    1.9009   -1.9247 O   0  0  0  0  0  0  0  0  0  0  0  0
    0.1144    2.2801   -3.5559 N   0  0  0  0  0  0  0  0  0  0  0  0
    0.7153    3.0538   -3.7814 H   0  0  0  0  0  0  0  0  0  0  0  0
   -0.7092    2.0523   -4.0751 H   0  0  0  0  0  0  0  0  0  0  0  0
   -0.7011    1.2952    0.7149 C   0  0  0  0  0  0  0  0  0  0  0  0
   -1.5917    1.9198    0.1415 O   0  0  0  0  0  0  0  0  0  0  0  0
    0.1191    1.8675    1.6055 N   0  0  0  0  0  0  0  0  0  0  0  0
    0.8092    1.2861    2.0537 H   0  0  0  0  0  0  0  0  0  0  0  0
    0.0509    3.2769    1.9894 C   0  0  0  0  0  0  0  0  0  0  0  0
   -0.9494    3.5076    2.3640 H   0  0  0  0  0  0  0  0  0  0  0  0
    0.7844    3.4956    2.7668 H   0  0  0  0  0  0  0  0  0  0  0  0
    0.2468    3.9058    1.1193 H   0  0  0  0  0  0  0  0  0  0  0  0
  5  6  2  0  0  0  0
  5  7  1  0  0  0  0
  2  3  1  0  0  0  0
  2  4  1  0  0  0  0
  2  5  1  0  0  0  0
  1  2  1  0  0  0  0
 22 23  2  0  0  0  0
 22 24  1  0  0  0  0
 19 20  1  0  0  0  0
 19 21  1  0  0  0  0
 17 18  2  0  0  0  0
 17 19  1  0  0  0  0
 14 15  1  0  0  0  0
 14 16  1  0  0  0  0
 14 17  1  0  0  0  0
 11 12  1  0  0  0  0
 11 13  1  0  0  0  0
 11 14  1  0  0  0  0
  9 10  1  0  0  0  0
  9 11  1  0  0  0  0
  9 22  1  0  0  0  0
  7  8  1  0  0  0  0
  7  9  1  0  0  0  0
 26 27  1  0  0  0  0
 26 28  1  0  0  0  0
 26 29  1  0  0  0  0
 24 25  1  0  0  0  0
 24 26  1  0  0  0  0
M  END
$$$$
default_name
  -OEChem-02102213163D

 29 28  0     1  0  0  0  0  0999 V2000
   -3.3998   -3.6239    1.3678 H   0  0  0  0  0  0  0  0  0  0  0  0
   -3.3608   -2.6749    0.8348 C   0  0  0  0  0  0  0  0  0  0  0  0
   -4.0988   -1.9909    1.2498 H   0  0  0  0  0  0  0  0  0  0  0  0
   -3.5618   -2.8419   -0.2222 H   0  0  0  0  0  0  0  0  0  0  0  0
   -1.9818   -2.0809    0.9918 C   0  0  0  0  0  0  0  0  0  0  0  0
   -1.1288   -2.6669    1.6468 O   0  0  0  0  0  0  0  0  0  0  0  0
   -1.7648   -0.9089    0.3998 N   0  0  0  0  0  0  0  0  0  0  0  0
   -2.5238   -0.4719   -0.1032 H   0  0  0  0  0  0  0  0  0  0  0  0
   -0.4848   -0.1959    0.4138 C   0  0  1  0  0  0  0  0  0  0  0  0
    0.1386   -0.6144    1.2058 H   0  0  0  0  0  0  0  0  0  0  0  0
    0.2271   -0.4272   -0.9334 C   0  0  0  0  0  0  0  0  0  0  0  0
    1.2750   -0.1412   -0.8215 H   0  0  0  0  0  0  0  0  0  0  0  0
    0.1878   -1.4894   -1.1796 H   0  0  0  0  0  0  0  0  0  0  0  0
   -0.3729    0.3763   -2.1004 C   0  0  0  0  0  0  0  0  0  0  0  0
   -0.7331   -0.3066   -2.8694 H   0  0  0  0  0  0  0  0  0  0  0  0
   -1.2156    0.9606   -1.7312 H   0  0  0  0  0  0  0  0  0  0  0  0
    0.6277    1.3326   -2.7493 C   0  0  0  0  0  0  0  0  0  0  0  0
    1.7601    1.4978   -2.3360 O   0  0  0  0  0  0  0  0  0  0  0  0
    0.2494    2.0066   -3.8137 N   0  0  0  0  0  0  0  0  0  0  0  0
    0.9467    2.6194   -4.1996 H   0  0  0  0  0  0  0  0  0  0  0  0
   -0.6689    1.9065   -4.1962 H   0  0  0  0  0  0  0  0  0  0  0  0
   -0.7011    1.2952    0.7149 C   0  0  0  0  0  0  0  0  0  0  0  0
   -1.5917    1.9198    0.1415 O   0  0  0  0  0  0  0  0  0  0  0  0
    0.1191    1.8675    1.6055 N   0  0  0  0  0  0  0  0  0  0  0  0
    0.8092    1.2861    2.0537 H   0  0  0  0  0  0  0  0  0  0  0  0
    0.0509    3.2769    1.9894 C   0  0  0  0  0  0  0  0  0  0  0  0
   -0.9494    3.5076    2.3640 H   0  0  0  0  0  0  0  0  0  0  0  0
    0.7844    3.4956    2.7668 H   0  0  0  0  0  0  0  0  0  0  0  0
    0.2468    3.9058    1.1193 H   0  0  0  0  0  0  0  0  0  0  0  0
  5  6  2  0  0  0  0
  5  7  1  0  0  0  0
  2  3  1  0  0  0  0
  2  4  1  0  0  0  0
  2  5  1  0  0  0  0
  1  2  1  0  0  0  0
 22 23  2  0  0  0  0
 22 24  1  0  0  0  0
 19 20  1  0  0  0  0
 19 21  1  0  0  0  0
 17 18  2  0  0  0  0
 17 19  1  0  0  0  0
 14 15  1  0  0  0  0
 14 16  1  0  0  0  0
 14 17  1  0  0  0  0
 11 12  1  0  0  0  0
 11 13  1  0  0  0  0
 11 14  1  0  0  0  0
  9 10  1  0  0  0  0
  9 11  1  0  0  0  0
  9 22  1  0  0  0  0
  7  8  1  0  0  0  0
  7  9  1  0  0  0  0
 26 27  1  0  0  0  0
 26 28  1  0  0  0  0
 26 29  1  0  0  0  0
 24 25  1  0  0  0  0
 24 26  1  0  0  0  0
M  END
$$$$
default_name
  -OEChem-02102213163D

 29 28  0     1  0  0  0  0  0999 V2000
   -3.3998   -3.6239    1.3678 H   0  0  0  0  0  0  0  0  0  0  0  0
   -3.3608   -2.6749    0.8348 C   0  0  0  0  0  0  0  0  0  0  0  0
   -4.0988   -1.9909    1.2498 H   0  0  0  0  0  0  0  0  0  0  0  0
   -3.5618   -2.8419   -0.2222 H   0  0  0  0  0  0  0  0  0  0  0  0
   -1.9818   -2.0809    0.9918 C   0  0  0  0  0  0  0  0  0  0  0  0
   -1.1288   -2.6669    1.6468 O   0  0  0  0  0  0  0  0  0  0  0  0
   -1.7648   -0.9089    0.3998 N   0  0  0  0  0  0  0  0  0  0  0  0
   -2.5238   -0.4719   -0.1032 H   0  0  0  0  0  0  0  0  0  0  0  0
   -0.4848   -0.1959    0.4138 C   0  0  1  0  0  0  0  0  0  0  0  0
    0.1386   -0.6144    1.2058 H   0  0  0  0  0  0  0  0  0  0  0  0
    0.2271   -0.4272   -0.9334 C   0  0  0  0  0  0  0  0  0  0  0  0
    1.2750   -0.1412   -0.8215 H   0  0  0  0  0  0  0  0  0  0  0  0
    0.1878   -1.4894   -1.1796 H   0  0  0  0  0  0  0  0  0  0  0  0
   -0.3729    0.3763   -2.1004 C   0  0  0  0  0  0  0  0  0  0  0  0
   -0.9637   -0.2837   -2.7351 H   0  0  0  0  0  0  0  0  0  0  0  0
   -1.0270    1.1497   -1.6979 H   0  0  0  0  0  0  0  0  0  0  0  0
    0.6856    1.0489   -2.9744 C   0  0  0  0  0  0  0  0  0  0  0  0
    1.8766    1.0160   -2.7277 O   0  0  0  0  0  0  0  0  0  0  0  0
    0.2913    1.6900   -4.0532 N   0  0  0  0  0  0  0  0  0  0  0  0
    1.0284    2.1121   -4.5909 H   0  0  0  0  0  0  0  0  0  0  0  0
   -0.6750    1.7455   -4.3039 H   0  0  0  0  0  0  0  0  0  0  0  0
   -0.7011    1.2952    0.7149 C   0  0  0  0  0  0  0  0  0  0  0  0
   -1.5917    1.9198    0.1415 O   0  0  0  0  0  0  0  0  0  0  0  0
    0.1191    1.8675    1.6055 N   0  0  0  0  0  0  0  0  0  0  0  0
    0.8092    1.2861    2.0537 H   0  0  0  0  0  0  0  0  0  0  0  0
    0.0509    3.2769    1.9894 C   0  0  0  0  0  0  0  0  0  0  0  0
   -0.9494    3.5076    2.3640 H   0  0  0  0  0  0  0  0  0  0  0  0
    0.7844    3.4956    2.7668 H   0  0  0  0  0  0  0  0  0  0  0  0
    0.2468    3.9058    1.1193 H   0  0  0  0  0  0  0  0  0  0  0  0
  5  6  2  0  0  0  0
  5  7  1  0  0  0  0
  2  3  1  0  0  0  0
  2  4  1  0  0  0  0
  2  5  1  0  0  0  0
  1  2  1  0  0  0  0
 22 23  2  0  0  0  0
 22 24  1  0  0  0  0
 19 20  1  0  0  0  0
 19 21  1  0  0  0  0
 17 18  2  0  0  0  0
 17 19  1  0  0  0  0
 14 15  1  0  0  0  0
 14 16  1  0  0  0  0
 14 17  1  0  0  0  0
 11 12  1  0  0  0  0
 11 13  1  0  0  0  0
 11 14  1  0  0  0  0
  9 10  1  0  0  0  0
  9 11  1  0  0  0  0
  9 22  1  0  0  0  0
  7  8  1  0  0  0  0
  7  9  1  0  0  0  0
 26 27  1  0  0  0  0
 26 28  1  0  0  0  0
 26 29  1  0  0  0  0
 24 25  1  0  0  0  0
 24 26  1  0  0  0  0
M  END
$$$$
default_name
  -OEChem-02102213163D

 29 28  0     1  0  0  0  0  0999 V2000
   -3.3998   -3.6239    1.3678 H   0  0  0  0  0  0  0  0  0  0  0  0
   -3.3608   -2.6749    0.8348 C   0  0  0  0  0  0  0  0  0  0  0  0
   -4.0988   -1.9909    1.2498 H   0  0  0  0  0  0  0  0  0  0  0  0
   -3.5618   -2.8419   -0.2222 H   0  0  0  0  0  0  0  0  0  0  0  0
   -1.9818   -2.0809    0.9918 C   0  0  0  0  0  0  0  0  0  0  0  0
   -1.1288   -2.6669    1.6468 O   0  0  0  0  0  0  0  0  0  0  0  0
   -1.7648   -0.9089    0.3998 N   0  0  0  0  0  0  0  0  0  0  0  0
   -2.5238   -0.4719   -0.1032 H   0  0  0  0  0  0  0  0  0  0  0  0
   -0.4848   -0.1959    0.4138 C   0  0  1  0  0  0  0  0  0  0  0  0
    0.1386   -0.6144    1.2058 H   0  0  0  0  0  0  0  0  0  0  0  0
    0.2271   -0.4272   -0.9334 C   0  0  0  0  0  0  0  0  0  0  0  0
    1.2750   -0.1412   -0.8215 H   0  0  0  0  0  0  0  0  0  0  0  0
    0.1878   -1.4894   -1.1796 H   0  0  0  0  0  0  0  0  0  0  0  0
   -0.3729    0.3763   -2.1004 C   0  0  0  0  0  0  0  0  0  0  0  0
   -1.1638   -0.2028   -2.5765 H   0  0  0  0  0  0  0  0  0  0  0  0
   -0.8032    1.2987   -1.7104 H   0  0  0  0  0  0  0  0  0  0  0  0
    0.6554    0.7407   -3.1711 C   0  0  0  0  0  0  0  0  0  0  0  0
    1.8416    0.4881   -3.0732 O   0  0  0  0  0  0  0  0  0  0  0  0
    0.2373    1.3517   -4.2584 N   0  0  0  0  0  0  0  0  0  0  0  0
    0.9549    1.5665   -4.9287 H   0  0  0  0  0  0  0  0  0  0  0  0
   -0.7270    1.5803   -4.3909 H   0  0  0  0  0  0  0  0  0  0  0  0
   -0.7011    1.2952    0.7149 C   0  0  0  0  0  0  0  0  0  0  0  0
   -1.5917    1.9198    0.1415 O   0  0  0  0  0  0  0  0  0  0  0  0
    0.1191    1.8675    1.6055 N   0  0  0  0  0  0  0  0  0  0  0  0
    0.8092    1.2861    2.0537 H   0  0  0  0  0  0  0  0  0  0  0  0
    0.0509    3.2769    1.9894 C   0  0  0  0  0  0  0  0  0  0  0  0
   -0.9494    3.5076    2.3640 H   0  0  0  0  0  0  0  0  0  0  0  0
    0.7844    3.4956    2.7668 H   0  0  0  0  0  0  0  0  0  0  0  0
    0.2468    3.9058    1.1193 H   0  0  0  0  0  0  0  0  0  0  0  0
  5  6  2  0  0  0  0
  5  7  1  0  0  0  0
  2  3  1  0  0  0  0
  2  4  1  0  0  0  0
  2  5  1  0  0  0  0
  1  2  1  0  0  0  0
 22 23  2  0  0  0  0
 22 24  1  0  0  0  0
 19 20  1  0  0  0  0
 19 21  1  0  0  0  0
 17 18  2  0  0  0  0
 17 19  1  0  0  0  0
 14 15  1  0  0  0  0
 14 16  1  0  0  0  0
 14 17  1  0  0  0  0
 11 12  1  0  0  0  0
 11 13  1  0  0  0  0
 11 14  1  0  0  0  0
  9 10  1  0  0  0  0
  9 11  1  0  0  0  0
  9 22  1  0  0  0  0
  7  8  1  0  0  0  0
  7  9  1  0  0  0  0
 26 27  1  0  0  0  0
 26 28  1  0  0  0  0
 26 29  1  0  0  0  0
 24 25  1  0  0  0  0
 24 26  1  0  0  0  0
M  END
$$$$
default_name
  -OEChem-02102213163D

 29 28  0     1  0  0  0  0  0999 V2000
   -3.3998   -3.6239    1.3678 H   0  0  0  0  0  0  0  0  0  0  0  0
   -3.3608   -2.6749    0.8348 C   0  0  0  0  0  0  0  0  0  0  0  0
   -4.0988   -1.9909    1.2498 H   0  0  0  0  0  0  0  0  0  0  0  0
   -3.5618   -2.8419   -0.2222 H   0  0  0  0  0  0  0  0  0  0  0  0
   -1.9818   -2.0809    0.9918 C   0  0  0  0  0  0  0  0  0  0  0  0
   -1.1288   -2.6669    1.6468 O   0  0  0  0  0  0  0  0  0  0  0  0
   -1.7648   -0.9089    0.3998 N   0  0  0  0  0  0  0  0  0  0  0  0
   -2.5238   -0.4719   -0.1032 H   0  0  0  0  0  0  0  0  0  0  0  0
   -0.4848   -0.1959    0.4138 C   0  0  1  0  0  0  0  0  0  0  0  0
    0.1386   -0.6144    1.2058 H   0  0  0  0  0  0  0  0  0  0  0  0
    0.2271   -0.4272   -0.9334 C   0  0  0  0  0  0  0  0  0  0  0  0
    1.2750   -0.1412   -0.8215 H   0  0  0  0  0  0  0  0  0  0  0  0
    0.1878   -1.4894   -1.1796 H   0  0  0  0  0  0  0  0  0  0  0  0
   -0.3729    0.3763   -2.1004 C   0  0  0  0  0  0  0  0  0  0  0  0
   -1.3198   -0.0693   -2.4044 H   0  0  0  0  0  0  0  0  0  0  0  0
   -0.5595    1.3974   -1.7678 H   0  0  0  0  0  0  0  0  0  0  0  0
    0.5392    0.4290   -3.3260 C   0  0  0  0  0  0  0  0  0  0  0  0
    1.6575   -0.0498   -3.3489 O   0  0  0  0  0  0  0  0  0  0  0  0
    0.0909    1.0148   -4.4150 N   0  0  0  0  0  0  0  0  0  0  0  0
    0.7311    1.0199   -5.1900 H   0  0  0  0  0  0  0  0  0  0  0  0
   -0.8215    1.4222   -4.4512 H   0  0  0  0  0  0  0  0  0  0  0  0
   -0.7011    1.2952    0.7149 C   0  0  0  0  0  0  0  0  0  0  0  0
   -1.5917    1.9198    0.1415 O   0  0  0  0  0  0  0  0  0  0  0  0
    0.1191    1.8675    1.6055 N   0  0  0  0  0  0  0  0  0  0  0  0
    0.8092    1.2861    2.0537 H   0  0  0  0  0  0  0  0  0  0  0  0
    0.0509    3.2769    1.9894 C   0  0  0  0  0  0  0  0  0  0  0  0
   -0.9494    3.5076    2.3640 H   0  0  0  0  0  0  0  0  0  0  0  0
    0.7844    3.4956    2.7668 H   0  0  0  0  0  0  0  0  0  0  0  0
    0.2468    3.9058    1.1193 H   0  0  0  0  0  0  0  0  0  0  0  0
  5  6  2  0  0  0  0
  5  7  1  0  0  0  0
  2  3  1  0  0  0  0
  2  4  1  0  0  0  0
  2  5  1  0  0  0  0
  1  2  1  0  0  0  0
 22 23  2  0  0  0  0
 22 24  1  0  0  0  0
 19 20  1  0  0  0  0
 19 21  1  0  0  0  0
 17 18  2  0  0  0  0
 17 19  1  0  0  0  0
 14 15  1  0  0  0  0
 14 16  1  0  0  0  0
 14 17  1  0  0  0  0
 11 12  1  0  0  0  0
 11 13  1  0  0  0  0
 11 14  1  0  0  0  0
  9 10  1  0  0  0  0
  9 11  1  0  0  0  0
  9 22  1  0  0  0  0
  7  8  1  0  0  0  0
  7  9  1  0  0  0  0
 26 27  1  0  0  0  0
 26 28  1  0  0  0  0
 26 29  1  0  0  0  0
 24 25  1  0  0  0  0
 24 26  1  0  0  0  0
M  END
$$$$
default_name
  -OEChem-02102213163D

 29 28  0     1  0  0  0  0  0999 V2000
   -3.3998   -3.6239    1.3678 H   0  0  0  0  0  0  0  0  0  0  0  0
   -3.3608   -2.6749    0.8348 C   0  0  0  0  0  0  0  0  0  0  0  0
   -4.0988   -1.9909    1.2498 H   0  0  0  0  0  0  0  0  0  0  0  0
   -3.5618   -2.8419   -0.2222 H   0  0  0  0  0  0  0  0  0  0  0  0
   -1.9818   -2.0809    0.9918 C   0  0  0  0  0  0  0  0  0  0  0  0
   -1.1288   -2.6669    1.6468 O   0  0  0  0  0  0  0  0  0  0  0  0
   -1.7648   -0.9089    0.3998 N   0  0  0  0  0  0  0  0  0  0  0  0
   -2.5238   -0.4719   -0.1032 H   0  0  0  0  0  0  0  0  0  0  0  0
   -0.4848   -0.1959    0.4138 C   0  0  1  0  0  0  0  0  0  0  0  0
    0.1386   -0.6144    1.2058 H   0  0  0  0  0  0  0  0  0  0  0  0
    0.2271   -0.4272   -0.9334 C   0  0  0  0  0  0  0  0  0  0  0  0
    1.3051   -0.4032   -0.7607 H   0  0  0  0  0  0  0  0  0  0  0  0
   -0.0360   -1.4167   -1.3103 H   0  0  0  0  0  0  0  0  0  0  0  0
   -0.1155    0.6210   -2.0064 C   0  0  0  0  0  0  0  0  0  0  0  0
   -1.1888    0.6158   -2.1951 H   0  0  0  0  0  0  0  0  0  0  0  0
    0.1689    1.6076   -1.6407 H   0  0  0  0  0  0  0  0  0  0  0  0
    0.5988    0.3767   -3.3356 C   0  0  0  0  0  0  0  0  0  0  0  0
    1.4140   -0.5108   -3.5039 O   0  0  0  0  0  0  0  0  0  0  0  0
    0.3131    1.1601   -4.3529 N   0  0  0  0  0  0  0  0  0  0  0  0
    0.8108    0.9541   -5.2017 H   0  0  0  0  0  0  0  0  0  0  0  0
   -0.3511    1.9028   -4.2698 H   0  0  0  0  0  0  0  0  0  0  0  0
   -0.7011    1.2952    0.7149 C   0  0  0  0  0  0  0  0  0  0  0  0
   -1.5917    1.9198    0.1415 O   0  0  0  0  0  0  0  0  0  0  0  0
    0.1191    1.8675    1.6055 N   0  0  0  0  0  0  0  0  0  0  0  0
    0.8092    1.2861    2.0537 H   0  0  0  0  0  0  0  0  0  0  0  0
    0.0509    3.2769    1.9894 C   0  0  0  0  0  0  0  0  0  0  0  0
   -0.9494    3.5076    2.3640 H   0  0  0  0  0  0  0  0  0  0  0  0
    0.7844    3.4956    2.7668 H   0  0  0  0  0  0  0  0  0  0  0  0
    0.2468    3.9058    1.1193 H   0  0  0  0  0  0  0  0  0  0  0  0
  5  6  2  0  0  0  0
  5  7  1  0  0  0  0
  2  3  1  0  0  0  0
  2  4  1  0  0  0  0
  2  5  1  0  0  0  0
  1  2  1  0  0  0  0
 22 23  2  0  0  0  0
 22 24  1  0  0  0  0
 19 20  1  0  0  0  0
 19 21  1  0  0  0  0
 17 18  2  0  0  0  0
 17 19  1  0  0  0  0
 14 15  1  0  0  0  0
 14 16  1  0  0  0  0
 14 17  1  0  0  0  0
 11 12  1  0  0  0  0
 11 13  1  0  0  0  0
 11 14  1  0  0  0  0
  9 10  1  0  0  0  0
  9 11  1  0  0  0  0
  9 22  1  0  0  0  0
  7  8  1  0  0  0  0
  7  9  1  0  0  0  0
 26 27  1  0  0  0  0
 26 28  1  0  0  0  0
 26 29  1  0  0  0  0
 24 25  1  0  0  0  0
 24 26  1  0  0  0  0
M  END
$$$$
default_name
  -OEChem-02102213163D

 29 28  0     1  0  0  0  0  0999 V2000
   -3.3998   -3.6239    1.3678 H   0  0  0  0  0  0  0  0  0  0  0  0
   -3.3608   -2.6749    0.8348 C   0  0  0  0  0  0  0  0  0  0  0  0
   -4.0988   -1.9909    1.2498 H   0  0  0  0  0  0  0  0  0  0  0  0
   -3.5618   -2.8419   -0.2222 H   0  0  0  0  0  0  0  0  0  0  0  0
   -1.9818   -2.0809    0.9918 C   0  0  0  0  0  0  0  0  0  0  0  0
   -1.1288   -2.6669    1.6468 O   0  0  0  0  0  0  0  0  0  0  0  0
   -1.7648   -0.9089    0.3998 N   0  0  0  0  0  0  0  0  0  0  0  0
   -2.5238   -0.4719   -0.1032 H   0  0  0  0  0  0  0  0  0  0  0  0
   -0.4848   -0.1959    0.4138 C   0  0  1  0  0  0  0  0  0  0  0  0
    0.1386   -0.6144    1.2058 H   0  0  0  0  0  0  0  0  0  0  0  0
    0.2271   -0.4272   -0.9334 C   0  0  0  0  0  0  0  0  0  0  0  0
    1.3051   -0.4032   -0.7607 H   0  0  0  0  0  0  0  0  0  0  0  0
   -0.0360   -1.4167   -1.3103 H   0  0  0  0  0  0  0  0  0  0  0  0
   -0.1155    0.6210   -2.0064 C   0  0  0  0  0  0  0  0  0  0  0  0
   -1.1893    0.8073   -2.0079 H   0  0  0  0  0  0  0  0  0  0  0  0
    0.3991    1.5519   -1.7685 H   0  0  0  0  0  0  0  0  0  0  0  0
    0.2914    0.1935   -3.4164 C   0  0  0  0  0  0  0  0  0  0  0  0
    0.8941   -0.8362   -3.6557 O   0  0  0  0  0  0  0  0  0  0  0  0
   -0.0324    0.9734   -4.4249 N   0  0  0  0  0  0  0  0  0  0  0  0
    0.2589    0.6436   -5.3288 H   0  0  0  0  0  0  0  0  0  0  0  0
   -0.5298    1.8293   -4.2845 H   0  0  0  0  0  0  0  0  0  0  0  0
   -0.7011    1.2952    0.7149 C   0  0  0  0  0  0  0  0  0  0  0  0
   -1.5917    1.9198    0.1415 O   0  0  0  0  0  0  0  0  0  0  0  0
    0.1191    1.8675    1.6055 N   0  0  0  0  0  0  0  0  0  0  0  0
    0.8092    1.2861    2.0537 H   0  0  0  0  0  0  0  0  0  0  0  0
    0.0509    3.2769    1.9894 C   0  0  0  0  0  0  0  0  0  0  0  0
   -0.9494    3.5076    2.3640 H   0  0  0  0  0  0  0  0  0  0  0  0
    0.7844    3.4956    2.7668 H   0  0  0  0  0  0  0  0  0  0  0  0
    0.2468    3.9058    1.1193 H   0  0  0  0  0  0  0  0  0  0  0  0
  5  6  2  0  0  0  0
  5  7  1  0  0  0  0
  2  3  1  0  0  0  0
  2  4  1  0  0  0  0
  2  5  1  0  0  0  0
  1  2  1  0  0  0  0
 22 23  2  0  0  0  0
 22 24  1  0  0  0  0
 19 20  1  0  0  0  0
 19 21  1  0  0  0  0
 17 18  2  0  0  0  0
 17 19  1  0  0  0  0
 14 15  1  0  0  0  0
 14 16  1  0  0  0  0
 14 17  1  0  0  0  0
 11 12  1  0  0  0  0
 11 13  1  0  0  0  0
 11 14  1  0  0  0  0
  9 10  1  0  0  0  0
  9 11  1  0  0  0  0
  9 22  1  0  0  0  0
  7  8  1  0  0  0  0
  7  9  1  0  0  0  0
 26 27  1  0  0  0  0
 26 28  1  0  0  0  0
 26 29  1  0  0  0  0
 24 25  1  0  0  0  0
 24 26  1  0  0  0  0
M  END
$$$$
default_name
  -OEChem-02102213163D

 29 28  0     1  0  0  0  0  0999 V2000
   -3.3998   -3.6239    1.3678 H   0  0  0  0  0  0  0  0  0  0  0  0
   -3.3608   -2.6749    0.8348 C   0  0  0  0  0  0  0  0  0  0  0  0
   -4.0988   -1.9909    1.2498 H   0  0  0  0  0  0  0  0  0  0  0  0
   -3.5618   -2.8419   -0.2222 H   0  0  0  0  0  0  0  0  0  0  0  0
   -1.9818   -2.0809    0.9918 C   0  0  0  0  0  0  0  0  0  0  0  0
   -1.1288   -2.6669    1.6468 O   0  0  0  0  0  0  0  0  0  0  0  0
   -1.7648   -0.9089    0.3998 N   0  0  0  0  0  0  0  0  0  0  0  0
   -2.5238   -0.4719   -0.1032 H   0  0  0  0  0  0  0  0  0  0  0  0
   -0.4848   -0.1959    0.4138 C   0  0  1  0  0  0  0  0  0  0  0  0
    0.1386   -0.6144    1.2058 H   0  0  0  0  0  0  0  0  0  0  0  0
    0.2271   -0.4272   -0.9334 C   0  0  0  0  0  0  0  0  0  0  0  0
    1.3051   -0.4032   -0.7607 H   0  0  0  0  0  0  0  0  0  0  0  0
   -0.0360   -1.4167   -1.3103 H   0  0  0  0  0  0  0  0  0  0  0  0
   -0.1155    0.6210   -2.0064 C   0  0  0  0  0  0  0  0  0  0  0  0
   -1.1221    1.0032   -1.8380 H   0  0  0  0  0  0  0  0  0  0  0  0
    0.5888    1.4493   -1.9294 H   0  0  0  0  0  0  0  0  0  0  0  0
   -0.0528    0.0673   -3.4298 C   0  0  0  0  0  0  0  0  0  0  0  0
    0.3064   -1.0653   -3.6919 O   0  0  0  0  0  0  0  0  0  0  0  0
   -0.4125    0.8513   -4.4228 N   0  0  0  0  0  0  0  0  0  0  0  0
   -0.3527    0.4360   -5.3363 H   0  0  0  0  0  0  0  0  0  0  0  0
   -0.7183    1.7897   -4.2630 H   0  0  0  0  0  0  0  0  0  0  0  0
   -0.7011    1.2952    0.7149 C   0  0  0  0  0  0  0  0  0  0  0  0
   -1.5917    1.9198    0.1415 O   0  0  0  0  0  0  0  0  0  0  0  0
    0.1191    1.8675    1.6055 N   0  0  0  0  0  0  0  0  0  0  0  0
    0.8092    1.2861    2.0537 H   0  0  0  0  0  0  0  0  0  0  0  0
    0.0509    3.2769    1.9894 C   0  0  0  0  0  0  0  0  0  0  0  0
   -0.9494    3.5076    2.3640 H   0  0  0  0  0  0  0  0  0  0  0  0
    0.7844    3.4956    2.7668 H   0  0  0  0  0  0  0  0  0  0  0  0
    0.2468    3.9058    1.1193 H   0  0  0  0  0  0  0  0  0  0  0  0
  5  6  2  0  0  0  0
  5  7  1  0  0  0  0
  2  3  1  0  0  0  0
  2  4  1  0  0  0  0
  2  5  1  0  0  0  0
  1  2  1  0  0  0  0
 22 23  2  0  0  0  0
 22 24  1  0  0  0  0
 19 20  1  0  0  0  0
 19 21  1  0  0  0  0
 17 18  2  0  0  0  0
 17 19  1  0  0  0  0
 14 15  1  0  0  0  0
 14 16  1  0  0  0  0
 14 17  1  0  0  0  0
 11 12  1  0  0  0  0
 11 13  1  0  0  0  0
 11 14  1  0  0  0  0
  9 10  1  0  0  0  0
  9 11  1  0  0  0  0
  9 22  1  0  0  0  0
  7  8  1  0  0  0  0
  7  9  1  0  0  0  0
 26 27  1  0  0  0  0
 26 28  1  0  0  0  0
 26 29  1  0  0  0  0
 24 25  1  0  0  0  0
 24 26  1  0  0  0  0
M  END
$$$$
default_name
  -OEChem-02102213163D

 29 28  0     1  0  0  0  0  0999 V2000
   -3.3998   -3.6239    1.3678 H   0  0  0  0  0  0  0  0  0  0  0  0
   -3.3608   -2.6749    0.8348 C   0  0  0  0  0  0  0  0  0  0  0  0
   -4.0988   -1.9909    1.2498 H   0  0  0  0  0  0  0  0  0  0  0  0
   -3.5618   -2.8419   -0.2222 H   0  0  0  0  0  0  0  0  0  0  0  0
   -1.9818   -2.0809    0.9918 C   0  0  0  0  0  0  0  0  0  0  0  0
   -1.1288   -2.6669    1.6468 O   0  0  0  0  0  0  0  0  0  0  0  0
   -1.7648   -0.9089    0.3998 N   0  0  0  0  0  0  0  0  0  0  0  0
   -2.5238   -0.4719   -0.1032 H   0  0  0  0  0  0  0  0  0  0  0  0
   -0.4848   -0.1959    0.4138 C   0  0  1  0  0  0  0  0  0  0  0  0
    0.1386   -0.6144    1.2058 H   0  0  0  0  0  0  0  0  0  0  0  0
    0.2271   -0.4272   -0.9334 C   0  0  0  0  0  0  0  0  0  0  0  0
    1.3051   -0.4032   -0.7607 H   0  0  0  0  0  0  0  0  0  0  0  0
   -0.0360   -1.4167   -1.3103 H   0  0  0  0  0  0  0  0  0  0  0  0
   -0.1155    0.6210   -2.0064 C   0  0  0  0  0  0  0  0  0  0  0  0
   -0.9919    1.1901   -1.6970 H   0  0  0  0  0  0  0  0  0  0  0  0
    0.7252    1.3066   -2.1124 H   0  0  0  0  0  0  0  0  0  0  0  0
   -0.4104    0.0067   -3.3747 C   0  0  0  0  0  0  0  0  0  0  0  0
   -0.3090   -1.1827   -3.6101 O   0  0  0  0  0  0  0  0  0  0  0  0
   -0.8014    0.8021   -4.3467 N   0  0  0  0  0  0  0  0  0  0  0  0
   -0.9822    0.3454   -5.2238 H   0  0  0  0  0  0  0  0  0  0  0  0
   -0.9037    1.7868   -4.2067 H   0  0  0  0  0  0  0  0  0  0  0  0
   -0.7011    1.2952    0.7149 C   0  0  0  0  0  0  0  0  0  0  0  0
   -1.5917    1.9198    0.1415 O   0  0  0  0  0  0  0  0  0  0  0  0
    0.1191    1.8675    1.6055 N   0  0  0  0  0  0  0  0  0  0  0  0
    0.8092    1.2861    2.0537 H   0  0  0  0  0  0  0  0  0  0  0  0
    0.0509    3.2769    1.9894 C   0  0  0  0  0  0  0  0  0  0  0  0
   -0.9494    3.5076    2.3640 H   0  0  0  0  0  0  0  0  0  0  0  0
    0.7844    3.4956    2.7668 H   0  0  0  0  0  0  0  0  0  0  0  0
    0.2468    3.9058    1.1193 H   0  0  0  0  0  0  0  0  0  0  0  0
  5  6  2  0  0  0  0
  5  7  1  0  0  0  0
  2  3  1  0  0  0  0
  2  4  1  0  0  0  0
  2  5  1  0  0  0  0
  1  2  1  0  0  0  0
 22 23  2  0  0  0  0
 22 24  1  0  0  0  0
 19 20  1  0  0  0  0
 19 21  1  0  0  0  0
 17 18  2  0  0  0  0
 17 19  1  0  0  0  0
 14 15  1  0  0  0  0
 14 16  1  0  0  0  0
 14 17  1  0  0  0  0
 11 12  1  0  0  0  0
 11 13  1  0  0  0  0
 11 14  1  0  0  0  0
  9 10  1  0  0  0  0
  9 11  1  0  0  0  0
  9 22  1  0  0  0  0
  7  8  1  0  0  0  0
  7  9  1  0  0  0  0
 26 27  1  0  0  0  0
 26 28  1  0  0  0  0
 26 29  1  0  0  0  0
 24 25  1  0  0  0  0
 24 26  1  0  0  0  0
M  END
$$$$
default_name
  -OEChem-02102213163D

 29 28  0     1  0  0  0  0  0999 V2000
   -3.3998   -3.6239    1.3678 H   0  0  0  0  0  0  0  0  0  0  0  0
   -3.3608   -2.6749    0.8348 C   0  0  0  0  0  0  0  0  0  0  0  0
   -4.0988   -1.9909    1.2498 H   0  0  0  0  0  0  0  0  0  0  0  0
   -3.5618   -2.8419   -0.2222 H   0  0  0  0  0  0  0  0  0  0  0  0
   -1.9818   -2.0809    0.9918 C   0  0  0  0  0  0  0  0  0  0  0  0
   -1.1288   -2.6669    1.6468 O   0  0  0  0  0  0  0  0  0  0  0  0
   -1.7648   -0.9089    0.3998 N   0  0  0  0  0  0  0  0  0  0  0  0
   -2.5238   -0.4719   -0.1032 H   0  0  0  0  0  0  0  0  0  0  0  0
   -0.4848   -0.1959    0.4138 C   0  0  1  0  0  0  0  0  0  0  0  0
    0.1386   -0.6144    1.2058 H   0  0  0  0  0  0  0  0  0  0  0  0
    0.2271   -0.4272   -0.9334 C   0  0  0  0  0  0  0  0  0  0  0  0
    1.3051   -0.4032   -0.7607 H   0  0  0  0  0  0  0  0  0  0  0  0
   -0.0360   -1.4167   -1.3103 H   0  0  0  0  0  0  0  0  0  0  0  0
   -0.1155    0.6210   -2.0064 C   0  0  0  0  0  0  0  0  0  0  0  0
   -0.8076    1.3552   -1.5945 H   0  0  0  0  0  0  0  0  0  0  0  0
    0.7989    1.1336   -2.3049 H   0  0  0  0  0  0  0  0  0  0  0  0
   -0.7571    0.0160   -3.2550 C   0  0  0  0  0  0  0  0  0  0  0  0
   -0.9103   -1.1803   -3.4158 O   0  0  0  0  0  0  0  0  0  0  0  0
   -1.1725    0.8291   -4.2018 N   0  0  0  0  0  0  0  0  0  0  0  0
   -1.5868    0.3780   -4.9989 H   0  0  0  0  0  0  0  0  0  0  0  0
   -1.0734    1.8206   -4.1194 H   0  0  0  0  0  0  0  0  0  0  0  0
   -0.7011    1.2952    0.7149 C   0  0  0  0  0  0  0  0  0  0  0  0
   -1.5917    1.9198    0.1415 O   0  0  0  0  0  0  0  0  0  0  0  0
    0.1191    1.8675    1.6055 N   0  0  0  0  0  0  0  0  0  0  0  0
    0.8092    1.2861    2.0537 H   0  0  0  0  0  0  0  0  0  0  0  0
    0.0509    3.2769    1.9894 C   0  0  0  0  0  0  0  0  0  0  0  0
   -0.9494    3.5076    2.3640 H   0  0  0  0  0  0  0  0  0  0  0  0
    0.7844    3.4956    2.7668 H   0  0  0  0  0  0  0  0  0  0  0  0
    0.2468    3.9058    1.1193 H   0  0  0  0  0  0  0  0  0  0  0  0
  5  6  2  0  0  0  0
  5  7  1  0  0  0  0
  2  3  1  0  0  0  0
  2  4  1  0  0  0  0
  2  5  1  0  0  0  0
  1  2  1  0  0  0  0
 22 23  2  0  0  0  0
 22 24  1  0  0  0  0
 19 20  1  0  0  0  0
 19 21  1  0  0  0  0
 17 18  2  0  0  0  0
 17 19  1  0  0  0  0
 14 15  1  0  0  0  0
 14 16  1  0  0  0  0
 14 17  1  0  0  0  0
 11 12  1  0  0  0  0
 11 13  1  0  0  0  0
 11 14  1  0  0  0  0
  9 10  1  0  0  0  0
  9 11  1  0  0  0  0
  9 22  1  0  0  0  0
  7  8  1  0  0  0  0
  7  9  1  0  0  0  0
 26 27  1  0  0  0  0
 26 28  1  0  0  0  0
 26 29  1  0  0  0  0
 24 25  1  0  0  0  0
 24 26  1  0  0  0  0
M  END
$$$$
default_name
  -OEChem-02102213163D

 29 28  0     1  0  0  0  0  0999 V2000
   -3.3998   -3.6239    1.3678 H   0  0  0  0  0  0  0  0  0  0  0  0
   -3.3608   -2.6749    0.8348 C   0  0  0  0  0  0  0  0  0  0  0  0
   -4.0988   -1.9909    1.2498 H   0  0  0  0  0  0  0  0  0  0  0  0
   -3.5618   -2.8419   -0.2222 H   0  0  0  0  0  0  0  0  0  0  0  0
   -1.9818   -2.0809    0.9918 C   0  0  0  0  0  0  0  0  0  0  0  0
   -1.1288   -2.6669    1.6468 O   0  0  0  0  0  0  0  0  0  0  0  0
   -1.7648   -0.9089    0.3998 N   0  0  0  0  0  0  0  0  0  0  0  0
   -2.5238   -0.4719   -0.1032 H   0  0  0  0  0  0  0  0  0  0  0  0
   -0.4848   -0.1959    0.4138 C   0  0  1  0  0  0  0  0  0  0  0  0
    0.1386   -0.6144    1.2058 H   0  0  0  0  0  0  0  0  0  0  0  0
    0.2271   -0.4272   -0.9334 C   0  0  0  0  0  0  0  0  0  0  0  0
    1.3051   -0.4032   -0.7607 H   0  0  0  0  0  0  0  0  0  0  0  0
   -0.0360   -1.4167   -1.3103 H   0  0  0  0  0  0  0  0  0  0  0  0
   -0.1155    0.6210   -2.0064 C   0  0  0  0  0  0  0  0  0  0  0  0
   -0.5816    1.4874   -1.5376 H   0  0  0  0  0  0  0  0  0  0  0  0
    0.8049    0.9421   -2.4939 H   0  0  0  0  0  0  0  0  0  0  0  0
   -1.0691    0.0944   -3.0787 C   0  0  0  0  0  0  0  0  0  0  0  0
   -1.4563   -1.0583   -3.1222 O   0  0  0  0  0  0  0  0  0  0  0  0
   -1.5005    0.9305   -3.9980 N   0  0  0  0  0  0  0  0  0  0  0  0
   -2.1252    0.5315   -4.6770 H   0  0  0  0  0  0  0  0  0  0  0  0
   -1.2159    1.8890   -4.0072 H   0  0  0  0  0  0  0  0  0  0  0  0
   -0.7011    1.2952    0.7149 C   0  0  0  0  0  0  0  0  0  0  0  0
   -1.5917    1.9198    0.1415 O   0  0  0  0  0  0  0  0  0  0  0  0
    0.1191    1.8675    1.6055 N   0  0  0  0  0  0  0  0  0  0  0  0
    0.8092    1.2861    2.0537 H   0  0  0  0  0  0  0  0  0  0  0  0
    0.0509    3.2769    1.9894 C   0  0  0  0  0  0  0  0  0  0  0  0
   -0.9494    3.5076    2.3640 H   0  0  0  0  0  0  0  0  0  0  0  0
    0.7844    3.4956    2.7668 H   0  0  0  0  0  0  0  0  0  0  0  0
    0.2468    3.9058    1.1193 H   0  0  0  0  0  0  0  0  0  0  0  0
  5  6  2  0  0  0  0
  5  7  1  0  0  0  0
  2  3  1  0  0  0  0
  2  4  1  0  0  0  0
  2  5  1  0  0  0  0
  1  2  1  0  0  0  0
 22 23  2  0  0  0  0
 22 24  1  0  0  0  0
 19 20  1  0  0  0  0
 19 21  1  0  0  0  0
 17 18  2  0  0  0  0
 17 19  1  0  0  0  0
 14 15  1  0  0  0  0
 14 16  1  0  0  0  0
 14 17  1  0  0  0  0
 11 12  1  0  0  0  0
 11 13  1  0  0  0  0
 11 14  1  0  0  0  0
  9 10  1  0  0  0  0
  9 11  1  0  0  0  0
  9 22  1  0  0  0  0
  7  8  1  0  0  0  0
  7  9  1  0  0  0  0
 26 27  1  0  0  0  0
 26 28  1  0  0  0  0
 26 29  1  0  0  0  0
 24 25  1  0  0  0  0
 24 26  1  0  0  0  0
M  END
$$$$
default_name
  -OEChem-02102213163D

 29 28  0     1  0  0  0  0  0999 V2000
   -3.3998   -3.6239    1.3678 H   0  0  0  0  0  0  0  0  0  0  0  0
   -3.3608   -2.6749    0.8348 C   0  0  0  0  0  0  0  0  0  0  0  0
   -4.0988   -1.9909    1.2498 H   0  0  0  0  0  0  0  0  0  0  0  0
   -3.5618   -2.8419   -0.2222 H   0  0  0  0  0  0  0  0  0  0  0  0
   -1.9818   -2.0809    0.9918 C   0  0  0  0  0  0  0  0  0  0  0  0
   -1.1288   -2.6669    1.6468 O   0  0  0  0  0  0  0  0  0  0  0  0
   -1.7648   -0.9089    0.3998 N   0  0  0  0  0  0  0  0  0  0  0  0
   -2.5238   -0.4719   -0.1032 H   0  0  0  0  0  0  0  0  0  0  0  0
   -0.4848   -0.1959    0.4138 C   0  0  1  0  0  0  0  0  0  0  0  0
    0.1386   -0.6144    1.2058 H   0  0  0  0  0  0  0  0  0  0  0  0
    0.2271   -0.4272   -0.9334 C   0  0  0  0  0  0  0  0  0  0  0  0
    1.3051   -0.4032   -0.7607 H   0  0  0  0  0  0  0  0  0  0  0  0
   -0.0360   -1.4167   -1.3103 H   0  0  0  0  0  0  0  0  0  0  0  0
   -0.1155    0.6210   -2.0064 C   0  0  0  0  0  0  0  0  0  0  0  0
   -0.3295    1.5775   -1.5300 H   0  0  0  0  0  0  0  0  0  0  0  0
    0.7429    0.7451   -2.6665 H   0  0  0  0  0  0  0  0  0  0  0  0
   -1.3253    0.2366   -2.8580 C   0  0  0  0  0  0  0  0  0  0  0  0
   -1.9100   -0.8250   -2.7494 O   0  0  0  0  0  0  0  0  0  0  0  0
   -1.7631    1.0995   -3.7491 N   0  0  0  0  0  0  0  0  0  0  0  0
   -2.5608    0.7956   -4.2799 H   0  0  0  0  0  0  0  0  0  0  0  0
   -1.3213    1.9872   -3.8775 H   0  0  0  0  0  0  0  0  0  0  0  0
   -0.7011    1.2952    0.7149 C   0  0  0  0  0  0  0  0  0  0  0  0
   -1.5917    1.9198    0.1415 O   0  0  0  0  0  0  0  0  0  0  0  0
    0.1191    1.8675    1.6055 N   0  0  0  0  0  0  0  0  0  0  0  0
    0.8092    1.2861    2.0537 H   0  0  0  0  0  0  0  0  0  0  0  0
    0.0509    3.2769    1.9894 C   0  0  0  0  0  0  0  0  0  0  0  0
   -0.9494    3.5076    2.3640 H   0  0  0  0  0  0  0  0  0  0  0  0
    0.7844    3.4956    2.7668 H   0  0  0  0  0  0  0  0  0  0  0  0
    0.2468    3.9058    1.1193 H   0  0  0  0  0  0  0  0  0  0  0  0
  5  6  2  0  0  0  0
  5  7  1  0  0  0  0
  2  3  1  0  0  0  0
  2  4  1  0  0  0  0
  2  5  1  0  0  0  0
  1  2  1  0  0  0  0
 22 23  2  0  0  0  0
 22 24  1  0  0  0  0
 19 20  1  0  0  0  0
 19 21  1  0  0  0  0
 17 18  2  0  0  0  0
 17 19  1  0  0  0  0
 14 15  1  0  0  0  0
 14 16  1  0  0  0  0
 14 17  1  0  0  0  0
 11 12  1  0  0  0  0
 11 13  1  0  0  0  0
 11 14  1  0  0  0  0
  9 10  1  0  0  0  0
  9 11  1  0  0  0  0
  9 22  1  0  0  0  0
  7  8  1  0  0  0  0
  7  9  1  0  0  0  0
 26 27  1  0  0  0  0
 26 28  1  0  0  0  0
 26 29  1  0  0  0  0
 24 25  1  0  0  0  0
 24 26  1  0  0  0  0
M  END
$$$$
default_name
  -OEChem-02102213163D

 29 28  0     1  0  0  0  0  0999 V2000
   -3.3998   -3.6239    1.3678 H   0  0  0  0  0  0  0  0  0  0  0  0
   -3.3608   -2.6749    0.8348 C   0  0  0  0  0  0  0  0  0  0  0  0
   -4.0988   -1.9909    1.2498 H   0  0  0  0  0  0  0  0  0  0  0  0
   -3.5618   -2.8419   -0.2222 H   0  0  0  0  0  0  0  0  0  0  0  0
   -1.9818   -2.0809    0.9918 C   0  0  0  0  0  0  0  0  0  0  0  0
   -1.1288   -2.6669    1.6468 O   0  0  0  0  0  0  0  0  0  0  0  0
   -1.7648   -0.9089    0.3998 N   0  0  0  0  0  0  0  0  0  0  0  0
   -2.5238   -0.4719   -0.1032 H   0  0  0  0  0  0  0  0  0  0  0  0
   -0.4848   -0.1959    0.4138 C   0  0  1  0  0  0  0  0  0  0  0  0
    0.1386   -0.6144    1.2058 H   0  0  0  0  0  0  0  0  0  0  0  0
    0.2271   -0.4272   -0.9334 C   0  0  0  0  0  0  0  0  0  0  0  0
    1.3051   -0.4032   -0.7607 H   0  0  0  0  0  0  0  0  0  0  0  0
   -0.0360   -1.4167   -1.3103 H   0  0  0  0  0  0  0  0  0  0  0  0
   -0.1155    0.6210   -2.0064 C   0  0  0  0  0  0  0  0  0  0  0  0
   -0.0684    1.6195   -1.5724 H   0  0  0  0  0  0  0  0  0  0  0  0
    0.6169    0.5561   -2.8110 H   0  0  0  0  0  0  0  0  0  0  0  0
   -1.5082    0.4330   -2.6078 C   0  0  0  0  0  0  0  0  0  0  0  0
   -2.2403   -0.4962   -2.3227 O   0  0  0  0  0  0  0  0  0  0  0  0
   -1.9423    1.3244   -3.4721 N   0  0  0  0  0  0  0  0  0  0  0  0
   -2.8639    1.1522   -3.8348 H   0  0  0  0  0  0  0  0  0  0  0  0
   -1.3826    2.1085   -3.7394 H   0  0  0  0  0  0  0  0  0  0  0  0
   -0.7011    1.2952    0.7149 C   0  0  0  0  0  0  0  0  0  0  0  0
   -1.5917    1.9198    0.1415 O   0  0  0  0  0  0  0  0  0  0  0  0
    0.1191    1.8675    1.6055 N   0  0  0  0  0  0  0  0  0  0  0  0
    0.8092    1.2861    2.0537 H   0  0  0  0  0  0  0  0  0  0  0  0
    0.0509    3.2769    1.9894 C   0  0  0  0  0  0  0  0  0  0  0  0
   -0.9494    3.5076    2.3640 H   0  0  0  0  0  0  0  0  0  0  0  0
    0.7844    3.4956    2.7668 H   0  0  0  0  0  0  0  0  0  0  0  0
    0.2468    3.9058    1.1193 H   0  0  0  0  0  0  0  0  0  0  0  0
  5  6  2  0  0  0  0
  5  7  1  0  0  0  0
  2  3  1  0  0  0  0
  2  4  1  0  0  0  0
  2  5  1  0  0  0  0
  1  2  1  0  0  0  0
 22 23  2  0  0  0  0
 22 24  1  0  0  0  0
 19 20  1  0  0  0  0
 19 21  1  0  0  0  0
 17 18  2  0  0  0  0
 17 19  1  0  0  0  0
 14 15  1  0  0  0  0
 14 16  1  0  0  0  0
 14 17  1  0  0  0  0
 11 12  1  0  0  0  0
 11 13  1  0  0  0  0
 11 14  1  0  0  0  0
  9 10  1  0  0  0  0
  9 11  1  0  0  0  0
  9 22  1  0  0  0  0
  7  8  1  0  0  0  0
  7  9  1  0  0  0  0
 26 27  1  0  0  0  0
 26 28  1  0  0  0  0
 26 29  1  0  0  0  0
 24 25  1  0  0  0  0
 24 26  1  0  0  0  0
M  END
$$$$
default_name
  -OEChem-02102213163D

 29 28  0     1  0  0  0  0  0999 V2000
   -3.3998   -3.6239    1.3678 H   0  0  0  0  0  0  0  0  0  0  0  0
   -3.3608   -2.6749    0.8348 C   0  0  0  0  0  0  0  0  0  0  0  0
   -4.0988   -1.9909    1.2498 H   0  0  0  0  0  0  0  0  0  0  0  0
   -3.5618   -2.8419   -0.2222 H   0  0  0  0  0  0  0  0  0  0  0  0
   -1.9818   -2.0809    0.9918 C   0  0  0  0  0  0  0  0  0  0  0  0
   -1.1288   -2.6669    1.6468 O   0  0  0  0  0  0  0  0  0  0  0  0
   -1.7648   -0.9089    0.3998 N   0  0  0  0  0  0  0  0  0  0  0  0
   -2.5238   -0.4719   -0.1032 H   0  0  0  0  0  0  0  0  0  0  0  0
   -0.4848   -0.1959    0.4138 C   0  0  1  0  0  0  0  0  0  0  0  0
    0.1386   -0.6144    1.2058 H   0  0  0  0  0  0  0  0  0  0  0  0
    0.2271   -0.4272   -0.9334 C   0  0  0  0  0  0  0  0  0  0  0  0
    1.3051   -0.4032   -0.7607 H   0  0  0  0  0  0  0  0  0  0  0  0
   -0.0360   -1.4167   -1.3103 H   0  0  0  0  0  0  0  0  0  0  0  0
   -0.1155    0.6210   -2.0064 C   0  0  0  0  0  0  0  0  0  0  0  0
    0.1840    1.6105   -1.6617 H   0  0  0  0  0  0  0  0  0  0  0  0
    0.4357    0.3880   -2.9173 H   0  0  0  0  0  0  0  0  0  0  0  0
   -1.6053    0.6700   -2.3452 C   0  0  0  0  0  0  0  0  0  0  0  0
   -2.4248   -0.0944   -1.8713 O   0  0  0  0  0  0  0  0  0  0  0  0
   -2.0261    1.5900   -3.1860 N   0  0  0  0  0  0  0  0  0  0  0  0
   -3.0139    1.5770   -3.3719 H   0  0  0  0  0  0  0  0  0  0  0  0
   -1.3955    2.2448   -3.6022 H   0  0  0  0  0  0  0  0  0  0  0  0
   -0.7011    1.2952    0.7149 C   0  0  0  0  0  0  0  0  0  0  0  0
   -1.5917    1.9198    0.1415 O   0  0  0  0  0  0  0  0  0  0  0  0
    0.1191    1.8675    1.6055 N   0  0  0  0  0  0  0  0  0  0  0  0
    0.8092    1.2861    2.0537 H   0  0  0  0  0  0  0  0  0  0  0  0
    0.0509    3.2769    1.9894 C   0  0  0  0  0  0  0  0  0  0  0  0
   -0.9494    3.5076    2.3640 H   0  0  0  0  0  0  0  0  0  0  0  0
    0.7844    3.4956    2.7668 H   0  0  0  0  0  0  0  0  0  0  0  0
    0.2468    3.9058    1.1193 H   0  0  0  0  0  0  0  0  0  0  0  0
  5  6  2  0  0  0  0
  5  7  1  0  0  0  0
  2  3  1  0  0  0  0
  2  4  1  0  0  0  0
  2  5  1  0  0  0  0
  1  2  1  0  0  0  0
 22 23  2  0  0  0  0
 22 24  1  0  0  0  0
 19 20  1  0  0  0  0
 19 21  1  0  0  0  0
 17 18  2  0  0  0  0
 17 19  1  0  0  0  0
 14 15  1  0  0  0  0
 14 16  1  0  0  0  0
 14 17  1  0  0  0  0
 11 12  1  0  0  0  0
 11 13  1  0  0  0  0
 11 14  1  0  0  0  0
  9 10  1  0  0  0  0
  9 11  1  0  0  0  0
  9 22  1  0  0  0  0
  7  8  1  0  0  0  0
  7  9  1  0  0  0  0
 26 27  1  0  0  0  0
 26 28  1  0  0  0  0
 26 29  1  0  0  0  0
 24 25  1  0  0  0  0
 24 26  1  0  0  0  0
M  END
$$$$
default_name
  -OEChem-02102213163D

 29 28  0     1  0  0  0  0  0999 V2000
   -3.3998   -3.6239    1.3678 H   0  0  0  0  0  0  0  0  0  0  0  0
   -3.3608   -2.6749    0.8348 C   0  0  0  0  0  0  0  0  0  0  0  0
   -4.0988   -1.9909    1.2498 H   0  0  0  0  0  0  0  0  0  0  0  0
   -3.5618   -2.8419   -0.2222 H   0  0  0  0  0  0  0  0  0  0  0  0
   -1.9818   -2.0809    0.9918 C   0  0  0  0  0  0  0  0  0  0  0  0
   -1.1288   -2.6669    1.6468 O   0  0  0  0  0  0  0  0  0  0  0  0
   -1.7648   -0.9089    0.3998 N   0  0  0  0  0  0  0  0  0  0  0  0
   -2.5238   -0.4719   -0.1032 H   0  0  0  0  0  0  0  0  0  0  0  0
   -0.4848   -0.1959    0.4138 C   0  0  1  0  0  0  0  0  0  0  0  0
    0.1386   -0.6144    1.2058 H   0  0  0  0  0  0  0  0  0  0  0  0
    0.2271   -0.4272   -0.9334 C   0  0  0  0  0  0  0  0  0  0  0  0
    1.3051   -0.4032   -0.7607 H   0  0  0  0  0  0  0  0  0  0  0  0
   -0.0360   -1.4167   -1.3103 H   0  0  0  0  0  0  0  0  0  0  0  0
   -0.1155    0.6210   -2.0064 C   0  0  0  0  0  0  0  0  0  0  0  0
    0.4104    1.5512   -1.7921 H   0  0  0  0  0  0  0  0  0  0  0  0
    0.2116    0.2521   -2.9785 H   0  0  0  0  0  0  0  0  0  0  0  0
   -1.6100    0.9317   -2.0881 C   0  0  0  0  0  0  0  0  0  0  0  0
   -2.4509    0.3530   -1.4259 O   0  0  0  0  0  0  0  0  0  0  0  0
   -2.0085    1.8781   -2.9101 N   0  0  0  0  0  0  0  0  0  0  0  0
   -3.0004    2.0410   -2.9229 H   0  0  0  0  0  0  0  0  0  0  0  0
   -1.3592    2.3866   -3.4752 H   0  0  0  0  0  0  0  0  0  0  0  0
   -0.7011    1.2952    0.7149 C   0  0  0  0  0  0  0  0  0  0  0  0
   -1.5917    1.9198    0.1415 O   0  0  0  0  0  0  0  0  0  0  0  0
    0.1191    1.8675    1.6055 N   0  0  0  0  0  0  0  0  0  0  0  0
    0.8092    1.2861    2.0537 H   0  0  0  0  0  0  0  0  0  0  0  0
    0.0509    3.2769    1.9894 C   0  0  0  0  0  0  0  0  0  0  0  0
   -0.9494    3.5076    2.3640 H   0  0  0  0  0  0  0  0  0  0  0  0
    0.7844    3.4956    2.7668 H   0  0  0  0  0  0  0  0  0  0  0  0
    0.2468    3.9058    1.1193 H   0  0  0  0  0  0  0  0  0  0  0  0
  5  6  2  0  0  0  0
  5  7  1  0  0  0  0
  2  3  1  0  0  0  0
  2  4  1  0  0  0  0
  2  5  1  0  0  0  0
  1  2  1  0  0  0  0
 22 23  2  0  0  0  0
 22 24  1  0  0  0  0
 19 20  1  0  0  0  0
 19 21  1  0  0  0  0
 17 18  2  0  0  0  0
 17 19  1  0  0  0  0
 14 15  1  0  0  0  0
 14 16  1  0  0  0  0
 14 17  1  0  0  0  0
 11 12  1  0  0  0  0
 11 13  1  0  0  0  0
 11 14  1  0  0  0  0
  9 10  1  0  0  0  0
  9 11  1  0  0  0  0
  9 22  1  0  0  0  0
  7  8  1  0  0  0  0
  7  9  1  0  0  0  0
 26 27  1  0  0  0  0
 26 28  1  0  0  0  0
 26 29  1  0  0  0  0
 24 25  1  0  0  0  0
 24 26  1  0  0  0  0
M  END
$$$$
default_name
  -OEChem-02102213163D

 29 28  0     1  0  0  0  0  0999 V2000
   -3.3998   -3.6239    1.3678 H   0  0  0  0  0  0  0  0  0  0  0  0
   -3.3608   -2.6749    0.8348 C   0  0  0  0  0  0  0  0  0  0  0  0
   -4.0988   -1.9909    1.2498 H   0  0  0  0  0  0  0  0  0  0  0  0
   -3.5618   -2.8419   -0.2222 H   0  0  0  0  0  0  0  0  0  0  0  0
   -1.9818   -2.0809    0.9918 C   0  0  0  0  0  0  0  0  0  0  0  0
   -1.1288   -2.6669    1.6468 O   0  0  0  0  0  0  0  0  0  0  0  0
   -1.7648   -0.9089    0.3998 N   0  0  0  0  0  0  0  0  0  0  0  0
   -2.5238   -0.4719   -0.1032 H   0  0  0  0  0  0  0  0  0  0  0  0
   -0.4848   -0.1959    0.4138 C   0  0  1  0  0  0  0  0  0  0  0  0
    0.1386   -0.6144    1.2058 H   0  0  0  0  0  0  0  0  0  0  0  0
    0.2271   -0.4272   -0.9334 C   0  0  0  0  0  0  0  0  0  0  0  0
    1.3051   -0.4032   -0.7607 H   0  0  0  0  0  0  0  0  0  0  0  0
   -0.0360   -1.4167   -1.3103 H   0  0  0  0  0  0  0  0  0  0  0  0
   -0.1155    0.6210   -2.0064 C   0  0  0  0  0  0  0  0  0  0  0  0
    0.5953    1.4454   -1.9544 H   0  0  0  0  0  0  0  0  0  0  0  0
   -0.0402    0.1579   -2.9902 H   0  0  0  0  0  0  0  0  0  0  0  0
   -1.5220    1.2001   -1.8540 C   0  0  0  0  0  0  0  0  0  0  0  0
   -2.3168    0.8155   -1.0168 O   0  0  0  0  0  0  0  0  0  0  0  0
   -1.8910    2.1691   -2.6633 N   0  0  0  0  0  0  0  0  0  0  0  0
   -2.8245    2.5127   -2.5183 H   0  0  0  0  0  0  0  0  0  0  0  0
   -1.2761    2.5244   -3.3672 H   0  0  0  0  0  0  0  0  0  0  0  0
   -0.7011    1.2952    0.7149 C   0  0  0  0  0  0  0  0  0  0  0  0
   -1.5917    1.9198    0.1415 O   0  0  0  0  0  0  0  0  0  0  0  0
    0.1191    1.8675    1.6055 N   0  0  0  0  0  0  0  0  0  0  0  0
    0.8092    1.2861    2.0537 H   0  0  0  0  0  0  0  0  0  0  0  0
    0.0509    3.2769    1.9894 C   0  0  0  0  0  0  0  0  0  0  0  0
   -0.9494    3.5076    2.3640 H   0  0  0  0  0  0  0  0  0  0  0  0
    0.7844    3.4956    2.7668 H   0  0  0  0  0  0  0  0  0  0  0  0
    0.2468    3.9058    1.1193 H   0  0  0  0  0  0  0  0  0  0  0  0
  5  6  2  0  0  0  0
  5  7  1  0  0  0  0
  2  3  1  0  0  0  0
  2  4  1  0  0  0  0
  2  5  1  0  0  0  0
  1  2  1  0  0  0  0
 22 23  2  0  0  0  0
 22 24  1  0  0  0  0
 19 20  1  0  0  0  0
 19 21  1  0  0  0  0
 17 18  2  0  0  0  0
 17 19  1  0  0  0  0
 14 15  1  0  0  0  0
 14 16  1  0  0  0  0
 14 17  1  0  0  0  0
 11 12  1  0  0  0  0
 11 13  1  0  0  0  0
 11 14  1  0  0  0  0
  9 10  1  0  0  0  0
  9 11  1  0  0  0  0
  9 22  1  0  0  0  0
  7  8  1  0  0  0  0
  7  9  1  0  0  0  0
 26 27  1  0  0  0  0
 26 28  1  0  0  0  0
 26 29  1  0  0  0  0
 24 25  1  0  0  0  0
 24 26  1  0  0  0  0
M  END
$$$$
default_name
  -OEChem-02102213163D

 29 28  0     1  0  0  0  0  0999 V2000
   -3.3998   -3.6239    1.3678 H   0  0  0  0  0  0  0  0  0  0  0  0
   -3.3608   -2.6749    0.8348 C   0  0  0  0  0  0  0  0  0  0  0  0
   -4.0988   -1.9909    1.2498 H   0  0  0  0  0  0  0  0  0  0  0  0
   -3.5618   -2.8419   -0.2222 H   0  0  0  0  0  0  0  0  0  0  0  0
   -1.9818   -2.0809    0.9918 C   0  0  0  0  0  0  0  0  0  0  0  0
   -1.1288   -2.6669    1.6468 O   0  0  0  0  0  0  0  0  0  0  0  0
   -1.7648   -0.9089    0.3998 N   0  0  0  0  0  0  0  0  0  0  0  0
   -2.5238   -0.4719   -0.1032 H   0  0  0  0  0  0  0  0  0  0  0  0
   -0.4848   -0.1959    0.4138 C   0  0  1  0  0  0  0  0  0  0  0  0
    0.1386   -0.6144    1.2058 H   0  0  0  0  0  0  0  0  0  0  0  0
    0.2271   -0.4272   -0.9334 C   0  0  0  0  0  0  0  0  0  0  0  0
    1.3051   -0.4032   -0.7607 H   0  0  0  0  0  0  0  0  0  0  0  0
   -0.0360   -1.4167   -1.3103 H   0  0  0  0  0  0  0  0  0  0  0  0
   -0.1155    0.6210   -2.0064 C   0  0  0  0  0  0  0  0  0  0  0  0
    0.7263    1.3005   -2.1378 H   0  0  0  0  0  0  0  0  0  0  0  0
   -0.3026    0.1116   -2.9516 H   0  0  0  0  0  0  0  0  0  0  0  0
   -1.3472    1.4570   -1.6589 C   0  0  0  0  0  0  0  0  0  0  0  0
   -2.0317    1.2617   -0.6720 O   0  0  0  0  0  0  0  0  0  0  0  0
   -1.6814    2.4433   -2.4624 N   0  0  0  0  0  0  0  0  0  0  0  0
   -2.4981    2.9599   -2.1856 H   0  0  0  0  0  0  0  0  0  0  0  0
   -1.1520    2.6487   -3.2854 H   0  0  0  0  0  0  0  0  0  0  0  0
   -0.7011    1.2952    0.7149 C   0  0  0  0  0  0  0  0  0  0  0  0
   -1.5917    1.9198    0.1415 O   0  0  0  0  0  0  0  0  0  0  0  0
    0.1191    1.8675    1.6055 N   0  0  0  0  0  0  0  0  0  0  0  0
    0.8092    1.2861    2.0537 H   0  0  0  0  0  0  0  0  0  0  0  0
    0.0509    3.2769    1.9894 C   0  0  0  0  0  0  0  0  0  0  0  0
   -0.9494    3.5076    2.3640 H   0  0  0  0  0  0  0  0  0  0  0  0
    0.7844    3.4956    2.7668 H   0  0  0  0  0  0  0  0  0  0  0  0
    0.2468    3.9058    1.1193 H   0  0  0  0  0  0  0  0  0  0  0  0
  5  6  2  0  0  0  0
  5  7  1  0  0  0  0
  2  3  1  0  0  0  0
  2  4  1  0  0  0  0
  2  5  1  0  0  0  0
  1  2  1  0  0  0  0
 22 23  2  0  0  0  0
 22 24  1  0  0  0  0
 19 20  1  0  0  0  0
 19 21  1  0  0  0  0
 17 18  2  0  0  0  0
 17 19  1  0  0  0  0
 14 15  1  0  0  0  0
 14 16  1  0  0  0  0
 14 17  1  0  0  0  0
 11 12  1  0  0  0  0
 11 13  1  0  0  0  0
 11 14  1  0  0  0  0
  9 10  1  0  0  0  0
  9 11  1  0  0  0  0
  9 22  1  0  0  0  0
  7  8  1  0  0  0  0
  7  9  1  0  0  0  0
 26 27  1  0  0  0  0
 26 28  1  0  0  0  0
 26 29  1  0  0  0  0
 24 25  1  0  0  0  0
 24 26  1  0  0  0  0
M  END
$$$$
default_name
  -OEChem-02102213163D

 29 28  0     1  0  0  0  0  0999 V2000
   -3.3998   -3.6239    1.3678 H   0  0  0  0  0  0  0  0  0  0  0  0
   -3.3608   -2.6749    0.8348 C   0  0  0  0  0  0  0  0  0  0  0  0
   -4.0988   -1.9909    1.2498 H   0  0  0  0  0  0  0  0  0  0  0  0
   -3.5618   -2.8419   -0.2222 H   0  0  0  0  0  0  0  0  0  0  0  0
   -1.9818   -2.0809    0.9918 C   0  0  0  0  0  0  0  0  0  0  0  0
   -1.1288   -2.6669    1.6468 O   0  0  0  0  0  0  0  0  0  0  0  0
   -1.7648   -0.9089    0.3998 N   0  0  0  0  0  0  0  0  0  0  0  0
   -2.5238   -0.4719   -0.1032 H   0  0  0  0  0  0  0  0  0  0  0  0
   -0.4848   -0.1959    0.4138 C   0  0  1  0  0  0  0  0  0  0  0  0
    0.1386   -0.6144    1.2058 H   0  0  0  0  0  0  0  0  0  0  0  0
    0.2271   -0.4272   -0.9334 C   0  0  0  0  0  0  0  0  0  0  0  0
    1.3051   -0.4032   -0.7607 H   0  0  0  0  0  0  0  0  0  0  0  0
   -0.0360   -1.4167   -1.3103 H   0  0  0  0  0  0  0  0  0  0  0  0
   -0.1155    0.6210   -2.0064 C   0  0  0  0  0  0  0  0  0  0  0  0
    0.7943    1.1264   -2.3296 H   0  0  0  0  0  0  0  0  0  0  0  0
   -0.5575    0.1164   -2.8655 H   0  0  0  0  0  0  0  0  0  0  0  0
   -1.0976    1.6848   -1.5160 C   0  0  0  0  0  0  0  0  0  0  0  0
   -1.6150    1.6610   -0.4149 O   0  0  0  0  0  0  0  0  0  0  0  0
   -1.3940    2.6818   -2.3212 N   0  0  0  0  0  0  0  0  0  0  0  0
   -2.0434    3.3521   -1.9477 H   0  0  0  0  0  0  0  0  0  0  0  0
   -0.9952    2.7511   -3.2354 H   0  0  0  0  0  0  0  0  0  0  0  0
   -0.7011    1.2952    0.7149 C   0  0  0  0  0  0  0  0  0  0  0  0
   -1.5917    1.9198    0.1415 O   0  0  0  0  0  0  0  0  0  0  0  0
    0.1191    1.8675    1.6055 N   0  0  0  0  0  0  0  0  0  0  0  0
    0.8092    1.2861    2.0537 H   0  0  0  0  0  0  0  0  0  0  0  0
    0.0509    3.2769    1.9894 C   0  0  0  0  0  0  0  0  0  0  0  0
   -0.9494    3.5076    2.3640 H   0  0  0  0  0  0  0  0  0  0  0  0
    0.7844    3.4956    2.7668 H   0  0  0  0  0  0  0  0  0  0  0  0
    0.2468    3.9058    1.1193 H   0  0  0  0  0  0  0  0  0  0  0  0
  5  6  2  0  0  0  0
  5  7  1  0  0  0  0
  2  3  1  0  0  0  0
  2  4  1  0  0  0  0
  2  5  1  0  0  0  0
  1  2  1  0  0  0  0
 22 23  2  0  0  0  0
 22 24  1  0  0  0  0
 19 20  1  0  0  0  0
 19 21  1  0  0  0  0
 17 18  2  0  0  0  0
 17 19  1  0  0  0  0
 14 15  1  0  0  0  0
 14 16  1  0  0  0  0
 14 17  1  0  0  0  0
 11 12  1  0  0  0  0
 11 13  1  0  0  0  0
 11 14  1  0  0  0  0
  9 10  1  0  0  0  0
  9 11  1  0  0  0  0
  9 22  1  0  0  0  0
  7  8  1  0  0  0  0
  7  9  1  0  0  0  0
 26 27  1  0  0  0  0
 26 28  1  0  0  0  0
 26 29  1  0  0  0  0
 24 25  1  0  0  0  0
 24 26  1  0  0  0  0
M  END
$$$$
default_name
  -OEChem-02102213163D

 29 28  0     1  0  0  0  0  0999 V2000
   -3.3998   -3.6239    1.3678 H   0  0  0  0  0  0  0  0  0  0  0  0
   -3.3608   -2.6749    0.8348 C   0  0  0  0  0  0  0  0  0  0  0  0
   -4.0988   -1.9909    1.2498 H   0  0  0  0  0  0  0  0  0  0  0  0
   -3.5618   -2.8419   -0.2222 H   0  0  0  0  0  0  0  0  0  0  0  0
   -1.9818   -2.0809    0.9918 C   0  0  0  0  0  0  0  0  0  0  0  0
   -1.1288   -2.6669    1.6468 O   0  0  0  0  0  0  0  0  0  0  0  0
   -1.7648   -0.9089    0.3998 N   0  0  0  0  0  0  0  0  0  0  0  0
   -2.5238   -0.4719   -0.1032 H   0  0  0  0  0  0  0  0  0  0  0  0
   -0.4848   -0.1959    0.4138 C   0  0  1  0  0  0  0  0  0  0  0  0
    0.1386   -0.6144    1.2058 H   0  0  0  0  0  0  0  0  0  0  0  0
    0.2271   -0.4272   -0.9334 C   0  0  0  0  0  0  0  0  0  0  0  0
    1.3051   -0.4032   -0.7607 H   0  0  0  0  0  0  0  0  0  0  0  0
   -0.0360   -1.4167   -1.3103 H   0  0  0  0  0  0  0  0  0  0  0  0
   -0.1155    0.6210   -2.0064 C   0  0  0  0  0  0  0  0  0  0  0  0
    0.7947    0.9349   -2.5169 H   0  0  0  0  0  0  0  0  0  0  0  0
   -0.7877    0.1721   -2.7376 H   0  0  0  0  0  0  0  0  0  0  0  0
   -0.7903    1.8680   -1.4351 C   0  0  0  0  0  0  0  0  0  0  0  0
   -1.0951    1.9864   -0.2631 O   0  0  0  0  0  0  0  0  0  0  0  0
   -1.0485    2.8685   -2.2491 N   0  0  0  0  0  0  0  0  0  0  0  0
   -1.4915    3.6626   -1.8206 H   0  0  0  0  0  0  0  0  0  0  0  0
   -0.8164    2.8246   -3.2207 H   0  0  0  0  0  0  0  0  0  0  0  0
   -0.7011    1.2952    0.7149 C   0  0  0  0  0  0  0  0  0  0  0  0
   -1.5917    1.9198    0.1415 O   0  0  0  0  0  0  0  0  0  0  0  0
    0.1191    1.8675    1.6055 N   0  0  0  0  0  0  0  0  0  0  0  0
    0.8092    1.2861    2.0537 H   0  0  0  0  0  0  0  0  0  0  0  0
    0.0509    3.2769    1.9894 C   0  0  0  0  0  0  0  0  0  0  0  0
   -0.9494    3.5076    2.3640 H   0  0  0  0  0  0  0  0  0  0  0  0
    0.7844    3.4956    2.7668 H   0  0  0  0  0  0  0  0  0  0  0  0
    0.2468    3.9058    1.1193 H   0  0  0  0  0  0  0  0  0  0  0  0
  5  6  2  0  0  0  0
  5  7  1  0  0  0  0
  2  3  1  0  0  0  0
  2  4  1  0  0  0  0
  2  5  1  0  0  0  0
  1  2  1  0  0  0  0
 22 23  2  0  0  0  0
 22 24  1  0  0  0  0
 19 20  1  0  0  0  0
 19 21  1  0  0  0  0
 17 18  2  0  0  0  0
 17 19  1  0  0  0  0
 14 15  1  0  0  0  0
 14 16  1  0  0  0  0
 14 17  1  0  0  0  0
 11 12  1  0  0  0  0
 11 13  1  0  0  0  0
 11 14  1  0  0  0  0
  9 10  1  0  0  0  0
  9 11  1  0  0  0  0
  9 22  1  0  0  0  0
  7  8  1  0  0  0  0
  7  9  1  0  0  0  0
 26 27  1  0  0  0  0
 26 28  1  0  0  0  0
 26 29  1  0  0  0  0
 24 25  1  0  0  0  0
 24 26  1  0  0  0  0
M  END
$$$$
default_name
  -OEChem-02102213163D

 29 28  0     1  0  0  0  0  0999 V2000
   -3.3998   -3.6239    1.3678 H   0  0  0  0  0  0  0  0  0  0  0  0
   -3.3608   -2.6749    0.8348 C   0  0  0  0  0  0  0  0  0  0  0  0
   -4.0988   -1.9909    1.2498 H   0  0  0  0  0  0  0  0  0  0  0  0
   -3.5618   -2.8419   -0.2222 H   0  0  0  0  0  0  0  0  0  0  0  0
   -1.9818   -2.0809    0.9918 C   0  0  0  0  0  0  0  0  0  0  0  0
   -1.1288   -2.6669    1.6468 O   0  0  0  0  0  0  0  0  0  0  0  0
   -1.7648   -0.9089    0.3998 N   0  0  0  0  0  0  0  0  0  0  0  0
   -2.5238   -0.4719   -0.1032 H   0  0  0  0  0  0  0  0  0  0  0  0
   -0.4848   -0.1959    0.4138 C   0  0  1  0  0  0  0  0  0  0  0  0
    0.1386   -0.6144    1.2058 H   0  0  0  0  0  0  0  0  0  0  0  0
    0.2271   -0.4272   -0.9334 C   0  0  0  0  0  0  0  0  0  0  0  0
    1.3051   -0.4032   -0.7607 H   0  0  0  0  0  0  0  0  0  0  0  0
   -0.0360   -1.4167   -1.3103 H   0  0  0  0  0  0  0  0  0  0  0  0
   -0.1155    0.6210   -2.0064 C   0  0  0  0  0  0  0  0  0  0  0  0
    0.7276    0.7390   -2.6868 H   0  0  0  0  0  0  0  0  0  0  0  0
   -0.9774    0.2748   -2.5767 H   0  0  0  0  0  0  0  0  0  0  0  0
   -0.4461    1.9942   -1.4218 C   0  0  0  0  0  0  0  0  0  0  0  0
   -0.5074    2.2156   -0.2269 O   0  0  0  0  0  0  0  0  0  0  0  0
   -0.6683    2.9906   -2.2512 N   0  0  0  0  0  0  0  0  0  0  0  0
   -0.8800    3.8702   -1.8130 H   0  0  0  0  0  0  0  0  0  0  0  0
   -0.6279    2.8642   -3.2422 H   0  0  0  0  0  0  0  0  0  0  0  0
   -0.7011    1.2952    0.7149 C   0  0  0  0  0  0  0  0  0  0  0  0
   -1.5917    1.9198    0.1415 O   0  0  0  0  0  0  0  0  0  0  0  0
    0.1191    1.8675    1.6055 N   0  0  0  0  0  0  0  0  0  0  0  0
    0.8092    1.2861    2.0537 H   0  0  0  0  0  0  0  0  0  0  0  0
    0.0509    3.2769    1.9894 C   0  0  0  0  0  0  0  0  0  0  0  0
   -0.9494    3.5076    2.3640 H   0  0  0  0  0  0  0  0  0  0  0  0
    0.7844    3.4956    2.7668 H   0  0  0  0  0  0  0  0  0  0  0  0
    0.2468    3.9058    1.1193 H   0  0  0  0  0  0  0  0  0  0  0  0
  5  6  2  0  0  0  0
  5  7  1  0  0  0  0
  2  3  1  0  0  0  0
  2  4  1  0  0  0  0
  2  5  1  0  0  0  0
  1  2  1  0  0  0  0
 22 23  2  0  0  0  0
 22 24  1  0  0  0  0
 19 20  1  0  0  0  0
 19 21  1  0  0  0  0
 17 18  2  0  0  0  0
 17 19  1  0  0  0  0
 14 15  1  0  0  0  0
 14 16  1  0  0  0  0
 14 17  1  0  0  0  0
 11 12  1  0  0  0  0
 11 13  1  0  0  0  0
 11 14  1  0  0  0  0
  9 10  1  0  0  0  0
  9 11  1  0  0  0  0
  9 22  1  0  0  0  0
  7  8  1  0  0  0  0
  7  9  1  0  0  0  0
 26 27  1  0  0  0  0
 26 28  1  0  0  0  0
 26 29  1  0  0  0  0
 24 25  1  0  0  0  0
 24 26  1  0  0  0  0
M  END
$$$$
default_name
  -OEChem-02102213163D

 29 28  0     1  0  0  0  0  0999 V2000
   -3.3998   -3.6239    1.3678 H   0  0  0  0  0  0  0  0  0  0  0  0
   -3.3608   -2.6749    0.8348 C   0  0  0  0  0  0  0  0  0  0  0  0
   -4.0988   -1.9909    1.2498 H   0  0  0  0  0  0  0  0  0  0  0  0
   -3.5618   -2.8419   -0.2222 H   0  0  0  0  0  0  0  0  0  0  0  0
   -1.9818   -2.0809    0.9918 C   0  0  0  0  0  0  0  0  0  0  0  0
   -1.1288   -2.6669    1.6468 O   0  0  0  0  0  0  0  0  0  0  0  0
   -1.7648   -0.9089    0.3998 N   0  0  0  0  0  0  0  0  0  0  0  0
   -2.5238   -0.4719   -0.1032 H   0  0  0  0  0  0  0  0  0  0  0  0
   -0.4848   -0.1959    0.4138 C   0  0  1  0  0  0  0  0  0  0  0  0
    0.1386   -0.6144    1.2058 H   0  0  0  0  0  0  0  0  0  0  0  0
    0.2271   -0.4272   -0.9334 C   0  0  0  0  0  0  0  0  0  0  0  0
    1.3051   -0.4032   -0.7607 H   0  0  0  0  0  0  0  0  0  0  0  0
   -0.0360   -1.4167   -1.3103 H   0  0  0  0  0  0  0  0  0  0  0  0
   -0.1155    0.6210   -2.0064 C   0  0  0  0  0  0  0  0  0  0  0  0
    0.5974    0.5521   -2.8278 H   0  0  0  0  0  0  0  0  0  0  0  0
   -1.1138    0.4175   -2.3938 H   0  0  0  0  0  0  0  0  0  0  0  0
   -0.0884    2.0547   -1.4769 C   0  0  0  0  0  0  0  0  0  0  0  0
    0.1080    2.3330   -0.3087 O   0  0  0  0  0  0  0  0  0  0  0  0
   -0.2794    3.0398   -2.3273 N   0  0  0  0  0  0  0  0  0  0  0  0
   -0.2505    3.9608   -1.9255 H   0  0  0  0  0  0  0  0  0  0  0  0
   -0.4425    2.8671   -3.2985 H   0  0  0  0  0  0  0  0  0  0  0  0
   -0.7011    1.2952    0.7149 C   0  0  0  0  0  0  0  0  0  0  0  0
   -1.5917    1.9198    0.1415 O   0  0  0  0  0  0  0  0  0  0  0  0
    0.1191    1.8675    1.6055 N   0  0  0  0  0  0  0  0  0  0  0  0
    0.8092    1.2861    2.0537 H   0  0  0  0  0  0  0  0  0  0  0  0
    0.0509    3.2769    1.9894 C   0  0  0  0  0  0  0  0  0  0  0  0
   -0.9494    3.5076    2.3640 H   0  0  0  0  0  0  0  0  0  0  0  0
    0.7844    3.4956    2.7668 H   0  0  0  0  0  0  0  0  0  0  0  0
    0.2468    3.9058    1.1193 H   0  0  0  0  0  0  0  0  0  0  0  0
  5  6  2  0  0  0  0
  5  7  1  0  0  0  0
  2  3  1  0  0  0  0
  2  4  1  0  0  0  0
  2  5  1  0  0  0  0
  1  2  1  0  0  0  0
 22 23  2  0  0  0  0
 22 24  1  0  0  0  0
 19 20  1  0  0  0  0
 19 21  1  0  0  0  0
 17 18  2  0  0  0  0
 17 19  1  0  0  0  0
 14 15  1  0  0  0  0
 14 16  1  0  0  0  0
 14 17  1  0  0  0  0
 11 12  1  0  0  0  0
 11 13  1  0  0  0  0
 11 14  1  0  0  0  0
  9 10  1  0  0  0  0
  9 11  1  0  0  0  0
  9 22  1  0  0  0  0
  7  8  1  0  0  0  0
  7  9  1  0  0  0  0
 26 27  1  0  0  0  0
 26 28  1  0  0  0  0
 26 29  1  0  0  0  0
 24 25  1  0  0  0  0
 24 26  1  0  0  0  0
M  END
$$$$
default_name
  -OEChem-02102213163D

 29 28  0     1  0  0  0  0  0999 V2000
   -3.3998   -3.6239    1.3678 H   0  0  0  0  0  0  0  0  0  0  0  0
   -3.3608   -2.6749    0.8348 C   0  0  0  0  0  0  0  0  0  0  0  0
   -4.0988   -1.9909    1.2498 H   0  0  0  0  0  0  0  0  0  0  0  0
   -3.5618   -2.8419   -0.2222 H   0  0  0  0  0  0  0  0  0  0  0  0
   -1.9818   -2.0809    0.9918 C   0  0  0  0  0  0  0  0  0  0  0  0
   -1.1288   -2.6669    1.6468 O   0  0  0  0  0  0  0  0  0  0  0  0
   -1.7648   -0.9089    0.3998 N   0  0  0  0  0  0  0  0  0  0  0  0
   -2.5238   -0.4719   -0.1032 H   0  0  0  0  0  0  0  0  0  0  0  0
   -0.4848   -0.1959    0.4138 C   0  0  1  0  0  0  0  0  0  0  0  0
    0.1386   -0.6144    1.2058 H   0  0  0  0  0  0  0  0  0  0  0  0
    0.2271   -0.4272   -0.9334 C   0  0  0  0  0  0  0  0  0  0  0  0
    1.3051   -0.4032   -0.7607 H   0  0  0  0  0  0  0  0  0  0  0  0
   -0.0360   -1.4167   -1.3103 H   0  0  0  0  0  0  0  0  0  0  0  0
   -0.1155    0.6210   -2.0064 C   0  0  0  0  0  0  0  0  0  0  0  0
    0.4130    0.3870   -2.9302 H   0  0  0  0  0  0  0  0  0  0  0  0
   -1.1875    0.5904   -2.2012 H   0  0  0  0  0  0  0  0  0  0  0  0
    0.2582    2.0455   -1.5966 C   0  0  0  0  0  0  0  0  0  0  0  0
    0.7092    2.3306   -0.5030 O   0  0  0  0  0  0  0  0  0  0  0  0
    0.0916    3.0128   -2.4722 N   0  0  0  0  0  0  0  0  0  0  0  0
    0.3541    3.9282   -2.1504 H   0  0  0  0  0  0  0  0  0  0  0  0
   -0.2728    2.8333   -3.3858 H   0  0  0  0  0  0  0  0  0  0  0  0
   -0.7011    1.2952    0.7149 C   0  0  0  0  0  0  0  0  0  0  0  0
   -1.5917    1.9198    0.1415 O   0  0  0  0  0  0  0  0  0  0  0  0
    0.1191    1.8675    1.6055 N   0  0  0  0  0  0  0  0  0  0  0  0
    0.8092    1.2861    2.0537 H   0  0  0  0  0  0  0  0  0  0  0  0
    0.0509    3.2769    1.9894 C   0  0  0  0  0  0  0  0  0  0  0  0
   -0.9494    3.5076    2.3640 H   0  0  0  0  0  0  0  0  0  0  0  0
    0.7844    3.4956    2.7668 H   0  0  0  0  0  0  0  0  0  0  0  0
    0.2468    3.9058    1.1193 H   0  0  0  0  0  0  0  0  0  0  0  0
  5  6  2  0  0  0  0
  5  7  1  0  0  0  0
  2  3  1  0  0  0  0
  2  4  1  0  0  0  0
  2  5  1  0  0  0  0
  1  2  1  0  0  0  0
 22 23  2  0  0  0  0
 22 24  1  0  0  0  0
 19 20  1  0  0  0  0
 19 21  1  0  0  0  0
 17 18  2  0  0  0  0
 17 19  1  0  0  0  0
 14 15  1  0  0  0  0
 14 16  1  0  0  0  0
 14 17  1  0  0  0  0
 11 12  1  0  0  0  0
 11 13  1  0  0  0  0
 11 14  1  0  0  0  0
  9 10  1  0  0  0  0
  9 11  1  0  0  0  0
  9 22  1  0  0  0  0
  7  8  1  0  0  0  0
  7  9  1  0  0  0  0
 26 27  1  0  0  0  0
 26 28  1  0  0  0  0
 26 29  1  0  0  0  0
 24 25  1  0  0  0  0
 24 26  1  0  0  0  0
M  END
$$$$
default_name
  -OEChem-02102213163D

 29 28  0     1  0  0  0  0  0999 V2000
   -3.3998   -3.6239    1.3678 H   0  0  0  0  0  0  0  0  0  0  0  0
   -3.3608   -2.6749    0.8348 C   0  0  0  0  0  0  0  0  0  0  0  0
   -4.0988   -1.9909    1.2498 H   0  0  0  0  0  0  0  0  0  0  0  0
   -3.5618   -2.8419   -0.2222 H   0  0  0  0  0  0  0  0  0  0  0  0
   -1.9818   -2.0809    0.9918 C   0  0  0  0  0  0  0  0  0  0  0  0
   -1.1288   -2.6669    1.6468 O   0  0  0  0  0  0  0  0  0  0  0  0
   -1.7648   -0.9089    0.3998 N   0  0  0  0  0  0  0  0  0  0  0  0
   -2.5238   -0.4719   -0.1032 H   0  0  0  0  0  0  0  0  0  0  0  0
   -0.4848   -0.1959    0.4138 C   0  0  1  0  0  0  0  0  0  0  0  0
    0.1386   -0.6144    1.2058 H   0  0  0  0  0  0  0  0  0  0  0  0
    0.2271   -0.4272   -0.9334 C   0  0  0  0  0  0  0  0  0  0  0  0
    1.3051   -0.4032   -0.7607 H   0  0  0  0  0  0  0  0  0  0  0  0
   -0.0360   -1.4167   -1.3103 H   0  0  0  0  0  0  0  0  0  0  0  0
   -0.1155    0.6210   -2.0064 C   0  0  0  0  0  0  0  0  0  0  0  0
    0.1871    0.2548   -2.9872 H   0  0  0  0  0  0  0  0  0  0  0  0
   -1.1935    0.7820   -2.0122 H   0  0  0  0  0  0  0  0  0  0  0  0
    0.5703    1.9670   -1.7728 C   0  0  0  0  0  0  0  0  0  0  0  0
    1.2553    2.2086   -0.7966 O   0  0  0  0  0  0  0  0  0  0  0  0
    0.4196    2.9113   -2.6761 N   0  0  0  0  0  0  0  0  0  0  0  0
    0.8926    3.7747   -2.4724 H   0  0  0  0  0  0  0  0  0  0  0  0
   -0.1304    2.7649   -3.4981 H   0  0  0  0  0  0  0  0  0  0  0  0
   -0.7011    1.2952    0.7149 C   0  0  0  0  0  0  0  0  0  0  0  0
   -1.5917    1.9198    0.1415 O   0  0  0  0  0  0  0  0  0  0  0  0
    0.1191    1.8675    1.6055 N   0  0  0  0  0  0  0  0  0  0  0  0
    0.8092    1.2861    2.0537 H   0  0  0  0  0  0  0  0  0  0  0  0
    0.0509    3.2769    1.9894 C   0  0  0  0  0  0  0  0  0  0  0  0
   -0.9494    3.5076    2.3640 H   0  0  0  0  0  0  0  0  0  0  0  0
    0.7844    3.4956    2.7668 H   0  0  0  0  0  0  0  0  0  0  0  0
    0.2468    3.9058    1.1193 H   0  0  0  0  0  0  0  0  0  0  0  0
  5  6  2  0  0  0  0
  5  7  1  0  0  0  0
  2  3  1  0  0  0  0
  2  4  1  0  0  0  0
  2  5  1  0  0  0  0
  1  2  1  0  0  0  0
 22 23  2  0  0  0  0
 22 24  1  0  0  0  0
 19 20  1  0  0  0  0
 19 21  1  0  0  0  0
 17 18  2  0  0  0  0
 17 19  1  0  0  0  0
 14 15  1  0  0  0  0
 14 16  1  0  0  0  0
 14 17  1  0  0  0  0
 11 12  1  0  0  0  0
 11 13  1  0  0  0  0
 11 14  1  0  0  0  0
  9 10  1  0  0  0  0
  9 11  1  0  0  0  0
  9 22  1  0  0  0  0
  7  8  1  0  0  0  0
  7  9  1  0  0  0  0
 26 27  1  0  0  0  0
 26 28  1  0  0  0  0
 26 29  1  0  0  0  0
 24 25  1  0  0  0  0
 24 26  1  0  0  0  0
M  END
$$$$
default_name
  -OEChem-02102213163D

 29 28  0     1  0  0  0  0  0999 V2000
   -3.3998   -3.6239    1.3678 H   0  0  0  0  0  0  0  0  0  0  0  0
   -3.3608   -2.6749    0.8348 C   0  0  0  0  0  0  0  0  0  0  0  0
   -4.0988   -1.9909    1.2498 H   0  0  0  0  0  0  0  0  0  0  0  0
   -3.5618   -2.8419   -0.2222 H   0  0  0  0  0  0  0  0  0  0  0  0
   -1.9818   -2.0809    0.9918 C   0  0  0  0  0  0  0  0  0  0  0  0
   -1.1288   -2.6669    1.6468 O   0  0  0  0  0  0  0  0  0  0  0  0
   -1.7648   -0.9089    0.3998 N   0  0  0  0  0  0  0  0  0  0  0  0
   -2.5238   -0.4719   -0.1032 H   0  0  0  0  0  0  0  0  0  0  0  0
   -0.4848   -0.1959    0.4138 C   0  0  1  0  0  0  0  0  0  0  0  0
    0.1386   -0.6144    1.2058 H   0  0  0  0  0  0  0  0  0  0  0  0
    0.2271   -0.4272   -0.9334 C   0  0  0  0  0  0  0  0  0  0  0  0
    1.3051   -0.4032   -0.7607 H   0  0  0  0  0  0  0  0  0  0  0  0
   -0.0360   -1.4167   -1.3103 H   0  0  0  0  0  0  0  0  0  0  0  0
   -0.1155    0.6210   -2.0064 C   0  0  0  0  0  0  0  0  0  0  0  0
   -0.0650    0.1647   -2.9947 H   0  0  0  0  0  0  0  0  0  0  0  0
   -1.1314    0.9789   -1.8396 H   0  0  0  0  0  0  0  0  0  0  0  0
    0.8265    1.8248   -1.9936 C   0  0  0  0  0  0  0  0  0  0  0  0
    1.7089    1.9752   -1.1694 O   0  0  0  0  0  0  0  0  0  0  0  0
    0.6822    2.7424   -2.9250 N   0  0  0  0  0  0  0  0  0  0  0  0
    1.3282    3.5106   -2.8695 H   0  0  0  0  0  0  0  0  0  0  0  0
   -0.0250    2.6667   -3.6277 H   0  0  0  0  0  0  0  0  0  0  0  0
   -0.7011    1.2952    0.7149 C   0  0  0  0  0  0  0  0  0  0  0  0
   -1.5917    1.9198    0.1415 O   0  0  0  0  0  0  0  0  0  0  0  0
    0.1191    1.8675    1.6055 N   0  0  0  0  0  0  0  0  0  0  0  0
    0.8092    1.2861    2.0537 H   0  0  0  0  0  0  0  0  0  0  0  0
    0.0509    3.2769    1.9894 C   0  0  0  0  0  0  0  0  0  0  0  0
   -0.9494    3.5076    2.3640 H   0  0  0  0  0  0  0  0  0  0  0  0
    0.7844    3.4956    2.7668 H   0  0  0  0  0  0  0  0  0  0  0  0
    0.2468    3.9058    1.1193 H   0  0  0  0  0  0  0  0  0  0  0  0
  5  6  2  0  0  0  0
  5  7  1  0  0  0  0
  2  3  1  0  0  0  0
  2  4  1  0  0  0  0
  2  5  1  0  0  0  0
  1  2  1  0  0  0  0
 22 23  2  0  0  0  0
 22 24  1  0  0  0  0
 19 20  1  0  0  0  0
 19 21  1  0  0  0  0
 17 18  2  0  0  0  0
 17 19  1  0  0  0  0
 14 15  1  0  0  0  0
 14 16  1  0  0  0  0
 14 17  1  0  0  0  0
 11 12  1  0  0  0  0
 11 13  1  0  0  0  0
 11 14  1  0  0  0  0
  9 10  1  0  0  0  0
  9 11  1  0  0  0  0
  9 22  1  0  0  0  0
  7  8  1  0  0  0  0
  7  9  1  0  0  0  0
 26 27  1  0  0  0  0
 26 28  1  0  0  0  0
 26 29  1  0  0  0  0
 24 25  1  0  0  0  0
 24 26  1  0  0  0  0
M  END
$$$$
default_name
  -OEChem-02102213163D

 29 28  0     1  0  0  0  0  0999 V2000
   -3.3998   -3.6239    1.3678 H   0  0  0  0  0  0  0  0  0  0  0  0
   -3.3608   -2.6749    0.8348 C   0  0  0  0  0  0  0  0  0  0  0  0
   -4.0988   -1.9909    1.2498 H   0  0  0  0  0  0  0  0  0  0  0  0
   -3.5618   -2.8419   -0.2222 H   0  0  0  0  0  0  0  0  0  0  0  0
   -1.9818   -2.0809    0.9918 C   0  0  0  0  0  0  0  0  0  0  0  0
   -1.1288   -2.6669    1.6468 O   0  0  0  0  0  0  0  0  0  0  0  0
   -1.7648   -0.9089    0.3998 N   0  0  0  0  0  0  0  0  0  0  0  0
   -2.5238   -0.4719   -0.1032 H   0  0  0  0  0  0  0  0  0  0  0  0
   -0.4848   -0.1959    0.4138 C   0  0  1  0  0  0  0  0  0  0  0  0
    0.1386   -0.6144    1.2058 H   0  0  0  0  0  0  0  0  0  0  0  0
    0.2271   -0.4272   -0.9334 C   0  0  0  0  0  0  0  0  0  0  0  0
    1.3051   -0.4032   -0.7607 H   0  0  0  0  0  0  0  0  0  0  0  0
   -0.0360   -1.4167   -1.3103 H   0  0  0  0  0  0  0  0  0  0  0  0
   -0.1155    0.6210   -2.0064 C   0  0  0  0  0  0  0  0  0  0  0  0
   -0.3262    0.1226   -2.9524 H   0  0  0  0  0  0  0  0  0  0  0  0
   -1.0055    1.1679   -1.6952 H   0  0  0  0  0  0  0  0  0  0  0  0
    1.0093    1.6285   -2.2438 C   0  0  0  0  0  0  0  0  0  0  0  0
    2.0393    1.6465   -1.5961 O   0  0  0  0  0  0  0  0  0  0  0  0
    0.8615    2.5175   -3.2019 N   0  0  0  0  0  0  0  0  0  0  0  0
    1.6313    3.1540   -3.3146 H   0  0  0  0  0  0  0  0  0  0  0  0
    0.0363    2.5453   -3.7658 H   0  0  0  0  0  0  0  0  0  0  0  0
   -0.7011    1.2952    0.7149 C   0  0  0  0  0  0  0  0  0  0  0  0
   -1.5917    1.9198    0.1415 O   0  0  0  0  0  0  0  0  0  0  0  0
    0.1191    1.8675    1.6055 N   0  0  0  0  0  0  0  0  0  0  0  0
    0.8092    1.2861    2.0537 H   0  0  0  0  0  0  0  0  0  0  0  0
    0.0509    3.2769    1.9894 C   0  0  0  0  0  0  0  0  0  0  0  0
   -0.9494    3.5076    2.3640 H   0  0  0  0  0  0  0  0  0  0  0  0
    0.7844    3.4956    2.7668 H   0  0  0  0  0  0  0  0  0  0  0  0
    0.2468    3.9058    1.1193 H   0  0  0  0  0  0  0  0  0  0  0  0
  5  6  2  0  0  0  0
  5  7  1  0  0  0  0
  2  3  1  0  0  0  0
  2  4  1  0  0  0  0
  2  5  1  0  0  0  0
  1  2  1  0  0  0  0
 22 23  2  0  0  0  0
 22 24  1  0  0  0  0
 19 20  1  0  0  0  0
 19 21  1  0  0  0  0
 17 18  2  0  0  0  0
 17 19  1  0  0  0  0
 14 15  1  0  0  0  0
 14 16  1  0  0  0  0
 14 17  1  0  0  0  0
 11 12  1  0  0  0  0
 11 13  1  0  0  0  0
 11 14  1  0  0  0  0
  9 10  1  0  0  0  0
  9 11  1  0  0  0  0
  9 22  1  0  0  0  0
  7  8  1  0  0  0  0
  7  9  1  0  0  0  0
 26 27  1  0  0  0  0
 26 28  1  0  0  0  0
 26 29  1  0  0  0  0
 24 25  1  0  0  0  0
 24 26  1  0  0  0  0
M  END
$$$$
default_name
  -OEChem-02102213163D

 29 28  0     1  0  0  0  0  0999 V2000
   -3.3998   -3.6239    1.3678 H   0  0  0  0  0  0  0  0  0  0  0  0
   -3.3608   -2.6749    0.8348 C   0  0  0  0  0  0  0  0  0  0  0  0
   -4.0988   -1.9909    1.2498 H   0  0  0  0  0  0  0  0  0  0  0  0
   -3.5618   -2.8419   -0.2222 H   0  0  0  0  0  0  0  0  0  0  0  0
   -1.9818   -2.0809    0.9918 C   0  0  0  0  0  0  0  0  0  0  0  0
   -1.1288   -2.6669    1.6468 O   0  0  0  0  0  0  0  0  0  0  0  0
   -1.7648   -0.9089    0.3998 N   0  0  0  0  0  0  0  0  0  0  0  0
   -2.5238   -0.4719   -0.1032 H   0  0  0  0  0  0  0  0  0  0  0  0
   -0.4848   -0.1959    0.4138 C   0  0  1  0  0  0  0  0  0  0  0  0
    0.1386   -0.6144    1.2058 H   0  0  0  0  0  0  0  0  0  0  0  0
    0.2271   -0.4272   -0.9334 C   0  0  0  0  0  0  0  0  0  0  0  0
    1.3051   -0.4032   -0.7607 H   0  0  0  0  0  0  0  0  0  0  0  0
   -0.0360   -1.4167   -1.3103 H   0  0  0  0  0  0  0  0  0  0  0  0
   -0.1155    0.6210   -2.0064 C   0  0  0  0  0  0  0  0  0  0  0  0
   -0.5785    0.1316   -2.8630 H   0  0  0  0  0  0  0  0  0  0  0  0
   -0.8243    1.3360   -1.5888 H   0  0  0  0  0  0  0  0  0  0  0  0
    1.1064    1.3914   -2.5064 C   0  0  0  0  0  0  0  0  0  0  0  0
    2.2238    1.2447   -2.0475 O   0  0  0  0  0  0  0  0  0  0  0  0
    0.9452    2.2519   -3.4881 N   0  0  0  0  0  0  0  0  0  0  0  0
    1.7812    2.7293   -3.7774 H   0  0  0  0  0  0  0  0  0  0  0  0
    0.0492    2.4091   -3.9030 H   0  0  0  0  0  0  0  0  0  0  0  0
   -0.7011    1.2952    0.7149 C   0  0  0  0  0  0  0  0  0  0  0  0
   -1.5917    1.9198    0.1415 O   0  0  0  0  0  0  0  0  0  0  0  0
    0.1191    1.8675    1.6055 N   0  0  0  0  0  0  0  0  0  0  0  0
    0.8092    1.2861    2.0537 H   0  0  0  0  0  0  0  0  0  0  0  0
    0.0509    3.2769    1.9894 C   0  0  0  0  0  0  0  0  0  0  0  0
   -0.9494    3.5076    2.3640 H   0  0  0  0  0  0  0  0  0  0  0  0
    0.7844    3.4956    2.7668 H   0  0  0  0  0  0  0  0  0  0  0  0
    0.2468    3.9058    1.1193 H   0  0  0  0  0  0  0  0  0  0  0  0
  5  6  2  0  0  0  0
  5  7  1  0  0  0  0
  2  3  1  0  0  0  0
  2  4  1  0  0  0  0
  2  5  1  0  0  0  0
  1  2  1  0  0  0  0
 22 23  2  0  0  0  0
 22 24  1  0  0  0  0
 19 20  1  0  0  0  0
 19 21  1  0  0  0  0
 17 18  2  0  0  0  0
 17 19  1  0  0  0  0
 14 15  1  0  0  0  0
 14 16  1  0  0  0  0
 14 17  1  0  0  0  0
 11 12  1  0  0  0  0
 11 13  1  0  0  0  0
 11 14  1  0  0  0  0
  9 10  1  0  0  0  0
  9 11  1  0  0  0  0
  9 22  1  0  0  0  0
  7  8  1  0  0  0  0
  7  9  1  0  0  0  0
 26 27  1  0  0  0  0
 26 28  1  0  0  0  0
 26 29  1  0  0  0  0
 24 25  1  0  0  0  0
 24 26  1  0  0  0  0
M  END
$$$$
default_name
  -OEChem-02102213163D

 29 28  0     1  0  0  0  0  0999 V2000
   -3.3998   -3.6239    1.3678 H   0  0  0  0  0  0  0  0  0  0  0  0
   -3.3608   -2.6749    0.8348 C   0  0  0  0  0  0  0  0  0  0  0  0
   -4.0988   -1.9909    1.2498 H   0  0  0  0  0  0  0  0  0  0  0  0
   -3.5618   -2.8419   -0.2222 H   0  0  0  0  0  0  0  0  0  0  0  0
   -1.9818   -2.0809    0.9918 C   0  0  0  0  0  0  0  0  0  0  0  0
   -1.1288   -2.6669    1.6468 O   0  0  0  0  0  0  0  0  0  0  0  0
   -1.7648   -0.9089    0.3998 N   0  0  0  0  0  0  0  0  0  0  0  0
   -2.5238   -0.4719   -0.1032 H   0  0  0  0  0  0  0  0  0  0  0  0
   -0.4848   -0.1959    0.4138 C   0  0  1  0  0  0  0  0  0  0  0  0
    0.1386   -0.6144    1.2058 H   0  0  0  0  0  0  0  0  0  0  0  0
    0.2271   -0.4272   -0.9334 C   0  0  0  0  0  0  0  0  0  0  0  0
    1.3051   -0.4032   -0.7607 H   0  0  0  0  0  0  0  0  0  0  0  0
   -0.0360   -1.4167   -1.3103 H   0  0  0  0  0  0  0  0  0  0  0  0
   -0.1155    0.6210   -2.0064 C   0  0  0  0  0  0  0  0  0  0  0  0
   -0.8049    0.1910   -2.7327 H   0  0  0  0  0  0  0  0  0  0  0  0
   -0.6001    1.4719   -1.5277 H   0  0  0  0  0  0  0  0  0  0  0  0
    1.1111    1.1298   -2.7635 C   0  0  0  0  0  0  0  0  0  0  0  0
    2.2499    0.7973   -2.4929 O   0  0  0  0  0  0  0  0  0  0  0  0
    0.9277    1.9638   -3.7640 N   0  0  0  0  0  0  0  0  0  0  0  0
    1.7678    2.2652   -4.2265 H   0  0  0  0  0  0  0  0  0  0  0  0
    0.0129    2.2672   -4.0300 H   0  0  0  0  0  0  0  0  0  0  0  0
   -0.7011    1.2952    0.7149 C   0  0  0  0  0  0  0  0  0  0  0  0
   -1.5917    1.9198    0.1415 O   0  0  0  0  0  0  0  0  0  0  0  0
    0.1191    1.8675    1.6055 N   0  0  0  0  0  0  0  0  0  0  0  0
    0.8092    1.2861    2.0537 H   0  0  0  0  0  0  0  0  0  0  0  0
    0.0509    3.2769    1.9894 C   0  0  0  0  0  0  0  0  0  0  0  0
   -0.9494    3.5076    2.3640 H   0  0  0  0  0  0  0  0  0  0  0  0
    0.7844    3.4956    2.7668 H   0  0  0  0  0  0  0  0  0  0  0  0
    0.2468    3.9058    1.1193 H   0  0  0  0  0  0  0  0  0  0  0  0
  5  6  2  0  0  0  0
  5  7  1  0  0  0  0
  2  3  1  0  0  0  0
  2  4  1  0  0  0  0
  2  5  1  0  0  0  0
  1  2  1  0  0  0  0
 22 23  2  0  0  0  0
 22 24  1  0  0  0  0
 19 20  1  0  0  0  0
 19 21  1  0  0  0  0
 17 18  2  0  0  0  0
 17 19  1  0  0  0  0
 14 15  1  0  0  0  0
 14 16  1  0  0  0  0
 14 17  1  0  0  0  0
 11 12  1  0  0  0  0
 11 13  1  0  0  0  0
 11 14  1  0  0  0  0
  9 10  1  0  0  0  0
  9 11  1  0  0  0  0
  9 22  1  0  0  0  0
  7  8  1  0  0  0  0
  7  9  1  0  0  0  0
 26 27  1  0  0  0  0
 26 28  1  0  0  0  0
 26 29  1  0  0  0  0
 24 25  1  0  0  0  0
 24 26  1  0  0  0  0
M  END
$$$$
default_name
  -OEChem-02102213163D

 29 28  0     1  0  0  0  0  0999 V2000
   -3.3998   -3.6239    1.3678 H   0  0  0  0  0  0  0  0  0  0  0  0
   -3.3608   -2.6749    0.8348 C   0  0  0  0  0  0  0  0  0  0  0  0
   -4.0988   -1.9909    1.2498 H   0  0  0  0  0  0  0  0  0  0  0  0
   -3.5618   -2.8419   -0.2222 H   0  0  0  0  0  0  0  0  0  0  0  0
   -1.9818   -2.0809    0.9918 C   0  0  0  0  0  0  0  0  0  0  0  0
   -1.1288   -2.6669    1.6468 O   0  0  0  0  0  0  0  0  0  0  0  0
   -1.7648   -0.9089    0.3998 N   0  0  0  0  0  0  0  0  0  0  0  0
   -2.5238   -0.4719   -0.1032 H   0  0  0  0  0  0  0  0  0  0  0  0
   -0.4848   -0.1959    0.4138 C   0  0  1  0  0  0  0  0  0  0  0  0
    0.1386   -0.6144    1.2058 H   0  0  0  0  0  0  0  0  0  0  0  0
    0.2271   -0.4272   -0.9334 C   0  0  0  0  0  0  0  0  0  0  0  0
    1.3051   -0.4032   -0.7607 H   0  0  0  0  0  0  0  0  0  0  0  0
   -0.0360   -1.4167   -1.3103 H   0  0  0  0  0  0  0  0  0  0  0  0
   -0.1155    0.6210   -2.0064 C   0  0  0  0  0  0  0  0  0  0  0  0
   -0.9899    0.2968   -2.5703 H   0  0  0  0  0  0  0  0  0  0  0  0
   -0.3483    1.5662   -1.5160 H   0  0  0  0  0  0  0  0  0  0  0  0
    1.0231    0.8614   -2.9976 C   0  0  0  0  0  0  0  0  0  0  0  0
    2.1158    0.3347   -2.9020 O   0  0  0  0  0  0  0  0  0  0  0  0
    0.8101    1.6727   -4.0108 N   0  0  0  0  0  0  0  0  0  0  0  0
    1.5918    1.7935   -4.6311 H   0  0  0  0  0  0  0  0  0  0  0  0
   -0.0702    2.1295   -4.1381 H   0  0  0  0  0  0  0  0  0  0  0  0
   -0.7011    1.2952    0.7149 C   0  0  0  0  0  0  0  0  0  0  0  0
   -1.5917    1.9198    0.1415 O   0  0  0  0  0  0  0  0  0  0  0  0
    0.1191    1.8675    1.6055 N   0  0  0  0  0  0  0  0  0  0  0  0
    0.8092    1.2861    2.0537 H   0  0  0  0  0  0  0  0  0  0  0  0
    0.0509    3.2769    1.9894 C   0  0  0  0  0  0  0  0  0  0  0  0
   -0.9494    3.5076    2.3640 H   0  0  0  0  0  0  0  0  0  0  0  0
    0.7844    3.4956    2.7668 H   0  0  0  0  0  0  0  0  0  0  0  0
    0.2468    3.9058    1.1193 H   0  0  0  0  0  0  0  0  0  0  0  0
  5  6  2  0  0  0  0
  5  7  1  0  0  0  0
  2  3  1  0  0  0  0
  2  4  1  0  0  0  0
  2  5  1  0  0  0  0
  1  2  1  0  0  0  0
 22 23  2  0  0  0  0
 22 24  1  0  0  0  0
 19 20  1  0  0  0  0
 19 21  1  0  0  0  0
 17 18  2  0  0  0  0
 17 19  1  0  0  0  0
 14 15  1  0  0  0  0
 14 16  1  0  0  0  0
 14 17  1  0  0  0  0
 11 12  1  0  0  0  0
 11 13  1  0  0  0  0
 11 14  1  0  0  0  0
  9 10  1  0  0  0  0
  9 11  1  0  0  0  0
  9 22  1  0  0  0  0
  7  8  1  0  0  0  0
  7  9  1  0  0  0  0
 26 27  1  0  0  0  0
 26 28  1  0  0  0  0
 26 29  1  0  0  0  0
 24 25  1  0  0  0  0
 24 26  1  0  0  0  0
M  END
$$$$
default_name
  -OEChem-02102213163D

 29 28  0     1  0  0  0  0  0999 V2000
   -3.3998   -3.6239    1.3678 H   0  0  0  0  0  0  0  0  0  0  0  0
   -3.3608   -2.6749    0.8348 C   0  0  0  0  0  0  0  0  0  0  0  0
   -4.0988   -1.9909    1.2498 H   0  0  0  0  0  0  0  0  0  0  0  0
   -3.5618   -2.8419   -0.2222 H   0  0  0  0  0  0  0  0  0  0  0  0
   -1.9818   -2.0809    0.9918 C   0  0  0  0  0  0  0  0  0  0  0  0
   -1.1288   -2.6669    1.6468 O   0  0  0  0  0  0  0  0  0  0  0  0
   -1.7648   -0.9089    0.3998 N   0  0  0  0  0  0  0  0  0  0  0  0
   -2.5238   -0.4719   -0.1032 H   0  0  0  0  0  0  0  0  0  0  0  0
   -0.4848   -0.1959    0.4138 C   0  0  1  0  0  0  0  0  0  0  0  0
    0.1386   -0.6144    1.2058 H   0  0  0  0  0  0  0  0  0  0  0  0
    0.2271   -0.4272   -0.9334 C   0  0  0  0  0  0  0  0  0  0  0  0
    1.3051   -0.4032   -0.7607 H   0  0  0  0  0  0  0  0  0  0  0  0
   -0.0360   -1.4167   -1.3103 H   0  0  0  0  0  0  0  0  0  0  0  0
   -0.1155    0.6210   -2.0064 C   0  0  0  0  0  0  0  0  0  0  0  0
   -1.1208    0.4417   -2.3870 H   0  0  0  0  0  0  0  0  0  0  0  0
   -0.0860    1.6125   -1.5545 H   0  0  0  0  0  0  0  0  0  0  0  0
    0.8483    0.6045   -3.1927 C   0  0  0  0  0  0  0  0  0  0  0  0
    1.8307   -0.1114   -3.2468 O   0  0  0  0  0  0  0  0  0  0  0  0
    0.6005    1.3986   -4.2116 N   0  0  0  0  0  0  0  0  0  0  0  0
    1.2654    1.3463   -4.9637 H   0  0  0  0  0  0  0  0  0  0  0  0
   -0.1943    2.0051   -4.2199 H   0  0  0  0  0  0  0  0  0  0  0  0
   -0.7011    1.2952    0.7149 C   0  0  0  0  0  0  0  0  0  0  0  0
   -1.5917    1.9198    0.1415 O   0  0  0  0  0  0  0  0  0  0  0  0
    0.1191    1.8675    1.6055 N   0  0  0  0  0  0  0  0  0  0  0  0
    0.8092    1.2861    2.0537 H   0  0  0  0  0  0  0  0  0  0  0  0
    0.0509    3.2769    1.9894 C   0  0  0  0  0  0  0  0  0  0  0  0
   -0.9494    3.5076    2.3640 H   0  0  0  0  0  0  0  0  0  0  0  0
    0.7844    3.4956    2.7668 H   0  0  0  0  0  0  0  0  0  0  0  0
    0.2468    3.9058    1.1193 H   0  0  0  0  0  0  0  0  0  0  0  0
  5  6  2  0  0  0  0
  5  7  1  0  0  0  0
  2  3  1  0  0  0  0
  2  4  1  0  0  0  0
  2  5  1  0  0  0  0
  1  2  1  0  0  0  0
 22 23  2  0  0  0  0
 22 24  1  0  0  0  0
 19 20  1  0  0  0  0
 19 21  1  0  0  0  0
 17 18  2  0  0  0  0
 17 19  1  0  0  0  0
 14 15  1  0  0  0  0
 14 16  1  0  0  0  0
 14 17  1  0  0  0  0
 11 12  1  0  0  0  0
 11 13  1  0  0  0  0
 11 14  1  0  0  0  0
  9 10  1  0  0  0  0
  9 11  1  0  0  0  0
  9 22  1  0  0  0  0
  7  8  1  0  0  0  0
  7  9  1  0  0  0  0
 26 27  1  0  0  0  0
 26 28  1  0  0  0  0
 26 29  1  0  0  0  0
 24 25  1  0  0  0  0
 24 26  1  0  0  0  0
M  END
$$$$
default_name
  -OEChem-02102213163D

 29 28  0     1  0  0  0  0  0999 V2000
   -3.3998   -3.6239    1.3678 H   0  0  0  0  0  0  0  0  0  0  0  0
   -3.3608   -2.6749    0.8348 C   0  0  0  0  0  0  0  0  0  0  0  0
   -4.0988   -1.9909    1.2498 H   0  0  0  0  0  0  0  0  0  0  0  0
   -3.5618   -2.8419   -0.2222 H   0  0  0  0  0  0  0  0  0  0  0  0
   -1.9818   -2.0809    0.9918 C   0  0  0  0  0  0  0  0  0  0  0  0
   -1.1288   -2.6669    1.6468 O   0  0  0  0  0  0  0  0  0  0  0  0
   -1.7648   -0.9089    0.3998 N   0  0  0  0  0  0  0  0  0  0  0  0
   -2.5238   -0.4719   -0.1032 H   0  0  0  0  0  0  0  0  0  0  0  0
   -0.4848   -0.1959    0.4138 C   0  0  1  0  0  0  0  0  0  0  0  0
    0.1386   -0.6144    1.2058 H   0  0  0  0  0  0  0  0  0  0  0  0
    0.2271   -0.4272   -0.9334 C   0  0  0  0  0  0  0  0  0  0  0  0
    1.2725   -0.6703   -0.7321 H   0  0  0  0  0  0  0  0  0  0  0  0
   -0.2306   -1.2802   -1.4366 H   0  0  0  0  0  0  0  0  0  0  0  0
    0.1848    0.7879   -1.8764 C   0  0  0  0  0  0  0  0  0  0  0  0
   -0.8510    1.0499   -2.0912 H   0  0  0  0  0  0  0  0  0  0  0  0
    0.6632    1.6345   -1.3841 H   0  0  0  0  0  0  0  0  0  0  0  0
    0.8951    0.5414   -3.2073 C   0  0  0  0  0  0  0  0  0  0  0  0
    1.4987   -0.4835   -3.4638 O   0  0  0  0  0  0  0  0  0  0  0  0
    0.8460    1.4811   -4.1264 N   0  0  0  0  0  0  0  0  0  0  0  0
    1.3289    1.2659   -4.9814 H   0  0  0  0  0  0  0  0  0  0  0  0
    0.3615    2.3413   -3.9686 H   0  0  0  0  0  0  0  0  0  0  0  0
   -0.7011    1.2952    0.7149 C   0  0  0  0  0  0  0  0  0  0  0  0
   -1.5917    1.9198    0.1415 O   0  0  0  0  0  0  0  0  0  0  0  0
    0.1191    1.8675    1.6055 N   0  0  0  0  0  0  0  0  0  0  0  0
    0.8092    1.2861    2.0537 H   0  0  0  0  0  0  0  0  0  0  0  0
    0.0509    3.2769    1.9894 C   0  0  0  0  0  0  0  0  0  0  0  0
   -0.9494    3.5076    2.3640 H   0  0  0  0  0  0  0  0  0  0  0  0
    0.7844    3.4956    2.7668 H   0  0  0  0  0  0  0  0  0  0  0  0
    0.2468    3.9058    1.1193 H   0  0  0  0  0  0  0  0  0  0  0  0
  5  6  2  0  0  0  0
  5  7  1  0  0  0  0
  2  3  1  0  0  0  0
  2  4  1  0  0  0  0
  2  5  1  0  0  0  0
  1  2  1  0  0  0  0
 22 23  2  0  0  0  0
 22 24  1  0  0  0  0
 19 20  1  0  0  0  0
 19 21  1  0  0  0  0
 17 18  2  0  0  0  0
 17 19  1  0  0  0  0
 14 15  1  0  0  0  0
 14 16  1  0  0  0  0
 14 17  1  0  0  0  0
 11 12  1  0  0  0  0
 11 13  1  0  0  0  0
 11 14  1  0  0  0  0
  9 10  1  0  0  0  0
  9 11  1  0  0  0  0
  9 22  1  0  0  0  0
  7  8  1  0  0  0  0
  7  9  1  0  0  0  0
 26 27  1  0  0  0  0
 26 28  1  0  0  0  0
 26 29  1  0  0  0  0
 24 25  1  0  0  0  0
 24 26  1  0  0  0  0
M  END
$$$$
default_name
  -OEChem-02102213163D

 29 28  0     1  0  0  0  0  0999 V2000
   -3.3998   -3.6239    1.3678 H   0  0  0  0  0  0  0  0  0  0  0  0
   -3.3608   -2.6749    0.8348 C   0  0  0  0  0  0  0  0  0  0  0  0
   -4.0988   -1.9909    1.2498 H   0  0  0  0  0  0  0  0  0  0  0  0
   -3.5618   -2.8419   -0.2222 H   0  0  0  0  0  0  0  0  0  0  0  0
   -1.9818   -2.0809    0.9918 C   0  0  0  0  0  0  0  0  0  0  0  0
   -1.1288   -2.6669    1.6468 O   0  0  0  0  0  0  0  0  0  0  0  0
   -1.7648   -0.9089    0.3998 N   0  0  0  0  0  0  0  0  0  0  0  0
   -2.5238   -0.4719   -0.1032 H   0  0  0  0  0  0  0  0  0  0  0  0
   -0.4848   -0.1959    0.4138 C   0  0  1  0  0  0  0  0  0  0  0  0
    0.1386   -0.6144    1.2058 H   0  0  0  0  0  0  0  0  0  0  0  0
    0.2271   -0.4272   -0.9334 C   0  0  0  0  0  0  0  0  0  0  0  0
    1.2725   -0.6703   -0.7321 H   0  0  0  0  0  0  0  0  0  0  0  0
   -0.2306   -1.2802   -1.4366 H   0  0  0  0  0  0  0  0  0  0  0  0
    0.1848    0.7879   -1.8764 C   0  0  0  0  0  0  0  0  0  0  0  0
   -0.8184    1.2137   -1.8817 H   0  0  0  0  0  0  0  0  0  0  0  0
    0.8815    1.5428   -1.5121 H   0  0  0  0  0  0  0  0  0  0  0  0
    0.5592    0.4438   -3.3179 C   0  0  0  0  0  0  0  0  0  0  0  0
    0.9278   -0.6617   -3.6678 O   0  0  0  0  0  0  0  0  0  0  0  0
    0.4718    1.3879   -4.2297 N   0  0  0  0  0  0  0  0  0  0  0  0
    0.7289    1.1065   -5.1599 H   0  0  0  0  0  0  0  0  0  0  0  0
    0.1719    2.3128   -3.9968 H   0  0  0  0  0  0  0  0  0  0  0  0
   -0.7011    1.2952    0.7149 C   0  0  0  0  0  0  0  0  0  0  0  0
   -1.5917    1.9198    0.1415 O   0  0  0  0  0  0  0  0  0  0  0  0
    0.1191    1.8675    1.6055 N   0  0  0  0  0  0  0  0  0  0  0  0
    0.8092    1.2861    2.0537 H   0  0  0  0  0  0  0  0  0  0  0  0
    0.0509    3.2769    1.9894 C   0  0  0  0  0  0  0  0  0  0  0  0
   -0.9494    3.5076    2.3640 H   0  0  0  0  0  0  0  0  0  0  0  0
    0.7844    3.4956    2.7668 H   0  0  0  0  0  0  0  0  0  0  0  0
    0.2468    3.9058    1.1193 H   0  0  0  0  0  0  0  0  0  0  0  0
  5  6  2  0  0  0  0
  5  7  1  0  0  0  0
  2  3  1  0  0  0  0
  2  4  1  0  0  0  0
  2  5  1  0  0  0  0
  1  2  1  0  0  0  0
 22 23  2  0  0  0  0
 22 24  1  0  0  0  0
 19 20  1  0  0  0  0
 19 21  1  0  0  0  0
 17 18  2  0  0  0  0
 17 19  1  0  0  0  0
 14 15  1  0  0  0  0
 14 16  1  0  0  0  0
 14 17  1  0  0  0  0
 11 12  1  0  0  0  0
 11 13  1  0  0  0  0
 11 14  1  0  0  0  0
  9 10  1  0  0  0  0
  9 11  1  0  0  0  0
  9 22  1  0  0  0  0
  7  8  1  0  0  0  0
  7  9  1  0  0  0  0
 26 27  1  0  0  0  0
 26 28  1  0  0  0  0
 26 29  1  0  0  0  0
 24 25  1  0  0  0  0
 24 26  1  0  0  0  0
M  END
$$$$
default_name
  -OEChem-02102213163D

 29 28  0     1  0  0  0  0  0999 V2000
   -3.3998   -3.6239    1.3678 H   0  0  0  0  0  0  0  0  0  0  0  0
   -3.3608   -2.6749    0.8348 C   0  0  0  0  0  0  0  0  0  0  0  0
   -4.0988   -1.9909    1.2498 H   0  0  0  0  0  0  0  0  0  0  0  0
   -3.5618   -2.8419   -0.2222 H   0  0  0  0  0  0  0  0  0  0  0  0
   -1.9818   -2.0809    0.9918 C   0  0  0  0  0  0  0  0  0  0  0  0
   -1.1288   -2.6669    1.6468 O   0  0  0  0  0  0  0  0  0  0  0  0
   -1.7648   -0.9089    0.3998 N   0  0  0  0  0  0  0  0  0  0  0  0
   -2.5238   -0.4719   -0.1032 H   0  0  0  0  0  0  0  0  0  0  0  0
   -0.4848   -0.1959    0.4138 C   0  0  1  0  0  0  0  0  0  0  0  0
    0.1386   -0.6144    1.2058 H   0  0  0  0  0  0  0  0  0  0  0  0
    0.2271   -0.4272   -0.9334 C   0  0  0  0  0  0  0  0  0  0  0  0
    1.2725   -0.6703   -0.7321 H   0  0  0  0  0  0  0  0  0  0  0  0
   -0.2306   -1.2802   -1.4366 H   0  0  0  0  0  0  0  0  0  0  0  0
    0.1848    0.7879   -1.8764 C   0  0  0  0  0  0  0  0  0  0  0  0
   -0.7181    1.3681   -1.6871 H   0  0  0  0  0  0  0  0  0  0  0  0
    1.0516    1.4187   -1.6797 H   0  0  0  0  0  0  0  0  0  0  0  0
    0.1967    0.4021   -3.3554 C   0  0  0  0  0  0  0  0  0  0  0  0
    0.3065   -0.7448   -3.7469 O   0  0  0  0  0  0  0  0  0  0  0  0
    0.0744    1.3565   -4.2523 N   0  0  0  0  0  0  0  0  0  0  0  0
    0.0877    1.0465   -5.2084 H   0  0  0  0  0  0  0  0  0  0  0  0
   -0.0215    2.3152   -3.9850 H   0  0  0  0  0  0  0  0  0  0  0  0
   -0.7011    1.2952    0.7149 C   0  0  0  0  0  0  0  0  0  0  0  0
   -1.5917    1.9198    0.1415 O   0  0  0  0  0  0  0  0  0  0  0  0
    0.1191    1.8675    1.6055 N   0  0  0  0  0  0  0  0  0  0  0  0
    0.8092    1.2861    2.0537 H   0  0  0  0  0  0  0  0  0  0  0  0
    0.0509    3.2769    1.9894 C   0  0  0  0  0  0  0  0  0  0  0  0
   -0.9494    3.5076    2.3640 H   0  0  0  0  0  0  0  0  0  0  0  0
    0.7844    3.4956    2.7668 H   0  0  0  0  0  0  0  0  0  0  0  0
    0.2468    3.9058    1.1193 H   0  0  0  0  0  0  0  0  0  0  0  0
  5  6  2  0  0  0  0
  5  7  1  0  0  0  0
  2  3  1  0  0  0  0
  2  4  1  0  0  0  0
  2  5  1  0  0  0  0
  1  2  1  0  0  0  0
 22 23  2  0  0  0  0
 22 24  1  0  0  0  0
 19 20  1  0  0  0  0
 19 21  1  0  0  0  0
 17 18  2  0  0  0  0
 17 19  1  0  0  0  0
 14 15  1  0  0  0  0
 14 16  1  0  0  0  0
 14 17  1  0  0  0  0
 11 12  1  0  0  0  0
 11 13  1  0  0  0  0
 11 14  1  0  0  0  0
  9 10  1  0  0  0  0
  9 11  1  0  0  0  0
  9 22  1  0  0  0  0
  7  8  1  0  0  0  0
  7  9  1  0  0  0  0
 26 27  1  0  0  0  0
 26 28  1  0  0  0  0
 26 29  1  0  0  0  0
 24 25  1  0  0  0  0
 24 26  1  0  0  0  0
M  END
$$$$
default_name
  -OEChem-02102213163D

 29 28  0     1  0  0  0  0  0999 V2000
   -3.3998   -3.6239    1.3678 H   0  0  0  0  0  0  0  0  0  0  0  0
   -3.3608   -2.6749    0.8348 C   0  0  0  0  0  0  0  0  0  0  0  0
   -4.0988   -1.9909    1.2498 H   0  0  0  0  0  0  0  0  0  0  0  0
   -3.5618   -2.8419   -0.2222 H   0  0  0  0  0  0  0  0  0  0  0  0
   -1.9818   -2.0809    0.9918 C   0  0  0  0  0  0  0  0  0  0  0  0
   -1.1288   -2.6669    1.6468 O   0  0  0  0  0  0  0  0  0  0  0  0
   -1.7648   -0.9089    0.3998 N   0  0  0  0  0  0  0  0  0  0  0  0
   -2.5238   -0.4719   -0.1032 H   0  0  0  0  0  0  0  0  0  0  0  0
   -0.4848   -0.1959    0.4138 C   0  0  1  0  0  0  0  0  0  0  0  0
    0.1386   -0.6144    1.2058 H   0  0  0  0  0  0  0  0  0  0  0  0
    0.2271   -0.4272   -0.9334 C   0  0  0  0  0  0  0  0  0  0  0  0
    1.2725   -0.6703   -0.7321 H   0  0  0  0  0  0  0  0  0  0  0  0
   -0.2306   -1.2802   -1.4366 H   0  0  0  0  0  0  0  0  0  0  0  0
    0.1848    0.7879   -1.8764 C   0  0  0  0  0  0  0  0  0  0  0  0
   -0.5570    1.5028   -1.5208 H   0  0  0  0  0  0  0  0  0  0  0  0
    1.1620    1.2706   -1.8754 H   0  0  0  0  0  0  0  0  0  0  0  0
   -0.1678    0.4190   -3.3173 C   0  0  0  0  0  0  0  0  0  0  0  0
   -0.3231   -0.7270   -3.6957 O   0  0  0  0  0  0  0  0  0  0  0  0
   -0.3191    1.3891   -4.1926 N   0  0  0  0  0  0  0  0  0  0  0  0
   -0.5511    1.0899   -5.1239 H   0  0  0  0  0  0  0  0  0  0  0  0
   -0.2056    2.3482   -3.9342 H   0  0  0  0  0  0  0  0  0  0  0  0
   -0.7011    1.2952    0.7149 C   0  0  0  0  0  0  0  0  0  0  0  0
   -1.5917    1.9198    0.1415 O   0  0  0  0  0  0  0  0  0  0  0  0
    0.1191    1.8675    1.6055 N   0  0  0  0  0  0  0  0  0  0  0  0
    0.8092    1.2861    2.0537 H   0  0  0  0  0  0  0  0  0  0  0  0
    0.0509    3.2769    1.9894 C   0  0  0  0  0  0  0  0  0  0  0  0
   -0.9494    3.5076    2.3640 H   0  0  0  0  0  0  0  0  0  0  0  0
    0.7844    3.4956    2.7668 H   0  0  0  0  0  0  0  0  0  0  0  0
    0.2468    3.9058    1.1193 H   0  0  0  0  0  0  0  0  0  0  0  0
  5  6  2  0  0  0  0
  5  7  1  0  0  0  0
  2  3  1  0  0  0  0
  2  4  1  0  0  0  0
  2  5  1  0  0  0  0
  1  2  1  0  0  0  0
 22 23  2  0  0  0  0
 22 24  1  0  0  0  0
 19 20  1  0  0  0  0
 19 21  1  0  0  0  0
 17 18  2  0  0  0  0
 17 19  1  0  0  0  0
 14 15  1  0  0  0  0
 14 16  1  0  0  0  0
 14 17  1  0  0  0  0
 11 12  1  0  0  0  0
 11 13  1  0  0  0  0
 11 14  1  0  0  0  0
  9 10  1  0  0  0  0
  9 11  1  0  0  0  0
  9 22  1  0  0  0  0
  7  8  1  0  0  0  0
  7  9  1  0  0  0  0
 26 27  1  0  0  0  0
 26 28  1  0  0  0  0
 26 29  1  0  0  0  0
 24 25  1  0  0  0  0
 24 26  1  0  0  0  0
M  END
$$$$
default_name
  -OEChem-02102213163D

 29 28  0     1  0  0  0  0  0999 V2000
   -3.3998   -3.6239    1.3678 H   0  0  0  0  0  0  0  0  0  0  0  0
   -3.3608   -2.6749    0.8348 C   0  0  0  0  0  0  0  0  0  0  0  0
   -4.0988   -1.9909    1.2498 H   0  0  0  0  0  0  0  0  0  0  0  0
   -3.5618   -2.8419   -0.2222 H   0  0  0  0  0  0  0  0  0  0  0  0
   -1.9818   -2.0809    0.9918 C   0  0  0  0  0  0  0  0  0  0  0  0
   -1.1288   -2.6669    1.6468 O   0  0  0  0  0  0  0  0  0  0  0  0
   -1.7648   -0.9089    0.3998 N   0  0  0  0  0  0  0  0  0  0  0  0
   -2.5238   -0.4719   -0.1032 H   0  0  0  0  0  0  0  0  0  0  0  0
   -0.4848   -0.1959    0.4138 C   0  0  1  0  0  0  0  0  0  0  0  0
    0.1386   -0.6144    1.2058 H   0  0  0  0  0  0  0  0  0  0  0  0
    0.2271   -0.4272   -0.9334 C   0  0  0  0  0  0  0  0  0  0  0  0
    1.2725   -0.6703   -0.7321 H   0  0  0  0  0  0  0  0  0  0  0  0
   -0.2306   -1.2802   -1.4366 H   0  0  0  0  0  0  0  0  0  0  0  0
    0.1848    0.7879   -1.8764 C   0  0  0  0  0  0  0  0  0  0  0  0
   -0.3460    1.6085   -1.3941 H   0  0  0  0  0  0  0  0  0  0  0  0
    1.2051    1.1087   -2.0860 H   0  0  0  0  0  0  0  0  0  0  0  0
   -0.5094    0.4934   -3.2060 C   0  0  0  0  0  0  0  0  0  0  0  0
   -0.9179   -0.6096   -3.5177 O   0  0  0  0  0  0  0  0  0  0  0  0
   -0.6818    1.4834   -4.0549 N   0  0  0  0  0  0  0  0  0  0  0  0
   -1.1441    1.2337   -4.9119 H   0  0  0  0  0  0  0  0  0  0  0  0
   -0.3678    2.4097   -3.8477 H   0  0  0  0  0  0  0  0  0  0  0  0
   -0.7011    1.2952    0.7149 C   0  0  0  0  0  0  0  0  0  0  0  0
   -1.5917    1.9198    0.1415 O   0  0  0  0  0  0  0  0  0  0  0  0
    0.1191    1.8675    1.6055 N   0  0  0  0  0  0  0  0  0  0  0  0
    0.8092    1.2861    2.0537 H   0  0  0  0  0  0  0  0  0  0  0  0
    0.0509    3.2769    1.9894 C   0  0  0  0  0  0  0  0  0  0  0  0
   -0.9494    3.5076    2.3640 H   0  0  0  0  0  0  0  0  0  0  0  0
    0.7844    3.4956    2.7668 H   0  0  0  0  0  0  0  0  0  0  0  0
    0.2468    3.9058    1.1193 H   0  0  0  0  0  0  0  0  0  0  0  0
  5  6  2  0  0  0  0
  5  7  1  0  0  0  0
  2  3  1  0  0  0  0
  2  4  1  0  0  0  0
  2  5  1  0  0  0  0
  1  2  1  0  0  0  0
 22 23  2  0  0  0  0
 22 24  1  0  0  0  0
 19 20  1  0  0  0  0
 19 21  1  0  0  0  0
 17 18  2  0  0  0  0
 17 19  1  0  0  0  0
 14 15  1  0  0  0  0
 14 16  1  0  0  0  0
 14 17  1  0  0  0  0
 11 12  1  0  0  0  0
 11 13  1  0  0  0  0
 11 14  1  0  0  0  0
  9 10  1  0  0  0  0
  9 11  1  0  0  0  0
  9 22  1  0  0  0  0
  7  8  1  0  0  0  0
  7  9  1  0  0  0  0
 26 27  1  0  0  0  0
 26 28  1  0  0  0  0
 26 29  1  0  0  0  0
 24 25  1  0  0  0  0
 24 26  1  0  0  0  0
M  END
$$$$
default_name
  -OEChem-02102213163D

 29 28  0     1  0  0  0  0  0999 V2000
   -3.3998   -3.6239    1.3678 H   0  0  0  0  0  0  0  0  0  0  0  0
   -3.3608   -2.6749    0.8348 C   0  0  0  0  0  0  0  0  0  0  0  0
   -4.0988   -1.9909    1.2498 H   0  0  0  0  0  0  0  0  0  0  0  0
   -3.5618   -2.8419   -0.2222 H   0  0  0  0  0  0  0  0  0  0  0  0
   -1.9818   -2.0809    0.9918 C   0  0  0  0  0  0  0  0  0  0  0  0
   -1.1288   -2.6669    1.6468 O   0  0  0  0  0  0  0  0  0  0  0  0
   -1.7648   -0.9089    0.3998 N   0  0  0  0  0  0  0  0  0  0  0  0
   -2.5238   -0.4719   -0.1032 H   0  0  0  0  0  0  0  0  0  0  0  0
   -0.4848   -0.1959    0.4138 C   0  0  1  0  0  0  0  0  0  0  0  0
    0.1386   -0.6144    1.2058 H   0  0  0  0  0  0  0  0  0  0  0  0
    0.2271   -0.4272   -0.9334 C   0  0  0  0  0  0  0  0  0  0  0  0
    1.2725   -0.6703   -0.7321 H   0  0  0  0  0  0  0  0  0  0  0  0
   -0.2306   -1.2802   -1.4366 H   0  0  0  0  0  0  0  0  0  0  0  0
    0.1848    0.7879   -1.8764 C   0  0  0  0  0  0  0  0  0  0  0  0
   -0.0995    1.6780   -1.3156 H   0  0  0  0  0  0  0  0  0  0  0  0
    1.1781    0.9440   -2.2971 H   0  0  0  0  0  0  0  0  0  0  0  0
   -0.8048    0.6203   -3.0293 C   0  0  0  0  0  0  0  0  0  0  0  0
   -1.4374   -0.4006   -3.2251 O   0  0  0  0  0  0  0  0  0  0  0  0
   -0.9890    1.6329   -3.8483 N   0  0  0  0  0  0  0  0  0  0  0  0
   -1.6506    1.4682   -4.5870 H   0  0  0  0  0  0  0  0  0  0  0  0
   -0.4970    2.4954   -3.7314 H   0  0  0  0  0  0  0  0  0  0  0  0
   -0.7011    1.2952    0.7149 C   0  0  0  0  0  0  0  0  0  0  0  0
   -1.5917    1.9198    0.1415 O   0  0  0  0  0  0  0  0  0  0  0  0
    0.1191    1.8675    1.6055 N   0  0  0  0  0  0  0  0  0  0  0  0
    0.8092    1.2861    2.0537 H   0  0  0  0  0  0  0  0  0  0  0  0
    0.0509    3.2769    1.9894 C   0  0  0  0  0  0  0  0  0  0  0  0
   -0.9494    3.5076    2.3640 H   0  0  0  0  0  0  0  0  0  0  0  0
    0.7844    3.4956    2.7668 H   0  0  0  0  0  0  0  0  0  0  0  0
    0.2468    3.9058    1.1193 H   0  0  0  0  0  0  0  0  0  0  0  0
  5  6  2  0  0  0  0
  5  7  1  0  0  0  0
  2  3  1  0  0  0  0
  2  4  1  0  0  0  0
  2  5  1  0  0  0  0
  1  2  1  0  0  0  0
 22 23  2  0  0  0  0
 22 24  1  0  0  0  0
 19 20  1  0  0  0  0
 19 21  1  0  0  0  0
 17 18  2  0  0  0  0
 17 19  1  0  0  0  0
 14 15  1  0  0  0  0
 14 16  1  0  0  0  0
 14 17  1  0  0  0  0
 11 12  1  0  0  0  0
 11 13  1  0  0  0  0
 11 14  1  0  0  0  0
  9 10  1  0  0  0  0
  9 11  1  0  0  0  0
  9 22  1  0  0  0  0
  7  8  1  0  0  0  0
  7  9  1  0  0  0  0
 26 27  1  0  0  0  0
 26 28  1  0  0  0  0
 26 29  1  0  0  0  0
 24 25  1  0  0  0  0
 24 26  1  0  0  0  0
M  END
$$$$
default_name
  -OEChem-02102213163D

 29 28  0     1  0  0  0  0  0999 V2000
   -3.3998   -3.6239    1.3678 H   0  0  0  0  0  0  0  0  0  0  0  0
   -3.3608   -2.6749    0.8348 C   0  0  0  0  0  0  0  0  0  0  0  0
   -4.0988   -1.9909    1.2498 H   0  0  0  0  0  0  0  0  0  0  0  0
   -3.5618   -2.8419   -0.2222 H   0  0  0  0  0  0  0  0  0  0  0  0
   -1.9818   -2.0809    0.9918 C   0  0  0  0  0  0  0  0  0  0  0  0
   -1.1288   -2.6669    1.6468 O   0  0  0  0  0  0  0  0  0  0  0  0
   -1.7648   -0.9089    0.3998 N   0  0  0  0  0  0  0  0  0  0  0  0
   -2.5238   -0.4719   -0.1032 H   0  0  0  0  0  0  0  0  0  0  0  0
   -0.4848   -0.1959    0.4138 C   0  0  1  0  0  0  0  0  0  0  0  0
    0.1386   -0.6144    1.2058 H   0  0  0  0  0  0  0  0  0  0  0  0
    0.2271   -0.4272   -0.9334 C   0  0  0  0  0  0  0  0  0  0  0  0
    1.2725   -0.6703   -0.7321 H   0  0  0  0  0  0  0  0  0  0  0  0
   -0.2306   -1.2802   -1.4366 H   0  0  0  0  0  0  0  0  0  0  0  0
    0.1848    0.7879   -1.8764 C   0  0  0  0  0  0  0  0  0  0  0  0
    0.1656    1.7067   -1.2906 H   0  0  0  0  0  0  0  0  0  0  0  0
    1.0826    0.7876   -2.4943 H   0  0  0  0  0  0  0  0  0  0  0  0
   -1.0339    0.7909   -2.7991 C   0  0  0  0  0  0  0  0  0  0  0  0
   -1.8462   -0.1142   -2.8377 O   0  0  0  0  0  0  0  0  0  0  0  0
   -1.2199    1.8276   -3.5870 N   0  0  0  0  0  0  0  0  0  0  0  0
   -2.0363    1.7773   -4.1713 H   0  0  0  0  0  0  0  0  0  0  0  0
   -0.5844    2.5996   -3.5933 H   0  0  0  0  0  0  0  0  0  0  0  0
   -0.7011    1.2952    0.7149 C   0  0  0  0  0  0  0  0  0  0  0  0
   -1.5917    1.9198    0.1415 O   0  0  0  0  0  0  0  0  0  0  0  0
    0.1191    1.8675    1.6055 N   0  0  0  0  0  0  0  0  0  0  0  0
    0.8092    1.2861    2.0537 H   0  0  0  0  0  0  0  0  0  0  0  0
    0.0509    3.2769    1.9894 C   0  0  0  0  0  0  0  0  0  0  0  0
   -0.9494    3.5076    2.3640 H   0  0  0  0  0  0  0  0  0  0  0  0
    0.7844    3.4956    2.7668 H   0  0  0  0  0  0  0  0  0  0  0  0
    0.2468    3.9058    1.1193 H   0  0  0  0  0  0  0  0  0  0  0  0
  5  6  2  0  0  0  0
  5  7  1  0  0  0  0
  2  3  1  0  0  0  0
  2  4  1  0  0  0  0
  2  5  1  0  0  0  0
  1  2  1  0  0  0  0
 22 23  2  0  0  0  0
 22 24  1  0  0  0  0
 19 20  1  0  0  0  0
 19 21  1  0  0  0  0
 17 18  2  0  0  0  0
 17 19  1  0  0  0  0
 14 15  1  0  0  0  0
 14 16  1  0  0  0  0
 14 17  1  0  0  0  0
 11 12  1  0  0  0  0
 11 13  1  0  0  0  0
 11 14  1  0  0  0  0
  9 10  1  0  0  0  0
  9 11  1  0  0  0  0
  9 22  1  0  0  0  0
  7  8  1  0  0  0  0
  7  9  1  0  0  0  0
 26 27  1  0  0  0  0
 26 28  1  0  0  0  0
 26 29  1  0  0  0  0
 24 25  1  0  0  0  0
 24 26  1  0  0  0  0
M  END
$$$$
default_name
  -OEChem-02102213163D

 29 28  0     1  0  0  0  0  0999 V2000
   -3.3998   -3.6239    1.3678 H   0  0  0  0  0  0  0  0  0  0  0  0
   -3.3608   -2.6749    0.8348 C   0  0  0  0  0  0  0  0  0  0  0  0
   -4.0988   -1.9909    1.2498 H   0  0  0  0  0  0  0  0  0  0  0  0
   -3.5618   -2.8419   -0.2222 H   0  0  0  0  0  0  0  0  0  0  0  0
   -1.9818   -2.0809    0.9918 C   0  0  0  0  0  0  0  0  0  0  0  0
   -1.1288   -2.6669    1.6468 O   0  0  0  0  0  0  0  0  0  0  0  0
   -1.7648   -0.9089    0.3998 N   0  0  0  0  0  0  0  0  0  0  0  0
   -2.5238   -0.4719   -0.1032 H   0  0  0  0  0  0  0  0  0  0  0  0
   -0.4848   -0.1959    0.4138 C   0  0  1  0  0  0  0  0  0  0  0  0
    0.1386   -0.6144    1.2058 H   0  0  0  0  0  0  0  0  0  0  0  0
    0.2271   -0.4272   -0.9334 C   0  0  0  0  0  0  0  0  0  0  0  0
    1.2725   -0.6703   -0.7321 H   0  0  0  0  0  0  0  0  0  0  0  0
   -0.2306   -1.2802   -1.4366 H   0  0  0  0  0  0  0  0  0  0  0  0
    0.1848    0.7879   -1.8764 C   0  0  0  0  0  0  0  0  0  0  0  0
    0.4314    1.6925   -1.3208 H   0  0  0  0  0  0  0  0  0  0  0  0
    0.9254    0.6503   -2.6641 H   0  0  0  0  0  0  0  0  0  0  0  0
   -1.1811    0.9937   -2.5312 C   0  0  0  0  0  0  0  0  0  0  0  0
   -2.1165    0.2300   -2.3820 O   0  0  0  0  0  0  0  0  0  0  0  0
   -1.3585    2.0542   -3.2889 N   0  0  0  0  0  0  0  0  0  0  0  0
   -2.2749    2.1401   -3.6931 H   0  0  0  0  0  0  0  0  0  0  0  0
   -0.6241    2.7150   -3.4428 H   0  0  0  0  0  0  0  0  0  0  0  0
   -0.7011    1.2952    0.7149 C   0  0  0  0  0  0  0  0  0  0  0  0
   -1.5917    1.9198    0.1415 O   0  0  0  0  0  0  0  0  0  0  0  0
    0.1191    1.8675    1.6055 N   0  0  0  0  0  0  0  0  0  0  0  0
    0.8092    1.2861    2.0537 H   0  0  0  0  0  0  0  0  0  0  0  0
    0.0509    3.2769    1.9894 C   0  0  0  0  0  0  0  0  0  0  0  0
   -0.9494    3.5076    2.3640 H   0  0  0  0  0  0  0  0  0  0  0  0
    0.7844    3.4956    2.7668 H   0  0  0  0  0  0  0  0  0  0  0  0
    0.2468    3.9058    1.1193 H   0  0  0  0  0  0  0  0  0  0  0  0
  5  6  2  0  0  0  0
  5  7  1  0  0  0  0
  2  3  1  0  0  0  0
  2  4  1  0  0  0  0
  2  5  1  0  0  0  0
  1  2  1  0  0  0  0
 22 23  2  0  0  0  0
 22 24  1  0  0  0  0
 19 20  1  0  0  0  0
 19 21  1  0  0  0  0
 17 18  2  0  0  0  0
 17 19  1  0  0  0  0
 14 15  1  0  0  0  0
 14 16  1  0  0  0  0
 14 17  1  0  0  0  0
 11 12  1  0  0  0  0
 11 13  1  0  0  0  0
 11 14  1  0  0  0  0
  9 10  1  0  0  0  0
  9 11  1  0  0  0  0
  9 22  1  0  0  0  0
  7  8  1  0  0  0  0
  7  9  1  0  0  0  0
 26 27  1  0  0  0  0
 26 28  1  0  0  0  0
 26 29  1  0  0  0  0
 24 25  1  0  0  0  0
 24 26  1  0  0  0  0
M  END
$$$$
default_name
  -OEChem-02102213163D

 29 28  0     1  0  0  0  0  0999 V2000
   -3.3998   -3.6239    1.3678 H   0  0  0  0  0  0  0  0  0  0  0  0
   -3.3608   -2.6749    0.8348 C   0  0  0  0  0  0  0  0  0  0  0  0
   -4.0988   -1.9909    1.2498 H   0  0  0  0  0  0  0  0  0  0  0  0
   -3.5618   -2.8419   -0.2222 H   0  0  0  0  0  0  0  0  0  0  0  0
   -1.9818   -2.0809    0.9918 C   0  0  0  0  0  0  0  0  0  0  0  0
   -1.1288   -2.6669    1.6468 O   0  0  0  0  0  0  0  0  0  0  0  0
   -1.7648   -0.9089    0.3998 N   0  0  0  0  0  0  0  0  0  0  0  0
   -2.5238   -0.4719   -0.1032 H   0  0  0  0  0  0  0  0  0  0  0  0
   -0.4848   -0.1959    0.4138 C   0  0  1  0  0  0  0  0  0  0  0  0
    0.1386   -0.6144    1.2058 H   0  0  0  0  0  0  0  0  0  0  0  0
    0.2271   -0.4272   -0.9334 C   0  0  0  0  0  0  0  0  0  0  0  0
    1.2725   -0.6703   -0.7321 H   0  0  0  0  0  0  0  0  0  0  0  0
   -0.2306   -1.2802   -1.4366 H   0  0  0  0  0  0  0  0  0  0  0  0
    0.1848    0.7879   -1.8764 C   0  0  0  0  0  0  0  0  0  0  0  0
    0.6797    1.6363   -1.4043 H   0  0  0  0  0  0  0  0  0  0  0  0
    0.7170    0.5414   -2.7951 H   0  0  0  0  0  0  0  0  0  0  0  0
   -1.2363    1.2149   -2.2437 C   0  0  0  0  0  0  0  0  0  0  0  0
   -2.2299    0.6087   -1.8890 O   0  0  0  0  0  0  0  0  0  0  0  0
   -1.3956    2.2971   -2.9742 N   0  0  0  0  0  0  0  0  0  0  0  0
   -2.3501    2.5317   -3.1851 H   0  0  0  0  0  0  0  0  0  0  0  0
   -0.6134    2.8339   -3.2901 H   0  0  0  0  0  0  0  0  0  0  0  0
   -0.7011    1.2952    0.7149 C   0  0  0  0  0  0  0  0  0  0  0  0
   -1.5917    1.9198    0.1415 O   0  0  0  0  0  0  0  0  0  0  0  0
    0.1191    1.8675    1.6055 N   0  0  0  0  0  0  0  0  0  0  0  0
    0.8092    1.2861    2.0537 H   0  0  0  0  0  0  0  0  0  0  0  0
    0.0509    3.2769    1.9894 C   0  0  0  0  0  0  0  0  0  0  0  0
   -0.9494    3.5076    2.3640 H   0  0  0  0  0  0  0  0  0  0  0  0
    0.7844    3.4956    2.7668 H   0  0  0  0  0  0  0  0  0  0  0  0
    0.2468    3.9058    1.1193 H   0  0  0  0  0  0  0  0  0  0  0  0
  5  6  2  0  0  0  0
  5  7  1  0  0  0  0
  2  3  1  0  0  0  0
  2  4  1  0  0  0  0
  2  5  1  0  0  0  0
  1  2  1  0  0  0  0
 22 23  2  0  0  0  0
 22 24  1  0  0  0  0
 19 20  1  0  0  0  0
 19 21  1  0  0  0  0
 17 18  2  0  0  0  0
 17 19  1  0  0  0  0
 14 15  1  0  0  0  0
 14 16  1  0  0  0  0
 14 17  1  0  0  0  0
 11 12  1  0  0  0  0
 11 13  1  0  0  0  0
 11 14  1  0  0  0  0
  9 10  1  0  0  0  0
  9 11  1  0  0  0  0
  9 22  1  0  0  0  0
  7  8  1  0  0  0  0
  7  9  1  0  0  0  0
 26 27  1  0  0  0  0
 26 28  1  0  0  0  0
 26 29  1  0  0  0  0
 24 25  1  0  0  0  0
 24 26  1  0  0  0  0
M  END
$$$$
default_name
  -OEChem-02102213163D

 29 28  0     1  0  0  0  0  0999 V2000
   -3.3998   -3.6239    1.3678 H   0  0  0  0  0  0  0  0  0  0  0  0
   -3.3608   -2.6749    0.8348 C   0  0  0  0  0  0  0  0  0  0  0  0
   -4.0988   -1.9909    1.2498 H   0  0  0  0  0  0  0  0  0  0  0  0
   -3.5618   -2.8419   -0.2222 H   0  0  0  0  0  0  0  0  0  0  0  0
   -1.9818   -2.0809    0.9918 C   0  0  0  0  0  0  0  0  0  0  0  0
   -1.1288   -2.6669    1.6468 O   0  0  0  0  0  0  0  0  0  0  0  0
   -1.7648   -0.9089    0.3998 N   0  0  0  0  0  0  0  0  0  0  0  0
   -2.5238   -0.4719   -0.1032 H   0  0  0  0  0  0  0  0  0  0  0  0
   -0.4848   -0.1959    0.4138 C   0  0  1  0  0  0  0  0  0  0  0  0
    0.1386   -0.6144    1.2058 H   0  0  0  0  0  0  0  0  0  0  0  0
    0.2271   -0.4272   -0.9334 C   0  0  0  0  0  0  0  0  0  0  0  0
    1.2725   -0.6703   -0.7321 H   0  0  0  0  0  0  0  0  0  0  0  0
   -0.2306   -1.2802   -1.4366 H   0  0  0  0  0  0  0  0  0  0  0  0
    0.1848    0.7879   -1.8764 C   0  0  0  0  0  0  0  0  0  0  0  0
    0.8935    1.5422   -1.5352 H   0  0  0  0  0  0  0  0  0  0  0  0
    0.4716    0.4684   -2.8782 H   0  0  0  0  0  0  0  0  0  0  0  0
   -1.1958    1.4393   -1.9563 C   0  0  0  0  0  0  0  0  0  0  0  0
   -2.1786    0.9959   -1.3923 O   0  0  0  0  0  0  0  0  0  0  0  0
   -1.3285    2.5399   -2.6644 N   0  0  0  0  0  0  0  0  0  0  0  0
   -2.2567    2.9256   -2.6817 H   0  0  0  0  0  0  0  0  0  0  0  0
   -0.5530    2.9481   -3.1456 H   0  0  0  0  0  0  0  0  0  0  0  0
   -0.7011    1.2952    0.7149 C   0  0  0  0  0  0  0  0  0  0  0  0
   -1.5917    1.9198    0.1415 O   0  0  0  0  0  0  0  0  0  0  0  0
    0.1191    1.8675    1.6055 N   0  0  0  0  0  0  0  0  0  0  0  0
    0.8092    1.2861    2.0537 H   0  0  0  0  0  0  0  0  0  0  0  0
    0.0509    3.2769    1.9894 C   0  0  0  0  0  0  0  0  0  0  0  0
   -0.9494    3.5076    2.3640 H   0  0  0  0  0  0  0  0  0  0  0  0
    0.7844    3.4956    2.7668 H   0  0  0  0  0  0  0  0  0  0  0  0
    0.2468    3.9058    1.1193 H   0  0  0  0  0  0  0  0  0  0  0  0
  5  6  2  0  0  0  0
  5  7  1  0  0  0  0
  2  3  1  0  0  0  0
  2  4  1  0  0  0  0
  2  5  1  0  0  0  0
  1  2  1  0  0  0  0
 22 23  2  0  0  0  0
 22 24  1  0  0  0  0
 19 20  1  0  0  0  0
 19 21  1  0  0  0  0
 17 18  2  0  0  0  0
 17 19  1  0  0  0  0
 14 15  1  0  0  0  0
 14 16  1  0  0  0  0
 14 17  1  0  0  0  0
 11 12  1  0  0  0  0
 11 13  1  0  0  0  0
 11 14  1  0  0  0  0
  9 10  1  0  0  0  0
  9 11  1  0  0  0  0
  9 22  1  0  0  0  0
  7  8  1  0  0  0  0
  7  9  1  0  0  0  0
 26 27  1  0  0  0  0
 26 28  1  0  0  0  0
 26 29  1  0  0  0  0
 24 25  1  0  0  0  0
 24 26  1  0  0  0  0
M  END
$$$$
default_name
  -OEChem-02102213163D

 29 28  0     1  0  0  0  0  0999 V2000
   -3.3998   -3.6239    1.3678 H   0  0  0  0  0  0  0  0  0  0  0  0
   -3.3608   -2.6749    0.8348 C   0  0  0  0  0  0  0  0  0  0  0  0
   -4.0988   -1.9909    1.2498 H   0  0  0  0  0  0  0  0  0  0  0  0
   -3.5618   -2.8419   -0.2222 H   0  0  0  0  0  0  0  0  0  0  0  0
   -1.9818   -2.0809    0.9918 C   0  0  0  0  0  0  0  0  0  0  0  0
   -1.1288   -2.6669    1.6468 O   0  0  0  0  0  0  0  0  0  0  0  0
   -1.7648   -0.9089    0.3998 N   0  0  0  0  0  0  0  0  0  0  0  0
   -2.5238   -0.4719   -0.1032 H   0  0  0  0  0  0  0  0  0  0  0  0
   -0.4848   -0.1959    0.4138 C   0  0  1  0  0  0  0  0  0  0  0  0
    0.1386   -0.6144    1.2058 H   0  0  0  0  0  0  0  0  0  0  0  0
    0.2271   -0.4272   -0.9334 C   0  0  0  0  0  0  0  0  0  0  0  0
    1.2725   -0.6703   -0.7321 H   0  0  0  0  0  0  0  0  0  0  0  0
   -0.2306   -1.2802   -1.4366 H   0  0  0  0  0  0  0  0  0  0  0  0
    0.1848    0.7879   -1.8764 C   0  0  0  0  0  0  0  0  0  0  0  0
    1.0584    1.4164   -1.7047 H   0  0  0  0  0  0  0  0  0  0  0  0
    0.2061    0.4362   -2.9078 H   0  0  0  0  0  0  0  0  0  0  0  0
   -1.0623    1.6517   -1.6886 C   0  0  0  0  0  0  0  0  0  0  0  0
   -1.9661    1.3653   -0.9258 O   0  0  0  0  0  0  0  0  0  0  0  0
   -1.1619    2.7660   -2.3805 N   0  0  0  0  0  0  0  0  0  0  0  0
   -2.0011    3.2948   -2.2175 H   0  0  0  0  0  0  0  0  0  0  0  0
   -0.4470    3.0498   -3.0192 H   0  0  0  0  0  0  0  0  0  0  0  0
   -0.7011    1.2952    0.7149 C   0  0  0  0  0  0  0  0  0  0  0  0
   -1.5917    1.9198    0.1415 O   0  0  0  0  0  0  0  0  0  0  0  0
    0.1191    1.8675    1.6055 N   0  0  0  0  0  0  0  0  0  0  0  0
    0.8092    1.2861    2.0537 H   0  0  0  0  0  0  0  0  0  0  0  0
    0.0509    3.2769    1.9894 C   0  0  0  0  0  0  0  0  0  0  0  0
   -0.9494    3.5076    2.3640 H   0  0  0  0  0  0  0  0  0  0  0  0
    0.7844    3.4956    2.7668 H   0  0  0  0  0  0  0  0  0  0  0  0
    0.2468    3.9058    1.1193 H   0  0  0  0  0  0  0  0  0  0  0  0
  5  6  2  0  0  0  0
  5  7  1  0  0  0  0
  2  3  1  0  0  0  0
  2  4  1  0  0  0  0
  2  5  1  0  0  0  0
  1  2  1  0  0  0  0
 22 23  2  0  0  0  0
 22 24  1  0  0  0  0
 19 20  1  0  0  0  0
 19 21  1  0  0  0  0
 17 18  2  0  0  0  0
 17 19  1  0  0  0  0
 14 15  1  0  0  0  0
 14 16  1  0  0  0  0
 14 17  1  0  0  0  0
 11 12  1  0  0  0  0
 11 13  1  0  0  0  0
 11 14  1  0  0  0  0
  9 10  1  0  0  0  0
  9 11  1  0  0  0  0
  9 22  1  0  0  0  0
  7  8  1  0  0  0  0
  7  9  1  0  0  0  0
 26 27  1  0  0  0  0
 26 28  1  0  0  0  0
 26 29  1  0  0  0  0
 24 25  1  0  0  0  0
 24 26  1  0  0  0  0
M  END
$$$$
default_name
  -OEChem-02102213163D

 29 28  0     1  0  0  0  0  0999 V2000
   -3.3998   -3.6239    1.3678 H   0  0  0  0  0  0  0  0  0  0  0  0
   -3.3608   -2.6749    0.8348 C   0  0  0  0  0  0  0  0  0  0  0  0
   -4.0988   -1.9909    1.2498 H   0  0  0  0  0  0  0  0  0  0  0  0
   -3.5618   -2.8419   -0.2222 H   0  0  0  0  0  0  0  0  0  0  0  0
   -1.9818   -2.0809    0.9918 C   0  0  0  0  0  0  0  0  0  0  0  0
   -1.1288   -2.6669    1.6468 O   0  0  0  0  0  0  0  0  0  0  0  0
   -1.7648   -0.9089    0.3998 N   0  0  0  0  0  0  0  0  0  0  0  0
   -2.5238   -0.4719   -0.1032 H   0  0  0  0  0  0  0  0  0  0  0  0
   -0.4848   -0.1959    0.4138 C   0  0  1  0  0  0  0  0  0  0  0  0
    0.1386   -0.6144    1.2058 H   0  0  0  0  0  0  0  0  0  0  0  0
    0.2271   -0.4272   -0.9334 C   0  0  0  0  0  0  0  0  0  0  0  0
    1.2725   -0.6703   -0.7321 H   0  0  0  0  0  0  0  0  0  0  0  0
   -0.2306   -1.2802   -1.4366 H   0  0  0  0  0  0  0  0  0  0  0  0
    0.1848    0.7879   -1.8764 C   0  0  0  0  0  0  0  0  0  0  0  0
    1.1631    1.2675   -1.9013 H   0  0  0  0  0  0  0  0  0  0  0  0
   -0.0616    0.4470   -2.8819 H   0  0  0  0  0  0  0  0  0  0  0  0
   -0.8450    1.8376   -1.4588 C   0  0  0  0  0  0  0  0  0  0  0  0
   -1.6068    1.6917   -0.5213 O   0  0  0  0  0  0  0  0  0  0  0  0
   -0.9071    2.9599   -2.1420 N   0  0  0  0  0  0  0  0  0  0  0  0
   -1.6009    3.6142   -1.8239 H   0  0  0  0  0  0  0  0  0  0  0  0
   -0.3026    3.1322   -2.9196 H   0  0  0  0  0  0  0  0  0  0  0  0
   -0.7011    1.2952    0.7149 C   0  0  0  0  0  0  0  0  0  0  0  0
   -1.5917    1.9198    0.1415 O   0  0  0  0  0  0  0  0  0  0  0  0
    0.1191    1.8675    1.6055 N   0  0  0  0  0  0  0  0  0  0  0  0
    0.8092    1.2861    2.0537 H   0  0  0  0  0  0  0  0  0  0  0  0
    0.0509    3.2769    1.9894 C   0  0  0  0  0  0  0  0  0  0  0  0
   -0.9494    3.5076    2.3640 H   0  0  0  0  0  0  0  0  0  0  0  0
    0.7844    3.4956    2.7668 H   0  0  0  0  0  0  0  0  0  0  0  0
    0.2468    3.9058    1.1193 H   0  0  0  0  0  0  0  0  0  0  0  0
  5  6  2  0  0  0  0
  5  7  1  0  0  0  0
  2  3  1  0  0  0  0
  2  4  1  0  0  0  0
  2  5  1  0  0  0  0
  1  2  1  0  0  0  0
 22 23  2  0  0  0  0
 22 24  1  0  0  0  0
 19 20  1  0  0  0  0
 19 21  1  0  0  0  0
 17 18  2  0  0  0  0
 17 19  1  0  0  0  0
 14 15  1  0  0  0  0
 14 16  1  0  0  0  0
 14 17  1  0  0  0  0
 11 12  1  0  0  0  0
 11 13  1  0  0  0  0
 11 14  1  0  0  0  0
  9 10  1  0  0  0  0
  9 11  1  0  0  0  0
  9 22  1  0  0  0  0
  7  8  1  0  0  0  0
  7  9  1  0  0  0  0
 26 27  1  0  0  0  0
 26 28  1  0  0  0  0
 26 29  1  0  0  0  0
 24 25  1  0  0  0  0
 24 26  1  0  0  0  0
M  END
$$$$
default_name
  -OEChem-02102213163D

 29 28  0     1  0  0  0  0  0999 V2000
   -3.3998   -3.6239    1.3678 H   0  0  0  0  0  0  0  0  0  0  0  0
   -3.3608   -2.6749    0.8348 C   0  0  0  0  0  0  0  0  0  0  0  0
   -4.0988   -1.9909    1.2498 H   0  0  0  0  0  0  0  0  0  0  0  0
   -3.5618   -2.8419   -0.2222 H   0  0  0  0  0  0  0  0  0  0  0  0
   -1.9818   -2.0809    0.9918 C   0  0  0  0  0  0  0  0  0  0  0  0
   -1.1288   -2.6669    1.6468 O   0  0  0  0  0  0  0  0  0  0  0  0
   -1.7648   -0.9089    0.3998 N   0  0  0  0  0  0  0  0  0  0  0  0
   -2.5238   -0.4719   -0.1032 H   0  0  0  0  0  0  0  0  0  0  0  0
   -0.4848   -0.1959    0.4138 C   0  0  1  0  0  0  0  0  0  0  0  0
    0.1386   -0.6144    1.2058 H   0  0  0  0  0  0  0  0  0  0  0  0
    0.2271   -0.4272   -0.9334 C   0  0  0  0  0  0  0  0  0  0  0  0
    1.2725   -0.6703   -0.7321 H   0  0  0  0  0  0  0  0  0  0  0  0
   -0.2306   -1.2802   -1.4366 H   0  0  0  0  0  0  0  0  0  0  0  0
    0.1848    0.7879   -1.8764 C   0  0  0  0  0  0  0  0  0  0  0  0
    1.2004    1.1057   -2.1115 H   0  0  0  0  0  0  0  0  0  0  0  0
   -0.3131    0.5000   -2.8022 H   0  0  0  0  0  0  0  0  0  0  0  0
   -0.5587    1.9843   -1.2826 C   0  0  0  0  0  0  0  0  0  0  0  0
   -1.1254    1.9529   -0.2063 O   0  0  0  0  0  0  0  0  0  0  0  0
   -0.5815    3.1086   -1.9651 N   0  0  0  0  0  0  0  0  0  0  0  0
   -1.0831    3.8620   -1.5278 H   0  0  0  0  0  0  0  0  0  0  0  0
   -0.1298    3.1896   -2.8534 H   0  0  0  0  0  0  0  0  0  0  0  0
   -0.7011    1.2952    0.7149 C   0  0  0  0  0  0  0  0  0  0  0  0
   -1.5917    1.9198    0.1415 O   0  0  0  0  0  0  0  0  0  0  0  0
    0.1191    1.8675    1.6055 N   0  0  0  0  0  0  0  0  0  0  0  0
    0.8092    1.2861    2.0537 H   0  0  0  0  0  0  0  0  0  0  0  0
    0.0509    3.2769    1.9894 C   0  0  0  0  0  0  0  0  0  0  0  0
   -0.9494    3.5076    2.3640 H   0  0  0  0  0  0  0  0  0  0  0  0
    0.7844    3.4956    2.7668 H   0  0  0  0  0  0  0  0  0  0  0  0
    0.2468    3.9058    1.1193 H   0  0  0  0  0  0  0  0  0  0  0  0
  5  6  2  0  0  0  0
  5  7  1  0  0  0  0
  2  3  1  0  0  0  0
  2  4  1  0  0  0  0
  2  5  1  0  0  0  0
  1  2  1  0  0  0  0
 22 23  2  0  0  0  0
 22 24  1  0  0  0  0
 19 20  1  0  0  0  0
 19 21  1  0  0  0  0
 17 18  2  0  0  0  0
 17 19  1  0  0  0  0
 14 15  1  0  0  0  0
 14 16  1  0  0  0  0
 14 17  1  0  0  0  0
 11 12  1  0  0  0  0
 11 13  1  0  0  0  0
 11 14  1  0  0  0  0
  9 10  1  0  0  0  0
  9 11  1  0  0  0  0
  9 22  1  0  0  0  0
  7  8  1  0  0  0  0
  7  9  1  0  0  0  0
 26 27  1  0  0  0  0
 26 28  1  0  0  0  0
 26 29  1  0  0  0  0
 24 25  1  0  0  0  0
 24 26  1  0  0  0  0
M  END
$$$$
default_name
  -OEChem-02102213163D

 29 28  0     1  0  0  0  0  0999 V2000
   -3.3998   -3.6239    1.3678 H   0  0  0  0  0  0  0  0  0  0  0  0
   -3.3608   -2.6749    0.8348 C   0  0  0  0  0  0  0  0  0  0  0  0
   -4.0988   -1.9909    1.2498 H   0  0  0  0  0  0  0  0  0  0  0  0
   -3.5618   -2.8419   -0.2222 H   0  0  0  0  0  0  0  0  0  0  0  0
   -1.9818   -2.0809    0.9918 C   0  0  0  0  0  0  0  0  0  0  0  0
   -1.1288   -2.6669    1.6468 O   0  0  0  0  0  0  0  0  0  0  0  0
   -1.7648   -0.9089    0.3998 N   0  0  0  0  0  0  0  0  0  0  0  0
   -2.5238   -0.4719   -0.1032 H   0  0  0  0  0  0  0  0  0  0  0  0
   -0.4848   -0.1959    0.4138 C   0  0  1  0  0  0  0  0  0  0  0  0
    0.1386   -0.6144    1.2058 H   0  0  0  0  0  0  0  0  0  0  0  0
    0.2271   -0.4272   -0.9334 C   0  0  0  0  0  0  0  0  0  0  0  0
    1.2725   -0.6703   -0.7321 H   0  0  0  0  0  0  0  0  0  0  0  0
   -0.2306   -1.2802   -1.4366 H   0  0  0  0  0  0  0  0  0  0  0  0
    0.1848    0.7879   -1.8764 C   0  0  0  0  0  0  0  0  0  0  0  0
    1.1677    0.9420   -2.3210 H   0  0  0  0  0  0  0  0  0  0  0  0
   -0.5314    0.5917   -2.6742 H   0  0  0  0  0  0  0  0  0  0  0  0
   -0.2228    2.0819   -1.1720 C   0  0  0  0  0  0  0  0  0  0  0  0
   -0.5546    2.1311   -0.0023 O   0  0  0  0  0  0  0  0  0  0  0  0
   -0.2072    3.2017   -1.8618 N   0  0  0  0  0  0  0  0  0  0  0  0
   -0.4832    4.0213   -1.3494 H   0  0  0  0  0  0  0  0  0  0  0  0
    0.0598    3.2181   -2.8252 H   0  0  0  0  0  0  0  0  0  0  0  0
   -0.7011    1.2952    0.7149 C   0  0  0  0  0  0  0  0  0  0  0  0
   -1.5917    1.9198    0.1415 O   0  0  0  0  0  0  0  0  0  0  0  0
    0.1191    1.8675    1.6055 N   0  0  0  0  0  0  0  0  0  0  0  0
    0.8092    1.2861    2.0537 H   0  0  0  0  0  0  0  0  0  0  0  0
    0.0509    3.2769    1.9894 C   0  0  0  0  0  0  0  0  0  0  0  0
   -0.9494    3.5076    2.3640 H   0  0  0  0  0  0  0  0  0  0  0  0
    0.7844    3.4956    2.7668 H   0  0  0  0  0  0  0  0  0  0  0  0
    0.2468    3.9058    1.1193 H   0  0  0  0  0  0  0  0  0  0  0  0
  5  6  2  0  0  0  0
  5  7  1  0  0  0  0
  2  3  1  0  0  0  0
  2  4  1  0  0  0  0
  2  5  1  0  0  0  0
  1  2  1  0  0  0  0
 22 23  2  0  0  0  0
 22 24  1  0  0  0  0
 19 20  1  0  0  0  0
 19 21  1  0  0  0  0
 17 18  2  0  0  0  0
 17 19  1  0  0  0  0
 14 15  1  0  0  0  0
 14 16  1  0  0  0  0
 14 17  1  0  0  0  0
 11 12  1  0  0  0  0
 11 13  1  0  0  0  0
 11 14  1  0  0  0  0
  9 10  1  0  0  0  0
  9 11  1  0  0  0  0
  9 22  1  0  0  0  0
  7  8  1  0  0  0  0
  7  9  1  0  0  0  0
 26 27  1  0  0  0  0
 26 28  1  0  0  0  0
 26 29  1  0  0  0  0
 24 25  1  0  0  0  0
 24 26  1  0  0  0  0
M  END
$$$$
default_name
  -OEChem-02102213163D

 29 28  0     1  0  0  0  0  0999 V2000
   -3.3998   -3.6239    1.3678 H   0  0  0  0  0  0  0  0  0  0  0  0
   -3.3608   -2.6749    0.8348 C   0  0  0  0  0  0  0  0  0  0  0  0
   -4.0988   -1.9909    1.2498 H   0  0  0  0  0  0  0  0  0  0  0  0
   -3.5618   -2.8419   -0.2222 H   0  0  0  0  0  0  0  0  0  0  0  0
   -1.9818   -2.0809    0.9918 C   0  0  0  0  0  0  0  0  0  0  0  0
   -1.1288   -2.6669    1.6468 O   0  0  0  0  0  0  0  0  0  0  0  0
   -1.7648   -0.9089    0.3998 N   0  0  0  0  0  0  0  0  0  0  0  0
   -2.5238   -0.4719   -0.1032 H   0  0  0  0  0  0  0  0  0  0  0  0
   -0.4848   -0.1959    0.4138 C   0  0  1  0  0  0  0  0  0  0  0  0
    0.1386   -0.6144    1.2058 H   0  0  0  0  0  0  0  0  0  0  0  0
    0.2271   -0.4272   -0.9334 C   0  0  0  0  0  0  0  0  0  0  0  0
    1.2725   -0.6703   -0.7321 H   0  0  0  0  0  0  0  0  0  0  0  0
   -0.2306   -1.2802   -1.4366 H   0  0  0  0  0  0  0  0  0  0  0  0
    0.1848    0.7879   -1.8764 C   0  0  0  0  0  0  0  0  0  0  0  0
    1.0675    0.7875   -2.5155 H   0  0  0  0  0  0  0  0  0  0  0  0
   -0.7015    0.7158   -2.5067 H   0  0  0  0  0  0  0  0  0  0  0  0
    0.1398    2.1236   -1.1344 C   0  0  0  0  0  0  0  0  0  0  0  0
    0.0668    2.2142    0.0768 O   0  0  0  0  0  0  0  0  0  0  0  0
    0.1902    3.2331   -1.8392 N   0  0  0  0  0  0  0  0  0  0  0  0
    0.1581    4.0814   -1.3008 H   0  0  0  0  0  0  0  0  0  0  0  0
    0.2533    3.2157   -2.8369 H   0  0  0  0  0  0  0  0  0  0  0  0
   -0.7011    1.2952    0.7149 C   0  0  0  0  0  0  0  0  0  0  0  0
   -1.5917    1.9198    0.1415 O   0  0  0  0  0  0  0  0  0  0  0  0
    0.1191    1.8675    1.6055 N   0  0  0  0  0  0  0  0  0  0  0  0
    0.8092    1.2861    2.0537 H   0  0  0  0  0  0  0  0  0  0  0  0
    0.0509    3.2769    1.9894 C   0  0  0  0  0  0  0  0  0  0  0  0
   -0.9494    3.5076    2.3640 H   0  0  0  0  0  0  0  0  0  0  0  0
    0.7844    3.4956    2.7668 H   0  0  0  0  0  0  0  0  0  0  0  0
    0.2468    3.9058    1.1193 H   0  0  0  0  0  0  0  0  0  0  0  0
  5  6  2  0  0  0  0
  5  7  1  0  0  0  0
  2  3  1  0  0  0  0
  2  4  1  0  0  0  0
  2  5  1  0  0  0  0
  1  2  1  0  0  0  0
 22 23  2  0  0  0  0
 22 24  1  0  0  0  0
 19 20  1  0  0  0  0
 19 21  1  0  0  0  0
 17 18  2  0  0  0  0
 17 19  1  0  0  0  0
 14 15  1  0  0  0  0
 14 16  1  0  0  0  0
 14 17  1  0  0  0  0
 11 12  1  0  0  0  0
 11 13  1  0  0  0  0
 11 14  1  0  0  0  0
  9 10  1  0  0  0  0
  9 11  1  0  0  0  0
  9 22  1  0  0  0  0
  7  8  1  0  0  0  0
  7  9  1  0  0  0  0
 26 27  1  0  0  0  0
 26 28  1  0  0  0  0
 26 29  1  0  0  0  0
 24 25  1  0  0  0  0
 24 26  1  0  0  0  0
M  END
$$$$
default_name
  -OEChem-02102213163D

 29 28  0     1  0  0  0  0  0999 V2000
   -3.3998   -3.6239    1.3678 H   0  0  0  0  0  0  0  0  0  0  0  0
   -3.3608   -2.6749    0.8348 C   0  0  0  0  0  0  0  0  0  0  0  0
   -4.0988   -1.9909    1.2498 H   0  0  0  0  0  0  0  0  0  0  0  0
   -3.5618   -2.8419   -0.2222 H   0  0  0  0  0  0  0  0  0  0  0  0
   -1.9818   -2.0809    0.9918 C   0  0  0  0  0  0  0  0  0  0  0  0
   -1.1288   -2.6669    1.6468 O   0  0  0  0  0  0  0  0  0  0  0  0
   -1.7648   -0.9089    0.3998 N   0  0  0  0  0  0  0  0  0  0  0  0
   -2.5238   -0.4719   -0.1032 H   0  0  0  0  0  0  0  0  0  0  0  0
   -0.4848   -0.1959    0.4138 C   0  0  1  0  0  0  0  0  0  0  0  0
    0.1386   -0.6144    1.2058 H   0  0  0  0  0  0  0  0  0  0  0  0
    0.2271   -0.4272   -0.9334 C   0  0  0  0  0  0  0  0  0  0  0  0
    1.2725   -0.6703   -0.7321 H   0  0  0  0  0  0  0  0  0  0  0  0
   -0.2306   -1.2802   -1.4366 H   0  0  0  0  0  0  0  0  0  0  0  0
    0.1848    0.7879   -1.8764 C   0  0  0  0  0  0  0  0  0  0  0  0
    0.9063    0.6528   -2.6818 H   0  0  0  0  0  0  0  0  0  0  0  0
   -0.8119    0.8639   -2.3109 H   0  0  0  0  0  0  0  0  0  0  0  0
    0.5043    2.1067   -1.1726 C   0  0  0  0  0  0  0  0  0  0  0  0
    0.6963    2.1964    0.0256 O   0  0  0  0  0  0  0  0  0  0  0  0
    0.5836    3.2006   -1.8989 N   0  0  0  0  0  0  0  0  0  0  0  0
    0.7969    4.0380   -1.3854 H   0  0  0  0  0  0  0  0  0  0  0  0
    0.4373    3.1827   -2.8878 H   0  0  0  0  0  0  0  0  0  0  0  0
   -0.7011    1.2952    0.7149 C   0  0  0  0  0  0  0  0  0  0  0  0
   -1.5917    1.9198    0.1415 O   0  0  0  0  0  0  0  0  0  0  0  0
    0.1191    1.8675    1.6055 N   0  0  0  0  0  0  0  0  0  0  0  0
    0.8092    1.2861    2.0537 H   0  0  0  0  0  0  0  0  0  0  0  0
    0.0509    3.2769    1.9894 C   0  0  0  0  0  0  0  0  0  0  0  0
   -0.9494    3.5076    2.3640 H   0  0  0  0  0  0  0  0  0  0  0  0
    0.7844    3.4956    2.7668 H   0  0  0  0  0  0  0  0  0  0  0  0
    0.2468    3.9058    1.1193 H   0  0  0  0  0  0  0  0  0  0  0  0
  5  6  2  0  0  0  0
  5  7  1  0  0  0  0
  2  3  1  0  0  0  0
  2  4  1  0  0  0  0
  2  5  1  0  0  0  0
  1  2  1  0  0  0  0
 22 23  2  0  0  0  0
 22 24  1  0  0  0  0
 19 20  1  0  0  0  0
 19 21  1  0  0  0  0
 17 18  2  0  0  0  0
 17 19  1  0  0  0  0
 14 15  1  0  0  0  0
 14 16  1  0  0  0  0
 14 17  1  0  0  0  0
 11 12  1  0  0  0  0
 11 13  1  0  0  0  0
 11 14  1  0  0  0  0
  9 10  1  0  0  0  0
  9 11  1  0  0  0  0
  9 22  1  0  0  0  0
  7  8  1  0  0  0  0
  7  9  1  0  0  0  0
 26 27  1  0  0  0  0
 26 28  1  0  0  0  0
 26 29  1  0  0  0  0
 24 25  1  0  0  0  0
 24 26  1  0  0  0  0
M  END
$$$$
default_name
  -OEChem-02102213163D

 29 28  0     1  0  0  0  0  0999 V2000
   -3.3998   -3.6239    1.3678 H   0  0  0  0  0  0  0  0  0  0  0  0
   -3.3608   -2.6749    0.8348 C   0  0  0  0  0  0  0  0  0  0  0  0
   -4.0988   -1.9909    1.2498 H   0  0  0  0  0  0  0  0  0  0  0  0
   -3.5618   -2.8419   -0.2222 H   0  0  0  0  0  0  0  0  0  0  0  0
   -1.9818   -2.0809    0.9918 C   0  0  0  0  0  0  0  0  0  0  0  0
   -1.1288   -2.6669    1.6468 O   0  0  0  0  0  0  0  0  0  0  0  0
   -1.7648   -0.9089    0.3998 N   0  0  0  0  0  0  0  0  0  0  0  0
   -2.5238   -0.4719   -0.1032 H   0  0  0  0  0  0  0  0  0  0  0  0
   -0.4848   -0.1959    0.4138 C   0  0  1  0  0  0  0  0  0  0  0  0
    0.1386   -0.6144    1.2058 H   0  0  0  0  0  0  0  0  0  0  0  0
    0.2271   -0.4272   -0.9334 C   0  0  0  0  0  0  0  0  0  0  0  0
    1.2725   -0.6703   -0.7321 H   0  0  0  0  0  0  0  0  0  0  0  0
   -0.2306   -1.2802   -1.4366 H   0  0  0  0  0  0  0  0  0  0  0  0
    0.1848    0.7879   -1.8764 C   0  0  0  0  0  0  0  0  0  0  0  0
    0.6954    0.5471   -2.8086 H   0  0  0  0  0  0  0  0  0  0  0  0
   -0.8551    1.0258   -2.1003 H   0  0  0  0  0  0  0  0  0  0  0  0
    0.8458    2.0323   -1.2838 C   0  0  0  0  0  0  0  0  0  0  0  0
    1.2911    2.0790   -0.1524 O   0  0  0  0  0  0  0  0  0  0  0  0
    0.9464    3.1063   -2.0366 N   0  0  0  0  0  0  0  0  0  0  0  0
    1.3898    3.8942   -1.5973 H   0  0  0  0  0  0  0  0  0  0  0  0
    0.5995    3.1212   -2.9743 H   0  0  0  0  0  0  0  0  0  0  0  0
   -0.7011    1.2952    0.7149 C   0  0  0  0  0  0  0  0  0  0  0  0
   -1.5917    1.9198    0.1415 O   0  0  0  0  0  0  0  0  0  0  0  0
    0.1191    1.8675    1.6055 N   0  0  0  0  0  0  0  0  0  0  0  0
    0.8092    1.2861    2.0537 H   0  0  0  0  0  0  0  0  0  0  0  0
    0.0509    3.2769    1.9894 C   0  0  0  0  0  0  0  0  0  0  0  0
   -0.9494    3.5076    2.3640 H   0  0  0  0  0  0  0  0  0  0  0  0
    0.7844    3.4956    2.7668 H   0  0  0  0  0  0  0  0  0  0  0  0
    0.2468    3.9058    1.1193 H   0  0  0  0  0  0  0  0  0  0  0  0
  5  6  2  0  0  0  0
  5  7  1  0  0  0  0
  2  3  1  0  0  0  0
  2  4  1  0  0  0  0
  2  5  1  0  0  0  0
  1  2  1  0  0  0  0
 22 23  2  0  0  0  0
 22 24  1  0  0  0  0
 19 20  1  0  0  0  0
 19 21  1  0  0  0  0
 17 18  2  0  0  0  0
 17 19  1  0  0  0  0
 14 15  1  0  0  0  0
 14 16  1  0  0  0  0
 14 17  1  0  0  0  0
 11 12  1  0  0  0  0
 11 13  1  0  0  0  0
 11 14  1  0  0  0  0
  9 10  1  0  0  0  0
  9 11  1  0  0  0  0
  9 22  1  0  0  0  0
  7  8  1  0  0  0  0
  7  9  1  0  0  0  0
 26 27  1  0  0  0  0
 26 28  1  0  0  0  0
 26 29  1  0  0  0  0
 24 25  1  0  0  0  0
 24 26  1  0  0  0  0
M  END
$$$$
default_name
  -OEChem-02102213163D

 29 28  0     1  0  0  0  0  0999 V2000
   -3.3998   -3.6239    1.3678 H   0  0  0  0  0  0  0  0  0  0  0  0
   -3.3608   -2.6749    0.8348 C   0  0  0  0  0  0  0  0  0  0  0  0
   -4.0988   -1.9909    1.2498 H   0  0  0  0  0  0  0  0  0  0  0  0
   -3.5618   -2.8419   -0.2222 H   0  0  0  0  0  0  0  0  0  0  0  0
   -1.9818   -2.0809    0.9918 C   0  0  0  0  0  0  0  0  0  0  0  0
   -1.1288   -2.6669    1.6468 O   0  0  0  0  0  0  0  0  0  0  0  0
   -1.7648   -0.9089    0.3998 N   0  0  0  0  0  0  0  0  0  0  0  0
   -2.5238   -0.4719   -0.1032 H   0  0  0  0  0  0  0  0  0  0  0  0
   -0.4848   -0.1959    0.4138 C   0  0  1  0  0  0  0  0  0  0  0  0
    0.1386   -0.6144    1.2058 H   0  0  0  0  0  0  0  0  0  0  0  0
    0.2271   -0.4272   -0.9334 C   0  0  0  0  0  0  0  0  0  0  0  0
    1.2725   -0.6703   -0.7321 H   0  0  0  0  0  0  0  0  0  0  0  0
   -0.2306   -1.2802   -1.4366 H   0  0  0  0  0  0  0  0  0  0  0  0
    0.1848    0.7879   -1.8764 C   0  0  0  0  0  0  0  0  0  0  0  0
    0.4489    0.4776   -2.8871 H   0  0  0  0  0  0  0  0  0  0  0  0
   -0.8280    1.1906   -1.8892 H   0  0  0  0  0  0  0  0  0  0  0  0
    1.1412    1.9055   -1.4606 C   0  0  0  0  0  0  0  0  0  0  0  0
    1.8106    1.8700   -0.4451 O   0  0  0  0  0  0  0  0  0  0  0  0
    1.2536    2.9567   -2.2432 N   0  0  0  0  0  0  0  0  0  0  0  0
    1.8964    3.6597   -1.9222 H   0  0  0  0  0  0  0  0  0  0  0  0
    0.7287    3.0354   -3.0906 H   0  0  0  0  0  0  0  0  0  0  0  0
   -0.7011    1.2952    0.7149 C   0  0  0  0  0  0  0  0  0  0  0  0
   -1.5917    1.9198    0.1415 O   0  0  0  0  0  0  0  0  0  0  0  0
    0.1191    1.8675    1.6055 N   0  0  0  0  0  0  0  0  0  0  0  0
    0.8092    1.2861    2.0537 H   0  0  0  0  0  0  0  0  0  0  0  0
    0.0509    3.2769    1.9894 C   0  0  0  0  0  0  0  0  0  0  0  0
   -0.9494    3.5076    2.3640 H   0  0  0  0  0  0  0  0  0  0  0  0
    0.7844    3.4956    2.7668 H   0  0  0  0  0  0  0  0  0  0  0  0
    0.2468    3.9058    1.1193 H   0  0  0  0  0  0  0  0  0  0  0  0
  5  6  2  0  0  0  0
  5  7  1  0  0  0  0
  2  3  1  0  0  0  0
  2  4  1  0  0  0  0
  2  5  1  0  0  0  0
  1  2  1  0  0  0  0
 22 23  2  0  0  0  0
 22 24  1  0  0  0  0
 19 20  1  0  0  0  0
 19 21  1  0  0  0  0
 17 18  2  0  0  0  0
 17 19  1  0  0  0  0
 14 15  1  0  0  0  0
 14 16  1  0  0  0  0
 14 17  1  0  0  0  0
 11 12  1  0  0  0  0
 11 13  1  0  0  0  0
 11 14  1  0  0  0  0
  9 10  1  0  0  0  0
  9 11  1  0  0  0  0
  9 22  1  0  0  0  0
  7  8  1  0  0  0  0
  7  9  1  0  0  0  0
 26 27  1  0  0  0  0
 26 28  1  0  0  0  0
 26 29  1  0  0  0  0
 24 25  1  0  0  0  0
 24 26  1  0  0  0  0
M  END
$$$$
default_name
  -OEChem-02102213163D

 29 28  0     1  0  0  0  0  0999 V2000
   -3.3998   -3.6239    1.3678 H   0  0  0  0  0  0  0  0  0  0  0  0
   -3.3608   -2.6749    0.8348 C   0  0  0  0  0  0  0  0  0  0  0  0
   -4.0988   -1.9909    1.2498 H   0  0  0  0  0  0  0  0  0  0  0  0
   -3.5618   -2.8419   -0.2222 H   0  0  0  0  0  0  0  0  0  0  0  0
   -1.9818   -2.0809    0.9918 C   0  0  0  0  0  0  0  0  0  0  0  0
   -1.1288   -2.6669    1.6468 O   0  0  0  0  0  0  0  0  0  0  0  0
   -1.7648   -0.9089    0.3998 N   0  0  0  0  0  0  0  0  0  0  0  0
   -2.5238   -0.4719   -0.1032 H   0  0  0  0  0  0  0  0  0  0  0  0
   -0.4848   -0.1959    0.4138 C   0  0  1  0  0  0  0  0  0  0  0  0
    0.1386   -0.6144    1.2058 H   0  0  0  0  0  0  0  0  0  0  0  0
    0.2271   -0.4272   -0.9334 C   0  0  0  0  0  0  0  0  0  0  0  0
    1.2725   -0.6703   -0.7321 H   0  0  0  0  0  0  0  0  0  0  0  0
   -0.2306   -1.2802   -1.4366 H   0  0  0  0  0  0  0  0  0  0  0  0
    0.1848    0.7879   -1.8764 C   0  0  0  0  0  0  0  0  0  0  0  0
    0.1837    0.4489   -2.9121 H   0  0  0  0  0  0  0  0  0  0  0  0
   -0.7326    1.3469   -1.6920 H   0  0  0  0  0  0  0  0  0  0  0  0
    1.3703    1.7348   -1.6907 C   0  0  0  0  0  0  0  0  0  0  0  0
    2.2195    1.5836   -0.8324 O   0  0  0  0  0  0  0  0  0  0  0  0
    1.4844    2.7620   -2.5045 N   0  0  0  0  0  0  0  0  0  0  0  0
    2.2821    3.3505   -2.3379 H   0  0  0  0  0  0  0  0  0  0  0  0
    0.8161    2.9313   -3.2287 H   0  0  0  0  0  0  0  0  0  0  0  0
   -0.7011    1.2952    0.7149 C   0  0  0  0  0  0  0  0  0  0  0  0
   -1.5917    1.9198    0.1415 O   0  0  0  0  0  0  0  0  0  0  0  0
    0.1191    1.8675    1.6055 N   0  0  0  0  0  0  0  0  0  0  0  0
    0.8092    1.2861    2.0537 H   0  0  0  0  0  0  0  0  0  0  0  0
    0.0509    3.2769    1.9894 C   0  0  0  0  0  0  0  0  0  0  0  0
   -0.9494    3.5076    2.3640 H   0  0  0  0  0  0  0  0  0  0  0  0
    0.7844    3.4956    2.7668 H   0  0  0  0  0  0  0  0  0  0  0  0
    0.2468    3.9058    1.1193 H   0  0  0  0  0  0  0  0  0  0  0  0
  5  6  2  0  0  0  0
  5  7  1  0  0  0  0
  2  3  1  0  0  0  0
  2  4  1  0  0  0  0
  2  5  1  0  0  0  0
  1  2  1  0  0  0  0
 22 23  2  0  0  0  0
 22 24  1  0  0  0  0
 19 20  1  0  0  0  0
 19 21  1  0  0  0  0
 17 18  2  0  0  0  0
 17 19  1  0  0  0  0
 14 15  1  0  0  0  0
 14 16  1  0  0  0  0
 14 17  1  0  0  0  0
 11 12  1  0  0  0  0
 11 13  1  0  0  0  0
 11 14  1  0  0  0  0
  9 10  1  0  0  0  0
  9 11  1  0  0  0  0
  9 22  1  0  0  0  0
  7  8  1  0  0  0  0
  7  9  1  0  0  0  0
 26 27  1  0  0  0  0
 26 28  1  0  0  0  0
 26 29  1  0  0  0  0
 24 25  1  0  0  0  0
 24 26  1  0  0  0  0
M  END
$$$$
default_name
  -OEChem-02102213163D

 29 28  0     1  0  0  0  0  0999 V2000
   -3.3998   -3.6239    1.3678 H   0  0  0  0  0  0  0  0  0  0  0  0
   -3.3608   -2.6749    0.8348 C   0  0  0  0  0  0  0  0  0  0  0  0
   -4.0988   -1.9909    1.2498 H   0  0  0  0  0  0  0  0  0  0  0  0
   -3.5618   -2.8419   -0.2222 H   0  0  0  0  0  0  0  0  0  0  0  0
   -1.9818   -2.0809    0.9918 C   0  0  0  0  0  0  0  0  0  0  0  0
   -1.1288   -2.6669    1.6468 O   0  0  0  0  0  0  0  0  0  0  0  0
   -1.7648   -0.9089    0.3998 N   0  0  0  0  0  0  0  0  0  0  0  0
   -2.5238   -0.4719   -0.1032 H   0  0  0  0  0  0  0  0  0  0  0  0
   -0.4848   -0.1959    0.4138 C   0  0  1  0  0  0  0  0  0  0  0  0
    0.1386   -0.6144    1.2058 H   0  0  0  0  0  0  0  0  0  0  0  0
    0.2271   -0.4272   -0.9334 C   0  0  0  0  0  0  0  0  0  0  0  0
    1.2725   -0.6703   -0.7321 H   0  0  0  0  0  0  0  0  0  0  0  0
   -0.2306   -1.2802   -1.4366 H   0  0  0  0  0  0  0  0  0  0  0  0
    0.1848    0.7879   -1.8764 C   0  0  0  0  0  0  0  0  0  0  0  0
   -0.0821    0.4632   -2.8818 H   0  0  0  0  0  0  0  0  0  0  0  0
   -0.5753    1.4842   -1.5222 H   0  0  0  0  0  0  0  0  0  0  0  0
    1.5175    1.5320   -1.9587 C   0  0  0  0  0  0  0  0  0  0  0  0
    2.4898    1.2394   -1.2882 O   0  0  0  0  0  0  0  0  0  0  0  0
    1.6231    2.5355   -2.8026 N   0  0  0  0  0  0  0  0  0  0  0  0
    2.5207    2.9878   -2.8161 H   0  0  0  0  0  0  0  0  0  0  0  0
    0.8559    2.8159   -3.3792 H   0  0  0  0  0  0  0  0  0  0  0  0
   -0.7011    1.2952    0.7149 C   0  0  0  0  0  0  0  0  0  0  0  0
   -1.5917    1.9198    0.1415 O   0  0  0  0  0  0  0  0  0  0  0  0
    0.1191    1.8675    1.6055 N   0  0  0  0  0  0  0  0  0  0  0  0
    0.8092    1.2861    2.0537 H   0  0  0  0  0  0  0  0  0  0  0  0
    0.0509    3.2769    1.9894 C   0  0  0  0  0  0  0  0  0  0  0  0
   -0.9494    3.5076    2.3640 H   0  0  0  0  0  0  0  0  0  0  0  0
    0.7844    3.4956    2.7668 H   0  0  0  0  0  0  0  0  0  0  0  0
    0.2468    3.9058    1.1193 H   0  0  0  0  0  0  0  0  0  0  0  0
  5  6  2  0  0  0  0
  5  7  1  0  0  0  0
  2  3  1  0  0  0  0
  2  4  1  0  0  0  0
  2  5  1  0  0  0  0
  1  2  1  0  0  0  0
 22 23  2  0  0  0  0
 22 24  1  0  0  0  0
 19 20  1  0  0  0  0
 19 21  1  0  0  0  0
 17 18  2  0  0  0  0
 17 19  1  0  0  0  0
 14 15  1  0  0  0  0
 14 16  1  0  0  0  0
 14 17  1  0  0  0  0
 11 12  1  0  0  0  0
 11 13  1  0  0  0  0
 11 14  1  0  0  0  0
  9 10  1  0  0  0  0
  9 11  1  0  0  0  0
  9 22  1  0  0  0  0
  7  8  1  0  0  0  0
  7  9  1  0  0  0  0
 26 27  1  0  0  0  0
 26 28  1  0  0  0  0
 26 29  1  0  0  0  0
 24 25  1  0  0  0  0
 24 26  1  0  0  0  0
M  END
$$$$
default_name
  -OEChem-02102213163D

 29 28  0     1  0  0  0  0  0999 V2000
   -3.3998   -3.6239    1.3678 H   0  0  0  0  0  0  0  0  0  0  0  0
   -3.3608   -2.6749    0.8348 C   0  0  0  0  0  0  0  0  0  0  0  0
   -4.0988   -1.9909    1.2498 H   0  0  0  0  0  0  0  0  0  0  0  0
   -3.5618   -2.8419   -0.2222 H   0  0  0  0  0  0  0  0  0  0  0  0
   -1.9818   -2.0809    0.9918 C   0  0  0  0  0  0  0  0  0  0  0  0
   -1.1288   -2.6669    1.6468 O   0  0  0  0  0  0  0  0  0  0  0  0
   -1.7648   -0.9089    0.3998 N   0  0  0  0  0  0  0  0  0  0  0  0
   -2.5238   -0.4719   -0.1032 H   0  0  0  0  0  0  0  0  0  0  0  0
   -0.4848   -0.1959    0.4138 C   0  0  1  0  0  0  0  0  0  0  0  0
    0.1386   -0.6144    1.2058 H   0  0  0  0  0  0  0  0  0  0  0  0
    0.2271   -0.4272   -0.9334 C   0  0  0  0  0  0  0  0  0  0  0  0
    1.2725   -0.6703   -0.7321 H   0  0  0  0  0  0  0  0  0  0  0  0
   -0.2306   -1.2802   -1.4366 H   0  0  0  0  0  0  0  0  0  0  0  0
    0.1848    0.7879   -1.8764 C   0  0  0  0  0  0  0  0  0  0  0  0
   -0.3303    0.5193   -2.7984 H   0  0  0  0  0  0  0  0  0  0  0  0
   -0.3669    1.5931   -1.3912 H   0  0  0  0  0  0  0  0  0  0  0  0
    1.5727    1.3109   -2.2461 C   0  0  0  0  0  0  0  0  0  0  0  0
    2.6031    0.8608   -1.7811 O   0  0  0  0  0  0  0  0  0  0  0  0
    1.6601    2.2925   -3.1173 N   0  0  0  0  0  0  0  0  0  0  0  0
    2.5958    2.5961   -3.3242 H   0  0  0  0  0  0  0  0  0  0  0  0
    0.8451    2.6970   -3.5319 H   0  0  0  0  0  0  0  0  0  0  0  0
   -0.7011    1.2952    0.7149 C   0  0  0  0  0  0  0  0  0  0  0  0
   -1.5917    1.9198    0.1415 O   0  0  0  0  0  0  0  0  0  0  0  0
    0.1191    1.8675    1.6055 N   0  0  0  0  0  0  0  0  0  0  0  0
    0.8092    1.2861    2.0537 H   0  0  0  0  0  0  0  0  0  0  0  0
    0.0509    3.2769    1.9894 C   0  0  0  0  0  0  0  0  0  0  0  0
   -0.9494    3.5076    2.3640 H   0  0  0  0  0  0  0  0  0  0  0  0
    0.7844    3.4956    2.7668 H   0  0  0  0  0  0  0  0  0  0  0  0
    0.2468    3.9058    1.1193 H   0  0  0  0  0  0  0  0  0  0  0  0
  5  6  2  0  0  0  0
  5  7  1  0  0  0  0
  2  3  1  0  0  0  0
  2  4  1  0  0  0  0
  2  5  1  0  0  0  0
  1  2  1  0  0  0  0
 22 23  2  0  0  0  0
 22 24  1  0  0  0  0
 19 20  1  0  0  0  0
 19 21  1  0  0  0  0
 17 18  2  0  0  0  0
 17 19  1  0  0  0  0
 14 15  1  0  0  0  0
 14 16  1  0  0  0  0
 14 17  1  0  0  0  0
 11 12  1  0  0  0  0
 11 13  1  0  0  0  0
 11 14  1  0  0  0  0
  9 10  1  0  0  0  0
  9 11  1  0  0  0  0
  9 22  1  0  0  0  0
  7  8  1  0  0  0  0
  7  9  1  0  0  0  0
 26 27  1  0  0  0  0
 26 28  1  0  0  0  0
 26 29  1  0  0  0  0
 24 25  1  0  0  0  0
 24 26  1  0  0  0  0
M  END
$$$$
default_name
  -OEChem-02102213163D

 29 28  0     1  0  0  0  0  0999 V2000
   -3.3998   -3.6239    1.3678 H   0  0  0  0  0  0  0  0  0  0  0  0
   -3.3608   -2.6749    0.8348 C   0  0  0  0  0  0  0  0  0  0  0  0
   -4.0988   -1.9909    1.2498 H   0  0  0  0  0  0  0  0  0  0  0  0
   -3.5618   -2.8419   -0.2222 H   0  0  0  0  0  0  0  0  0  0  0  0
   -1.9818   -2.0809    0.9918 C   0  0  0  0  0  0  0  0  0  0  0  0
   -1.1288   -2.6669    1.6468 O   0  0  0  0  0  0  0  0  0  0  0  0
   -1.7648   -0.9089    0.3998 N   0  0  0  0  0  0  0  0  0  0  0  0
   -2.5238   -0.4719   -0.1032 H   0  0  0  0  0  0  0  0  0  0  0  0
   -0.4848   -0.1959    0.4138 C   0  0  1  0  0  0  0  0  0  0  0  0
    0.1386   -0.6144    1.2058 H   0  0  0  0  0  0  0  0  0  0  0  0
    0.2271   -0.4272   -0.9334 C   0  0  0  0  0  0  0  0  0  0  0  0
    1.2725   -0.6703   -0.7321 H   0  0  0  0  0  0  0  0  0  0  0  0
   -0.2306   -1.2802   -1.4366 H   0  0  0  0  0  0  0  0  0  0  0  0
    0.1848    0.7879   -1.8764 C   0  0  0  0  0  0  0  0  0  0  0  0
   -0.5442    0.6134   -2.6674 H   0  0  0  0  0  0  0  0  0  0  0  0
   -0.1215    1.6661   -1.3081 H   0  0  0  0  0  0  0  0  0  0  0  0
    1.5322    1.0864   -2.5335 C   0  0  0  0  0  0  0  0  0  0  0  0
    2.5518    0.4735   -2.2778 O   0  0  0  0  0  0  0  0  0  0  0  0
    1.5931    2.0497   -3.4271 N   0  0  0  0  0  0  0  0  0  0  0  0
    2.5025    2.2023   -3.8275 H   0  0  0  0  0  0  0  0  0  0  0  0
    0.7847    2.5828   -3.6763 H   0  0  0  0  0  0  0  0  0  0  0  0
   -0.7011    1.2952    0.7149 C   0  0  0  0  0  0  0  0  0  0  0  0
   -1.5917    1.9198    0.1415 O   0  0  0  0  0  0  0  0  0  0  0  0
    0.1191    1.8675    1.6055 N   0  0  0  0  0  0  0  0  0  0  0  0
    0.8092    1.2861    2.0537 H   0  0  0  0  0  0  0  0  0  0  0  0
    0.0509    3.2769    1.9894 C   0  0  0  0  0  0  0  0  0  0  0  0
   -0.9494    3.5076    2.3640 H   0  0  0  0  0  0  0  0  0  0  0  0
    0.7844    3.4956    2.7668 H   0  0  0  0  0  0  0  0  0  0  0  0
    0.2468    3.9058    1.1193 H   0  0  0  0  0  0  0  0  0  0  0  0
  5  6  2  0  0  0  0
  5  7  1  0  0  0  0
  2  3  1  0  0  0  0
  2  4  1  0  0  0  0
  2  5  1  0  0  0  0
  1  2  1  0  0  0  0
 22 23  2  0  0  0  0
 22 24  1  0  0  0  0
 19 20  1  0  0  0  0
 19 21  1  0  0  0  0
 17 18  2  0  0  0  0
 17 19  1  0  0  0  0
 14 15  1  0  0  0  0
 14 16  1  0  0  0  0
 14 17  1  0  0  0  0
 11 12  1  0  0  0  0
 11 13  1  0  0  0  0
 11 14  1  0  0  0  0
  9 10  1  0  0  0  0
  9 11  1  0  0  0  0
  9 22  1  0  0  0  0
  7  8  1  0  0  0  0
  7  9  1  0  0  0  0
 26 27  1  0  0  0  0
 26 28  1  0  0  0  0
 26 29  1  0  0  0  0
 24 25  1  0  0  0  0
 24 26  1  0  0  0  0
M  END
$$$$
default_name
  -OEChem-02102213163D

 29 28  0     1  0  0  0  0  0999 V2000
   -3.3998   -3.6239    1.3678 H   0  0  0  0  0  0  0  0  0  0  0  0
   -3.3608   -2.6749    0.8348 C   0  0  0  0  0  0  0  0  0  0  0  0
   -4.0988   -1.9909    1.2498 H   0  0  0  0  0  0  0  0  0  0  0  0
   -3.5618   -2.8419   -0.2222 H   0  0  0  0  0  0  0  0  0  0  0  0
   -1.9818   -2.0809    0.9918 C   0  0  0  0  0  0  0  0  0  0  0  0
   -1.1288   -2.6669    1.6468 O   0  0  0  0  0  0  0  0  0  0  0  0
   -1.7648   -0.9089    0.3998 N   0  0  0  0  0  0  0  0  0  0  0  0
   -2.5238   -0.4719   -0.1032 H   0  0  0  0  0  0  0  0  0  0  0  0
   -0.4848   -0.1959    0.4138 C   0  0  1  0  0  0  0  0  0  0  0  0
    0.1386   -0.6144    1.2058 H   0  0  0  0  0  0  0  0  0  0  0  0
    0.2271   -0.4272   -0.9334 C   0  0  0  0  0  0  0  0  0  0  0  0
    1.2725   -0.6703   -0.7321 H   0  0  0  0  0  0  0  0  0  0  0  0
   -0.2306   -1.2802   -1.4366 H   0  0  0  0  0  0  0  0  0  0  0  0
    0.1848    0.7879   -1.8764 C   0  0  0  0  0  0  0  0  0  0  0  0
   -0.7091    0.7392   -2.4979 H   0  0  0  0  0  0  0  0  0  0  0  0
    0.1440    1.6984   -1.2785 H   0  0  0  0  0  0  0  0  0  0  0  0
    1.3988    0.8740   -2.8012 C   0  0  0  0  0  0  0  0  0  0  0  0
    2.3393    0.1041   -2.7443 O   0  0  0  0  0  0  0  0  0  0  0  0
    1.4265    1.8237   -3.7110 N   0  0  0  0  0  0  0  0  0  0  0  0
    2.2469    1.8331   -4.2917 H   0  0  0  0  0  0  0  0  0  0  0  0
    0.6787    2.4811   -3.8027 H   0  0  0  0  0  0  0  0  0  0  0  0
   -0.7011    1.2952    0.7149 C   0  0  0  0  0  0  0  0  0  0  0  0
   -1.5917    1.9198    0.1415 O   0  0  0  0  0  0  0  0  0  0  0  0
    0.1191    1.8675    1.6055 N   0  0  0  0  0  0  0  0  0  0  0  0
    0.8092    1.2861    2.0537 H   0  0  0  0  0  0  0  0  0  0  0  0
    0.0509    3.2769    1.9894 C   0  0  0  0  0  0  0  0  0  0  0  0
   -0.9494    3.5076    2.3640 H   0  0  0  0  0  0  0  0  0  0  0  0
    0.7844    3.4956    2.7668 H   0  0  0  0  0  0  0  0  0  0  0  0
    0.2468    3.9058    1.1193 H   0  0  0  0  0  0  0  0  0  0  0  0
  5  6  2  0  0  0  0
  5  7  1  0  0  0  0
  2  3  1  0  0  0  0
  2  4  1  0  0  0  0
  2  5  1  0  0  0  0
  1  2  1  0  0  0  0
 22 23  2  0  0  0  0
 22 24  1  0  0  0  0
 19 20  1  0  0  0  0
 19 21  1  0  0  0  0
 17 18  2  0  0  0  0
 17 19  1  0  0  0  0
 14 15  1  0  0  0  0
 14 16  1  0  0  0  0
 14 17  1  0  0  0  0
 11 12  1  0  0  0  0
 11 13  1  0  0  0  0
 11 14  1  0  0  0  0
  9 10  1  0  0  0  0
  9 11  1  0  0  0  0
  9 22  1  0  0  0  0
  7  8  1  0  0  0  0
  7  9  1  0  0  0  0
 26 27  1  0  0  0  0
 26 28  1  0  0  0  0
 26 29  1  0  0  0  0
 24 25  1  0  0  0  0
 24 26  1  0  0  0  0
M  END
$$$$
default_name
  -OEChem-02102213163D

 29 28  0     1  0  0  0  0  0999 V2000
   -3.3998   -3.6239    1.3678 H   0  0  0  0  0  0  0  0  0  0  0  0
   -3.3608   -2.6749    0.8348 C   0  0  0  0  0  0  0  0  0  0  0  0
   -4.0988   -1.9909    1.2498 H   0  0  0  0  0  0  0  0  0  0  0  0
   -3.5618   -2.8419   -0.2222 H   0  0  0  0  0  0  0  0  0  0  0  0
   -1.9818   -2.0809    0.9918 C   0  0  0  0  0  0  0  0  0  0  0  0
   -1.1288   -2.6669    1.6468 O   0  0  0  0  0  0  0  0  0  0  0  0
   -1.7648   -0.9089    0.3998 N   0  0  0  0  0  0  0  0  0  0  0  0
   -2.5238   -0.4719   -0.1032 H   0  0  0  0  0  0  0  0  0  0  0  0
   -0.4848   -0.1959    0.4138 C   0  0  1  0  0  0  0  0  0  0  0  0
    0.1386   -0.6144    1.2058 H   0  0  0  0  0  0  0  0  0  0  0  0
    0.2271   -0.4272   -0.9334 C   0  0  0  0  0  0  0  0  0  0  0  0
    1.2725   -0.6703   -0.7321 H   0  0  0  0  0  0  0  0  0  0  0  0
   -0.2306   -1.2802   -1.4366 H   0  0  0  0  0  0  0  0  0  0  0  0
    0.1848    0.7879   -1.8764 C   0  0  0  0  0  0  0  0  0  0  0  0
   -0.8137    0.8881   -2.3014 H   0  0  0  0  0  0  0  0  0  0  0  0
    0.4117    1.6876   -1.3044 H   0  0  0  0  0  0  0  0  0  0  0  0
    1.1815    0.6881   -3.0310 C   0  0  0  0  0  0  0  0  0  0  0  0
    1.9801   -0.2223   -3.1488 O   0  0  0  0  0  0  0  0  0  0  0  0
    1.1717    1.6297   -3.9495 N   0  0  0  0  0  0  0  0  0  0  0  0
    1.8466    1.5137   -4.6853 H   0  0  0  0  0  0  0  0  0  0  0  0
    0.5344    2.3987   -3.9024 H   0  0  0  0  0  0  0  0  0  0  0  0
   -0.7011    1.2952    0.7149 C   0  0  0  0  0  0  0  0  0  0  0  0
   -1.5917    1.9198    0.1415 O   0  0  0  0  0  0  0  0  0  0  0  0
    0.1191    1.8675    1.6055 N   0  0  0  0  0  0  0  0  0  0  0  0
    0.8092    1.2861    2.0537 H   0  0  0  0  0  0  0  0  0  0  0  0
    0.0509    3.2769    1.9894 C   0  0  0  0  0  0  0  0  0  0  0  0
   -0.9494    3.5076    2.3640 H   0  0  0  0  0  0  0  0  0  0  0  0
    0.7844    3.4956    2.7668 H   0  0  0  0  0  0  0  0  0  0  0  0
    0.2468    3.9058    1.1193 H   0  0  0  0  0  0  0  0  0  0  0  0
  5  6  2  0  0  0  0
  5  7  1  0  0  0  0
  2  3  1  0  0  0  0
  2  4  1  0  0  0  0
  2  5  1  0  0  0  0
  1  2  1  0  0  0  0
 22 23  2  0  0  0  0
 22 24  1  0  0  0  0
 19 20  1  0  0  0  0
 19 21  1  0  0  0  0
 17 18  2  0  0  0  0
 17 19  1  0  0  0  0
 14 15  1  0  0  0  0
 14 16  1  0  0  0  0
 14 17  1  0  0  0  0
 11 12  1  0  0  0  0
 11 13  1  0  0  0  0
 11 14  1  0  0  0  0
  9 10  1  0  0  0  0
  9 11  1  0  0  0  0
  9 22  1  0  0  0  0
  7  8  1  0  0  0  0
  7  9  1  0  0  0  0
 26 27  1  0  0  0  0
 26 28  1  0  0  0  0
 26 29  1  0  0  0  0
 24 25  1  0  0  0  0
 24 26  1  0  0  0  0
M  END
$$$$
default_name
  -OEChem-02102213163D

 29 28  0     1  0  0  0  0  0999 V2000
   -3.3998   -3.6239    1.3678 H   0  0  0  0  0  0  0  0  0  0  0  0
   -3.3608   -2.6749    0.8348 C   0  0  0  0  0  0  0  0  0  0  0  0
   -4.0988   -1.9909    1.2498 H   0  0  0  0  0  0  0  0  0  0  0  0
   -3.5618   -2.8419   -0.2222 H   0  0  0  0  0  0  0  0  0  0  0  0
   -1.9818   -2.0809    0.9918 C   0  0  0  0  0  0  0  0  0  0  0  0
   -1.1288   -2.6669    1.6468 O   0  0  0  0  0  0  0  0  0  0  0  0
   -1.7648   -0.9089    0.3998 N   0  0  0  0  0  0  0  0  0  0  0  0
   -2.5238   -0.4719   -0.1032 H   0  0  0  0  0  0  0  0  0  0  0  0
   -0.4848   -0.1959    0.4138 C   0  0  1  0  0  0  0  0  0  0  0  0
    0.1386   -0.6144    1.2058 H   0  0  0  0  0  0  0  0  0  0  0  0
    0.2271   -0.4272   -0.9334 C   0  0  0  0  0  0  0  0  0  0  0  0
    1.1795   -0.9243   -0.7376 H   0  0  0  0  0  0  0  0  0  0  0  0
   -0.3829   -1.0892   -1.5498 H   0  0  0  0  0  0  0  0  0  0  0  0
    0.5075    0.8656   -1.7191 C   0  0  0  0  0  0  0  0  0  0  0  0
   -0.4305    1.3805   -1.9257 H   0  0  0  0  0  0  0  0  0  0  0  0
    1.1368    1.5180   -1.1138 H   0  0  0  0  0  0  0  0  0  0  0  0
    1.2137    0.6181   -3.0521 C   0  0  0  0  0  0  0  0  0  0  0  0
    1.5851   -0.4811   -3.4186 O   0  0  0  0  0  0  0  0  0  0  0  0
    1.4246    1.6435   -3.8486 N   0  0  0  0  0  0  0  0  0  0  0  0
    1.8913    1.4235   -4.7113 H   0  0  0  0  0  0  0  0  0  0  0  0
    1.1374    2.5676   -3.5975 H   0  0  0  0  0  0  0  0  0  0  0  0
   -0.7011    1.2952    0.7149 C   0  0  0  0  0  0  0  0  0  0  0  0
   -1.5917    1.9198    0.1415 O   0  0  0  0  0  0  0  0  0  0  0  0
    0.1191    1.8675    1.6055 N   0  0  0  0  0  0  0  0  0  0  0  0
    0.8092    1.2861    2.0537 H   0  0  0  0  0  0  0  0  0  0  0  0
    0.0509    3.2769    1.9894 C   0  0  0  0  0  0  0  0  0  0  0  0
   -0.9494    3.5076    2.3640 H   0  0  0  0  0  0  0  0  0  0  0  0
    0.7844    3.4956    2.7668 H   0  0  0  0  0  0  0  0  0  0  0  0
    0.2468    3.9058    1.1193 H   0  0  0  0  0  0  0  0  0  0  0  0
  5  6  2  0  0  0  0
  5  7  1  0  0  0  0
  2  3  1  0  0  0  0
  2  4  1  0  0  0  0
  2  5  1  0  0  0  0
  1  2  1  0  0  0  0
 22 23  2  0  0  0  0
 22 24  1  0  0  0  0
 19 20  1  0  0  0  0
 19 21  1  0  0  0  0
 17 18  2  0  0  0  0
 17 19  1  0  0  0  0
 14 15  1  0  0  0  0
 14 16  1  0  0  0  0
 14 17  1  0  0  0  0
 11 12  1  0  0  0  0
 11 13  1  0  0  0  0
 11 14  1  0  0  0  0
  9 10  1  0  0  0  0
  9 11  1  0  0  0  0
  9 22  1  0  0  0  0
  7  8  1  0  0  0  0
  7  9  1  0  0  0  0
 26 27  1  0  0  0  0
 26 28  1  0  0  0  0
 26 29  1  0  0  0  0
 24 25  1  0  0  0  0
 24 26  1  0  0  0  0
M  END
$$$$
default_name
  -OEChem-02102213163D

 29 28  0     1  0  0  0  0  0999 V2000
   -3.3998   -3.6239    1.3678 H   0  0  0  0  0  0  0  0  0  0  0  0
   -3.3608   -2.6749    0.8348 C   0  0  0  0  0  0  0  0  0  0  0  0
   -4.0988   -1.9909    1.2498 H   0  0  0  0  0  0  0  0  0  0  0  0
   -3.5618   -2.8419   -0.2222 H   0  0  0  0  0  0  0  0  0  0  0  0
   -1.9818   -2.0809    0.9918 C   0  0  0  0  0  0  0  0  0  0  0  0
   -1.1288   -2.6669    1.6468 O   0  0  0  0  0  0  0  0  0  0  0  0
   -1.7648   -0.9089    0.3998 N   0  0  0  0  0  0  0  0  0  0  0  0
   -2.5238   -0.4719   -0.1032 H   0  0  0  0  0  0  0  0  0  0  0  0
   -0.4848   -0.1959    0.4138 C   0  0  1  0  0  0  0  0  0  0  0  0
    0.1386   -0.6144    1.2058 H   0  0  0  0  0  0  0  0  0  0  0  0
    0.2271   -0.4272   -0.9334 C   0  0  0  0  0  0  0  0  0  0  0  0
    1.1795   -0.9243   -0.7376 H   0  0  0  0  0  0  0  0  0  0  0  0
   -0.3829   -1.0892   -1.5498 H   0  0  0  0  0  0  0  0  0  0  0  0
    0.5075    0.8656   -1.7191 C   0  0  0  0  0  0  0  0  0  0  0  0
   -0.3731    1.5071   -1.6968 H   0  0  0  0  0  0  0  0  0  0  0  0
    1.3354    1.3942   -1.2467 H   0  0  0  0  0  0  0  0  0  0  0  0
    0.8707    0.6133   -3.1824 C   0  0  0  0  0  0  0  0  0  0  0  0
    1.0003   -0.4994   -3.6574 O   0  0  0  0  0  0  0  0  0  0  0  0
    1.0449    1.6508   -3.9720 N   0  0  0  0  0  0  0  0  0  0  0  0
    1.2811    1.4271   -4.9231 H   0  0  0  0  0  0  0  0  0  0  0  0
    0.9479    2.5867   -3.6337 H   0  0  0  0  0  0  0  0  0  0  0  0
   -0.7011    1.2952    0.7149 C   0  0  0  0  0  0  0  0  0  0  0  0
   -1.5917    1.9198    0.1415 O   0  0  0  0  0  0  0  0  0  0  0  0
    0.1191    1.8675    1.6055 N   0  0  0  0  0  0  0  0  0  0  0  0
    0.8092    1.2861    2.0537 H   0  0  0  0  0  0  0  0  0  0  0  0
    0.0509    3.2769    1.9894 C   0  0  0  0  0  0  0  0  0  0  0  0
   -0.9494    3.5076    2.3640 H   0  0  0  0  0  0  0  0  0  0  0  0
    0.7844    3.4956    2.7668 H   0  0  0  0  0  0  0  0  0  0  0  0
    0.2468    3.9058    1.1193 H   0  0  0  0  0  0  0  0  0  0  0  0
  5  6  2  0  0  0  0
  5  7  1  0  0  0  0
  2  3  1  0  0  0  0
  2  4  1  0  0  0  0
  2  5  1  0  0  0  0
  1  2  1  0  0  0  0
 22 23  2  0  0  0  0
 22 24  1  0  0  0  0
 19 20  1  0  0  0  0
 19 21  1  0  0  0  0
 17 18  2  0  0  0  0
 17 19  1  0  0  0  0
 14 15  1  0  0  0  0
 14 16  1  0  0  0  0
 14 17  1  0  0  0  0
 11 12  1  0  0  0  0
 11 13  1  0  0  0  0
 11 14  1  0  0  0  0
  9 10  1  0  0  0  0
  9 11  1  0  0  0  0
  9 22  1  0  0  0  0
  7  8  1  0  0  0  0
  7  9  1  0  0  0  0
 26 27  1  0  0  0  0
 26 28  1  0  0  0  0
 26 29  1  0  0  0  0
 24 25  1  0  0  0  0
 24 26  1  0  0  0  0
M  END
$$$$
default_name
  -OEChem-02102213163D

 29 28  0     1  0  0  0  0  0999 V2000
   -3.3998   -3.6239    1.3678 H   0  0  0  0  0  0  0  0  0  0  0  0
   -3.3608   -2.6749    0.8348 C   0  0  0  0  0  0  0  0  0  0  0  0
   -4.0988   -1.9909    1.2498 H   0  0  0  0  0  0  0  0  0  0  0  0
   -3.5618   -2.8419   -0.2222 H   0  0  0  0  0  0  0  0  0  0  0  0
   -1.9818   -2.0809    0.9918 C   0  0  0  0  0  0  0  0  0  0  0  0
   -1.1288   -2.6669    1.6468 O   0  0  0  0  0  0  0  0  0  0  0  0
   -1.7648   -0.9089    0.3998 N   0  0  0  0  0  0  0  0  0  0  0  0
   -2.5238   -0.4719   -0.1032 H   0  0  0  0  0  0  0  0  0  0  0  0
   -0.4848   -0.1959    0.4138 C   0  0  1  0  0  0  0  0  0  0  0  0
    0.1386   -0.6144    1.2058 H   0  0  0  0  0  0  0  0  0  0  0  0
    0.2271   -0.4272   -0.9334 C   0  0  0  0  0  0  0  0  0  0  0  0
    1.1795   -0.9243   -0.7376 H   0  0  0  0  0  0  0  0  0  0  0  0
   -0.3829   -1.0892   -1.5498 H   0  0  0  0  0  0  0  0  0  0  0  0
    0.5075    0.8656   -1.7191 C   0  0  0  0  0  0  0  0  0  0  0  0
   -0.2512    1.6111   -1.4821 H   0  0  0  0  0  0  0  0  0  0  0  0
    1.4820    1.2546   -1.4241 H   0  0  0  0  0  0  0  0  0  0  0  0
    0.5105    0.6601   -3.2339 C   0  0  0  0  0  0  0  0  0  0  0  0
    0.3812   -0.4285   -3.7617 O   0  0  0  0  0  0  0  0  0  0  0  0
    0.6523    1.7139   -4.0082 N   0  0  0  0  0  0  0  0  0  0  0  0
    0.6462    1.5213   -4.9948 H   0  0  0  0  0  0  0  0  0  0  0  0
    0.7596    2.6319   -3.6266 H   0  0  0  0  0  0  0  0  0  0  0  0
   -0.7011    1.2952    0.7149 C   0  0  0  0  0  0  0  0  0  0  0  0
   -1.5917    1.9198    0.1415 O   0  0  0  0  0  0  0  0  0  0  0  0
    0.1191    1.8675    1.6055 N   0  0  0  0  0  0  0  0  0  0  0  0
    0.8092    1.2861    2.0537 H   0  0  0  0  0  0  0  0  0  0  0  0
    0.0509    3.2769    1.9894 C   0  0  0  0  0  0  0  0  0  0  0  0
   -0.9494    3.5076    2.3640 H   0  0  0  0  0  0  0  0  0  0  0  0
    0.7844    3.4956    2.7668 H   0  0  0  0  0  0  0  0  0  0  0  0
    0.2468    3.9058    1.1193 H   0  0  0  0  0  0  0  0  0  0  0  0
  5  6  2  0  0  0  0
  5  7  1  0  0  0  0
  2  3  1  0  0  0  0
  2  4  1  0  0  0  0
  2  5  1  0  0  0  0
  1  2  1  0  0  0  0
 22 23  2  0  0  0  0
 22 24  1  0  0  0  0
 19 20  1  0  0  0  0
 19 21  1  0  0  0  0
 17 18  2  0  0  0  0
 17 19  1  0  0  0  0
 14 15  1  0  0  0  0
 14 16  1  0  0  0  0
 14 17  1  0  0  0  0
 11 12  1  0  0  0  0
 11 13  1  0  0  0  0
 11 14  1  0  0  0  0
  9 10  1  0  0  0  0
  9 11  1  0  0  0  0
  9 22  1  0  0  0  0
  7  8  1  0  0  0  0
  7  9  1  0  0  0  0
 26 27  1  0  0  0  0
 26 28  1  0  0  0  0
 26 29  1  0  0  0  0
 24 25  1  0  0  0  0
 24 26  1  0  0  0  0
M  END
$$$$
default_name
  -OEChem-02102213163D

 29 28  0     1  0  0  0  0  0999 V2000
   -3.3998   -3.6239    1.3678 H   0  0  0  0  0  0  0  0  0  0  0  0
   -3.3608   -2.6749    0.8348 C   0  0  0  0  0  0  0  0  0  0  0  0
   -4.0988   -1.9909    1.2498 H   0  0  0  0  0  0  0  0  0  0  0  0
   -3.5618   -2.8419   -0.2222 H   0  0  0  0  0  0  0  0  0  0  0  0
   -1.9818   -2.0809    0.9918 C   0  0  0  0  0  0  0  0  0  0  0  0
   -1.1288   -2.6669    1.6468 O   0  0  0  0  0  0  0  0  0  0  0  0
   -1.7648   -0.9089    0.3998 N   0  0  0  0  0  0  0  0  0  0  0  0
   -2.5238   -0.4719   -0.1032 H   0  0  0  0  0  0  0  0  0  0  0  0
   -0.4848   -0.1959    0.4138 C   0  0  1  0  0  0  0  0  0  0  0  0
    0.1386   -0.6144    1.2058 H   0  0  0  0  0  0  0  0  0  0  0  0
    0.2271   -0.4272   -0.9334 C   0  0  0  0  0  0  0  0  0  0  0  0
    1.1795   -0.9243   -0.7376 H   0  0  0  0  0  0  0  0  0  0  0  0
   -0.3829   -1.0892   -1.5498 H   0  0  0  0  0  0  0  0  0  0  0  0
    0.5075    0.8656   -1.7191 C   0  0  0  0  0  0  0  0  0  0  0  0
   -0.0730    1.6854   -1.2964 H   0  0  0  0  0  0  0  0  0  0  0  0
    1.5666    1.1088   -1.6338 H   0  0  0  0  0  0  0  0  0  0  0  0
    0.1576    0.7554   -3.2031 C   0  0  0  0  0  0  0  0  0  0  0  0
   -0.2302   -0.2733   -3.7245 O   0  0  0  0  0  0  0  0  0  0  0  0
    0.2736    1.8285   -3.9549 N   0  0  0  0  0  0  0  0  0  0  0  0
    0.0297    1.6995   -4.9215 H   0  0  0  0  0  0  0  0  0  0  0  0
    0.5852    2.7000   -3.5767 H   0  0  0  0  0  0  0  0  0  0  0  0
   -0.7011    1.2952    0.7149 C   0  0  0  0  0  0  0  0  0  0  0  0
   -1.5917    1.9198    0.1415 O   0  0  0  0  0  0  0  0  0  0  0  0
    0.1191    1.8675    1.6055 N   0  0  0  0  0  0  0  0  0  0  0  0
    0.8092    1.2861    2.0537 H   0  0  0  0  0  0  0  0  0  0  0  0
    0.0509    3.2769    1.9894 C   0  0  0  0  0  0  0  0  0  0  0  0
   -0.9494    3.5076    2.3640 H   0  0  0  0  0  0  0  0  0  0  0  0
    0.7844    3.4956    2.7668 H   0  0  0  0  0  0  0  0  0  0  0  0
    0.2468    3.9058    1.1193 H   0  0  0  0  0  0  0  0  0  0  0  0
  5  6  2  0  0  0  0
  5  7  1  0  0  0  0
  2  3  1  0  0  0  0
  2  4  1  0  0  0  0
  2  5  1  0  0  0  0
  1  2  1  0  0  0  0
 22 23  2  0  0  0  0
 22 24  1  0  0  0  0
 19 20  1  0  0  0  0
 19 21  1  0  0  0  0
 17 18  2  0  0  0  0
 17 19  1  0  0  0  0
 14 15  1  0  0  0  0
 14 16  1  0  0  0  0
 14 17  1  0  0  0  0
 11 12  1  0  0  0  0
 11 13  1  0  0  0  0
 11 14  1  0  0  0  0
  9 10  1  0  0  0  0
  9 11  1  0  0  0  0
  9 22  1  0  0  0  0
  7  8  1  0  0  0  0
  7  9  1  0  0  0  0
 26 27  1  0  0  0  0
 26 28  1  0  0  0  0
 26 29  1  0  0  0  0
 24 25  1  0  0  0  0
 24 26  1  0  0  0  0
M  END
$$$$
default_name
  -OEChem-02102213163D

 29 28  0     1  0  0  0  0  0999 V2000
   -3.3998   -3.6239    1.3678 H   0  0  0  0  0  0  0  0  0  0  0  0
   -3.3608   -2.6749    0.8348 C   0  0  0  0  0  0  0  0  0  0  0  0
   -4.0988   -1.9909    1.2498 H   0  0  0  0  0  0  0  0  0  0  0  0
   -3.5618   -2.8419   -0.2222 H   0  0  0  0  0  0  0  0  0  0  0  0
   -1.9818   -2.0809    0.9918 C   0  0  0  0  0  0  0  0  0  0  0  0
   -1.1288   -2.6669    1.6468 O   0  0  0  0  0  0  0  0  0  0  0  0
   -1.7648   -0.9089    0.3998 N   0  0  0  0  0  0  0  0  0  0  0  0
   -2.5238   -0.4719   -0.1032 H   0  0  0  0  0  0  0  0  0  0  0  0
   -0.4848   -0.1959    0.4138 C   0  0  1  0  0  0  0  0  0  0  0  0
    0.1386   -0.6144    1.2058 H   0  0  0  0  0  0  0  0  0  0  0  0
    0.2271   -0.4272   -0.9334 C   0  0  0  0  0  0  0  0  0  0  0  0
    1.1795   -0.9243   -0.7376 H   0  0  0  0  0  0  0  0  0  0  0  0
   -0.3829   -1.0892   -1.5498 H   0  0  0  0  0  0  0  0  0  0  0  0
    0.5075    0.8656   -1.7191 C   0  0  0  0  0  0  0  0  0  0  0  0
    0.1493    1.7247   -1.1523 H   0  0  0  0  0  0  0  0  0  0  0  0
    1.5834    0.9666   -1.8617 H   0  0  0  0  0  0  0  0  0  0  0  0
   -0.1640    0.8926   -3.0921 C   0  0  0  0  0  0  0  0  0  0  0  0
   -0.7921   -0.0443   -3.5483 O   0  0  0  0  0  0  0  0  0  0  0  0
   -0.0656    1.9867   -3.8156 N   0  0  0  0  0  0  0  0  0  0  0  0
   -0.5262    1.9497   -4.7083 H   0  0  0  0  0  0  0  0  0  0  0  0
    0.4366    2.7866   -3.4873 H   0  0  0  0  0  0  0  0  0  0  0  0
   -0.7011    1.2952    0.7149 C   0  0  0  0  0  0  0  0  0  0  0  0
   -1.5917    1.9198    0.1415 O   0  0  0  0  0  0  0  0  0  0  0  0
    0.1191    1.8675    1.6055 N   0  0  0  0  0  0  0  0  0  0  0  0
    0.8092    1.2861    2.0537 H   0  0  0  0  0  0  0  0  0  0  0  0
    0.0509    3.2769    1.9894 C   0  0  0  0  0  0  0  0  0  0  0  0
   -0.9494    3.5076    2.3640 H   0  0  0  0  0  0  0  0  0  0  0  0
    0.7844    3.4956    2.7668 H   0  0  0  0  0  0  0  0  0  0  0  0
    0.2468    3.9058    1.1193 H   0  0  0  0  0  0  0  0  0  0  0  0
  5  6  2  0  0  0  0
  5  7  1  0  0  0  0
  2  3  1  0  0  0  0
  2  4  1  0  0  0  0
  2  5  1  0  0  0  0
  1  2  1  0  0  0  0
 22 23  2  0  0  0  0
 22 24  1  0  0  0  0
 19 20  1  0  0  0  0
 19 21  1  0  0  0  0
 17 18  2  0  0  0  0
 17 19  1  0  0  0  0
 14 15  1  0  0  0  0
 14 16  1  0  0  0  0
 14 17  1  0  0  0  0
 11 12  1  0  0  0  0
 11 13  1  0  0  0  0
 11 14  1  0  0  0  0
  9 10  1  0  0  0  0
  9 11  1  0  0  0  0
  9 22  1  0  0  0  0
  7  8  1  0  0  0  0
  7  9  1  0  0  0  0
 26 27  1  0  0  0  0
 26 28  1  0  0  0  0
 26 29  1  0  0  0  0
 24 25  1  0  0  0  0
 24 26  1  0  0  0  0
M  END
$$$$
default_name
  -OEChem-02102213163D

 29 28  0     1  0  0  0  0  0999 V2000
   -3.3998   -3.6239    1.3678 H   0  0  0  0  0  0  0  0  0  0  0  0
   -3.3608   -2.6749    0.8348 C   0  0  0  0  0  0  0  0  0  0  0  0
   -4.0988   -1.9909    1.2498 H   0  0  0  0  0  0  0  0  0  0  0  0
   -3.5618   -2.8419   -0.2222 H   0  0  0  0  0  0  0  0  0  0  0  0
   -1.9818   -2.0809    0.9918 C   0  0  0  0  0  0  0  0  0  0  0  0
   -1.1288   -2.6669    1.6468 O   0  0  0  0  0  0  0  0  0  0  0  0
   -1.7648   -0.9089    0.3998 N   0  0  0  0  0  0  0  0  0  0  0  0
   -2.5238   -0.4719   -0.1032 H   0  0  0  0  0  0  0  0  0  0  0  0
   -0.4848   -0.1959    0.4138 C   0  0  1  0  0  0  0  0  0  0  0  0
    0.1386   -0.6144    1.2058 H   0  0  0  0  0  0  0  0  0  0  0  0
    0.2271   -0.4272   -0.9334 C   0  0  0  0  0  0  0  0  0  0  0  0
    1.1795   -0.9243   -0.7376 H   0  0  0  0  0  0  0  0  0  0  0  0
   -0.3829   -1.0892   -1.5498 H   0  0  0  0  0  0  0  0  0  0  0  0
    0.5075    0.8656   -1.7191 C   0  0  0  0  0  0  0  0  0  0  0  0
    0.4006    1.7266   -1.0596 H   0  0  0  0  0  0  0  0  0  0  0  0
    1.5313    0.8378   -2.0922 H   0  0  0  0  0  0  0  0  0  0  0  0
   -0.4324    1.0625   -2.9084 C   0  0  0  0  0  0  0  0  0  0  0  0
   -1.2663    0.2428   -3.2451 O   0  0  0  0  0  0  0  0  0  0  0  0
   -0.3419    2.1778   -3.5999 N   0  0  0  0  0  0  0  0  0  0  0  0
   -0.9838    2.2548   -4.3697 H   0  0  0  0  0  0  0  0  0  0  0  0
    0.3239    2.8856   -3.3646 H   0  0  0  0  0  0  0  0  0  0  0  0
   -0.7011    1.2952    0.7149 C   0  0  0  0  0  0  0  0  0  0  0  0
   -1.5917    1.9198    0.1415 O   0  0  0  0  0  0  0  0  0  0  0  0
    0.1191    1.8675    1.6055 N   0  0  0  0  0  0  0  0  0  0  0  0
    0.8092    1.2861    2.0537 H   0  0  0  0  0  0  0  0  0  0  0  0
    0.0509    3.2769    1.9894 C   0  0  0  0  0  0  0  0  0  0  0  0
   -0.9494    3.5076    2.3640 H   0  0  0  0  0  0  0  0  0  0  0  0
    0.7844    3.4956    2.7668 H   0  0  0  0  0  0  0  0  0  0  0  0
    0.2468    3.9058    1.1193 H   0  0  0  0  0  0  0  0  0  0  0  0
  5  6  2  0  0  0  0
  5  7  1  0  0  0  0
  2  3  1  0  0  0  0
  2  4  1  0  0  0  0
  2  5  1  0  0  0  0
  1  2  1  0  0  0  0
 22 23  2  0  0  0  0
 22 24  1  0  0  0  0
 19 20  1  0  0  0  0
 19 21  1  0  0  0  0
 17 18  2  0  0  0  0
 17 19  1  0  0  0  0
 14 15  1  0  0  0  0
 14 16  1  0  0  0  0
 14 17  1  0  0  0  0
 11 12  1  0  0  0  0
 11 13  1  0  0  0  0
 11 14  1  0  0  0  0
  9 10  1  0  0  0  0
  9 11  1  0  0  0  0
  9 22  1  0  0  0  0
  7  8  1  0  0  0  0
  7  9  1  0  0  0  0
 26 27  1  0  0  0  0
 26 28  1  0  0  0  0
 26 29  1  0  0  0  0
 24 25  1  0  0  0  0
 24 26  1  0  0  0  0
M  END
$$$$
default_name
  -OEChem-02102213163D

 29 28  0     1  0  0  0  0  0999 V2000
   -3.3998   -3.6239    1.3678 H   0  0  0  0  0  0  0  0  0  0  0  0
   -3.3608   -2.6749    0.8348 C   0  0  0  0  0  0  0  0  0  0  0  0
   -4.0988   -1.9909    1.2498 H   0  0  0  0  0  0  0  0  0  0  0  0
   -3.5618   -2.8419   -0.2222 H   0  0  0  0  0  0  0  0  0  0  0  0
   -1.9818   -2.0809    0.9918 C   0  0  0  0  0  0  0  0  0  0  0  0
   -1.1288   -2.6669    1.6468 O   0  0  0  0  0  0  0  0  0  0  0  0
   -1.7648   -0.9089    0.3998 N   0  0  0  0  0  0  0  0  0  0  0  0
   -2.5238   -0.4719   -0.1032 H   0  0  0  0  0  0  0  0  0  0  0  0
   -0.4848   -0.1959    0.4138 C   0  0  1  0  0  0  0  0  0  0  0  0
    0.1386   -0.6144    1.2058 H   0  0  0  0  0  0  0  0  0  0  0  0
    0.2271   -0.4272   -0.9334 C   0  0  0  0  0  0  0  0  0  0  0  0
    1.1795   -0.9243   -0.7376 H   0  0  0  0  0  0  0  0  0  0  0  0
   -0.3829   -1.0892   -1.5498 H   0  0  0  0  0  0  0  0  0  0  0  0
    0.5075    0.8656   -1.7191 C   0  0  0  0  0  0  0  0  0  0  0  0
    0.6638    1.6908   -1.0246 H   0  0  0  0  0  0  0  0  0  0  0  0
    1.4138    0.7312   -2.3096 H   0  0  0  0  0  0  0  0  0  0  0  0
   -0.6293    1.2533   -2.6647 C   0  0  0  0  0  0  0  0  0  0  0  0
   -1.6204    0.5685   -2.8356 O   0  0  0  0  0  0  0  0  0  0  0  0
   -0.5367    2.3887   -3.3224 N   0  0  0  0  0  0  0  0  0  0  0  0
   -1.3118    2.5940   -3.9286 H   0  0  0  0  0  0  0  0  0  0  0  0
    0.2549    2.9904   -3.2169 H   0  0  0  0  0  0  0  0  0  0  0  0
   -0.7011    1.2952    0.7149 C   0  0  0  0  0  0  0  0  0  0  0  0
   -1.5917    1.9198    0.1415 O   0  0  0  0  0  0  0  0  0  0  0  0
    0.1191    1.8675    1.6055 N   0  0  0  0  0  0  0  0  0  0  0  0
    0.8092    1.2861    2.0537 H   0  0  0  0  0  0  0  0  0  0  0  0
    0.0509    3.2769    1.9894 C   0  0  0  0  0  0  0  0  0  0  0  0
   -0.9494    3.5076    2.3640 H   0  0  0  0  0  0  0  0  0  0  0  0
    0.7844    3.4956    2.7668 H   0  0  0  0  0  0  0  0  0  0  0  0
    0.2468    3.9058    1.1193 H   0  0  0  0  0  0  0  0  0  0  0  0
  5  6  2  0  0  0  0
  5  7  1  0  0  0  0
  2  3  1  0  0  0  0
  2  4  1  0  0  0  0
  2  5  1  0  0  0  0
  1  2  1  0  0  0  0
 22 23  2  0  0  0  0
 22 24  1  0  0  0  0
 19 20  1  0  0  0  0
 19 21  1  0  0  0  0
 17 18  2  0  0  0  0
 17 19  1  0  0  0  0
 14 15  1  0  0  0  0
 14 16  1  0  0  0  0
 14 17  1  0  0  0  0
 11 12  1  0  0  0  0
 11 13  1  0  0  0  0
 11 14  1  0  0  0  0
  9 10  1  0  0  0  0
  9 11  1  0  0  0  0
  9 22  1  0  0  0  0
  7  8  1  0  0  0  0
  7  9  1  0  0  0  0
 26 27  1  0  0  0  0
 26 28  1  0  0  0  0
 26 29  1  0  0  0  0
 24 25  1  0  0  0  0
 24 26  1  0  0  0  0
M  END
$$$$
default_name
  -OEChem-02102213163D

 29 28  0     1  0  0  0  0  0999 V2000
   -3.3998   -3.6239    1.3678 H   0  0  0  0  0  0  0  0  0  0  0  0
   -3.3608   -2.6749    0.8348 C   0  0  0  0  0  0  0  0  0  0  0  0
   -4.0988   -1.9909    1.2498 H   0  0  0  0  0  0  0  0  0  0  0  0
   -3.5618   -2.8419   -0.2222 H   0  0  0  0  0  0  0  0  0  0  0  0
   -1.9818   -2.0809    0.9918 C   0  0  0  0  0  0  0  0  0  0  0  0
   -1.1288   -2.6669    1.6468 O   0  0  0  0  0  0  0  0  0  0  0  0
   -1.7648   -0.9089    0.3998 N   0  0  0  0  0  0  0  0  0  0  0  0
   -2.5238   -0.4719   -0.1032 H   0  0  0  0  0  0  0  0  0  0  0  0
   -0.4848   -0.1959    0.4138 C   0  0  1  0  0  0  0  0  0  0  0  0
    0.1386   -0.6144    1.2058 H   0  0  0  0  0  0  0  0  0  0  0  0
    0.2271   -0.4272   -0.9334 C   0  0  0  0  0  0  0  0  0  0  0  0
    1.1795   -0.9243   -0.7376 H   0  0  0  0  0  0  0  0  0  0  0  0
   -0.3829   -1.0892   -1.5498 H   0  0  0  0  0  0  0  0  0  0  0  0
    0.5075    0.8656   -1.7191 C   0  0  0  0  0  0  0  0  0  0  0  0
    0.9208    1.6197   -1.0497 H   0  0  0  0  0  0  0  0  0  0  0  0
    1.2389    0.6540   -2.4991 H   0  0  0  0  0  0  0  0  0  0  0  0
   -0.7412    1.4522   -2.3774 C   0  0  0  0  0  0  0  0  0  0  0  0
   -1.8304    0.9106   -2.3476 O   0  0  0  0  0  0  0  0  0  0  0  0
   -0.6366    2.6051   -3.0020 N   0  0  0  0  0  0  0  0  0  0  0  0
   -1.4879    2.9442   -3.4153 H   0  0  0  0  0  0  0  0  0  0  0  0
    0.2341    3.0937   -3.0543 H   0  0  0  0  0  0  0  0  0  0  0  0
   -0.7011    1.2952    0.7149 C   0  0  0  0  0  0  0  0  0  0  0  0
   -1.5917    1.9198    0.1415 O   0  0  0  0  0  0  0  0  0  0  0  0
    0.1191    1.8675    1.6055 N   0  0  0  0  0  0  0  0  0  0  0  0
    0.8092    1.2861    2.0537 H   0  0  0  0  0  0  0  0  0  0  0  0
    0.0509    3.2769    1.9894 C   0  0  0  0  0  0  0  0  0  0  0  0
   -0.9494    3.5076    2.3640 H   0  0  0  0  0  0  0  0  0  0  0  0
    0.7844    3.4956    2.7668 H   0  0  0  0  0  0  0  0  0  0  0  0
    0.2468    3.9058    1.1193 H   0  0  0  0  0  0  0  0  0  0  0  0
  5  6  2  0  0  0  0
  5  7  1  0  0  0  0
  2  3  1  0  0  0  0
  2  4  1  0  0  0  0
  2  5  1  0  0  0  0
  1  2  1  0  0  0  0
 22 23  2  0  0  0  0
 22 24  1  0  0  0  0
 19 20  1  0  0  0  0
 19 21  1  0  0  0  0
 17 18  2  0  0  0  0
 17 19  1  0  0  0  0
 14 15  1  0  0  0  0
 14 16  1  0  0  0  0
 14 17  1  0  0  0  0
 11 12  1  0  0  0  0
 11 13  1  0  0  0  0
 11 14  1  0  0  0  0
  9 10  1  0  0  0  0
  9 11  1  0  0  0  0
  9 22  1  0  0  0  0
  7  8  1  0  0  0  0
  7  9  1  0  0  0  0
 26 27  1  0  0  0  0
 26 28  1  0  0  0  0
 26 29  1  0  0  0  0
 24 25  1  0  0  0  0
 24 26  1  0  0  0  0
M  END
$$$$
default_name
  -OEChem-02102213163D

 29 28  0     1  0  0  0  0  0999 V2000
   -3.3998   -3.6239    1.3678 H   0  0  0  0  0  0  0  0  0  0  0  0
   -3.3608   -2.6749    0.8348 C   0  0  0  0  0  0  0  0  0  0  0  0
   -4.0988   -1.9909    1.2498 H   0  0  0  0  0  0  0  0  0  0  0  0
   -3.5618   -2.8419   -0.2222 H   0  0  0  0  0  0  0  0  0  0  0  0
   -1.9818   -2.0809    0.9918 C   0  0  0  0  0  0  0  0  0  0  0  0
   -1.1288   -2.6669    1.6468 O   0  0  0  0  0  0  0  0  0  0  0  0
   -1.7648   -0.9089    0.3998 N   0  0  0  0  0  0  0  0  0  0  0  0
   -2.5238   -0.4719   -0.1032 H   0  0  0  0  0  0  0  0  0  0  0  0
   -0.4848   -0.1959    0.4138 C   0  0  1  0  0  0  0  0  0  0  0  0
    0.1386   -0.6144    1.2058 H   0  0  0  0  0  0  0  0  0  0  0  0
    0.2271   -0.4272   -0.9334 C   0  0  0  0  0  0  0  0  0  0  0  0
    1.1795   -0.9243   -0.7376 H   0  0  0  0  0  0  0  0  0  0  0  0
   -0.3829   -1.0892   -1.5498 H   0  0  0  0  0  0  0  0  0  0  0  0
    0.5075    0.8656   -1.7191 C   0  0  0  0  0  0  0  0  0  0  0  0
    1.1543    1.5183   -1.1332 H   0  0  0  0  0  0  0  0  0  0  0  0
    1.0186    0.6114   -2.6477 H   0  0  0  0  0  0  0  0  0  0  0  0
   -0.7605    1.6455   -2.0662 C   0  0  0  0  0  0  0  0  0  0  0  0
   -1.8819    1.2458   -1.8145 O   0  0  0  0  0  0  0  0  0  0  0  0
   -0.6348    2.8122   -2.6606 N   0  0  0  0  0  0  0  0  0  0  0  0
   -1.5001    3.2815   -2.8646 H   0  0  0  0  0  0  0  0  0  0  0  0
    0.2632    3.1886   -2.8878 H   0  0  0  0  0  0  0  0  0  0  0  0
   -0.7011    1.2952    0.7149 C   0  0  0  0  0  0  0  0  0  0  0  0
   -1.5917    1.9198    0.1415 O   0  0  0  0  0  0  0  0  0  0  0  0
    0.1191    1.8675    1.6055 N   0  0  0  0  0  0  0  0  0  0  0  0
    0.8092    1.2861    2.0537 H   0  0  0  0  0  0  0  0  0  0  0  0
    0.0509    3.2769    1.9894 C   0  0  0  0  0  0  0  0  0  0  0  0
   -0.9494    3.5076    2.3640 H   0  0  0  0  0  0  0  0  0  0  0  0
    0.7844    3.4956    2.7668 H   0  0  0  0  0  0  0  0  0  0  0  0
    0.2468    3.9058    1.1193 H   0  0  0  0  0  0  0  0  0  0  0  0
  5  6  2  0  0  0  0
  5  7  1  0  0  0  0
  2  3  1  0  0  0  0
  2  4  1  0  0  0  0
  2  5  1  0  0  0  0
  1  2  1  0  0  0  0
 22 23  2  0  0  0  0
 22 24  1  0  0  0  0
 19 20  1  0  0  0  0
 19 21  1  0  0  0  0
 17 18  2  0  0  0  0
 17 19  1  0  0  0  0
 14 15  1  0  0  0  0
 14 16  1  0  0  0  0
 14 17  1  0  0  0  0
 11 12  1  0  0  0  0
 11 13  1  0  0  0  0
 11 14  1  0  0  0  0
  9 10  1  0  0  0  0
  9 11  1  0  0  0  0
  9 22  1  0  0  0  0
  7  8  1  0  0  0  0
  7  9  1  0  0  0  0
 26 27  1  0  0  0  0
 26 28  1  0  0  0  0
 26 29  1  0  0  0  0
 24 25  1  0  0  0  0
 24 26  1  0  0  0  0
M  END
$$$$
default_name
  -OEChem-02102213163D

 29 28  0     1  0  0  0  0  0999 V2000
   -3.3998   -3.6239    1.3678 H   0  0  0  0  0  0  0  0  0  0  0  0
   -3.3608   -2.6749    0.8348 C   0  0  0  0  0  0  0  0  0  0  0  0
   -4.0988   -1.9909    1.2498 H   0  0  0  0  0  0  0  0  0  0  0  0
   -3.5618   -2.8419   -0.2222 H   0  0  0  0  0  0  0  0  0  0  0  0
   -1.9818   -2.0809    0.9918 C   0  0  0  0  0  0  0  0  0  0  0  0
   -1.1288   -2.6669    1.6468 O   0  0  0  0  0  0  0  0  0  0  0  0
   -1.7648   -0.9089    0.3998 N   0  0  0  0  0  0  0  0  0  0  0  0
   -2.5238   -0.4719   -0.1032 H   0  0  0  0  0  0  0  0  0  0  0  0
   -0.4848   -0.1959    0.4138 C   0  0  1  0  0  0  0  0  0  0  0  0
    0.1386   -0.6144    1.2058 H   0  0  0  0  0  0  0  0  0  0  0  0
    0.2271   -0.4272   -0.9334 C   0  0  0  0  0  0  0  0  0  0  0  0
    1.1795   -0.9243   -0.7376 H   0  0  0  0  0  0  0  0  0  0  0  0
   -0.3829   -1.0892   -1.5498 H   0  0  0  0  0  0  0  0  0  0  0  0
    0.5075    0.8656   -1.7191 C   0  0  0  0  0  0  0  0  0  0  0  0
    1.3482    1.3935   -1.2694 H   0  0  0  0  0  0  0  0  0  0  0  0
    0.7679    0.6065   -2.7453 H   0  0  0  0  0  0  0  0  0  0  0  0
   -0.6860    1.8201   -1.7523 C   0  0  0  0  0  0  0  0  0  0  0  0
   -1.7713    1.5512   -1.2725 O   0  0  0  0  0  0  0  0  0  0  0  0
   -0.5315    2.9959   -2.3215 N   0  0  0  0  0  0  0  0  0  0  0  0
   -1.3475    3.5829   -2.3142 H   0  0  0  0  0  0  0  0  0  0  0  0
    0.3399    3.2686   -2.7288 H   0  0  0  0  0  0  0  0  0  0  0  0
   -0.7011    1.2952    0.7149 C   0  0  0  0  0  0  0  0  0  0  0  0
   -1.5917    1.9198    0.1415 O   0  0  0  0  0  0  0  0  0  0  0  0
    0.1191    1.8675    1.6055 N   0  0  0  0  0  0  0  0  0  0  0  0
    0.8092    1.2861    2.0537 H   0  0  0  0  0  0  0  0  0  0  0  0
    0.0509    3.2769    1.9894 C   0  0  0  0  0  0  0  0  0  0  0  0
   -0.9494    3.5076    2.3640 H   0  0  0  0  0  0  0  0  0  0  0  0
    0.7844    3.4956    2.7668 H   0  0  0  0  0  0  0  0  0  0  0  0
    0.2468    3.9058    1.1193 H   0  0  0  0  0  0  0  0  0  0  0  0
  5  6  2  0  0  0  0
  5  7  1  0  0  0  0
  2  3  1  0  0  0  0
  2  4  1  0  0  0  0
  2  5  1  0  0  0  0
  1  2  1  0  0  0  0
 22 23  2  0  0  0  0
 22 24  1  0  0  0  0
 19 20  1  0  0  0  0
 19 21  1  0  0  0  0
 17 18  2  0  0  0  0
 17 19  1  0  0  0  0
 14 15  1  0  0  0  0
 14 16  1  0  0  0  0
 14 17  1  0  0  0  0
 11 12  1  0  0  0  0
 11 13  1  0  0  0  0
 11 14  1  0  0  0  0
  9 10  1  0  0  0  0
  9 11  1  0  0  0  0
  9 22  1  0  0  0  0
  7  8  1  0  0  0  0
  7  9  1  0  0  0  0
 26 27  1  0  0  0  0
 26 28  1  0  0  0  0
 26 29  1  0  0  0  0
 24 25  1  0  0  0  0
 24 26  1  0  0  0  0
M  END
$$$$
default_name
  -OEChem-02102213163D

 29 28  0     1  0  0  0  0  0999 V2000
   -3.3998   -3.6239    1.3678 H   0  0  0  0  0  0  0  0  0  0  0  0
   -3.3608   -2.6749    0.8348 C   0  0  0  0  0  0  0  0  0  0  0  0
   -4.0988   -1.9909    1.2498 H   0  0  0  0  0  0  0  0  0  0  0  0
   -3.5618   -2.8419   -0.2222 H   0  0  0  0  0  0  0  0  0  0  0  0
   -1.9818   -2.0809    0.9918 C   0  0  0  0  0  0  0  0  0  0  0  0
   -1.1288   -2.6669    1.6468 O   0  0  0  0  0  0  0  0  0  0  0  0
   -1.7648   -0.9089    0.3998 N   0  0  0  0  0  0  0  0  0  0  0  0
   -2.5238   -0.4719   -0.1032 H   0  0  0  0  0  0  0  0  0  0  0  0
   -0.4848   -0.1959    0.4138 C   0  0  1  0  0  0  0  0  0  0  0  0
    0.1386   -0.6144    1.2058 H   0  0  0  0  0  0  0  0  0  0  0  0
    0.2271   -0.4272   -0.9334 C   0  0  0  0  0  0  0  0  0  0  0  0
    1.1795   -0.9243   -0.7376 H   0  0  0  0  0  0  0  0  0  0  0  0
   -0.3829   -1.0892   -1.5498 H   0  0  0  0  0  0  0  0  0  0  0  0
    0.5075    0.8656   -1.7191 C   0  0  0  0  0  0  0  0  0  0  0  0
    1.4894    1.2537   -1.4491 H   0  0  0  0  0  0  0  0  0  0  0  0
    0.5038    0.6394   -2.7854 H   0  0  0  0  0  0  0  0  0  0  0  0
   -0.5226    1.9641   -1.4571 C   0  0  0  0  0  0  0  0  0  0  0  0
   -1.5064    1.8061   -0.7586 O   0  0  0  0  0  0  0  0  0  0  0  0
   -0.3337    3.1437   -2.0077 N   0  0  0  0  0  0  0  0  0  0  0  0
   -1.0406    3.8280   -1.8014 H   0  0  0  0  0  0  0  0  0  0  0  0
    0.4592    3.3282   -2.5882 H   0  0  0  0  0  0  0  0  0  0  0  0
   -0.7011    1.2952    0.7149 C   0  0  0  0  0  0  0  0  0  0  0  0
   -1.5917    1.9198    0.1415 O   0  0  0  0  0  0  0  0  0  0  0  0
    0.1191    1.8675    1.6055 N   0  0  0  0  0  0  0  0  0  0  0  0
    0.8092    1.2861    2.0537 H   0  0  0  0  0  0  0  0  0  0  0  0
    0.0509    3.2769    1.9894 C   0  0  0  0  0  0  0  0  0  0  0  0
   -0.9494    3.5076    2.3640 H   0  0  0  0  0  0  0  0  0  0  0  0
    0.7844    3.4956    2.7668 H   0  0  0  0  0  0  0  0  0  0  0  0
    0.2468    3.9058    1.1193 H   0  0  0  0  0  0  0  0  0  0  0  0
  5  6  2  0  0  0  0
  5  7  1  0  0  0  0
  2  3  1  0  0  0  0
  2  4  1  0  0  0  0
  2  5  1  0  0  0  0
  1  2  1  0  0  0  0
 22 23  2  0  0  0  0
 22 24  1  0  0  0  0
 19 20  1  0  0  0  0
 19 21  1  0  0  0  0
 17 18  2  0  0  0  0
 17 19  1  0  0  0  0
 14 15  1  0  0  0  0
 14 16  1  0  0  0  0
 14 17  1  0  0  0  0
 11 12  1  0  0  0  0
 11 13  1  0  0  0  0
 11 14  1  0  0  0  0
  9 10  1  0  0  0  0
  9 11  1  0  0  0  0
  9 22  1  0  0  0  0
  7  8  1  0  0  0  0
  7  9  1  0  0  0  0
 26 27  1  0  0  0  0
 26 28  1  0  0  0  0
 26 29  1  0  0  0  0
 24 25  1  0  0  0  0
 24 26  1  0  0  0  0
M  END
$$$$
default_name
  -OEChem-02102213163D

 29 28  0     1  0  0  0  0  0999 V2000
   -3.3998   -3.6239    1.3678 H   0  0  0  0  0  0  0  0  0  0  0  0
   -3.3608   -2.6749    0.8348 C   0  0  0  0  0  0  0  0  0  0  0  0
   -4.0988   -1.9909    1.2498 H   0  0  0  0  0  0  0  0  0  0  0  0
   -3.5618   -2.8419   -0.2222 H   0  0  0  0  0  0  0  0  0  0  0  0
   -1.9818   -2.0809    0.9918 C   0  0  0  0  0  0  0  0  0  0  0  0
   -1.1288   -2.6669    1.6468 O   0  0  0  0  0  0  0  0  0  0  0  0
   -1.7648   -0.9089    0.3998 N   0  0  0  0  0  0  0  0  0  0  0  0
   -2.5238   -0.4719   -0.1032 H   0  0  0  0  0  0  0  0  0  0  0  0
   -0.4848   -0.1959    0.4138 C   0  0  1  0  0  0  0  0  0  0  0  0
    0.1386   -0.6144    1.2058 H   0  0  0  0  0  0  0  0  0  0  0  0
    0.2271   -0.4272   -0.9334 C   0  0  0  0  0  0  0  0  0  0  0  0
    1.1795   -0.9243   -0.7376 H   0  0  0  0  0  0  0  0  0  0  0  0
   -0.3829   -1.0892   -1.5498 H   0  0  0  0  0  0  0  0  0  0  0  0
    0.5075    0.8656   -1.7191 C   0  0  0  0  0  0  0  0  0  0  0  0
    1.5683    1.1085   -1.6599 H   0  0  0  0  0  0  0  0  0  0  0  0
    0.2443    0.7081   -2.7650 H   0  0  0  0  0  0  0  0  0  0  0  0
   -0.2816    2.0677   -1.2006 C   0  0  0  0  0  0  0  0  0  0  0  0
   -1.1050    1.9930   -0.3078 O   0  0  0  0  0  0  0  0  0  0  0  0
   -0.0549    3.2455   -1.7407 N   0  0  0  0  0  0  0  0  0  0  0  0
   -0.6002    3.9999   -1.3613 H   0  0  0  0  0  0  0  0  0  0  0  0
    0.6129    3.3633   -2.4755 H   0  0  0  0  0  0  0  0  0  0  0  0
   -0.7011    1.2952    0.7149 C   0  0  0  0  0  0  0  0  0  0  0  0
   -1.5917    1.9198    0.1415 O   0  0  0  0  0  0  0  0  0  0  0  0
    0.1191    1.8675    1.6055 N   0  0  0  0  0  0  0  0  0  0  0  0
    0.8092    1.2861    2.0537 H   0  0  0  0  0  0  0  0  0  0  0  0
    0.0509    3.2769    1.9894 C   0  0  0  0  0  0  0  0  0  0  0  0
   -0.9494    3.5076    2.3640 H   0  0  0  0  0  0  0  0  0  0  0  0
    0.7844    3.4956    2.7668 H   0  0  0  0  0  0  0  0  0  0  0  0
    0.2468    3.9058    1.1193 H   0  0  0  0  0  0  0  0  0  0  0  0
  5  6  2  0  0  0  0
  5  7  1  0  0  0  0
  2  3  1  0  0  0  0
  2  4  1  0  0  0  0
  2  5  1  0  0  0  0
  1  2  1  0  0  0  0
 22 23  2  0  0  0  0
 22 24  1  0  0  0  0
 19 20  1  0  0  0  0
 19 21  1  0  0  0  0
 17 18  2  0  0  0  0
 17 19  1  0  0  0  0
 14 15  1  0  0  0  0
 14 16  1  0  0  0  0
 14 17  1  0  0  0  0
 11 12  1  0  0  0  0
 11 13  1  0  0  0  0
 11 14  1  0  0  0  0
  9 10  1  0  0  0  0
  9 11  1  0  0  0  0
  9 22  1  0  0  0  0
  7  8  1  0  0  0  0
  7  9  1  0  0  0  0
 26 27  1  0  0  0  0
 26 28  1  0  0  0  0
 26 29  1  0  0  0  0
 24 25  1  0  0  0  0
 24 26  1  0  0  0  0
M  END
$$$$
default_name
  -OEChem-02102213163D

 29 28  0     1  0  0  0  0  0999 V2000
   -3.3998   -3.6239    1.3678 H   0  0  0  0  0  0  0  0  0  0  0  0
   -3.3608   -2.6749    0.8348 C   0  0  0  0  0  0  0  0  0  0  0  0
   -4.0988   -1.9909    1.2498 H   0  0  0  0  0  0  0  0  0  0  0  0
   -3.5618   -2.8419   -0.2222 H   0  0  0  0  0  0  0  0  0  0  0  0
   -1.9818   -2.0809    0.9918 C   0  0  0  0  0  0  0  0  0  0  0  0
   -1.1288   -2.6669    1.6468 O   0  0  0  0  0  0  0  0  0  0  0  0
   -1.7648   -0.9089    0.3998 N   0  0  0  0  0  0  0  0  0  0  0  0
   -2.5238   -0.4719   -0.1032 H   0  0  0  0  0  0  0  0  0  0  0  0
   -0.4848   -0.1959    0.4138 C   0  0  1  0  0  0  0  0  0  0  0  0
    0.1386   -0.6144    1.2058 H   0  0  0  0  0  0  0  0  0  0  0  0
    0.2271   -0.4272   -0.9334 C   0  0  0  0  0  0  0  0  0  0  0  0
    1.1795   -0.9243   -0.7376 H   0  0  0  0  0  0  0  0  0  0  0  0
   -0.3829   -1.0892   -1.5498 H   0  0  0  0  0  0  0  0  0  0  0  0
    0.5075    0.8656   -1.7191 C   0  0  0  0  0  0  0  0  0  0  0  0
    1.5794    0.9677   -1.8875 H   0  0  0  0  0  0  0  0  0  0  0  0
    0.0072    0.8077   -2.6858 H   0  0  0  0  0  0  0  0  0  0  0  0
    0.0207    2.1238   -1.0004 C   0  0  0  0  0  0  0  0  0  0  0  0
   -0.5945    2.0992    0.0491 O   0  0  0  0  0  0  0  0  0  0  0  0
    0.2860    3.2944   -1.5386 N   0  0  0  0  0  0  0  0  0  0  0  0
   -0.0564    4.0871   -1.0239 H   0  0  0  0  0  0  0  0  0  0  0  0
    0.7905    3.3717   -2.3984 H   0  0  0  0  0  0  0  0  0  0  0  0
   -0.7011    1.2952    0.7149 C   0  0  0  0  0  0  0  0  0  0  0  0
   -1.5917    1.9198    0.1415 O   0  0  0  0  0  0  0  0  0  0  0  0
    0.1191    1.8675    1.6055 N   0  0  0  0  0  0  0  0  0  0  0  0
    0.8092    1.2861    2.0537 H   0  0  0  0  0  0  0  0  0  0  0  0
    0.0509    3.2769    1.9894 C   0  0  0  0  0  0  0  0  0  0  0  0
   -0.9494    3.5076    2.3640 H   0  0  0  0  0  0  0  0  0  0  0  0
    0.7844    3.4956    2.7668 H   0  0  0  0  0  0  0  0  0  0  0  0
    0.2468    3.9058    1.1193 H   0  0  0  0  0  0  0  0  0  0  0  0
  5  6  2  0  0  0  0
  5  7  1  0  0  0  0
  2  3  1  0  0  0  0
  2  4  1  0  0  0  0
  2  5  1  0  0  0  0
  1  2  1  0  0  0  0
 22 23  2  0  0  0  0
 22 24  1  0  0  0  0
 19 20  1  0  0  0  0
 19 21  1  0  0  0  0
 17 18  2  0  0  0  0
 17 19  1  0  0  0  0
 14 15  1  0  0  0  0
 14 16  1  0  0  0  0
 14 17  1  0  0  0  0
 11 12  1  0  0  0  0
 11 13  1  0  0  0  0
 11 14  1  0  0  0  0
  9 10  1  0  0  0  0
  9 11  1  0  0  0  0
  9 22  1  0  0  0  0
  7  8  1  0  0  0  0
  7  9  1  0  0  0  0
 26 27  1  0  0  0  0
 26 28  1  0  0  0  0
 26 29  1  0  0  0  0
 24 25  1  0  0  0  0
 24 26  1  0  0  0  0
M  END
$$$$
default_name
  -OEChem-02102213163D

 29 28  0     1  0  0  0  0  0999 V2000
   -3.3998   -3.6239    1.3678 H   0  0  0  0  0  0  0  0  0  0  0  0
   -3.3608   -2.6749    0.8348 C   0  0  0  0  0  0  0  0  0  0  0  0
   -4.0988   -1.9909    1.2498 H   0  0  0  0  0  0  0  0  0  0  0  0
   -3.5618   -2.8419   -0.2222 H   0  0  0  0  0  0  0  0  0  0  0  0
   -1.9818   -2.0809    0.9918 C   0  0  0  0  0  0  0  0  0  0  0  0
   -1.1288   -2.6669    1.6468 O   0  0  0  0  0  0  0  0  0  0  0  0
   -1.7648   -0.9089    0.3998 N   0  0  0  0  0  0  0  0  0  0  0  0
   -2.5238   -0.4719   -0.1032 H   0  0  0  0  0  0  0  0  0  0  0  0
   -0.4848   -0.1959    0.4138 C   0  0  1  0  0  0  0  0  0  0  0  0
    0.1386   -0.6144    1.2058 H   0  0  0  0  0  0  0  0  0  0  0  0
    0.2271   -0.4272   -0.9334 C   0  0  0  0  0  0  0  0  0  0  0  0
    1.1795   -0.9243   -0.7376 H   0  0  0  0  0  0  0  0  0  0  0  0
   -0.3829   -1.0892   -1.5498 H   0  0  0  0  0  0  0  0  0  0  0  0
    0.5075    0.8656   -1.7191 C   0  0  0  0  0  0  0  0  0  0  0  0
    1.5220    0.8410   -2.1164 H   0  0  0  0  0  0  0  0  0  0  0  0
   -0.1914    0.9315   -2.5529 H   0  0  0  0  0  0  0  0  0  0  0  0
    0.3636    2.1286   -0.8702 C   0  0  0  0  0  0  0  0  0  0  0  0
   -0.0098    2.1175    0.2879 O   0  0  0  0  0  0  0  0  0  0  0  0
    0.6657    3.2870   -1.4152 N   0  0  0  0  0  0  0  0  0  0  0  0
    0.5537    4.0834   -0.8121 H   0  0  0  0  0  0  0  0  0  0  0  0
    0.9799    3.3526   -2.3621 H   0  0  0  0  0  0  0  0  0  0  0  0
   -0.7011    1.2952    0.7149 C   0  0  0  0  0  0  0  0  0  0  0  0
   -1.5917    1.9198    0.1415 O   0  0  0  0  0  0  0  0  0  0  0  0
    0.1191    1.8675    1.6055 N   0  0  0  0  0  0  0  0  0  0  0  0
    0.8092    1.2861    2.0537 H   0  0  0  0  0  0  0  0  0  0  0  0
    0.0509    3.2769    1.9894 C   0  0  0  0  0  0  0  0  0  0  0  0
   -0.9494    3.5076    2.3640 H   0  0  0  0  0  0  0  0  0  0  0  0
    0.7844    3.4956    2.7668 H   0  0  0  0  0  0  0  0  0  0  0  0
    0.2468    3.9058    1.1193 H   0  0  0  0  0  0  0  0  0  0  0  0
  5  6  2  0  0  0  0
  5  7  1  0  0  0  0
  2  3  1  0  0  0  0
  2  4  1  0  0  0  0
  2  5  1  0  0  0  0
  1  2  1  0  0  0  0
 22 23  2  0  0  0  0
 22 24  1  0  0  0  0
 19 20  1  0  0  0  0
 19 21  1  0  0  0  0
 17 18  2  0  0  0  0
 17 19  1  0  0  0  0
 14 15  1  0  0  0  0
 14 16  1  0  0  0  0
 14 17  1  0  0  0  0
 11 12  1  0  0  0  0
 11 13  1  0  0  0  0
 11 14  1  0  0  0  0
  9 10  1  0  0  0  0
  9 11  1  0  0  0  0
  9 22  1  0  0  0  0
  7  8  1  0  0  0  0
  7  9  1  0  0  0  0
 26 27  1  0  0  0  0
 26 28  1  0  0  0  0
 26 29  1  0  0  0  0
 24 25  1  0  0  0  0
 24 26  1  0  0  0  0
M  END
$$$$
default_name
  -OEChem-02102213163D

 29 28  0     1  0  0  0  0  0999 V2000
   -3.3998   -3.6239    1.3678 H   0  0  0  0  0  0  0  0  0  0  0  0
   -3.3608   -2.6749    0.8348 C   0  0  0  0  0  0  0  0  0  0  0  0
   -4.0988   -1.9909    1.2498 H   0  0  0  0  0  0  0  0  0  0  0  0
   -3.5618   -2.8419   -0.2222 H   0  0  0  0  0  0  0  0  0  0  0  0
   -1.9818   -2.0809    0.9918 C   0  0  0  0  0  0  0  0  0  0  0  0
   -1.1288   -2.6669    1.6468 O   0  0  0  0  0  0  0  0  0  0  0  0
   -1.7648   -0.9089    0.3998 N   0  0  0  0  0  0  0  0  0  0  0  0
   -2.5238   -0.4719   -0.1032 H   0  0  0  0  0  0  0  0  0  0  0  0
   -0.4848   -0.1959    0.4138 C   0  0  1  0  0  0  0  0  0  0  0  0
    0.1386   -0.6144    1.2058 H   0  0  0  0  0  0  0  0  0  0  0  0
    0.2271   -0.4272   -0.9334 C   0  0  0  0  0  0  0  0  0  0  0  0
    1.1795   -0.9243   -0.7376 H   0  0  0  0  0  0  0  0  0  0  0  0
   -0.3829   -1.0892   -1.5498 H   0  0  0  0  0  0  0  0  0  0  0  0
    0.5075    0.8656   -1.7191 C   0  0  0  0  0  0  0  0  0  0  0  0
    1.4001    0.7370   -2.3311 H   0  0  0  0  0  0  0  0  0  0  0  0
   -0.3380    1.0711   -2.3755 H   0  0  0  0  0  0  0  0  0  0  0  0
    0.7238    2.0818   -0.8187 C   0  0  0  0  0  0  0  0  0  0  0  0
    0.6093    2.0466    0.3922 O   0  0  0  0  0  0  0  0  0  0  0  0
    1.0583    3.2239   -1.3789 N   0  0  0  0  0  0  0  0  0  0  0  0
    1.1886    3.9893   -0.7404 H   0  0  0  0  0  0  0  0  0  0  0  0
    1.1683    3.3074   -2.3692 H   0  0  0  0  0  0  0  0  0  0  0  0
   -0.7011    1.2952    0.7149 C   0  0  0  0  0  0  0  0  0  0  0  0
   -1.5917    1.9198    0.1415 O   0  0  0  0  0  0  0  0  0  0  0  0
    0.1191    1.8675    1.6055 N   0  0  0  0  0  0  0  0  0  0  0  0
    0.8092    1.2861    2.0537 H   0  0  0  0  0  0  0  0  0  0  0  0
    0.0509    3.2769    1.9894 C   0  0  0  0  0  0  0  0  0  0  0  0
   -0.9494    3.5076    2.3640 H   0  0  0  0  0  0  0  0  0  0  0  0
    0.7844    3.4956    2.7668 H   0  0  0  0  0  0  0  0  0  0  0  0
    0.2468    3.9058    1.1193 H   0  0  0  0  0  0  0  0  0  0  0  0
  5  6  2  0  0  0  0
  5  7  1  0  0  0  0
  2  3  1  0  0  0  0
  2  4  1  0  0  0  0
  2  5  1  0  0  0  0
  1  2  1  0  0  0  0
 22 23  2  0  0  0  0
 22 24  1  0  0  0  0
 19 20  1  0  0  0  0
 19 21  1  0  0  0  0
 17 18  2  0  0  0  0
 17 19  1  0  0  0  0
 14 15  1  0  0  0  0
 14 16  1  0  0  0  0
 14 17  1  0  0  0  0
 11 12  1  0  0  0  0
 11 13  1  0  0  0  0
 11 14  1  0  0  0  0
  9 10  1  0  0  0  0
  9 11  1  0  0  0  0
  9 22  1  0  0  0  0
  7  8  1  0  0  0  0
  7  9  1  0  0  0  0
 26 27  1  0  0  0  0
 26 28  1  0  0  0  0
 26 29  1  0  0  0  0
 24 25  1  0  0  0  0
 24 26  1  0  0  0  0
M  END
$$$$
default_name
  -OEChem-02102213163D

 29 28  0     1  0  0  0  0  0999 V2000
   -3.3998   -3.6239    1.3678 H   0  0  0  0  0  0  0  0  0  0  0  0
   -3.3608   -2.6749    0.8348 C   0  0  0  0  0  0  0  0  0  0  0  0
   -4.0988   -1.9909    1.2498 H   0  0  0  0  0  0  0  0  0  0  0  0
   -3.5618   -2.8419   -0.2222 H   0  0  0  0  0  0  0  0  0  0  0  0
   -1.9818   -2.0809    0.9918 C   0  0  0  0  0  0  0  0  0  0  0  0
   -1.1288   -2.6669    1.6468 O   0  0  0  0  0  0  0  0  0  0  0  0
   -1.7648   -0.9089    0.3998 N   0  0  0  0  0  0  0  0  0  0  0  0
   -2.5238   -0.4719   -0.1032 H   0  0  0  0  0  0  0  0  0  0  0  0
   -0.4848   -0.1959    0.4138 C   0  0  1  0  0  0  0  0  0  0  0  0
    0.1386   -0.6144    1.2058 H   0  0  0  0  0  0  0  0  0  0  0  0
    0.2271   -0.4272   -0.9334 C   0  0  0  0  0  0  0  0  0  0  0  0
    1.1795   -0.9243   -0.7376 H   0  0  0  0  0  0  0  0  0  0  0  0
   -0.3829   -1.0892   -1.5498 H   0  0  0  0  0  0  0  0  0  0  0  0
    0.5075    0.8656   -1.7191 C   0  0  0  0  0  0  0  0  0  0  0  0
    1.2219    0.6628   -2.5168 H   0  0  0  0  0  0  0  0  0  0  0  0
   -0.4226    1.2170   -2.1658 H   0  0  0  0  0  0  0  0  0  0  0  0
    1.0767    1.9865   -0.8495 C   0  0  0  0  0  0  0  0  0  0  0  0
    1.2207    1.8914    0.3550 O   0  0  0  0  0  0  0  0  0  0  0  0
    1.4371    3.1093   -1.4322 N   0  0  0  0  0  0  0  0  0  0  0  0
    1.8051    3.8110   -0.8137 H   0  0  0  0  0  0  0  0  0  0  0  0
    1.3427    3.2393   -2.4191 H   0  0  0  0  0  0  0  0  0  0  0  0
   -0.7011    1.2952    0.7149 C   0  0  0  0  0  0  0  0  0  0  0  0
   -1.5917    1.9198    0.1415 O   0  0  0  0  0  0  0  0  0  0  0  0
    0.1191    1.8675    1.6055 N   0  0  0  0  0  0  0  0  0  0  0  0
    0.8092    1.2861    2.0537 H   0  0  0  0  0  0  0  0  0  0  0  0
    0.0509    3.2769    1.9894 C   0  0  0  0  0  0  0  0  0  0  0  0
   -0.9494    3.5076    2.3640 H   0  0  0  0  0  0  0  0  0  0  0  0
    0.7844    3.4956    2.7668 H   0  0  0  0  0  0  0  0  0  0  0  0
    0.2468    3.9058    1.1193 H   0  0  0  0  0  0  0  0  0  0  0  0
  5  6  2  0  0  0  0
  5  7  1  0  0  0  0
  2  3  1  0  0  0  0
  2  4  1  0  0  0  0
  2  5  1  0  0  0  0
  1  2  1  0  0  0  0
 22 23  2  0  0  0  0
 22 24  1  0  0  0  0
 19 20  1  0  0  0  0
 19 21  1  0  0  0  0
 17 18  2  0  0  0  0
 17 19  1  0  0  0  0
 14 15  1  0  0  0  0
 14 16  1  0  0  0  0
 14 17  1  0  0  0  0
 11 12  1  0  0  0  0
 11 13  1  0  0  0  0
 11 14  1  0  0  0  0
  9 10  1  0  0  0  0
  9 11  1  0  0  0  0
  9 22  1  0  0  0  0
  7  8  1  0  0  0  0
  7  9  1  0  0  0  0
 26 27  1  0  0  0  0
 26 28  1  0  0  0  0
 26 29  1  0  0  0  0
 24 25  1  0  0  0  0
 24 26  1  0  0  0  0
M  END
$$$$
default_name
  -OEChem-02102213163D

 29 28  0     1  0  0  0  0  0999 V2000
   -3.3998   -3.6239    1.3678 H   0  0  0  0  0  0  0  0  0  0  0  0
   -3.3608   -2.6749    0.8348 C   0  0  0  0  0  0  0  0  0  0  0  0
   -4.0988   -1.9909    1.2498 H   0  0  0  0  0  0  0  0  0  0  0  0
   -3.5618   -2.8419   -0.2222 H   0  0  0  0  0  0  0  0  0  0  0  0
   -1.9818   -2.0809    0.9918 C   0  0  0  0  0  0  0  0  0  0  0  0
   -1.1288   -2.6669    1.6468 O   0  0  0  0  0  0  0  0  0  0  0  0
   -1.7648   -0.9089    0.3998 N   0  0  0  0  0  0  0  0  0  0  0  0
   -2.5238   -0.4719   -0.1032 H   0  0  0  0  0  0  0  0  0  0  0  0
   -0.4848   -0.1959    0.4138 C   0  0  1  0  0  0  0  0  0  0  0  0
    0.1386   -0.6144    1.2058 H   0  0  0  0  0  0  0  0  0  0  0  0
    0.2271   -0.4272   -0.9334 C   0  0  0  0  0  0  0  0  0  0  0  0
    1.1795   -0.9243   -0.7376 H   0  0  0  0  0  0  0  0  0  0  0  0
   -0.3829   -1.0892   -1.5498 H   0  0  0  0  0  0  0  0  0  0  0  0
    0.5075    0.8656   -1.7191 C   0  0  0  0  0  0  0  0  0  0  0  0
    0.9996    0.6234   -2.6609 H   0  0  0  0  0  0  0  0  0  0  0  0
   -0.4394    1.3591   -1.9378 H   0  0  0  0  0  0  0  0  0  0  0  0
    1.3983    1.8493   -0.9605 C   0  0  0  0  0  0  0  0  0  0  0  0
    1.7826    1.6624    0.1788 O   0  0  0  0  0  0  0  0  0  0  0  0
    1.7762    2.9511   -1.5715 N   0  0  0  0  0  0  0  0  0  0  0  0
    2.3611    3.5608   -1.0269 H   0  0  0  0  0  0  0  0  0  0  0  0
    1.4913    3.1527   -2.5085 H   0  0  0  0  0  0  0  0  0  0  0  0
   -0.7011    1.2952    0.7149 C   0  0  0  0  0  0  0  0  0  0  0  0
   -1.5917    1.9198    0.1415 O   0  0  0  0  0  0  0  0  0  0  0  0
    0.1191    1.8675    1.6055 N   0  0  0  0  0  0  0  0  0  0  0  0
    0.8092    1.2861    2.0537 H   0  0  0  0  0  0  0  0  0  0  0  0
    0.0509    3.2769    1.9894 C   0  0  0  0  0  0  0  0  0  0  0  0
   -0.9494    3.5076    2.3640 H   0  0  0  0  0  0  0  0  0  0  0  0
    0.7844    3.4956    2.7668 H   0  0  0  0  0  0  0  0  0  0  0  0
    0.2468    3.9058    1.1193 H   0  0  0  0  0  0  0  0  0  0  0  0
  5  6  2  0  0  0  0
  5  7  1  0  0  0  0
  2  3  1  0  0  0  0
  2  4  1  0  0  0  0
  2  5  1  0  0  0  0
  1  2  1  0  0  0  0
 22 23  2  0  0  0  0
 22 24  1  0  0  0  0
 19 20  1  0  0  0  0
 19 21  1  0  0  0  0
 17 18  2  0  0  0  0
 17 19  1  0  0  0  0
 14 15  1  0  0  0  0
 14 16  1  0  0  0  0
 14 17  1  0  0  0  0
 11 12  1  0  0  0  0
 11 13  1  0  0  0  0
 11 14  1  0  0  0  0
  9 10  1  0  0  0  0
  9 11  1  0  0  0  0
  9 22  1  0  0  0  0
  7  8  1  0  0  0  0
  7  9  1  0  0  0  0
 26 27  1  0  0  0  0
 26 28  1  0  0  0  0
 26 29  1  0  0  0  0
 24 25  1  0  0  0  0
 24 26  1  0  0  0  0
M  END
$$$$
default_name
  -OEChem-02102213163D

 29 28  0     1  0  0  0  0  0999 V2000
   -3.3998   -3.6239    1.3678 H   0  0  0  0  0  0  0  0  0  0  0  0
   -3.3608   -2.6749    0.8348 C   0  0  0  0  0  0  0  0  0  0  0  0
   -4.0988   -1.9909    1.2498 H   0  0  0  0  0  0  0  0  0  0  0  0
   -3.5618   -2.8419   -0.2222 H   0  0  0  0  0  0  0  0  0  0  0  0
   -1.9818   -2.0809    0.9918 C   0  0  0  0  0  0  0  0  0  0  0  0
   -1.1288   -2.6669    1.6468 O   0  0  0  0  0  0  0  0  0  0  0  0
   -1.7648   -0.9089    0.3998 N   0  0  0  0  0  0  0  0  0  0  0  0
   -2.5238   -0.4719   -0.1032 H   0  0  0  0  0  0  0  0  0  0  0  0
   -0.4848   -0.1959    0.4138 C   0  0  1  0  0  0  0  0  0  0  0  0
    0.1386   -0.6144    1.2058 H   0  0  0  0  0  0  0  0  0  0  0  0
    0.2271   -0.4272   -0.9334 C   0  0  0  0  0  0  0  0  0  0  0  0
    1.1795   -0.9243   -0.7376 H   0  0  0  0  0  0  0  0  0  0  0  0
   -0.3829   -1.0892   -1.5498 H   0  0  0  0  0  0  0  0  0  0  0  0
    0.5075    0.8656   -1.7191 C   0  0  0  0  0  0  0  0  0  0  0  0
    0.7482    0.6216   -2.7536 H   0  0  0  0  0  0  0  0  0  0  0  0
   -0.3872    1.4879   -1.7073 H   0  0  0  0  0  0  0  0  0  0  0  0
    1.6667    1.6795   -1.1441 C   0  0  0  0  0  0  0  0  0  0  0  0
    2.2568    1.3753   -0.1244 O   0  0  0  0  0  0  0  0  0  0  0  0
    2.0525    2.7600   -1.7873 N   0  0  0  0  0  0  0  0  0  0  0  0
    2.8187    3.2558   -1.3656 H   0  0  0  0  0  0  0  0  0  0  0  0
    1.6039    3.0537   -2.6312 H   0  0  0  0  0  0  0  0  0  0  0  0
   -0.7011    1.2952    0.7149 C   0  0  0  0  0  0  0  0  0  0  0  0
   -1.5917    1.9198    0.1415 O   0  0  0  0  0  0  0  0  0  0  0  0
    0.1191    1.8675    1.6055 N   0  0  0  0  0  0  0  0  0  0  0  0
    0.8092    1.2861    2.0537 H   0  0  0  0  0  0  0  0  0  0  0  0
    0.0509    3.2769    1.9894 C   0  0  0  0  0  0  0  0  0  0  0  0
   -0.9494    3.5076    2.3640 H   0  0  0  0  0  0  0  0  0  0  0  0
    0.7844    3.4956    2.7668 H   0  0  0  0  0  0  0  0  0  0  0  0
    0.2468    3.9058    1.1193 H   0  0  0  0  0  0  0  0  0  0  0  0
  5  6  2  0  0  0  0
  5  7  1  0  0  0  0
  2  3  1  0  0  0  0
  2  4  1  0  0  0  0
  2  5  1  0  0  0  0
  1  2  1  0  0  0  0
 22 23  2  0  0  0  0
 22 24  1  0  0  0  0
 19 20  1  0  0  0  0
 19 21  1  0  0  0  0
 17 18  2  0  0  0  0
 17 19  1  0  0  0  0
 14 15  1  0  0  0  0
 14 16  1  0  0  0  0
 14 17  1  0  0  0  0
 11 12  1  0  0  0  0
 11 13  1  0  0  0  0
 11 14  1  0  0  0  0
  9 10  1  0  0  0  0
  9 11  1  0  0  0  0
  9 22  1  0  0  0  0
  7  8  1  0  0  0  0
  7  9  1  0  0  0  0
 26 27  1  0  0  0  0
 26 28  1  0  0  0  0
 26 29  1  0  0  0  0
 24 25  1  0  0  0  0
 24 26  1  0  0  0  0
M  END
$$$$
default_name
  -OEChem-02102213163D

 29 28  0     1  0  0  0  0  0999 V2000
   -3.3998   -3.6239    1.3678 H   0  0  0  0  0  0  0  0  0  0  0  0
   -3.3608   -2.6749    0.8348 C   0  0  0  0  0  0  0  0  0  0  0  0
   -4.0988   -1.9909    1.2498 H   0  0  0  0  0  0  0  0  0  0  0  0
   -3.5618   -2.8419   -0.2222 H   0  0  0  0  0  0  0  0  0  0  0  0
   -1.9818   -2.0809    0.9918 C   0  0  0  0  0  0  0  0  0  0  0  0
   -1.1288   -2.6669    1.6468 O   0  0  0  0  0  0  0  0  0  0  0  0
   -1.7648   -0.9089    0.3998 N   0  0  0  0  0  0  0  0  0  0  0  0
   -2.5238   -0.4719   -0.1032 H   0  0  0  0  0  0  0  0  0  0  0  0
   -0.4848   -0.1959    0.4138 C   0  0  1  0  0  0  0  0  0  0  0  0
    0.1386   -0.6144    1.2058 H   0  0  0  0  0  0  0  0  0  0  0  0
    0.2271   -0.4272   -0.9334 C   0  0  0  0  0  0  0  0  0  0  0  0
    1.1795   -0.9243   -0.7376 H   0  0  0  0  0  0  0  0  0  0  0  0
   -0.3829   -1.0892   -1.5498 H   0  0  0  0  0  0  0  0  0  0  0  0
    0.5075    0.8656   -1.7191 C   0  0  0  0  0  0  0  0  0  0  0  0
    0.4851    0.6574   -2.7886 H   0  0  0  0  0  0  0  0  0  0  0  0
   -0.2697    1.5945   -1.4900 H   0  0  0  0  0  0  0  0  0  0  0  0
    1.8636    1.4886   -1.3879 C   0  0  0  0  0  0  0  0  0  0  0  0
    2.6109    1.0495   -0.5339 O   0  0  0  0  0  0  0  0  0  0  0  0
    2.2473    2.5491   -2.0648 N   0  0  0  0  0  0  0  0  0  0  0  0
    3.1467    2.9166   -1.8066 H   0  0  0  0  0  0  0  0  0  0  0  0
    1.6730    2.9489   -2.7789 H   0  0  0  0  0  0  0  0  0  0  0  0
   -0.7011    1.2952    0.7149 C   0  0  0  0  0  0  0  0  0  0  0  0
   -1.5917    1.9198    0.1415 O   0  0  0  0  0  0  0  0  0  0  0  0
    0.1191    1.8675    1.6055 N   0  0  0  0  0  0  0  0  0  0  0  0
    0.8092    1.2861    2.0537 H   0  0  0  0  0  0  0  0  0  0  0  0
    0.0509    3.2769    1.9894 C   0  0  0  0  0  0  0  0  0  0  0  0
   -0.9494    3.5076    2.3640 H   0  0  0  0  0  0  0  0  0  0  0  0
    0.7844    3.4956    2.7668 H   0  0  0  0  0  0  0  0  0  0  0  0
    0.2468    3.9058    1.1193 H   0  0  0  0  0  0  0  0  0  0  0  0
  5  6  2  0  0  0  0
  5  7  1  0  0  0  0
  2  3  1  0  0  0  0
  2  4  1  0  0  0  0
  2  5  1  0  0  0  0
  1  2  1  0  0  0  0
 22 23  2  0  0  0  0
 22 24  1  0  0  0  0
 19 20  1  0  0  0  0
 19 21  1  0  0  0  0
 17 18  2  0  0  0  0
 17 19  1  0  0  0  0
 14 15  1  0  0  0  0
 14 16  1  0  0  0  0
 14 17  1  0  0  0  0
 11 12  1  0  0  0  0
 11 13  1  0  0  0  0
 11 14  1  0  0  0  0
  9 10  1  0  0  0  0
  9 11  1  0  0  0  0
  9 22  1  0  0  0  0
  7  8  1  0  0  0  0
  7  9  1  0  0  0  0
 26 27  1  0  0  0  0
 26 28  1  0  0  0  0
 26 29  1  0  0  0  0
 24 25  1  0  0  0  0
 24 26  1  0  0  0  0
M  END
$$$$
default_name
  -OEChem-02102213163D

 29 28  0     1  0  0  0  0  0999 V2000
   -3.3998   -3.6239    1.3678 H   0  0  0  0  0  0  0  0  0  0  0  0
   -3.3608   -2.6749    0.8348 C   0  0  0  0  0  0  0  0  0  0  0  0
   -4.0988   -1.9909    1.2498 H   0  0  0  0  0  0  0  0  0  0  0  0
   -3.5618   -2.8419   -0.2222 H   0  0  0  0  0  0  0  0  0  0  0  0
   -1.9818   -2.0809    0.9918 C   0  0  0  0  0  0  0  0  0  0  0  0
   -1.1288   -2.6669    1.6468 O   0  0  0  0  0  0  0  0  0  0  0  0
   -1.7648   -0.9089    0.3998 N   0  0  0  0  0  0  0  0  0  0  0  0
   -2.5238   -0.4719   -0.1032 H   0  0  0  0  0  0  0  0  0  0  0  0
   -0.4848   -0.1959    0.4138 C   0  0  1  0  0  0  0  0  0  0  0  0
    0.1386   -0.6144    1.2058 H   0  0  0  0  0  0  0  0  0  0  0  0
    0.2271   -0.4272   -0.9334 C   0  0  0  0  0  0  0  0  0  0  0  0
    1.1795   -0.9243   -0.7376 H   0  0  0  0  0  0  0  0  0  0  0  0
   -0.3829   -1.0892   -1.5498 H   0  0  0  0  0  0  0  0  0  0  0  0
    0.5075    0.8656   -1.7191 C   0  0  0  0  0  0  0  0  0  0  0  0
    0.2280    0.7284   -2.7635 H   0  0  0  0  0  0  0  0  0  0  0  0
   -0.0949    1.6718   -1.3005 H   0  0  0  0  0  0  0  0  0  0  0  0
    1.9755    1.2897   -1.6751 C   0  0  0  0  0  0  0  0  0  0  0  0
    2.8209    0.7074   -1.0219 O   0  0  0  0  0  0  0  0  0  0  0  0
    2.3472    2.3328   -2.3851 N   0  0  0  0  0  0  0  0  0  0  0  0
    3.3228    2.5664   -2.3199 H   0  0  0  0  0  0  0  0  0  0  0  0
    1.6937    2.8456   -2.9416 H   0  0  0  0  0  0  0  0  0  0  0  0
   -0.7011    1.2952    0.7149 C   0  0  0  0  0  0  0  0  0  0  0  0
   -1.5917    1.9198    0.1415 O   0  0  0  0  0  0  0  0  0  0  0  0
    0.1191    1.8675    1.6055 N   0  0  0  0  0  0  0  0  0  0  0  0
    0.8092    1.2861    2.0537 H   0  0  0  0  0  0  0  0  0  0  0  0
    0.0509    3.2769    1.9894 C   0  0  0  0  0  0  0  0  0  0  0  0
   -0.9494    3.5076    2.3640 H   0  0  0  0  0  0  0  0  0  0  0  0
    0.7844    3.4956    2.7668 H   0  0  0  0  0  0  0  0  0  0  0  0
    0.2468    3.9058    1.1193 H   0  0  0  0  0  0  0  0  0  0  0  0
  5  6  2  0  0  0  0
  5  7  1  0  0  0  0
  2  3  1  0  0  0  0
  2  4  1  0  0  0  0
  2  5  1  0  0  0  0
  1  2  1  0  0  0  0
 22 23  2  0  0  0  0
 22 24  1  0  0  0  0
 19 20  1  0  0  0  0
 19 21  1  0  0  0  0
 17 18  2  0  0  0  0
 17 19  1  0  0  0  0
 14 15  1  0  0  0  0
 14 16  1  0  0  0  0
 14 17  1  0  0  0  0
 11 12  1  0  0  0  0
 11 13  1  0  0  0  0
 11 14  1  0  0  0  0
  9 10  1  0  0  0  0
  9 11  1  0  0  0  0
  9 22  1  0  0  0  0
  7  8  1  0  0  0  0
  7  9  1  0  0  0  0
 26 27  1  0  0  0  0
 26 28  1  0  0  0  0
 26 29  1  0  0  0  0
 24 25  1  0  0  0  0
 24 26  1  0  0  0  0
M  END
$$$$
default_name
  -OEChem-02102213163D

 29 28  0     1  0  0  0  0  0999 V2000
   -3.3998   -3.6239    1.3678 H   0  0  0  0  0  0  0  0  0  0  0  0
   -3.3608   -2.6749    0.8348 C   0  0  0  0  0  0  0  0  0  0  0  0
   -4.0988   -1.9909    1.2498 H   0  0  0  0  0  0  0  0  0  0  0  0
   -3.5618   -2.8419   -0.2222 H   0  0  0  0  0  0  0  0  0  0  0  0
   -1.9818   -2.0809    0.9918 C   0  0  0  0  0  0  0  0  0  0  0  0
   -1.1288   -2.6669    1.6468 O   0  0  0  0  0  0  0  0  0  0  0  0
   -1.7648   -0.9089    0.3998 N   0  0  0  0  0  0  0  0  0  0  0  0
   -2.5238   -0.4719   -0.1032 H   0  0  0  0  0  0  0  0  0  0  0  0
   -0.4848   -0.1959    0.4138 C   0  0  1  0  0  0  0  0  0  0  0  0
    0.1386   -0.6144    1.2058 H   0  0  0  0  0  0  0  0  0  0  0  0
    0.2271   -0.4272   -0.9334 C   0  0  0  0  0  0  0  0  0  0  0  0
    1.1795   -0.9243   -0.7376 H   0  0  0  0  0  0  0  0  0  0  0  0
   -0.3829   -1.0892   -1.5498 H   0  0  0  0  0  0  0  0  0  0  0  0
    0.5075    0.8656   -1.7191 C   0  0  0  0  0  0  0  0  0  0  0  0
   -0.0054    0.8298   -2.6800 H   0  0  0  0  0  0  0  0  0  0  0  0
    0.1254    1.7143   -1.1519 H   0  0  0  0  0  0  0  0  0  0  0  0
    1.9948    1.0964   -1.9863 C   0  0  0  0  0  0  0  0  0  0  0  0
    2.8724    0.3722   -1.5550 O   0  0  0  0  0  0  0  0  0  0  0  0
    2.3455    2.1257   -2.7265 N   0  0  0  0  0  0  0  0  0  0  0  0
    3.3349    2.2291   -2.8706 H   0  0  0  0  0  0  0  0  0  0  0  0
    1.6647    2.7507   -3.1080 H   0  0  0  0  0  0  0  0  0  0  0  0
   -0.7011    1.2952    0.7149 C   0  0  0  0  0  0  0  0  0  0  0  0
   -1.5917    1.9198    0.1415 O   0  0  0  0  0  0  0  0  0  0  0  0
    0.1191    1.8675    1.6055 N   0  0  0  0  0  0  0  0  0  0  0  0
    0.8092    1.2861    2.0537 H   0  0  0  0  0  0  0  0  0  0  0  0
    0.0509    3.2769    1.9894 C   0  0  0  0  0  0  0  0  0  0  0  0
   -0.9494    3.5076    2.3640 H   0  0  0  0  0  0  0  0  0  0  0  0
    0.7844    3.4956    2.7668 H   0  0  0  0  0  0  0  0  0  0  0  0
    0.2468    3.9058    1.1193 H   0  0  0  0  0  0  0  0  0  0  0  0
  5  6  2  0  0  0  0
  5  7  1  0  0  0  0
  2  3  1  0  0  0  0
  2  4  1  0  0  0  0
  2  5  1  0  0  0  0
  1  2  1  0  0  0  0
 22 23  2  0  0  0  0
 22 24  1  0  0  0  0
 19 20  1  0  0  0  0
 19 21  1  0  0  0  0
 17 18  2  0  0  0  0
 17 19  1  0  0  0  0
 14 15  1  0  0  0  0
 14 16  1  0  0  0  0
 14 17  1  0  0  0  0
 11 12  1  0  0  0  0
 11 13  1  0  0  0  0
 11 14  1  0  0  0  0
  9 10  1  0  0  0  0
  9 11  1  0  0  0  0
  9 22  1  0  0  0  0
  7  8  1  0  0  0  0
  7  9  1  0  0  0  0
 26 27  1  0  0  0  0
 26 28  1  0  0  0  0
 26 29  1  0  0  0  0
 24 25  1  0  0  0  0
 24 26  1  0  0  0  0
M  END
$$$$
default_name
  -OEChem-02102213163D

 29 28  0     1  0  0  0  0  0999 V2000
   -3.3998   -3.6239    1.3678 H   0  0  0  0  0  0  0  0  0  0  0  0
   -3.3608   -2.6749    0.8348 C   0  0  0  0  0  0  0  0  0  0  0  0
   -4.0988   -1.9909    1.2498 H   0  0  0  0  0  0  0  0  0  0  0  0
   -3.5618   -2.8419   -0.2222 H   0  0  0  0  0  0  0  0  0  0  0  0
   -1.9818   -2.0809    0.9918 C   0  0  0  0  0  0  0  0  0  0  0  0
   -1.1288   -2.6669    1.6468 O   0  0  0  0  0  0  0  0  0  0  0  0
   -1.7648   -0.9089    0.3998 N   0  0  0  0  0  0  0  0  0  0  0  0
   -2.5238   -0.4719   -0.1032 H   0  0  0  0  0  0  0  0  0  0  0  0
   -0.4848   -0.1959    0.4138 C   0  0  1  0  0  0  0  0  0  0  0  0
    0.1386   -0.6144    1.2058 H   0  0  0  0  0  0  0  0  0  0  0  0
    0.2271   -0.4272   -0.9334 C   0  0  0  0  0  0  0  0  0  0  0  0
    1.1795   -0.9243   -0.7376 H   0  0  0  0  0  0  0  0  0  0  0  0
   -0.3829   -1.0892   -1.5498 H   0  0  0  0  0  0  0  0  0  0  0  0
    0.5075    0.8656   -1.7191 C   0  0  0  0  0  0  0  0  0  0  0  0
   -0.1993    0.9547   -2.5438 H   0  0  0  0  0  0  0  0  0  0  0  0
    0.3762    1.7192   -1.0542 H   0  0  0  0  0  0  0  0  0  0  0  0
    1.9203    0.9218   -2.3002 C   0  0  0  0  0  0  0  0  0  0  0  0
    2.7619    0.0668   -2.0970 O   0  0  0  0  0  0  0  0  0  0  0  0
    2.2422    1.9420   -3.0657 N   0  0  0  0  0  0  0  0  0  0  0  0
    3.1824    1.9276   -3.4210 H   0  0  0  0  0  0  0  0  0  0  0  0
    1.5879    2.6707   -3.2670 H   0  0  0  0  0  0  0  0  0  0  0  0
   -0.7011    1.2952    0.7149 C   0  0  0  0  0  0  0  0  0  0  0  0
   -1.5917    1.9198    0.1415 O   0  0  0  0  0  0  0  0  0  0  0  0
    0.1191    1.8675    1.6055 N   0  0  0  0  0  0  0  0  0  0  0  0
    0.8092    1.2861    2.0537 H   0  0  0  0  0  0  0  0  0  0  0  0
    0.0509    3.2769    1.9894 C   0  0  0  0  0  0  0  0  0  0  0  0
   -0.9494    3.5076    2.3640 H   0  0  0  0  0  0  0  0  0  0  0  0
    0.7844    3.4956    2.7668 H   0  0  0  0  0  0  0  0  0  0  0  0
    0.2468    3.9058    1.1193 H   0  0  0  0  0  0  0  0  0  0  0  0
  5  6  2  0  0  0  0
  5  7  1  0  0  0  0
  2  3  1  0  0  0  0
  2  4  1  0  0  0  0
  2  5  1  0  0  0  0
  1  2  1  0  0  0  0
 22 23  2  0  0  0  0
 22 24  1  0  0  0  0
 19 20  1  0  0  0  0
 19 21  1  0  0  0  0
 17 18  2  0  0  0  0
 17 19  1  0  0  0  0
 14 15  1  0  0  0  0
 14 16  1  0  0  0  0
 14 17  1  0  0  0  0
 11 12  1  0  0  0  0
 11 13  1  0  0  0  0
 11 14  1  0  0  0  0
  9 10  1  0  0  0  0
  9 11  1  0  0  0  0
  9 22  1  0  0  0  0
  7  8  1  0  0  0  0
  7  9  1  0  0  0  0
 26 27  1  0  0  0  0
 26 28  1  0  0  0  0
 26 29  1  0  0  0  0
 24 25  1  0  0  0  0
 24 26  1  0  0  0  0
M  END
$$$$
default_name
  -OEChem-02102213163D

 29 28  0     1  0  0  0  0  0999 V2000
   -3.3998   -3.6239    1.3678 H   0  0  0  0  0  0  0  0  0  0  0  0
   -3.3608   -2.6749    0.8348 C   0  0  0  0  0  0  0  0  0  0  0  0
   -4.0988   -1.9909    1.2498 H   0  0  0  0  0  0  0  0  0  0  0  0
   -3.5618   -2.8419   -0.2222 H   0  0  0  0  0  0  0  0  0  0  0  0
   -1.9818   -2.0809    0.9918 C   0  0  0  0  0  0  0  0  0  0  0  0
   -1.1288   -2.6669    1.6468 O   0  0  0  0  0  0  0  0  0  0  0  0
   -1.7648   -0.9089    0.3998 N   0  0  0  0  0  0  0  0  0  0  0  0
   -2.5238   -0.4719   -0.1032 H   0  0  0  0  0  0  0  0  0  0  0  0
   -0.4848   -0.1959    0.4138 C   0  0  1  0  0  0  0  0  0  0  0  0
    0.1386   -0.6144    1.2058 H   0  0  0  0  0  0  0  0  0  0  0  0
    0.2271   -0.4272   -0.9334 C   0  0  0  0  0  0  0  0  0  0  0  0
    1.1795   -0.9243   -0.7376 H   0  0  0  0  0  0  0  0  0  0  0  0
   -0.3829   -1.0892   -1.5498 H   0  0  0  0  0  0  0  0  0  0  0  0
    0.5075    0.8656   -1.7191 C   0  0  0  0  0  0  0  0  0  0  0  0
   -0.3405    1.0945   -2.3642 H   0  0  0  0  0  0  0  0  0  0  0  0
    0.6403    1.6863   -1.0142 H   0  0  0  0  0  0  0  0  0  0  0  0
    1.7569    0.7778   -2.5955 C   0  0  0  0  0  0  0  0  0  0  0  0
    2.4969   -0.1880   -2.6109 O   0  0  0  0  0  0  0  0  0  0  0  0
    2.0443    1.7942   -3.3794 N   0  0  0  0  0  0  0  0  0  0  0  0
    2.8755    1.6826   -3.9338 H   0  0  0  0  0  0  0  0  0  0  0  0
    1.4686    2.6111   -3.4076 H   0  0  0  0  0  0  0  0  0  0  0  0
   -0.7011    1.2952    0.7149 C   0  0  0  0  0  0  0  0  0  0  0  0
   -1.5917    1.9198    0.1415 O   0  0  0  0  0  0  0  0  0  0  0  0
    0.1191    1.8675    1.6055 N   0  0  0  0  0  0  0  0  0  0  0  0
    0.8092    1.2861    2.0537 H   0  0  0  0  0  0  0  0  0  0  0  0
    0.0509    3.2769    1.9894 C   0  0  0  0  0  0  0  0  0  0  0  0
   -0.9494    3.5076    2.3640 H   0  0  0  0  0  0  0  0  0  0  0  0
    0.7844    3.4956    2.7668 H   0  0  0  0  0  0  0  0  0  0  0  0
    0.2468    3.9058    1.1193 H   0  0  0  0  0  0  0  0  0  0  0  0
  5  6  2  0  0  0  0
  5  7  1  0  0  0  0
  2  3  1  0  0  0  0
  2  4  1  0  0  0  0
  2  5  1  0  0  0  0
  1  2  1  0  0  0  0
 22 23  2  0  0  0  0
 22 24  1  0  0  0  0
 19 20  1  0  0  0  0
 19 21  1  0  0  0  0
 17 18  2  0  0  0  0
 17 19  1  0  0  0  0
 14 15  1  0  0  0  0
 14 16  1  0  0  0  0
 14 17  1  0  0  0  0
 11 12  1  0  0  0  0
 11 13  1  0  0  0  0
 11 14  1  0  0  0  0
  9 10  1  0  0  0  0
  9 11  1  0  0  0  0
  9 22  1  0  0  0  0
  7  8  1  0  0  0  0
  7  9  1  0  0  0  0
 26 27  1  0  0  0  0
 26 28  1  0  0  0  0
 26 29  1  0  0  0  0
 24 25  1  0  0  0  0
 24 26  1  0  0  0  0
M  END
$$$$
default_name
  -OEChem-02102213163D

 29 28  0     1  0  0  0  0  0999 V2000
   -3.3998   -3.6239    1.3678 H   0  0  0  0  0  0  0  0  0  0  0  0
   -3.3608   -2.6749    0.8348 C   0  0  0  0  0  0  0  0  0  0  0  0
   -4.0988   -1.9909    1.2498 H   0  0  0  0  0  0  0  0  0  0  0  0
   -3.5618   -2.8419   -0.2222 H   0  0  0  0  0  0  0  0  0  0  0  0
   -1.9818   -2.0809    0.9918 C   0  0  0  0  0  0  0  0  0  0  0  0
   -1.1288   -2.6669    1.6468 O   0  0  0  0  0  0  0  0  0  0  0  0
   -1.7648   -0.9089    0.3998 N   0  0  0  0  0  0  0  0  0  0  0  0
   -2.5238   -0.4719   -0.1032 H   0  0  0  0  0  0  0  0  0  0  0  0
   -0.4848   -0.1959    0.4138 C   0  0  1  0  0  0  0  0  0  0  0  0
    0.1386   -0.6144    1.2058 H   0  0  0  0  0  0  0  0  0  0  0  0
    0.2271   -0.4272   -0.9334 C   0  0  0  0  0  0  0  0  0  0  0  0
    1.1795   -0.9243   -0.7376 H   0  0  0  0  0  0  0  0  0  0  0  0
   -0.3829   -1.0892   -1.5498 H   0  0  0  0  0  0  0  0  0  0  0  0
    0.5075    0.8656   -1.7191 C   0  0  0  0  0  0  0  0  0  0  0  0
   -0.4194    1.2397   -2.1533 H   0  0  0  0  0  0  0  0  0  0  0  0
    0.8997    1.6177   -1.0345 H   0  0  0  0  0  0  0  0  0  0  0  0
    1.5159    0.6742   -2.8519 C   0  0  0  0  0  0  0  0  0  0  0  0
    2.0955   -0.3749   -3.0617 O   0  0  0  0  0  0  0  0  0  0  0  0
    1.7655    1.6923   -3.6465 N   0  0  0  0  0  0  0  0  0  0  0  0
    2.4351    1.5106   -4.3739 H   0  0  0  0  0  0  0  0  0  0  0  0
    1.3150    2.5760   -3.5204 H   0  0  0  0  0  0  0  0  0  0  0  0
   -0.7011    1.2952    0.7149 C   0  0  0  0  0  0  0  0  0  0  0  0
   -1.5917    1.9198    0.1415 O   0  0  0  0  0  0  0  0  0  0  0  0
    0.1191    1.8675    1.6055 N   0  0  0  0  0  0  0  0  0  0  0  0
    0.8092    1.2861    2.0537 H   0  0  0  0  0  0  0  0  0  0  0  0
    0.0509    3.2769    1.9894 C   0  0  0  0  0  0  0  0  0  0  0  0
   -0.9494    3.5076    2.3640 H   0  0  0  0  0  0  0  0  0  0  0  0
    0.7844    3.4956    2.7668 H   0  0  0  0  0  0  0  0  0  0  0  0
    0.2468    3.9058    1.1193 H   0  0  0  0  0  0  0  0  0  0  0  0
  5  6  2  0  0  0  0
  5  7  1  0  0  0  0
  2  3  1  0  0  0  0
  2  4  1  0  0  0  0
  2  5  1  0  0  0  0
  1  2  1  0  0  0  0
 22 23  2  0  0  0  0
 22 24  1  0  0  0  0
 19 20  1  0  0  0  0
 19 21  1  0  0  0  0
 17 18  2  0  0  0  0
 17 19  1  0  0  0  0
 14 15  1  0  0  0  0
 14 16  1  0  0  0  0
 14 17  1  0  0  0  0
 11 12  1  0  0  0  0
 11 13  1  0  0  0  0
 11 14  1  0  0  0  0
  9 10  1  0  0  0  0
  9 11  1  0  0  0  0
  9 22  1  0  0  0  0
  7  8  1  0  0  0  0
  7  9  1  0  0  0  0
 26 27  1  0  0  0  0
 26 28  1  0  0  0  0
 26 29  1  0  0  0  0
 24 25  1  0  0  0  0
 24 26  1  0  0  0  0
M  END
$$$$
default_name
  -OEChem-02102213163D

 29 28  0     1  0  0  0  0  0999 V2000
   -3.3998   -3.6239    1.3678 H   0  0  0  0  0  0  0  0  0  0  0  0
   -3.3608   -2.6749    0.8348 C   0  0  0  0  0  0  0  0  0  0  0  0
   -4.0988   -1.9909    1.2498 H   0  0  0  0  0  0  0  0  0  0  0  0
   -3.5618   -2.8419   -0.2222 H   0  0  0  0  0  0  0  0  0  0  0  0
   -1.9818   -2.0809    0.9918 C   0  0  0  0  0  0  0  0  0  0  0  0
   -1.1288   -2.6669    1.6468 O   0  0  0  0  0  0  0  0  0  0  0  0
   -1.7648   -0.9089    0.3998 N   0  0  0  0  0  0  0  0  0  0  0  0
   -2.5238   -0.4719   -0.1032 H   0  0  0  0  0  0  0  0  0  0  0  0
   -0.4848   -0.1959    0.4138 C   0  0  1  0  0  0  0  0  0  0  0  0
    0.1386   -0.6144    1.2058 H   0  0  0  0  0  0  0  0  0  0  0  0
    0.2271   -0.4272   -0.9334 C   0  0  0  0  0  0  0  0  0  0  0  0
    1.0323   -1.1480   -0.7770 H   0  0  0  0  0  0  0  0  0  0  0  0
   -0.4823   -0.8568   -1.6423 H   0  0  0  0  0  0  0  0  0  0  0  0
    0.8308    0.8489   -1.5455 C   0  0  0  0  0  0  0  0  0  0  0  0
    0.0440    1.5848   -1.7100 H   0  0  0  0  0  0  0  0  0  0  0  0
    1.5574    1.2660   -0.8483 H   0  0  0  0  0  0  0  0  0  0  0  0
    1.5327    0.6016   -2.8807 C   0  0  0  0  0  0  0  0  0  0  0  0
    1.6673   -0.5038   -3.3713 O   0  0  0  0  0  0  0  0  0  0  0  0
    2.0094    1.6362   -3.5383 N   0  0  0  0  0  0  0  0  0  0  0  0
    2.4597    1.4162   -4.4097 H   0  0  0  0  0  0  0  0  0  0  0  0
    1.9236    2.5664   -3.1818 H   0  0  0  0  0  0  0  0  0  0  0  0
   -0.7011    1.2952    0.7149 C   0  0  0  0  0  0  0  0  0  0  0  0
   -1.5917    1.9198    0.1415 O   0  0  0  0  0  0  0  0  0  0  0  0
    0.1191    1.8675    1.6055 N   0  0  0  0  0  0  0  0  0  0  0  0
    0.8092    1.2861    2.0537 H   0  0  0  0  0  0  0  0  0  0  0  0
    0.0509    3.2769    1.9894 C   0  0  0  0  0  0  0  0  0  0  0  0
   -0.9494    3.5076    2.3640 H   0  0  0  0  0  0  0  0  0  0  0  0
    0.7844    3.4956    2.7668 H   0  0  0  0  0  0  0  0  0  0  0  0
    0.2468    3.9058    1.1193 H   0  0  0  0  0  0  0  0  0  0  0  0
  5  6  2  0  0  0  0
  5  7  1  0  0  0  0
  2  3  1  0  0  0  0
  2  4  1  0  0  0  0
  2  5  1  0  0  0  0
  1  2  1  0  0  0  0
 22 23  2  0  0  0  0
 22 24  1  0  0  0  0
 19 20  1  0  0  0  0
 19 21  1  0  0  0  0
 17 18  2  0  0  0  0
 17 19  1  0  0  0  0
 14 15  1  0  0  0  0
 14 16  1  0  0  0  0
 14 17  1  0  0  0  0
 11 12  1  0  0  0  0
 11 13  1  0  0  0  0
 11 14  1  0  0  0  0
  9 10  1  0  0  0  0
  9 11  1  0  0  0  0
  9 22  1  0  0  0  0
  7  8  1  0  0  0  0
  7  9  1  0  0  0  0
 26 27  1  0  0  0  0
 26 28  1  0  0  0  0
 26 29  1  0  0  0  0
 24 25  1  0  0  0  0
 24 26  1  0  0  0  0
M  END
$$$$
default_name
  -OEChem-02102213163D

 29 28  0     1  0  0  0  0  0999 V2000
   -3.3998   -3.6239    1.3678 H   0  0  0  0  0  0  0  0  0  0  0  0
   -3.3608   -2.6749    0.8348 C   0  0  0  0  0  0  0  0  0  0  0  0
   -4.0988   -1.9909    1.2498 H   0  0  0  0  0  0  0  0  0  0  0  0
   -3.5618   -2.8419   -0.2222 H   0  0  0  0  0  0  0  0  0  0  0  0
   -1.9818   -2.0809    0.9918 C   0  0  0  0  0  0  0  0  0  0  0  0
   -1.1288   -2.6669    1.6468 O   0  0  0  0  0  0  0  0  0  0  0  0
   -1.7648   -0.9089    0.3998 N   0  0  0  0  0  0  0  0  0  0  0  0
   -2.5238   -0.4719   -0.1032 H   0  0  0  0  0  0  0  0  0  0  0  0
   -0.4848   -0.1959    0.4138 C   0  0  1  0  0  0  0  0  0  0  0  0
    0.1386   -0.6144    1.2058 H   0  0  0  0  0  0  0  0  0  0  0  0
    0.2271   -0.4272   -0.9334 C   0  0  0  0  0  0  0  0  0  0  0  0
    1.0323   -1.1480   -0.7770 H   0  0  0  0  0  0  0  0  0  0  0  0
   -0.4823   -0.8568   -1.6423 H   0  0  0  0  0  0  0  0  0  0  0  0
    0.8308    0.8489   -1.5455 C   0  0  0  0  0  0  0  0  0  0  0  0
    0.1162    1.6678   -1.4658 H   0  0  0  0  0  0  0  0  0  0  0  0
    1.7300    1.1162   -0.9905 H   0  0  0  0  0  0  0  0  0  0  0  0
    1.2047    0.6903   -3.0191 C   0  0  0  0  0  0  0  0  0  0  0  0
    1.1067   -0.3603   -3.6250 O   0  0  0  0  0  0  0  0  0  0  0  0
    1.6481    1.7443   -3.6693 N   0  0  0  0  0  0  0  0  0  0  0  0
    1.8779    1.5835   -4.6346 H   0  0  0  0  0  0  0  0  0  0  0  0
    1.7454    2.6323   -3.2202 H   0  0  0  0  0  0  0  0  0  0  0  0
   -0.7011    1.2952    0.7149 C   0  0  0  0  0  0  0  0  0  0  0  0
   -1.5917    1.9198    0.1415 O   0  0  0  0  0  0  0  0  0  0  0  0
    0.1191    1.8675    1.6055 N   0  0  0  0  0  0  0  0  0  0  0  0
    0.8092    1.2861    2.0537 H   0  0  0  0  0  0  0  0  0  0  0  0
    0.0509    3.2769    1.9894 C   0  0  0  0  0  0  0  0  0  0  0  0
   -0.9494    3.5076    2.3640 H   0  0  0  0  0  0  0  0  0  0  0  0
    0.7844    3.4956    2.7668 H   0  0  0  0  0  0  0  0  0  0  0  0
    0.2468    3.9058    1.1193 H   0  0  0  0  0  0  0  0  0  0  0  0
  5  6  2  0  0  0  0
  5  7  1  0  0  0  0
  2  3  1  0  0  0  0
  2  4  1  0  0  0  0
  2  5  1  0  0  0  0
  1  2  1  0  0  0  0
 22 23  2  0  0  0  0
 22 24  1  0  0  0  0
 19 20  1  0  0  0  0
 19 21  1  0  0  0  0
 17 18  2  0  0  0  0
 17 19  1  0  0  0  0
 14 15  1  0  0  0  0
 14 16  1  0  0  0  0
 14 17  1  0  0  0  0
 11 12  1  0  0  0  0
 11 13  1  0  0  0  0
 11 14  1  0  0  0  0
  9 10  1  0  0  0  0
  9 11  1  0  0  0  0
  9 22  1  0  0  0  0
  7  8  1  0  0  0  0
  7  9  1  0  0  0  0
 26 27  1  0  0  0  0
 26 28  1  0  0  0  0
 26 29  1  0  0  0  0
 24 25  1  0  0  0  0
 24 26  1  0  0  0  0
M  END
$$$$
default_name
  -OEChem-02102213163D

 29 28  0     1  0  0  0  0  0999 V2000
   -3.3998   -3.6239    1.3678 H   0  0  0  0  0  0  0  0  0  0  0  0
   -3.3608   -2.6749    0.8348 C   0  0  0  0  0  0  0  0  0  0  0  0
   -4.0988   -1.9909    1.2498 H   0  0  0  0  0  0  0  0  0  0  0  0
   -3.5618   -2.8419   -0.2222 H   0  0  0  0  0  0  0  0  0  0  0  0
   -1.9818   -2.0809    0.9918 C   0  0  0  0  0  0  0  0  0  0  0  0
   -1.1288   -2.6669    1.6468 O   0  0  0  0  0  0  0  0  0  0  0  0
   -1.7648   -0.9089    0.3998 N   0  0  0  0  0  0  0  0  0  0  0  0
   -2.5238   -0.4719   -0.1032 H   0  0  0  0  0  0  0  0  0  0  0  0
   -0.4848   -0.1959    0.4138 C   0  0  1  0  0  0  0  0  0  0  0  0
    0.1386   -0.6144    1.2058 H   0  0  0  0  0  0  0  0  0  0  0  0
    0.2271   -0.4272   -0.9334 C   0  0  0  0  0  0  0  0  0  0  0  0
    1.0323   -1.1480   -0.7770 H   0  0  0  0  0  0  0  0  0  0  0  0
   -0.4823   -0.8568   -1.6423 H   0  0  0  0  0  0  0  0  0  0  0  0
    0.8308    0.8489   -1.5455 C   0  0  0  0  0  0  0  0  0  0  0  0
    0.2468    1.7157   -1.2369 H   0  0  0  0  0  0  0  0  0  0  0  0
    1.8507    0.9682   -1.1801 H   0  0  0  0  0  0  0  0  0  0  0  0
    0.8674    0.8239   -3.0734 C   0  0  0  0  0  0  0  0  0  0  0  0
    0.5255   -0.1382   -3.7353 O   0  0  0  0  0  0  0  0  0  0  0  0
    1.2820    1.8993   -3.7073 N   0  0  0  0  0  0  0  0  0  0  0  0
    1.2848    1.8279   -4.7100 H   0  0  0  0  0  0  0  0  0  0  0  0
    1.5718    2.7182   -3.2122 H   0  0  0  0  0  0  0  0  0  0  0  0
   -0.7011    1.2952    0.7149 C   0  0  0  0  0  0  0  0  0  0  0  0
   -1.5917    1.9198    0.1415 O   0  0  0  0  0  0  0  0  0  0  0  0
    0.1191    1.8675    1.6055 N   0  0  0  0  0  0  0  0  0  0  0  0
    0.8092    1.2861    2.0537 H   0  0  0  0  0  0  0  0  0  0  0  0
    0.0509    3.2769    1.9894 C   0  0  0  0  0  0  0  0  0  0  0  0
   -0.9494    3.5076    2.3640 H   0  0  0  0  0  0  0  0  0  0  0  0
    0.7844    3.4956    2.7668 H   0  0  0  0  0  0  0  0  0  0  0  0
    0.2468    3.9058    1.1193 H   0  0  0  0  0  0  0  0  0  0  0  0
  5  6  2  0  0  0  0
  5  7  1  0  0  0  0
  2  3  1  0  0  0  0
  2  4  1  0  0  0  0
  2  5  1  0  0  0  0
  1  2  1  0  0  0  0
 22 23  2  0  0  0  0
 22 24  1  0  0  0  0
 19 20  1  0  0  0  0
 19 21  1  0  0  0  0
 17 18  2  0  0  0  0
 17 19  1  0  0  0  0
 14 15  1  0  0  0  0
 14 16  1  0  0  0  0
 14 17  1  0  0  0  0
 11 12  1  0  0  0  0
 11 13  1  0  0  0  0
 11 14  1  0  0  0  0
  9 10  1  0  0  0  0
  9 11  1  0  0  0  0
  9 22  1  0  0  0  0
  7  8  1  0  0  0  0
  7  9  1  0  0  0  0
 26 27  1  0  0  0  0
 26 28  1  0  0  0  0
 26 29  1  0  0  0  0
 24 25  1  0  0  0  0
 24 26  1  0  0  0  0
M  END
$$$$
default_name
  -OEChem-02102213163D

 29 28  0     1  0  0  0  0  0999 V2000
   -3.3998   -3.6239    1.3678 H   0  0  0  0  0  0  0  0  0  0  0  0
   -3.3608   -2.6749    0.8348 C   0  0  0  0  0  0  0  0  0  0  0  0
   -4.0988   -1.9909    1.2498 H   0  0  0  0  0  0  0  0  0  0  0  0
   -3.5618   -2.8419   -0.2222 H   0  0  0  0  0  0  0  0  0  0  0  0
   -1.9818   -2.0809    0.9918 C   0  0  0  0  0  0  0  0  0  0  0  0
   -1.1288   -2.6669    1.6468 O   0  0  0  0  0  0  0  0  0  0  0  0
   -1.7648   -0.9089    0.3998 N   0  0  0  0  0  0  0  0  0  0  0  0
   -2.5238   -0.4719   -0.1032 H   0  0  0  0  0  0  0  0  0  0  0  0
   -0.4848   -0.1959    0.4138 C   0  0  1  0  0  0  0  0  0  0  0  0
    0.1386   -0.6144    1.2058 H   0  0  0  0  0  0  0  0  0  0  0  0
    0.2271   -0.4272   -0.9334 C   0  0  0  0  0  0  0  0  0  0  0  0
    1.0323   -1.1480   -0.7770 H   0  0  0  0  0  0  0  0  0  0  0  0
   -0.4823   -0.8568   -1.6423 H   0  0  0  0  0  0  0  0  0  0  0  0
    0.8308    0.8489   -1.5455 C   0  0  0  0  0  0  0  0  0  0  0  0
    0.4271    1.7254   -1.0390 H   0  0  0  0  0  0  0  0  0  0  0  0
    1.9114    0.8320   -1.4041 H   0  0  0  0  0  0  0  0  0  0  0  0
    0.5436    0.9931   -3.0399 C   0  0  0  0  0  0  0  0  0  0  0  0
   -0.0367    0.1473   -3.6945 O   0  0  0  0  0  0  0  0  0  0  0  0
    0.9362    2.0905   -3.6497 N   0  0  0  0  0  0  0  0  0  0  0  0
    0.7209    2.1327   -4.6307 H   0  0  0  0  0  0  0  0  0  0  0  0
    1.4147    2.8182   -3.1586 H   0  0  0  0  0  0  0  0  0  0  0  0
   -0.7011    1.2952    0.7149 C   0  0  0  0  0  0  0  0  0  0  0  0
   -1.5917    1.9198    0.1415 O   0  0  0  0  0  0  0  0  0  0  0  0
    0.1191    1.8675    1.6055 N   0  0  0  0  0  0  0  0  0  0  0  0
    0.8092    1.2861    2.0537 H   0  0  0  0  0  0  0  0  0  0  0  0
    0.0509    3.2769    1.9894 C   0  0  0  0  0  0  0  0  0  0  0  0
   -0.9494    3.5076    2.3640 H   0  0  0  0  0  0  0  0  0  0  0  0
    0.7844    3.4956    2.7668 H   0  0  0  0  0  0  0  0  0  0  0  0
    0.2468    3.9058    1.1193 H   0  0  0  0  0  0  0  0  0  0  0  0
  5  6  2  0  0  0  0
  5  7  1  0  0  0  0
  2  3  1  0  0  0  0
  2  4  1  0  0  0  0
  2  5  1  0  0  0  0
  1  2  1  0  0  0  0
 22 23  2  0  0  0  0
 22 24  1  0  0  0  0
 19 20  1  0  0  0  0
 19 21  1  0  0  0  0
 17 18  2  0  0  0  0
 17 19  1  0  0  0  0
 14 15  1  0  0  0  0
 14 16  1  0  0  0  0
 14 17  1  0  0  0  0
 11 12  1  0  0  0  0
 11 13  1  0  0  0  0
 11 14  1  0  0  0  0
  9 10  1  0  0  0  0
  9 11  1  0  0  0  0
  9 22  1  0  0  0  0
  7  8  1  0  0  0  0
  7  9  1  0  0  0  0
 26 27  1  0  0  0  0
 26 28  1  0  0  0  0
 26 29  1  0  0  0  0
 24 25  1  0  0  0  0
 24 26  1  0  0  0  0
M  END
$$$$
default_name
  -OEChem-02102213163D

 29 28  0     1  0  0  0  0  0999 V2000
   -3.3998   -3.6239    1.3678 H   0  0  0  0  0  0  0  0  0  0  0  0
   -3.3608   -2.6749    0.8348 C   0  0  0  0  0  0  0  0  0  0  0  0
   -4.0988   -1.9909    1.2498 H   0  0  0  0  0  0  0  0  0  0  0  0
   -3.5618   -2.8419   -0.2222 H   0  0  0  0  0  0  0  0  0  0  0  0
   -1.9818   -2.0809    0.9918 C   0  0  0  0  0  0  0  0  0  0  0  0
   -1.1288   -2.6669    1.6468 O   0  0  0  0  0  0  0  0  0  0  0  0
   -1.7648   -0.9089    0.3998 N   0  0  0  0  0  0  0  0  0  0  0  0
   -2.5238   -0.4719   -0.1032 H   0  0  0  0  0  0  0  0  0  0  0  0
   -0.4848   -0.1959    0.4138 C   0  0  1  0  0  0  0  0  0  0  0  0
    0.1386   -0.6144    1.2058 H   0  0  0  0  0  0  0  0  0  0  0  0
    0.2271   -0.4272   -0.9334 C   0  0  0  0  0  0  0  0  0  0  0  0
    1.0323   -1.1480   -0.7770 H   0  0  0  0  0  0  0  0  0  0  0  0
   -0.4823   -0.8568   -1.6423 H   0  0  0  0  0  0  0  0  0  0  0  0
    0.8308    0.8489   -1.5455 C   0  0  0  0  0  0  0  0  0  0  0  0
    0.6447    1.6960   -0.8856 H   0  0  0  0  0  0  0  0  0  0  0  0
    1.9079    0.7170   -1.6474 H   0  0  0  0  0  0  0  0  0  0  0  0
    0.2555    1.1865   -2.9208 C   0  0  0  0  0  0  0  0  0  0  0  0
   -0.5415    0.4768   -3.5054 O   0  0  0  0  0  0  0  0  0  0  0  0
    0.6343    2.3049   -3.5004 N   0  0  0  0  0  0  0  0  0  0  0  0
    0.2246    2.4771   -4.4021 H   0  0  0  0  0  0  0  0  0  0  0  0
    1.2848    2.9256   -3.0630 H   0  0  0  0  0  0  0  0  0  0  0  0
   -0.7011    1.2952    0.7149 C   0  0  0  0  0  0  0  0  0  0  0  0
   -1.5917    1.9198    0.1415 O   0  0  0  0  0  0  0  0  0  0  0  0
    0.1191    1.8675    1.6055 N   0  0  0  0  0  0  0  0  0  0  0  0
    0.8092    1.2861    2.0537 H   0  0  0  0  0  0  0  0  0  0  0  0
    0.0509    3.2769    1.9894 C   0  0  0  0  0  0  0  0  0  0  0  0
   -0.9494    3.5076    2.3640 H   0  0  0  0  0  0  0  0  0  0  0  0
    0.7844    3.4956    2.7668 H   0  0  0  0  0  0  0  0  0  0  0  0
    0.2468    3.9058    1.1193 H   0  0  0  0  0  0  0  0  0  0  0  0
  5  6  2  0  0  0  0
  5  7  1  0  0  0  0
  2  3  1  0  0  0  0
  2  4  1  0  0  0  0
  2  5  1  0  0  0  0
  1  2  1  0  0  0  0
 22 23  2  0  0  0  0
 22 24  1  0  0  0  0
 19 20  1  0  0  0  0
 19 21  1  0  0  0  0
 17 18  2  0  0  0  0
 17 19  1  0  0  0  0
 14 15  1  0  0  0  0
 14 16  1  0  0  0  0
 14 17  1  0  0  0  0
 11 12  1  0  0  0  0
 11 13  1  0  0  0  0
 11 14  1  0  0  0  0
  9 10  1  0  0  0  0
  9 11  1  0  0  0  0
  9 22  1  0  0  0  0
  7  8  1  0  0  0  0
  7  9  1  0  0  0  0
 26 27  1  0  0  0  0
 26 28  1  0  0  0  0
 26 29  1  0  0  0  0
 24 25  1  0  0  0  0
 24 26  1  0  0  0  0
M  END
$$$$
default_name
  -OEChem-02102213163D

 29 28  0     1  0  0  0  0  0999 V2000
   -3.3998   -3.6239    1.3678 H   0  0  0  0  0  0  0  0  0  0  0  0
   -3.3608   -2.6749    0.8348 C   0  0  0  0  0  0  0  0  0  0  0  0
   -4.0988   -1.9909    1.2498 H   0  0  0  0  0  0  0  0  0  0  0  0
   -3.5618   -2.8419   -0.2222 H   0  0  0  0  0  0  0  0  0  0  0  0
   -1.9818   -2.0809    0.9918 C   0  0  0  0  0  0  0  0  0  0  0  0
   -1.1288   -2.6669    1.6468 O   0  0  0  0  0  0  0  0  0  0  0  0
   -1.7648   -0.9089    0.3998 N   0  0  0  0  0  0  0  0  0  0  0  0
   -2.5238   -0.4719   -0.1032 H   0  0  0  0  0  0  0  0  0  0  0  0
   -0.4848   -0.1959    0.4138 C   0  0  1  0  0  0  0  0  0  0  0  0
    0.1386   -0.6144    1.2058 H   0  0  0  0  0  0  0  0  0  0  0  0
    0.2271   -0.4272   -0.9334 C   0  0  0  0  0  0  0  0  0  0  0  0
    1.0323   -1.1480   -0.7770 H   0  0  0  0  0  0  0  0  0  0  0  0
   -0.4823   -0.8568   -1.6423 H   0  0  0  0  0  0  0  0  0  0  0  0
    0.8308    0.8489   -1.5455 C   0  0  0  0  0  0  0  0  0  0  0  0
    0.8848    1.6297   -0.7871 H   0  0  0  0  0  0  0  0  0  0  0  0
    1.8405    0.6309   -1.8933 H   0  0  0  0  0  0  0  0  0  0  0  0
    0.0227    1.3909   -2.7244 C   0  0  0  0  0  0  0  0  0  0  0  0
   -0.9547    0.8279   -3.1809 O   0  0  0  0  0  0  0  0  0  0  0  0
    0.3968    2.5280   -3.2696 N   0  0  0  0  0  0  0  0  0  0  0  0
   -0.1702    2.8377   -4.0398 H   0  0  0  0  0  0  0  0  0  0  0  0
    1.1909    3.0329   -2.9318 H   0  0  0  0  0  0  0  0  0  0  0  0
   -0.7011    1.2952    0.7149 C   0  0  0  0  0  0  0  0  0  0  0  0
   -1.5917    1.9198    0.1415 O   0  0  0  0  0  0  0  0  0  0  0  0
    0.1191    1.8675    1.6055 N   0  0  0  0  0  0  0  0  0  0  0  0
    0.8092    1.2861    2.0537 H   0  0  0  0  0  0  0  0  0  0  0  0
    0.0509    3.2769    1.9894 C   0  0  0  0  0  0  0  0  0  0  0  0
   -0.9494    3.5076    2.3640 H   0  0  0  0  0  0  0  0  0  0  0  0
    0.7844    3.4956    2.7668 H   0  0  0  0  0  0  0  0  0  0  0  0
    0.2468    3.9058    1.1193 H   0  0  0  0  0  0  0  0  0  0  0  0
  5  6  2  0  0  0  0
  5  7  1  0  0  0  0
  2  3  1  0  0  0  0
  2  4  1  0  0  0  0
  2  5  1  0  0  0  0
  1  2  1  0  0  0  0
 22 23  2  0  0  0  0
 22 24  1  0  0  0  0
 19 20  1  0  0  0  0
 19 21  1  0  0  0  0
 17 18  2  0  0  0  0
 17 19  1  0  0  0  0
 14 15  1  0  0  0  0
 14 16  1  0  0  0  0
 14 17  1  0  0  0  0
 11 12  1  0  0  0  0
 11 13  1  0  0  0  0
 11 14  1  0  0  0  0
  9 10  1  0  0  0  0
  9 11  1  0  0  0  0
  9 22  1  0  0  0  0
  7  8  1  0  0  0  0
  7  9  1  0  0  0  0
 26 27  1  0  0  0  0
 26 28  1  0  0  0  0
 26 29  1  0  0  0  0
 24 25  1  0  0  0  0
 24 26  1  0  0  0  0
M  END
$$$$
default_name
  -OEChem-02102213163D

 29 28  0     1  0  0  0  0  0999 V2000
   -3.3998   -3.6239    1.3678 H   0  0  0  0  0  0  0  0  0  0  0  0
   -3.3608   -2.6749    0.8348 C   0  0  0  0  0  0  0  0  0  0  0  0
   -4.0988   -1.9909    1.2498 H   0  0  0  0  0  0  0  0  0  0  0  0
   -3.5618   -2.8419   -0.2222 H   0  0  0  0  0  0  0  0  0  0  0  0
   -1.9818   -2.0809    0.9918 C   0  0  0  0  0  0  0  0  0  0  0  0
   -1.1288   -2.6669    1.6468 O   0  0  0  0  0  0  0  0  0  0  0  0
   -1.7648   -0.9089    0.3998 N   0  0  0  0  0  0  0  0  0  0  0  0
   -2.5238   -0.4719   -0.1032 H   0  0  0  0  0  0  0  0  0  0  0  0
   -0.4848   -0.1959    0.4138 C   0  0  1  0  0  0  0  0  0  0  0  0
    0.1386   -0.6144    1.2058 H   0  0  0  0  0  0  0  0  0  0  0  0
    0.2271   -0.4272   -0.9334 C   0  0  0  0  0  0  0  0  0  0  0  0
    1.0323   -1.1480   -0.7770 H   0  0  0  0  0  0  0  0  0  0  0  0
   -0.4823   -0.8568   -1.6423 H   0  0  0  0  0  0  0  0  0  0  0  0
    0.8308    0.8489   -1.5455 C   0  0  0  0  0  0  0  0  0  0  0  0
    1.1311    1.5309   -0.7502 H   0  0  0  0  0  0  0  0  0  0  0  0
    1.7137    0.5797   -2.1252 H   0  0  0  0  0  0  0  0  0  0  0  0
   -0.1390    1.5923   -2.4638 C   0  0  0  0  0  0  0  0  0  0  0  0
   -1.2479    1.1766   -2.7431 O   0  0  0  0  0  0  0  0  0  0  0  0
    0.2399    2.7444   -2.9731 N   0  0  0  0  0  0  0  0  0  0  0  0
   -0.4367    3.1898   -3.5685 H   0  0  0  0  0  0  0  0  0  0  0  0
    1.1394    3.1330   -2.7740 H   0  0  0  0  0  0  0  0  0  0  0  0
   -0.7011    1.2952    0.7149 C   0  0  0  0  0  0  0  0  0  0  0  0
   -1.5917    1.9198    0.1415 O   0  0  0  0  0  0  0  0  0  0  0  0
    0.1191    1.8675    1.6055 N   0  0  0  0  0  0  0  0  0  0  0  0
    0.8092    1.2861    2.0537 H   0  0  0  0  0  0  0  0  0  0  0  0
    0.0509    3.2769    1.9894 C   0  0  0  0  0  0  0  0  0  0  0  0
   -0.9494    3.5076    2.3640 H   0  0  0  0  0  0  0  0  0  0  0  0
    0.7844    3.4956    2.7668 H   0  0  0  0  0  0  0  0  0  0  0  0
    0.2468    3.9058    1.1193 H   0  0  0  0  0  0  0  0  0  0  0  0
  5  6  2  0  0  0  0
  5  7  1  0  0  0  0
  2  3  1  0  0  0  0
  2  4  1  0  0  0  0
  2  5  1  0  0  0  0
  1  2  1  0  0  0  0
 22 23  2  0  0  0  0
 22 24  1  0  0  0  0
 19 20  1  0  0  0  0
 19 21  1  0  0  0  0
 17 18  2  0  0  0  0
 17 19  1  0  0  0  0
 14 15  1  0  0  0  0
 14 16  1  0  0  0  0
 14 17  1  0  0  0  0
 11 12  1  0  0  0  0
 11 13  1  0  0  0  0
 11 14  1  0  0  0  0
  9 10  1  0  0  0  0
  9 11  1  0  0  0  0
  9 22  1  0  0  0  0
  7  8  1  0  0  0  0
  7  9  1  0  0  0  0
 26 27  1  0  0  0  0
 26 28  1  0  0  0  0
 26 29  1  0  0  0  0
 24 25  1  0  0  0  0
 24 26  1  0  0  0  0
M  END
$$$$
default_name
  -OEChem-02102213163D

 29 28  0     1  0  0  0  0  0999 V2000
   -3.3998   -3.6239    1.3678 H   0  0  0  0  0  0  0  0  0  0  0  0
   -3.3608   -2.6749    0.8348 C   0  0  0  0  0  0  0  0  0  0  0  0
   -4.0988   -1.9909    1.2498 H   0  0  0  0  0  0  0  0  0  0  0  0
   -3.5618   -2.8419   -0.2222 H   0  0  0  0  0  0  0  0  0  0  0  0
   -1.9818   -2.0809    0.9918 C   0  0  0  0  0  0  0  0  0  0  0  0
   -1.1288   -2.6669    1.6468 O   0  0  0  0  0  0  0  0  0  0  0  0
   -1.7648   -0.9089    0.3998 N   0  0  0  0  0  0  0  0  0  0  0  0
   -2.5238   -0.4719   -0.1032 H   0  0  0  0  0  0  0  0  0  0  0  0
   -0.4848   -0.1959    0.4138 C   0  0  1  0  0  0  0  0  0  0  0  0
    0.1386   -0.6144    1.2058 H   0  0  0  0  0  0  0  0  0  0  0  0
    0.2271   -0.4272   -0.9334 C   0  0  0  0  0  0  0  0  0  0  0  0
    1.0323   -1.1480   -0.7770 H   0  0  0  0  0  0  0  0  0  0  0  0
   -0.4823   -0.8568   -1.6423 H   0  0  0  0  0  0  0  0  0  0  0  0
    0.8308    0.8489   -1.5455 C   0  0  0  0  0  0  0  0  0  0  0  0
    1.3666    1.4063   -0.7775 H   0  0  0  0  0  0  0  0  0  0  0  0
    1.5362    0.5668   -2.3270 H   0  0  0  0  0  0  0  0  0  0  0  0
   -0.2185    1.7771   -2.1570 C   0  0  0  0  0  0  0  0  0  0  0  0
   -1.4013    1.4992   -2.2219 O   0  0  0  0  0  0  0  0  0  0  0  0
    0.1742    2.9396   -2.6310 N   0  0  0  0  0  0  0  0  0  0  0  0
   -0.5566    3.5095   -3.0202 H   0  0  0  0  0  0  0  0  0  0  0  0
    1.1338    3.2189   -2.6004 H   0  0  0  0  0  0  0  0  0  0  0  0
   -0.7011    1.2952    0.7149 C   0  0  0  0  0  0  0  0  0  0  0  0
   -1.5917    1.9198    0.1415 O   0  0  0  0  0  0  0  0  0  0  0  0
    0.1191    1.8675    1.6055 N   0  0  0  0  0  0  0  0  0  0  0  0
    0.8092    1.2861    2.0537 H   0  0  0  0  0  0  0  0  0  0  0  0
    0.0509    3.2769    1.9894 C   0  0  0  0  0  0  0  0  0  0  0  0
   -0.9494    3.5076    2.3640 H   0  0  0  0  0  0  0  0  0  0  0  0
    0.7844    3.4956    2.7668 H   0  0  0  0  0  0  0  0  0  0  0  0
    0.2468    3.9058    1.1193 H   0  0  0  0  0  0  0  0  0  0  0  0
  5  6  2  0  0  0  0
  5  7  1  0  0  0  0
  2  3  1  0  0  0  0
  2  4  1  0  0  0  0
  2  5  1  0  0  0  0
  1  2  1  0  0  0  0
 22 23  2  0  0  0  0
 22 24  1  0  0  0  0
 19 20  1  0  0  0  0
 19 21  1  0  0  0  0
 17 18  2  0  0  0  0
 17 19  1  0  0  0  0
 14 15  1  0  0  0  0
 14 16  1  0  0  0  0
 14 17  1  0  0  0  0
 11 12  1  0  0  0  0
 11 13  1  0  0  0  0
 11 14  1  0  0  0  0
  9 10  1  0  0  0  0
  9 11  1  0  0  0  0
  9 22  1  0  0  0  0
  7  8  1  0  0  0  0
  7  9  1  0  0  0  0
 26 27  1  0  0  0  0
 26 28  1  0  0  0  0
 26 29  1  0  0  0  0
 24 25  1  0  0  0  0
 24 26  1  0  0  0  0
M  END
$$$$
default_name
  -OEChem-02102213163D

 29 28  0     1  0  0  0  0  0999 V2000
   -3.3998   -3.6239    1.3678 H   0  0  0  0  0  0  0  0  0  0  0  0
   -3.3608   -2.6749    0.8348 C   0  0  0  0  0  0  0  0  0  0  0  0
   -4.0988   -1.9909    1.2498 H   0  0  0  0  0  0  0  0  0  0  0  0
   -3.5618   -2.8419   -0.2222 H   0  0  0  0  0  0  0  0  0  0  0  0
   -1.9818   -2.0809    0.9918 C   0  0  0  0  0  0  0  0  0  0  0  0
   -1.1288   -2.6669    1.6468 O   0  0  0  0  0  0  0  0  0  0  0  0
   -1.7648   -0.9089    0.3998 N   0  0  0  0  0  0  0  0  0  0  0  0
   -2.5238   -0.4719   -0.1032 H   0  0  0  0  0  0  0  0  0  0  0  0
   -0.4848   -0.1959    0.4138 C   0  0  1  0  0  0  0  0  0  0  0  0
    0.1386   -0.6144    1.2058 H   0  0  0  0  0  0  0  0  0  0  0  0
    0.2271   -0.4272   -0.9334 C   0  0  0  0  0  0  0  0  0  0  0  0
    1.0323   -1.1480   -0.7770 H   0  0  0  0  0  0  0  0  0  0  0  0
   -0.4823   -0.8568   -1.6423 H   0  0  0  0  0  0  0  0  0  0  0  0
    0.8308    0.8489   -1.5455 C   0  0  0  0  0  0  0  0  0  0  0  0
    1.5755    1.2646   -0.8671 H   0  0  0  0  0  0  0  0  0  0  0  0
    1.3201    0.5932   -2.4853 H   0  0  0  0  0  0  0  0  0  0  0  0
   -0.2104    1.9326   -1.8248 C   0  0  0  0  0  0  0  0  0  0  0  0
   -1.4044    1.7736   -1.6528 O   0  0  0  0  0  0  0  0  0  0  0  0
    0.2043    3.1001   -2.2666 N   0  0  0  0  0  0  0  0  0  0  0  0
   -0.5219    3.7750   -2.4325 H   0  0  0  0  0  0  0  0  0  0  0  0
    1.1745    3.2848   -2.4227 H   0  0  0  0  0  0  0  0  0  0  0  0
   -0.7011    1.2952    0.7149 C   0  0  0  0  0  0  0  0  0  0  0  0
   -1.5917    1.9198    0.1415 O   0  0  0  0  0  0  0  0  0  0  0  0
    0.1191    1.8675    1.6055 N   0  0  0  0  0  0  0  0  0  0  0  0
    0.8092    1.2861    2.0537 H   0  0  0  0  0  0  0  0  0  0  0  0
    0.0509    3.2769    1.9894 C   0  0  0  0  0  0  0  0  0  0  0  0
   -0.9494    3.5076    2.3640 H   0  0  0  0  0  0  0  0  0  0  0  0
    0.7844    3.4956    2.7668 H   0  0  0  0  0  0  0  0  0  0  0  0
    0.2468    3.9058    1.1193 H   0  0  0  0  0  0  0  0  0  0  0  0
  5  6  2  0  0  0  0
  5  7  1  0  0  0  0
  2  3  1  0  0  0  0
  2  4  1  0  0  0  0
  2  5  1  0  0  0  0
  1  2  1  0  0  0  0
 22 23  2  0  0  0  0
 22 24  1  0  0  0  0
 19 20  1  0  0  0  0
 19 21  1  0  0  0  0
 17 18  2  0  0  0  0
 17 19  1  0  0  0  0
 14 15  1  0  0  0  0
 14 16  1  0  0  0  0
 14 17  1  0  0  0  0
 11 12  1  0  0  0  0
 11 13  1  0  0  0  0
 11 14  1  0  0  0  0
  9 10  1  0  0  0  0
  9 11  1  0  0  0  0
  9 22  1  0  0  0  0
  7  8  1  0  0  0  0
  7  9  1  0  0  0  0
 26 27  1  0  0  0  0
 26 28  1  0  0  0  0
 26 29  1  0  0  0  0
 24 25  1  0  0  0  0
 24 26  1  0  0  0  0
M  END
$$$$
default_name
  -OEChem-02102213163D

 29 28  0     1  0  0  0  0  0999 V2000
   -3.3998   -3.6239    1.3678 H   0  0  0  0  0  0  0  0  0  0  0  0
   -3.3608   -2.6749    0.8348 C   0  0  0  0  0  0  0  0  0  0  0  0
   -4.0988   -1.9909    1.2498 H   0  0  0  0  0  0  0  0  0  0  0  0
   -3.5618   -2.8419   -0.2222 H   0  0  0  0  0  0  0  0  0  0  0  0
   -1.9818   -2.0809    0.9918 C   0  0  0  0  0  0  0  0  0  0  0  0
   -1.1288   -2.6669    1.6468 O   0  0  0  0  0  0  0  0  0  0  0  0
   -1.7648   -0.9089    0.3998 N   0  0  0  0  0  0  0  0  0  0  0  0
   -2.5238   -0.4719   -0.1032 H   0  0  0  0  0  0  0  0  0  0  0  0
   -0.4848   -0.1959    0.4138 C   0  0  1  0  0  0  0  0  0  0  0  0
    0.1386   -0.6144    1.2058 H   0  0  0  0  0  0  0  0  0  0  0  0
    0.2271   -0.4272   -0.9334 C   0  0  0  0  0  0  0  0  0  0  0  0
    1.0323   -1.1480   -0.7770 H   0  0  0  0  0  0  0  0  0  0  0  0
   -0.4823   -0.8568   -1.6423 H   0  0  0  0  0  0  0  0  0  0  0  0
    0.8308    0.8489   -1.5455 C   0  0  0  0  0  0  0  0  0  0  0  0
    1.7435    1.1152   -1.0128 H   0  0  0  0  0  0  0  0  0  0  0  0
    1.0801    0.6570   -2.5890 H   0  0  0  0  0  0  0  0  0  0  0  0
   -0.1153    2.0482   -1.4899 C   0  0  0  0  0  0  0  0  0  0  0  0
   -1.2570    1.9812   -1.0745 O   0  0  0  0  0  0  0  0  0  0  0  0
    0.3282    3.2150   -1.9048 N   0  0  0  0  0  0  0  0  0  0  0  0
   -0.3349    3.9682   -1.8452 H   0  0  0  0  0  0  0  0  0  0  0  0
    1.2587    3.3263   -2.2532 H   0  0  0  0  0  0  0  0  0  0  0  0
   -0.7011    1.2952    0.7149 C   0  0  0  0  0  0  0  0  0  0  0  0
   -1.5917    1.9198    0.1415 O   0  0  0  0  0  0  0  0  0  0  0  0
    0.1191    1.8675    1.6055 N   0  0  0  0  0  0  0  0  0  0  0  0
    0.8092    1.2861    2.0537 H   0  0  0  0  0  0  0  0  0  0  0  0
    0.0509    3.2769    1.9894 C   0  0  0  0  0  0  0  0  0  0  0  0
   -0.9494    3.5076    2.3640 H   0  0  0  0  0  0  0  0  0  0  0  0
    0.7844    3.4956    2.7668 H   0  0  0  0  0  0  0  0  0  0  0  0
    0.2468    3.9058    1.1193 H   0  0  0  0  0  0  0  0  0  0  0  0
  5  6  2  0  0  0  0
  5  7  1  0  0  0  0
  2  3  1  0  0  0  0
  2  4  1  0  0  0  0
  2  5  1  0  0  0  0
  1  2  1  0  0  0  0
 22 23  2  0  0  0  0
 22 24  1  0  0  0  0
 19 20  1  0  0  0  0
 19 21  1  0  0  0  0
 17 18  2  0  0  0  0
 17 19  1  0  0  0  0
 14 15  1  0  0  0  0
 14 16  1  0  0  0  0
 14 17  1  0  0  0  0
 11 12  1  0  0  0  0
 11 13  1  0  0  0  0
 11 14  1  0  0  0  0
  9 10  1  0  0  0  0
  9 11  1  0  0  0  0
  9 22  1  0  0  0  0
  7  8  1  0  0  0  0
  7  9  1  0  0  0  0
 26 27  1  0  0  0  0
 26 28  1  0  0  0  0
 26 29  1  0  0  0  0
 24 25  1  0  0  0  0
 24 26  1  0  0  0  0
M  END
$$$$
default_name
  -OEChem-02102213163D

 29 28  0     1  0  0  0  0  0999 V2000
   -3.3998   -3.6239    1.3678 H   0  0  0  0  0  0  0  0  0  0  0  0
   -3.3608   -2.6749    0.8348 C   0  0  0  0  0  0  0  0  0  0  0  0
   -4.0988   -1.9909    1.2498 H   0  0  0  0  0  0  0  0  0  0  0  0
   -3.5618   -2.8419   -0.2222 H   0  0  0  0  0  0  0  0  0  0  0  0
   -1.9818   -2.0809    0.9918 C   0  0  0  0  0  0  0  0  0  0  0  0
   -1.1288   -2.6669    1.6468 O   0  0  0  0  0  0  0  0  0  0  0  0
   -1.7648   -0.9089    0.3998 N   0  0  0  0  0  0  0  0  0  0  0  0
   -2.5238   -0.4719   -0.1032 H   0  0  0  0  0  0  0  0  0  0  0  0
   -0.4848   -0.1959    0.4138 C   0  0  1  0  0  0  0  0  0  0  0  0
    0.1386   -0.6144    1.2058 H   0  0  0  0  0  0  0  0  0  0  0  0
    0.2271   -0.4272   -0.9334 C   0  0  0  0  0  0  0  0  0  0  0  0
    1.0323   -1.1480   -0.7770 H   0  0  0  0  0  0  0  0  0  0  0  0
   -0.4823   -0.8568   -1.6423 H   0  0  0  0  0  0  0  0  0  0  0  0
    0.8308    0.8489   -1.5455 C   0  0  0  0  0  0  0  0  0  0  0  0
    1.8590    0.9685   -1.2048 H   0  0  0  0  0  0  0  0  0  0  0  0
    0.8326    0.7538   -2.6313 H   0  0  0  0  0  0  0  0  0  0  0  0
    0.0604    2.1161   -1.1751 C   0  0  0  0  0  0  0  0  0  0  0  0
   -0.9691    2.1079   -0.5265 O   0  0  0  0  0  0  0  0  0  0  0  0
    0.5373    3.2766   -1.5703 N   0  0  0  0  0  0  0  0  0  0  0  0
   -0.0083    4.0759   -1.2985 H   0  0  0  0  0  0  0  0  0  0  0  0
    1.3808    3.3404   -2.1033 H   0  0  0  0  0  0  0  0  0  0  0  0
   -0.7011    1.2952    0.7149 C   0  0  0  0  0  0  0  0  0  0  0  0
   -1.5917    1.9198    0.1415 O   0  0  0  0  0  0  0  0  0  0  0  0
    0.1191    1.8675    1.6055 N   0  0  0  0  0  0  0  0  0  0  0  0
    0.8092    1.2861    2.0537 H   0  0  0  0  0  0  0  0  0  0  0  0
    0.0509    3.2769    1.9894 C   0  0  0  0  0  0  0  0  0  0  0  0
   -0.9494    3.5076    2.3640 H   0  0  0  0  0  0  0  0  0  0  0  0
    0.7844    3.4956    2.7668 H   0  0  0  0  0  0  0  0  0  0  0  0
    0.2468    3.9058    1.1193 H   0  0  0  0  0  0  0  0  0  0  0  0
  5  6  2  0  0  0  0
  5  7  1  0  0  0  0
  2  3  1  0  0  0  0
  2  4  1  0  0  0  0
  2  5  1  0  0  0  0
  1  2  1  0  0  0  0
 22 23  2  0  0  0  0
 22 24  1  0  0  0  0
 19 20  1  0  0  0  0
 19 21  1  0  0  0  0
 17 18  2  0  0  0  0
 17 19  1  0  0  0  0
 14 15  1  0  0  0  0
 14 16  1  0  0  0  0
 14 17  1  0  0  0  0
 11 12  1  0  0  0  0
 11 13  1  0  0  0  0
 11 14  1  0  0  0  0
  9 10  1  0  0  0  0
  9 11  1  0  0  0  0
  9 22  1  0  0  0  0
  7  8  1  0  0  0  0
  7  9  1  0  0  0  0
 26 27  1  0  0  0  0
 26 28  1  0  0  0  0
 26 29  1  0  0  0  0
 24 25  1  0  0  0  0
 24 26  1  0  0  0  0
M  END
$$$$
default_name
  -OEChem-02102213163D

 29 28  0     1  0  0  0  0  0999 V2000
   -3.3998   -3.6239    1.3678 H   0  0  0  0  0  0  0  0  0  0  0  0
   -3.3608   -2.6749    0.8348 C   0  0  0  0  0  0  0  0  0  0  0  0
   -4.0988   -1.9909    1.2498 H   0  0  0  0  0  0  0  0  0  0  0  0
   -3.5618   -2.8419   -0.2222 H   0  0  0  0  0  0  0  0  0  0  0  0
   -1.9818   -2.0809    0.9918 C   0  0  0  0  0  0  0  0  0  0  0  0
   -1.1288   -2.6669    1.6468 O   0  0  0  0  0  0  0  0  0  0  0  0
   -1.7648   -0.9089    0.3998 N   0  0  0  0  0  0  0  0  0  0  0  0
   -2.5238   -0.4719   -0.1032 H   0  0  0  0  0  0  0  0  0  0  0  0
   -0.4848   -0.1959    0.4138 C   0  0  1  0  0  0  0  0  0  0  0  0
    0.1386   -0.6144    1.2058 H   0  0  0  0  0  0  0  0  0  0  0  0
    0.2271   -0.4272   -0.9334 C   0  0  0  0  0  0  0  0  0  0  0  0
    1.0323   -1.1480   -0.7770 H   0  0  0  0  0  0  0  0  0  0  0  0
   -0.4823   -0.8568   -1.6423 H   0  0  0  0  0  0  0  0  0  0  0  0
    0.8308    0.8489   -1.5455 C   0  0  0  0  0  0  0  0  0  0  0  0
    1.9143    0.8343   -1.4300 H   0  0  0  0  0  0  0  0  0  0  0  0
    0.5944    0.8771   -2.6091 H   0  0  0  0  0  0  0  0  0  0  0  0
    0.3046    2.1317   -0.9018 C   0  0  0  0  0  0  0  0  0  0  0  0
   -0.5603    2.1449   -0.0461 O   0  0  0  0  0  0  0  0  0  0  0  0
    0.8174    3.2805   -1.2858 N   0  0  0  0  0  0  0  0  0  0  0  0
    0.4356    4.0909   -0.8296 H   0  0  0  0  0  0  0  0  0  0  0  0
    1.5323    3.3263   -1.9833 H   0  0  0  0  0  0  0  0  0  0  0  0
   -0.7011    1.2952    0.7149 C   0  0  0  0  0  0  0  0  0  0  0  0
   -1.5917    1.9198    0.1415 O   0  0  0  0  0  0  0  0  0  0  0  0
    0.1191    1.8675    1.6055 N   0  0  0  0  0  0  0  0  0  0  0  0
    0.8092    1.2861    2.0537 H   0  0  0  0  0  0  0  0  0  0  0  0
    0.0509    3.2769    1.9894 C   0  0  0  0  0  0  0  0  0  0  0  0
   -0.9494    3.5076    2.3640 H   0  0  0  0  0  0  0  0  0  0  0  0
    0.7844    3.4956    2.7668 H   0  0  0  0  0  0  0  0  0  0  0  0
    0.2468    3.9058    1.1193 H   0  0  0  0  0  0  0  0  0  0  0  0
  5  6  2  0  0  0  0
  5  7  1  0  0  0  0
  2  3  1  0  0  0  0
  2  4  1  0  0  0  0
  2  5  1  0  0  0  0
  1  2  1  0  0  0  0
 22 23  2  0  0  0  0
 22 24  1  0  0  0  0
 19 20  1  0  0  0  0
 19 21  1  0  0  0  0
 17 18  2  0  0  0  0
 17 19  1  0  0  0  0
 14 15  1  0  0  0  0
 14 16  1  0  0  0  0
 14 17  1  0  0  0  0
 11 12  1  0  0  0  0
 11 13  1  0  0  0  0
 11 14  1  0  0  0  0
  9 10  1  0  0  0  0
  9 11  1  0  0  0  0
  9 22  1  0  0  0  0
  7  8  1  0  0  0  0
  7  9  1  0  0  0  0
 26 27  1  0  0  0  0
 26 28  1  0  0  0  0
 26 29  1  0  0  0  0
 24 25  1  0  0  0  0
 24 26  1  0  0  0  0
M  END
$$$$
default_name
  -OEChem-02102213163D

 29 28  0     1  0  0  0  0  0999 V2000
   -3.3998   -3.6239    1.3678 H   0  0  0  0  0  0  0  0  0  0  0  0
   -3.3608   -2.6749    0.8348 C   0  0  0  0  0  0  0  0  0  0  0  0
   -4.0988   -1.9909    1.2498 H   0  0  0  0  0  0  0  0  0  0  0  0
   -3.5618   -2.8419   -0.2222 H   0  0  0  0  0  0  0  0  0  0  0  0
   -1.9818   -2.0809    0.9918 C   0  0  0  0  0  0  0  0  0  0  0  0
   -1.1288   -2.6669    1.6468 O   0  0  0  0  0  0  0  0  0  0  0  0
   -1.7648   -0.9089    0.3998 N   0  0  0  0  0  0  0  0  0  0  0  0
   -2.5238   -0.4719   -0.1032 H   0  0  0  0  0  0  0  0  0  0  0  0
   -0.4848   -0.1959    0.4138 C   0  0  1  0  0  0  0  0  0  0  0  0
    0.1386   -0.6144    1.2058 H   0  0  0  0  0  0  0  0  0  0  0  0
    0.2271   -0.4272   -0.9334 C   0  0  0  0  0  0  0  0  0  0  0  0
    1.0323   -1.1480   -0.7770 H   0  0  0  0  0  0  0  0  0  0  0  0
   -0.4823   -0.8568   -1.6423 H   0  0  0  0  0  0  0  0  0  0  0  0
    0.8308    0.8489   -1.5455 C   0  0  0  0  0  0  0  0  0  0  0  0
    1.9056    0.7219   -1.6729 H   0  0  0  0  0  0  0  0  0  0  0  0
    0.3817    1.0185   -2.5240 H   0  0  0  0  0  0  0  0  0  0  0  0
    0.6008    2.0938   -0.6887 C   0  0  0  0  0  0  0  0  0  0  0  0
   -0.0586    2.0898    0.3339 O   0  0  0  0  0  0  0  0  0  0  0  0
    1.1495    3.2266   -1.0707 N   0  0  0  0  0  0  0  0  0  0  0  0
    0.9666    4.0119   -0.4704 H   0  0  0  0  0  0  0  0  0  0  0  0
    1.7030    3.2849   -1.9013 H   0  0  0  0  0  0  0  0  0  0  0  0
   -0.7011    1.2952    0.7149 C   0  0  0  0  0  0  0  0  0  0  0  0
   -1.5917    1.9198    0.1415 O   0  0  0  0  0  0  0  0  0  0  0  0
    0.1191    1.8675    1.6055 N   0  0  0  0  0  0  0  0  0  0  0  0
    0.8092    1.2861    2.0537 H   0  0  0  0  0  0  0  0  0  0  0  0
    0.0509    3.2769    1.9894 C   0  0  0  0  0  0  0  0  0  0  0  0
   -0.9494    3.5076    2.3640 H   0  0  0  0  0  0  0  0  0  0  0  0
    0.7844    3.4956    2.7668 H   0  0  0  0  0  0  0  0  0  0  0  0
    0.2468    3.9058    1.1193 H   0  0  0  0  0  0  0  0  0  0  0  0
  5  6  2  0  0  0  0
  5  7  1  0  0  0  0
  2  3  1  0  0  0  0
  2  4  1  0  0  0  0
  2  5  1  0  0  0  0
  1  2  1  0  0  0  0
 22 23  2  0  0  0  0
 22 24  1  0  0  0  0
 19 20  1  0  0  0  0
 19 21  1  0  0  0  0
 17 18  2  0  0  0  0
 17 19  1  0  0  0  0
 14 15  1  0  0  0  0
 14 16  1  0  0  0  0
 14 17  1  0  0  0  0
 11 12  1  0  0  0  0
 11 13  1  0  0  0  0
 11 14  1  0  0  0  0
  9 10  1  0  0  0  0
  9 11  1  0  0  0  0
  9 22  1  0  0  0  0
  7  8  1  0  0  0  0
  7  9  1  0  0  0  0
 26 27  1  0  0  0  0
 26 28  1  0  0  0  0
 26 29  1  0  0  0  0
 24 25  1  0  0  0  0
 24 26  1  0  0  0  0
M  END
$$$$
default_name
  -OEChem-02102213163D

 29 28  0     1  0  0  0  0  0999 V2000
   -3.3998   -3.6239    1.3678 H   0  0  0  0  0  0  0  0  0  0  0  0
   -3.3608   -2.6749    0.8348 C   0  0  0  0  0  0  0  0  0  0  0  0
   -4.0988   -1.9909    1.2498 H   0  0  0  0  0  0  0  0  0  0  0  0
   -3.5618   -2.8419   -0.2222 H   0  0  0  0  0  0  0  0  0  0  0  0
   -1.9818   -2.0809    0.9918 C   0  0  0  0  0  0  0  0  0  0  0  0
   -1.1288   -2.6669    1.6468 O   0  0  0  0  0  0  0  0  0  0  0  0
   -1.7648   -0.9089    0.3998 N   0  0  0  0  0  0  0  0  0  0  0  0
   -2.5238   -0.4719   -0.1032 H   0  0  0  0  0  0  0  0  0  0  0  0
   -0.4848   -0.1959    0.4138 C   0  0  1  0  0  0  0  0  0  0  0  0
    0.1386   -0.6144    1.2058 H   0  0  0  0  0  0  0  0  0  0  0  0
    0.2271   -0.4272   -0.9334 C   0  0  0  0  0  0  0  0  0  0  0  0
    1.0323   -1.1480   -0.7770 H   0  0  0  0  0  0  0  0  0  0  0  0
   -0.4823   -0.8568   -1.6423 H   0  0  0  0  0  0  0  0  0  0  0  0
    0.8308    0.8489   -1.5455 C   0  0  0  0  0  0  0  0  0  0  0  0
    1.8335    0.6389   -1.9172 H   0  0  0  0  0  0  0  0  0  0  0  0
    0.2092    1.1683   -2.3819 H   0  0  0  0  0  0  0  0  0  0  0  0
    0.9288    2.0050   -0.5503 C   0  0  0  0  0  0  0  0  0  0  0  0
    0.5020    1.9463    0.5877 O   0  0  0  0  0  0  0  0  0  0  0  0
    1.5108    3.1185   -0.9397 N   0  0  0  0  0  0  0  0  0  0  0  0
    1.5484    3.8446   -0.2455 H   0  0  0  0  0  0  0  0  0  0  0  0
    1.8811    3.2190   -1.8630 H   0  0  0  0  0  0  0  0  0  0  0  0
   -0.7011    1.2952    0.7149 C   0  0  0  0  0  0  0  0  0  0  0  0
   -1.5917    1.9198    0.1415 O   0  0  0  0  0  0  0  0  0  0  0  0
    0.1191    1.8675    1.6055 N   0  0  0  0  0  0  0  0  0  0  0  0
    0.8092    1.2861    2.0537 H   0  0  0  0  0  0  0  0  0  0  0  0
    0.0509    3.2769    1.9894 C   0  0  0  0  0  0  0  0  0  0  0  0
   -0.9494    3.5076    2.3640 H   0  0  0  0  0  0  0  0  0  0  0  0
    0.7844    3.4956    2.7668 H   0  0  0  0  0  0  0  0  0  0  0  0
    0.2468    3.9058    1.1193 H   0  0  0  0  0  0  0  0  0  0  0  0
  5  6  2  0  0  0  0
  5  7  1  0  0  0  0
  2  3  1  0  0  0  0
  2  4  1  0  0  0  0
  2  5  1  0  0  0  0
  1  2  1  0  0  0  0
 22 23  2  0  0  0  0
 22 24  1  0  0  0  0
 19 20  1  0  0  0  0
 19 21  1  0  0  0  0
 17 18  2  0  0  0  0
 17 19  1  0  0  0  0
 14 15  1  0  0  0  0
 14 16  1  0  0  0  0
 14 17  1  0  0  0  0
 11 12  1  0  0  0  0
 11 13  1  0  0  0  0
 11 14  1  0  0  0  0
  9 10  1  0  0  0  0
  9 11  1  0  0  0  0
  9 22  1  0  0  0  0
  7  8  1  0  0  0  0
  7  9  1  0  0  0  0
 26 27  1  0  0  0  0
 26 28  1  0  0  0  0
 26 29  1  0  0  0  0
 24 25  1  0  0  0  0
 24 26  1  0  0  0  0
M  END
$$$$
default_name
  -OEChem-02102213163D

 29 28  0     1  0  0  0  0  0999 V2000
   -3.3998   -3.6239    1.3678 H   0  0  0  0  0  0  0  0  0  0  0  0
   -3.3608   -2.6749    0.8348 C   0  0  0  0  0  0  0  0  0  0  0  0
   -4.0988   -1.9909    1.2498 H   0  0  0  0  0  0  0  0  0  0  0  0
   -3.5618   -2.8419   -0.2222 H   0  0  0  0  0  0  0  0  0  0  0  0
   -1.9818   -2.0809    0.9918 C   0  0  0  0  0  0  0  0  0  0  0  0
   -1.1288   -2.6669    1.6468 O   0  0  0  0  0  0  0  0  0  0  0  0
   -1.7648   -0.9089    0.3998 N   0  0  0  0  0  0  0  0  0  0  0  0
   -2.5238   -0.4719   -0.1032 H   0  0  0  0  0  0  0  0  0  0  0  0
   -0.4848   -0.1959    0.4138 C   0  0  1  0  0  0  0  0  0  0  0  0
    0.1386   -0.6144    1.2058 H   0  0  0  0  0  0  0  0  0  0  0  0
    0.2271   -0.4272   -0.9334 C   0  0  0  0  0  0  0  0  0  0  0  0
    1.0323   -1.1480   -0.7770 H   0  0  0  0  0  0  0  0  0  0  0  0
   -0.4823   -0.8568   -1.6423 H   0  0  0  0  0  0  0  0  0  0  0  0
    0.8308    0.8489   -1.5455 C   0  0  0  0  0  0  0  0  0  0  0  0
    1.7028    0.5909   -2.1460 H   0  0  0  0  0  0  0  0  0  0  0  0
    0.0884    1.3164   -2.1923 H   0  0  0  0  0  0  0  0  0  0  0  0
    1.2661    1.8715   -0.4960 C   0  0  0  0  0  0  0  0  0  0  0  0
    1.0832    1.7243    0.6979 O   0  0  0  0  0  0  0  0  0  0  0  0
    1.8769    2.9635   -0.9017 N   0  0  0  0  0  0  0  0  0  0  0  0
    2.1415    3.6002   -0.1701 H   0  0  0  0  0  0  0  0  0  0  0  0
    2.0547    3.1331   -1.8709 H   0  0  0  0  0  0  0  0  0  0  0  0
   -0.7011    1.2952    0.7149 C   0  0  0  0  0  0  0  0  0  0  0  0
   -1.5917    1.9198    0.1415 O   0  0  0  0  0  0  0  0  0  0  0  0
    0.1191    1.8675    1.6055 N   0  0  0  0  0  0  0  0  0  0  0  0
    0.8092    1.2861    2.0537 H   0  0  0  0  0  0  0  0  0  0  0  0
    0.0509    3.2769    1.9894 C   0  0  0  0  0  0  0  0  0  0  0  0
   -0.9494    3.5076    2.3640 H   0  0  0  0  0  0  0  0  0  0  0  0
    0.7844    3.4956    2.7668 H   0  0  0  0  0  0  0  0  0  0  0  0
    0.2468    3.9058    1.1193 H   0  0  0  0  0  0  0  0  0  0  0  0
  5  6  2  0  0  0  0
  5  7  1  0  0  0  0
  2  3  1  0  0  0  0
  2  4  1  0  0  0  0
  2  5  1  0  0  0  0
  1  2  1  0  0  0  0
 22 23  2  0  0  0  0
 22 24  1  0  0  0  0
 19 20  1  0  0  0  0
 19 21  1  0  0  0  0
 17 18  2  0  0  0  0
 17 19  1  0  0  0  0
 14 15  1  0  0  0  0
 14 16  1  0  0  0  0
 14 17  1  0  0  0  0
 11 12  1  0  0  0  0
 11 13  1  0  0  0  0
 11 14  1  0  0  0  0
  9 10  1  0  0  0  0
  9 11  1  0  0  0  0
  9 22  1  0  0  0  0
  7  8  1  0  0  0  0
  7  9  1  0  0  0  0
 26 27  1  0  0  0  0
 26 28  1  0  0  0  0
 26 29  1  0  0  0  0
 24 25  1  0  0  0  0
 24 26  1  0  0  0  0
M  END
$$$$
default_name
  -OEChem-02102213163D

 29 28  0     1  0  0  0  0  0999 V2000
   -3.3998   -3.6239    1.3678 H   0  0  0  0  0  0  0  0  0  0  0  0
   -3.3608   -2.6749    0.8348 C   0  0  0  0  0  0  0  0  0  0  0  0
   -4.0988   -1.9909    1.2498 H   0  0  0  0  0  0  0  0  0  0  0  0
   -3.5618   -2.8419   -0.2222 H   0  0  0  0  0  0  0  0  0  0  0  0
   -1.9818   -2.0809    0.9918 C   0  0  0  0  0  0  0  0  0  0  0  0
   -1.1288   -2.6669    1.6468 O   0  0  0  0  0  0  0  0  0  0  0  0
   -1.7648   -0.9089    0.3998 N   0  0  0  0  0  0  0  0  0  0  0  0
   -2.5238   -0.4719   -0.1032 H   0  0  0  0  0  0  0  0  0  0  0  0
   -0.4848   -0.1959    0.4138 C   0  0  1  0  0  0  0  0  0  0  0  0
    0.1386   -0.6144    1.2058 H   0  0  0  0  0  0  0  0  0  0  0  0
    0.2271   -0.4272   -0.9334 C   0  0  0  0  0  0  0  0  0  0  0  0
    1.0323   -1.1480   -0.7770 H   0  0  0  0  0  0  0  0  0  0  0  0
   -0.4823   -0.8568   -1.6423 H   0  0  0  0  0  0  0  0  0  0  0  0
    0.8308    0.8489   -1.5455 C   0  0  0  0  0  0  0  0  0  0  0  0
    1.5225    0.5813   -2.3439 H   0  0  0  0  0  0  0  0  0  0  0  0
    0.0278    1.4525   -1.9682 H   0  0  0  0  0  0  0  0  0  0  0  0
    1.5899    1.7022   -0.5295 C   0  0  0  0  0  0  0  0  0  0  0  0
    1.6454    1.4387    0.6571 O   0  0  0  0  0  0  0  0  0  0  0  0
    2.2226    2.7723   -0.9593 N   0  0  0  0  0  0  0  0  0  0  0  0
    2.7054    3.2954   -0.2494 H   0  0  0  0  0  0  0  0  0  0  0  0
    2.2118    3.0331   -1.9245 H   0  0  0  0  0  0  0  0  0  0  0  0
   -0.7011    1.2952    0.7149 C   0  0  0  0  0  0  0  0  0  0  0  0
   -1.5917    1.9198    0.1415 O   0  0  0  0  0  0  0  0  0  0  0  0
    0.1191    1.8675    1.6055 N   0  0  0  0  0  0  0  0  0  0  0  0
    0.8092    1.2861    2.0537 H   0  0  0  0  0  0  0  0  0  0  0  0
    0.0509    3.2769    1.9894 C   0  0  0  0  0  0  0  0  0  0  0  0
   -0.9494    3.5076    2.3640 H   0  0  0  0  0  0  0  0  0  0  0  0
    0.7844    3.4956    2.7668 H   0  0  0  0  0  0  0  0  0  0  0  0
    0.2468    3.9058    1.1193 H   0  0  0  0  0  0  0  0  0  0  0  0
  5  6  2  0  0  0  0
  5  7  1  0  0  0  0
  2  3  1  0  0  0  0
  2  4  1  0  0  0  0
  2  5  1  0  0  0  0
  1  2  1  0  0  0  0
 22 23  2  0  0  0  0
 22 24  1  0  0  0  0
 19 20  1  0  0  0  0
 19 21  1  0  0  0  0
 17 18  2  0  0  0  0
 17 19  1  0  0  0  0
 14 15  1  0  0  0  0
 14 16  1  0  0  0  0
 14 17  1  0  0  0  0
 11 12  1  0  0  0  0
 11 13  1  0  0  0  0
 11 14  1  0  0  0  0
  9 10  1  0  0  0  0
  9 11  1  0  0  0  0
  9 22  1  0  0  0  0
  7  8  1  0  0  0  0
  7  9  1  0  0  0  0
 26 27  1  0  0  0  0
 26 28  1  0  0  0  0
 26 29  1  0  0  0  0
 24 25  1  0  0  0  0
 24 26  1  0  0  0  0
M  END
$$$$
default_name
  -OEChem-02102213163D

 29 28  0     1  0  0  0  0  0999 V2000
   -3.3998   -3.6239    1.3678 H   0  0  0  0  0  0  0  0  0  0  0  0
   -3.3608   -2.6749    0.8348 C   0  0  0  0  0  0  0  0  0  0  0  0
   -4.0988   -1.9909    1.2498 H   0  0  0  0  0  0  0  0  0  0  0  0
   -3.5618   -2.8419   -0.2222 H   0  0  0  0  0  0  0  0  0  0  0  0
   -1.9818   -2.0809    0.9918 C   0  0  0  0  0  0  0  0  0  0  0  0
   -1.1288   -2.6669    1.6468 O   0  0  0  0  0  0  0  0  0  0  0  0
   -1.7648   -0.9089    0.3998 N   0  0  0  0  0  0  0  0  0  0  0  0
   -2.5238   -0.4719   -0.1032 H   0  0  0  0  0  0  0  0  0  0  0  0
   -0.4848   -0.1959    0.4138 C   0  0  1  0  0  0  0  0  0  0  0  0
    0.1386   -0.6144    1.2058 H   0  0  0  0  0  0  0  0  0  0  0  0
    0.2271   -0.4272   -0.9334 C   0  0  0  0  0  0  0  0  0  0  0  0
    1.0323   -1.1480   -0.7770 H   0  0  0  0  0  0  0  0  0  0  0  0
   -0.4823   -0.8568   -1.6423 H   0  0  0  0  0  0  0  0  0  0  0  0
    0.8308    0.8489   -1.5455 C   0  0  0  0  0  0  0  0  0  0  0  0
    1.3049    0.6106   -2.4974 H   0  0  0  0  0  0  0  0  0  0  0  0
    0.0312    1.5676   -1.7250 H   0  0  0  0  0  0  0  0  0  0  0  0
    1.8780    1.5088   -0.6486 C   0  0  0  0  0  0  0  0  0  0  0  0
    2.1502    1.1092    0.4680 O   0  0  0  0  0  0  0  0  0  0  0  0
    2.5246    2.5579   -1.1086 N   0  0  0  0  0  0  0  0  0  0  0  0
    3.2016    2.9509   -0.4780 H   0  0  0  0  0  0  0  0  0  0  0  0
    2.3417    2.9257   -2.0201 H   0  0  0  0  0  0  0  0  0  0  0  0
   -0.7011    1.2952    0.7149 C   0  0  0  0  0  0  0  0  0  0  0  0
   -1.5917    1.9198    0.1415 O   0  0  0  0  0  0  0  0  0  0  0  0
    0.1191    1.8675    1.6055 N   0  0  0  0  0  0  0  0  0  0  0  0
    0.8092    1.2861    2.0537 H   0  0  0  0  0  0  0  0  0  0  0  0
    0.0509    3.2769    1.9894 C   0  0  0  0  0  0  0  0  0  0  0  0
   -0.9494    3.5076    2.3640 H   0  0  0  0  0  0  0  0  0  0  0  0
    0.7844    3.4956    2.7668 H   0  0  0  0  0  0  0  0  0  0  0  0
    0.2468    3.9058    1.1193 H   0  0  0  0  0  0  0  0  0  0  0  0
  5  6  2  0  0  0  0
  5  7  1  0  0  0  0
  2  3  1  0  0  0  0
  2  4  1  0  0  0  0
  2  5  1  0  0  0  0
  1  2  1  0  0  0  0
 22 23  2  0  0  0  0
 22 24  1  0  0  0  0
 19 20  1  0  0  0  0
 19 21  1  0  0  0  0
 17 18  2  0  0  0  0
 17 19  1  0  0  0  0
 14 15  1  0  0  0  0
 14 16  1  0  0  0  0
 14 17  1  0  0  0  0
 11 12  1  0  0  0  0
 11 13  1  0  0  0  0
 11 14  1  0  0  0  0
  9 10  1  0  0  0  0
  9 11  1  0  0  0  0
  9 22  1  0  0  0  0
  7  8  1  0  0  0  0
  7  9  1  0  0  0  0
 26 27  1  0  0  0  0
 26 28  1  0  0  0  0
 26 29  1  0  0  0  0
 24 25  1  0  0  0  0
 24 26  1  0  0  0  0
M  END
$$$$
default_name
  -OEChem-02102213163D

 29 28  0     1  0  0  0  0  0999 V2000
   -3.3998   -3.6239    1.3678 H   0  0  0  0  0  0  0  0  0  0  0  0
   -3.3608   -2.6749    0.8348 C   0  0  0  0  0  0  0  0  0  0  0  0
   -4.0988   -1.9909    1.2498 H   0  0  0  0  0  0  0  0  0  0  0  0
   -3.5618   -2.8419   -0.2222 H   0  0  0  0  0  0  0  0  0  0  0  0
   -1.9818   -2.0809    0.9918 C   0  0  0  0  0  0  0  0  0  0  0  0
   -1.1288   -2.6669    1.6468 O   0  0  0  0  0  0  0  0  0  0  0  0
   -1.7648   -0.9089    0.3998 N   0  0  0  0  0  0  0  0  0  0  0  0
   -2.5238   -0.4719   -0.1032 H   0  0  0  0  0  0  0  0  0  0  0  0
   -0.4848   -0.1959    0.4138 C   0  0  1  0  0  0  0  0  0  0  0  0
    0.1386   -0.6144    1.2058 H   0  0  0  0  0  0  0  0  0  0  0  0
    0.2271   -0.4272   -0.9334 C   0  0  0  0  0  0  0  0  0  0  0  0
    1.0323   -1.1480   -0.7770 H   0  0  0  0  0  0  0  0  0  0  0  0
   -0.4823   -0.8568   -1.6423 H   0  0  0  0  0  0  0  0  0  0  0  0
    0.8308    0.8489   -1.5455 C   0  0  0  0  0  0  0  0  0  0  0  0
    1.0648    0.6770   -2.5959 H   0  0  0  0  0  0  0  0  0  0  0  0
    0.0987    1.6536   -1.4790 H   0  0  0  0  0  0  0  0  0  0  0  0
    2.1108    1.3044   -0.8450 C   0  0  0  0  0  0  0  0  0  0  0  0
    2.5634    0.7581    0.1435 O   0  0  0  0  0  0  0  0  0  0  0  0
    2.7621    2.3348   -1.3394 N   0  0  0  0  0  0  0  0  0  0  0  0
    3.5965    2.5904   -0.8403 H   0  0  0  0  0  0  0  0  0  0  0  0
    2.4356    2.8184   -2.1513 H   0  0  0  0  0  0  0  0  0  0  0  0
   -0.7011    1.2952    0.7149 C   0  0  0  0  0  0  0  0  0  0  0  0
   -1.5917    1.9198    0.1415 O   0  0  0  0  0  0  0  0  0  0  0  0
    0.1191    1.8675    1.6055 N   0  0  0  0  0  0  0  0  0  0  0  0
    0.8092    1.2861    2.0537 H   0  0  0  0  0  0  0  0  0  0  0  0
    0.0509    3.2769    1.9894 C   0  0  0  0  0  0  0  0  0  0  0  0
   -0.9494    3.5076    2.3640 H   0  0  0  0  0  0  0  0  0  0  0  0
    0.7844    3.4956    2.7668 H   0  0  0  0  0  0  0  0  0  0  0  0
    0.2468    3.9058    1.1193 H   0  0  0  0  0  0  0  0  0  0  0  0
  5  6  2  0  0  0  0
  5  7  1  0  0  0  0
  2  3  1  0  0  0  0
  2  4  1  0  0  0  0
  2  5  1  0  0  0  0
  1  2  1  0  0  0  0
 22 23  2  0  0  0  0
 22 24  1  0  0  0  0
 19 20  1  0  0  0  0
 19 21  1  0  0  0  0
 17 18  2  0  0  0  0
 17 19  1  0  0  0  0
 14 15  1  0  0  0  0
 14 16  1  0  0  0  0
 14 17  1  0  0  0  0
 11 12  1  0  0  0  0
 11 13  1  0  0  0  0
 11 14  1  0  0  0  0
  9 10  1  0  0  0  0
  9 11  1  0  0  0  0
  9 22  1  0  0  0  0
  7  8  1  0  0  0  0
  7  9  1  0  0  0  0
 26 27  1  0  0  0  0
 26 28  1  0  0  0  0
 26 29  1  0  0  0  0
 24 25  1  0  0  0  0
 24 26  1  0  0  0  0
M  END
$$$$
default_name
  -OEChem-02102213163D

 29 28  0     1  0  0  0  0  0999 V2000
   -3.3998   -3.6239    1.3678 H   0  0  0  0  0  0  0  0  0  0  0  0
   -3.3608   -2.6749    0.8348 C   0  0  0  0  0  0  0  0  0  0  0  0
   -4.0988   -1.9909    1.2498 H   0  0  0  0  0  0  0  0  0  0  0  0
   -3.5618   -2.8419   -0.2222 H   0  0  0  0  0  0  0  0  0  0  0  0
   -1.9818   -2.0809    0.9918 C   0  0  0  0  0  0  0  0  0  0  0  0
   -1.1288   -2.6669    1.6468 O   0  0  0  0  0  0  0  0  0  0  0  0
   -1.7648   -0.9089    0.3998 N   0  0  0  0  0  0  0  0  0  0  0  0
   -2.5238   -0.4719   -0.1032 H   0  0  0  0  0  0  0  0  0  0  0  0
   -0.4848   -0.1959    0.4138 C   0  0  1  0  0  0  0  0  0  0  0  0
    0.1386   -0.6144    1.2058 H   0  0  0  0  0  0  0  0  0  0  0  0
    0.2271   -0.4272   -0.9334 C   0  0  0  0  0  0  0  0  0  0  0  0
    1.0323   -1.1480   -0.7770 H   0  0  0  0  0  0  0  0  0  0  0  0
   -0.4823   -0.8568   -1.6423 H   0  0  0  0  0  0  0  0  0  0  0  0
    0.8308    0.8489   -1.5455 C   0  0  0  0  0  0  0  0  0  0  0  0
    0.8186    0.7758   -2.6327 H   0  0  0  0  0  0  0  0  0  0  0  0
    0.2255    1.7048   -1.2472 H   0  0  0  0  0  0  0  0  0  0  0  0
    2.2725    1.1030   -1.1056 C   0  0  0  0  0  0  0  0  0  0  0  0
    2.8567    0.4094   -0.2942 O   0  0  0  0  0  0  0  0  0  0  0  0
    2.9190    2.1184   -1.6359 N   0  0  0  0  0  0  0  0  0  0  0  0
    3.8630    2.2382   -1.3117 H   0  0  0  0  0  0  0  0  0  0  0  0
    2.4872    2.7183   -2.3091 H   0  0  0  0  0  0  0  0  0  0  0  0
   -0.7011    1.2952    0.7149 C   0  0  0  0  0  0  0  0  0  0  0  0
   -1.5917    1.9198    0.1415 O   0  0  0  0  0  0  0  0  0  0  0  0
    0.1191    1.8675    1.6055 N   0  0  0  0  0  0  0  0  0  0  0  0
    0.8092    1.2861    2.0537 H   0  0  0  0  0  0  0  0  0  0  0  0
    0.0509    3.2769    1.9894 C   0  0  0  0  0  0  0  0  0  0  0  0
   -0.9494    3.5076    2.3640 H   0  0  0  0  0  0  0  0  0  0  0  0
    0.7844    3.4956    2.7668 H   0  0  0  0  0  0  0  0  0  0  0  0
    0.2468    3.9058    1.1193 H   0  0  0  0  0  0  0  0  0  0  0  0
  5  6  2  0  0  0  0
  5  7  1  0  0  0  0
  2  3  1  0  0  0  0
  2  4  1  0  0  0  0
  2  5  1  0  0  0  0
  1  2  1  0  0  0  0
 22 23  2  0  0  0  0
 22 24  1  0  0  0  0
 19 20  1  0  0  0  0
 19 21  1  0  0  0  0
 17 18  2  0  0  0  0
 17 19  1  0  0  0  0
 14 15  1  0  0  0  0
 14 16  1  0  0  0  0
 14 17  1  0  0  0  0
 11 12  1  0  0  0  0
 11 13  1  0  0  0  0
 11 14  1  0  0  0  0
  9 10  1  0  0  0  0
  9 11  1  0  0  0  0
  9 22  1  0  0  0  0
  7  8  1  0  0  0  0
  7  9  1  0  0  0  0
 26 27  1  0  0  0  0
 26 28  1  0  0  0  0
 26 29  1  0  0  0  0
 24 25  1  0  0  0  0
 24 26  1  0  0  0  0
M  END
$$$$
default_name
  -OEChem-02102213163D

 29 28  0     1  0  0  0  0  0999 V2000
   -3.3998   -3.6239    1.3678 H   0  0  0  0  0  0  0  0  0  0  0  0
   -3.3608   -2.6749    0.8348 C   0  0  0  0  0  0  0  0  0  0  0  0
   -4.0988   -1.9909    1.2498 H   0  0  0  0  0  0  0  0  0  0  0  0
   -3.5618   -2.8419   -0.2222 H   0  0  0  0  0  0  0  0  0  0  0  0
   -1.9818   -2.0809    0.9918 C   0  0  0  0  0  0  0  0  0  0  0  0
   -1.1288   -2.6669    1.6468 O   0  0  0  0  0  0  0  0  0  0  0  0
   -1.7648   -0.9089    0.3998 N   0  0  0  0  0  0  0  0  0  0  0  0
   -2.5238   -0.4719   -0.1032 H   0  0  0  0  0  0  0  0  0  0  0  0
   -0.4848   -0.1959    0.4138 C   0  0  1  0  0  0  0  0  0  0  0  0
    0.1386   -0.6144    1.2058 H   0  0  0  0  0  0  0  0  0  0  0  0
    0.2271   -0.4272   -0.9334 C   0  0  0  0  0  0  0  0  0  0  0  0
    1.0323   -1.1480   -0.7770 H   0  0  0  0  0  0  0  0  0  0  0  0
   -0.4823   -0.8568   -1.6423 H   0  0  0  0  0  0  0  0  0  0  0  0
    0.8308    0.8489   -1.5455 C   0  0  0  0  0  0  0  0  0  0  0  0
    0.5830    0.9003   -2.6055 H   0  0  0  0  0  0  0  0  0  0  0  0
    0.4030    1.7177   -1.0453 H   0  0  0  0  0  0  0  0  0  0  0  0
    2.3520    0.9182   -1.4124 C   0  0  0  0  0  0  0  0  0  0  0  0
    3.0101    0.0869   -0.8154 O   0  0  0  0  0  0  0  0  0  0  0  0
    2.9847    1.9232   -1.9780 N   0  0  0  0  0  0  0  0  0  0  0  0
    3.9829    1.9185   -1.8599 H   0  0  0  0  0  0  0  0  0  0  0  0
    2.4927    2.6324   -2.4828 H   0  0  0  0  0  0  0  0  0  0  0  0
   -0.7011    1.2952    0.7149 C   0  0  0  0  0  0  0  0  0  0  0  0
   -1.5917    1.9198    0.1415 O   0  0  0  0  0  0  0  0  0  0  0  0
    0.1191    1.8675    1.6055 N   0  0  0  0  0  0  0  0  0  0  0  0
    0.8092    1.2861    2.0537 H   0  0  0  0  0  0  0  0  0  0  0  0
    0.0509    3.2769    1.9894 C   0  0  0  0  0  0  0  0  0  0  0  0
   -0.9494    3.5076    2.3640 H   0  0  0  0  0  0  0  0  0  0  0  0
    0.7844    3.4956    2.7668 H   0  0  0  0  0  0  0  0  0  0  0  0
    0.2468    3.9058    1.1193 H   0  0  0  0  0  0  0  0  0  0  0  0
  5  6  2  0  0  0  0
  5  7  1  0  0  0  0
  2  3  1  0  0  0  0
  2  4  1  0  0  0  0
  2  5  1  0  0  0  0
  1  2  1  0  0  0  0
 22 23  2  0  0  0  0
 22 24  1  0  0  0  0
 19 20  1  0  0  0  0
 19 21  1  0  0  0  0
 17 18  2  0  0  0  0
 17 19  1  0  0  0  0
 14 15  1  0  0  0  0
 14 16  1  0  0  0  0
 14 17  1  0  0  0  0
 11 12  1  0  0  0  0
 11 13  1  0  0  0  0
 11 14  1  0  0  0  0
  9 10  1  0  0  0  0
  9 11  1  0  0  0  0
  9 22  1  0  0  0  0
  7  8  1  0  0  0  0
  7  9  1  0  0  0  0
 26 27  1  0  0  0  0
 26 28  1  0  0  0  0
 26 29  1  0  0  0  0
 24 25  1  0  0  0  0
 24 26  1  0  0  0  0
M  END
$$$$
default_name
  -OEChem-02102213163D

 29 28  0     1  0  0  0  0  0999 V2000
   -3.3998   -3.6239    1.3678 H   0  0  0  0  0  0  0  0  0  0  0  0
   -3.3608   -2.6749    0.8348 C   0  0  0  0  0  0  0  0  0  0  0  0
   -4.0988   -1.9909    1.2498 H   0  0  0  0  0  0  0  0  0  0  0  0
   -3.5618   -2.8419   -0.2222 H   0  0  0  0  0  0  0  0  0  0  0  0
   -1.9818   -2.0809    0.9918 C   0  0  0  0  0  0  0  0  0  0  0  0
   -1.1288   -2.6669    1.6468 O   0  0  0  0  0  0  0  0  0  0  0  0
   -1.7648   -0.9089    0.3998 N   0  0  0  0  0  0  0  0  0  0  0  0
   -2.5238   -0.4719   -0.1032 H   0  0  0  0  0  0  0  0  0  0  0  0
   -0.4848   -0.1959    0.4138 C   0  0  1  0  0  0  0  0  0  0  0  0
    0.1386   -0.6144    1.2058 H   0  0  0  0  0  0  0  0  0  0  0  0
    0.2271   -0.4272   -0.9334 C   0  0  0  0  0  0  0  0  0  0  0  0
    1.0323   -1.1480   -0.7770 H   0  0  0  0  0  0  0  0  0  0  0  0
   -0.4823   -0.8568   -1.6423 H   0  0  0  0  0  0  0  0  0  0  0  0
    0.8308    0.8489   -1.5455 C   0  0  0  0  0  0  0  0  0  0  0  0
    0.3741    1.0421   -2.5159 H   0  0  0  0  0  0  0  0  0  0  0  0
    0.6191    1.6914   -0.8871 H   0  0  0  0  0  0  0  0  0  0  0  0
    2.3439    0.7627   -1.7446 C   0  0  0  0  0  0  0  0  0  0  0  0
    3.0132   -0.1876   -1.3845 O   0  0  0  0  0  0  0  0  0  0  0  0
    2.9545    1.7627   -2.3424 N   0  0  0  0  0  0  0  0  0  0  0  0
    3.9482    1.6530   -2.4477 H   0  0  0  0  0  0  0  0  0  0  0  0
    2.4520    2.5665   -2.6604 H   0  0  0  0  0  0  0  0  0  0  0  0
   -0.7011    1.2952    0.7149 C   0  0  0  0  0  0  0  0  0  0  0  0
   -1.5917    1.9198    0.1415 O   0  0  0  0  0  0  0  0  0  0  0  0
    0.1191    1.8675    1.6055 N   0  0  0  0  0  0  0  0  0  0  0  0
    0.8092    1.2861    2.0537 H   0  0  0  0  0  0  0  0  0  0  0  0
    0.0509    3.2769    1.9894 C   0  0  0  0  0  0  0  0  0  0  0  0
   -0.9494    3.5076    2.3640 H   0  0  0  0  0  0  0  0  0  0  0  0
    0.7844    3.4956    2.7668 H   0  0  0  0  0  0  0  0  0  0  0  0
    0.2468    3.9058    1.1193 H   0  0  0  0  0  0  0  0  0  0  0  0
  5  6  2  0  0  0  0
  5  7  1  0  0  0  0
  2  3  1  0  0  0  0
  2  4  1  0  0  0  0
  2  5  1  0  0  0  0
  1  2  1  0  0  0  0
 22 23  2  0  0  0  0
 22 24  1  0  0  0  0
 19 20  1  0  0  0  0
 19 21  1  0  0  0  0
 17 18  2  0  0  0  0
 17 19  1  0  0  0  0
 14 15  1  0  0  0  0
 14 16  1  0  0  0  0
 14 17  1  0  0  0  0
 11 12  1  0  0  0  0
 11 13  1  0  0  0  0
 11 14  1  0  0  0  0
  9 10  1  0  0  0  0
  9 11  1  0  0  0  0
  9 22  1  0  0  0  0
  7  8  1  0  0  0  0
  7  9  1  0  0  0  0
 26 27  1  0  0  0  0
 26 28  1  0  0  0  0
 26 29  1  0  0  0  0
 24 25  1  0  0  0  0
 24 26  1  0  0  0  0
M  END
$$$$
default_name
  -OEChem-02102213163D

 29 28  0     1  0  0  0  0  0999 V2000
   -3.3998   -3.6239    1.3678 H   0  0  0  0  0  0  0  0  0  0  0  0
   -3.3608   -2.6749    0.8348 C   0  0  0  0  0  0  0  0  0  0  0  0
   -4.0988   -1.9909    1.2498 H   0  0  0  0  0  0  0  0  0  0  0  0
   -3.5618   -2.8419   -0.2222 H   0  0  0  0  0  0  0  0  0  0  0  0
   -1.9818   -2.0809    0.9918 C   0  0  0  0  0  0  0  0  0  0  0  0
   -1.1288   -2.6669    1.6468 O   0  0  0  0  0  0  0  0  0  0  0  0
   -1.7648   -0.9089    0.3998 N   0  0  0  0  0  0  0  0  0  0  0  0
   -2.5238   -0.4719   -0.1032 H   0  0  0  0  0  0  0  0  0  0  0  0
   -0.4848   -0.1959    0.4138 C   0  0  1  0  0  0  0  0  0  0  0  0
    0.1386   -0.6144    1.2058 H   0  0  0  0  0  0  0  0  0  0  0  0
    0.2271   -0.4272   -0.9334 C   0  0  0  0  0  0  0  0  0  0  0  0
    1.0323   -1.1480   -0.7770 H   0  0  0  0  0  0  0  0  0  0  0  0
   -0.4823   -0.8568   -1.6423 H   0  0  0  0  0  0  0  0  0  0  0  0
    0.8308    0.8489   -1.5455 C   0  0  0  0  0  0  0  0  0  0  0  0
    0.2062    1.1914   -2.3702 H   0  0  0  0  0  0  0  0  0  0  0  0
    0.8591    1.6276   -0.7833 H   0  0  0  0  0  0  0  0  0  0  0  0
    2.2488    0.6471   -2.0795 C   0  0  0  0  0  0  0  0  0  0  0  0
    2.8657   -0.3952   -1.9628 O   0  0  0  0  0  0  0  0  0  0  0  0
    2.8307    1.6478   -2.7042 N   0  0  0  0  0  0  0  0  0  0  0  0
    3.7612    1.4599   -3.0349 H   0  0  0  0  0  0  0  0  0  0  0  0
    2.3678    2.5250   -2.8299 H   0  0  0  0  0  0  0  0  0  0  0  0
   -0.7011    1.2952    0.7149 C   0  0  0  0  0  0  0  0  0  0  0  0
   -1.5917    1.9198    0.1415 O   0  0  0  0  0  0  0  0  0  0  0  0
    0.1191    1.8675    1.6055 N   0  0  0  0  0  0  0  0  0  0  0  0
    0.8092    1.2861    2.0537 H   0  0  0  0  0  0  0  0  0  0  0  0
    0.0509    3.2769    1.9894 C   0  0  0  0  0  0  0  0  0  0  0  0
   -0.9494    3.5076    2.3640 H   0  0  0  0  0  0  0  0  0  0  0  0
    0.7844    3.4956    2.7668 H   0  0  0  0  0  0  0  0  0  0  0  0
    0.2468    3.9058    1.1193 H   0  0  0  0  0  0  0  0  0  0  0  0
  5  6  2  0  0  0  0
  5  7  1  0  0  0  0
  2  3  1  0  0  0  0
  2  4  1  0  0  0  0
  2  5  1  0  0  0  0
  1  2  1  0  0  0  0
 22 23  2  0  0  0  0
 22 24  1  0  0  0  0
 19 20  1  0  0  0  0
 19 21  1  0  0  0  0
 17 18  2  0  0  0  0
 17 19  1  0  0  0  0
 14 15  1  0  0  0  0
 14 16  1  0  0  0  0
 14 17  1  0  0  0  0
 11 12  1  0  0  0  0
 11 13  1  0  0  0  0
 11 14  1  0  0  0  0
  9 10  1  0  0  0  0
  9 11  1  0  0  0  0
  9 22  1  0  0  0  0
  7  8  1  0  0  0  0
  7  9  1  0  0  0  0
 26 27  1  0  0  0  0
 26 28  1  0  0  0  0
 26 29  1  0  0  0  0
 24 25  1  0  0  0  0
 24 26  1  0  0  0  0
M  END
$$$$
default_name
  -OEChem-02102213163D

 29 28  0     1  0  0  0  0  0999 V2000
   -3.3998   -3.6239    1.3678 H   0  0  0  0  0  0  0  0  0  0  0  0
   -3.3608   -2.6749    0.8348 C   0  0  0  0  0  0  0  0  0  0  0  0
   -4.0988   -1.9909    1.2498 H   0  0  0  0  0  0  0  0  0  0  0  0
   -3.5618   -2.8419   -0.2222 H   0  0  0  0  0  0  0  0  0  0  0  0
   -1.9818   -2.0809    0.9918 C   0  0  0  0  0  0  0  0  0  0  0  0
   -1.1288   -2.6669    1.6468 O   0  0  0  0  0  0  0  0  0  0  0  0
   -1.7648   -0.9089    0.3998 N   0  0  0  0  0  0  0  0  0  0  0  0
   -2.5238   -0.4719   -0.1032 H   0  0  0  0  0  0  0  0  0  0  0  0
   -0.4848   -0.1959    0.4138 C   0  0  1  0  0  0  0  0  0  0  0  0
    0.1386   -0.6144    1.2058 H   0  0  0  0  0  0  0  0  0  0  0  0
    0.2271   -0.4272   -0.9334 C   0  0  0  0  0  0  0  0  0  0  0  0
    1.0323   -1.1480   -0.7770 H   0  0  0  0  0  0  0  0  0  0  0  0
   -0.4823   -0.8568   -1.6423 H   0  0  0  0  0  0  0  0  0  0  0  0
    0.8308    0.8489   -1.5455 C   0  0  0  0  0  0  0  0  0  0  0  0
    0.0906    1.3382   -2.1782 H   0  0  0  0  0  0  0  0  0  0  0  0
    1.1066    1.5307   -0.7411 H   0  0  0  0  0  0  0  0  0  0  0  0
    2.0731    0.5792   -2.3943 C   0  0  0  0  0  0  0  0  0  0  0  0
    2.5778   -0.5218   -2.5108 O   0  0  0  0  0  0  0  0  0  0  0  0
    2.6216    1.5862   -3.0387 N   0  0  0  0  0  0  0  0  0  0  0  0
    3.4346    1.3521   -3.5816 H   0  0  0  0  0  0  0  0  0  0  0  0
    2.2457    2.5109   -2.9798 H   0  0  0  0  0  0  0  0  0  0  0  0
   -0.7011    1.2952    0.7149 C   0  0  0  0  0  0  0  0  0  0  0  0
   -1.5917    1.9198    0.1415 O   0  0  0  0  0  0  0  0  0  0  0  0
    0.1191    1.8675    1.6055 N   0  0  0  0  0  0  0  0  0  0  0  0
    0.8092    1.2861    2.0537 H   0  0  0  0  0  0  0  0  0  0  0  0
    0.0509    3.2769    1.9894 C   0  0  0  0  0  0  0  0  0  0  0  0
   -0.9494    3.5076    2.3640 H   0  0  0  0  0  0  0  0  0  0  0  0
    0.7844    3.4956    2.7668 H   0  0  0  0  0  0  0  0  0  0  0  0
    0.2468    3.9058    1.1193 H   0  0  0  0  0  0  0  0  0  0  0  0
  5  6  2  0  0  0  0
  5  7  1  0  0  0  0
  2  3  1  0  0  0  0
  2  4  1  0  0  0  0
  2  5  1  0  0  0  0
  1  2  1  0  0  0  0
 22 23  2  0  0  0  0
 22 24  1  0  0  0  0
 19 20  1  0  0  0  0
 19 21  1  0  0  0  0
 17 18  2  0  0  0  0
 17 19  1  0  0  0  0
 14 15  1  0  0  0  0
 14 16  1  0  0  0  0
 14 17  1  0  0  0  0
 11 12  1  0  0  0  0
 11 13  1  0  0  0  0
 11 14  1  0  0  0  0
  9 10  1  0  0  0  0
  9 11  1  0  0  0  0
  9 22  1  0  0  0  0
  7  8  1  0  0  0  0
  7  9  1  0  0  0  0
 26 27  1  0  0  0  0
 26 28  1  0  0  0  0
 26 29  1  0  0  0  0
 24 25  1  0  0  0  0
 24 26  1  0  0  0  0
M  END
$$$$
default_name
  -OEChem-02102213163D

 29 28  0     1  0  0  0  0  0999 V2000
   -3.3998   -3.6239    1.3678 H   0  0  0  0  0  0  0  0  0  0  0  0
   -3.3608   -2.6749    0.8348 C   0  0  0  0  0  0  0  0  0  0  0  0
   -4.0988   -1.9909    1.2498 H   0  0  0  0  0  0  0  0  0  0  0  0
   -3.5618   -2.8419   -0.2222 H   0  0  0  0  0  0  0  0  0  0  0  0
   -1.9818   -2.0809    0.9918 C   0  0  0  0  0  0  0  0  0  0  0  0
   -1.1288   -2.6669    1.6468 O   0  0  0  0  0  0  0  0  0  0  0  0
   -1.7648   -0.9089    0.3998 N   0  0  0  0  0  0  0  0  0  0  0  0
   -2.5238   -0.4719   -0.1032 H   0  0  0  0  0  0  0  0  0  0  0  0
   -0.4848   -0.1959    0.4138 C   0  0  1  0  0  0  0  0  0  0  0  0
    0.1386   -0.6144    1.2058 H   0  0  0  0  0  0  0  0  0  0  0  0
    0.2271   -0.4272   -0.9334 C   0  0  0  0  0  0  0  0  0  0  0  0
    1.0323   -1.1480   -0.7770 H   0  0  0  0  0  0  0  0  0  0  0  0
   -0.4823   -0.8568   -1.6423 H   0  0  0  0  0  0  0  0  0  0  0  0
    0.8308    0.8489   -1.5455 C   0  0  0  0  0  0  0  0  0  0  0  0
    0.0353    1.4724   -1.9530 H   0  0  0  0  0  0  0  0  0  0  0  0
    1.3448    1.4074   -0.7633 H   0  0  0  0  0  0  0  0  0  0  0  0
    1.8289    0.5637   -2.6676 C   0  0  0  0  0  0  0  0  0  0  0  0
    2.1691   -0.5589   -2.9912 O   0  0  0  0  0  0  0  0  0  0  0  0
    2.3415    1.5823   -3.3232 N   0  0  0  0  0  0  0  0  0  0  0  0
    2.9907    1.3372   -4.0505 H   0  0  0  0  0  0  0  0  0  0  0  0
    2.0942    2.5250   -3.0998 H   0  0  0  0  0  0  0  0  0  0  0  0
   -0.7011    1.2952    0.7149 C   0  0  0  0  0  0  0  0  0  0  0  0
   -1.5917    1.9198    0.1415 O   0  0  0  0  0  0  0  0  0  0  0  0
    0.1191    1.8675    1.6055 N   0  0  0  0  0  0  0  0  0  0  0  0
    0.8092    1.2861    2.0537 H   0  0  0  0  0  0  0  0  0  0  0  0
    0.0509    3.2769    1.9894 C   0  0  0  0  0  0  0  0  0  0  0  0
   -0.9494    3.5076    2.3640 H   0  0  0  0  0  0  0  0  0  0  0  0
    0.7844    3.4956    2.7668 H   0  0  0  0  0  0  0  0  0  0  0  0
    0.2468    3.9058    1.1193 H   0  0  0  0  0  0  0  0  0  0  0  0
  5  6  2  0  0  0  0
  5  7  1  0  0  0  0
  2  3  1  0  0  0  0
  2  4  1  0  0  0  0
  2  5  1  0  0  0  0
  1  2  1  0  0  0  0
 22 23  2  0  0  0  0
 22 24  1  0  0  0  0
 19 20  1  0  0  0  0
 19 21  1  0  0  0  0
 17 18  2  0  0  0  0
 17 19  1  0  0  0  0
 14 15  1  0  0  0  0
 14 16  1  0  0  0  0
 14 17  1  0  0  0  0
 11 12  1  0  0  0  0
 11 13  1  0  0  0  0
 11 14  1  0  0  0  0
  9 10  1  0  0  0  0
  9 11  1  0  0  0  0
  9 22  1  0  0  0  0
  7  8  1  0  0  0  0
  7  9  1  0  0  0  0
 26 27  1  0  0  0  0
 26 28  1  0  0  0  0
 26 29  1  0  0  0  0
 24 25  1  0  0  0  0
 24 26  1  0  0  0  0
M  END
$$$$
default_name
  -OEChem-02102213163D

 29 28  0     1  0  0  0  0  0999 V2000
   -3.3998   -3.6239    1.3678 H   0  0  0  0  0  0  0  0  0  0  0  0
   -3.3608   -2.6749    0.8348 C   0  0  0  0  0  0  0  0  0  0  0  0
   -4.0988   -1.9909    1.2498 H   0  0  0  0  0  0  0  0  0  0  0  0
   -3.5618   -2.8419   -0.2222 H   0  0  0  0  0  0  0  0  0  0  0  0
   -1.9818   -2.0809    0.9918 C   0  0  0  0  0  0  0  0  0  0  0  0
   -1.1288   -2.6669    1.6468 O   0  0  0  0  0  0  0  0  0  0  0  0
   -1.7648   -0.9089    0.3998 N   0  0  0  0  0  0  0  0  0  0  0  0
   -2.5238   -0.4719   -0.1032 H   0  0  0  0  0  0  0  0  0  0  0  0
   -0.4848   -0.1959    0.4138 C   0  0  1  0  0  0  0  0  0  0  0  0
    0.1386   -0.6144    1.2058 H   0  0  0  0  0  0  0  0  0  0  0  0
    0.2271   -0.4272   -0.9334 C   0  0  0  0  0  0  0  0  0  0  0  0
    0.8411   -1.3261   -0.8474 H   0  0  0  0  0  0  0  0  0  0  0  0
   -0.5222   -0.5987   -1.7077 H   0  0  0  0  0  0  0  0  0  0  0  0
    1.1325    0.7388   -1.3672 C   0  0  0  0  0  0  0  0  0  0  0  0
    0.5402    1.6490   -1.4589 H   0  0  0  0  0  0  0  0  0  0  0  0
    1.8964    0.8957   -0.6057 H   0  0  0  0  0  0  0  0  0  0  0  0
    1.8304    0.4929   -2.7047 C   0  0  0  0  0  0  0  0  0  0  0  0
    1.7397   -0.5499   -3.3250 O   0  0  0  0  0  0  0  0  0  0  0  0
    2.5606    1.4598   -3.2168 N   0  0  0  0  0  0  0  0  0  0  0  0
    2.9954    1.2444   -4.0972 H   0  0  0  0  0  0  0  0  0  0  0  0
    2.6665    2.3376   -2.7499 H   0  0  0  0  0  0  0  0  0  0  0  0
   -0.7011    1.2952    0.7149 C   0  0  0  0  0  0  0  0  0  0  0  0
   -1.5917    1.9198    0.1415 O   0  0  0  0  0  0  0  0  0  0  0  0
    0.1191    1.8675    1.6055 N   0  0  0  0  0  0  0  0  0  0  0  0
    0.8092    1.2861    2.0537 H   0  0  0  0  0  0  0  0  0  0  0  0
    0.0509    3.2769    1.9894 C   0  0  0  0  0  0  0  0  0  0  0  0
   -0.9494    3.5076    2.3640 H   0  0  0  0  0  0  0  0  0  0  0  0
    0.7844    3.4956    2.7668 H   0  0  0  0  0  0  0  0  0  0  0  0
    0.2468    3.9058    1.1193 H   0  0  0  0  0  0  0  0  0  0  0  0
  5  6  2  0  0  0  0
  5  7  1  0  0  0  0
  2  3  1  0  0  0  0
  2  4  1  0  0  0  0
  2  5  1  0  0  0  0
  1  2  1  0  0  0  0
 22 23  2  0  0  0  0
 22 24  1  0  0  0  0
 19 20  1  0  0  0  0
 19 21  1  0  0  0  0
 17 18  2  0  0  0  0
 17 19  1  0  0  0  0
 14 15  1  0  0  0  0
 14 16  1  0  0  0  0
 14 17  1  0  0  0  0
 11 12  1  0  0  0  0
 11 13  1  0  0  0  0
 11 14  1  0  0  0  0
  9 10  1  0  0  0  0
  9 11  1  0  0  0  0
  9 22  1  0  0  0  0
  7  8  1  0  0  0  0
  7  9  1  0  0  0  0
 26 27  1  0  0  0  0
 26 28  1  0  0  0  0
 26 29  1  0  0  0  0
 24 25  1  0  0  0  0
 24 26  1  0  0  0  0
M  END
$$$$
default_name
  -OEChem-02102213163D

 29 28  0     1  0  0  0  0  0999 V2000
   -3.3998   -3.6239    1.3678 H   0  0  0  0  0  0  0  0  0  0  0  0
   -3.3608   -2.6749    0.8348 C   0  0  0  0  0  0  0  0  0  0  0  0
   -4.0988   -1.9909    1.2498 H   0  0  0  0  0  0  0  0  0  0  0  0
   -3.5618   -2.8419   -0.2222 H   0  0  0  0  0  0  0  0  0  0  0  0
   -1.9818   -2.0809    0.9918 C   0  0  0  0  0  0  0  0  0  0  0  0
   -1.1288   -2.6669    1.6468 O   0  0  0  0  0  0  0  0  0  0  0  0
   -1.7648   -0.9089    0.3998 N   0  0  0  0  0  0  0  0  0  0  0  0
   -2.5238   -0.4719   -0.1032 H   0  0  0  0  0  0  0  0  0  0  0  0
   -0.4848   -0.1959    0.4138 C   0  0  1  0  0  0  0  0  0  0  0  0
    0.1386   -0.6144    1.2058 H   0  0  0  0  0  0  0  0  0  0  0  0
    0.2271   -0.4272   -0.9334 C   0  0  0  0  0  0  0  0  0  0  0  0
    0.8411   -1.3261   -0.8474 H   0  0  0  0  0  0  0  0  0  0  0  0
   -0.5222   -0.5987   -1.7077 H   0  0  0  0  0  0  0  0  0  0  0  0
    1.1325    0.7388   -1.3672 C   0  0  0  0  0  0  0  0  0  0  0  0
    0.6162    1.6846   -1.2045 H   0  0  0  0  0  0  0  0  0  0  0  0
    2.0382    0.7278   -0.7609 H   0  0  0  0  0  0  0  0  0  0  0  0
    1.5384    0.6696   -2.8393 C   0  0  0  0  0  0  0  0  0  0  0  0
    1.2397   -0.2539   -3.5731 O   0  0  0  0  0  0  0  0  0  0  0  0
    2.2400    1.6620   -3.3424 N   0  0  0  0  0  0  0  0  0  0  0  0
    2.4784    1.5651   -4.3141 H   0  0  0  0  0  0  0  0  0  0  0  0
    2.5099    2.4465   -2.7843 H   0  0  0  0  0  0  0  0  0  0  0  0
   -0.7011    1.2952    0.7149 C   0  0  0  0  0  0  0  0  0  0  0  0
   -1.5917    1.9198    0.1415 O   0  0  0  0  0  0  0  0  0  0  0  0
    0.1191    1.8675    1.6055 N   0  0  0  0  0  0  0  0  0  0  0  0
    0.8092    1.2861    2.0537 H   0  0  0  0  0  0  0  0  0  0  0  0
    0.0509    3.2769    1.9894 C   0  0  0  0  0  0  0  0  0  0  0  0
   -0.9494    3.5076    2.3640 H   0  0  0  0  0  0  0  0  0  0  0  0
    0.7844    3.4956    2.7668 H   0  0  0  0  0  0  0  0  0  0  0  0
    0.2468    3.9058    1.1193 H   0  0  0  0  0  0  0  0  0  0  0  0
  5  6  2  0  0  0  0
  5  7  1  0  0  0  0
  2  3  1  0  0  0  0
  2  4  1  0  0  0  0
  2  5  1  0  0  0  0
  1  2  1  0  0  0  0
 22 23  2  0  0  0  0
 22 24  1  0  0  0  0
 19 20  1  0  0  0  0
 19 21  1  0  0  0  0
 17 18  2  0  0  0  0
 17 19  1  0  0  0  0
 14 15  1  0  0  0  0
 14 16  1  0  0  0  0
 14 17  1  0  0  0  0
 11 12  1  0  0  0  0
 11 13  1  0  0  0  0
 11 14  1  0  0  0  0
  9 10  1  0  0  0  0
  9 11  1  0  0  0  0
  9 22  1  0  0  0  0
  7  8  1  0  0  0  0
  7  9  1  0  0  0  0
 26 27  1  0  0  0  0
 26 28  1  0  0  0  0
 26 29  1  0  0  0  0
 24 25  1  0  0  0  0
 24 26  1  0  0  0  0
M  END
$$$$
default_name
  -OEChem-02102213163D

 29 28  0     1  0  0  0  0  0999 V2000
   -3.3998   -3.6239    1.3678 H   0  0  0  0  0  0  0  0  0  0  0  0
   -3.3608   -2.6749    0.8348 C   0  0  0  0  0  0  0  0  0  0  0  0
   -4.0988   -1.9909    1.2498 H   0  0  0  0  0  0  0  0  0  0  0  0
   -3.5618   -2.8419   -0.2222 H   0  0  0  0  0  0  0  0  0  0  0  0
   -1.9818   -2.0809    0.9918 C   0  0  0  0  0  0  0  0  0  0  0  0
   -1.1288   -2.6669    1.6468 O   0  0  0  0  0  0  0  0  0  0  0  0
   -1.7648   -0.9089    0.3998 N   0  0  0  0  0  0  0  0  0  0  0  0
   -2.5238   -0.4719   -0.1032 H   0  0  0  0  0  0  0  0  0  0  0  0
   -0.4848   -0.1959    0.4138 C   0  0  1  0  0  0  0  0  0  0  0  0
    0.1386   -0.6144    1.2058 H   0  0  0  0  0  0  0  0  0  0  0  0
    0.2271   -0.4272   -0.9334 C   0  0  0  0  0  0  0  0  0  0  0  0
    0.8411   -1.3261   -0.8474 H   0  0  0  0  0  0  0  0  0  0  0  0
   -0.5222   -0.5987   -1.7077 H   0  0  0  0  0  0  0  0  0  0  0  0
    1.1325    0.7388   -1.3672 C   0  0  0  0  0  0  0  0  0  0  0  0
    0.7420    1.6748   -0.9682 H   0  0  0  0  0  0  0  0  0  0  0  0
    2.1326    0.5789   -0.9643 H   0  0  0  0  0  0  0  0  0  0  0  0
    1.2428    0.8821   -2.8850 C   0  0  0  0  0  0  0  0  0  0  0  0
    0.7296    0.1064   -3.6694 O   0  0  0  0  0  0  0  0  0  0  0  0
    1.9205    1.8998   -3.3700 N   0  0  0  0  0  0  0  0  0  0  0  0
    1.9600    1.9456   -4.3735 H   0  0  0  0  0  0  0  0  0  0  0  0
    2.3598    2.5683   -2.7701 H   0  0  0  0  0  0  0  0  0  0  0  0
   -0.7011    1.2952    0.7149 C   0  0  0  0  0  0  0  0  0  0  0  0
   -1.5917    1.9198    0.1415 O   0  0  0  0  0  0  0  0  0  0  0  0
    0.1191    1.8675    1.6055 N   0  0  0  0  0  0  0  0  0  0  0  0
    0.8092    1.2861    2.0537 H   0  0  0  0  0  0  0  0  0  0  0  0
    0.0509    3.2769    1.9894 C   0  0  0  0  0  0  0  0  0  0  0  0
   -0.9494    3.5076    2.3640 H   0  0  0  0  0  0  0  0  0  0  0  0
    0.7844    3.4956    2.7668 H   0  0  0  0  0  0  0  0  0  0  0  0
    0.2468    3.9058    1.1193 H   0  0  0  0  0  0  0  0  0  0  0  0
  5  6  2  0  0  0  0
  5  7  1  0  0  0  0
  2  3  1  0  0  0  0
  2  4  1  0  0  0  0
  2  5  1  0  0  0  0
  1  2  1  0  0  0  0
 22 23  2  0  0  0  0
 22 24  1  0  0  0  0
 19 20  1  0  0  0  0
 19 21  1  0  0  0  0
 17 18  2  0  0  0  0
 17 19  1  0  0  0  0
 14 15  1  0  0  0  0
 14 16  1  0  0  0  0
 14 17  1  0  0  0  0
 11 12  1  0  0  0  0
 11 13  1  0  0  0  0
 11 14  1  0  0  0  0
  9 10  1  0  0  0  0
  9 11  1  0  0  0  0
  9 22  1  0  0  0  0
  7  8  1  0  0  0  0
  7  9  1  0  0  0  0
 26 27  1  0  0  0  0
 26 28  1  0  0  0  0
 26 29  1  0  0  0  0
 24 25  1  0  0  0  0
 24 26  1  0  0  0  0
M  END
$$$$
default_name
  -OEChem-02102213163D

 29 28  0     1  0  0  0  0  0999 V2000
   -3.3998   -3.6239    1.3678 H   0  0  0  0  0  0  0  0  0  0  0  0
   -3.3608   -2.6749    0.8348 C   0  0  0  0  0  0  0  0  0  0  0  0
   -4.0988   -1.9909    1.2498 H   0  0  0  0  0  0  0  0  0  0  0  0
   -3.5618   -2.8419   -0.2222 H   0  0  0  0  0  0  0  0  0  0  0  0
   -1.9818   -2.0809    0.9918 C   0  0  0  0  0  0  0  0  0  0  0  0
   -1.1288   -2.6669    1.6468 O   0  0  0  0  0  0  0  0  0  0  0  0
   -1.7648   -0.9089    0.3998 N   0  0  0  0  0  0  0  0  0  0  0  0
   -2.5238   -0.4719   -0.1032 H   0  0  0  0  0  0  0  0  0  0  0  0
   -0.4848   -0.1959    0.4138 C   0  0  1  0  0  0  0  0  0  0  0  0
    0.1386   -0.6144    1.2058 H   0  0  0  0  0  0  0  0  0  0  0  0
    0.2271   -0.4272   -0.9334 C   0  0  0  0  0  0  0  0  0  0  0  0
    0.8411   -1.3261   -0.8474 H   0  0  0  0  0  0  0  0  0  0  0  0
   -0.5222   -0.5987   -1.7077 H   0  0  0  0  0  0  0  0  0  0  0  0
    1.1325    0.7388   -1.3672 C   0  0  0  0  0  0  0  0  0  0  0  0
    0.9092    1.6201   -0.7662 H   0  0  0  0  0  0  0  0  0  0  0  0
    2.1729    0.4592   -1.2020 H   0  0  0  0  0  0  0  0  0  0  0  0
    0.9639    1.1159   -2.8389 C   0  0  0  0  0  0  0  0  0  0  0  0
    0.2442    0.5062   -3.6076 O   0  0  0  0  0  0  0  0  0  0  0  0
    1.6238    2.1571   -3.2979 N   0  0  0  0  0  0  0  0  0  0  0  0
    1.4753    2.3601   -4.2711 H   0  0  0  0  0  0  0  0  0  0  0  0
    2.2265    2.6947   -2.7085 H   0  0  0  0  0  0  0  0  0  0  0  0
   -0.7011    1.2952    0.7149 C   0  0  0  0  0  0  0  0  0  0  0  0
   -1.5917    1.9198    0.1415 O   0  0  0  0  0  0  0  0  0  0  0  0
    0.1191    1.8675    1.6055 N   0  0  0  0  0  0  0  0  0  0  0  0
    0.8092    1.2861    2.0537 H   0  0  0  0  0  0  0  0  0  0  0  0
    0.0509    3.2769    1.9894 C   0  0  0  0  0  0  0  0  0  0  0  0
   -0.9494    3.5076    2.3640 H   0  0  0  0  0  0  0  0  0  0  0  0
    0.7844    3.4956    2.7668 H   0  0  0  0  0  0  0  0  0  0  0  0
    0.2468    3.9058    1.1193 H   0  0  0  0  0  0  0  0  0  0  0  0
  5  6  2  0  0  0  0
  5  7  1  0  0  0  0
  2  3  1  0  0  0  0
  2  4  1  0  0  0  0
  2  5  1  0  0  0  0
  1  2  1  0  0  0  0
 22 23  2  0  0  0  0
 22 24  1  0  0  0  0
 19 20  1  0  0  0  0
 19 21  1  0  0  0  0
 17 18  2  0  0  0  0
 17 19  1  0  0  0  0
 14 15  1  0  0  0  0
 14 16  1  0  0  0  0
 14 17  1  0  0  0  0
 11 12  1  0  0  0  0
 11 13  1  0  0  0  0
 11 14  1  0  0  0  0
  9 10  1  0  0  0  0
  9 11  1  0  0  0  0
  9 22  1  0  0  0  0
  7  8  1  0  0  0  0
  7  9  1  0  0  0  0
 26 27  1  0  0  0  0
 26 28  1  0  0  0  0
 26 29  1  0  0  0  0
 24 25  1  0  0  0  0
 24 26  1  0  0  0  0
M  END
$$$$
default_name
  -OEChem-02102213163D

 29 28  0     1  0  0  0  0  0999 V2000
   -3.3998   -3.6239    1.3678 H   0  0  0  0  0  0  0  0  0  0  0  0
   -3.3608   -2.6749    0.8348 C   0  0  0  0  0  0  0  0  0  0  0  0
   -4.0988   -1.9909    1.2498 H   0  0  0  0  0  0  0  0  0  0  0  0
   -3.5618   -2.8419   -0.2222 H   0  0  0  0  0  0  0  0  0  0  0  0
   -1.9818   -2.0809    0.9918 C   0  0  0  0  0  0  0  0  0  0  0  0
   -1.1288   -2.6669    1.6468 O   0  0  0  0  0  0  0  0  0  0  0  0
   -1.7648   -0.9089    0.3998 N   0  0  0  0  0  0  0  0  0  0  0  0
   -2.5238   -0.4719   -0.1032 H   0  0  0  0  0  0  0  0  0  0  0  0
   -0.4848   -0.1959    0.4138 C   0  0  1  0  0  0  0  0  0  0  0  0
    0.1386   -0.6144    1.2058 H   0  0  0  0  0  0  0  0  0  0  0  0
    0.2271   -0.4272   -0.9334 C   0  0  0  0  0  0  0  0  0  0  0  0
    0.8411   -1.3261   -0.8474 H   0  0  0  0  0  0  0  0  0  0  0  0
   -0.5222   -0.5987   -1.7077 H   0  0  0  0  0  0  0  0  0  0  0  0
    1.1325    0.7388   -1.3672 C   0  0  0  0  0  0  0  0  0  0  0  0
    1.1064    1.5243   -0.6122 H   0  0  0  0  0  0  0  0  0  0  0  0
    2.1566    0.3768   -1.4576 H   0  0  0  0  0  0  0  0  0  0  0  0
    0.7205    1.3550   -2.7040 C   0  0  0  0  0  0  0  0  0  0  0  0
   -0.1833    0.9184   -3.3919 O   0  0  0  0  0  0  0  0  0  0  0  0
    1.3701    2.4162   -3.1308 N   0  0  0  0  0  0  0  0  0  0  0  0
    1.0574    2.7802   -4.0141 H   0  0  0  0  0  0  0  0  0  0  0  0
    2.1191    2.8172   -2.6035 H   0  0  0  0  0  0  0  0  0  0  0  0
   -0.7011    1.2952    0.7149 C   0  0  0  0  0  0  0  0  0  0  0  0
   -1.5917    1.9198    0.1415 O   0  0  0  0  0  0  0  0  0  0  0  0
    0.1191    1.8675    1.6055 N   0  0  0  0  0  0  0  0  0  0  0  0
    0.8092    1.2861    2.0537 H   0  0  0  0  0  0  0  0  0  0  0  0
    0.0509    3.2769    1.9894 C   0  0  0  0  0  0  0  0  0  0  0  0
   -0.9494    3.5076    2.3640 H   0  0  0  0  0  0  0  0  0  0  0  0
    0.7844    3.4956    2.7668 H   0  0  0  0  0  0  0  0  0  0  0  0
    0.2468    3.9058    1.1193 H   0  0  0  0  0  0  0  0  0  0  0  0
  5  6  2  0  0  0  0
  5  7  1  0  0  0  0
  2  3  1  0  0  0  0
  2  4  1  0  0  0  0
  2  5  1  0  0  0  0
  1  2  1  0  0  0  0
 22 23  2  0  0  0  0
 22 24  1  0  0  0  0
 19 20  1  0  0  0  0
 19 21  1  0  0  0  0
 17 18  2  0  0  0  0
 17 19  1  0  0  0  0
 14 15  1  0  0  0  0
 14 16  1  0  0  0  0
 14 17  1  0  0  0  0
 11 12  1  0  0  0  0
 11 13  1  0  0  0  0
 11 14  1  0  0  0  0
  9 10  1  0  0  0  0
  9 11  1  0  0  0  0
  9 22  1  0  0  0  0
  7  8  1  0  0  0  0
  7  9  1  0  0  0  0
 26 27  1  0  0  0  0
 26 28  1  0  0  0  0
 26 29  1  0  0  0  0
 24 25  1  0  0  0  0
 24 26  1  0  0  0  0
M  END
$$$$
default_name
  -OEChem-02102213163D

 29 28  0     1  0  0  0  0  0999 V2000
   -3.3998   -3.6239    1.3678 H   0  0  0  0  0  0  0  0  0  0  0  0
   -3.3608   -2.6749    0.8348 C   0  0  0  0  0  0  0  0  0  0  0  0
   -4.0988   -1.9909    1.2498 H   0  0  0  0  0  0  0  0  0  0  0  0
   -3.5618   -2.8419   -0.2222 H   0  0  0  0  0  0  0  0  0  0  0  0
   -1.9818   -2.0809    0.9918 C   0  0  0  0  0  0  0  0  0  0  0  0
   -1.1288   -2.6669    1.6468 O   0  0  0  0  0  0  0  0  0  0  0  0
   -1.7648   -0.9089    0.3998 N   0  0  0  0  0  0  0  0  0  0  0  0
   -2.5238   -0.4719   -0.1032 H   0  0  0  0  0  0  0  0  0  0  0  0
   -0.4848   -0.1959    0.4138 C   0  0  1  0  0  0  0  0  0  0  0  0
    0.1386   -0.6144    1.2058 H   0  0  0  0  0  0  0  0  0  0  0  0
    0.2271   -0.4272   -0.9334 C   0  0  0  0  0  0  0  0  0  0  0  0
    0.8411   -1.3261   -0.8474 H   0  0  0  0  0  0  0  0  0  0  0  0
   -0.5222   -0.5987   -1.7077 H   0  0  0  0  0  0  0  0  0  0  0  0
    1.1325    0.7388   -1.3672 C   0  0  0  0  0  0  0  0  0  0  0  0
    1.3200    1.3940   -0.5167 H   0  0  0  0  0  0  0  0  0  0  0  0
    2.0846    0.3373   -1.7139 H   0  0  0  0  0  0  0  0  0  0  0  0
    0.5294    1.5832   -2.4896 C   0  0  0  0  0  0  0  0  0  0  0  0
   -0.5238    1.3149   -3.0368 O   0  0  0  0  0  0  0  0  0  0  0  0
    1.1767    2.6596   -2.8801 N   0  0  0  0  0  0  0  0  0  0  0  0
    0.7348    3.1773   -3.6199 H   0  0  0  0  0  0  0  0  0  0  0  0
    2.0448    2.9273   -2.4624 H   0  0  0  0  0  0  0  0  0  0  0  0
   -0.7011    1.2952    0.7149 C   0  0  0  0  0  0  0  0  0  0  0  0
   -1.5917    1.9198    0.1415 O   0  0  0  0  0  0  0  0  0  0  0  0
    0.1191    1.8675    1.6055 N   0  0  0  0  0  0  0  0  0  0  0  0
    0.8092    1.2861    2.0537 H   0  0  0  0  0  0  0  0  0  0  0  0
    0.0509    3.2769    1.9894 C   0  0  0  0  0  0  0  0  0  0  0  0
   -0.9494    3.5076    2.3640 H   0  0  0  0  0  0  0  0  0  0  0  0
    0.7844    3.4956    2.7668 H   0  0  0  0  0  0  0  0  0  0  0  0
    0.2468    3.9058    1.1193 H   0  0  0  0  0  0  0  0  0  0  0  0
  5  6  2  0  0  0  0
  5  7  1  0  0  0  0
  2  3  1  0  0  0  0
  2  4  1  0  0  0  0
  2  5  1  0  0  0  0
  1  2  1  0  0  0  0
 22 23  2  0  0  0  0
 22 24  1  0  0  0  0
 19 20  1  0  0  0  0
 19 21  1  0  0  0  0
 17 18  2  0  0  0  0
 17 19  1  0  0  0  0
 14 15  1  0  0  0  0
 14 16  1  0  0  0  0
 14 17  1  0  0  0  0
 11 12  1  0  0  0  0
 11 13  1  0  0  0  0
 11 14  1  0  0  0  0
  9 10  1  0  0  0  0
  9 11  1  0  0  0  0
  9 22  1  0  0  0  0
  7  8  1  0  0  0  0
  7  9  1  0  0  0  0
 26 27  1  0  0  0  0
 26 28  1  0  0  0  0
 26 29  1  0  0  0  0
 24 25  1  0  0  0  0
 24 26  1  0  0  0  0
M  END
$$$$
default_name
  -OEChem-02102213163D

 29 28  0     1  0  0  0  0  0999 V2000
   -3.3998   -3.6239    1.3678 H   0  0  0  0  0  0  0  0  0  0  0  0
   -3.3608   -2.6749    0.8348 C   0  0  0  0  0  0  0  0  0  0  0  0
   -4.0988   -1.9909    1.2498 H   0  0  0  0  0  0  0  0  0  0  0  0
   -3.5618   -2.8419   -0.2222 H   0  0  0  0  0  0  0  0  0  0  0  0
   -1.9818   -2.0809    0.9918 C   0  0  0  0  0  0  0  0  0  0  0  0
   -1.1288   -2.6669    1.6468 O   0  0  0  0  0  0  0  0  0  0  0  0
   -1.7648   -0.9089    0.3998 N   0  0  0  0  0  0  0  0  0  0  0  0
   -2.5238   -0.4719   -0.1032 H   0  0  0  0  0  0  0  0  0  0  0  0
   -0.4848   -0.1959    0.4138 C   0  0  1  0  0  0  0  0  0  0  0  0
    0.1386   -0.6144    1.2058 H   0  0  0  0  0  0  0  0  0  0  0  0
    0.2271   -0.4272   -0.9334 C   0  0  0  0  0  0  0  0  0  0  0  0
    0.8411   -1.3261   -0.8474 H   0  0  0  0  0  0  0  0  0  0  0  0
   -0.5222   -0.5987   -1.7077 H   0  0  0  0  0  0  0  0  0  0  0  0
    1.1325    0.7388   -1.3672 C   0  0  0  0  0  0  0  0  0  0  0  0
    1.5356    1.2379   -0.4862 H   0  0  0  0  0  0  0  0  0  0  0  0
    1.9619    0.3435   -1.9534 H   0  0  0  0  0  0  0  0  0  0  0  0
    0.4034    1.7849   -2.2103 C   0  0  0  0  0  0  0  0  0  0  0  0
   -0.7542    1.6687   -2.5667 O   0  0  0  0  0  0  0  0  0  0  0  0
    1.0569    2.8706   -2.5630 N   0  0  0  0  0  0  0  0  0  0  0  0
    0.5295    3.5244   -3.1154 H   0  0  0  0  0  0  0  0  0  0  0  0
    2.0088    3.0177   -2.2948 H   0  0  0  0  0  0  0  0  0  0  0  0
   -0.7011    1.2952    0.7149 C   0  0  0  0  0  0  0  0  0  0  0  0
   -1.5917    1.9198    0.1415 O   0  0  0  0  0  0  0  0  0  0  0  0
    0.1191    1.8675    1.6055 N   0  0  0  0  0  0  0  0  0  0  0  0
    0.8092    1.2861    2.0537 H   0  0  0  0  0  0  0  0  0  0  0  0
    0.0509    3.2769    1.9894 C   0  0  0  0  0  0  0  0  0  0  0  0
   -0.9494    3.5076    2.3640 H   0  0  0  0  0  0  0  0  0  0  0  0
    0.7844    3.4956    2.7668 H   0  0  0  0  0  0  0  0  0  0  0  0
    0.2468    3.9058    1.1193 H   0  0  0  0  0  0  0  0  0  0  0  0
  5  6  2  0  0  0  0
  5  7  1  0  0  0  0
  2  3  1  0  0  0  0
  2  4  1  0  0  0  0
  2  5  1  0  0  0  0
  1  2  1  0  0  0  0
 22 23  2  0  0  0  0
 22 24  1  0  0  0  0
 19 20  1  0  0  0  0
 19 21  1  0  0  0  0
 17 18  2  0  0  0  0
 17 19  1  0  0  0  0
 14 15  1  0  0  0  0
 14 16  1  0  0  0  0
 14 17  1  0  0  0  0
 11 12  1  0  0  0  0
 11 13  1  0  0  0  0
 11 14  1  0  0  0  0
  9 10  1  0  0  0  0
  9 11  1  0  0  0  0
  9 22  1  0  0  0  0
  7  8  1  0  0  0  0
  7  9  1  0  0  0  0
 26 27  1  0  0  0  0
 26 28  1  0  0  0  0
 26 29  1  0  0  0  0
 24 25  1  0  0  0  0
 24 26  1  0  0  0  0
M  END
$$$$
default_name
  -OEChem-02102213163D

 29 28  0     1  0  0  0  0  0999 V2000
   -3.3998   -3.6239    1.3678 H   0  0  0  0  0  0  0  0  0  0  0  0
   -3.3608   -2.6749    0.8348 C   0  0  0  0  0  0  0  0  0  0  0  0
   -4.0988   -1.9909    1.2498 H   0  0  0  0  0  0  0  0  0  0  0  0
   -3.5618   -2.8419   -0.2222 H   0  0  0  0  0  0  0  0  0  0  0  0
   -1.9818   -2.0809    0.9918 C   0  0  0  0  0  0  0  0  0  0  0  0
   -1.1288   -2.6669    1.6468 O   0  0  0  0  0  0  0  0  0  0  0  0
   -1.7648   -0.9089    0.3998 N   0  0  0  0  0  0  0  0  0  0  0  0
   -2.5238   -0.4719   -0.1032 H   0  0  0  0  0  0  0  0  0  0  0  0
   -0.4848   -0.1959    0.4138 C   0  0  1  0  0  0  0  0  0  0  0  0
    0.1386   -0.6144    1.2058 H   0  0  0  0  0  0  0  0  0  0  0  0
    0.2271   -0.4272   -0.9334 C   0  0  0  0  0  0  0  0  0  0  0  0
    0.8411   -1.3261   -0.8474 H   0  0  0  0  0  0  0  0  0  0  0  0
   -0.5222   -0.5987   -1.7077 H   0  0  0  0  0  0  0  0  0  0  0  0
    1.1325    0.7388   -1.3672 C   0  0  0  0  0  0  0  0  0  0  0  0
    1.7384    1.0668   -0.5228 H   0  0  0  0  0  0  0  0  0  0  0  0
    1.7969    0.3948   -2.1597 H   0  0  0  0  0  0  0  0  0  0  0  0
    0.3513    1.9464   -1.8850 C   0  0  0  0  0  0  0  0  0  0  0  0
   -0.8587    1.9556   -2.0135 O   0  0  0  0  0  0  0  0  0  0  0  0
    1.0187    3.0349   -2.2011 N   0  0  0  0  0  0  0  0  0  0  0  0
    0.4555    3.7977   -2.5349 H   0  0  0  0  0  0  0  0  0  0  0  0
    2.0134    3.0820   -2.1121 H   0  0  0  0  0  0  0  0  0  0  0  0
   -0.7011    1.2952    0.7149 C   0  0  0  0  0  0  0  0  0  0  0  0
   -1.5917    1.9198    0.1415 O   0  0  0  0  0  0  0  0  0  0  0  0
    0.1191    1.8675    1.6055 N   0  0  0  0  0  0  0  0  0  0  0  0
    0.8092    1.2861    2.0537 H   0  0  0  0  0  0  0  0  0  0  0  0
    0.0509    3.2769    1.9894 C   0  0  0  0  0  0  0  0  0  0  0  0
   -0.9494    3.5076    2.3640 H   0  0  0  0  0  0  0  0  0  0  0  0
    0.7844    3.4956    2.7668 H   0  0  0  0  0  0  0  0  0  0  0  0
    0.2468    3.9058    1.1193 H   0  0  0  0  0  0  0  0  0  0  0  0
  5  6  2  0  0  0  0
  5  7  1  0  0  0  0
  2  3  1  0  0  0  0
  2  4  1  0  0  0  0
  2  5  1  0  0  0  0
  1  2  1  0  0  0  0
 22 23  2  0  0  0  0
 22 24  1  0  0  0  0
 19 20  1  0  0  0  0
 19 21  1  0  0  0  0
 17 18  2  0  0  0  0
 17 19  1  0  0  0  0
 14 15  1  0  0  0  0
 14 16  1  0  0  0  0
 14 17  1  0  0  0  0
 11 12  1  0  0  0  0
 11 13  1  0  0  0  0
 11 14  1  0  0  0  0
  9 10  1  0  0  0  0
  9 11  1  0  0  0  0
  9 22  1  0  0  0  0
  7  8  1  0  0  0  0
  7  9  1  0  0  0  0
 26 27  1  0  0  0  0
 26 28  1  0  0  0  0
 26 29  1  0  0  0  0
 24 25  1  0  0  0  0
 24 26  1  0  0  0  0
M  END
$$$$
default_name
  -OEChem-02102213163D

 29 28  0     1  0  0  0  0  0999 V2000
   -3.3998   -3.6239    1.3678 H   0  0  0  0  0  0  0  0  0  0  0  0
   -3.3608   -2.6749    0.8348 C   0  0  0  0  0  0  0  0  0  0  0  0
   -4.0988   -1.9909    1.2498 H   0  0  0  0  0  0  0  0  0  0  0  0
   -3.5618   -2.8419   -0.2222 H   0  0  0  0  0  0  0  0  0  0  0  0
   -1.9818   -2.0809    0.9918 C   0  0  0  0  0  0  0  0  0  0  0  0
   -1.1288   -2.6669    1.6468 O   0  0  0  0  0  0  0  0  0  0  0  0
   -1.7648   -0.9089    0.3998 N   0  0  0  0  0  0  0  0  0  0  0  0
   -2.5238   -0.4719   -0.1032 H   0  0  0  0  0  0  0  0  0  0  0  0
   -0.4848   -0.1959    0.4138 C   0  0  1  0  0  0  0  0  0  0  0  0
    0.1386   -0.6144    1.2058 H   0  0  0  0  0  0  0  0  0  0  0  0
    0.2271   -0.4272   -0.9334 C   0  0  0  0  0  0  0  0  0  0  0  0
    0.8411   -1.3261   -0.8474 H   0  0  0  0  0  0  0  0  0  0  0  0
   -0.5222   -0.5987   -1.7077 H   0  0  0  0  0  0  0  0  0  0  0  0
    1.1325    0.7388   -1.3672 C   0  0  0  0  0  0  0  0  0  0  0  0
    1.9147    0.8923   -0.6240 H   0  0  0  0  0  0  0  0  0  0  0  0
    1.6008    0.4879   -2.3188 H   0  0  0  0  0  0  0  0  0  0  0  0
    0.3765    2.0566   -1.5360 C   0  0  0  0  0  0  0  0  0  0  0  0
   -0.8302    2.1561   -1.4150 O   0  0  0  0  0  0  0  0  0  0  0  0
    1.0648    3.1413   -1.8190 N   0  0  0  0  0  0  0  0  0  0  0  0
    0.5178    3.9788   -1.9181 H   0  0  0  0  0  0  0  0  0  0  0  0
    2.0585    3.1160   -1.9267 H   0  0  0  0  0  0  0  0  0  0  0  0
   -0.7011    1.2952    0.7149 C   0  0  0  0  0  0  0  0  0  0  0  0
   -1.5917    1.9198    0.1415 O   0  0  0  0  0  0  0  0  0  0  0  0
    0.1191    1.8675    1.6055 N   0  0  0  0  0  0  0  0  0  0  0  0
    0.8092    1.2861    2.0537 H   0  0  0  0  0  0  0  0  0  0  0  0
    0.0509    3.2769    1.9894 C   0  0  0  0  0  0  0  0  0  0  0  0
   -0.9494    3.5076    2.3640 H   0  0  0  0  0  0  0  0  0  0  0  0
    0.7844    3.4956    2.7668 H   0  0  0  0  0  0  0  0  0  0  0  0
    0.2468    3.9058    1.1193 H   0  0  0  0  0  0  0  0  0  0  0  0
  5  6  2  0  0  0  0
  5  7  1  0  0  0  0
  2  3  1  0  0  0  0
  2  4  1  0  0  0  0
  2  5  1  0  0  0  0
  1  2  1  0  0  0  0
 22 23  2  0  0  0  0
 22 24  1  0  0  0  0
 19 20  1  0  0  0  0
 19 21  1  0  0  0  0
 17 18  2  0  0  0  0
 17 19  1  0  0  0  0
 14 15  1  0  0  0  0
 14 16  1  0  0  0  0
 14 17  1  0  0  0  0
 11 12  1  0  0  0  0
 11 13  1  0  0  0  0
 11 14  1  0  0  0  0
  9 10  1  0  0  0  0
  9 11  1  0  0  0  0
  9 22  1  0  0  0  0
  7  8  1  0  0  0  0
  7  9  1  0  0  0  0
 26 27  1  0  0  0  0
 26 28  1  0  0  0  0
 26 29  1  0  0  0  0
 24 25  1  0  0  0  0
 24 26  1  0  0  0  0
M  END
$$$$
default_name
  -OEChem-02102213163D

 29 28  0     1  0  0  0  0  0999 V2000
   -3.3998   -3.6239    1.3678 H   0  0  0  0  0  0  0  0  0  0  0  0
   -3.3608   -2.6749    0.8348 C   0  0  0  0  0  0  0  0  0  0  0  0
   -4.0988   -1.9909    1.2498 H   0  0  0  0  0  0  0  0  0  0  0  0
   -3.5618   -2.8419   -0.2222 H   0  0  0  0  0  0  0  0  0  0  0  0
   -1.9818   -2.0809    0.9918 C   0  0  0  0  0  0  0  0  0  0  0  0
   -1.1288   -2.6669    1.6468 O   0  0  0  0  0  0  0  0  0  0  0  0
   -1.7648   -0.9089    0.3998 N   0  0  0  0  0  0  0  0  0  0  0  0
   -2.5238   -0.4719   -0.1032 H   0  0  0  0  0  0  0  0  0  0  0  0
   -0.4848   -0.1959    0.4138 C   0  0  1  0  0  0  0  0  0  0  0  0
    0.1386   -0.6144    1.2058 H   0  0  0  0  0  0  0  0  0  0  0  0
    0.2271   -0.4272   -0.9334 C   0  0  0  0  0  0  0  0  0  0  0  0
    0.8411   -1.3261   -0.8474 H   0  0  0  0  0  0  0  0  0  0  0  0
   -0.5222   -0.5987   -1.7077 H   0  0  0  0  0  0  0  0  0  0  0  0
    1.1325    0.7388   -1.3672 C   0  0  0  0  0  0  0  0  0  0  0  0
    2.0523    0.7263   -0.7829 H   0  0  0  0  0  0  0  0  0  0  0  0
    1.3870    0.6164   -2.4199 H   0  0  0  0  0  0  0  0  0  0  0  0
    0.4774    2.1081   -1.1870 C   0  0  0  0  0  0  0  0  0  0  0  0
   -0.6706    2.2565   -0.8119 O   0  0  0  0  0  0  0  0  0  0  0  0
    1.1920    3.1824   -1.4428 N   0  0  0  0  0  0  0  0  0  0  0  0
    0.7122    4.0552   -1.3069 H   0  0  0  0  0  0  0  0  0  0  0  0
    2.1408    3.1173   -1.7512 H   0  0  0  0  0  0  0  0  0  0  0  0
   -0.7011    1.2952    0.7149 C   0  0  0  0  0  0  0  0  0  0  0  0
   -1.5917    1.9198    0.1415 O   0  0  0  0  0  0  0  0  0  0  0  0
    0.1191    1.8675    1.6055 N   0  0  0  0  0  0  0  0  0  0  0  0
    0.8092    1.2861    2.0537 H   0  0  0  0  0  0  0  0  0  0  0  0
    0.0509    3.2769    1.9894 C   0  0  0  0  0  0  0  0  0  0  0  0
   -0.9494    3.5076    2.3640 H   0  0  0  0  0  0  0  0  0  0  0  0
    0.7844    3.4956    2.7668 H   0  0  0  0  0  0  0  0  0  0  0  0
    0.2468    3.9058    1.1193 H   0  0  0  0  0  0  0  0  0  0  0  0
  5  6  2  0  0  0  0
  5  7  1  0  0  0  0
  2  3  1  0  0  0  0
  2  4  1  0  0  0  0
  2  5  1  0  0  0  0
  1  2  1  0  0  0  0
 22 23  2  0  0  0  0
 22 24  1  0  0  0  0
 19 20  1  0  0  0  0
 19 21  1  0  0  0  0
 17 18  2  0  0  0  0
 17 19  1  0  0  0  0
 14 15  1  0  0  0  0
 14 16  1  0  0  0  0
 14 17  1  0  0  0  0
 11 12  1  0  0  0  0
 11 13  1  0  0  0  0
 11 14  1  0  0  0  0
  9 10  1  0  0  0  0
  9 11  1  0  0  0  0
  9 22  1  0  0  0  0
  7  8  1  0  0  0  0
  7  9  1  0  0  0  0
 26 27  1  0  0  0  0
 26 28  1  0  0  0  0
 26 29  1  0  0  0  0
 24 25  1  0  0  0  0
 24 26  1  0  0  0  0
M  END
$$$$
default_name
  -OEChem-02102213163D

 29 28  0     1  0  0  0  0  0999 V2000
   -3.3998   -3.6239    1.3678 H   0  0  0  0  0  0  0  0  0  0  0  0
   -3.3608   -2.6749    0.8348 C   0  0  0  0  0  0  0  0  0  0  0  0
   -4.0988   -1.9909    1.2498 H   0  0  0  0  0  0  0  0  0  0  0  0
   -3.5618   -2.8419   -0.2222 H   0  0  0  0  0  0  0  0  0  0  0  0
   -1.9818   -2.0809    0.9918 C   0  0  0  0  0  0  0  0  0  0  0  0
   -1.1288   -2.6669    1.6468 O   0  0  0  0  0  0  0  0  0  0  0  0
   -1.7648   -0.9089    0.3998 N   0  0  0  0  0  0  0  0  0  0  0  0
   -2.5238   -0.4719   -0.1032 H   0  0  0  0  0  0  0  0  0  0  0  0
   -0.4848   -0.1959    0.4138 C   0  0  1  0  0  0  0  0  0  0  0  0
    0.1386   -0.6144    1.2058 H   0  0  0  0  0  0  0  0  0  0  0  0
    0.2271   -0.4272   -0.9334 C   0  0  0  0  0  0  0  0  0  0  0  0
    0.8411   -1.3261   -0.8474 H   0  0  0  0  0  0  0  0  0  0  0  0
   -0.5222   -0.5987   -1.7077 H   0  0  0  0  0  0  0  0  0  0  0  0
    1.1325    0.7388   -1.3672 C   0  0  0  0  0  0  0  0  0  0  0  0
    2.1420    0.5801   -0.9886 H   0  0  0  0  0  0  0  0  0  0  0  0
    1.1700    0.7714   -2.4560 H   0  0  0  0  0  0  0  0  0  0  0  0
    0.6470    2.0974   -0.8619 C   0  0  0  0  0  0  0  0  0  0  0  0
   -0.3909    2.2501   -0.2454 O   0  0  0  0  0  0  0  0  0  0  0  0
    1.3917    3.1556   -1.0981 N   0  0  0  0  0  0  0  0  0  0  0  0
    1.0254    4.0218   -0.7430 H   0  0  0  0  0  0  0  0  0  0  0  0
    2.2549    3.0859   -1.5977 H   0  0  0  0  0  0  0  0  0  0  0  0
   -0.7011    1.2952    0.7149 C   0  0  0  0  0  0  0  0  0  0  0  0
   -1.5917    1.9198    0.1415 O   0  0  0  0  0  0  0  0  0  0  0  0
    0.1191    1.8675    1.6055 N   0  0  0  0  0  0  0  0  0  0  0  0
    0.8092    1.2861    2.0537 H   0  0  0  0  0  0  0  0  0  0  0  0
    0.0509    3.2769    1.9894 C   0  0  0  0  0  0  0  0  0  0  0  0
   -0.9494    3.5076    2.3640 H   0  0  0  0  0  0  0  0  0  0  0  0
    0.7844    3.4956    2.7668 H   0  0  0  0  0  0  0  0  0  0  0  0
    0.2468    3.9058    1.1193 H   0  0  0  0  0  0  0  0  0  0  0  0
  5  6  2  0  0  0  0
  5  7  1  0  0  0  0
  2  3  1  0  0  0  0
  2  4  1  0  0  0  0
  2  5  1  0  0  0  0
  1  2  1  0  0  0  0
 22 23  2  0  0  0  0
 22 24  1  0  0  0  0
 19 20  1  0  0  0  0
 19 21  1  0  0  0  0
 17 18  2  0  0  0  0
 17 19  1  0  0  0  0
 14 15  1  0  0  0  0
 14 16  1  0  0  0  0
 14 17  1  0  0  0  0
 11 12  1  0  0  0  0
 11 13  1  0  0  0  0
 11 14  1  0  0  0  0
  9 10  1  0  0  0  0
  9 11  1  0  0  0  0
  9 22  1  0  0  0  0
  7  8  1  0  0  0  0
  7  9  1  0  0  0  0
 26 27  1  0  0  0  0
 26 28  1  0  0  0  0
 26 29  1  0  0  0  0
 24 25  1  0  0  0  0
 24 26  1  0  0  0  0
M  END
$$$$
default_name
  -OEChem-02102213163D

 29 28  0     1  0  0  0  0  0999 V2000
   -3.3998   -3.6239    1.3678 H   0  0  0  0  0  0  0  0  0  0  0  0
   -3.3608   -2.6749    0.8348 C   0  0  0  0  0  0  0  0  0  0  0  0
   -4.0988   -1.9909    1.2498 H   0  0  0  0  0  0  0  0  0  0  0  0
   -3.5618   -2.8419   -0.2222 H   0  0  0  0  0  0  0  0  0  0  0  0
   -1.9818   -2.0809    0.9918 C   0  0  0  0  0  0  0  0  0  0  0  0
   -1.1288   -2.6669    1.6468 O   0  0  0  0  0  0  0  0  0  0  0  0
   -1.7648   -0.9089    0.3998 N   0  0  0  0  0  0  0  0  0  0  0  0
   -2.5238   -0.4719   -0.1032 H   0  0  0  0  0  0  0  0  0  0  0  0
   -0.4848   -0.1959    0.4138 C   0  0  1  0  0  0  0  0  0  0  0  0
    0.1386   -0.6144    1.2058 H   0  0  0  0  0  0  0  0  0  0  0  0
    0.2271   -0.4272   -0.9334 C   0  0  0  0  0  0  0  0  0  0  0  0
    0.8411   -1.3261   -0.8474 H   0  0  0  0  0  0  0  0  0  0  0  0
   -0.5222   -0.5987   -1.7077 H   0  0  0  0  0  0  0  0  0  0  0  0
    1.1325    0.7388   -1.3672 C   0  0  0  0  0  0  0  0  0  0  0  0
    2.1777    0.4637   -1.2272 H   0  0  0  0  0  0  0  0  0  0  0  0
    0.9647    0.9426   -2.4247 H   0  0  0  0  0  0  0  0  0  0  0  0
    0.8738    2.0251   -0.5828 C   0  0  0  0  0  0  0  0  0  0  0  0
   -0.0100    2.1371    0.2460 O   0  0  0  0  0  0  0  0  0  0  0  0
    1.6502    3.0626   -0.8083 N   0  0  0  0  0  0  0  0  0  0  0  0
    1.4361    3.8808   -0.2649 H   0  0  0  0  0  0  0  0  0  0  0  0
    2.3929    3.0238   -1.4766 H   0  0  0  0  0  0  0  0  0  0  0  0
   -0.7011    1.2952    0.7149 C   0  0  0  0  0  0  0  0  0  0  0  0
   -1.5917    1.9198    0.1415 O   0  0  0  0  0  0  0  0  0  0  0  0
    0.1191    1.8675    1.6055 N   0  0  0  0  0  0  0  0  0  0  0  0
    0.8092    1.2861    2.0537 H   0  0  0  0  0  0  0  0  0  0  0  0
    0.0509    3.2769    1.9894 C   0  0  0  0  0  0  0  0  0  0  0  0
   -0.9494    3.5076    2.3640 H   0  0  0  0  0  0  0  0  0  0  0  0
    0.7844    3.4956    2.7668 H   0  0  0  0  0  0  0  0  0  0  0  0
    0.2468    3.9058    1.1193 H   0  0  0  0  0  0  0  0  0  0  0  0
  5  6  2  0  0  0  0
  5  7  1  0  0  0  0
  2  3  1  0  0  0  0
  2  4  1  0  0  0  0
  2  5  1  0  0  0  0
  1  2  1  0  0  0  0
 22 23  2  0  0  0  0
 22 24  1  0  0  0  0
 19 20  1  0  0  0  0
 19 21  1  0  0  0  0
 17 18  2  0  0  0  0
 17 19  1  0  0  0  0
 14 15  1  0  0  0  0
 14 16  1  0  0  0  0
 14 17  1  0  0  0  0
 11 12  1  0  0  0  0
 11 13  1  0  0  0  0
 11 14  1  0  0  0  0
  9 10  1  0  0  0  0
  9 11  1  0  0  0  0
  9 22  1  0  0  0  0
  7  8  1  0  0  0  0
  7  9  1  0  0  0  0
 26 27  1  0  0  0  0
 26 28  1  0  0  0  0
 26 29  1  0  0  0  0
 24 25  1  0  0  0  0
 24 26  1  0  0  0  0
M  END
$$$$
default_name
  -OEChem-02102213163D

 29 28  0     1  0  0  0  0  0999 V2000
   -3.3998   -3.6239    1.3678 H   0  0  0  0  0  0  0  0  0  0  0  0
   -3.3608   -2.6749    0.8348 C   0  0  0  0  0  0  0  0  0  0  0  0
   -4.0988   -1.9909    1.2498 H   0  0  0  0  0  0  0  0  0  0  0  0
   -3.5618   -2.8419   -0.2222 H   0  0  0  0  0  0  0  0  0  0  0  0
   -1.9818   -2.0809    0.9918 C   0  0  0  0  0  0  0  0  0  0  0  0
   -1.1288   -2.6669    1.6468 O   0  0  0  0  0  0  0  0  0  0  0  0
   -1.7648   -0.9089    0.3998 N   0  0  0  0  0  0  0  0  0  0  0  0
   -2.5238   -0.4719   -0.1032 H   0  0  0  0  0  0  0  0  0  0  0  0
   -0.4848   -0.1959    0.4138 C   0  0  1  0  0  0  0  0  0  0  0  0
    0.1386   -0.6144    1.2058 H   0  0  0  0  0  0  0  0  0  0  0  0
    0.2271   -0.4272   -0.9334 C   0  0  0  0  0  0  0  0  0  0  0  0
    0.8411   -1.3261   -0.8474 H   0  0  0  0  0  0  0  0  0  0  0  0
   -0.5222   -0.5987   -1.7077 H   0  0  0  0  0  0  0  0  0  0  0  0
    1.1325    0.7388   -1.3672 C   0  0  0  0  0  0  0  0  0  0  0  0
    2.1568    0.3850   -1.4824 H   0  0  0  0  0  0  0  0  0  0  0  0
    0.7849    1.1180   -2.3281 H   0  0  0  0  0  0  0  0  0  0  0  0
    1.1424    1.8962   -0.3687 C   0  0  0  0  0  0  0  0  0  0  0  0
    0.4460    1.9254    0.6287 O   0  0  0  0  0  0  0  0  0  0  0  0
    1.9500    2.9098   -0.5933 N   0  0  0  0  0  0  0  0  0  0  0  0
    1.9163    3.6418    0.0949 H   0  0  0  0  0  0  0  0  0  0  0  0
    2.5454    2.9353   -1.3962 H   0  0  0  0  0  0  0  0  0  0  0  0
   -0.7011    1.2952    0.7149 C   0  0  0  0  0  0  0  0  0  0  0  0
   -1.5917    1.9198    0.1415 O   0  0  0  0  0  0  0  0  0  0  0  0
    0.1191    1.8675    1.6055 N   0  0  0  0  0  0  0  0  0  0  0  0
    0.8092    1.2861    2.0537 H   0  0  0  0  0  0  0  0  0  0  0  0
    0.0509    3.2769    1.9894 C   0  0  0  0  0  0  0  0  0  0  0  0
   -0.9494    3.5076    2.3640 H   0  0  0  0  0  0  0  0  0  0  0  0
    0.7844    3.4956    2.7668 H   0  0  0  0  0  0  0  0  0  0  0  0
    0.2468    3.9058    1.1193 H   0  0  0  0  0  0  0  0  0  0  0  0
  5  6  2  0  0  0  0
  5  7  1  0  0  0  0
  2  3  1  0  0  0  0
  2  4  1  0  0  0  0
  2  5  1  0  0  0  0
  1  2  1  0  0  0  0
 22 23  2  0  0  0  0
 22 24  1  0  0  0  0
 19 20  1  0  0  0  0
 19 21  1  0  0  0  0
 17 18  2  0  0  0  0
 17 19  1  0  0  0  0
 14 15  1  0  0  0  0
 14 16  1  0  0  0  0
 14 17  1  0  0  0  0
 11 12  1  0  0  0  0
 11 13  1  0  0  0  0
 11 14  1  0  0  0  0
  9 10  1  0  0  0  0
  9 11  1  0  0  0  0
  9 22  1  0  0  0  0
  7  8  1  0  0  0  0
  7  9  1  0  0  0  0
 26 27  1  0  0  0  0
 26 28  1  0  0  0  0
 26 29  1  0  0  0  0
 24 25  1  0  0  0  0
 24 26  1  0  0  0  0
M  END
$$$$
default_name
  -OEChem-02102213163D

 29 28  0     1  0  0  0  0  0999 V2000
   -3.3998   -3.6239    1.3678 H   0  0  0  0  0  0  0  0  0  0  0  0
   -3.3608   -2.6749    0.8348 C   0  0  0  0  0  0  0  0  0  0  0  0
   -4.0988   -1.9909    1.2498 H   0  0  0  0  0  0  0  0  0  0  0  0
   -3.5618   -2.8419   -0.2222 H   0  0  0  0  0  0  0  0  0  0  0  0
   -1.9818   -2.0809    0.9918 C   0  0  0  0  0  0  0  0  0  0  0  0
   -1.1288   -2.6669    1.6468 O   0  0  0  0  0  0  0  0  0  0  0  0
   -1.7648   -0.9089    0.3998 N   0  0  0  0  0  0  0  0  0  0  0  0
   -2.5238   -0.4719   -0.1032 H   0  0  0  0  0  0  0  0  0  0  0  0
   -0.4848   -0.1959    0.4138 C   0  0  1  0  0  0  0  0  0  0  0  0
    0.1386   -0.6144    1.2058 H   0  0  0  0  0  0  0  0  0  0  0  0
    0.2271   -0.4272   -0.9334 C   0  0  0  0  0  0  0  0  0  0  0  0
    0.8411   -1.3261   -0.8474 H   0  0  0  0  0  0  0  0  0  0  0  0
   -0.5222   -0.5987   -1.7077 H   0  0  0  0  0  0  0  0  0  0  0  0
    1.1325    0.7388   -1.3672 C   0  0  0  0  0  0  0  0  0  0  0  0
    2.0808    0.3494   -1.7368 H   0  0  0  0  0  0  0  0  0  0  0  0
    0.6430    1.2860   -2.1728 H   0  0  0  0  0  0  0  0  0  0  0  0
    1.4344    1.7195   -0.2341 C   0  0  0  0  0  0  0  0  0  0  0  0
    0.9460    1.6294    0.8767 O   0  0  0  0  0  0  0  0  0  0  0  0
    2.2706    2.7076   -0.4677 N   0  0  0  0  0  0  0  0  0  0  0  0
    2.4332    3.3211    0.3119 H   0  0  0  0  0  0  0  0  0  0  0  0
    2.7020    2.8264   -1.3618 H   0  0  0  0  0  0  0  0  0  0  0  0
   -0.7011    1.2952    0.7149 C   0  0  0  0  0  0  0  0  0  0  0  0
   -1.5917    1.9198    0.1415 O   0  0  0  0  0  0  0  0  0  0  0  0
    0.1191    1.8675    1.6055 N   0  0  0  0  0  0  0  0  0  0  0  0
    0.8092    1.2861    2.0537 H   0  0  0  0  0  0  0  0  0  0  0  0
    0.0509    3.2769    1.9894 C   0  0  0  0  0  0  0  0  0  0  0  0
   -0.9494    3.5076    2.3640 H   0  0  0  0  0  0  0  0  0  0  0  0
    0.7844    3.4956    2.7668 H   0  0  0  0  0  0  0  0  0  0  0  0
    0.2468    3.9058    1.1193 H   0  0  0  0  0  0  0  0  0  0  0  0
  5  6  2  0  0  0  0
  5  7  1  0  0  0  0
  2  3  1  0  0  0  0
  2  4  1  0  0  0  0
  2  5  1  0  0  0  0
  1  2  1  0  0  0  0
 22 23  2  0  0  0  0
 22 24  1  0  0  0  0
 19 20  1  0  0  0  0
 19 21  1  0  0  0  0
 17 18  2  0  0  0  0
 17 19  1  0  0  0  0
 14 15  1  0  0  0  0
 14 16  1  0  0  0  0
 14 17  1  0  0  0  0
 11 12  1  0  0  0  0
 11 13  1  0  0  0  0
 11 14  1  0  0  0  0
  9 10  1  0  0  0  0
  9 11  1  0  0  0  0
  9 22  1  0  0  0  0
  7  8  1  0  0  0  0
  7  9  1  0  0  0  0
 26 27  1  0  0  0  0
 26 28  1  0  0  0  0
 26 29  1  0  0  0  0
 24 25  1  0  0  0  0
 24 26  1  0  0  0  0
M  END
$$$$
default_name
  -OEChem-02102213163D

 29 28  0     1  0  0  0  0  0999 V2000
   -3.3998   -3.6239    1.3678 H   0  0  0  0  0  0  0  0  0  0  0  0
   -3.3608   -2.6749    0.8348 C   0  0  0  0  0  0  0  0  0  0  0  0
   -4.0988   -1.9909    1.2498 H   0  0  0  0  0  0  0  0  0  0  0  0
   -3.5618   -2.8419   -0.2222 H   0  0  0  0  0  0  0  0  0  0  0  0
   -1.9818   -2.0809    0.9918 C   0  0  0  0  0  0  0  0  0  0  0  0
   -1.1288   -2.6669    1.6468 O   0  0  0  0  0  0  0  0  0  0  0  0
   -1.7648   -0.9089    0.3998 N   0  0  0  0  0  0  0  0  0  0  0  0
   -2.5238   -0.4719   -0.1032 H   0  0  0  0  0  0  0  0  0  0  0  0
   -0.4848   -0.1959    0.4138 C   0  0  1  0  0  0  0  0  0  0  0  0
    0.1386   -0.6144    1.2058 H   0  0  0  0  0  0  0  0  0  0  0  0
    0.2271   -0.4272   -0.9334 C   0  0  0  0  0  0  0  0  0  0  0  0
    0.8411   -1.3261   -0.8474 H   0  0  0  0  0  0  0  0  0  0  0  0
   -0.5222   -0.5987   -1.7077 H   0  0  0  0  0  0  0  0  0  0  0  0
    1.1325    0.7388   -1.3672 C   0  0  0  0  0  0  0  0  0  0  0  0
    1.9550    0.3592   -1.9730 H   0  0  0  0  0  0  0  0  0  0  0  0
    0.5487    1.4349   -1.9694 H   0  0  0  0  0  0  0  0  0  0  0  0
    1.7299    1.5070   -0.1884 C   0  0  0  0  0  0  0  0  0  0  0  0
    1.4561    1.2692    0.9731 O   0  0  0  0  0  0  0  0  0  0  0  0
    2.5901    2.4698   -0.4401 N   0  0  0  0  0  0  0  0  0  0  0  0
    2.9517    2.9405    0.3712 H   0  0  0  0  0  0  0  0  0  0  0  0
    2.8521    2.7046   -1.3760 H   0  0  0  0  0  0  0  0  0  0  0  0
   -0.7011    1.2952    0.7149 C   0  0  0  0  0  0  0  0  0  0  0  0
   -1.5917    1.9198    0.1415 O   0  0  0  0  0  0  0  0  0  0  0  0
    0.1191    1.8675    1.6055 N   0  0  0  0  0  0  0  0  0  0  0  0
    0.8092    1.2861    2.0537 H   0  0  0  0  0  0  0  0  0  0  0  0
    0.0509    3.2769    1.9894 C   0  0  0  0  0  0  0  0  0  0  0  0
   -0.9494    3.5076    2.3640 H   0  0  0  0  0  0  0  0  0  0  0  0
    0.7844    3.4956    2.7668 H   0  0  0  0  0  0  0  0  0  0  0  0
    0.2468    3.9058    1.1193 H   0  0  0  0  0  0  0  0  0  0  0  0
  5  6  2  0  0  0  0
  5  7  1  0  0  0  0
  2  3  1  0  0  0  0
  2  4  1  0  0  0  0
  2  5  1  0  0  0  0
  1  2  1  0  0  0  0
 22 23  2  0  0  0  0
 22 24  1  0  0  0  0
 19 20  1  0  0  0  0
 19 21  1  0  0  0  0
 17 18  2  0  0  0  0
 17 19  1  0  0  0  0
 14 15  1  0  0  0  0
 14 16  1  0  0  0  0
 14 17  1  0  0  0  0
 11 12  1  0  0  0  0
 11 13  1  0  0  0  0
 11 14  1  0  0  0  0
  9 10  1  0  0  0  0
  9 11  1  0  0  0  0
  9 22  1  0  0  0  0
  7  8  1  0  0  0  0
  7  9  1  0  0  0  0
 26 27  1  0  0  0  0
 26 28  1  0  0  0  0
 26 29  1  0  0  0  0
 24 25  1  0  0  0  0
 24 26  1  0  0  0  0
M  END
$$$$
default_name
  -OEChem-02102213163D

 29 28  0     1  0  0  0  0  0999 V2000
   -3.3998   -3.6239    1.3678 H   0  0  0  0  0  0  0  0  0  0  0  0
   -3.3608   -2.6749    0.8348 C   0  0  0  0  0  0  0  0  0  0  0  0
   -4.0988   -1.9909    1.2498 H   0  0  0  0  0  0  0  0  0  0  0  0
   -3.5618   -2.8419   -0.2222 H   0  0  0  0  0  0  0  0  0  0  0  0
   -1.9818   -2.0809    0.9918 C   0  0  0  0  0  0  0  0  0  0  0  0
   -1.1288   -2.6669    1.6468 O   0  0  0  0  0  0  0  0  0  0  0  0
   -1.7648   -0.9089    0.3998 N   0  0  0  0  0  0  0  0  0  0  0  0
   -2.5238   -0.4719   -0.1032 H   0  0  0  0  0  0  0  0  0  0  0  0
   -0.4848   -0.1959    0.4138 C   0  0  1  0  0  0  0  0  0  0  0  0
    0.1386   -0.6144    1.2058 H   0  0  0  0  0  0  0  0  0  0  0  0
    0.2271   -0.4272   -0.9334 C   0  0  0  0  0  0  0  0  0  0  0  0
    0.8411   -1.3261   -0.8474 H   0  0  0  0  0  0  0  0  0  0  0  0
   -0.5222   -0.5987   -1.7077 H   0  0  0  0  0  0  0  0  0  0  0  0
    1.1325    0.7388   -1.3672 C   0  0  0  0  0  0  0  0  0  0  0  0
    1.7878    0.4139   -2.1750 H   0  0  0  0  0  0  0  0  0  0  0  0
    0.5084    1.5546   -1.7318 H   0  0  0  0  0  0  0  0  0  0  0  0
    2.0089    1.2733   -0.2345 C   0  0  0  0  0  0  0  0  0  0  0  0
    1.9415    0.8693    0.9113 O   0  0  0  0  0  0  0  0  0  0  0  0
    2.8868    2.2126   -0.5123 N   0  0  0  0  0  0  0  0  0  0  0  0
    3.4364    2.5261    0.2689 H   0  0  0  0  0  0  0  0  0  0  0  0
    2.9854    2.5782   -1.4376 H   0  0  0  0  0  0  0  0  0  0  0  0
   -0.7011    1.2952    0.7149 C   0  0  0  0  0  0  0  0  0  0  0  0
   -1.5917    1.9198    0.1415 O   0  0  0  0  0  0  0  0  0  0  0  0
    0.1191    1.8675    1.6055 N   0  0  0  0  0  0  0  0  0  0  0  0
    0.8092    1.2861    2.0537 H   0  0  0  0  0  0  0  0  0  0  0  0
    0.0509    3.2769    1.9894 C   0  0  0  0  0  0  0  0  0  0  0  0
   -0.9494    3.5076    2.3640 H   0  0  0  0  0  0  0  0  0  0  0  0
    0.7844    3.4956    2.7668 H   0  0  0  0  0  0  0  0  0  0  0  0
    0.2468    3.9058    1.1193 H   0  0  0  0  0  0  0  0  0  0  0  0
  5  6  2  0  0  0  0
  5  7  1  0  0  0  0
  2  3  1  0  0  0  0
  2  4  1  0  0  0  0
  2  5  1  0  0  0  0
  1  2  1  0  0  0  0
 22 23  2  0  0  0  0
 22 24  1  0  0  0  0
 19 20  1  0  0  0  0
 19 21  1  0  0  0  0
 17 18  2  0  0  0  0
 17 19  1  0  0  0  0
 14 15  1  0  0  0  0
 14 16  1  0  0  0  0
 14 17  1  0  0  0  0
 11 12  1  0  0  0  0
 11 13  1  0  0  0  0
 11 14  1  0  0  0  0
  9 10  1  0  0  0  0
  9 11  1  0  0  0  0
  9 22  1  0  0  0  0
  7  8  1  0  0  0  0
  7  9  1  0  0  0  0
 26 27  1  0  0  0  0
 26 28  1  0  0  0  0
 26 29  1  0  0  0  0
 24 25  1  0  0  0  0
 24 26  1  0  0  0  0
M  END
$$$$
default_name
  -OEChem-02102213163D

 29 28  0     1  0  0  0  0  0999 V2000
   -3.3998   -3.6239    1.3678 H   0  0  0  0  0  0  0  0  0  0  0  0
   -3.3608   -2.6749    0.8348 C   0  0  0  0  0  0  0  0  0  0  0  0
   -4.0988   -1.9909    1.2498 H   0  0  0  0  0  0  0  0  0  0  0  0
   -3.5618   -2.8419   -0.2222 H   0  0  0  0  0  0  0  0  0  0  0  0
   -1.9818   -2.0809    0.9918 C   0  0  0  0  0  0  0  0  0  0  0  0
   -1.1288   -2.6669    1.6468 O   0  0  0  0  0  0  0  0  0  0  0  0
   -1.7648   -0.9089    0.3998 N   0  0  0  0  0  0  0  0  0  0  0  0
   -2.5238   -0.4719   -0.1032 H   0  0  0  0  0  0  0  0  0  0  0  0
   -0.4848   -0.1959    0.4138 C   0  0  1  0  0  0  0  0  0  0  0  0
    0.1386   -0.6144    1.2058 H   0  0  0  0  0  0  0  0  0  0  0  0
    0.2271   -0.4272   -0.9334 C   0  0  0  0  0  0  0  0  0  0  0  0
    0.8411   -1.3261   -0.8474 H   0  0  0  0  0  0  0  0  0  0  0  0
   -0.5222   -0.5987   -1.7077 H   0  0  0  0  0  0  0  0  0  0  0  0
    1.1325    0.7388   -1.3672 C   0  0  0  0  0  0  0  0  0  0  0  0
    1.5906    0.5097   -2.3291 H   0  0  0  0  0  0  0  0  0  0  0  0
    0.5247    1.6370   -1.4761 H   0  0  0  0  0  0  0  0  0  0  0  0
    2.2522    1.0341   -0.3694 C   0  0  0  0  0  0  0  0  0  0  0  0
    2.3690    0.4571    0.6955 O   0  0  0  0  0  0  0  0  0  0  0  0
    3.1405    1.9534   -0.6794 N   0  0  0  0  0  0  0  0  0  0  0  0
    3.8543    2.1060    0.0118 H   0  0  0  0  0  0  0  0  0  0  0  0
    3.0929    2.4557   -1.5426 H   0  0  0  0  0  0  0  0  0  0  0  0
   -0.7011    1.2952    0.7149 C   0  0  0  0  0  0  0  0  0  0  0  0
   -1.5917    1.9198    0.1415 O   0  0  0  0  0  0  0  0  0  0  0  0
    0.1191    1.8675    1.6055 N   0  0  0  0  0  0  0  0  0  0  0  0
    0.8092    1.2861    2.0537 H   0  0  0  0  0  0  0  0  0  0  0  0
    0.0509    3.2769    1.9894 C   0  0  0  0  0  0  0  0  0  0  0  0
   -0.9494    3.5076    2.3640 H   0  0  0  0  0  0  0  0  0  0  0  0
    0.7844    3.4956    2.7668 H   0  0  0  0  0  0  0  0  0  0  0  0
    0.2468    3.9058    1.1193 H   0  0  0  0  0  0  0  0  0  0  0  0
  5  6  2  0  0  0  0
  5  7  1  0  0  0  0
  2  3  1  0  0  0  0
  2  4  1  0  0  0  0
  2  5  1  0  0  0  0
  1  2  1  0  0  0  0
 22 23  2  0  0  0  0
 22 24  1  0  0  0  0
 19 20  1  0  0  0  0
 19 21  1  0  0  0  0
 17 18  2  0  0  0  0
 17 19  1  0  0  0  0
 14 15  1  0  0  0  0
 14 16  1  0  0  0  0
 14 17  1  0  0  0  0
 11 12  1  0  0  0  0
 11 13  1  0  0  0  0
 11 14  1  0  0  0  0
  9 10  1  0  0  0  0
  9 11  1  0  0  0  0
  9 22  1  0  0  0  0
  7  8  1  0  0  0  0
  7  9  1  0  0  0  0
 26 27  1  0  0  0  0
 26 28  1  0  0  0  0
 26 29  1  0  0  0  0
 24 25  1  0  0  0  0
 24 26  1  0  0  0  0
M  END
$$$$
default_name
  -OEChem-02102213163D

 29 28  0     1  0  0  0  0  0999 V2000
   -3.3998   -3.6239    1.3678 H   0  0  0  0  0  0  0  0  0  0  0  0
   -3.3608   -2.6749    0.8348 C   0  0  0  0  0  0  0  0  0  0  0  0
   -4.0988   -1.9909    1.2498 H   0  0  0  0  0  0  0  0  0  0  0  0
   -3.5618   -2.8419   -0.2222 H   0  0  0  0  0  0  0  0  0  0  0  0
   -1.9818   -2.0809    0.9918 C   0  0  0  0  0  0  0  0  0  0  0  0
   -1.1288   -2.6669    1.6468 O   0  0  0  0  0  0  0  0  0  0  0  0
   -1.7648   -0.9089    0.3998 N   0  0  0  0  0  0  0  0  0  0  0  0
   -2.5238   -0.4719   -0.1032 H   0  0  0  0  0  0  0  0  0  0  0  0
   -0.4848   -0.1959    0.4138 C   0  0  1  0  0  0  0  0  0  0  0  0
    0.1386   -0.6144    1.2058 H   0  0  0  0  0  0  0  0  0  0  0  0
    0.2271   -0.4272   -0.9334 C   0  0  0  0  0  0  0  0  0  0  0  0
    0.8411   -1.3261   -0.8474 H   0  0  0  0  0  0  0  0  0  0  0  0
   -0.5222   -0.5987   -1.7077 H   0  0  0  0  0  0  0  0  0  0  0  0
    1.1325    0.7388   -1.3672 C   0  0  0  0  0  0  0  0  0  0  0  0
    1.3770    0.6400   -2.4246 H   0  0  0  0  0  0  0  0  0  0  0  0
    0.5967    1.6765   -1.2198 H   0  0  0  0  0  0  0  0  0  0  0  0
    2.4434    0.8060   -0.5838 C   0  0  0  0  0  0  0  0  0  0  0  0
    2.7095    0.0606    0.3405 O   0  0  0  0  0  0  0  0  0  0  0  0
    3.3339    1.7100   -0.9300 N   0  0  0  0  0  0  0  0  0  0  0  0
    4.1768    1.7089   -0.3824 H   0  0  0  0  0  0  0  0  0  0  0  0
    3.1671    2.3456   -1.6837 H   0  0  0  0  0  0  0  0  0  0  0  0
   -0.7011    1.2952    0.7149 C   0  0  0  0  0  0  0  0  0  0  0  0
   -1.5917    1.9198    0.1415 O   0  0  0  0  0  0  0  0  0  0  0  0
    0.1191    1.8675    1.6055 N   0  0  0  0  0  0  0  0  0  0  0  0
    0.8092    1.2861    2.0537 H   0  0  0  0  0  0  0  0  0  0  0  0
    0.0509    3.2769    1.9894 C   0  0  0  0  0  0  0  0  0  0  0  0
   -0.9494    3.5076    2.3640 H   0  0  0  0  0  0  0  0  0  0  0  0
    0.7844    3.4956    2.7668 H   0  0  0  0  0  0  0  0  0  0  0  0
    0.2468    3.9058    1.1193 H   0  0  0  0  0  0  0  0  0  0  0  0
  5  6  2  0  0  0  0
  5  7  1  0  0  0  0
  2  3  1  0  0  0  0
  2  4  1  0  0  0  0
  2  5  1  0  0  0  0
  1  2  1  0  0  0  0
 22 23  2  0  0  0  0
 22 24  1  0  0  0  0
 19 20  1  0  0  0  0
 19 21  1  0  0  0  0
 17 18  2  0  0  0  0
 17 19  1  0  0  0  0
 14 15  1  0  0  0  0
 14 16  1  0  0  0  0
 14 17  1  0  0  0  0
 11 12  1  0  0  0  0
 11 13  1  0  0  0  0
 11 14  1  0  0  0  0
  9 10  1  0  0  0  0
  9 11  1  0  0  0  0
  9 22  1  0  0  0  0
  7  8  1  0  0  0  0
  7  9  1  0  0  0  0
 26 27  1  0  0  0  0
 26 28  1  0  0  0  0
 26 29  1  0  0  0  0
 24 25  1  0  0  0  0
 24 26  1  0  0  0  0
M  END
$$$$
default_name
  -OEChem-02102213163D

 29 28  0     1  0  0  0  0  0999 V2000
   -3.3998   -3.6239    1.3678 H   0  0  0  0  0  0  0  0  0  0  0  0
   -3.3608   -2.6749    0.8348 C   0  0  0  0  0  0  0  0  0  0  0  0
   -4.0988   -1.9909    1.2498 H   0  0  0  0  0  0  0  0  0  0  0  0
   -3.5618   -2.8419   -0.2222 H   0  0  0  0  0  0  0  0  0  0  0  0
   -1.9818   -2.0809    0.9918 C   0  0  0  0  0  0  0  0  0  0  0  0
   -1.1288   -2.6669    1.6468 O   0  0  0  0  0  0  0  0  0  0  0  0
   -1.7648   -0.9089    0.3998 N   0  0  0  0  0  0  0  0  0  0  0  0
   -2.5238   -0.4719   -0.1032 H   0  0  0  0  0  0  0  0  0  0  0  0
   -0.4848   -0.1959    0.4138 C   0  0  1  0  0  0  0  0  0  0  0  0
    0.1386   -0.6144    1.2058 H   0  0  0  0  0  0  0  0  0  0  0  0
    0.2271   -0.4272   -0.9334 C   0  0  0  0  0  0  0  0  0  0  0  0
    0.8411   -1.3261   -0.8474 H   0  0  0  0  0  0  0  0  0  0  0  0
   -0.5222   -0.5987   -1.7077 H   0  0  0  0  0  0  0  0  0  0  0  0
    1.1325    0.7388   -1.3672 C   0  0  0  0  0  0  0  0  0  0  0  0
    1.1614    0.7961   -2.4551 H   0  0  0  0  0  0  0  0  0  0  0  0
    0.7193    1.6703   -0.9803 H   0  0  0  0  0  0  0  0  0  0  0  0
    2.5693    0.6042   -0.8631 C   0  0  0  0  0  0  0  0  0  0  0  0
    2.9399   -0.2931   -0.1297 O   0  0  0  0  0  0  0  0  0  0  0  0
    3.4537    1.4990   -1.2471 N   0  0  0  0  0  0  0  0  0  0  0  0
    4.3821    1.3618   -0.8869 H   0  0  0  0  0  0  0  0  0  0  0  0
    3.2032    2.2552   -1.8513 H   0  0  0  0  0  0  0  0  0  0  0  0
   -0.7011    1.2952    0.7149 C   0  0  0  0  0  0  0  0  0  0  0  0
   -1.5917    1.9198    0.1415 O   0  0  0  0  0  0  0  0  0  0  0  0
    0.1191    1.8675    1.6055 N   0  0  0  0  0  0  0  0  0  0  0  0
    0.8092    1.2861    2.0537 H   0  0  0  0  0  0  0  0  0  0  0  0
    0.0509    3.2769    1.9894 C   0  0  0  0  0  0  0  0  0  0  0  0
   -0.9494    3.5076    2.3640 H   0  0  0  0  0  0  0  0  0  0  0  0
    0.7844    3.4956    2.7668 H   0  0  0  0  0  0  0  0  0  0  0  0
    0.2468    3.9058    1.1193 H   0  0  0  0  0  0  0  0  0  0  0  0
  5  6  2  0  0  0  0
  5  7  1  0  0  0  0
  2  3  1  0  0  0  0
  2  4  1  0  0  0  0
  2  5  1  0  0  0  0
  1  2  1  0  0  0  0
 22 23  2  0  0  0  0
 22 24  1  0  0  0  0
 19 20  1  0  0  0  0
 19 21  1  0  0  0  0
 17 18  2  0  0  0  0
 17 19  1  0  0  0  0
 14 15  1  0  0  0  0
 14 16  1  0  0  0  0
 14 17  1  0  0  0  0
 11 12  1  0  0  0  0
 11 13  1  0  0  0  0
 11 14  1  0  0  0  0
  9 10  1  0  0  0  0
  9 11  1  0  0  0  0
  9 22  1  0  0  0  0
  7  8  1  0  0  0  0
  7  9  1  0  0  0  0
 26 27  1  0  0  0  0
 26 28  1  0  0  0  0
 26 29  1  0  0  0  0
 24 25  1  0  0  0  0
 24 26  1  0  0  0  0
M  END
$$$$
default_name
  -OEChem-02102213163D

 29 28  0     1  0  0  0  0  0999 V2000
   -3.3998   -3.6239    1.3678 H   0  0  0  0  0  0  0  0  0  0  0  0
   -3.3608   -2.6749    0.8348 C   0  0  0  0  0  0  0  0  0  0  0  0
   -4.0988   -1.9909    1.2498 H   0  0  0  0  0  0  0  0  0  0  0  0
   -3.5618   -2.8419   -0.2222 H   0  0  0  0  0  0  0  0  0  0  0  0
   -1.9818   -2.0809    0.9918 C   0  0  0  0  0  0  0  0  0  0  0  0
   -1.1288   -2.6669    1.6468 O   0  0  0  0  0  0  0  0  0  0  0  0
   -1.7648   -0.9089    0.3998 N   0  0  0  0  0  0  0  0  0  0  0  0
   -2.5238   -0.4719   -0.1032 H   0  0  0  0  0  0  0  0  0  0  0  0
   -0.4848   -0.1959    0.4138 C   0  0  1  0  0  0  0  0  0  0  0  0
    0.1386   -0.6144    1.2058 H   0  0  0  0  0  0  0  0  0  0  0  0
    0.2271   -0.4272   -0.9334 C   0  0  0  0  0  0  0  0  0  0  0  0
    0.8411   -1.3261   -0.8474 H   0  0  0  0  0  0  0  0  0  0  0  0
   -0.5222   -0.5987   -1.7077 H   0  0  0  0  0  0  0  0  0  0  0  0
    1.1325    0.7388   -1.3672 C   0  0  0  0  0  0  0  0  0  0  0  0
    0.9586    0.9672   -2.4185 H   0  0  0  0  0  0  0  0  0  0  0  0
    0.8843    1.6189   -0.7740 H   0  0  0  0  0  0  0  0  0  0  0  0
    2.6215    0.4428   -1.1884 C   0  0  0  0  0  0  0  0  0  0  0  0
    3.0443   -0.5800   -0.6828 O   0  0  0  0  0  0  0  0  0  0  0  0
    3.4919    1.3348   -1.6090 N   0  0  0  0  0  0  0  0  0  0  0  0
    4.4561    1.0884   -1.4674 H   0  0  0  0  0  0  0  0  0  0  0  0
    3.1985    2.1909   -2.0340 H   0  0  0  0  0  0  0  0  0  0  0  0
   -0.7011    1.2952    0.7149 C   0  0  0  0  0  0  0  0  0  0  0  0
   -1.5917    1.9198    0.1415 O   0  0  0  0  0  0  0  0  0  0  0  0
    0.1191    1.8675    1.6055 N   0  0  0  0  0  0  0  0  0  0  0  0
    0.8092    1.2861    2.0537 H   0  0  0  0  0  0  0  0  0  0  0  0
    0.0509    3.2769    1.9894 C   0  0  0  0  0  0  0  0  0  0  0  0
   -0.9494    3.5076    2.3640 H   0  0  0  0  0  0  0  0  0  0  0  0
    0.7844    3.4956    2.7668 H   0  0  0  0  0  0  0  0  0  0  0  0
    0.2468    3.9058    1.1193 H   0  0  0  0  0  0  0  0  0  0  0  0
  5  6  2  0  0  0  0
  5  7  1  0  0  0  0
  2  3  1  0  0  0  0
  2  4  1  0  0  0  0
  2  5  1  0  0  0  0
  1  2  1  0  0  0  0
 22 23  2  0  0  0  0
 22 24  1  0  0  0  0
 19 20  1  0  0  0  0
 19 21  1  0  0  0  0
 17 18  2  0  0  0  0
 17 19  1  0  0  0  0
 14 15  1  0  0  0  0
 14 16  1  0  0  0  0
 14 17  1  0  0  0  0
 11 12  1  0  0  0  0
 11 13  1  0  0  0  0
 11 14  1  0  0  0  0
  9 10  1  0  0  0  0
  9 11  1  0  0  0  0
  9 22  1  0  0  0  0
  7  8  1  0  0  0  0
  7  9  1  0  0  0  0
 26 27  1  0  0  0  0
 26 28  1  0  0  0  0
 26 29  1  0  0  0  0
 24 25  1  0  0  0  0
 24 26  1  0  0  0  0
M  END
$$$$
default_name
  -OEChem-02102213163D

 29 28  0     1  0  0  0  0  0999 V2000
   -3.3998   -3.6239    1.3678 H   0  0  0  0  0  0  0  0  0  0  0  0
   -3.3608   -2.6749    0.8348 C   0  0  0  0  0  0  0  0  0  0  0  0
   -4.0988   -1.9909    1.2498 H   0  0  0  0  0  0  0  0  0  0  0  0
   -3.5618   -2.8419   -0.2222 H   0  0  0  0  0  0  0  0  0  0  0  0
   -1.9818   -2.0809    0.9918 C   0  0  0  0  0  0  0  0  0  0  0  0
   -1.1288   -2.6669    1.6468 O   0  0  0  0  0  0  0  0  0  0  0  0
   -1.7648   -0.9089    0.3998 N   0  0  0  0  0  0  0  0  0  0  0  0
   -2.5238   -0.4719   -0.1032 H   0  0  0  0  0  0  0  0  0  0  0  0
   -0.4848   -0.1959    0.4138 C   0  0  1  0  0  0  0  0  0  0  0  0
    0.1386   -0.6144    1.2058 H   0  0  0  0  0  0  0  0  0  0  0  0
    0.2271   -0.4272   -0.9334 C   0  0  0  0  0  0  0  0  0  0  0  0
    0.8411   -1.3261   -0.8474 H   0  0  0  0  0  0  0  0  0  0  0  0
   -0.5222   -0.5987   -1.7077 H   0  0  0  0  0  0  0  0  0  0  0  0
    1.1325    0.7388   -1.3672 C   0  0  0  0  0  0  0  0  0  0  0  0
    0.7823    1.1417   -2.3173 H   0  0  0  0  0  0  0  0  0  0  0  0
    1.0804    1.5259   -0.6149 H   0  0  0  0  0  0  0  0  0  0  0  0
    2.5962    0.3325   -1.5374 C   0  0  0  0  0  0  0  0  0  0  0  0
    3.0159   -0.7806   -1.2813 O   0  0  0  0  0  0  0  0  0  0  0  0
    3.4458    1.2284   -1.9911 N   0  0  0  0  0  0  0  0  0  0  0  0
    4.3938    0.9073   -2.0842 H   0  0  0  0  0  0  0  0  0  0  0  0
    3.1534    2.1569   -2.2194 H   0  0  0  0  0  0  0  0  0  0  0  0
   -0.7011    1.2952    0.7149 C   0  0  0  0  0  0  0  0  0  0  0  0
   -1.5917    1.9198    0.1415 O   0  0  0  0  0  0  0  0  0  0  0  0
    0.1191    1.8675    1.6055 N   0  0  0  0  0  0  0  0  0  0  0  0
    0.8092    1.2861    2.0537 H   0  0  0  0  0  0  0  0  0  0  0  0
    0.0509    3.2769    1.9894 C   0  0  0  0  0  0  0  0  0  0  0  0
   -0.9494    3.5076    2.3640 H   0  0  0  0  0  0  0  0  0  0  0  0
    0.7844    3.4956    2.7668 H   0  0  0  0  0  0  0  0  0  0  0  0
    0.2468    3.9058    1.1193 H   0  0  0  0  0  0  0  0  0  0  0  0
  5  6  2  0  0  0  0
  5  7  1  0  0  0  0
  2  3  1  0  0  0  0
  2  4  1  0  0  0  0
  2  5  1  0  0  0  0
  1  2  1  0  0  0  0
 22 23  2  0  0  0  0
 22 24  1  0  0  0  0
 19 20  1  0  0  0  0
 19 21  1  0  0  0  0
 17 18  2  0  0  0  0
 17 19  1  0  0  0  0
 14 15  1  0  0  0  0
 14 16  1  0  0  0  0
 14 17  1  0  0  0  0
 11 12  1  0  0  0  0
 11 13  1  0  0  0  0
 11 14  1  0  0  0  0
  9 10  1  0  0  0  0
  9 11  1  0  0  0  0
  9 22  1  0  0  0  0
  7  8  1  0  0  0  0
  7  9  1  0  0  0  0
 26 27  1  0  0  0  0
 26 28  1  0  0  0  0
 26 29  1  0  0  0  0
 24 25  1  0  0  0  0
 24 26  1  0  0  0  0
M  END
$$$$
default_name
  -OEChem-02102213163D

 29 28  0     1  0  0  0  0  0999 V2000
   -3.3998   -3.6239    1.3678 H   0  0  0  0  0  0  0  0  0  0  0  0
   -3.3608   -2.6749    0.8348 C   0  0  0  0  0  0  0  0  0  0  0  0
   -4.0988   -1.9909    1.2498 H   0  0  0  0  0  0  0  0  0  0  0  0
   -3.5618   -2.8419   -0.2222 H   0  0  0  0  0  0  0  0  0  0  0  0
   -1.9818   -2.0809    0.9918 C   0  0  0  0  0  0  0  0  0  0  0  0
   -1.1288   -2.6669    1.6468 O   0  0  0  0  0  0  0  0  0  0  0  0
   -1.7648   -0.9089    0.3998 N   0  0  0  0  0  0  0  0  0  0  0  0
   -2.5238   -0.4719   -0.1032 H   0  0  0  0  0  0  0  0  0  0  0  0
   -0.4848   -0.1959    0.4138 C   0  0  1  0  0  0  0  0  0  0  0  0
    0.1386   -0.6144    1.2058 H   0  0  0  0  0  0  0  0  0  0  0  0
    0.2271   -0.4272   -0.9334 C   0  0  0  0  0  0  0  0  0  0  0  0
    0.8411   -1.3261   -0.8474 H   0  0  0  0  0  0  0  0  0  0  0  0
   -0.5222   -0.5987   -1.7077 H   0  0  0  0  0  0  0  0  0  0  0  0
    1.1325    0.7388   -1.3672 C   0  0  0  0  0  0  0  0  0  0  0  0
    0.6447    1.3077   -2.1584 H   0  0  0  0  0  0  0  0  0  0  0  0
    1.2943    1.3974   -0.5139 H   0  0  0  0  0  0  0  0  0  0  0  0
    2.4954    0.2810   -1.8863 C   0  0  0  0  0  0  0  0  0  0  0  0
    2.8563   -0.8810   -1.8844 O   0  0  0  0  0  0  0  0  0  0  0  0
    3.3186    1.1872   -2.3673 N   0  0  0  0  0  0  0  0  0  0  0  0
    4.1995    0.8309   -2.6954 H   0  0  0  0  0  0  0  0  0  0  0  0
    3.0711    2.1556   -2.3949 H   0  0  0  0  0  0  0  0  0  0  0  0
   -0.7011    1.2952    0.7149 C   0  0  0  0  0  0  0  0  0  0  0  0
   -1.5917    1.9198    0.1415 O   0  0  0  0  0  0  0  0  0  0  0  0
    0.1191    1.8675    1.6055 N   0  0  0  0  0  0  0  0  0  0  0  0
    0.8092    1.2861    2.0537 H   0  0  0  0  0  0  0  0  0  0  0  0
    0.0509    3.2769    1.9894 C   0  0  0  0  0  0  0  0  0  0  0  0
   -0.9494    3.5076    2.3640 H   0  0  0  0  0  0  0  0  0  0  0  0
    0.7844    3.4956    2.7668 H   0  0  0  0  0  0  0  0  0  0  0  0
    0.2468    3.9058    1.1193 H   0  0  0  0  0  0  0  0  0  0  0  0
  5  6  2  0  0  0  0
  5  7  1  0  0  0  0
  2  3  1  0  0  0  0
  2  4  1  0  0  0  0
  2  5  1  0  0  0  0
  1  2  1  0  0  0  0
 22 23  2  0  0  0  0
 22 24  1  0  0  0  0
 19 20  1  0  0  0  0
 19 21  1  0  0  0  0
 17 18  2  0  0  0  0
 17 19  1  0  0  0  0
 14 15  1  0  0  0  0
 14 16  1  0  0  0  0
 14 17  1  0  0  0  0
 11 12  1  0  0  0  0
 11 13  1  0  0  0  0
 11 14  1  0  0  0  0
  9 10  1  0  0  0  0
  9 11  1  0  0  0  0
  9 22  1  0  0  0  0
  7  8  1  0  0  0  0
  7  9  1  0  0  0  0
 26 27  1  0  0  0  0
 26 28  1  0  0  0  0
 26 29  1  0  0  0  0
 24 25  1  0  0  0  0
 24 26  1  0  0  0  0
M  END
$$$$
default_name
  -OEChem-02102213163D

 29 28  0     1  0  0  0  0  0999 V2000
   -3.3998   -3.6239    1.3678 H   0  0  0  0  0  0  0  0  0  0  0  0
   -3.3608   -2.6749    0.8348 C   0  0  0  0  0  0  0  0  0  0  0  0
   -4.0988   -1.9909    1.2498 H   0  0  0  0  0  0  0  0  0  0  0  0
   -3.5618   -2.8419   -0.2222 H   0  0  0  0  0  0  0  0  0  0  0  0
   -1.9818   -2.0809    0.9918 C   0  0  0  0  0  0  0  0  0  0  0  0
   -1.1288   -2.6669    1.6468 O   0  0  0  0  0  0  0  0  0  0  0  0
   -1.7648   -0.9089    0.3998 N   0  0  0  0  0  0  0  0  0  0  0  0
   -2.5238   -0.4719   -0.1032 H   0  0  0  0  0  0  0  0  0  0  0  0
   -0.4848   -0.1959    0.4138 C   0  0  1  0  0  0  0  0  0  0  0  0
    0.1386   -0.6144    1.2058 H   0  0  0  0  0  0  0  0  0  0  0  0
    0.2271   -0.4272   -0.9334 C   0  0  0  0  0  0  0  0  0  0  0  0
    0.8411   -1.3261   -0.8474 H   0  0  0  0  0  0  0  0  0  0  0  0
   -0.5222   -0.5987   -1.7077 H   0  0  0  0  0  0  0  0  0  0  0  0
    1.1325    0.7388   -1.3672 C   0  0  0  0  0  0  0  0  0  0  0  0
    0.5550    1.4539   -1.9527 H   0  0  0  0  0  0  0  0  0  0  0  0
    1.5113    1.2423   -0.4778 H   0  0  0  0  0  0  0  0  0  0  0  0
    2.3258    0.2918   -2.2115 C   0  0  0  0  0  0  0  0  0  0  0  0
    2.5766   -0.8745   -2.4509 O   0  0  0  0  0  0  0  0  0  0  0  0
    3.1189    1.2140   -2.7121 N   0  0  0  0  0  0  0  0  0  0  0  0
    3.8863    0.8644   -3.2592 H   0  0  0  0  0  0  0  0  0  0  0  0
    2.9570    2.1870   -2.5484 H   0  0  0  0  0  0  0  0  0  0  0  0
   -0.7011    1.2952    0.7149 C   0  0  0  0  0  0  0  0  0  0  0  0
   -1.5917    1.9198    0.1415 O   0  0  0  0  0  0  0  0  0  0  0  0
    0.1191    1.8675    1.6055 N   0  0  0  0  0  0  0  0  0  0  0  0
    0.8092    1.2861    2.0537 H   0  0  0  0  0  0  0  0  0  0  0  0
    0.0509    3.2769    1.9894 C   0  0  0  0  0  0  0  0  0  0  0  0
   -0.9494    3.5076    2.3640 H   0  0  0  0  0  0  0  0  0  0  0  0
    0.7844    3.4956    2.7668 H   0  0  0  0  0  0  0  0  0  0  0  0
    0.2468    3.9058    1.1193 H   0  0  0  0  0  0  0  0  0  0  0  0
  5  6  2  0  0  0  0
  5  7  1  0  0  0  0
  2  3  1  0  0  0  0
  2  4  1  0  0  0  0
  2  5  1  0  0  0  0
  1  2  1  0  0  0  0
 22 23  2  0  0  0  0
 22 24  1  0  0  0  0
 19 20  1  0  0  0  0
 19 21  1  0  0  0  0
 17 18  2  0  0  0  0
 17 19  1  0  0  0  0
 14 15  1  0  0  0  0
 14 16  1  0  0  0  0
 14 17  1  0  0  0  0
 11 12  1  0  0  0  0
 11 13  1  0  0  0  0
 11 14  1  0  0  0  0
  9 10  1  0  0  0  0
  9 11  1  0  0  0  0
  9 22  1  0  0  0  0
  7  8  1  0  0  0  0
  7  9  1  0  0  0  0
 26 27  1  0  0  0  0
 26 28  1  0  0  0  0
 26 29  1  0  0  0  0
 24 25  1  0  0  0  0
 24 26  1  0  0  0  0
M  END
$$$$
default_name
  -OEChem-02102213163D

 29 28  0     1  0  0  0  0  0999 V2000
   -3.3998   -3.6239    1.3678 H   0  0  0  0  0  0  0  0  0  0  0  0
   -3.3608   -2.6749    0.8348 C   0  0  0  0  0  0  0  0  0  0  0  0
   -4.0988   -1.9909    1.2498 H   0  0  0  0  0  0  0  0  0  0  0  0
   -3.5618   -2.8419   -0.2222 H   0  0  0  0  0  0  0  0  0  0  0  0
   -1.9818   -2.0809    0.9918 C   0  0  0  0  0  0  0  0  0  0  0  0
   -1.1288   -2.6669    1.6468 O   0  0  0  0  0  0  0  0  0  0  0  0
   -1.7648   -0.9089    0.3998 N   0  0  0  0  0  0  0  0  0  0  0  0
   -2.5238   -0.4719   -0.1032 H   0  0  0  0  0  0  0  0  0  0  0  0
   -0.4848   -0.1959    0.4138 C   0  0  1  0  0  0  0  0  0  0  0  0
    0.1386   -0.6144    1.2058 H   0  0  0  0  0  0  0  0  0  0  0  0
    0.2271   -0.4272   -0.9334 C   0  0  0  0  0  0  0  0  0  0  0  0
    0.8411   -1.3261   -0.8474 H   0  0  0  0  0  0  0  0  0  0  0  0
   -0.5222   -0.5987   -1.7077 H   0  0  0  0  0  0  0  0  0  0  0  0
    1.1325    0.7388   -1.3672 C   0  0  0  0  0  0  0  0  0  0  0  0
    0.5193    1.5703   -1.7141 H   0  0  0  0  0  0  0  0  0  0  0  0
    1.7166    1.0712   -0.5091 H   0  0  0  0  0  0  0  0  0  0  0  0
    2.0990    0.3641   -2.4906 C   0  0  0  0  0  0  0  0  0  0  0  0
    2.1957   -0.7616   -2.9423 O   0  0  0  0  0  0  0  0  0  0  0  0
    2.8604    1.3070   -3.0018 N   0  0  0  0  0  0  0  0  0  0  0  0
    3.4756    1.0054   -3.7374 H   0  0  0  0  0  0  0  0  0  0  0  0
    2.8190    2.2491   -2.6695 H   0  0  0  0  0  0  0  0  0  0  0  0
   -0.7011    1.2952    0.7149 C   0  0  0  0  0  0  0  0  0  0  0  0
   -1.5917    1.9198    0.1415 O   0  0  0  0  0  0  0  0  0  0  0  0
    0.1191    1.8675    1.6055 N   0  0  0  0  0  0  0  0  0  0  0  0
    0.8092    1.2861    2.0537 H   0  0  0  0  0  0  0  0  0  0  0  0
    0.0509    3.2769    1.9894 C   0  0  0  0  0  0  0  0  0  0  0  0
   -0.9494    3.5076    2.3640 H   0  0  0  0  0  0  0  0  0  0  0  0
    0.7844    3.4956    2.7668 H   0  0  0  0  0  0  0  0  0  0  0  0
    0.2468    3.9058    1.1193 H   0  0  0  0  0  0  0  0  0  0  0  0
  5  6  2  0  0  0  0
  5  7  1  0  0  0  0
  2  3  1  0  0  0  0
  2  4  1  0  0  0  0
  2  5  1  0  0  0  0
  1  2  1  0  0  0  0
 22 23  2  0  0  0  0
 22 24  1  0  0  0  0
 19 20  1  0  0  0  0
 19 21  1  0  0  0  0
 17 18  2  0  0  0  0
 17 19  1  0  0  0  0
 14 15  1  0  0  0  0
 14 16  1  0  0  0  0
 14 17  1  0  0  0  0
 11 12  1  0  0  0  0
 11 13  1  0  0  0  0
 11 14  1  0  0  0  0
  9 10  1  0  0  0  0
  9 11  1  0  0  0  0
  9 22  1  0  0  0  0
  7  8  1  0  0  0  0
  7  9  1  0  0  0  0
 26 27  1  0  0  0  0
 26 28  1  0  0  0  0
 26 29  1  0  0  0  0
 24 25  1  0  0  0  0
 24 26  1  0  0  0  0
M  END
$$$$
default_name
  -OEChem-02102213163D

 29 28  0     1  0  0  0  0  0999 V2000
   -3.3998   -3.6239    1.3678 H   0  0  0  0  0  0  0  0  0  0  0  0
   -3.3608   -2.6749    0.8348 C   0  0  0  0  0  0  0  0  0  0  0  0
   -4.0988   -1.9909    1.2498 H   0  0  0  0  0  0  0  0  0  0  0  0
   -3.5618   -2.8419   -0.2222 H   0  0  0  0  0  0  0  0  0  0  0  0
   -1.9818   -2.0809    0.9918 C   0  0  0  0  0  0  0  0  0  0  0  0
   -1.1288   -2.6669    1.6468 O   0  0  0  0  0  0  0  0  0  0  0  0
   -1.7648   -0.9089    0.3998 N   0  0  0  0  0  0  0  0  0  0  0  0
   -2.5238   -0.4719   -0.1032 H   0  0  0  0  0  0  0  0  0  0  0  0
   -0.4848   -0.1959    0.4138 C   0  0  1  0  0  0  0  0  0  0  0  0
    0.1386   -0.6144    1.2058 H   0  0  0  0  0  0  0  0  0  0  0  0
    0.2271   -0.4272   -0.9334 C   0  0  0  0  0  0  0  0  0  0  0  0
    0.6189   -1.4464   -0.9442 H   0  0  0  0  0  0  0  0  0  0  0  0
   -0.4998   -0.3326   -1.7415 H   0  0  0  0  0  0  0  0  0  0  0  0
    1.3921    0.5429   -1.1964 C   0  0  0  0  0  0  0  0  0  0  0  0
    1.0243    1.5687   -1.1893 H   0  0  0  0  0  0  0  0  0  0  0  0
    2.1306    0.4324   -0.4024 H   0  0  0  0  0  0  0  0  0  0  0  0
    2.0866    0.2996   -2.5362 C   0  0  0  0  0  0  0  0  0  0  0  0
    1.7975   -0.6164   -3.2831 O   0  0  0  0  0  0  0  0  0  0  0  0
    3.0406    1.1263   -2.9059 N   0  0  0  0  0  0  0  0  0  0  0  0
    3.4618    0.9200   -3.7950 H   0  0  0  0  0  0  0  0  0  0  0  0
    3.3157    1.8969   -2.3313 H   0  0  0  0  0  0  0  0  0  0  0  0
   -0.7011    1.2952    0.7149 C   0  0  0  0  0  0  0  0  0  0  0  0
   -1.5917    1.9198    0.1415 O   0  0  0  0  0  0  0  0  0  0  0  0
    0.1191    1.8675    1.6055 N   0  0  0  0  0  0  0  0  0  0  0  0
    0.8092    1.2861    2.0537 H   0  0  0  0  0  0  0  0  0  0  0  0
    0.0509    3.2769    1.9894 C   0  0  0  0  0  0  0  0  0  0  0  0
   -0.9494    3.5076    2.3640 H   0  0  0  0  0  0  0  0  0  0  0  0
    0.7844    3.4956    2.7668 H   0  0  0  0  0  0  0  0  0  0  0  0
    0.2468    3.9058    1.1193 H   0  0  0  0  0  0  0  0  0  0  0  0
  5  6  2  0  0  0  0
  5  7  1  0  0  0  0
  2  3  1  0  0  0  0
  2  4  1  0  0  0  0
  2  5  1  0  0  0  0
  1  2  1  0  0  0  0
 22 23  2  0  0  0  0
 22 24  1  0  0  0  0
 19 20  1  0  0  0  0
 19 21  1  0  0  0  0
 17 18  2  0  0  0  0
 17 19  1  0  0  0  0
 14 15  1  0  0  0  0
 14 16  1  0  0  0  0
 14 17  1  0  0  0  0
 11 12  1  0  0  0  0
 11 13  1  0  0  0  0
 11 14  1  0  0  0  0
  9 10  1  0  0  0  0
  9 11  1  0  0  0  0
  9 22  1  0  0  0  0
  7  8  1  0  0  0  0
  7  9  1  0  0  0  0
 26 27  1  0  0  0  0
 26 28  1  0  0  0  0
 26 29  1  0  0  0  0
 24 25  1  0  0  0  0
 24 26  1  0  0  0  0
M  END
$$$$
default_name
  -OEChem-02102213163D

 29 28  0     1  0  0  0  0  0999 V2000
   -3.3998   -3.6239    1.3678 H   0  0  0  0  0  0  0  0  0  0  0  0
   -3.3608   -2.6749    0.8348 C   0  0  0  0  0  0  0  0  0  0  0  0
   -4.0988   -1.9909    1.2498 H   0  0  0  0  0  0  0  0  0  0  0  0
   -3.5618   -2.8419   -0.2222 H   0  0  0  0  0  0  0  0  0  0  0  0
   -1.9818   -2.0809    0.9918 C   0  0  0  0  0  0  0  0  0  0  0  0
   -1.1288   -2.6669    1.6468 O   0  0  0  0  0  0  0  0  0  0  0  0
   -1.7648   -0.9089    0.3998 N   0  0  0  0  0  0  0  0  0  0  0  0
   -2.5238   -0.4719   -0.1032 H   0  0  0  0  0  0  0  0  0  0  0  0
   -0.4848   -0.1959    0.4138 C   0  0  1  0  0  0  0  0  0  0  0  0
    0.1386   -0.6144    1.2058 H   0  0  0  0  0  0  0  0  0  0  0  0
    0.2271   -0.4272   -0.9334 C   0  0  0  0  0  0  0  0  0  0  0  0
    0.6189   -1.4464   -0.9442 H   0  0  0  0  0  0  0  0  0  0  0  0
   -0.4998   -0.3326   -1.7415 H   0  0  0  0  0  0  0  0  0  0  0  0
    1.3921    0.5429   -1.1964 C   0  0  0  0  0  0  0  0  0  0  0  0
    1.0928    1.5566   -0.9306 H   0  0  0  0  0  0  0  0  0  0  0  0
    2.2392    0.2555   -0.5737 H   0  0  0  0  0  0  0  0  0  0  0  0
    1.8490    0.5527   -2.6550 C   0  0  0  0  0  0  0  0  0  0  0  0
    1.3901   -0.1873   -3.5050 O   0  0  0  0  0  0  0  0  0  0  0  0
    2.7805    1.4095   -3.0135 N   0  0  0  0  0  0  0  0  0  0  0  0
    3.0419    1.3731   -3.9834 H   0  0  0  0  0  0  0  0  0  0  0  0
    3.1894    2.0419   -2.3558 H   0  0  0  0  0  0  0  0  0  0  0  0
   -0.7011    1.2952    0.7149 C   0  0  0  0  0  0  0  0  0  0  0  0
   -1.5917    1.9198    0.1415 O   0  0  0  0  0  0  0  0  0  0  0  0
    0.1191    1.8675    1.6055 N   0  0  0  0  0  0  0  0  0  0  0  0
    0.8092    1.2861    2.0537 H   0  0  0  0  0  0  0  0  0  0  0  0
    0.0509    3.2769    1.9894 C   0  0  0  0  0  0  0  0  0  0  0  0
   -0.9494    3.5076    2.3640 H   0  0  0  0  0  0  0  0  0  0  0  0
    0.7844    3.4956    2.7668 H   0  0  0  0  0  0  0  0  0  0  0  0
    0.2468    3.9058    1.1193 H   0  0  0  0  0  0  0  0  0  0  0  0
  5  6  2  0  0  0  0
  5  7  1  0  0  0  0
  2  3  1  0  0  0  0
  2  4  1  0  0  0  0
  2  5  1  0  0  0  0
  1  2  1  0  0  0  0
 22 23  2  0  0  0  0
 22 24  1  0  0  0  0
 19 20  1  0  0  0  0
 19 21  1  0  0  0  0
 17 18  2  0  0  0  0
 17 19  1  0  0  0  0
 14 15  1  0  0  0  0
 14 16  1  0  0  0  0
 14 17  1  0  0  0  0
 11 12  1  0  0  0  0
 11 13  1  0  0  0  0
 11 14  1  0  0  0  0
  9 10  1  0  0  0  0
  9 11  1  0  0  0  0
  9 22  1  0  0  0  0
  7  8  1  0  0  0  0
  7  9  1  0  0  0  0
 26 27  1  0  0  0  0
 26 28  1  0  0  0  0
 26 29  1  0  0  0  0
 24 25  1  0  0  0  0
 24 26  1  0  0  0  0
M  END
$$$$
default_name
  -OEChem-02102213163D

 29 28  0     1  0  0  0  0  0999 V2000
   -3.3998   -3.6239    1.3678 H   0  0  0  0  0  0  0  0  0  0  0  0
   -3.3608   -2.6749    0.8348 C   0  0  0  0  0  0  0  0  0  0  0  0
   -4.0988   -1.9909    1.2498 H   0  0  0  0  0  0  0  0  0  0  0  0
   -3.5618   -2.8419   -0.2222 H   0  0  0  0  0  0  0  0  0  0  0  0
   -1.9818   -2.0809    0.9918 C   0  0  0  0  0  0  0  0  0  0  0  0
   -1.1288   -2.6669    1.6468 O   0  0  0  0  0  0  0  0  0  0  0  0
   -1.7648   -0.9089    0.3998 N   0  0  0  0  0  0  0  0  0  0  0  0
   -2.5238   -0.4719   -0.1032 H   0  0  0  0  0  0  0  0  0  0  0  0
   -0.4848   -0.1959    0.4138 C   0  0  1  0  0  0  0  0  0  0  0  0
    0.1386   -0.6144    1.2058 H   0  0  0  0  0  0  0  0  0  0  0  0
    0.2271   -0.4272   -0.9334 C   0  0  0  0  0  0  0  0  0  0  0  0
    0.6189   -1.4464   -0.9442 H   0  0  0  0  0  0  0  0  0  0  0  0
   -0.4998   -0.3326   -1.7415 H   0  0  0  0  0  0  0  0  0  0  0  0
    1.3921    0.5429   -1.1964 C   0  0  0  0  0  0  0  0  0  0  0  0
    1.2007    1.4911   -0.6944 H   0  0  0  0  0  0  0  0  0  0  0  0
    2.3084    0.1134   -0.7915 H   0  0  0  0  0  0  0  0  0  0  0  0
    1.6114    0.8309   -2.6815 C   0  0  0  0  0  0  0  0  0  0  0  0
    0.9795    0.2886   -3.5687 O   0  0  0  0  0  0  0  0  0  0  0  0
    2.5242    1.7156   -3.0194 N   0  0  0  0  0  0  0  0  0  0  0  0
    2.6257    1.8663   -4.0081 H   0  0  0  0  0  0  0  0  0  0  0  0
    3.0699    2.1923   -2.3304 H   0  0  0  0  0  0  0  0  0  0  0  0
   -0.7011    1.2952    0.7149 C   0  0  0  0  0  0  0  0  0  0  0  0
   -1.5917    1.9198    0.1415 O   0  0  0  0  0  0  0  0  0  0  0  0
    0.1191    1.8675    1.6055 N   0  0  0  0  0  0  0  0  0  0  0  0
    0.8092    1.2861    2.0537 H   0  0  0  0  0  0  0  0  0  0  0  0
    0.0509    3.2769    1.9894 C   0  0  0  0  0  0  0  0  0  0  0  0
   -0.9494    3.5076    2.3640 H   0  0  0  0  0  0  0  0  0  0  0  0
    0.7844    3.4956    2.7668 H   0  0  0  0  0  0  0  0  0  0  0  0
    0.2468    3.9058    1.1193 H   0  0  0  0  0  0  0  0  0  0  0  0
  5  6  2  0  0  0  0
  5  7  1  0  0  0  0
  2  3  1  0  0  0  0
  2  4  1  0  0  0  0
  2  5  1  0  0  0  0
  1  2  1  0  0  0  0
 22 23  2  0  0  0  0
 22 24  1  0  0  0  0
 19 20  1  0  0  0  0
 19 21  1  0  0  0  0
 17 18  2  0  0  0  0
 17 19  1  0  0  0  0
 14 15  1  0  0  0  0
 14 16  1  0  0  0  0
 14 17  1  0  0  0  0
 11 12  1  0  0  0  0
 11 13  1  0  0  0  0
 11 14  1  0  0  0  0
  9 10  1  0  0  0  0
  9 11  1  0  0  0  0
  9 22  1  0  0  0  0
  7  8  1  0  0  0  0
  7  9  1  0  0  0  0
 26 27  1  0  0  0  0
 26 28  1  0  0  0  0
 26 29  1  0  0  0  0
 24 25  1  0  0  0  0
 24 26  1  0  0  0  0
M  END
$$$$
default_name
  -OEChem-02102213163D

 29 28  0     1  0  0  0  0  0999 V2000
   -3.3998   -3.6239    1.3678 H   0  0  0  0  0  0  0  0  0  0  0  0
   -3.3608   -2.6749    0.8348 C   0  0  0  0  0  0  0  0  0  0  0  0
   -4.0988   -1.9909    1.2498 H   0  0  0  0  0  0  0  0  0  0  0  0
   -3.5618   -2.8419   -0.2222 H   0  0  0  0  0  0  0  0  0  0  0  0
   -1.9818   -2.0809    0.9918 C   0  0  0  0  0  0  0  0  0  0  0  0
   -1.1288   -2.6669    1.6468 O   0  0  0  0  0  0  0  0  0  0  0  0
   -1.7648   -0.9089    0.3998 N   0  0  0  0  0  0  0  0  0  0  0  0
   -2.5238   -0.4719   -0.1032 H   0  0  0  0  0  0  0  0  0  0  0  0
   -0.4848   -0.1959    0.4138 C   0  0  1  0  0  0  0  0  0  0  0  0
    0.1386   -0.6144    1.2058 H   0  0  0  0  0  0  0  0  0  0  0  0
    0.2271   -0.4272   -0.9334 C   0  0  0  0  0  0  0  0  0  0  0  0
    0.6189   -1.4464   -0.9442 H   0  0  0  0  0  0  0  0  0  0  0  0
   -0.4998   -0.3326   -1.7415 H   0  0  0  0  0  0  0  0  0  0  0  0
    1.3921    0.5429   -1.1964 C   0  0  0  0  0  0  0  0  0  0  0  0
    1.3405    1.3767   -0.4966 H   0  0  0  0  0  0  0  0  0  0  0  0
    2.3333    0.0157   -1.0411 H   0  0  0  0  0  0  0  0  0  0  0  0
    1.3898    1.1153   -2.6137 C   0  0  0  0  0  0  0  0  0  0  0  0
    0.5934    0.7789   -3.4700 O   0  0  0  0  0  0  0  0  0  0  0  0
    2.2893    2.0238   -2.9233 N   0  0  0  0  0  0  0  0  0  0  0  0
    2.2414    2.3660   -3.8673 H   0  0  0  0  0  0  0  0  0  0  0  0
    2.9652    2.3379   -2.2569 H   0  0  0  0  0  0  0  0  0  0  0  0
   -0.7011    1.2952    0.7149 C   0  0  0  0  0  0  0  0  0  0  0  0
   -1.5917    1.9198    0.1415 O   0  0  0  0  0  0  0  0  0  0  0  0
    0.1191    1.8675    1.6055 N   0  0  0  0  0  0  0  0  0  0  0  0
    0.8092    1.2861    2.0537 H   0  0  0  0  0  0  0  0  0  0  0  0
    0.0509    3.2769    1.9894 C   0  0  0  0  0  0  0  0  0  0  0  0
   -0.9494    3.5076    2.3640 H   0  0  0  0  0  0  0  0  0  0  0  0
    0.7844    3.4956    2.7668 H   0  0  0  0  0  0  0  0  0  0  0  0
    0.2468    3.9058    1.1193 H   0  0  0  0  0  0  0  0  0  0  0  0
  5  6  2  0  0  0  0
  5  7  1  0  0  0  0
  2  3  1  0  0  0  0
  2  4  1  0  0  0  0
  2  5  1  0  0  0  0
  1  2  1  0  0  0  0
 22 23  2  0  0  0  0
 22 24  1  0  0  0  0
 19 20  1  0  0  0  0
 19 21  1  0  0  0  0
 17 18  2  0  0  0  0
 17 19  1  0  0  0  0
 14 15  1  0  0  0  0
 14 16  1  0  0  0  0
 14 17  1  0  0  0  0
 11 12  1  0  0  0  0
 11 13  1  0  0  0  0
 11 14  1  0  0  0  0
  9 10  1  0  0  0  0
  9 11  1  0  0  0  0
  9 22  1  0  0  0  0
  7  8  1  0  0  0  0
  7  9  1  0  0  0  0
 26 27  1  0  0  0  0
 26 28  1  0  0  0  0
 26 29  1  0  0  0  0
 24 25  1  0  0  0  0
 24 26  1  0  0  0  0
M  END
$$$$
default_name
  -OEChem-02102213163D

 29 28  0     1  0  0  0  0  0999 V2000
   -3.3998   -3.6239    1.3678 H   0  0  0  0  0  0  0  0  0  0  0  0
   -3.3608   -2.6749    0.8348 C   0  0  0  0  0  0  0  0  0  0  0  0
   -4.0988   -1.9909    1.2498 H   0  0  0  0  0  0  0  0  0  0  0  0
   -3.5618   -2.8419   -0.2222 H   0  0  0  0  0  0  0  0  0  0  0  0
   -1.9818   -2.0809    0.9918 C   0  0  0  0  0  0  0  0  0  0  0  0
   -1.1288   -2.6669    1.6468 O   0  0  0  0  0  0  0  0  0  0  0  0
   -1.7648   -0.9089    0.3998 N   0  0  0  0  0  0  0  0  0  0  0  0
   -2.5238   -0.4719   -0.1032 H   0  0  0  0  0  0  0  0  0  0  0  0
   -0.4848   -0.1959    0.4138 C   0  0  1  0  0  0  0  0  0  0  0  0
    0.1386   -0.6144    1.2058 H   0  0  0  0  0  0  0  0  0  0  0  0
    0.2271   -0.4272   -0.9334 C   0  0  0  0  0  0  0  0  0  0  0  0
    0.6189   -1.4464   -0.9442 H   0  0  0  0  0  0  0  0  0  0  0  0
   -0.4998   -0.3326   -1.7415 H   0  0  0  0  0  0  0  0  0  0  0  0
    1.3921    0.5429   -1.1964 C   0  0  0  0  0  0  0  0  0  0  0  0
    1.5028    1.2214   -0.3507 H   0  0  0  0  0  0  0  0  0  0  0  0
    2.3124   -0.0308   -1.3053 H   0  0  0  0  0  0  0  0  0  0  0  0
    1.1994    1.3866   -2.4564 C   0  0  0  0  0  0  0  0  0  0  0  0
    0.2583    1.2503   -3.2155 O   0  0  0  0  0  0  0  0  0  0  0  0
    2.0916    2.3131   -2.7318 N   0  0  0  0  0  0  0  0  0  0  0  0
    1.9152    2.8380   -3.5707 H   0  0  0  0  0  0  0  0  0  0  0  0
    2.8826    2.4688   -2.1403 H   0  0  0  0  0  0  0  0  0  0  0  0
   -0.7011    1.2952    0.7149 C   0  0  0  0  0  0  0  0  0  0  0  0
   -1.5917    1.9198    0.1415 O   0  0  0  0  0  0  0  0  0  0  0  0
    0.1191    1.8675    1.6055 N   0  0  0  0  0  0  0  0  0  0  0  0
    0.8092    1.2861    2.0537 H   0  0  0  0  0  0  0  0  0  0  0  0
    0.0509    3.2769    1.9894 C   0  0  0  0  0  0  0  0  0  0  0  0
   -0.9494    3.5076    2.3640 H   0  0  0  0  0  0  0  0  0  0  0  0
    0.7844    3.4956    2.7668 H   0  0  0  0  0  0  0  0  0  0  0  0
    0.2468    3.9058    1.1193 H   0  0  0  0  0  0  0  0  0  0  0  0
  5  6  2  0  0  0  0
  5  7  1  0  0  0  0
  2  3  1  0  0  0  0
  2  4  1  0  0  0  0
  2  5  1  0  0  0  0
  1  2  1  0  0  0  0
 22 23  2  0  0  0  0
 22 24  1  0  0  0  0
 19 20  1  0  0  0  0
 19 21  1  0  0  0  0
 17 18  2  0  0  0  0
 17 19  1  0  0  0  0
 14 15  1  0  0  0  0
 14 16  1  0  0  0  0
 14 17  1  0  0  0  0
 11 12  1  0  0  0  0
 11 13  1  0  0  0  0
 11 14  1  0  0  0  0
  9 10  1  0  0  0  0
  9 11  1  0  0  0  0
  9 22  1  0  0  0  0
  7  8  1  0  0  0  0
  7  9  1  0  0  0  0
 26 27  1  0  0  0  0
 26 28  1  0  0  0  0
 26 29  1  0  0  0  0
 24 25  1  0  0  0  0
 24 26  1  0  0  0  0
M  END
$$$$
default_name
  -OEChem-02102213163D

 29 28  0     1  0  0  0  0  0999 V2000
   -3.3998   -3.6239    1.3678 H   0  0  0  0  0  0  0  0  0  0  0  0
   -3.3608   -2.6749    0.8348 C   0  0  0  0  0  0  0  0  0  0  0  0
   -4.0988   -1.9909    1.2498 H   0  0  0  0  0  0  0  0  0  0  0  0
   -3.5618   -2.8419   -0.2222 H   0  0  0  0  0  0  0  0  0  0  0  0
   -1.9818   -2.0809    0.9918 C   0  0  0  0  0  0  0  0  0  0  0  0
   -1.1288   -2.6669    1.6468 O   0  0  0  0  0  0  0  0  0  0  0  0
   -1.7648   -0.9089    0.3998 N   0  0  0  0  0  0  0  0  0  0  0  0
   -2.5238   -0.4719   -0.1032 H   0  0  0  0  0  0  0  0  0  0  0  0
   -0.4848   -0.1959    0.4138 C   0  0  1  0  0  0  0  0  0  0  0  0
    0.1386   -0.6144    1.2058 H   0  0  0  0  0  0  0  0  0  0  0  0
    0.2271   -0.4272   -0.9334 C   0  0  0  0  0  0  0  0  0  0  0  0
    0.6189   -1.4464   -0.9442 H   0  0  0  0  0  0  0  0  0  0  0  0
   -0.4998   -0.3326   -1.7415 H   0  0  0  0  0  0  0  0  0  0  0  0
    1.3921    0.5429   -1.1964 C   0  0  0  0  0  0  0  0  0  0  0  0
    1.6765    1.0355   -0.2668 H   0  0  0  0  0  0  0  0  0  0  0  0
    2.2470   -0.0230   -1.5663 H   0  0  0  0  0  0  0  0  0  0  0  0
    1.0532    1.6262   -2.2202 C   0  0  0  0  0  0  0  0  0  0  0  0
   -0.0030    1.6706   -2.8227 O   0  0  0  0  0  0  0  0  0  0  0  0
    1.9447    2.5637   -2.4578 N   0  0  0  0  0  0  0  0  0  0  0  0
    1.6695    3.2503   -3.1385 H   0  0  0  0  0  0  0  0  0  0  0  0
    2.8275    2.5760   -1.9885 H   0  0  0  0  0  0  0  0  0  0  0  0
   -0.7011    1.2952    0.7149 C   0  0  0  0  0  0  0  0  0  0  0  0
   -1.5917    1.9198    0.1415 O   0  0  0  0  0  0  0  0  0  0  0  0
    0.1191    1.8675    1.6055 N   0  0  0  0  0  0  0  0  0  0  0  0
    0.8092    1.2861    2.0537 H   0  0  0  0  0  0  0  0  0  0  0  0
    0.0509    3.2769    1.9894 C   0  0  0  0  0  0  0  0  0  0  0  0
   -0.9494    3.5076    2.3640 H   0  0  0  0  0  0  0  0  0  0  0  0
    0.7844    3.4956    2.7668 H   0  0  0  0  0  0  0  0  0  0  0  0
    0.2468    3.9058    1.1193 H   0  0  0  0  0  0  0  0  0  0  0  0
  5  6  2  0  0  0  0
  5  7  1  0  0  0  0
  2  3  1  0  0  0  0
  2  4  1  0  0  0  0
  2  5  1  0  0  0  0
  1  2  1  0  0  0  0
 22 23  2  0  0  0  0
 22 24  1  0  0  0  0
 19 20  1  0  0  0  0
 19 21  1  0  0  0  0
 17 18  2  0  0  0  0
 17 19  1  0  0  0  0
 14 15  1  0  0  0  0
 14 16  1  0  0  0  0
 14 17  1  0  0  0  0
 11 12  1  0  0  0  0
 11 13  1  0  0  0  0
 11 14  1  0  0  0  0
  9 10  1  0  0  0  0
  9 11  1  0  0  0  0
  9 22  1  0  0  0  0
  7  8  1  0  0  0  0
  7  9  1  0  0  0  0
 26 27  1  0  0  0  0
 26 28  1  0  0  0  0
 26 29  1  0  0  0  0
 24 25  1  0  0  0  0
 24 26  1  0  0  0  0
M  END
$$$$
default_name
  -OEChem-02102213163D

 29 28  0     1  0  0  0  0  0999 V2000
   -3.3998   -3.6239    1.3678 H   0  0  0  0  0  0  0  0  0  0  0  0
   -3.3608   -2.6749    0.8348 C   0  0  0  0  0  0  0  0  0  0  0  0
   -4.0988   -1.9909    1.2498 H   0  0  0  0  0  0  0  0  0  0  0  0
   -3.5618   -2.8419   -0.2222 H   0  0  0  0  0  0  0  0  0  0  0  0
   -1.9818   -2.0809    0.9918 C   0  0  0  0  0  0  0  0  0  0  0  0
   -1.1288   -2.6669    1.6468 O   0  0  0  0  0  0  0  0  0  0  0  0
   -1.7648   -0.9089    0.3998 N   0  0  0  0  0  0  0  0  0  0  0  0
   -2.5238   -0.4719   -0.1032 H   0  0  0  0  0  0  0  0  0  0  0  0
   -0.4848   -0.1959    0.4138 C   0  0  1  0  0  0  0  0  0  0  0  0
    0.1386   -0.6144    1.2058 H   0  0  0  0  0  0  0  0  0  0  0  0
    0.2271   -0.4272   -0.9334 C   0  0  0  0  0  0  0  0  0  0  0  0
    0.6189   -1.4464   -0.9442 H   0  0  0  0  0  0  0  0  0  0  0  0
   -0.4998   -0.3326   -1.7415 H   0  0  0  0  0  0  0  0  0  0  0  0
    1.3921    0.5429   -1.1964 C   0  0  0  0  0  0  0  0  0  0  0  0
    1.8498    0.8319   -0.2505 H   0  0  0  0  0  0  0  0  0  0  0  0
    2.1416    0.0386   -1.8061 H   0  0  0  0  0  0  0  0  0  0  0  0
    0.9611    1.8179   -1.9212 C   0  0  0  0  0  0  0  0  0  0  0  0
   -0.1727    2.0111   -2.3182 O   0  0  0  0  0  0  0  0  0  0  0  0
    1.8587    2.7586   -2.1201 N   0  0  0  0  0  0  0  0  0  0  0  0
    1.5209    3.5747   -2.6002 H   0  0  0  0  0  0  0  0  0  0  0  0
    2.8039    2.6523   -1.8120 H   0  0  0  0  0  0  0  0  0  0  0  0
   -0.7011    1.2952    0.7149 C   0  0  0  0  0  0  0  0  0  0  0  0
   -1.5917    1.9198    0.1415 O   0  0  0  0  0  0  0  0  0  0  0  0
    0.1191    1.8675    1.6055 N   0  0  0  0  0  0  0  0  0  0  0  0
    0.8092    1.2861    2.0537 H   0  0  0  0  0  0  0  0  0  0  0  0
    0.0509    3.2769    1.9894 C   0  0  0  0  0  0  0  0  0  0  0  0
   -0.9494    3.5076    2.3640 H   0  0  0  0  0  0  0  0  0  0  0  0
    0.7844    3.4956    2.7668 H   0  0  0  0  0  0  0  0  0  0  0  0
    0.2468    3.9058    1.1193 H   0  0  0  0  0  0  0  0  0  0  0  0
  5  6  2  0  0  0  0
  5  7  1  0  0  0  0
  2  3  1  0  0  0  0
  2  4  1  0  0  0  0
  2  5  1  0  0  0  0
  1  2  1  0  0  0  0
 22 23  2  0  0  0  0
 22 24  1  0  0  0  0
 19 20  1  0  0  0  0
 19 21  1  0  0  0  0
 17 18  2  0  0  0  0
 17 19  1  0  0  0  0
 14 15  1  0  0  0  0
 14 16  1  0  0  0  0
 14 17  1  0  0  0  0
 11 12  1  0  0  0  0
 11 13  1  0  0  0  0
 11 14  1  0  0  0  0
  9 10  1  0  0  0  0
  9 11  1  0  0  0  0
  9 22  1  0  0  0  0
  7  8  1  0  0  0  0
  7  9  1  0  0  0  0
 26 27  1  0  0  0  0
 26 28  1  0  0  0  0
 26 29  1  0  0  0  0
 24 25  1  0  0  0  0
 24 26  1  0  0  0  0
M  END
$$$$
default_name
  -OEChem-02102213163D

 29 28  0     1  0  0  0  0  0999 V2000
   -3.3998   -3.6239    1.3678 H   0  0  0  0  0  0  0  0  0  0  0  0
   -3.3608   -2.6749    0.8348 C   0  0  0  0  0  0  0  0  0  0  0  0
   -4.0988   -1.9909    1.2498 H   0  0  0  0  0  0  0  0  0  0  0  0
   -3.5618   -2.8419   -0.2222 H   0  0  0  0  0  0  0  0  0  0  0  0
   -1.9818   -2.0809    0.9918 C   0  0  0  0  0  0  0  0  0  0  0  0
   -1.1288   -2.6669    1.6468 O   0  0  0  0  0  0  0  0  0  0  0  0
   -1.7648   -0.9089    0.3998 N   0  0  0  0  0  0  0  0  0  0  0  0
   -2.5238   -0.4719   -0.1032 H   0  0  0  0  0  0  0  0  0  0  0  0
   -0.4848   -0.1959    0.4138 C   0  0  1  0  0  0  0  0  0  0  0  0
    0.1386   -0.6144    1.2058 H   0  0  0  0  0  0  0  0  0  0  0  0
    0.2271   -0.4272   -0.9334 C   0  0  0  0  0  0  0  0  0  0  0  0
    0.6189   -1.4464   -0.9442 H   0  0  0  0  0  0  0  0  0  0  0  0
   -0.4998   -0.3326   -1.7415 H   0  0  0  0  0  0  0  0  0  0  0  0
    1.3921    0.5429   -1.1964 C   0  0  0  0  0  0  0  0  0  0  0  0
    2.0108    0.6243   -0.3029 H   0  0  0  0  0  0  0  0  0  0  0  0
    2.0034    0.1497   -2.0086 H   0  0  0  0  0  0  0  0  0  0  0  0
    0.9294    1.9484   -1.5799 C   0  0  0  0  0  0  0  0  0  0  0  0
   -0.2393    2.2487   -1.7365 O   0  0  0  0  0  0  0  0  0  0  0  0
    1.8392    2.8845   -1.7417 N   0  0  0  0  0  0  0  0  0  0  0  0
    1.4795    3.7891   -1.9923 H   0  0  0  0  0  0  0  0  0  0  0  0
    2.8132    2.6924   -1.6226 H   0  0  0  0  0  0  0  0  0  0  0  0
   -0.7011    1.2952    0.7149 C   0  0  0  0  0  0  0  0  0  0  0  0
   -1.5917    1.9198    0.1415 O   0  0  0  0  0  0  0  0  0  0  0  0
    0.1191    1.8675    1.6055 N   0  0  0  0  0  0  0  0  0  0  0  0
    0.8092    1.2861    2.0537 H   0  0  0  0  0  0  0  0  0  0  0  0
    0.0509    3.2769    1.9894 C   0  0  0  0  0  0  0  0  0  0  0  0
   -0.9494    3.5076    2.3640 H   0  0  0  0  0  0  0  0  0  0  0  0
    0.7844    3.4956    2.7668 H   0  0  0  0  0  0  0  0  0  0  0  0
    0.2468    3.9058    1.1193 H   0  0  0  0  0  0  0  0  0  0  0  0
  5  6  2  0  0  0  0
  5  7  1  0  0  0  0
  2  3  1  0  0  0  0
  2  4  1  0  0  0  0
  2  5  1  0  0  0  0
  1  2  1  0  0  0  0
 22 23  2  0  0  0  0
 22 24  1  0  0  0  0
 19 20  1  0  0  0  0
 19 21  1  0  0  0  0
 17 18  2  0  0  0  0
 17 19  1  0  0  0  0
 14 15  1  0  0  0  0
 14 16  1  0  0  0  0
 14 17  1  0  0  0  0
 11 12  1  0  0  0  0
 11 13  1  0  0  0  0
 11 14  1  0  0  0  0
  9 10  1  0  0  0  0
  9 11  1  0  0  0  0
  9 22  1  0  0  0  0
  7  8  1  0  0  0  0
  7  9  1  0  0  0  0
 26 27  1  0  0  0  0
 26 28  1  0  0  0  0
 26 29  1  0  0  0  0
 24 25  1  0  0  0  0
 24 26  1  0  0  0  0
M  END
$$$$
default_name
  -OEChem-02102213163D

 29 28  0     1  0  0  0  0  0999 V2000
   -3.3998   -3.6239    1.3678 H   0  0  0  0  0  0  0  0  0  0  0  0
   -3.3608   -2.6749    0.8348 C   0  0  0  0  0  0  0  0  0  0  0  0
   -4.0988   -1.9909    1.2498 H   0  0  0  0  0  0  0  0  0  0  0  0
   -3.5618   -2.8419   -0.2222 H   0  0  0  0  0  0  0  0  0  0  0  0
   -1.9818   -2.0809    0.9918 C   0  0  0  0  0  0  0  0  0  0  0  0
   -1.1288   -2.6669    1.6468 O   0  0  0  0  0  0  0  0  0  0  0  0
   -1.7648   -0.9089    0.3998 N   0  0  0  0  0  0  0  0  0  0  0  0
   -2.5238   -0.4719   -0.1032 H   0  0  0  0  0  0  0  0  0  0  0  0
   -0.4848   -0.1959    0.4138 C   0  0  1  0  0  0  0  0  0  0  0  0
    0.1386   -0.6144    1.2058 H   0  0  0  0  0  0  0  0  0  0  0  0
    0.2271   -0.4272   -0.9334 C   0  0  0  0  0  0  0  0  0  0  0  0
    0.6189   -1.4464   -0.9442 H   0  0  0  0  0  0  0  0  0  0  0  0
   -0.4998   -0.3326   -1.7415 H   0  0  0  0  0  0  0  0  0  0  0  0
    1.3921    0.5429   -1.1964 C   0  0  0  0  0  0  0  0  0  0  0  0
    2.1486    0.4270   -0.4205 H   0  0  0  0  0  0  0  0  0  0  0  0
    1.8418    0.3028   -2.1598 H   0  0  0  0  0  0  0  0  0  0  0  0
    0.9603    2.0091   -1.2194 C   0  0  0  0  0  0  0  0  0  0  0  0
   -0.1981    2.3672   -1.1173 O   0  0  0  0  0  0  0  0  0  0  0  0
    1.8878    2.9328   -1.3483 N   0  0  0  0  0  0  0  0  0  0  0  0
    1.5482    3.8789   -1.3564 H   0  0  0  0  0  0  0  0  0  0  0  0
    2.8549    2.6936   -1.4333 H   0  0  0  0  0  0  0  0  0  0  0  0
   -0.7011    1.2952    0.7149 C   0  0  0  0  0  0  0  0  0  0  0  0
   -1.5917    1.9198    0.1415 O   0  0  0  0  0  0  0  0  0  0  0  0
    0.1191    1.8675    1.6055 N   0  0  0  0  0  0  0  0  0  0  0  0
    0.8092    1.2861    2.0537 H   0  0  0  0  0  0  0  0  0  0  0  0
    0.0509    3.2769    1.9894 C   0  0  0  0  0  0  0  0  0  0  0  0
   -0.9494    3.5076    2.3640 H   0  0  0  0  0  0  0  0  0  0  0  0
    0.7844    3.4956    2.7668 H   0  0  0  0  0  0  0  0  0  0  0  0
    0.2468    3.9058    1.1193 H   0  0  0  0  0  0  0  0  0  0  0  0
  5  6  2  0  0  0  0
  5  7  1  0  0  0  0
  2  3  1  0  0  0  0
  2  4  1  0  0  0  0
  2  5  1  0  0  0  0
  1  2  1  0  0  0  0
 22 23  2  0  0  0  0
 22 24  1  0  0  0  0
 19 20  1  0  0  0  0
 19 21  1  0  0  0  0
 17 18  2  0  0  0  0
 17 19  1  0  0  0  0
 14 15  1  0  0  0  0
 14 16  1  0  0  0  0
 14 17  1  0  0  0  0
 11 12  1  0  0  0  0
 11 13  1  0  0  0  0
 11 14  1  0  0  0  0
  9 10  1  0  0  0  0
  9 11  1  0  0  0  0
  9 22  1  0  0  0  0
  7  8  1  0  0  0  0
  7  9  1  0  0  0  0
 26 27  1  0  0  0  0
 26 28  1  0  0  0  0
 26 29  1  0  0  0  0
 24 25  1  0  0  0  0
 24 26  1  0  0  0  0
M  END
$$$$
default_name
  -OEChem-02102213163D

 29 28  0     1  0  0  0  0  0999 V2000
   -3.3998   -3.6239    1.3678 H   0  0  0  0  0  0  0  0  0  0  0  0
   -3.3608   -2.6749    0.8348 C   0  0  0  0  0  0  0  0  0  0  0  0
   -4.0988   -1.9909    1.2498 H   0  0  0  0  0  0  0  0  0  0  0  0
   -3.5618   -2.8419   -0.2222 H   0  0  0  0  0  0  0  0  0  0  0  0
   -1.9818   -2.0809    0.9918 C   0  0  0  0  0  0  0  0  0  0  0  0
   -1.1288   -2.6669    1.6468 O   0  0  0  0  0  0  0  0  0  0  0  0
   -1.7648   -0.9089    0.3998 N   0  0  0  0  0  0  0  0  0  0  0  0
   -2.5238   -0.4719   -0.1032 H   0  0  0  0  0  0  0  0  0  0  0  0
   -0.4848   -0.1959    0.4138 C   0  0  1  0  0  0  0  0  0  0  0  0
    0.1386   -0.6144    1.2058 H   0  0  0  0  0  0  0  0  0  0  0  0
    0.2271   -0.4272   -0.9334 C   0  0  0  0  0  0  0  0  0  0  0  0
    0.6189   -1.4464   -0.9442 H   0  0  0  0  0  0  0  0  0  0  0  0
   -0.4998   -0.3326   -1.7415 H   0  0  0  0  0  0  0  0  0  0  0  0
    1.3921    0.5429   -1.1964 C   0  0  0  0  0  0  0  0  0  0  0  0
    2.2537    0.2533   -0.5952 H   0  0  0  0  0  0  0  0  0  0  0  0
    1.6677    0.4875   -2.2494 H   0  0  0  0  0  0  0  0  0  0  0  0
    1.0516    1.9957   -0.8643 C   0  0  0  0  0  0  0  0  0  0  0  0
   -0.0521    2.3584   -0.5026 O   0  0  0  0  0  0  0  0  0  0  0  0
    2.0010    2.9002   -0.9668 N   0  0  0  0  0  0  0  0  0  0  0  0
    1.7224    3.8380   -0.7358 H   0  0  0  0  0  0  0  0  0  0  0  0
    2.9261    2.6559   -1.2571 H   0  0  0  0  0  0  0  0  0  0  0  0
   -0.7011    1.2952    0.7149 C   0  0  0  0  0  0  0  0  0  0  0  0
   -1.5917    1.9198    0.1415 O   0  0  0  0  0  0  0  0  0  0  0  0
    0.1191    1.8675    1.6055 N   0  0  0  0  0  0  0  0  0  0  0  0
    0.8092    1.2861    2.0537 H   0  0  0  0  0  0  0  0  0  0  0  0
    0.0509    3.2769    1.9894 C   0  0  0  0  0  0  0  0  0  0  0  0
   -0.9494    3.5076    2.3640 H   0  0  0  0  0  0  0  0  0  0  0  0
    0.7844    3.4956    2.7668 H   0  0  0  0  0  0  0  0  0  0  0  0
    0.2468    3.9058    1.1193 H   0  0  0  0  0  0  0  0  0  0  0  0
  5  6  2  0  0  0  0
  5  7  1  0  0  0  0
  2  3  1  0  0  0  0
  2  4  1  0  0  0  0
  2  5  1  0  0  0  0
  1  2  1  0  0  0  0
 22 23  2  0  0  0  0
 22 24  1  0  0  0  0
 19 20  1  0  0  0  0
 19 21  1  0  0  0  0
 17 18  2  0  0  0  0
 17 19  1  0  0  0  0
 14 15  1  0  0  0  0
 14 16  1  0  0  0  0
 14 17  1  0  0  0  0
 11 12  1  0  0  0  0
 11 13  1  0  0  0  0
 11 14  1  0  0  0  0
  9 10  1  0  0  0  0
  9 11  1  0  0  0  0
  9 22  1  0  0  0  0
  7  8  1  0  0  0  0
  7  9  1  0  0  0  0
 26 27  1  0  0  0  0
 26 28  1  0  0  0  0
 26 29  1  0  0  0  0
 24 25  1  0  0  0  0
 24 26  1  0  0  0  0
M  END
$$$$
default_name
  -OEChem-02102213163D

 29 28  0     1  0  0  0  0  0999 V2000
   -3.3998   -3.6239    1.3678 H   0  0  0  0  0  0  0  0  0  0  0  0
   -3.3608   -2.6749    0.8348 C   0  0  0  0  0  0  0  0  0  0  0  0
   -4.0988   -1.9909    1.2498 H   0  0  0  0  0  0  0  0  0  0  0  0
   -3.5618   -2.8419   -0.2222 H   0  0  0  0  0  0  0  0  0  0  0  0
   -1.9818   -2.0809    0.9918 C   0  0  0  0  0  0  0  0  0  0  0  0
   -1.1288   -2.6669    1.6468 O   0  0  0  0  0  0  0  0  0  0  0  0
   -1.7648   -0.9089    0.3998 N   0  0  0  0  0  0  0  0  0  0  0  0
   -2.5238   -0.4719   -0.1032 H   0  0  0  0  0  0  0  0  0  0  0  0
   -0.4848   -0.1959    0.4138 C   0  0  1  0  0  0  0  0  0  0  0  0
    0.1386   -0.6144    1.2058 H   0  0  0  0  0  0  0  0  0  0  0  0
    0.2271   -0.4272   -0.9334 C   0  0  0  0  0  0  0  0  0  0  0  0
    0.6189   -1.4464   -0.9442 H   0  0  0  0  0  0  0  0  0  0  0  0
   -0.4998   -0.3326   -1.7415 H   0  0  0  0  0  0  0  0  0  0  0  0
    1.3921    0.5429   -1.1964 C   0  0  0  0  0  0  0  0  0  0  0  0
    2.3191    0.1152   -0.8152 H   0  0  0  0  0  0  0  0  0  0  0  0
    1.4932    0.6912   -2.2714 H   0  0  0  0  0  0  0  0  0  0  0  0
    1.1972    1.9091   -0.5389 C   0  0  0  0  0  0  0  0  0  0  0  0
    0.1889    2.2230    0.0656 O   0  0  0  0  0  0  0  0  0  0  0  0
    2.1712    2.7890   -0.6232 N   0  0  0  0  0  0  0  0  0  0  0  0
    1.9900    3.6692   -0.1728 H   0  0  0  0  0  0  0  0  0  0  0  0
    3.0220    2.5817   -1.1059 H   0  0  0  0  0  0  0  0  0  0  0  0
   -0.7011    1.2952    0.7149 C   0  0  0  0  0  0  0  0  0  0  0  0
   -1.5917    1.9198    0.1415 O   0  0  0  0  0  0  0  0  0  0  0  0
    0.1191    1.8675    1.6055 N   0  0  0  0  0  0  0  0  0  0  0  0
    0.8092    1.2861    2.0537 H   0  0  0  0  0  0  0  0  0  0  0  0
    0.0509    3.2769    1.9894 C   0  0  0  0  0  0  0  0  0  0  0  0
   -0.9494    3.5076    2.3640 H   0  0  0  0  0  0  0  0  0  0  0  0
    0.7844    3.4956    2.7668 H   0  0  0  0  0  0  0  0  0  0  0  0
    0.2468    3.9058    1.1193 H   0  0  0  0  0  0  0  0  0  0  0  0
  5  6  2  0  0  0  0
  5  7  1  0  0  0  0
  2  3  1  0  0  0  0
  2  4  1  0  0  0  0
  2  5  1  0  0  0  0
  1  2  1  0  0  0  0
 22 23  2  0  0  0  0
 22 24  1  0  0  0  0
 19 20  1  0  0  0  0
 19 21  1  0  0  0  0
 17 18  2  0  0  0  0
 17 19  1  0  0  0  0
 14 15  1  0  0  0  0
 14 16  1  0  0  0  0
 14 17  1  0  0  0  0
 11 12  1  0  0  0  0
 11 13  1  0  0  0  0
 11 14  1  0  0  0  0
  9 10  1  0  0  0  0
  9 11  1  0  0  0  0
  9 22  1  0  0  0  0
  7  8  1  0  0  0  0
  7  9  1  0  0  0  0
 26 27  1  0  0  0  0
 26 28  1  0  0  0  0
 26 29  1  0  0  0  0
 24 25  1  0  0  0  0
 24 26  1  0  0  0  0
M  END
$$$$
default_name
  -OEChem-02102213163D

 29 28  0     1  0  0  0  0  0999 V2000
   -3.3998   -3.6239    1.3678 H   0  0  0  0  0  0  0  0  0  0  0  0
   -3.3608   -2.6749    0.8348 C   0  0  0  0  0  0  0  0  0  0  0  0
   -4.0988   -1.9909    1.2498 H   0  0  0  0  0  0  0  0  0  0  0  0
   -3.5618   -2.8419   -0.2222 H   0  0  0  0  0  0  0  0  0  0  0  0
   -1.9818   -2.0809    0.9918 C   0  0  0  0  0  0  0  0  0  0  0  0
   -1.1288   -2.6669    1.6468 O   0  0  0  0  0  0  0  0  0  0  0  0
   -1.7648   -0.9089    0.3998 N   0  0  0  0  0  0  0  0  0  0  0  0
   -2.5238   -0.4719   -0.1032 H   0  0  0  0  0  0  0  0  0  0  0  0
   -0.4848   -0.1959    0.4138 C   0  0  1  0  0  0  0  0  0  0  0  0
    0.1386   -0.6144    1.2058 H   0  0  0  0  0  0  0  0  0  0  0  0
    0.2271   -0.4272   -0.9334 C   0  0  0  0  0  0  0  0  0  0  0  0
    0.6189   -1.4464   -0.9442 H   0  0  0  0  0  0  0  0  0  0  0  0
   -0.4998   -0.3326   -1.7415 H   0  0  0  0  0  0  0  0  0  0  0  0
    1.3921    0.5429   -1.1964 C   0  0  0  0  0  0  0  0  0  0  0  0
    2.3403    0.0219   -1.0654 H   0  0  0  0  0  0  0  0  0  0  0  0
    1.3300    0.8999   -2.2243 H   0  0  0  0  0  0  0  0  0  0  0  0
    1.3870    1.7552   -0.2653 C   0  0  0  0  0  0  0  0  0  0  0  0
    0.5084    1.9702    0.5486 O   0  0  0  0  0  0  0  0  0  0  0  0
    2.3868    2.6067   -0.3408 N   0  0  0  0  0  0  0  0  0  0  0  0
    2.3330    3.3840    0.2943 H   0  0  0  0  0  0  0  0  0  0  0  0
    3.1360    2.4762   -0.9900 H   0  0  0  0  0  0  0  0  0  0  0  0
   -0.7011    1.2952    0.7149 C   0  0  0  0  0  0  0  0  0  0  0  0
   -1.5917    1.9198    0.1415 O   0  0  0  0  0  0  0  0  0  0  0  0
    0.1191    1.8675    1.6055 N   0  0  0  0  0  0  0  0  0  0  0  0
    0.8092    1.2861    2.0537 H   0  0  0  0  0  0  0  0  0  0  0  0
    0.0509    3.2769    1.9894 C   0  0  0  0  0  0  0  0  0  0  0  0
   -0.9494    3.5076    2.3640 H   0  0  0  0  0  0  0  0  0  0  0  0
    0.7844    3.4956    2.7668 H   0  0  0  0  0  0  0  0  0  0  0  0
    0.2468    3.9058    1.1193 H   0  0  0  0  0  0  0  0  0  0  0  0
  5  6  2  0  0  0  0
  5  7  1  0  0  0  0
  2  3  1  0  0  0  0
  2  4  1  0  0  0  0
  2  5  1  0  0  0  0
  1  2  1  0  0  0  0
 22 23  2  0  0  0  0
 22 24  1  0  0  0  0
 19 20  1  0  0  0  0
 19 21  1  0  0  0  0
 17 18  2  0  0  0  0
 17 19  1  0  0  0  0
 14 15  1  0  0  0  0
 14 16  1  0  0  0  0
 14 17  1  0  0  0  0
 11 12  1  0  0  0  0
 11 13  1  0  0  0  0
 11 14  1  0  0  0  0
  9 10  1  0  0  0  0
  9 11  1  0  0  0  0
  9 22  1  0  0  0  0
  7  8  1  0  0  0  0
  7  9  1  0  0  0  0
 26 27  1  0  0  0  0
 26 28  1  0  0  0  0
 26 29  1  0  0  0  0
 24 25  1  0  0  0  0
 24 26  1  0  0  0  0
M  END
$$$$
default_name
  -OEChem-02102213163D

 29 28  0     1  0  0  0  0  0999 V2000
   -3.3998   -3.6239    1.3678 H   0  0  0  0  0  0  0  0  0  0  0  0
   -3.3608   -2.6749    0.8348 C   0  0  0  0  0  0  0  0  0  0  0  0
   -4.0988   -1.9909    1.2498 H   0  0  0  0  0  0  0  0  0  0  0  0
   -3.5618   -2.8419   -0.2222 H   0  0  0  0  0  0  0  0  0  0  0  0
   -1.9818   -2.0809    0.9918 C   0  0  0  0  0  0  0  0  0  0  0  0
   -1.1288   -2.6669    1.6468 O   0  0  0  0  0  0  0  0  0  0  0  0
   -1.7648   -0.9089    0.3998 N   0  0  0  0  0  0  0  0  0  0  0  0
   -2.5238   -0.4719   -0.1032 H   0  0  0  0  0  0  0  0  0  0  0  0
   -0.4848   -0.1959    0.4138 C   0  0  1  0  0  0  0  0  0  0  0  0
    0.1386   -0.6144    1.2058 H   0  0  0  0  0  0  0  0  0  0  0  0
    0.2271   -0.4272   -0.9334 C   0  0  0  0  0  0  0  0  0  0  0  0
    0.6189   -1.4464   -0.9442 H   0  0  0  0  0  0  0  0  0  0  0  0
   -0.4998   -0.3326   -1.7415 H   0  0  0  0  0  0  0  0  0  0  0  0
    1.3921    0.5429   -1.1964 C   0  0  0  0  0  0  0  0  0  0  0  0
    2.3158   -0.0200   -1.3289 H   0  0  0  0  0  0  0  0  0  0  0  0
    1.1893    1.0996   -2.1112 H   0  0  0  0  0  0  0  0  0  0  0  0
    1.6083    1.5446   -0.0621 C   0  0  0  0  0  0  0  0  0  0  0  0
    0.8846    1.6173    0.9134 O   0  0  0  0  0  0  0  0  0  0  0  0
    2.6330    2.3657   -0.1390 N   0  0  0  0  0  0  0  0  0  0  0  0
    2.7279    3.0017    0.6336 H   0  0  0  0  0  0  0  0  0  0  0  0
    3.2604    2.3466   -0.9173 H   0  0  0  0  0  0  0  0  0  0  0  0
   -0.7011    1.2952    0.7149 C   0  0  0  0  0  0  0  0  0  0  0  0
   -1.5917    1.9198    0.1415 O   0  0  0  0  0  0  0  0  0  0  0  0
    0.1191    1.8675    1.6055 N   0  0  0  0  0  0  0  0  0  0  0  0
    0.8092    1.2861    2.0537 H   0  0  0  0  0  0  0  0  0  0  0  0
    0.0509    3.2769    1.9894 C   0  0  0  0  0  0  0  0  0  0  0  0
   -0.9494    3.5076    2.3640 H   0  0  0  0  0  0  0  0  0  0  0  0
    0.7844    3.4956    2.7668 H   0  0  0  0  0  0  0  0  0  0  0  0
    0.2468    3.9058    1.1193 H   0  0  0  0  0  0  0  0  0  0  0  0
  5  6  2  0  0  0  0
  5  7  1  0  0  0  0
  2  3  1  0  0  0  0
  2  4  1  0  0  0  0
  2  5  1  0  0  0  0
  1  2  1  0  0  0  0
 22 23  2  0  0  0  0
 22 24  1  0  0  0  0
 19 20  1  0  0  0  0
 19 21  1  0  0  0  0
 17 18  2  0  0  0  0
 17 19  1  0  0  0  0
 14 15  1  0  0  0  0
 14 16  1  0  0  0  0
 14 17  1  0  0  0  0
 11 12  1  0  0  0  0
 11 13  1  0  0  0  0
 11 14  1  0  0  0  0
  9 10  1  0  0  0  0
  9 11  1  0  0  0  0
  9 22  1  0  0  0  0
  7  8  1  0  0  0  0
  7  9  1  0  0  0  0
 26 27  1  0  0  0  0
 26 28  1  0  0  0  0
 26 29  1  0  0  0  0
 24 25  1  0  0  0  0
 24 26  1  0  0  0  0
M  END
$$$$
default_name
  -OEChem-02102213163D

 29 28  0     1  0  0  0  0  0999 V2000
   -3.3998   -3.6239    1.3678 H   0  0  0  0  0  0  0  0  0  0  0  0
   -3.3608   -2.6749    0.8348 C   0  0  0  0  0  0  0  0  0  0  0  0
   -4.0988   -1.9909    1.2498 H   0  0  0  0  0  0  0  0  0  0  0  0
   -3.5618   -2.8419   -0.2222 H   0  0  0  0  0  0  0  0  0  0  0  0
   -1.9818   -2.0809    0.9918 C   0  0  0  0  0  0  0  0  0  0  0  0
   -1.1288   -2.6669    1.6468 O   0  0  0  0  0  0  0  0  0  0  0  0
   -1.7648   -0.9089    0.3998 N   0  0  0  0  0  0  0  0  0  0  0  0
   -2.5238   -0.4719   -0.1032 H   0  0  0  0  0  0  0  0  0  0  0  0
   -0.4848   -0.1959    0.4138 C   0  0  1  0  0  0  0  0  0  0  0  0
    0.1386   -0.6144    1.2058 H   0  0  0  0  0  0  0  0  0  0  0  0
    0.2271   -0.4272   -0.9334 C   0  0  0  0  0  0  0  0  0  0  0  0
    0.6189   -1.4464   -0.9442 H   0  0  0  0  0  0  0  0  0  0  0  0
   -0.4998   -0.3326   -1.7415 H   0  0  0  0  0  0  0  0  0  0  0  0
    1.3921    0.5429   -1.1964 C   0  0  0  0  0  0  0  0  0  0  0  0
    2.2472   -0.0078   -1.5875 H   0  0  0  0  0  0  0  0  0  0  0  0
    1.0806    1.2764   -1.9400 H   0  0  0  0  0  0  0  0  0  0  0  0
    1.8458    1.2915    0.0568 C   0  0  0  0  0  0  0  0  0  0  0  0
    1.2920    1.1882    1.1353 O   0  0  0  0  0  0  0  0  0  0  0  0
    2.8931    2.0825   -0.0314 N   0  0  0  0  0  0  0  0  0  0  0  0
    3.1477    2.5486    0.8220 H   0  0  0  0  0  0  0  0  0  0  0  0
    3.3866    2.2016   -0.8928 H   0  0  0  0  0  0  0  0  0  0  0  0
   -0.7011    1.2952    0.7149 C   0  0  0  0  0  0  0  0  0  0  0  0
   -1.5917    1.9198    0.1415 O   0  0  0  0  0  0  0  0  0  0  0  0
    0.1191    1.8675    1.6055 N   0  0  0  0  0  0  0  0  0  0  0  0
    0.8092    1.2861    2.0537 H   0  0  0  0  0  0  0  0  0  0  0  0
    0.0509    3.2769    1.9894 C   0  0  0  0  0  0  0  0  0  0  0  0
   -0.9494    3.5076    2.3640 H   0  0  0  0  0  0  0  0  0  0  0  0
    0.7844    3.4956    2.7668 H   0  0  0  0  0  0  0  0  0  0  0  0
    0.2468    3.9058    1.1193 H   0  0  0  0  0  0  0  0  0  0  0  0
  5  6  2  0  0  0  0
  5  7  1  0  0  0  0
  2  3  1  0  0  0  0
  2  4  1  0  0  0  0
  2  5  1  0  0  0  0
  1  2  1  0  0  0  0
 22 23  2  0  0  0  0
 22 24  1  0  0  0  0
 19 20  1  0  0  0  0
 19 21  1  0  0  0  0
 17 18  2  0  0  0  0
 17 19  1  0  0  0  0
 14 15  1  0  0  0  0
 14 16  1  0  0  0  0
 14 17  1  0  0  0  0
 11 12  1  0  0  0  0
 11 13  1  0  0  0  0
 11 14  1  0  0  0  0
  9 10  1  0  0  0  0
  9 11  1  0  0  0  0
  9 22  1  0  0  0  0
  7  8  1  0  0  0  0
  7  9  1  0  0  0  0
 26 27  1  0  0  0  0
 26 28  1  0  0  0  0
 26 29  1  0  0  0  0
 24 25  1  0  0  0  0
 24 26  1  0  0  0  0
M  END
$$$$
default_name
  -OEChem-02102213163D

 29 28  0     1  0  0  0  0  0999 V2000
   -3.3998   -3.6239    1.3678 H   0  0  0  0  0  0  0  0  0  0  0  0
   -3.3608   -2.6749    0.8348 C   0  0  0  0  0  0  0  0  0  0  0  0
   -4.0988   -1.9909    1.2498 H   0  0  0  0  0  0  0  0  0  0  0  0
   -3.5618   -2.8419   -0.2222 H   0  0  0  0  0  0  0  0  0  0  0  0
   -1.9818   -2.0809    0.9918 C   0  0  0  0  0  0  0  0  0  0  0  0
   -1.1288   -2.6669    1.6468 O   0  0  0  0  0  0  0  0  0  0  0  0
   -1.7648   -0.9089    0.3998 N   0  0  0  0  0  0  0  0  0  0  0  0
   -2.5238   -0.4719   -0.1032 H   0  0  0  0  0  0  0  0  0  0  0  0
   -0.4848   -0.1959    0.4138 C   0  0  1  0  0  0  0  0  0  0  0  0
    0.1386   -0.6144    1.2058 H   0  0  0  0  0  0  0  0  0  0  0  0
    0.2271   -0.4272   -0.9334 C   0  0  0  0  0  0  0  0  0  0  0  0
    0.6189   -1.4464   -0.9442 H   0  0  0  0  0  0  0  0  0  0  0  0
   -0.4998   -0.3326   -1.7415 H   0  0  0  0  0  0  0  0  0  0  0  0
    1.3921    0.5429   -1.1964 C   0  0  0  0  0  0  0  0  0  0  0  0
    2.1394    0.0577   -1.8238 H   0  0  0  0  0  0  0  0  0  0  0  0
    1.0115    1.4185   -1.7221 H   0  0  0  0  0  0  0  0  0  0  0  0
    2.0835    1.0133    0.0832 C   0  0  0  0  0  0  0  0  0  0  0  0
    1.7027    0.7123    1.1990 O   0  0  0  0  0  0  0  0  0  0  0  0
    3.1494    1.7764   -0.0255 N   0  0  0  0  0  0  0  0  0  0  0  0
    3.5640    2.0554    0.8467 H   0  0  0  0  0  0  0  0  0  0  0  0
    3.5062    2.0512   -0.9182 H   0  0  0  0  0  0  0  0  0  0  0  0
   -0.7011    1.2952    0.7149 C   0  0  0  0  0  0  0  0  0  0  0  0
   -1.5917    1.9198    0.1415 O   0  0  0  0  0  0  0  0  0  0  0  0
    0.1191    1.8675    1.6055 N   0  0  0  0  0  0  0  0  0  0  0  0
    0.8092    1.2861    2.0537 H   0  0  0  0  0  0  0  0  0  0  0  0
    0.0509    3.2769    1.9894 C   0  0  0  0  0  0  0  0  0  0  0  0
   -0.9494    3.5076    2.3640 H   0  0  0  0  0  0  0  0  0  0  0  0
    0.7844    3.4956    2.7668 H   0  0  0  0  0  0  0  0  0  0  0  0
    0.2468    3.9058    1.1193 H   0  0  0  0  0  0  0  0  0  0  0  0
  5  6  2  0  0  0  0
  5  7  1  0  0  0  0
  2  3  1  0  0  0  0
  2  4  1  0  0  0  0
  2  5  1  0  0  0  0
  1  2  1  0  0  0  0
 22 23  2  0  0  0  0
 22 24  1  0  0  0  0
 19 20  1  0  0  0  0
 19 21  1  0  0  0  0
 17 18  2  0  0  0  0
 17 19  1  0  0  0  0
 14 15  1  0  0  0  0
 14 16  1  0  0  0  0
 14 17  1  0  0  0  0
 11 12  1  0  0  0  0
 11 13  1  0  0  0  0
 11 14  1  0  0  0  0
  9 10  1  0  0  0  0
  9 11  1  0  0  0  0
  9 22  1  0  0  0  0
  7  8  1  0  0  0  0
  7  9  1  0  0  0  0
 26 27  1  0  0  0  0
 26 28  1  0  0  0  0
 26 29  1  0  0  0  0
 24 25  1  0  0  0  0
 24 26  1  0  0  0  0
M  END
$$$$
default_name
  -OEChem-02102213163D

 29 28  0     1  0  0  0  0  0999 V2000
   -3.3998   -3.6239    1.3678 H   0  0  0  0  0  0  0  0  0  0  0  0
   -3.3608   -2.6749    0.8348 C   0  0  0  0  0  0  0  0  0  0  0  0
   -4.0988   -1.9909    1.2498 H   0  0  0  0  0  0  0  0  0  0  0  0
   -3.5618   -2.8419   -0.2222 H   0  0  0  0  0  0  0  0  0  0  0  0
   -1.9818   -2.0809    0.9918 C   0  0  0  0  0  0  0  0  0  0  0  0
   -1.1288   -2.6669    1.6468 O   0  0  0  0  0  0  0  0  0  0  0  0
   -1.7648   -0.9089    0.3998 N   0  0  0  0  0  0  0  0  0  0  0  0
   -2.5238   -0.4719   -0.1032 H   0  0  0  0  0  0  0  0  0  0  0  0
   -0.4848   -0.1959    0.4138 C   0  0  1  0  0  0  0  0  0  0  0  0
    0.1386   -0.6144    1.2058 H   0  0  0  0  0  0  0  0  0  0  0  0
    0.2271   -0.4272   -0.9334 C   0  0  0  0  0  0  0  0  0  0  0  0
    0.6189   -1.4464   -0.9442 H   0  0  0  0  0  0  0  0  0  0  0  0
   -0.4998   -0.3326   -1.7415 H   0  0  0  0  0  0  0  0  0  0  0  0
    1.3921    0.5429   -1.1964 C   0  0  0  0  0  0  0  0  0  0  0  0
    1.9995    0.1720   -2.0216 H   0  0  0  0  0  0  0  0  0  0  0  0
    0.9865    1.5162   -1.4726 H   0  0  0  0  0  0  0  0  0  0  0  0
    2.3051    0.7289    0.0155 C   0  0  0  0  0  0  0  0  0  0  0  0
    2.0888    0.2219    1.1003 O   0  0  0  0  0  0  0  0  0  0  0  0
    3.3844    1.4681   -0.1216 N   0  0  0  0  0  0  0  0  0  0  0  0
    3.9483    1.5557    0.7060 H   0  0  0  0  0  0  0  0  0  0  0  0
    3.6108    1.9055   -0.9917 H   0  0  0  0  0  0  0  0  0  0  0  0
   -0.7011    1.2952    0.7149 C   0  0  0  0  0  0  0  0  0  0  0  0
   -1.5917    1.9198    0.1415 O   0  0  0  0  0  0  0  0  0  0  0  0
    0.1191    1.8675    1.6055 N   0  0  0  0  0  0  0  0  0  0  0  0
    0.8092    1.2861    2.0537 H   0  0  0  0  0  0  0  0  0  0  0  0
    0.0509    3.2769    1.9894 C   0  0  0  0  0  0  0  0  0  0  0  0
   -0.9494    3.5076    2.3640 H   0  0  0  0  0  0  0  0  0  0  0  0
    0.7844    3.4956    2.7668 H   0  0  0  0  0  0  0  0  0  0  0  0
    0.2468    3.9058    1.1193 H   0  0  0  0  0  0  0  0  0  0  0  0
  5  6  2  0  0  0  0
  5  7  1  0  0  0  0
  2  3  1  0  0  0  0
  2  4  1  0  0  0  0
  2  5  1  0  0  0  0
  1  2  1  0  0  0  0
 22 23  2  0  0  0  0
 22 24  1  0  0  0  0
 19 20  1  0  0  0  0
 19 21  1  0  0  0  0
 17 18  2  0  0  0  0
 17 19  1  0  0  0  0
 14 15  1  0  0  0  0
 14 16  1  0  0  0  0
 14 17  1  0  0  0  0
 11 12  1  0  0  0  0
 11 13  1  0  0  0  0
 11 14  1  0  0  0  0
  9 10  1  0  0  0  0
  9 11  1  0  0  0  0
  9 22  1  0  0  0  0
  7  8  1  0  0  0  0
  7  9  1  0  0  0  0
 26 27  1  0  0  0  0
 26 28  1  0  0  0  0
 26 29  1  0  0  0  0
 24 25  1  0  0  0  0
 24 26  1  0  0  0  0
M  END
$$$$
default_name
  -OEChem-02102213163D

 29 28  0     1  0  0  0  0  0999 V2000
   -3.3998   -3.6239    1.3678 H   0  0  0  0  0  0  0  0  0  0  0  0
   -3.3608   -2.6749    0.8348 C   0  0  0  0  0  0  0  0  0  0  0  0
   -4.0988   -1.9909    1.2498 H   0  0  0  0  0  0  0  0  0  0  0  0
   -3.5618   -2.8419   -0.2222 H   0  0  0  0  0  0  0  0  0  0  0  0
   -1.9818   -2.0809    0.9918 C   0  0  0  0  0  0  0  0  0  0  0  0
   -1.1288   -2.6669    1.6468 O   0  0  0  0  0  0  0  0  0  0  0  0
   -1.7648   -0.9089    0.3998 N   0  0  0  0  0  0  0  0  0  0  0  0
   -2.5238   -0.4719   -0.1032 H   0  0  0  0  0  0  0  0  0  0  0  0
   -0.4848   -0.1959    0.4138 C   0  0  1  0  0  0  0  0  0  0  0  0
    0.1386   -0.6144    1.2058 H   0  0  0  0  0  0  0  0  0  0  0  0
    0.2271   -0.4272   -0.9334 C   0  0  0  0  0  0  0  0  0  0  0  0
    0.6189   -1.4464   -0.9442 H   0  0  0  0  0  0  0  0  0  0  0  0
   -0.4998   -0.3326   -1.7415 H   0  0  0  0  0  0  0  0  0  0  0  0
    1.3921    0.5429   -1.1964 C   0  0  0  0  0  0  0  0  0  0  0  0
    1.8372    0.3274   -2.1675 H   0  0  0  0  0  0  0  0  0  0  0  0
    1.0074    1.5627   -1.2083 H   0  0  0  0  0  0  0  0  0  0  0  0
    2.4954    0.4576   -0.1419 C   0  0  0  0  0  0  0  0  0  0  0  0
    2.4239   -0.2494    0.8458 O   0  0  0  0  0  0  0  0  0  0  0  0
    3.5820    1.1789   -0.3131 N   0  0  0  0  0  0  0  0  0  0  0  0
    4.2745    1.0837    0.4094 H   0  0  0  0  0  0  0  0  0  0  0  0
    3.6935    1.7747   -1.1083 H   0  0  0  0  0  0  0  0  0  0  0  0
   -0.7011    1.2952    0.7149 C   0  0  0  0  0  0  0  0  0  0  0  0
   -1.5917    1.9198    0.1415 O   0  0  0  0  0  0  0  0  0  0  0  0
    0.1191    1.8675    1.6055 N   0  0  0  0  0  0  0  0  0  0  0  0
    0.8092    1.2861    2.0537 H   0  0  0  0  0  0  0  0  0  0  0  0
    0.0509    3.2769    1.9894 C   0  0  0  0  0  0  0  0  0  0  0  0
   -0.9494    3.5076    2.3640 H   0  0  0  0  0  0  0  0  0  0  0  0
    0.7844    3.4956    2.7668 H   0  0  0  0  0  0  0  0  0  0  0  0
    0.2468    3.9058    1.1193 H   0  0  0  0  0  0  0  0  0  0  0  0
  5  6  2  0  0  0  0
  5  7  1  0  0  0  0
  2  3  1  0  0  0  0
  2  4  1  0  0  0  0
  2  5  1  0  0  0  0
  1  2  1  0  0  0  0
 22 23  2  0  0  0  0
 22 24  1  0  0  0  0
 19 20  1  0  0  0  0
 19 21  1  0  0  0  0
 17 18  2  0  0  0  0
 17 19  1  0  0  0  0
 14 15  1  0  0  0  0
 14 16  1  0  0  0  0
 14 17  1  0  0  0  0
 11 12  1  0  0  0  0
 11 13  1  0  0  0  0
 11 14  1  0  0  0  0
  9 10  1  0  0  0  0
  9 11  1  0  0  0  0
  9 22  1  0  0  0  0
  7  8  1  0  0  0  0
  7  9  1  0  0  0  0
 26 27  1  0  0  0  0
 26 28  1  0  0  0  0
 26 29  1  0  0  0  0
 24 25  1  0  0  0  0
 24 26  1  0  0  0  0
M  END
$$$$
default_name
  -OEChem-02102213163D

 29 28  0     1  0  0  0  0  0999 V2000
   -3.3998   -3.6239    1.3678 H   0  0  0  0  0  0  0  0  0  0  0  0
   -3.3608   -2.6749    0.8348 C   0  0  0  0  0  0  0  0  0  0  0  0
   -4.0988   -1.9909    1.2498 H   0  0  0  0  0  0  0  0  0  0  0  0
   -3.5618   -2.8419   -0.2222 H   0  0  0  0  0  0  0  0  0  0  0  0
   -1.9818   -2.0809    0.9918 C   0  0  0  0  0  0  0  0  0  0  0  0
   -1.1288   -2.6669    1.6468 O   0  0  0  0  0  0  0  0  0  0  0  0
   -1.7648   -0.9089    0.3998 N   0  0  0  0  0  0  0  0  0  0  0  0
   -2.5238   -0.4719   -0.1032 H   0  0  0  0  0  0  0  0  0  0  0  0
   -0.4848   -0.1959    0.4138 C   0  0  1  0  0  0  0  0  0  0  0  0
    0.1386   -0.6144    1.2058 H   0  0  0  0  0  0  0  0  0  0  0  0
    0.2271   -0.4272   -0.9334 C   0  0  0  0  0  0  0  0  0  0  0  0
    0.6189   -1.4464   -0.9442 H   0  0  0  0  0  0  0  0  0  0  0  0
   -0.4998   -0.3326   -1.7415 H   0  0  0  0  0  0  0  0  0  0  0  0
    1.3921    0.5429   -1.1964 C   0  0  0  0  0  0  0  0  0  0  0  0
    1.6635    0.5132   -2.2514 H   0  0  0  0  0  0  0  0  0  0  0  0
    1.0728    1.5549   -0.9473 H   0  0  0  0  0  0  0  0  0  0  0  0
    2.6417    0.2180   -0.3781 C   0  0  0  0  0  0  0  0  0  0  0  0
    2.6852   -0.6697    0.4530 O   0  0  0  0  0  0  0  0  0  0  0  0
    3.7289    0.9282   -0.5870 N   0  0  0  0  0  0  0  0  0  0  0  0
    4.5202    0.6714   -0.0228 H   0  0  0  0  0  0  0  0  0  0  0  0
    3.7486    1.6674   -1.2600 H   0  0  0  0  0  0  0  0  0  0  0  0
   -0.7011    1.2952    0.7149 C   0  0  0  0  0  0  0  0  0  0  0  0
   -1.5917    1.9198    0.1415 O   0  0  0  0  0  0  0  0  0  0  0  0
    0.1191    1.8675    1.6055 N   0  0  0  0  0  0  0  0  0  0  0  0
    0.8092    1.2861    2.0537 H   0  0  0  0  0  0  0  0  0  0  0  0
    0.0509    3.2769    1.9894 C   0  0  0  0  0  0  0  0  0  0  0  0
   -0.9494    3.5076    2.3640 H   0  0  0  0  0  0  0  0  0  0  0  0
    0.7844    3.4956    2.7668 H   0  0  0  0  0  0  0  0  0  0  0  0
    0.2468    3.9058    1.1193 H   0  0  0  0  0  0  0  0  0  0  0  0
  5  6  2  0  0  0  0
  5  7  1  0  0  0  0
  2  3  1  0  0  0  0
  2  4  1  0  0  0  0
  2  5  1  0  0  0  0
  1  2  1  0  0  0  0
 22 23  2  0  0  0  0
 22 24  1  0  0  0  0
 19 20  1  0  0  0  0
 19 21  1  0  0  0  0
 17 18  2  0  0  0  0
 17 19  1  0  0  0  0
 14 15  1  0  0  0  0
 14 16  1  0  0  0  0
 14 17  1  0  0  0  0
 11 12  1  0  0  0  0
 11 13  1  0  0  0  0
 11 14  1  0  0  0  0
  9 10  1  0  0  0  0
  9 11  1  0  0  0  0
  9 22  1  0  0  0  0
  7  8  1  0  0  0  0
  7  9  1  0  0  0  0
 26 27  1  0  0  0  0
 26 28  1  0  0  0  0
 26 29  1  0  0  0  0
 24 25  1  0  0  0  0
 24 26  1  0  0  0  0
M  END
$$$$
default_name
  -OEChem-02102213163D

 29 28  0     1  0  0  0  0  0999 V2000
   -3.3998   -3.6239    1.3678 H   0  0  0  0  0  0  0  0  0  0  0  0
   -3.3608   -2.6749    0.8348 C   0  0  0  0  0  0  0  0  0  0  0  0
   -4.0988   -1.9909    1.2498 H   0  0  0  0  0  0  0  0  0  0  0  0
   -3.5618   -2.8419   -0.2222 H   0  0  0  0  0  0  0  0  0  0  0  0
   -1.9818   -2.0809    0.9918 C   0  0  0  0  0  0  0  0  0  0  0  0
   -1.1288   -2.6669    1.6468 O   0  0  0  0  0  0  0  0  0  0  0  0
   -1.7648   -0.9089    0.3998 N   0  0  0  0  0  0  0  0  0  0  0  0
   -2.5238   -0.4719   -0.1032 H   0  0  0  0  0  0  0  0  0  0  0  0
   -0.4848   -0.1959    0.4138 C   0  0  1  0  0  0  0  0  0  0  0  0
    0.1386   -0.6144    1.2058 H   0  0  0  0  0  0  0  0  0  0  0  0
    0.2271   -0.4272   -0.9334 C   0  0  0  0  0  0  0  0  0  0  0  0
    0.6189   -1.4464   -0.9442 H   0  0  0  0  0  0  0  0  0  0  0  0
   -0.4998   -0.3326   -1.7415 H   0  0  0  0  0  0  0  0  0  0  0  0
    1.3921    0.5429   -1.1964 C   0  0  0  0  0  0  0  0  0  0  0  0
    1.4903    0.7168   -2.2677 H   0  0  0  0  0  0  0  0  0  0  0  0
    1.1782    1.4933   -0.7075 H   0  0  0  0  0  0  0  0  0  0  0  0
    2.7338    0.0264   -0.6770 C   0  0  0  0  0  0  0  0  0  0  0  0
    2.8549   -1.0102   -0.0515 O   0  0  0  0  0  0  0  0  0  0  0  0
    3.8150    0.7333   -0.9247 N   0  0  0  0  0  0  0  0  0  0  0  0
    4.6688    0.3470   -0.5612 H   0  0  0  0  0  0  0  0  0  0  0  0
    3.7722    1.5912   -1.4366 H   0  0  0  0  0  0  0  0  0  0  0  0
   -0.7011    1.2952    0.7149 C   0  0  0  0  0  0  0  0  0  0  0  0
   -1.5917    1.9198    0.1415 O   0  0  0  0  0  0  0  0  0  0  0  0
    0.1191    1.8675    1.6055 N   0  0  0  0  0  0  0  0  0  0  0  0
    0.8092    1.2861    2.0537 H   0  0  0  0  0  0  0  0  0  0  0  0
    0.0509    3.2769    1.9894 C   0  0  0  0  0  0  0  0  0  0  0  0
   -0.9494    3.5076    2.3640 H   0  0  0  0  0  0  0  0  0  0  0  0
    0.7844    3.4956    2.7668 H   0  0  0  0  0  0  0  0  0  0  0  0
    0.2468    3.9058    1.1193 H   0  0  0  0  0  0  0  0  0  0  0  0
  5  6  2  0  0  0  0
  5  7  1  0  0  0  0
  2  3  1  0  0  0  0
  2  4  1  0  0  0  0
  2  5  1  0  0  0  0
  1  2  1  0  0  0  0
 22 23  2  0  0  0  0
 22 24  1  0  0  0  0
 19 20  1  0  0  0  0
 19 21  1  0  0  0  0
 17 18  2  0  0  0  0
 17 19  1  0  0  0  0
 14 15  1  0  0  0  0
 14 16  1  0  0  0  0
 14 17  1  0  0  0  0
 11 12  1  0  0  0  0
 11 13  1  0  0  0  0
 11 14  1  0  0  0  0
  9 10  1  0  0  0  0
  9 11  1  0  0  0  0
  9 22  1  0  0  0  0
  7  8  1  0  0  0  0
  7  9  1  0  0  0  0
 26 27  1  0  0  0  0
 26 28  1  0  0  0  0
 26 29  1  0  0  0  0
 24 25  1  0  0  0  0
 24 26  1  0  0  0  0
M  END
$$$$
default_name
  -OEChem-02102213163D

 29 28  0     1  0  0  0  0  0999 V2000
   -3.3998   -3.6239    1.3678 H   0  0  0  0  0  0  0  0  0  0  0  0
   -3.3608   -2.6749    0.8348 C   0  0  0  0  0  0  0  0  0  0  0  0
   -4.0988   -1.9909    1.2498 H   0  0  0  0  0  0  0  0  0  0  0  0
   -3.5618   -2.8419   -0.2222 H   0  0  0  0  0  0  0  0  0  0  0  0
   -1.9818   -2.0809    0.9918 C   0  0  0  0  0  0  0  0  0  0  0  0
   -1.1288   -2.6669    1.6468 O   0  0  0  0  0  0  0  0  0  0  0  0
   -1.7648   -0.9089    0.3998 N   0  0  0  0  0  0  0  0  0  0  0  0
   -2.5238   -0.4719   -0.1032 H   0  0  0  0  0  0  0  0  0  0  0  0
   -0.4848   -0.1959    0.4138 C   0  0  1  0  0  0  0  0  0  0  0  0
    0.1386   -0.6144    1.2058 H   0  0  0  0  0  0  0  0  0  0  0  0
    0.2271   -0.4272   -0.9334 C   0  0  0  0  0  0  0  0  0  0  0  0
    0.6189   -1.4464   -0.9442 H   0  0  0  0  0  0  0  0  0  0  0  0
   -0.4998   -0.3326   -1.7415 H   0  0  0  0  0  0  0  0  0  0  0  0
    1.3921    0.5429   -1.1964 C   0  0  0  0  0  0  0  0  0  0  0  0
    1.3293    0.9244   -2.2153 H   0  0  0  0  0  0  0  0  0  0  0  0
    1.3164    1.3822   -0.5051 H   0  0  0  0  0  0  0  0  0  0  0  0
    2.7655   -0.1042   -1.0184 C   0  0  0  0  0  0  0  0  0  0  0  0
    2.9214   -1.2478   -0.6331 O   0  0  0  0  0  0  0  0  0  0  0  0
    3.8344    0.6075   -1.3032 N   0  0  0  0  0  0  0  0  0  0  0  0
    4.7102    0.1326   -1.1690 H   0  0  0  0  0  0  0  0  0  0  0  0
    3.7629    1.5510   -1.6260 H   0  0  0  0  0  0  0  0  0  0  0  0
   -0.7011    1.2952    0.7149 C   0  0  0  0  0  0  0  0  0  0  0  0
   -1.5917    1.9198    0.1415 O   0  0  0  0  0  0  0  0  0  0  0  0
    0.1191    1.8675    1.6055 N   0  0  0  0  0  0  0  0  0  0  0  0
    0.8092    1.2861    2.0537 H   0  0  0  0  0  0  0  0  0  0  0  0
    0.0509    3.2769    1.9894 C   0  0  0  0  0  0  0  0  0  0  0  0
   -0.9494    3.5076    2.3640 H   0  0  0  0  0  0  0  0  0  0  0  0
    0.7844    3.4956    2.7668 H   0  0  0  0  0  0  0  0  0  0  0  0
    0.2468    3.9058    1.1193 H   0  0  0  0  0  0  0  0  0  0  0  0
  5  6  2  0  0  0  0
  5  7  1  0  0  0  0
  2  3  1  0  0  0  0
  2  4  1  0  0  0  0
  2  5  1  0  0  0  0
  1  2  1  0  0  0  0
 22 23  2  0  0  0  0
 22 24  1  0  0  0  0
 19 20  1  0  0  0  0
 19 21  1  0  0  0  0
 17 18  2  0  0  0  0
 17 19  1  0  0  0  0
 14 15  1  0  0  0  0
 14 16  1  0  0  0  0
 14 17  1  0  0  0  0
 11 12  1  0  0  0  0
 11 13  1  0  0  0  0
 11 14  1  0  0  0  0
  9 10  1  0  0  0  0
  9 11  1  0  0  0  0
  9 22  1  0  0  0  0
  7  8  1  0  0  0  0
  7  9  1  0  0  0  0
 26 27  1  0  0  0  0
 26 28  1  0  0  0  0
 26 29  1  0  0  0  0
 24 25  1  0  0  0  0
 24 26  1  0  0  0  0
M  END
$$$$
default_name
  -OEChem-02102213163D

 29 28  0     1  0  0  0  0  0999 V2000
   -3.3998   -3.6239    1.3678 H   0  0  0  0  0  0  0  0  0  0  0  0
   -3.3608   -2.6749    0.8348 C   0  0  0  0  0  0  0  0  0  0  0  0
   -4.0988   -1.9909    1.2498 H   0  0  0  0  0  0  0  0  0  0  0  0
   -3.5618   -2.8419   -0.2222 H   0  0  0  0  0  0  0  0  0  0  0  0
   -1.9818   -2.0809    0.9918 C   0  0  0  0  0  0  0  0  0  0  0  0
   -1.1288   -2.6669    1.6468 O   0  0  0  0  0  0  0  0  0  0  0  0
   -1.7648   -0.9089    0.3998 N   0  0  0  0  0  0  0  0  0  0  0  0
   -2.5238   -0.4719   -0.1032 H   0  0  0  0  0  0  0  0  0  0  0  0
   -0.4848   -0.1959    0.4138 C   0  0  1  0  0  0  0  0  0  0  0  0
    0.1386   -0.6144    1.2058 H   0  0  0  0  0  0  0  0  0  0  0  0
    0.2271   -0.4272   -0.9334 C   0  0  0  0  0  0  0  0  0  0  0  0
    0.6189   -1.4464   -0.9442 H   0  0  0  0  0  0  0  0  0  0  0  0
   -0.4998   -0.3326   -1.7415 H   0  0  0  0  0  0  0  0  0  0  0  0
    1.3921    0.5429   -1.1964 C   0  0  0  0  0  0  0  0  0  0  0  0
    1.1915    1.1217   -2.0977 H   0  0  0  0  0  0  0  0  0  0  0  0
    1.4781    1.2291   -0.3539 H   0  0  0  0  0  0  0  0  0  0  0  0
    2.7346   -0.1649   -1.3789 C   0  0  0  0  0  0  0  0  0  0  0  0
    2.8803   -1.3663   -1.2524 O   0  0  0  0  0  0  0  0  0  0  0  0
    3.7858    0.5592   -1.6965 N   0  0  0  0  0  0  0  0  0  0  0  0
    4.6415    0.0428   -1.8049 H   0  0  0  0  0  0  0  0  0  0  0  0
    3.7212    1.5498   -1.8153 H   0  0  0  0  0  0  0  0  0  0  0  0
   -0.7011    1.2952    0.7149 C   0  0  0  0  0  0  0  0  0  0  0  0
   -1.5917    1.9198    0.1415 O   0  0  0  0  0  0  0  0  0  0  0  0
    0.1191    1.8675    1.6055 N   0  0  0  0  0  0  0  0  0  0  0  0
    0.8092    1.2861    2.0537 H   0  0  0  0  0  0  0  0  0  0  0  0
    0.0509    3.2769    1.9894 C   0  0  0  0  0  0  0  0  0  0  0  0
   -0.9494    3.5076    2.3640 H   0  0  0  0  0  0  0  0  0  0  0  0
    0.7844    3.4956    2.7668 H   0  0  0  0  0  0  0  0  0  0  0  0
    0.2468    3.9058    1.1193 H   0  0  0  0  0  0  0  0  0  0  0  0
  5  6  2  0  0  0  0
  5  7  1  0  0  0  0
  2  3  1  0  0  0  0
  2  4  1  0  0  0  0
  2  5  1  0  0  0  0
  1  2  1  0  0  0  0
 22 23  2  0  0  0  0
 22 24  1  0  0  0  0
 19 20  1  0  0  0  0
 19 21  1  0  0  0  0
 17 18  2  0  0  0  0
 17 19  1  0  0  0  0
 14 15  1  0  0  0  0
 14 16  1  0  0  0  0
 14 17  1  0  0  0  0
 11 12  1  0  0  0  0
 11 13  1  0  0  0  0
 11 14  1  0  0  0  0
  9 10  1  0  0  0  0
  9 11  1  0  0  0  0
  9 22  1  0  0  0  0
  7  8  1  0  0  0  0
  7  9  1  0  0  0  0
 26 27  1  0  0  0  0
 26 28  1  0  0  0  0
 26 29  1  0  0  0  0
 24 25  1  0  0  0  0
 24 26  1  0  0  0  0
M  END
$$$$
default_name
  -OEChem-02102213163D

 29 28  0     1  0  0  0  0  0999 V2000
   -3.3998   -3.6239    1.3678 H   0  0  0  0  0  0  0  0  0  0  0  0
   -3.3608   -2.6749    0.8348 C   0  0  0  0  0  0  0  0  0  0  0  0
   -4.0988   -1.9909    1.2498 H   0  0  0  0  0  0  0  0  0  0  0  0
   -3.5618   -2.8419   -0.2222 H   0  0  0  0  0  0  0  0  0  0  0  0
   -1.9818   -2.0809    0.9918 C   0  0  0  0  0  0  0  0  0  0  0  0
   -1.1288   -2.6669    1.6468 O   0  0  0  0  0  0  0  0  0  0  0  0
   -1.7648   -0.9089    0.3998 N   0  0  0  0  0  0  0  0  0  0  0  0
   -2.5238   -0.4719   -0.1032 H   0  0  0  0  0  0  0  0  0  0  0  0
   -0.4848   -0.1959    0.4138 C   0  0  1  0  0  0  0  0  0  0  0  0
    0.1386   -0.6144    1.2058 H   0  0  0  0  0  0  0  0  0  0  0  0
    0.2271   -0.4272   -0.9334 C   0  0  0  0  0  0  0  0  0  0  0  0
    0.6189   -1.4464   -0.9442 H   0  0  0  0  0  0  0  0  0  0  0  0
   -0.4998   -0.3326   -1.7415 H   0  0  0  0  0  0  0  0  0  0  0  0
    1.3921    0.5429   -1.1964 C   0  0  0  0  0  0  0  0  0  0  0  0
    1.0863    1.2954   -1.9229 H   0  0  0  0  0  0  0  0  0  0  0  0
    1.6521    1.0444   -0.2642 H   0  0  0  0  0  0  0  0  0  0  0  0
    2.6433   -0.1514   -1.7340 C   0  0  0  0  0  0  0  0  0  0  0  0
    2.7342   -1.3575   -1.8671 O   0  0  0  0  0  0  0  0  0  0  0  0
    3.6726    0.5917   -2.0781 N   0  0  0  0  0  0  0  0  0  0  0  0
    4.4673    0.0837   -2.4256 H   0  0  0  0  0  0  0  0  0  0  0  0
    3.6500    1.5876   -1.9915 H   0  0  0  0  0  0  0  0  0  0  0  0
   -0.7011    1.2952    0.7149 C   0  0  0  0  0  0  0  0  0  0  0  0
   -1.5917    1.9198    0.1415 O   0  0  0  0  0  0  0  0  0  0  0  0
    0.1191    1.8675    1.6055 N   0  0  0  0  0  0  0  0  0  0  0  0
    0.8092    1.2861    2.0537 H   0  0  0  0  0  0  0  0  0  0  0  0
    0.0509    3.2769    1.9894 C   0  0  0  0  0  0  0  0  0  0  0  0
   -0.9494    3.5076    2.3640 H   0  0  0  0  0  0  0  0  0  0  0  0
    0.7844    3.4956    2.7668 H   0  0  0  0  0  0  0  0  0  0  0  0
    0.2468    3.9058    1.1193 H   0  0  0  0  0  0  0  0  0  0  0  0
  5  6  2  0  0  0  0
  5  7  1  0  0  0  0
  2  3  1  0  0  0  0
  2  4  1  0  0  0  0
  2  5  1  0  0  0  0
  1  2  1  0  0  0  0
 22 23  2  0  0  0  0
 22 24  1  0  0  0  0
 19 20  1  0  0  0  0
 19 21  1  0  0  0  0
 17 18  2  0  0  0  0
 17 19  1  0  0  0  0
 14 15  1  0  0  0  0
 14 16  1  0  0  0  0
 14 17  1  0  0  0  0
 11 12  1  0  0  0  0
 11 13  1  0  0  0  0
 11 14  1  0  0  0  0
  9 10  1  0  0  0  0
  9 11  1  0  0  0  0
  9 22  1  0  0  0  0
  7  8  1  0  0  0  0
  7  9  1  0  0  0  0
 26 27  1  0  0  0  0
 26 28  1  0  0  0  0
 26 29  1  0  0  0  0
 24 25  1  0  0  0  0
 24 26  1  0  0  0  0
M  END
$$$$
default_name
  -OEChem-02102213163D

 29 28  0     1  0  0  0  0  0999 V2000
   -3.3998   -3.6239    1.3678 H   0  0  0  0  0  0  0  0  0  0  0  0
   -3.3608   -2.6749    0.8348 C   0  0  0  0  0  0  0  0  0  0  0  0
   -4.0988   -1.9909    1.2498 H   0  0  0  0  0  0  0  0  0  0  0  0
   -3.5618   -2.8419   -0.2222 H   0  0  0  0  0  0  0  0  0  0  0  0
   -1.9818   -2.0809    0.9918 C   0  0  0  0  0  0  0  0  0  0  0  0
   -1.1288   -2.6669    1.6468 O   0  0  0  0  0  0  0  0  0  0  0  0
   -1.7648   -0.9089    0.3998 N   0  0  0  0  0  0  0  0  0  0  0  0
   -2.5238   -0.4719   -0.1032 H   0  0  0  0  0  0  0  0  0  0  0  0
   -0.4848   -0.1959    0.4138 C   0  0  1  0  0  0  0  0  0  0  0  0
    0.1386   -0.6144    1.2058 H   0  0  0  0  0  0  0  0  0  0  0  0
    0.2271   -0.4272   -0.9334 C   0  0  0  0  0  0  0  0  0  0  0  0
    0.6189   -1.4464   -0.9442 H   0  0  0  0  0  0  0  0  0  0  0  0
   -0.4998   -0.3326   -1.7415 H   0  0  0  0  0  0  0  0  0  0  0  0
    1.3921    0.5429   -1.1964 C   0  0  0  0  0  0  0  0  0  0  0  0
    1.0209    1.4336   -1.7030 H   0  0  0  0  0  0  0  0  0  0  0  0
    1.8267    0.8407   -0.2422 H   0  0  0  0  0  0  0  0  0  0  0  0
    2.4977   -0.0649   -2.0594 C   0  0  0  0  0  0  0  0  0  0  0  0
    2.4933   -1.2221   -2.4353 O   0  0  0  0  0  0  0  0  0  0  0  0
    3.5024    0.7030   -2.4217 N   0  0  0  0  0  0  0  0  0  0  0  0
    4.1997    0.2525   -2.9886 H   0  0  0  0  0  0  0  0  0  0  0  0
    3.5541    1.6617   -2.1427 H   0  0  0  0  0  0  0  0  0  0  0  0
   -0.7011    1.2952    0.7149 C   0  0  0  0  0  0  0  0  0  0  0  0
   -1.5917    1.9198    0.1415 O   0  0  0  0  0  0  0  0  0  0  0  0
    0.1191    1.8675    1.6055 N   0  0  0  0  0  0  0  0  0  0  0  0
    0.8092    1.2861    2.0537 H   0  0  0  0  0  0  0  0  0  0  0  0
    0.0509    3.2769    1.9894 C   0  0  0  0  0  0  0  0  0  0  0  0
   -0.9494    3.5076    2.3640 H   0  0  0  0  0  0  0  0  0  0  0  0
    0.7844    3.4956    2.7668 H   0  0  0  0  0  0  0  0  0  0  0  0
    0.2468    3.9058    1.1193 H   0  0  0  0  0  0  0  0  0  0  0  0
  5  6  2  0  0  0  0
  5  7  1  0  0  0  0
  2  3  1  0  0  0  0
  2  4  1  0  0  0  0
  2  5  1  0  0  0  0
  1  2  1  0  0  0  0
 22 23  2  0  0  0  0
 22 24  1  0  0  0  0
 19 20  1  0  0  0  0
 19 21  1  0  0  0  0
 17 18  2  0  0  0  0
 17 19  1  0  0  0  0
 14 15  1  0  0  0  0
 14 16  1  0  0  0  0
 14 17  1  0  0  0  0
 11 12  1  0  0  0  0
 11 13  1  0  0  0  0
 11 14  1  0  0  0  0
  9 10  1  0  0  0  0
  9 11  1  0  0  0  0
  9 22  1  0  0  0  0
  7  8  1  0  0  0  0
  7  9  1  0  0  0  0
 26 27  1  0  0  0  0
 26 28  1  0  0  0  0
 26 29  1  0  0  0  0
 24 25  1  0  0  0  0
 24 26  1  0  0  0  0
M  END
$$$$
default_name
  -OEChem-02102213163D

 29 28  0     1  0  0  0  0  0999 V2000
   -3.3998   -3.6239    1.3678 H   0  0  0  0  0  0  0  0  0  0  0  0
   -3.3608   -2.6749    0.8348 C   0  0  0  0  0  0  0  0  0  0  0  0
   -4.0988   -1.9909    1.2498 H   0  0  0  0  0  0  0  0  0  0  0  0
   -3.5618   -2.8419   -0.2222 H   0  0  0  0  0  0  0  0  0  0  0  0
   -1.9818   -2.0809    0.9918 C   0  0  0  0  0  0  0  0  0  0  0  0
   -1.1288   -2.6669    1.6468 O   0  0  0  0  0  0  0  0  0  0  0  0
   -1.7648   -0.9089    0.3998 N   0  0  0  0  0  0  0  0  0  0  0  0
   -2.5238   -0.4719   -0.1032 H   0  0  0  0  0  0  0  0  0  0  0  0
   -0.4848   -0.1959    0.4138 C   0  0  1  0  0  0  0  0  0  0  0  0
    0.1386   -0.6144    1.2058 H   0  0  0  0  0  0  0  0  0  0  0  0
    0.2271   -0.4272   -0.9334 C   0  0  0  0  0  0  0  0  0  0  0  0
    0.6189   -1.4464   -0.9442 H   0  0  0  0  0  0  0  0  0  0  0  0
   -0.4998   -0.3326   -1.7415 H   0  0  0  0  0  0  0  0  0  0  0  0
    1.3921    0.5429   -1.1964 C   0  0  0  0  0  0  0  0  0  0  0  0
    0.9997    1.5268   -1.4527 H   0  0  0  0  0  0  0  0  0  0  0  0
    1.9899    0.6320   -0.2893 H   0  0  0  0  0  0  0  0  0  0  0  0
    2.3078    0.0890   -2.3330 C   0  0  0  0  0  0  0  0  0  0  0  0
    2.1738   -0.9693   -2.9183 O   0  0  0  0  0  0  0  0  0  0  0  0
    3.2868    0.8853   -2.7041 N   0  0  0  0  0  0  0  0  0  0  0  0
    3.8567    0.5377   -3.4557 H   0  0  0  0  0  0  0  0  0  0  0  0
    3.4401    1.7672   -2.2586 H   0  0  0  0  0  0  0  0  0  0  0  0
   -0.7011    1.2952    0.7149 C   0  0  0  0  0  0  0  0  0  0  0  0
   -1.5917    1.9198    0.1415 O   0  0  0  0  0  0  0  0  0  0  0  0
    0.1191    1.8675    1.6055 N   0  0  0  0  0  0  0  0  0  0  0  0
    0.8092    1.2861    2.0537 H   0  0  0  0  0  0  0  0  0  0  0  0
    0.0509    3.2769    1.9894 C   0  0  0  0  0  0  0  0  0  0  0  0
   -0.9494    3.5076    2.3640 H   0  0  0  0  0  0  0  0  0  0  0  0
    0.7844    3.4956    2.7668 H   0  0  0  0  0  0  0  0  0  0  0  0
    0.2468    3.9058    1.1193 H   0  0  0  0  0  0  0  0  0  0  0  0
  5  6  2  0  0  0  0
  5  7  1  0  0  0  0
  2  3  1  0  0  0  0
  2  4  1  0  0  0  0
  2  5  1  0  0  0  0
  1  2  1  0  0  0  0
 22 23  2  0  0  0  0
 22 24  1  0  0  0  0
 19 20  1  0  0  0  0
 19 21  1  0  0  0  0
 17 18  2  0  0  0  0
 17 19  1  0  0  0  0
 14 15  1  0  0  0  0
 14 16  1  0  0  0  0
 14 17  1  0  0  0  0
 11 12  1  0  0  0  0
 11 13  1  0  0  0  0
 11 14  1  0  0  0  0
  9 10  1  0  0  0  0
  9 11  1  0  0  0  0
  9 22  1  0  0  0  0
  7  8  1  0  0  0  0
  7  9  1  0  0  0  0
 26 27  1  0  0  0  0
 26 28  1  0  0  0  0
 26 29  1  0  0  0  0
 24 25  1  0  0  0  0
 24 26  1  0  0  0  0
M  END
$$$$
