
  -OEChem-02102214123D

 29 28  0     1  0  0  0  0  0999 V2000
   -2.7287   -4.2735    0.4863 H   0  0  0  0  0  0  0  0  0  0  0  0
   -2.6962   -3.3117   -0.0340 C   0  0  0  0  0  0  0  0  0  0  0  0
   -3.5138   -2.6860    0.3318 H   0  0  0  0  0  0  0  0  0  0  0  0
   -2.8305   -3.4877   -1.1040 H   0  0  0  0  0  0  0  0  0  0  0  0
   -1.3651   -2.6281    0.2172 C   0  0  0  0  0  0  0  0  0  0  0  0
   -0.5483   -3.1476    0.9559 O   0  0  0  0  0  0  0  0  0  0  0  0
   -1.0903   -1.4178   -0.3909 N   0  0  0  0  0  0  0  0  0  0  0  0
   -1.7752   -1.0814   -1.0620 H   0  0  0  0  0  0  0  0  0  0  0  0
    0.2134   -0.7304   -0.3236 C   0  0  1  0  0  0  0  0  0  0  0  0
    0.9807   -1.3949   -0.7366 H   0  0  0  0  0  0  0  0  0  0  0  0
    0.1097    0.5189   -1.2188 C   0  0  0  0  0  0  0  0  0  0  0  0
   -0.1410    0.2071   -2.2387 H   0  0  0  0  0  0  0  0  0  0  0  0
   -0.7066    1.1536   -0.8558 H   0  0  0  0  0  0  0  0  0  0  0  0
    1.4060    1.3545   -1.2584 C   0  0  0  0  0  0  0  0  0  0  0  0
    1.6641    1.6995   -0.2539 H   0  0  0  0  0  0  0  0  0  0  0  0
    2.2287    0.7328   -1.6228 H   0  0  0  0  0  0  0  0  0  0  0  0
    1.2842    2.5864   -2.1508 C   0  0  0  0  0  0  0  0  0  0  0  0
    0.2581    2.8825   -2.7362 O   0  0  0  0  0  0  0  0  0  0  0  0
    2.3369    3.4375   -2.3262 N   0  0  0  0  0  0  0  0  0  0  0  0
    2.1322    4.3174   -2.7904 H   0  0  0  0  0  0  0  0  0  0  0  0
    3.1470    3.3509   -1.7209 H   0  0  0  0  0  0  0  0  0  0  0  0
    0.6545   -0.3742    1.1163 C   0  0  0  0  0  0  0  0  0  0  0  0
    1.8431   -0.3841    1.4116 O   0  0  0  0  0  0  0  0  0  0  0  0
   -0.2533    0.1851    1.9970 N   0  0  0  0  0  0  0  0  0  0  0  0
   -1.2325    0.0891    1.7488 H   0  0  0  0  0  0  0  0  0  0  0  0
    0.0900    0.5317    3.3701 C   0  0  0  0  0  0  0  0  0  0  0  0
    0.9024    1.2657    3.3897 H   0  0  0  0  0  0  0  0  0  0  0  0
   -0.7766    0.9647    3.8784 H   0  0  0  0  0  0  0  0  0  0  0  0
    0.4071   -0.3600    3.9210 H   0  0  0  0  0  0  0  0  0  0  0  0
  1  2  1  0  0  0  0
  2  3  1  0  0  0  0
  2  4  1  0  0  0  0
  2  5  1  0  0  0  0
  5  6  2  0  0  0  0
  5  7  1  0  0  0  0
  7  8  1  0  0  0  0
  7  9  1  0  0  0  0
  9 10  1  0  0  0  0
  9 11  1  0  0  0  0
  9 22  1  0  0  0  0
 11 12  1  0  0  0  0
 11 13  1  0  0  0  0
 11 14  1  0  0  0  0
 14 15  1  0  0  0  0
 14 16  1  0  0  0  0
 14 17  1  0  0  0  0
 17 18  2  0  0  0  0
 17 19  1  0  0  0  0
 19 20  1  0  0  0  0
 19 21  1  0  0  0  0
 22 23  2  0  0  0  0
 22 24  1  0  0  0  0
 24 25  1  0  0  0  0
 24 26  1  0  0  0  0
 26 27  1  0  0  0  0
 26 28  1  0  0  0  0
 26 29  1  0  0  0  0
M  END
$$$$

  -OEChem-02102214123D

 29 28  0     1  0  0  0  0  0999 V2000
   -2.7692   -4.2314    0.5280 H   0  0  0  0  0  0  0  0  0  0  0  0
   -2.7154   -3.2825   -0.0136 C   0  0  0  0  0  0  0  0  0  0  0  0
   -3.5198   -2.6313    0.3364 H   0  0  0  0  0  0  0  0  0  0  0  0
   -2.8515   -3.4797   -1.0797 H   0  0  0  0  0  0  0  0  0  0  0  0
   -1.3706   -2.6217    0.2248 C   0  0  0  0  0  0  0  0  0  0  0  0
   -0.5549   -3.1561    0.9539 O   0  0  0  0  0  0  0  0  0  0  0  0
   -1.0803   -1.4185   -0.3900 N   0  0  0  0  0  0  0  0  0  0  0  0
   -1.7708   -1.0651   -1.0464 H   0  0  0  0  0  0  0  0  0  0  0  0
    0.2322   -0.7470   -0.3287 C   0  0  1  0  0  0  0  0  0  0  0  0
    0.9932   -1.4207   -0.7383 H   0  0  0  0  0  0  0  0  0  0  0  0
    0.1334    0.4976   -1.2338 C   0  0  0  0  0  0  0  0  0  0  0  0
   -0.1423    0.1945   -2.2496 H   0  0  0  0  0  0  0  0  0  0  0  0
   -0.6737    1.1305   -0.8475 H   0  0  0  0  0  0  0  0  0  0  0  0
    1.4278    1.3387   -1.3015 C   0  0  0  0  0  0  0  0  0  0  0  0
    1.8414    1.4889   -0.3023 H   0  0  0  0  0  0  0  0  0  0  0  0
    2.1770    0.8081   -1.8956 H   0  0  0  0  0  0  0  0  0  0  0  0
    1.2017    2.7270   -1.8951 C   0  0  0  0  0  0  0  0  0  0  0  0
    0.1437    3.0747   -2.3884 O   0  0  0  0  0  0  0  0  0  0  0  0
    2.1953    3.6633   -1.8975 N   0  0  0  0  0  0  0  0  0  0  0  0
    1.9226    4.6078   -2.1532 H   0  0  0  0  0  0  0  0  0  0  0  0
    3.0250    3.5020   -1.3354 H   0  0  0  0  0  0  0  0  0  0  0  0
    0.6692   -0.3930    1.1138 C   0  0  0  0  0  0  0  0  0  0  0  0
    1.8530   -0.4349    1.4248 O   0  0  0  0  0  0  0  0  0  0  0  0
   -0.2373    0.1792    1.9879 N   0  0  0  0  0  0  0  0  0  0  0  0
   -1.2155    0.1099    1.7274 H   0  0  0  0  0  0  0  0  0  0  0  0
    0.0988    0.5223    3.3636 C   0  0  0  0  0  0  0  0  0  0  0  0
    0.9194    1.2471    3.3890 H   0  0  0  0  0  0  0  0  0  0  0  0
   -0.7667    0.9653    3.8653 H   0  0  0  0  0  0  0  0  0  0  0  0
    0.4012   -0.3730    3.9171 H   0  0  0  0  0  0  0  0  0  0  0  0
  1  2  1  0  0  0  0
  2  3  1  0  0  0  0
  2  4  1  0  0  0  0
  2  5  1  0  0  0  0
  5  6  2  0  0  0  0
  5  7  1  0  0  0  0
  7  8  1  0  0  0  0
  7  9  1  0  0  0  0
  9 10  1  0  0  0  0
  9 11  1  0  0  0  0
  9 22  1  0  0  0  0
 11 12  1  0  0  0  0
 11 13  1  0  0  0  0
 11 14  1  0  0  0  0
 14 15  1  0  0  0  0
 14 16  1  0  0  0  0
 14 17  1  0  0  0  0
 17 18  2  0  0  0  0
 17 19  1  0  0  0  0
 19 20  1  0  0  0  0
 19 21  1  0  0  0  0
 22 23  2  0  0  0  0
 22 24  1  0  0  0  0
 24 25  1  0  0  0  0
 24 26  1  0  0  0  0
 26 27  1  0  0  0  0
 26 28  1  0  0  0  0
 26 29  1  0  0  0  0
M  END
$$$$

  -OEChem-02102214123D

 29 28  0     1  0  0  0  0  0999 V2000
   -2.7969   -4.1877    0.5992 H   0  0  0  0  0  0  0  0  0  0  0  0
   -2.7299   -3.2579    0.0269 C   0  0  0  0  0  0  0  0  0  0  0  0
   -3.5197   -2.5815    0.3621 H   0  0  0  0  0  0  0  0  0  0  0  0
   -2.8779   -3.4861   -1.0314 H   0  0  0  0  0  0  0  0  0  0  0  0
   -1.3711   -2.6152    0.2341 C   0  0  0  0  0  0  0  0  0  0  0  0
   -0.5495   -3.1559    0.9518 O   0  0  0  0  0  0  0  0  0  0  0  0
   -1.0740   -1.4220   -0.3971 N   0  0  0  0  0  0  0  0  0  0  0  0
   -1.7706   -1.0642   -1.0445 H   0  0  0  0  0  0  0  0  0  0  0  0
    0.2449   -0.7614   -0.3536 C   0  0  1  0  0  0  0  0  0  0  0  0
    0.9992   -1.4420   -0.7634 H   0  0  0  0  0  0  0  0  0  0  0  0
    0.1414    0.4775   -1.2677 C   0  0  0  0  0  0  0  0  0  0  0  0
   -0.1568    0.1735   -2.2766 H   0  0  0  0  0  0  0  0  0  0  0  0
   -0.6602    1.1085   -0.8671 H   0  0  0  0  0  0  0  0  0  0  0  0
    1.4355    1.3211   -1.3677 C   0  0  0  0  0  0  0  0  0  0  0  0
    2.0129    1.2604   -0.4445 H   0  0  0  0  0  0  0  0  0  0  0  0
    2.0657    0.9269   -2.1694 H   0  0  0  0  0  0  0  0  0  0  0  0
    1.1659    2.8024   -1.6202 C   0  0  0  0  0  0  0  0  0  0  0  0
    0.1248    3.2124   -2.1009 O   0  0  0  0  0  0  0  0  0  0  0  0
    2.0924    3.7536   -1.3028 N   0  0  0  0  0  0  0  0  0  0  0  0
    1.7765    4.7181   -1.3395 H   0  0  0  0  0  0  0  0  0  0  0  0
    2.8823    3.4940   -0.7204 H   0  0  0  0  0  0  0  0  0  0  0  0
    0.6883   -0.3971    1.0855 C   0  0  0  0  0  0  0  0  0  0  0  0
    1.8703   -0.4588    1.4004 O   0  0  0  0  0  0  0  0  0  0  0  0
   -0.2095    0.1913    1.9581 N   0  0  0  0  0  0  0  0  0  0  0  0
   -1.1891    0.1374    1.6992 H   0  0  0  0  0  0  0  0  0  0  0  0
    0.1357    0.5442    3.3295 C   0  0  0  0  0  0  0  0  0  0  0  0
    0.9690    1.2545    3.3451 H   0  0  0  0  0  0  0  0  0  0  0  0
   -0.7205    1.0087    3.8279 H   0  0  0  0  0  0  0  0  0  0  0  0
    0.4239   -0.3494    3.8931 H   0  0  0  0  0  0  0  0  0  0  0  0
  1  2  1  0  0  0  0
  2  3  1  0  0  0  0
  2  4  1  0  0  0  0
  2  5  1  0  0  0  0
  5  6  2  0  0  0  0
  5  7  1  0  0  0  0
  7  8  1  0  0  0  0
  7  9  1  0  0  0  0
  9 10  1  0  0  0  0
  9 11  1  0  0  0  0
  9 22  1  0  0  0  0
 11 12  1  0  0  0  0
 11 13  1  0  0  0  0
 11 14  1  0  0  0  0
 14 15  1  0  0  0  0
 14 16  1  0  0  0  0
 14 17  1  0  0  0  0
 17 18  2  0  0  0  0
 17 19  1  0  0  0  0
 19 20  1  0  0  0  0
 19 21  1  0  0  0  0
 22 23  2  0  0  0  0
 22 24  1  0  0  0  0
 24 25  1  0  0  0  0
 24 26  1  0  0  0  0
 26 27  1  0  0  0  0
 26 28  1  0  0  0  0
 26 29  1  0  0  0  0
M  END
$$$$

  -OEChem-02102214123D

 29 28  0     1  0  0  0  0  0999 V2000
   -2.8021   -4.1155    0.7046 H   0  0  0  0  0  0  0  0  0  0  0  0
   -2.7308   -3.2114    0.0932 C   0  0  0  0  0  0  0  0  0  0  0  0
   -3.5101   -2.5131    0.4075 H   0  0  0  0  0  0  0  0  0  0  0  0
   -2.8919   -3.4818   -0.9532 H   0  0  0  0  0  0  0  0  0  0  0  0
   -1.3631   -2.5761    0.2612 C   0  0  0  0  0  0  0  0  0  0  0  0
   -0.5368   -3.1016    0.9846 O   0  0  0  0  0  0  0  0  0  0  0  0
   -1.0655   -1.4037   -0.4076 N   0  0  0  0  0  0  0  0  0  0  0  0
   -1.7662   -1.0649   -1.0611 H   0  0  0  0  0  0  0  0  0  0  0  0
    0.2636   -0.7619   -0.4152 C   0  0  1  0  0  0  0  0  0  0  0  0
    0.9997   -1.4560   -0.8359 H   0  0  0  0  0  0  0  0  0  0  0  0
    0.1461    0.4744   -1.3299 C   0  0  0  0  0  0  0  0  0  0  0  0
   -0.1810    0.1630   -2.3274 H   0  0  0  0  0  0  0  0  0  0  0  0
   -0.6397    1.1201   -0.9209 H   0  0  0  0  0  0  0  0  0  0  0  0
    1.4511    1.2931   -1.4771 C   0  0  0  0  0  0  0  0  0  0  0  0
    2.1977    1.0043   -0.7363 H   0  0  0  0  0  0  0  0  0  0  0  0
    1.8932    1.0933   -2.4571 H   0  0  0  0  0  0  0  0  0  0  0  0
    1.2036    2.7912   -1.3523 C   0  0  0  0  0  0  0  0  0  0  0  0
    0.3221    3.3530   -1.9759 O   0  0  0  0  0  0  0  0  0  0  0  0
    1.8809    3.5499   -0.4418 N   0  0  0  0  0  0  0  0  0  0  0  0
    1.5071    4.4771   -0.2634 H   0  0  0  0  0  0  0  0  0  0  0  0
    2.4413    3.0787    0.2624 H   0  0  0  0  0  0  0  0  0  0  0  0
    0.7436   -0.3711    1.0067 C   0  0  0  0  0  0  0  0  0  0  0  0
    1.9323   -0.4211    1.2971 O   0  0  0  0  0  0  0  0  0  0  0  0
   -0.1306    0.2495    1.8810 N   0  0  0  0  0  0  0  0  0  0  0  0
   -1.1166    0.1786    1.6514 H   0  0  0  0  0  0  0  0  0  0  0  0
    0.2455    0.6327    3.2359 C   0  0  0  0  0  0  0  0  0  0  0  0
    1.0761    1.3459    3.2164 H   0  0  0  0  0  0  0  0  0  0  0  0
   -0.6006    1.1047    3.7444 H   0  0  0  0  0  0  0  0  0  0  0  0
    0.5507   -0.2478    3.8112 H   0  0  0  0  0  0  0  0  0  0  0  0
  1  2  1  0  0  0  0
  2  3  1  0  0  0  0
  2  4  1  0  0  0  0
  2  5  1  0  0  0  0
  5  6  2  0  0  0  0
  5  7  1  0  0  0  0
  7  8  1  0  0  0  0
  7  9  1  0  0  0  0
  9 10  1  0  0  0  0
  9 11  1  0  0  0  0
  9 22  1  0  0  0  0
 11 12  1  0  0  0  0
 11 13  1  0  0  0  0
 11 14  1  0  0  0  0
 14 15  1  0  0  0  0
 14 16  1  0  0  0  0
 14 17  1  0  0  0  0
 17 18  2  0  0  0  0
 17 19  1  0  0  0  0
 19 20  1  0  0  0  0
 19 21  1  0  0  0  0
 22 23  2  0  0  0  0
 22 24  1  0  0  0  0
 24 25  1  0  0  0  0
 24 26  1  0  0  0  0
 26 27  1  0  0  0  0
 26 28  1  0  0  0  0
 26 29  1  0  0  0  0
M  END
$$$$

  -OEChem-02102214123D

 29 28  0     1  0  0  0  0  0999 V2000
   -2.6882   -4.1293    0.7712 H   0  0  0  0  0  0  0  0  0  0  0  0
   -2.6603   -3.2240    0.1580 C   0  0  0  0  0  0  0  0  0  0  0  0
   -3.4419   -2.5424    0.5018 H   0  0  0  0  0  0  0  0  0  0  0  0
   -2.8552   -3.4978   -0.8816 H   0  0  0  0  0  0  0  0  0  0  0  0
   -1.3018   -2.5588    0.2734 C   0  0  0  0  0  0  0  0  0  0  0  0
   -0.4404   -3.0574    0.9748 O   0  0  0  0  0  0  0  0  0  0  0  0
   -1.0531   -1.3855   -0.4136 N   0  0  0  0  0  0  0  0  0  0  0  0
   -1.7815   -1.0700   -1.0480 H   0  0  0  0  0  0  0  0  0  0  0  0
    0.2619   -0.7180   -0.4740 C   0  0  1  0  0  0  0  0  0  0  0  0
    0.9968   -1.3967   -0.9216 H   0  0  0  0  0  0  0  0  0  0  0  0
    0.1007    0.5312   -1.3612 C   0  0  0  0  0  0  0  0  0  0  0  0
   -0.2372    0.2172   -2.3543 H   0  0  0  0  0  0  0  0  0  0  0  0
   -0.6837    1.1728   -0.9428 H   0  0  0  0  0  0  0  0  0  0  0  0
    1.4086    1.3381   -1.5252 C   0  0  0  0  0  0  0  0  0  0  0  0
    2.2606    0.8503   -1.0471 H   0  0  0  0  0  0  0  0  0  0  0  0
    1.6518    1.4032   -2.5896 H   0  0  0  0  0  0  0  0  0  0  0  0
    1.2605    2.7579   -1.0016 C   0  0  0  0  0  0  0  0  0  0  0  0
    0.5335    3.5715   -1.5402 O   0  0  0  0  0  0  0  0  0  0  0  0
    1.8021    3.1087    0.2009 N   0  0  0  0  0  0  0  0  0  0  0  0
    1.4583    3.9688    0.6158 H   0  0  0  0  0  0  0  0  0  0  0  0
    2.1743    2.3669    0.7916 H   0  0  0  0  0  0  0  0  0  0  0  0
    0.7769   -0.3121    0.9336 C   0  0  0  0  0  0  0  0  0  0  0  0
    1.9776   -0.2673    1.1723 O   0  0  0  0  0  0  0  0  0  0  0  0
   -0.0896    0.2924    1.8269 N   0  0  0  0  0  0  0  0  0  0  0  0
   -1.0786    0.1680    1.6360 H   0  0  0  0  0  0  0  0  0  0  0  0
    0.3123    0.7057    3.1657 C   0  0  0  0  0  0  0  0  0  0  0  0
    1.0966    1.4679    3.1141 H   0  0  0  0  0  0  0  0  0  0  0  0
   -0.5426    1.1277    3.7027 H   0  0  0  0  0  0  0  0  0  0  0  0
    0.6904   -0.1514    3.7331 H   0  0  0  0  0  0  0  0  0  0  0  0
  1  2  1  0  0  0  0
  2  3  1  0  0  0  0
  2  4  1  0  0  0  0
  2  5  1  0  0  0  0
  5  6  2  0  0  0  0
  5  7  1  0  0  0  0
  7  8  1  0  0  0  0
  7  9  1  0  0  0  0
  9 10  1  0  0  0  0
  9 11  1  0  0  0  0
  9 22  1  0  0  0  0
 11 12  1  0  0  0  0
 11 13  1  0  0  0  0
 11 14  1  0  0  0  0
 14 15  1  0  0  0  0
 14 16  1  0  0  0  0
 14 17  1  0  0  0  0
 17 18  2  0  0  0  0
 17 19  1  0  0  0  0
 19 20  1  0  0  0  0
 19 21  1  0  0  0  0
 22 23  2  0  0  0  0
 22 24  1  0  0  0  0
 24 25  1  0  0  0  0
 24 26  1  0  0  0  0
 26 27  1  0  0  0  0
 26 28  1  0  0  0  0
 26 29  1  0  0  0  0
M  END
$$$$

  -OEChem-02102214123D

 29 28  0     1  0  0  0  0  0999 V2000
   -2.5986   -4.1864    0.7482 H   0  0  0  0  0  0  0  0  0  0  0  0
   -2.6034   -3.2669    0.1556 C   0  0  0  0  0  0  0  0  0  0  0  0
   -3.3898   -2.6094    0.5340 H   0  0  0  0  0  0  0  0  0  0  0  0
   -2.8188   -3.5218   -0.8849 H   0  0  0  0  0  0  0  0  0  0  0  0
   -1.2557   -2.5767    0.2529 C   0  0  0  0  0  0  0  0  0  0  0  0
   -0.3661   -3.0731    0.9200 O   0  0  0  0  0  0  0  0  0  0  0  0
   -1.0461   -1.3840   -0.4132 N   0  0  0  0  0  0  0  0  0  0  0  0
   -1.7996   -1.0587   -1.0121 H   0  0  0  0  0  0  0  0  0  0  0  0
    0.2480   -0.6778   -0.4686 C   0  0  1  0  0  0  0  0  0  0  0  0
    0.9954   -1.3389   -0.9213 H   0  0  0  0  0  0  0  0  0  0  0  0
    0.0641    0.5658   -1.3611 C   0  0  0  0  0  0  0  0  0  0  0  0
   -0.2415    0.2291   -2.3571 H   0  0  0  0  0  0  0  0  0  0  0  0
   -0.7448    1.1936   -0.9695 H   0  0  0  0  0  0  0  0  0  0  0  0
    1.3548    1.3999   -1.5095 C   0  0  0  0  0  0  0  0  0  0  0  0
    2.2427    0.8130   -1.2577 H   0  0  0  0  0  0  0  0  0  0  0  0
    1.4624    1.6985   -2.5563 H   0  0  0  0  0  0  0  0  0  0  0  0
    1.3113    2.6768   -0.6805 C   0  0  0  0  0  0  0  0  0  0  0  0
    0.5677    3.5981   -0.9620 O   0  0  0  0  0  0  0  0  0  0  0  0
    1.9977    2.7738    0.4944 N   0  0  0  0  0  0  0  0  0  0  0  0
    1.7156    3.5325    1.1058 H   0  0  0  0  0  0  0  0  0  0  0  0
    2.3439    1.9020    0.9002 H   0  0  0  0  0  0  0  0  0  0  0  0
    0.7693   -0.2789    0.9362 C   0  0  0  0  0  0  0  0  0  0  0  0
    1.9734   -0.1830    1.1467 O   0  0  0  0  0  0  0  0  0  0  0  0
   -0.1007    0.2871    1.8507 N   0  0  0  0  0  0  0  0  0  0  0  0
   -1.0902    0.1536    1.6679 H   0  0  0  0  0  0  0  0  0  0  0  0
    0.3099    0.7216    3.1799 C   0  0  0  0  0  0  0  0  0  0  0  0
    1.0595    1.5164    3.1106 H   0  0  0  0  0  0  0  0  0  0  0  0
   -0.5511    1.1088    3.7331 H   0  0  0  0  0  0  0  0  0  0  0  0
    0.7347   -0.1170    3.7417 H   0  0  0  0  0  0  0  0  0  0  0  0
  1  2  1  0  0  0  0
  2  3  1  0  0  0  0
  2  4  1  0  0  0  0
  2  5  1  0  0  0  0
  5  6  2  0  0  0  0
  5  7  1  0  0  0  0
  7  8  1  0  0  0  0
  7  9  1  0  0  0  0
  9 10  1  0  0  0  0
  9 11  1  0  0  0  0
  9 22  1  0  0  0  0
 11 12  1  0  0  0  0
 11 13  1  0  0  0  0
 11 14  1  0  0  0  0
 14 15  1  0  0  0  0
 14 16  1  0  0  0  0
 14 17  1  0  0  0  0
 17 18  2  0  0  0  0
 17 19  1  0  0  0  0
 19 20  1  0  0  0  0
 19 21  1  0  0  0  0
 22 23  2  0  0  0  0
 22 24  1  0  0  0  0
 24 25  1  0  0  0  0
 24 26  1  0  0  0  0
 26 27  1  0  0  0  0
 26 28  1  0  0  0  0
 26 29  1  0  0  0  0
M  END
$$$$

  -OEChem-02102214123D

 29 28  0     1  0  0  0  0  0999 V2000
   -2.5946   -4.2215    0.6698 H   0  0  0  0  0  0  0  0  0  0  0  0
   -2.6002   -3.2844    0.1057 C   0  0  0  0  0  0  0  0  0  0  0  0
   -3.3834   -2.6375    0.5080 H   0  0  0  0  0  0  0  0  0  0  0  0
   -2.8205   -3.5062   -0.9413 H   0  0  0  0  0  0  0  0  0  0  0  0
   -1.2512   -2.5995    0.2186 C   0  0  0  0  0  0  0  0  0  0  0  0
   -0.3601   -3.1155    0.8685 O   0  0  0  0  0  0  0  0  0  0  0  0
   -1.0430   -1.3876   -0.4118 N   0  0  0  0  0  0  0  0  0  0  0  0
   -1.8015   -1.0359   -0.9891 H   0  0  0  0  0  0  0  0  0  0  0  0
    0.2425   -0.6649   -0.4193 C   0  0  1  0  0  0  0  0  0  0  0  0
    1.0030   -1.3226   -0.8557 H   0  0  0  0  0  0  0  0  0  0  0  0
    0.0694    0.5564   -1.3477 C   0  0  0  0  0  0  0  0  0  0  0  0
   -0.1875    0.1855   -2.3453 H   0  0  0  0  0  0  0  0  0  0  0  0
   -0.7703    1.1709   -1.0031 H   0  0  0  0  0  0  0  0  0  0  0  0
    1.3276    1.4407   -1.4808 C   0  0  0  0  0  0  0  0  0  0  0  0
    2.2317    0.8274   -1.4208 H   0  0  0  0  0  0  0  0  0  0  0  0
    1.3248    1.9180   -2.4649 H   0  0  0  0  0  0  0  0  0  0  0  0
    1.3865    2.5545   -0.4381 C   0  0  0  0  0  0  0  0  0  0  0  0
    0.5790    3.4652   -0.4438 O   0  0  0  0  0  0  0  0  0  0  0  0
    2.2885    2.5522    0.5843 N   0  0  0  0  0  0  0  0  0  0  0  0
    2.0870    3.2161    1.3243 H   0  0  0  0  0  0  0  0  0  0  0  0
    2.6685    1.6386    0.8409 H   0  0  0  0  0  0  0  0  0  0  0  0
    0.7500   -0.2845    0.9912 C   0  0  0  0  0  0  0  0  0  0  0  0
    1.9554   -0.2516    1.2147 O   0  0  0  0  0  0  0  0  0  0  0  0
   -0.1182    0.2582    1.9199 N   0  0  0  0  0  0  0  0  0  0  0  0
   -1.1095    0.1822    1.7167 H   0  0  0  0  0  0  0  0  0  0  0  0
    0.2974    0.6830    3.2505 C   0  0  0  0  0  0  0  0  0  0  0  0
    1.0382    1.4864    3.1834 H   0  0  0  0  0  0  0  0  0  0  0  0
   -0.5631    1.0556    3.8144 H   0  0  0  0  0  0  0  0  0  0  0  0
    0.7354   -0.1570    3.8002 H   0  0  0  0  0  0  0  0  0  0  0  0
  1  2  1  0  0  0  0
  2  3  1  0  0  0  0
  2  4  1  0  0  0  0
  2  5  1  0  0  0  0
  5  6  2  0  0  0  0
  5  7  1  0  0  0  0
  7  8  1  0  0  0  0
  7  9  1  0  0  0  0
  9 10  1  0  0  0  0
  9 11  1  0  0  0  0
  9 22  1  0  0  0  0
 11 12  1  0  0  0  0
 11 13  1  0  0  0  0
 11 14  1  0  0  0  0
 14 15  1  0  0  0  0
 14 16  1  0  0  0  0
 14 17  1  0  0  0  0
 17 18  2  0  0  0  0
 17 19  1  0  0  0  0
 19 20  1  0  0  0  0
 19 21  1  0  0  0  0
 22 23  2  0  0  0  0
 22 24  1  0  0  0  0
 24 25  1  0  0  0  0
 24 26  1  0  0  0  0
 26 27  1  0  0  0  0
 26 28  1  0  0  0  0
 26 29  1  0  0  0  0
M  END
$$$$

  -OEChem-02102214123D

 29 28  0     1  0  0  0  0  0999 V2000
   -2.5832   -4.2749    0.5589 H   0  0  0  0  0  0  0  0  0  0  0  0
   -2.6004   -3.3035    0.0563 C   0  0  0  0  0  0  0  0  0  0  0  0
   -3.3628   -2.6783    0.5270 H   0  0  0  0  0  0  0  0  0  0  0  0
   -2.8593   -3.4565   -0.9940 H   0  0  0  0  0  0  0  0  0  0  0  0
   -1.2417   -2.6373    0.1651 C   0  0  0  0  0  0  0  0  0  0  0  0
   -0.3401   -3.1937    0.7652 O   0  0  0  0  0  0  0  0  0  0  0  0
   -1.0319   -1.4039   -0.4220 N   0  0  0  0  0  0  0  0  0  0  0  0
   -1.8092   -1.0014   -0.9376 H   0  0  0  0  0  0  0  0  0  0  0  0
    0.2477   -0.6716   -0.3794 C   0  0  1  0  0  0  0  0  0  0  0  0
    1.0217   -1.3166   -0.8107 H   0  0  0  0  0  0  0  0  0  0  0  0
    0.0810    0.5504   -1.3123 C   0  0  0  0  0  0  0  0  0  0  0  0
   -0.1559    0.1770   -2.3140 H   0  0  0  0  0  0  0  0  0  0  0  0
   -0.7750    1.1458   -0.9753 H   0  0  0  0  0  0  0  0  0  0  0  0
    1.3022    1.4878   -1.4378 C   0  0  0  0  0  0  0  0  0  0  0  0
    2.2025    0.8912   -1.6110 H   0  0  0  0  0  0  0  0  0  0  0  0
    1.1656    2.1350   -2.3088 H   0  0  0  0  0  0  0  0  0  0  0  0
    1.5258    2.3926   -0.2270 C   0  0  0  0  0  0  0  0  0  0  0  0
    0.6980    3.2286    0.0852 O   0  0  0  0  0  0  0  0  0  0  0  0
    2.6282    2.3102    0.5709 N   0  0  0  0  0  0  0  0  0  0  0  0
    2.5493    2.8484    1.4275 H   0  0  0  0  0  0  0  0  0  0  0  0
    3.0431    1.3807    0.6386 H   0  0  0  0  0  0  0  0  0  0  0  0
    0.7259   -0.3314    1.0497 C   0  0  0  0  0  0  0  0  0  0  0  0
    1.9238   -0.3710    1.3091 O   0  0  0  0  0  0  0  0  0  0  0  0
   -0.1572    0.1776    1.9827 N   0  0  0  0  0  0  0  0  0  0  0  0
   -1.1336    0.2380    1.7143 H   0  0  0  0  0  0  0  0  0  0  0  0
    0.2478    0.6488    3.3001 C   0  0  0  0  0  0  0  0  0  0  0  0
    0.9185    1.5093    3.2082 H   0  0  0  0  0  0  0  0  0  0  0  0
   -0.6296    0.9540    3.8781 H   0  0  0  0  0  0  0  0  0  0  0  0
    0.7642   -0.1455    3.8495 H   0  0  0  0  0  0  0  0  0  0  0  0
  1  2  1  0  0  0  0
  2  3  1  0  0  0  0
  2  4  1  0  0  0  0
  2  5  1  0  0  0  0
  5  6  2  0  0  0  0
  5  7  1  0  0  0  0
  7  8  1  0  0  0  0
  7  9  1  0  0  0  0
  9 10  1  0  0  0  0
  9 11  1  0  0  0  0
  9 22  1  0  0  0  0
 11 12  1  0  0  0  0
 11 13  1  0  0  0  0
 11 14  1  0  0  0  0
 14 15  1  0  0  0  0
 14 16  1  0  0  0  0
 14 17  1  0  0  0  0
 17 18  2  0  0  0  0
 17 19  1  0  0  0  0
 19 20  1  0  0  0  0
 19 21  1  0  0  0  0
 22 23  2  0  0  0  0
 22 24  1  0  0  0  0
 24 25  1  0  0  0  0
 24 26  1  0  0  0  0
 26 27  1  0  0  0  0
 26 28  1  0  0  0  0
 26 29  1  0  0  0  0
M  END
$$$$

  -OEChem-02102214123D

 29 28  0     1  0  0  0  0  0999 V2000
   -2.5824   -4.2883    0.5130 H   0  0  0  0  0  0  0  0  0  0  0  0
   -2.5912   -3.3104    0.0230 C   0  0  0  0  0  0  0  0  0  0  0  0
   -3.3364   -2.6793    0.5130 H   0  0  0  0  0  0  0  0  0  0  0  0
   -2.8680   -3.4458   -1.0252 H   0  0  0  0  0  0  0  0  0  0  0  0
   -1.2204   -2.6672    0.1189 C   0  0  0  0  0  0  0  0  0  0  0  0
   -0.3095   -3.2615    0.6663 O   0  0  0  0  0  0  0  0  0  0  0  0
   -1.0083   -1.4181   -0.4338 N   0  0  0  0  0  0  0  0  0  0  0  0
   -1.8024   -0.9742   -0.8849 H   0  0  0  0  0  0  0  0  0  0  0  0
    0.2649   -0.6784   -0.3451 C   0  0  1  0  0  0  0  0  0  0  0  0
    1.0564   -1.3061   -0.7701 H   0  0  0  0  0  0  0  0  0  0  0  0
    0.0967    0.5534   -1.2694 C   0  0  0  0  0  0  0  0  0  0  0  0
   -0.1394    0.1916   -2.2758 H   0  0  0  0  0  0  0  0  0  0  0  0
   -0.7677    1.1271   -0.9164 H   0  0  0  0  0  0  0  0  0  0  0  0
    1.2789    1.5425   -1.3938 C   0  0  0  0  0  0  0  0  0  0  0  0
    2.1376    1.0092   -1.8110 H   0  0  0  0  0  0  0  0  0  0  0  0
    1.0092    2.3300   -2.1030 H   0  0  0  0  0  0  0  0  0  0  0  0
    1.7165    2.2167   -0.0968 C   0  0  0  0  0  0  0  0  0  0  0  0
    0.9469    2.9386    0.5106 O   0  0  0  0  0  0  0  0  0  0  0  0
    2.9625    2.0635    0.4366 N   0  0  0  0  0  0  0  0  0  0  0  0
    3.0307    2.3902    1.3954 H   0  0  0  0  0  0  0  0  0  0  0  0
    3.4326    1.1919    0.2088 H   0  0  0  0  0  0  0  0  0  0  0  0
    0.6933   -0.3785    1.1099 C   0  0  0  0  0  0  0  0  0  0  0  0
    1.8737   -0.4838    1.4221 O   0  0  0  0  0  0  0  0  0  0  0  0
   -0.2206    0.0968    2.0320 N   0  0  0  0  0  0  0  0  0  0  0  0
   -1.1602    0.2805    1.6985 H   0  0  0  0  0  0  0  0  0  0  0  0
    0.1606    0.5713    3.3553 C   0  0  0  0  0  0  0  0  0  0  0  0
    0.8239    1.4389    3.2732 H   0  0  0  0  0  0  0  0  0  0  0  0
   -0.7279    0.8663    3.9214 H   0  0  0  0  0  0  0  0  0  0  0  0
    0.6770   -0.2184    3.9111 H   0  0  0  0  0  0  0  0  0  0  0  0
  1  2  1  0  0  0  0
  2  3  1  0  0  0  0
  2  4  1  0  0  0  0
  2  5  1  0  0  0  0
  5  6  2  0  0  0  0
  5  7  1  0  0  0  0
  7  8  1  0  0  0  0
  7  9  1  0  0  0  0
  9 10  1  0  0  0  0
  9 11  1  0  0  0  0
  9 22  1  0  0  0  0
 11 12  1  0  0  0  0
 11 13  1  0  0  0  0
 11 14  1  0  0  0  0
 14 15  1  0  0  0  0
 14 16  1  0  0  0  0
 14 17  1  0  0  0  0
 17 18  2  0  0  0  0
 17 19  1  0  0  0  0
 19 20  1  0  0  0  0
 19 21  1  0  0  0  0
 22 23  2  0  0  0  0
 22 24  1  0  0  0  0
 24 25  1  0  0  0  0
 24 26  1  0  0  0  0
 26 27  1  0  0  0  0
 26 28  1  0  0  0  0
 26 29  1  0  0  0  0
M  END
$$$$

  -OEChem-02102214123D

 29 28  0     1  0  0  0  0  0999 V2000
   -2.5700   -4.2848    0.4795 H   0  0  0  0  0  0  0  0  0  0  0  0
   -2.5704   -3.3034   -0.0036 C   0  0  0  0  0  0  0  0  0  0  0  0
   -3.3111   -2.6701    0.4904 H   0  0  0  0  0  0  0  0  0  0  0  0
   -2.8472   -3.4289   -1.0532 H   0  0  0  0  0  0  0  0  0  0  0  0
   -1.1948   -2.6715    0.0986 C   0  0  0  0  0  0  0  0  0  0  0  0
   -0.2860   -3.2825    0.6308 O   0  0  0  0  0  0  0  0  0  0  0  0
   -0.9759   -1.4161   -0.4374 N   0  0  0  0  0  0  0  0  0  0  0  0
   -1.7710   -0.9598   -0.8739 H   0  0  0  0  0  0  0  0  0  0  0  0
    0.2937   -0.6731   -0.3171 C   0  0  1  0  0  0  0  0  0  0  0  0
    1.0995   -1.2875   -0.7342 H   0  0  0  0  0  0  0  0  0  0  0  0
    0.1186    0.5668   -1.2337 C   0  0  0  0  0  0  0  0  0  0  0  0
   -0.1284    0.2166   -2.2417 H   0  0  0  0  0  0  0  0  0  0  0  0
   -0.7493    1.1210   -0.8596 H   0  0  0  0  0  0  0  0  0  0  0  0
    1.2655    1.5994   -1.3683 C   0  0  0  0  0  0  0  0  0  0  0  0
    2.0348    1.1673   -2.0142 H   0  0  0  0  0  0  0  0  0  0  0  0
    0.8829    2.4895   -1.8761 H   0  0  0  0  0  0  0  0  0  0  0  0
    1.9510    2.0509   -0.0847 C   0  0  0  0  0  0  0  0  0  0  0  0
    1.3633    2.7764    0.6961 O   0  0  0  0  0  0  0  0  0  0  0  0
    3.2316    1.7045    0.2340 N   0  0  0  0  0  0  0  0  0  0  0  0
    3.4535    1.8572    1.2139 H   0  0  0  0  0  0  0  0  0  0  0  0
    3.5866    0.8576   -0.1974 H   0  0  0  0  0  0  0  0  0  0  0  0
    0.6760   -0.3960    1.1572 C   0  0  0  0  0  0  0  0  0  0  0  0
    1.8336   -0.5636    1.5212 O   0  0  0  0  0  0  0  0  0  0  0  0
   -0.2661    0.0616    2.0603 N   0  0  0  0  0  0  0  0  0  0  0  0
   -1.1896    0.2734    1.7003 H   0  0  0  0  0  0  0  0  0  0  0  0
    0.0757    0.4807    3.4131 C   0  0  0  0  0  0  0  0  0  0  0  0
    0.7741    1.3241    3.3856 H   0  0  0  0  0  0  0  0  0  0  0  0
   -0.8243    0.7926    3.9514 H   0  0  0  0  0  0  0  0  0  0  0  0
    0.5390   -0.3445    3.9643 H   0  0  0  0  0  0  0  0  0  0  0  0
  1  2  1  0  0  0  0
  2  3  1  0  0  0  0
  2  4  1  0  0  0  0
  2  5  1  0  0  0  0
  5  6  2  0  0  0  0
  5  7  1  0  0  0  0
  7  8  1  0  0  0  0
  7  9  1  0  0  0  0
  9 10  1  0  0  0  0
  9 11  1  0  0  0  0
  9 22  1  0  0  0  0
 11 12  1  0  0  0  0
 11 13  1  0  0  0  0
 11 14  1  0  0  0  0
 14 15  1  0  0  0  0
 14 16  1  0  0  0  0
 14 17  1  0  0  0  0
 17 18  2  0  0  0  0
 17 19  1  0  0  0  0
 19 20  1  0  0  0  0
 19 21  1  0  0  0  0
 22 23  2  0  0  0  0
 22 24  1  0  0  0  0
 24 25  1  0  0  0  0
 24 26  1  0  0  0  0
 26 27  1  0  0  0  0
 26 28  1  0  0  0  0
 26 29  1  0  0  0  0
M  END
$$$$

  -OEChem-02102214123D

 29 28  0     1  0  0  0  0  0999 V2000
   -2.5207   -4.2881    0.4823 H   0  0  0  0  0  0  0  0  0  0  0  0
   -2.5175   -3.3154   -0.0181 C   0  0  0  0  0  0  0  0  0  0  0  0
   -3.2740   -2.6794    0.4475 H   0  0  0  0  0  0  0  0  0  0  0  0
   -2.7694   -3.4614   -1.0712 H   0  0  0  0  0  0  0  0  0  0  0  0
   -1.1489   -2.6716    0.1045 C   0  0  0  0  0  0  0  0  0  0  0  0
   -0.2443   -3.2738    0.6527 O   0  0  0  0  0  0  0  0  0  0  0  0
   -0.9306   -1.4171   -0.4338 N   0  0  0  0  0  0  0  0  0  0  0  0
   -1.7203   -0.9732   -0.8919 H   0  0  0  0  0  0  0  0  0  0  0  0
    0.3304   -0.6614   -0.2965 C   0  0  1  0  0  0  0  0  0  0  0  0
    1.1515   -1.2615   -0.7043 H   0  0  0  0  0  0  0  0  0  0  0  0
    0.1354    0.5809   -1.2060 C   0  0  0  0  0  0  0  0  0  0  0  0
   -0.1165    0.2340   -2.2140 H   0  0  0  0  0  0  0  0  0  0  0  0
   -0.7407    1.1127   -0.8193 H   0  0  0  0  0  0  0  0  0  0  0  0
    1.2497    1.6500   -1.3491 C   0  0  0  0  0  0  0  0  0  0  0  0
    1.8846    1.3584   -2.1904 H   0  0  0  0  0  0  0  0  0  0  0  0
    0.7882    2.6048   -1.6181 H   0  0  0  0  0  0  0  0  0  0  0  0
    2.1789    1.8911   -0.1670 C   0  0  0  0  0  0  0  0  0  0  0  0
    1.8632    2.6806    0.7029 O   0  0  0  0  0  0  0  0  0  0  0  0
    3.4017    1.2960   -0.0535 N   0  0  0  0  0  0  0  0  0  0  0  0
    3.7753    1.3359    0.8916 H   0  0  0  0  0  0  0  0  0  0  0  0
    3.5368    0.4361   -0.5731 H   0  0  0  0  0  0  0  0  0  0  0  0
    0.6766   -0.3776    1.1869 C   0  0  0  0  0  0  0  0  0  0  0  0
    1.8139   -0.5794    1.5931 O   0  0  0  0  0  0  0  0  0  0  0  0
   -0.2910    0.0731    2.0663 N   0  0  0  0  0  0  0  0  0  0  0  0
   -1.2181    0.2462    1.6960 H   0  0  0  0  0  0  0  0  0  0  0  0
   -0.0042    0.4168    3.4526 C   0  0  0  0  0  0  0  0  0  0  0  0
    0.7458    1.2136    3.5010 H   0  0  0  0  0  0  0  0  0  0  0  0
   -0.9127    0.7658    3.9523 H   0  0  0  0  0  0  0  0  0  0  0  0
    0.3738   -0.4579    3.9923 H   0  0  0  0  0  0  0  0  0  0  0  0
  1  2  1  0  0  0  0
  2  3  1  0  0  0  0
  2  4  1  0  0  0  0
  2  5  1  0  0  0  0
  5  6  2  0  0  0  0
  5  7  1  0  0  0  0
  7  8  1  0  0  0  0
  7  9  1  0  0  0  0
  9 10  1  0  0  0  0
  9 11  1  0  0  0  0
  9 22  1  0  0  0  0
 11 12  1  0  0  0  0
 11 13  1  0  0  0  0
 11 14  1  0  0  0  0
 14 15  1  0  0  0  0
 14 16  1  0  0  0  0
 14 17  1  0  0  0  0
 17 18  2  0  0  0  0
 17 19  1  0  0  0  0
 19 20  1  0  0  0  0
 19 21  1  0  0  0  0
 22 23  2  0  0  0  0
 22 24  1  0  0  0  0
 24 25  1  0  0  0  0
 24 26  1  0  0  0  0
 26 27  1  0  0  0  0
 26 28  1  0  0  0  0
 26 29  1  0  0  0  0
M  END
$$$$

  -OEChem-02102214123D

 29 28  0     1  0  0  0  0  0999 V2000
   -2.5215   -4.2261    0.8816 H   0  0  0  0  0  0  0  0  0  0  0  0
   -2.4967   -3.3233    0.2646 C   0  0  0  0  0  0  0  0  0  0  0  0
   -3.2789   -2.6426    0.6084 H   0  0  0  0  0  0  0  0  0  0  0  0
   -2.6934   -3.6016   -0.7735 H   0  0  0  0  0  0  0  0  0  0  0  0
   -1.1393   -2.6543    0.3746 C   0  0  0  0  0  0  0  0  0  0  0  0
   -0.2634   -3.1691    1.0446 O   0  0  0  0  0  0  0  0  0  0  0  0
   -0.8983   -1.4782   -0.3109 N   0  0  0  0  0  0  0  0  0  0  0  0
   -1.6561   -1.1211   -0.8847 H   0  0  0  0  0  0  0  0  0  0  0  0
    0.3626   -0.7131   -0.2392 C   0  0  1  0  0  0  0  0  0  0  0  0
    1.1916   -1.3548   -0.5570 H   0  0  0  0  0  0  0  0  0  0  0  0
    0.1802    0.4223   -1.2791 C   0  0  0  0  0  0  0  0  0  0  0  0
   -0.0553   -0.0367   -2.2455 H   0  0  0  0  0  0  0  0  0  0  0  0
   -0.7048    0.9893   -0.9702 H   0  0  0  0  0  0  0  0  0  0  0  0
    1.2960    1.4723   -1.5280 C   0  0  0  0  0  0  0  0  0  0  0  0
    1.7672    1.2370   -2.4865 H   0  0  0  0  0  0  0  0  0  0  0  0
    0.8274    2.4548   -1.6422 H   0  0  0  0  0  0  0  0  0  0  0  0
    2.4300    1.6080   -0.5193 C   0  0  0  0  0  0  0  0  0  0  0  0
    2.4827    2.5763    0.2144 O   0  0  0  0  0  0  0  0  0  0  0  0
    3.4866    0.7448   -0.4780 N   0  0  0  0  0  0  0  0  0  0  0  0
    3.3355   -0.1807   -0.8619 H   0  0  0  0  0  0  0  0  0  0  0  0
    4.0215    0.8158    0.3843 H   0  0  0  0  0  0  0  0  0  0  0  0
    0.6712   -0.2458    1.2066 C   0  0  0  0  0  0  0  0  0  0  0  0
    1.7914   -0.4062    1.6717 O   0  0  0  0  0  0  0  0  0  0  0  0
   -0.3178    0.3126    1.9959 N   0  0  0  0  0  0  0  0  0  0  0  0
   -1.2560    0.3494    1.6149 H   0  0  0  0  0  0  0  0  0  0  0  0
   -0.0929    0.7273    3.3748 C   0  0  0  0  0  0  0  0  0  0  0  0
    0.7300    1.4486    3.4277 H   0  0  0  0  0  0  0  0  0  0  0  0
   -0.9921    1.2006    3.7802 H   0  0  0  0  0  0  0  0  0  0  0  0
    0.1563   -0.1377    3.9984 H   0  0  0  0  0  0  0  0  0  0  0  0
  1  2  1  0  0  0  0
  2  3  1  0  0  0  0
  2  4  1  0  0  0  0
  2  5  1  0  0  0  0
  5  6  2  0  0  0  0
  5  7  1  0  0  0  0
  7  8  1  0  0  0  0
  7  9  1  0  0  0  0
  9 10  1  0  0  0  0
  9 11  1  0  0  0  0
  9 22  1  0  0  0  0
 11 12  1  0  0  0  0
 11 13  1  0  0  0  0
 11 14  1  0  0  0  0
 14 15  1  0  0  0  0
 14 16  1  0  0  0  0
 14 17  1  0  0  0  0
 17 18  2  0  0  0  0
 17 19  1  0  0  0  0
 19 20  1  0  0  0  0
 19 21  1  0  0  0  0
 22 23  2  0  0  0  0
 22 24  1  0  0  0  0
 24 25  1  0  0  0  0
 24 26  1  0  0  0  0
 26 27  1  0  0  0  0
 26 28  1  0  0  0  0
 26 29  1  0  0  0  0
M  END
$$$$

  -OEChem-02102214123D

 29 28  0     1  0  0  0  0  0999 V2000
   -2.9128   -4.0198    0.7769 H   0  0  0  0  0  0  0  0  0  0  0  0
   -2.7930   -3.1199    0.1667 C   0  0  0  0  0  0  0  0  0  0  0  0
   -3.5607   -2.3971    0.4527 H   0  0  0  0  0  0  0  0  0  0  0  0
   -2.9268   -3.3891   -0.8838 H   0  0  0  0  0  0  0  0  0  0  0  0
   -1.4131   -2.5260    0.3799 C   0  0  0  0  0  0  0  0  0  0  0  0
   -0.6591   -3.0365    1.1867 O   0  0  0  0  0  0  0  0  0  0  0  0
   -1.0368   -1.4047   -0.3379 N   0  0  0  0  0  0  0  0  0  0  0  0
   -1.6773   -1.1214   -1.0734 H   0  0  0  0  0  0  0  0  0  0  0  0
    0.3319   -0.8428   -0.3651 C   0  0  1  0  0  0  0  0  0  0  0  0
    1.0474   -1.5725   -0.7620 H   0  0  0  0  0  0  0  0  0  0  0  0
    0.2245    0.3830   -1.3089 C   0  0  0  0  0  0  0  0  0  0  0  0
   -0.1441    0.0165   -2.2732 H   0  0  0  0  0  0  0  0  0  0  0  0
   -0.5447    1.0517   -0.9073 H   0  0  0  0  0  0  0  0  0  0  0  0
    1.4745    1.2525   -1.6122 C   0  0  0  0  0  0  0  0  0  0  0  0
    1.6335    1.2600   -2.6948 H   0  0  0  0  0  0  0  0  0  0  0  0
    1.2552    2.2835   -1.3213 H   0  0  0  0  0  0  0  0  0  0  0  0
    2.8018    0.8686   -0.9685 C   0  0  0  0  0  0  0  0  0  0  0  0
    3.5150    0.0362   -1.4944 O   0  0  0  0  0  0  0  0  0  0  0  0
    3.3131    1.5195    0.1166 N   0  0  0  0  0  0  0  0  0  0  0  0
    4.0786    1.0107    0.5513 H   0  0  0  0  0  0  0  0  0  0  0  0
    2.6397    1.9626    0.7309 H   0  0  0  0  0  0  0  0  0  0  0  0
    0.7702   -0.4363    1.0686 C   0  0  0  0  0  0  0  0  0  0  0  0
    1.9012   -0.6482    1.4807 O   0  0  0  0  0  0  0  0  0  0  0  0
   -0.1100    0.2576    1.8811 N   0  0  0  0  0  0  0  0  0  0  0  0
   -1.0806    0.2336    1.5859 H   0  0  0  0  0  0  0  0  0  0  0  0
    0.1731    0.5226    3.2866 C   0  0  0  0  0  0  0  0  0  0  0  0
    1.0902    1.1118    3.3903 H   0  0  0  0  0  0  0  0  0  0  0  0
   -0.6495    1.0847    3.7387 H   0  0  0  0  0  0  0  0  0  0  0  0
    0.2951   -0.4178    3.8347 H   0  0  0  0  0  0  0  0  0  0  0  0
  1  2  1  0  0  0  0
  2  3  1  0  0  0  0
  2  4  1  0  0  0  0
  2  5  1  0  0  0  0
  5  6  2  0  0  0  0
  5  7  1  0  0  0  0
  7  8  1  0  0  0  0
  7  9  1  0  0  0  0
  9 10  1  0  0  0  0
  9 11  1  0  0  0  0
  9 22  1  0  0  0  0
 11 12  1  0  0  0  0
 11 13  1  0  0  0  0
 11 14  1  0  0  0  0
 14 15  1  0  0  0  0
 14 16  1  0  0  0  0
 14 17  1  0  0  0  0
 17 18  2  0  0  0  0
 17 19  1  0  0  0  0
 19 20  1  0  0  0  0
 19 21  1  0  0  0  0
 22 23  2  0  0  0  0
 22 24  1  0  0  0  0
 24 25  1  0  0  0  0
 24 26  1  0  0  0  0
 26 27  1  0  0  0  0
 26 28  1  0  0  0  0
 26 29  1  0  0  0  0
M  END
$$$$

  -OEChem-02102214123D

 29 28  0     1  0  0  0  0  0999 V2000
   -2.8022   -4.1175    0.7593 H   0  0  0  0  0  0  0  0  0  0  0  0
   -2.7213   -3.2147    0.1469 C   0  0  0  0  0  0  0  0  0  0  0  0
   -3.5235   -2.5278    0.4262 H   0  0  0  0  0  0  0  0  0  0  0  0
   -2.8360   -3.4928   -0.9035 H   0  0  0  0  0  0  0  0  0  0  0  0
   -1.3722   -2.5558    0.3656 C   0  0  0  0  0  0  0  0  0  0  0  0
   -0.5949   -3.0316    1.1718 O   0  0  0  0  0  0  0  0  0  0  0  0
   -1.0485   -1.4161   -0.3485 N   0  0  0  0  0  0  0  0  0  0  0  0
   -1.7013   -1.1623   -1.0840 H   0  0  0  0  0  0  0  0  0  0  0  0
    0.2980   -0.8053   -0.3878 C   0  0  1  0  0  0  0  0  0  0  0  0
    1.0288   -1.5091   -0.8033 H   0  0  0  0  0  0  0  0  0  0  0  0
    0.1566    0.4402   -1.2963 C   0  0  0  0  0  0  0  0  0  0  0  0
   -0.1875    0.0794   -2.2715 H   0  0  0  0  0  0  0  0  0  0  0  0
   -0.6321    1.0860   -0.8958 H   0  0  0  0  0  0  0  0  0  0  0  0
    1.4024    1.3235   -1.5675 C   0  0  0  0  0  0  0  0  0  0  0  0
    1.4118    1.6145   -2.6218 H   0  0  0  0  0  0  0  0  0  0  0  0
    1.2993    2.2433   -0.9850 H   0  0  0  0  0  0  0  0  0  0  0  0
    2.7672    0.7294   -1.2285 C   0  0  0  0  0  0  0  0  0  0  0  0
    3.2439   -0.1375   -1.9362 O   0  0  0  0  0  0  0  0  0  0  0  0
    3.5660    1.2098   -0.2327 N   0  0  0  0  0  0  0  0  0  0  0  0
    4.3489    0.5945   -0.0312 H   0  0  0  0  0  0  0  0  0  0  0  0
    3.0776    1.6079    0.5630 H   0  0  0  0  0  0  0  0  0  0  0  0
    0.7459   -0.3916    1.0414 C   0  0  0  0  0  0  0  0  0  0  0  0
    1.9075   -0.4979    1.4082 O   0  0  0  0  0  0  0  0  0  0  0  0
   -0.1469    0.2648    1.8713 N   0  0  0  0  0  0  0  0  0  0  0  0
   -1.1236    0.1820    1.6082 H   0  0  0  0  0  0  0  0  0  0  0  0
    0.1666    0.5874    3.2582 C   0  0  0  0  0  0  0  0  0  0  0  0
    1.0399    1.2457    3.3122 H   0  0  0  0  0  0  0  0  0  0  0  0
   -0.6787    1.0992    3.7279 H   0  0  0  0  0  0  0  0  0  0  0  0
    0.3781   -0.3265    3.8237 H   0  0  0  0  0  0  0  0  0  0  0  0
  1  2  1  0  0  0  0
  2  3  1  0  0  0  0
  2  4  1  0  0  0  0
  2  5  1  0  0  0  0
  5  6  2  0  0  0  0
  5  7  1  0  0  0  0
  7  8  1  0  0  0  0
  7  9  1  0  0  0  0
  9 10  1  0  0  0  0
  9 11  1  0  0  0  0
  9 22  1  0  0  0  0
 11 12  1  0  0  0  0
 11 13  1  0  0  0  0
 11 14  1  0  0  0  0
 14 15  1  0  0  0  0
 14 16  1  0  0  0  0
 14 17  1  0  0  0  0
 17 18  2  0  0  0  0
 17 19  1  0  0  0  0
 19 20  1  0  0  0  0
 19 21  1  0  0  0  0
 22 23  2  0  0  0  0
 22 24  1  0  0  0  0
 24 25  1  0  0  0  0
 24 26  1  0  0  0  0
 26 27  1  0  0  0  0
 26 28  1  0  0  0  0
 26 29  1  0  0  0  0
M  END
$$$$

  -OEChem-02102214123D

 29 28  0     1  0  0  0  0  0999 V2000
   -2.6647   -4.1834    0.7636 H   0  0  0  0  0  0  0  0  0  0  0  0
   -2.6197   -3.2915    0.1318 C   0  0  0  0  0  0  0  0  0  0  0  0
   -3.4485   -2.6308    0.3964 H   0  0  0  0  0  0  0  0  0  0  0  0
   -2.7233   -3.5966   -0.9122 H   0  0  0  0  0  0  0  0  0  0  0  0
   -1.2977   -2.5751    0.3343 C   0  0  0  0  0  0  0  0  0  0  0  0
   -0.4802   -3.0289    1.1138 O   0  0  0  0  0  0  0  0  0  0  0  0
   -1.0386   -1.4108   -0.3659 N   0  0  0  0  0  0  0  0  0  0  0  0
   -1.7150   -1.1716   -1.0851 H   0  0  0  0  0  0  0  0  0  0  0  0
    0.2787   -0.7427   -0.4140 C   0  0  1  0  0  0  0  0  0  0  0  0
    1.0262   -1.4133   -0.8532 H   0  0  0  0  0  0  0  0  0  0  0  0
    0.0922    0.5202   -1.2857 C   0  0  0  0  0  0  0  0  0  0  0  0
   -0.2410    0.1792   -2.2718 H   0  0  0  0  0  0  0  0  0  0  0  0
   -0.7091    1.1385   -0.8675 H   0  0  0  0  0  0  0  0  0  0  0  0
    1.3283    1.4216   -1.5210 C   0  0  0  0  0  0  0  0  0  0  0  0
    1.2100    1.9630   -2.4640 H   0  0  0  0  0  0  0  0  0  0  0  0
    1.3654    2.1683   -0.7229 H   0  0  0  0  0  0  0  0  0  0  0  0
    2.6797    0.7076   -1.5337 C   0  0  0  0  0  0  0  0  0  0  0  0
    2.9997    0.0352   -2.4956 O   0  0  0  0  0  0  0  0  0  0  0  0
    3.6187    0.8356   -0.5546 N   0  0  0  0  0  0  0  0  0  0  0  0
    4.3950    0.1913   -0.6672 H   0  0  0  0  0  0  0  0  0  0  0  0
    3.2369    0.9318    0.3867 H   0  0  0  0  0  0  0  0  0  0  0  0
    0.7386   -0.3304    1.0122 C   0  0  0  0  0  0  0  0  0  0  0  0
    1.9198   -0.3399    1.3309 O   0  0  0  0  0  0  0  0  0  0  0  0
   -0.1628    0.2755    1.8701 N   0  0  0  0  0  0  0  0  0  0  0  0
   -1.1423    0.1461    1.6384 H   0  0  0  0  0  0  0  0  0  0  0  0
    0.1809    0.6544    3.2355 C   0  0  0  0  0  0  0  0  0  0  0  0
    1.0035    1.3772    3.2387 H   0  0  0  0  0  0  0  0  0  0  0  0
   -0.6807    1.1136    3.7292 H   0  0  0  0  0  0  0  0  0  0  0  0
    0.4832   -0.2265    3.8118 H   0  0  0  0  0  0  0  0  0  0  0  0
  1  2  1  0  0  0  0
  2  3  1  0  0  0  0
  2  4  1  0  0  0  0
  2  5  1  0  0  0  0
  5  6  2  0  0  0  0
  5  7  1  0  0  0  0
  7  8  1  0  0  0  0
  7  9  1  0  0  0  0
  9 10  1  0  0  0  0
  9 11  1  0  0  0  0
  9 22  1  0  0  0  0
 11 12  1  0  0  0  0
 11 13  1  0  0  0  0
 11 14  1  0  0  0  0
 14 15  1  0  0  0  0
 14 16  1  0  0  0  0
 14 17  1  0  0  0  0
 17 18  2  0  0  0  0
 17 19  1  0  0  0  0
 19 20  1  0  0  0  0
 19 21  1  0  0  0  0
 22 23  2  0  0  0  0
 22 24  1  0  0  0  0
 24 25  1  0  0  0  0
 24 26  1  0  0  0  0
 26 27  1  0  0  0  0
 26 28  1  0  0  0  0
 26 29  1  0  0  0  0
M  END
$$$$

  -OEChem-02102214123D

 29 28  0     1  0  0  0  0  0999 V2000
   -2.5228   -4.2522    0.7086 H   0  0  0  0  0  0  0  0  0  0  0  0
   -2.5189   -3.3548    0.0833 C   0  0  0  0  0  0  0  0  0  0  0  0
   -3.3725   -2.7313    0.3592 H   0  0  0  0  0  0  0  0  0  0  0  0
   -2.6175   -3.6559   -0.9625 H   0  0  0  0  0  0  0  0  0  0  0  0
   -1.2258   -2.5864    0.2820 C   0  0  0  0  0  0  0  0  0  0  0  0
   -0.3742   -3.0225    1.0349 O   0  0  0  0  0  0  0  0  0  0  0  0
   -1.0292   -1.3921   -0.3868 N   0  0  0  0  0  0  0  0  0  0  0  0
   -1.7284   -1.1557   -1.0850 H   0  0  0  0  0  0  0  0  0  0  0  0
    0.2563   -0.6667   -0.4268 C   0  0  1  0  0  0  0  0  0  0  0  0
    1.0186   -1.3093   -0.8816 H   0  0  0  0  0  0  0  0  0  0  0  0
    0.0347    0.5948   -1.2908 C   0  0  0  0  0  0  0  0  0  0  0  0
   -0.2830    0.2657   -2.2862 H   0  0  0  0  0  0  0  0  0  0  0  0
   -0.7792    1.1911   -0.8651 H   0  0  0  0  0  0  0  0  0  0  0  0
    1.2646    1.5108   -1.4769 C   0  0  0  0  0  0  0  0  0  0  0  0
    1.0650    2.2333   -2.2734 H   0  0  0  0  0  0  0  0  0  0  0  0
    1.4327    2.0792   -0.5575 H   0  0  0  0  0  0  0  0  0  0  0  0
    2.5505    0.7566   -1.8120 C   0  0  0  0  0  0  0  0  0  0  0  0
    2.7039    0.2653   -2.9144 O   0  0  0  0  0  0  0  0  0  0  0  0
    3.5627    0.5599   -0.9209 N   0  0  0  0  0  0  0  0  0  0  0  0
    4.2488   -0.1257   -1.2191 H   0  0  0  0  0  0  0  0  0  0  0  0
    3.2896    0.5634    0.0644 H   0  0  0  0  0  0  0  0  0  0  0  0
    0.7402   -0.2628    0.9917 C   0  0  0  0  0  0  0  0  0  0  0  0
    1.9355   -0.2019    1.2530 O   0  0  0  0  0  0  0  0  0  0  0  0
   -0.1580    0.2882    1.8881 N   0  0  0  0  0  0  0  0  0  0  0  0
   -1.1384    0.1150    1.6906 H   0  0  0  0  0  0  0  0  0  0  0  0
    0.2183    0.6806    3.2408 C   0  0  0  0  0  0  0  0  0  0  0  0
    0.9950    1.4520    3.2153 H   0  0  0  0  0  0  0  0  0  0  0  0
   -0.6489    1.0839    3.7722 H   0  0  0  0  0  0  0  0  0  0  0  0
    0.5970   -0.1830    3.7978 H   0  0  0  0  0  0  0  0  0  0  0  0
  1  2  1  0  0  0  0
  2  3  1  0  0  0  0
  2  4  1  0  0  0  0
  2  5  1  0  0  0  0
  5  6  2  0  0  0  0
  5  7  1  0  0  0  0
  7  8  1  0  0  0  0
  7  9  1  0  0  0  0
  9 10  1  0  0  0  0
  9 11  1  0  0  0  0
  9 22  1  0  0  0  0
 11 12  1  0  0  0  0
 11 13  1  0  0  0  0
 11 14  1  0  0  0  0
 14 15  1  0  0  0  0
 14 16  1  0  0  0  0
 14 17  1  0  0  0  0
 17 18  2  0  0  0  0
 17 19  1  0  0  0  0
 19 20  1  0  0  0  0
 19 21  1  0  0  0  0
 22 23  2  0  0  0  0
 22 24  1  0  0  0  0
 24 25  1  0  0  0  0
 24 26  1  0  0  0  0
 26 27  1  0  0  0  0
 26 28  1  0  0  0  0
 26 29  1  0  0  0  0
M  END
$$$$

  -OEChem-02102214123D

 29 28  0     1  0  0  0  0  0999 V2000
   -2.3981   -4.3211    0.6006 H   0  0  0  0  0  0  0  0  0  0  0  0
   -2.4310   -3.4093   -0.0029 C   0  0  0  0  0  0  0  0  0  0  0  0
   -3.3121   -2.8303    0.2834 H   0  0  0  0  0  0  0  0  0  0  0  0
   -2.5121   -3.6888   -1.0561 H   0  0  0  0  0  0  0  0  0  0  0  0
   -1.1737   -2.5904    0.2210 C   0  0  0  0  0  0  0  0  0  0  0  0
   -0.2993   -3.0116    0.9565 O   0  0  0  0  0  0  0  0  0  0  0  0
   -1.0319   -1.3663   -0.4053 N   0  0  0  0  0  0  0  0  0  0  0  0
   -1.7444   -1.1318   -1.0907 H   0  0  0  0  0  0  0  0  0  0  0  0
    0.2222   -0.5896   -0.4197 C   0  0  1  0  0  0  0  0  0  0  0  0
    0.9989   -1.2114   -0.8791 H   0  0  0  0  0  0  0  0  0  0  0  0
   -0.0157    0.6527   -1.3057 C   0  0  0  0  0  0  0  0  0  0  0  0
   -0.3051    0.3209   -2.3091 H   0  0  0  0  0  0  0  0  0  0  0  0
   -0.8492    1.2314   -0.8941 H   0  0  0  0  0  0  0  0  0  0  0  0
    1.2043    1.5866   -1.4357 C   0  0  0  0  0  0  0  0  0  0  0  0
    0.9431    2.4313   -2.0792 H   0  0  0  0  0  0  0  0  0  0  0  0
    1.4810    1.9993   -0.4616 H   0  0  0  0  0  0  0  0  0  0  0  0
    2.4071    0.8775   -2.0467 C   0  0  0  0  0  0  0  0  0  0  0  0
    2.4470    0.6180   -3.2347 O   0  0  0  0  0  0  0  0  0  0  0  0
    3.4222    0.3909   -1.2764 N   0  0  0  0  0  0  0  0  0  0  0  0
    4.0327   -0.2791   -1.7325 H   0  0  0  0  0  0  0  0  0  0  0  0
    3.2364    0.2929   -0.2750 H   0  0  0  0  0  0  0  0  0  0  0  0
    0.7338   -0.1944    0.9873 C   0  0  0  0  0  0  0  0  0  0  0  0
    1.9398   -0.1000    1.1892 O   0  0  0  0  0  0  0  0  0  0  0  0
   -0.1472    0.3061    1.9280 N   0  0  0  0  0  0  0  0  0  0  0  0
   -1.1289    0.1058    1.7659 H   0  0  0  0  0  0  0  0  0  0  0  0
    0.2715    0.6966    3.2683 C   0  0  0  0  0  0  0  0  0  0  0  0
    1.0245    1.4903    3.2201 H   0  0  0  0  0  0  0  0  0  0  0  0
   -0.5847    1.0700    3.8380 H   0  0  0  0  0  0  0  0  0  0  0  0
    0.6965   -0.1608    3.8009 H   0  0  0  0  0  0  0  0  0  0  0  0
  1  2  1  0  0  0  0
  2  3  1  0  0  0  0
  2  4  1  0  0  0  0
  2  5  1  0  0  0  0
  5  6  2  0  0  0  0
  5  7  1  0  0  0  0
  7  8  1  0  0  0  0
  7  9  1  0  0  0  0
  9 10  1  0  0  0  0
  9 11  1  0  0  0  0
  9 22  1  0  0  0  0
 11 12  1  0  0  0  0
 11 13  1  0  0  0  0
 11 14  1  0  0  0  0
 14 15  1  0  0  0  0
 14 16  1  0  0  0  0
 14 17  1  0  0  0  0
 17 18  2  0  0  0  0
 17 19  1  0  0  0  0
 19 20  1  0  0  0  0
 19 21  1  0  0  0  0
 22 23  2  0  0  0  0
 22 24  1  0  0  0  0
 24 25  1  0  0  0  0
 24 26  1  0  0  0  0
 26 27  1  0  0  0  0
 26 28  1  0  0  0  0
 26 29  1  0  0  0  0
M  END
$$$$

  -OEChem-02102214123D

 29 28  0     1  0  0  0  0  0999 V2000
   -2.3363   -4.3504    0.5170 H   0  0  0  0  0  0  0  0  0  0  0  0
   -2.3768   -3.4388   -0.0861 C   0  0  0  0  0  0  0  0  0  0  0  0
   -3.2781   -2.8816    0.1805 H   0  0  0  0  0  0  0  0  0  0  0  0
   -2.4270   -3.7181   -1.1414 H   0  0  0  0  0  0  0  0  0  0  0  0
   -1.1445   -2.5906    0.1673 C   0  0  0  0  0  0  0  0  0  0  0  0
   -0.2588   -3.0086    0.8911 O   0  0  0  0  0  0  0  0  0  0  0  0
   -1.0370   -1.3437   -0.4188 N   0  0  0  0  0  0  0  0  0  0  0  0
   -1.7559   -1.1052   -1.0961 H   0  0  0  0  0  0  0  0  0  0  0  0
    0.1932   -0.5313   -0.3998 C   0  0  1  0  0  0  0  0  0  0  0  0
    0.9862   -1.1347   -0.8559 H   0  0  0  0  0  0  0  0  0  0  0  0
   -0.0461    0.6937   -1.3082 C   0  0  0  0  0  0  0  0  0  0  0  0
   -0.3110    0.3581   -2.3173 H   0  0  0  0  0  0  0  0  0  0  0  0
   -0.8986    1.2562   -0.9134 H   0  0  0  0  0  0  0  0  0  0  0  0
    1.1598    1.6503   -1.3917 C   0  0  0  0  0  0  0  0  0  0  0  0
    0.8339    2.5840   -1.8588 H   0  0  0  0  0  0  0  0  0  0  0  0
    1.5496    1.9155   -0.4065 H   0  0  0  0  0  0  0  0  0  0  0  0
    2.2631    1.0677   -2.2601 C   0  0  0  0  0  0  0  0  0  0  0  0
    2.1669    1.0107   -3.4717 O   0  0  0  0  0  0  0  0  0  0  0  0
    3.3259    0.4343   -1.6832 N   0  0  0  0  0  0  0  0  0  0  0  0
    3.8825   -0.1568   -2.2924 H   0  0  0  0  0  0  0  0  0  0  0  0
    3.2743    0.2314   -0.6837 H   0  0  0  0  0  0  0  0  0  0  0  0
    0.7095   -0.1519    1.0067 C   0  0  0  0  0  0  0  0  0  0  0  0
    1.9193   -0.0589    1.1887 O   0  0  0  0  0  0  0  0  0  0  0  0
   -0.1657    0.3047    1.9742 N   0  0  0  0  0  0  0  0  0  0  0  0
   -1.1468    0.0948    1.8200 H   0  0  0  0  0  0  0  0  0  0  0  0
    0.2689    0.6543    3.3206 C   0  0  0  0  0  0  0  0  0  0  0  0
    1.0114    1.4586    3.2884 H   0  0  0  0  0  0  0  0  0  0  0  0
   -0.5827    0.9967    3.9162 H   0  0  0  0  0  0  0  0  0  0  0  0
    0.7134   -0.2155    3.8159 H   0  0  0  0  0  0  0  0  0  0  0  0
  1  2  1  0  0  0  0
  2  3  1  0  0  0  0
  2  4  1  0  0  0  0
  2  5  1  0  0  0  0
  5  6  2  0  0  0  0
  5  7  1  0  0  0  0
  7  8  1  0  0  0  0
  7  9  1  0  0  0  0
  9 10  1  0  0  0  0
  9 11  1  0  0  0  0
  9 22  1  0  0  0  0
 11 12  1  0  0  0  0
 11 13  1  0  0  0  0
 11 14  1  0  0  0  0
 14 15  1  0  0  0  0
 14 16  1  0  0  0  0
 14 17  1  0  0  0  0
 17 18  2  0  0  0  0
 17 19  1  0  0  0  0
 19 20  1  0  0  0  0
 19 21  1  0  0  0  0
 22 23  2  0  0  0  0
 22 24  1  0  0  0  0
 24 25  1  0  0  0  0
 24 26  1  0  0  0  0
 26 27  1  0  0  0  0
 26 28  1  0  0  0  0
 26 29  1  0  0  0  0
M  END
$$$$

  -OEChem-02102214123D

 29 28  0     1  0  0  0  0  0999 V2000
   -2.3772   -4.3265    0.5084 H   0  0  0  0  0  0  0  0  0  0  0  0
   -2.3912   -3.4172   -0.0995 C   0  0  0  0  0  0  0  0  0  0  0  0
   -3.2820   -2.8384    0.1553 H   0  0  0  0  0  0  0  0  0  0  0  0
   -2.4370   -3.7001   -1.1540 H   0  0  0  0  0  0  0  0  0  0  0  0
   -1.1431   -2.5957    0.1628 C   0  0  0  0  0  0  0  0  0  0  0  0
   -0.2661   -3.0391    0.8817 O   0  0  0  0  0  0  0  0  0  0  0  0
   -1.0100   -1.3484   -0.4175 N   0  0  0  0  0  0  0  0  0  0  0  0
   -1.7255   -1.0881   -1.0904 H   0  0  0  0  0  0  0  0  0  0  0  0
    0.2241   -0.5416   -0.3690 C   0  0  1  0  0  0  0  0  0  0  0  0
    1.0334   -1.1294   -0.8163 H   0  0  0  0  0  0  0  0  0  0  0  0
   -0.0170    0.6980   -1.2563 C   0  0  0  0  0  0  0  0  0  0  0  0
   -0.2990    0.3819   -2.2672 H   0  0  0  0  0  0  0  0  0  0  0  0
   -0.8679    1.2488   -0.8412 H   0  0  0  0  0  0  0  0  0  0  0  0
    1.1786    1.6724   -1.3316 C   0  0  0  0  0  0  0  0  0  0  0  0
    0.7968    2.6770   -1.5350 H   0  0  0  0  0  0  0  0  0  0  0  0
    1.7346    1.7355   -0.3949 H   0  0  0  0  0  0  0  0  0  0  0  0
    2.1137    1.3113   -2.4758 C   0  0  0  0  0  0  0  0  0  0  0  0
    1.7781    1.4235   -3.6399 O   0  0  0  0  0  0  0  0  0  0  0  0
    3.3165    0.7126   -2.2355 N   0  0  0  0  0  0  0  0  0  0  0  0
    3.7791    0.2904   -3.0347 H   0  0  0  0  0  0  0  0  0  0  0  0
    3.5188    0.3865   -1.2933 H   0  0  0  0  0  0  0  0  0  0  0  0
    0.6848   -0.1806    1.0633 C   0  0  0  0  0  0  0  0  0  0  0  0
    1.8831   -0.1195    1.3134 O   0  0  0  0  0  0  0  0  0  0  0  0
   -0.2295    0.2689    1.9983 N   0  0  0  0  0  0  0  0  0  0  0  0
   -1.2062    0.0888    1.7899 H   0  0  0  0  0  0  0  0  0  0  0  0
    0.1444    0.5931    3.3694 C   0  0  0  0  0  0  0  0  0  0  0  0
    0.8964    1.3890    3.3841 H   0  0  0  0  0  0  0  0  0  0  0  0
   -0.7305    0.9368    3.9292 H   0  0  0  0  0  0  0  0  0  0  0  0
    0.5550   -0.2888    3.8725 H   0  0  0  0  0  0  0  0  0  0  0  0
  1  2  1  0  0  0  0
  2  3  1  0  0  0  0
  2  4  1  0  0  0  0
  2  5  1  0  0  0  0
  5  6  2  0  0  0  0
  5  7  1  0  0  0  0
  7  8  1  0  0  0  0
  7  9  1  0  0  0  0
  9 10  1  0  0  0  0
  9 11  1  0  0  0  0
  9 22  1  0  0  0  0
 11 12  1  0  0  0  0
 11 13  1  0  0  0  0
 11 14  1  0  0  0  0
 14 15  1  0  0  0  0
 14 16  1  0  0  0  0
 14 17  1  0  0  0  0
 17 18  2  0  0  0  0
 17 19  1  0  0  0  0
 19 20  1  0  0  0  0
 19 21  1  0  0  0  0
 22 23  2  0  0  0  0
 22 24  1  0  0  0  0
 24 25  1  0  0  0  0
 24 26  1  0  0  0  0
 26 27  1  0  0  0  0
 26 28  1  0  0  0  0
 26 29  1  0  0  0  0
M  END
$$$$

  -OEChem-02102214123D

 29 28  0     1  0  0  0  0  0999 V2000
   -2.4204   -4.3164    0.4838 H   0  0  0  0  0  0  0  0  0  0  0  0
   -2.4208   -3.3960   -0.1070 C   0  0  0  0  0  0  0  0  0  0  0  0
   -3.3021   -2.8080    0.1599 H   0  0  0  0  0  0  0  0  0  0  0  0
   -2.4720   -3.6584   -1.1665 H   0  0  0  0  0  0  0  0  0  0  0  0
   -1.1593   -2.5995    0.1682 C   0  0  0  0  0  0  0  0  0  0  0  0
   -0.2986   -3.0609    0.8954 O   0  0  0  0  0  0  0  0  0  0  0  0
   -0.9963   -1.3557   -0.4122 N   0  0  0  0  0  0  0  0  0  0  0  0
   -1.7015   -1.0807   -1.0901 H   0  0  0  0  0  0  0  0  0  0  0  0
    0.2457   -0.5624   -0.3403 C   0  0  1  0  0  0  0  0  0  0  0  0
    1.0621   -1.1480   -0.7775 H   0  0  0  0  0  0  0  0  0  0  0  0
    0.0150    0.6907   -1.2104 C   0  0  0  0  0  0  0  0  0  0  0  0
   -0.2685    0.3823   -2.2230 H   0  0  0  0  0  0  0  0  0  0  0  0
   -0.8369    1.2390   -0.7944 H   0  0  0  0  0  0  0  0  0  0  0  0
    1.2140    1.6665   -1.2727 C   0  0  0  0  0  0  0  0  0  0  0  0
    0.8424    2.6905   -1.1754 H   0  0  0  0  0  0  0  0  0  0  0  0
    1.9222    1.5092   -0.4581 H   0  0  0  0  0  0  0  0  0  0  0  0
    1.9498    1.5750   -2.6030 C   0  0  0  0  0  0  0  0  0  0  0  0
    1.3990    1.8198   -3.6601 O   0  0  0  0  0  0  0  0  0  0  0  0
    3.2305    1.1079   -2.6767 N   0  0  0  0  0  0  0  0  0  0  0  0
    3.5782    0.8815   -3.6037 H   0  0  0  0  0  0  0  0  0  0  0  0
    3.6502    0.6888   -1.8517 H   0  0  0  0  0  0  0  0  0  0  0  0
    0.6651   -0.2103    1.1081 C   0  0  0  0  0  0  0  0  0  0  0  0
    1.8520   -0.1784    1.4095 O   0  0  0  0  0  0  0  0  0  0  0  0
   -0.2770    0.2462    2.0119 N   0  0  0  0  0  0  0  0  0  0  0  0
   -1.2477    0.0852    1.7639 H   0  0  0  0  0  0  0  0  0  0  0  0
    0.0490    0.5467    3.4002 C   0  0  0  0  0  0  0  0  0  0  0  0
    0.8104    1.3319    3.4543 H   0  0  0  0  0  0  0  0  0  0  0  0
   -0.8417    0.8947    3.9318 H   0  0  0  0  0  0  0  0  0  0  0  0
    0.4286   -0.3480    3.9049 H   0  0  0  0  0  0  0  0  0  0  0  0
  1  2  1  0  0  0  0
  2  3  1  0  0  0  0
  2  4  1  0  0  0  0
  2  5  1  0  0  0  0
  5  6  2  0  0  0  0
  5  7  1  0  0  0  0
  7  8  1  0  0  0  0
  7  9  1  0  0  0  0
  9 10  1  0  0  0  0
  9 11  1  0  0  0  0
  9 22  1  0  0  0  0
 11 12  1  0  0  0  0
 11 13  1  0  0  0  0
 11 14  1  0  0  0  0
 14 15  1  0  0  0  0
 14 16  1  0  0  0  0
 14 17  1  0  0  0  0
 17 18  2  0  0  0  0
 17 19  1  0  0  0  0
 19 20  1  0  0  0  0
 19 21  1  0  0  0  0
 22 23  2  0  0  0  0
 22 24  1  0  0  0  0
 24 25  1  0  0  0  0
 24 26  1  0  0  0  0
 26 27  1  0  0  0  0
 26 28  1  0  0  0  0
 26 29  1  0  0  0  0
M  END
$$$$

  -OEChem-02102214123D

 29 28  0     1  0  0  0  0  0999 V2000
   -2.4829   -4.3203    0.4606 H   0  0  0  0  0  0  0  0  0  0  0  0
   -2.4852   -3.3792   -0.0970 C   0  0  0  0  0  0  0  0  0  0  0  0
   -3.3518   -2.7902    0.2123 H   0  0  0  0  0  0  0  0  0  0  0  0
   -2.5656   -3.6033   -1.1634 H   0  0  0  0  0  0  0  0  0  0  0  0
   -1.2072   -2.6084    0.1758 C   0  0  0  0  0  0  0  0  0  0  0  0
   -0.3572   -3.0855    0.9053 O   0  0  0  0  0  0  0  0  0  0  0  0
   -1.0178   -1.3689   -0.4055 N   0  0  0  0  0  0  0  0  0  0  0  0
   -1.7189   -1.0764   -1.0804 H   0  0  0  0  0  0  0  0  0  0  0  0
    0.2368   -0.5960   -0.3259 C   0  0  1  0  0  0  0  0  0  0  0  0
    1.0483   -1.1912   -0.7596 H   0  0  0  0  0  0  0  0  0  0  0  0
    0.0316    0.6689   -1.1835 C   0  0  0  0  0  0  0  0  0  0  0  0
   -0.2341    0.3546   -2.1990 H   0  0  0  0  0  0  0  0  0  0  0  0
   -0.8208    1.2327   -0.7903 H   0  0  0  0  0  0  0  0  0  0  0  0
    1.2559    1.6164   -1.2274 C   0  0  0  0  0  0  0  0  0  0  0  0
    0.9786    2.5914   -0.8171 H   0  0  0  0  0  0  0  0  0  0  0  0
    2.0742    1.2301   -0.6167 H   0  0  0  0  0  0  0  0  0  0  0  0
    1.7886    1.8213   -2.6420 C   0  0  0  0  0  0  0  0  0  0  0  0
    1.0561    2.0831   -3.5784 O   0  0  0  0  0  0  0  0  0  0  0  0
    3.1104    1.6553   -2.9411 N   0  0  0  0  0  0  0  0  0  0  0  0
    3.3504    1.6238   -3.9275 H   0  0  0  0  0  0  0  0  0  0  0  0
    3.7252    1.2411   -2.2474 H   0  0  0  0  0  0  0  0  0  0  0  0
    0.6470   -0.2499    1.1273 C   0  0  0  0  0  0  0  0  0  0  0  0
    1.8301   -0.2260    1.4427 O   0  0  0  0  0  0  0  0  0  0  0  0
   -0.2992    0.2220    2.0191 N   0  0  0  0  0  0  0  0  0  0  0  0
   -1.2687    0.0746    1.7587 H   0  0  0  0  0  0  0  0  0  0  0  0
    0.0120    0.5174    3.4119 C   0  0  0  0  0  0  0  0  0  0  0  0
    0.7797    1.2956    3.4774 H   0  0  0  0  0  0  0  0  0  0  0  0
   -0.8827    0.8725    3.9322 H   0  0  0  0  0  0  0  0  0  0  0  0
    0.3766   -0.3815    3.9206 H   0  0  0  0  0  0  0  0  0  0  0  0
  1  2  1  0  0  0  0
  2  3  1  0  0  0  0
  2  4  1  0  0  0  0
  2  5  1  0  0  0  0
  5  6  2  0  0  0  0
  5  7  1  0  0  0  0
  7  8  1  0  0  0  0
  7  9  1  0  0  0  0
  9 10  1  0  0  0  0
  9 11  1  0  0  0  0
  9 22  1  0  0  0  0
 11 12  1  0  0  0  0
 11 13  1  0  0  0  0
 11 14  1  0  0  0  0
 14 15  1  0  0  0  0
 14 16  1  0  0  0  0
 14 17  1  0  0  0  0
 17 18  2  0  0  0  0
 17 19  1  0  0  0  0
 19 20  1  0  0  0  0
 19 21  1  0  0  0  0
 22 23  2  0  0  0  0
 22 24  1  0  0  0  0
 24 25  1  0  0  0  0
 24 26  1  0  0  0  0
 26 27  1  0  0  0  0
 26 28  1  0  0  0  0
 26 29  1  0  0  0  0
M  END
$$$$

  -OEChem-02102214123D

 29 28  0     1  0  0  0  0  0999 V2000
   -2.6027   -4.3031    0.4928 H   0  0  0  0  0  0  0  0  0  0  0  0
   -2.5723   -3.3769   -0.0885 C   0  0  0  0  0  0  0  0  0  0  0  0
   -3.4298   -2.7596    0.1899 H   0  0  0  0  0  0  0  0  0  0  0  0
   -2.6396   -3.6264   -1.1502 H   0  0  0  0  0  0  0  0  0  0  0  0
   -1.2810   -2.6299    0.1877 C   0  0  0  0  0  0  0  0  0  0  0  0
   -0.4434   -3.1200    0.9230 O   0  0  0  0  0  0  0  0  0  0  0  0
   -1.0655   -1.3969   -0.3980 N   0  0  0  0  0  0  0  0  0  0  0  0
   -1.7568   -1.0950   -1.0789 H   0  0  0  0  0  0  0  0  0  0  0  0
    0.2062   -0.6527   -0.3235 C   0  0  1  0  0  0  0  0  0  0  0  0
    1.0004   -1.2682   -0.7608 H   0  0  0  0  0  0  0  0  0  0  0  0
    0.0313    0.6207   -1.1731 C   0  0  0  0  0  0  0  0  0  0  0  0
   -0.2197    0.3025   -2.1910 H   0  0  0  0  0  0  0  0  0  0  0  0
   -0.8130    1.2098   -0.7995 H   0  0  0  0  0  0  0  0  0  0  0  0
    1.2902    1.5210   -1.2027 C   0  0  0  0  0  0  0  0  0  0  0  0
    1.1551    2.3707   -0.5278 H   0  0  0  0  0  0  0  0  0  0  0  0
    2.1565    0.9555   -0.8494 H   0  0  0  0  0  0  0  0  0  0  0  0
    1.6400    2.0345   -2.5972 C   0  0  0  0  0  0  0  0  0  0  0  0
    0.7989    2.2407   -3.4530 O   0  0  0  0  0  0  0  0  0  0  0  0
    2.9324    2.2844   -2.9596 N   0  0  0  0  0  0  0  0  0  0  0  0
    3.0992    2.4703   -3.9441 H   0  0  0  0  0  0  0  0  0  0  0  0
    3.6858    1.9638   -2.3596 H   0  0  0  0  0  0  0  0  0  0  0  0
    0.6384   -0.3056    1.1230 C   0  0  0  0  0  0  0  0  0  0  0  0
    1.8270   -0.2747    1.4170 O   0  0  0  0  0  0  0  0  0  0  0  0
   -0.2892    0.1944    2.0191 N   0  0  0  0  0  0  0  0  0  0  0  0
   -1.2644    0.0513    1.7781 H   0  0  0  0  0  0  0  0  0  0  0  0
    0.0494    0.5442    3.3928 C   0  0  0  0  0  0  0  0  0  0  0  0
    0.8160    1.3260    3.4116 H   0  0  0  0  0  0  0  0  0  0  0  0
   -0.8352    0.9177    3.9174 H   0  0  0  0  0  0  0  0  0  0  0  0
    0.4272   -0.3331    3.9285 H   0  0  0  0  0  0  0  0  0  0  0  0
  1  2  1  0  0  0  0
  2  3  1  0  0  0  0
  2  4  1  0  0  0  0
  2  5  1  0  0  0  0
  5  6  2  0  0  0  0
  5  7  1  0  0  0  0
  7  8  1  0  0  0  0
  7  9  1  0  0  0  0
  9 10  1  0  0  0  0
  9 11  1  0  0  0  0
  9 22  1  0  0  0  0
 11 12  1  0  0  0  0
 11 13  1  0  0  0  0
 11 14  1  0  0  0  0
 14 15  1  0  0  0  0
 14 16  1  0  0  0  0
 14 17  1  0  0  0  0
 17 18  2  0  0  0  0
 17 19  1  0  0  0  0
 19 20  1  0  0  0  0
 19 21  1  0  0  0  0
 22 23  2  0  0  0  0
 22 24  1  0  0  0  0
 24 25  1  0  0  0  0
 24 26  1  0  0  0  0
 26 27  1  0  0  0  0
 26 28  1  0  0  0  0
 26 29  1  0  0  0  0
M  END
$$$$

  -OEChem-02102214123D

 29 28  0     1  0  0  0  0  0999 V2000
   -2.6534   -4.3082    0.4850 H   0  0  0  0  0  0  0  0  0  0  0  0
   -2.6286   -3.3654   -0.0691 C   0  0  0  0  0  0  0  0  0  0  0  0
   -3.4729   -2.7489    0.2483 H   0  0  0  0  0  0  0  0  0  0  0  0
   -2.7239   -3.5832   -1.1356 H   0  0  0  0  0  0  0  0  0  0  0  0
   -1.3243   -2.6376    0.1977 C   0  0  0  0  0  0  0  0  0  0  0  0
   -0.4932   -3.1343    0.9361 O   0  0  0  0  0  0  0  0  0  0  0  0
   -1.0918   -1.4110   -0.3944 N   0  0  0  0  0  0  0  0  0  0  0  0
   -1.7822   -1.0987   -1.0716 H   0  0  0  0  0  0  0  0  0  0  0  0
    0.1900   -0.6841   -0.3249 C   0  0  1  0  0  0  0  0  0  0  0  0
    0.9732   -1.3171   -0.7571 H   0  0  0  0  0  0  0  0  0  0  0  0
    0.0419    0.5845   -1.1851 C   0  0  0  0  0  0  0  0  0  0  0  0
   -0.1945    0.2614   -2.2049 H   0  0  0  0  0  0  0  0  0  0  0  0
   -0.7955    1.1947   -0.8299 H   0  0  0  0  0  0  0  0  0  0  0  0
    1.3224    1.4489   -1.2050 C   0  0  0  0  0  0  0  0  0  0  0  0
    1.3183    2.1386   -0.3561 H   0  0  0  0  0  0  0  0  0  0  0  0
    2.1964    0.7993   -1.0999 H   0  0  0  0  0  0  0  0  0  0  0  0
    1.5072    2.2400   -2.4975 C   0  0  0  0  0  0  0  0  0  0  0  0
    0.6146    2.4060   -3.3090 O   0  0  0  0  0  0  0  0  0  0  0  0
    2.7056    2.8163   -2.8060 N   0  0  0  0  0  0  0  0  0  0  0  0
    2.7999    3.1891   -3.7460 H   0  0  0  0  0  0  0  0  0  0  0  0
    3.5272    2.5709   -2.2630 H   0  0  0  0  0  0  0  0  0  0  0  0
    0.6362   -0.3311    1.1148 C   0  0  0  0  0  0  0  0  0  0  0  0
    1.8288   -0.2950    1.3922 O   0  0  0  0  0  0  0  0  0  0  0  0
   -0.2785    0.1892    2.0124 N   0  0  0  0  0  0  0  0  0  0  0  0
   -1.2568    0.0468    1.7838 H   0  0  0  0  0  0  0  0  0  0  0  0
    0.0754    0.5474    3.3799 C   0  0  0  0  0  0  0  0  0  0  0  0
    0.8509    1.3205    3.3860 H   0  0  0  0  0  0  0  0  0  0  0  0
   -0.8006    0.9353    3.9083 H   0  0  0  0  0  0  0  0  0  0  0  0
    0.4476   -0.3294    3.9202 H   0  0  0  0  0  0  0  0  0  0  0  0
  1  2  1  0  0  0  0
  2  3  1  0  0  0  0
  2  4  1  0  0  0  0
  2  5  1  0  0  0  0
  5  6  2  0  0  0  0
  5  7  1  0  0  0  0
  7  8  1  0  0  0  0
  7  9  1  0  0  0  0
  9 10  1  0  0  0  0
  9 11  1  0  0  0  0
  9 22  1  0  0  0  0
 11 12  1  0  0  0  0
 11 13  1  0  0  0  0
 11 14  1  0  0  0  0
 14 15  1  0  0  0  0
 14 16  1  0  0  0  0
 14 17  1  0  0  0  0
 17 18  2  0  0  0  0
 17 19  1  0  0  0  0
 19 20  1  0  0  0  0
 19 21  1  0  0  0  0
 22 23  2  0  0  0  0
 22 24  1  0  0  0  0
 24 25  1  0  0  0  0
 24 26  1  0  0  0  0
 26 27  1  0  0  0  0
 26 28  1  0  0  0  0
 26 29  1  0  0  0  0
M  END
$$$$

  -OEChem-02102214123D

 29 28  0     1  0  0  0  0  0999 V2000
   -2.7092   -4.2900    0.4847 H   0  0  0  0  0  0  0  0  0  0  0  0
   -2.6759   -3.3367   -0.0506 C   0  0  0  0  0  0  0  0  0  0  0  0
   -3.5038   -2.7116    0.2927 H   0  0  0  0  0  0  0  0  0  0  0  0
   -2.7919   -3.5308   -1.1197 H   0  0  0  0  0  0  0  0  0  0  0  0
   -1.3545   -2.6384    0.2098 C   0  0  0  0  0  0  0  0  0  0  0  0
   -0.5356   -3.1474    0.9534 O   0  0  0  0  0  0  0  0  0  0  0  0
   -1.0940   -1.4229   -0.3930 N   0  0  0  0  0  0  0  0  0  0  0  0
   -1.7785   -1.0983   -1.0705 H   0  0  0  0  0  0  0  0  0  0  0  0
    0.2014   -0.7209   -0.3246 C   0  0  1  0  0  0  0  0  0  0  0  0
    0.9743   -1.3745   -0.7446 H   0  0  0  0  0  0  0  0  0  0  0  0
    0.0826    0.5369   -1.2042 C   0  0  0  0  0  0  0  0  0  0  0  0
   -0.1535    0.2164   -2.2252 H   0  0  0  0  0  0  0  0  0  0  0  0
   -0.7435    1.1651   -0.8535 H   0  0  0  0  0  0  0  0  0  0  0  0
    1.3758    1.3775   -1.2304 C   0  0  0  0  0  0  0  0  0  0  0  0
    1.5009    1.9017   -0.2788 H   0  0  0  0  0  0  0  0  0  0  0  0
    2.2354    0.7139   -1.3631 H   0  0  0  0  0  0  0  0  0  0  0  0
    1.3937    2.4042   -2.3595 C   0  0  0  0  0  0  0  0  0  0  0  0
    0.4154    2.6601   -3.0384 O   0  0  0  0  0  0  0  0  0  0  0  0
    2.5215    3.1168   -2.6488 N   0  0  0  0  0  0  0  0  0  0  0  0
    2.4080    3.8997   -3.2857 H   0  0  0  0  0  0  0  0  0  0  0  0
    3.3024    3.0890   -2.0010 H   0  0  0  0  0  0  0  0  0  0  0  0
    0.6461   -0.3634    1.1137 C   0  0  0  0  0  0  0  0  0  0  0  0
    1.8378   -0.3434    1.3958 O   0  0  0  0  0  0  0  0  0  0  0  0
   -0.2638    0.1832    2.0006 N   0  0  0  0  0  0  0  0  0  0  0  0
   -1.2434    0.0581    1.7672 H   0  0  0  0  0  0  0  0  0  0  0  0
    0.0887    0.5541    3.3651 C   0  0  0  0  0  0  0  0  0  0  0  0
    0.8856    1.3052    3.3656 H   0  0  0  0  0  0  0  0  0  0  0  0
   -0.7808    0.9754    3.8787 H   0  0  0  0  0  0  0  0  0  0  0  0
    0.4318   -0.3234    3.9234 H   0  0  0  0  0  0  0  0  0  0  0  0
  1  2  1  0  0  0  0
  2  3  1  0  0  0  0
  2  4  1  0  0  0  0
  2  5  1  0  0  0  0
  5  6  2  0  0  0  0
  5  7  1  0  0  0  0
  7  8  1  0  0  0  0
  7  9  1  0  0  0  0
  9 10  1  0  0  0  0
  9 11  1  0  0  0  0
  9 22  1  0  0  0  0
 11 12  1  0  0  0  0
 11 13  1  0  0  0  0
 11 14  1  0  0  0  0
 14 15  1  0  0  0  0
 14 16  1  0  0  0  0
 14 17  1  0  0  0  0
 17 18  2  0  0  0  0
 17 19  1  0  0  0  0
 19 20  1  0  0  0  0
 19 21  1  0  0  0  0
 22 23  2  0  0  0  0
 22 24  1  0  0  0  0
 24 25  1  0  0  0  0
 24 26  1  0  0  0  0
 26 27  1  0  0  0  0
 26 28  1  0  0  0  0
 26 29  1  0  0  0  0
M  END
$$$$

  -OEChem-02102214123D

 29 28  0     1  0  0  0  0  0999 V2000
   -2.7257   -4.2900    0.5084 H   0  0  0  0  0  0  0  0  0  0  0  0
   -2.7008   -3.3329   -0.0206 C   0  0  0  0  0  0  0  0  0  0  0  0
   -3.5169   -2.7067    0.3474 H   0  0  0  0  0  0  0  0  0  0  0  0
   -2.8445   -3.5185   -1.0878 H   0  0  0  0  0  0  0  0  0  0  0  0
   -1.3700   -2.6420    0.2119 C   0  0  0  0  0  0  0  0  0  0  0  0
   -0.5384   -3.1559    0.9381 O   0  0  0  0  0  0  0  0  0  0  0  0
   -1.1121   -1.4296   -0.3986 N   0  0  0  0  0  0  0  0  0  0  0  0
   -1.8135   -1.0905   -1.0509 H   0  0  0  0  0  0  0  0  0  0  0  0
    0.1846   -0.7295   -0.3426 C   0  0  1  0  0  0  0  0  0  0  0  0
    0.9446   -1.3973   -0.7637 H   0  0  0  0  0  0  0  0  0  0  0  0
    0.0771    0.5202   -1.2340 C   0  0  0  0  0  0  0  0  0  0  0  0
   -0.4074    0.2498   -2.1788 H   0  0  0  0  0  0  0  0  0  0  0  0
   -0.5526    1.2698   -0.7417 H   0  0  0  0  0  0  0  0  0  0  0  0
    1.4550    1.1320   -1.5548 C   0  0  0  0  0  0  0  0  0  0  0  0
    1.9605    1.4179   -0.6286 H   0  0  0  0  0  0  0  0  0  0  0  0
    2.0768    0.3887   -2.0613 H   0  0  0  0  0  0  0  0  0  0  0  0
    1.3574    2.3718   -2.4392 C   0  0  0  0  0  0  0  0  0  0  0  0
    0.3018    2.7931   -2.8769 O   0  0  0  0  0  0  0  0  0  0  0  0
    2.4709    3.0824   -2.7829 N   0  0  0  0  0  0  0  0  0  0  0  0
    2.3093    3.9827   -3.2246 H   0  0  0  0  0  0  0  0  0  0  0  0
    3.3399    2.9004   -2.2912 H   0  0  0  0  0  0  0  0  0  0  0  0
    0.6509   -0.3604    1.0854 C   0  0  0  0  0  0  0  0  0  0  0  0
    1.8458   -0.3505    1.3534 O   0  0  0  0  0  0  0  0  0  0  0  0
   -0.2442    0.1961    1.9810 N   0  0  0  0  0  0  0  0  0  0  0  0
   -1.2277    0.0866    1.7561 H   0  0  0  0  0  0  0  0  0  0  0  0
    0.1266    0.5664    3.3409 C   0  0  0  0  0  0  0  0  0  0  0  0
    0.9294    1.3113    3.3309 H   0  0  0  0  0  0  0  0  0  0  0  0
   -0.7337    0.9952    3.8637 H   0  0  0  0  0  0  0  0  0  0  0  0
    0.4688   -0.3134    3.8963 H   0  0  0  0  0  0  0  0  0  0  0  0
  1  2  1  0  0  0  0
  2  3  1  0  0  0  0
  2  4  1  0  0  0  0
  2  5  1  0  0  0  0
  5  6  2  0  0  0  0
  5  7  1  0  0  0  0
  7  8  1  0  0  0  0
  7  9  1  0  0  0  0
  9 10  1  0  0  0  0
  9 11  1  0  0  0  0
  9 22  1  0  0  0  0
 11 12  1  0  0  0  0
 11 13  1  0  0  0  0
 11 14  1  0  0  0  0
 14 15  1  0  0  0  0
 14 16  1  0  0  0  0
 14 17  1  0  0  0  0
 17 18  2  0  0  0  0
 17 19  1  0  0  0  0
 19 20  1  0  0  0  0
 19 21  1  0  0  0  0
 22 23  2  0  0  0  0
 22 24  1  0  0  0  0
 24 25  1  0  0  0  0
 24 26  1  0  0  0  0
 26 27  1  0  0  0  0
 26 28  1  0  0  0  0
 26 29  1  0  0  0  0
M  END
$$$$

  -OEChem-02102214123D

 29 28  0     1  0  0  0  0  0999 V2000
   -2.7651   -4.2507    0.5600 H   0  0  0  0  0  0  0  0  0  0  0  0
   -2.7218   -3.3091    0.0049 C   0  0  0  0  0  0  0  0  0  0  0  0
   -3.5263   -2.6578    0.3545 H   0  0  0  0  0  0  0  0  0  0  0  0
   -2.8676   -3.5210   -1.0571 H   0  0  0  0  0  0  0  0  0  0  0  0
   -1.3785   -2.6375    0.2198 C   0  0  0  0  0  0  0  0  0  0  0  0
   -0.5460   -3.1614    0.9374 O   0  0  0  0  0  0  0  0  0  0  0  0
   -1.1092   -1.4334   -0.4017 N   0  0  0  0  0  0  0  0  0  0  0  0
   -1.8145   -1.0855   -1.0450 H   0  0  0  0  0  0  0  0  0  0  0  0
    0.1954   -0.7470   -0.3576 C   0  0  1  0  0  0  0  0  0  0  0  0
    0.9485   -1.4237   -0.7771 H   0  0  0  0  0  0  0  0  0  0  0  0
    0.0896    0.4942   -1.2625 C   0  0  0  0  0  0  0  0  0  0  0  0
   -0.4139    0.2326   -2.1993 H   0  0  0  0  0  0  0  0  0  0  0  0
   -0.5277    1.2447   -0.7555 H   0  0  0  0  0  0  0  0  0  0  0  0
    1.4648    1.1026   -1.6074 C   0  0  0  0  0  0  0  0  0  0  0  0
    2.0816    1.1691   -0.7082 H   0  0  0  0  0  0  0  0  0  0  0  0
    1.9850    0.4579   -2.3210 H   0  0  0  0  0  0  0  0  0  0  0  0
    1.3560    2.5106   -2.1865 C   0  0  0  0  0  0  0  0  0  0  0  0
    0.3072    2.9795   -2.5909 O   0  0  0  0  0  0  0  0  0  0  0  0
    2.4485    3.3242   -2.2774 N   0  0  0  0  0  0  0  0  0  0  0  0
    2.2655    4.2962   -2.5091 H   0  0  0  0  0  0  0  0  0  0  0  0
    3.2930    3.0674   -1.7765 H   0  0  0  0  0  0  0  0  0  0  0  0
    0.6663   -0.3732    1.0687 C   0  0  0  0  0  0  0  0  0  0  0  0
    1.8599   -0.3875    1.3422 O   0  0  0  0  0  0  0  0  0  0  0  0
   -0.2209    0.1991    1.9625 N   0  0  0  0  0  0  0  0  0  0  0  0
   -1.2061    0.1103    1.7362 H   0  0  0  0  0  0  0  0  0  0  0  0
    0.1565    0.5779    3.3183 C   0  0  0  0  0  0  0  0  0  0  0  0
    0.9612    1.3204    3.2996 H   0  0  0  0  0  0  0  0  0  0  0  0
   -0.6999    1.0129    3.8422 H   0  0  0  0  0  0  0  0  0  0  0  0
    0.4988   -0.2987    3.8785 H   0  0  0  0  0  0  0  0  0  0  0  0
  1  2  1  0  0  0  0
  2  3  1  0  0  0  0
  2  4  1  0  0  0  0
  2  5  1  0  0  0  0
  5  6  2  0  0  0  0
  5  7  1  0  0  0  0
  7  8  1  0  0  0  0
  7  9  1  0  0  0  0
  9 10  1  0  0  0  0
  9 11  1  0  0  0  0
  9 22  1  0  0  0  0
 11 12  1  0  0  0  0
 11 13  1  0  0  0  0
 11 14  1  0  0  0  0
 14 15  1  0  0  0  0
 14 16  1  0  0  0  0
 14 17  1  0  0  0  0
 17 18  2  0  0  0  0
 17 19  1  0  0  0  0
 19 20  1  0  0  0  0
 19 21  1  0  0  0  0
 22 23  2  0  0  0  0
 22 24  1  0  0  0  0
 24 25  1  0  0  0  0
 24 26  1  0  0  0  0
 26 27  1  0  0  0  0
 26 28  1  0  0  0  0
 26 29  1  0  0  0  0
M  END
$$$$

  -OEChem-02102214123D

 29 28  0     1  0  0  0  0  0999 V2000
   -2.7739   -4.2097    0.6460 H   0  0  0  0  0  0  0  0  0  0  0  0
   -2.7289   -3.2871    0.0600 C   0  0  0  0  0  0  0  0  0  0  0  0
   -3.5203   -2.6158    0.4016 H   0  0  0  0  0  0  0  0  0  0  0  0
   -2.8945   -3.5309   -0.9922 H   0  0  0  0  0  0  0  0  0  0  0  0
   -1.3746   -2.6253    0.2325 C   0  0  0  0  0  0  0  0  0  0  0  0
   -0.5312   -3.1466    0.9393 O   0  0  0  0  0  0  0  0  0  0  0  0
   -1.1085   -1.4315   -0.4106 N   0  0  0  0  0  0  0  0  0  0  0  0
   -1.8252   -1.0838   -1.0412 H   0  0  0  0  0  0  0  0  0  0  0  0
    0.2017   -0.7541   -0.3987 C   0  0  1  0  0  0  0  0  0  0  0  0
    0.9440   -1.4392   -0.8236 H   0  0  0  0  0  0  0  0  0  0  0  0
    0.0892    0.4835   -1.3091 C   0  0  0  0  0  0  0  0  0  0  0  0
   -0.4404    0.2286   -2.2331 H   0  0  0  0  0  0  0  0  0  0  0  0
   -0.5116    1.2369   -0.7865 H   0  0  0  0  0  0  0  0  0  0  0  0
    1.4622    1.0811   -1.6885 C   0  0  0  0  0  0  0  0  0  0  0  0
    2.1887    0.9049   -0.8926 H   0  0  0  0  0  0  0  0  0  0  0  0
    1.8417    0.5914   -2.5893 H   0  0  0  0  0  0  0  0  0  0  0  0
    1.3986    2.5871   -1.9230 C   0  0  0  0  0  0  0  0  0  0  0  0
    0.4052    3.1378   -2.3616 O   0  0  0  0  0  0  0  0  0  0  0  0
    2.4520    3.4004   -1.6191 N   0  0  0  0  0  0  0  0  0  0  0  0
    2.2611    4.3980   -1.6237 H   0  0  0  0  0  0  0  0  0  0  0  0
    3.2058    3.0274   -1.0505 H   0  0  0  0  0  0  0  0  0  0  0  0
    0.6917   -0.3686    1.0191 C   0  0  0  0  0  0  0  0  0  0  0  0
    1.8876   -0.3849    1.2826 O   0  0  0  0  0  0  0  0  0  0  0  0
   -0.1839    0.2184    1.9147 N   0  0  0  0  0  0  0  0  0  0  0  0
   -1.1714    0.1261    1.7000 H   0  0  0  0  0  0  0  0  0  0  0  0
    0.2058    0.5999    3.2661 C   0  0  0  0  0  0  0  0  0  0  0  0
    1.0149    1.3372    3.2383 H   0  0  0  0  0  0  0  0  0  0  0  0
   -0.6443    1.0421    3.7941 H   0  0  0  0  0  0  0  0  0  0  0  0
    0.5464   -0.2766    3.8273 H   0  0  0  0  0  0  0  0  0  0  0  0
  1  2  1  0  0  0  0
  2  3  1  0  0  0  0
  2  4  1  0  0  0  0
  2  5  1  0  0  0  0
  5  6  2  0  0  0  0
  5  7  1  0  0  0  0
  7  8  1  0  0  0  0
  7  9  1  0  0  0  0
  9 10  1  0  0  0  0
  9 11  1  0  0  0  0
  9 22  1  0  0  0  0
 11 12  1  0  0  0  0
 11 13  1  0  0  0  0
 11 14  1  0  0  0  0
 14 15  1  0  0  0  0
 14 16  1  0  0  0  0
 14 17  1  0  0  0  0
 17 18  2  0  0  0  0
 17 19  1  0  0  0  0
 19 20  1  0  0  0  0
 19 21  1  0  0  0  0
 22 23  2  0  0  0  0
 22 24  1  0  0  0  0
 24 25  1  0  0  0  0
 24 26  1  0  0  0  0
 26 27  1  0  0  0  0
 26 28  1  0  0  0  0
 26 29  1  0  0  0  0
M  END
$$$$

  -OEChem-02102214123D

 29 28  0     1  0  0  0  0  0999 V2000
   -2.7563   -4.1705    0.7038 H   0  0  0  0  0  0  0  0  0  0  0  0
   -2.7225   -3.2565    0.1039 C   0  0  0  0  0  0  0  0  0  0  0  0
   -3.5099   -2.5815    0.4473 H   0  0  0  0  0  0  0  0  0  0  0  0
   -2.9038   -3.5165   -0.9417 H   0  0  0  0  0  0  0  0  0  0  0  0
   -1.3670   -2.5898    0.2458 C   0  0  0  0  0  0  0  0  0  0  0  0
   -0.5145   -3.0930    0.9548 O   0  0  0  0  0  0  0  0  0  0  0  0
   -1.1105   -1.4088   -0.4244 N   0  0  0  0  0  0  0  0  0  0  0  0
   -1.8315   -1.0854   -1.0632 H   0  0  0  0  0  0  0  0  0  0  0  0
    0.2090   -0.7510   -0.4716 C   0  0  1  0  0  0  0  0  0  0  0  0
    0.9239   -1.4483   -0.9228 H   0  0  0  0  0  0  0  0  0  0  0  0
    0.0846    0.4956   -1.3661 C   0  0  0  0  0  0  0  0  0  0  0  0
   -0.4803    0.2503   -2.2715 H   0  0  0  0  0  0  0  0  0  0  0  0
   -0.4872    1.2604   -0.8275 H   0  0  0  0  0  0  0  0  0  0  0  0
    1.4571    1.0584   -1.7953 C   0  0  0  0  0  0  0  0  0  0  0  0
    2.2711    0.6250   -1.2101 H   0  0  0  0  0  0  0  0  0  0  0  0
    1.6480    0.7995   -2.8405 H   0  0  0  0  0  0  0  0  0  0  0  0
    1.5049    2.5720   -1.6490 C   0  0  0  0  0  0  0  0  0  0  0  0
    0.7693    3.3005   -2.2883 O   0  0  0  0  0  0  0  0  0  0  0  0
    2.2618    3.1618   -0.6780 N   0  0  0  0  0  0  0  0  0  0  0  0
    2.0583    4.1366   -0.4796 H   0  0  0  0  0  0  0  0  0  0  0  0
    2.6754    2.5690    0.0374 H   0  0  0  0  0  0  0  0  0  0  0  0
    0.7592   -0.3533    0.9221 C   0  0  0  0  0  0  0  0  0  0  0  0
    1.9676   -0.3183    1.1201 O   0  0  0  0  0  0  0  0  0  0  0  0
   -0.0766    0.2583    1.8393 N   0  0  0  0  0  0  0  0  0  0  0  0
   -1.0725    0.1391    1.6837 H   0  0  0  0  0  0  0  0  0  0  0  0
    0.3771    0.7029    3.1514 C   0  0  0  0  0  0  0  0  0  0  0  0
    1.1466    1.4753    3.0496 H   0  0  0  0  0  0  0  0  0  0  0  0
   -0.4590    1.1231    3.7184 H   0  0  0  0  0  0  0  0  0  0  0  0
    0.7933   -0.1371    3.7177 H   0  0  0  0  0  0  0  0  0  0  0  0
  1  2  1  0  0  0  0
  2  3  1  0  0  0  0
  2  4  1  0  0  0  0
  2  5  1  0  0  0  0
  5  6  2  0  0  0  0
  5  7  1  0  0  0  0
  7  8  1  0  0  0  0
  7  9  1  0  0  0  0
  9 10  1  0  0  0  0
  9 11  1  0  0  0  0
  9 22  1  0  0  0  0
 11 12  1  0  0  0  0
 11 13  1  0  0  0  0
 11 14  1  0  0  0  0
 14 15  1  0  0  0  0
 14 16  1  0  0  0  0
 14 17  1  0  0  0  0
 17 18  2  0  0  0  0
 17 19  1  0  0  0  0
 19 20  1  0  0  0  0
 19 21  1  0  0  0  0
 22 23  2  0  0  0  0
 22 24  1  0  0  0  0
 24 25  1  0  0  0  0
 24 26  1  0  0  0  0
 26 27  1  0  0  0  0
 26 28  1  0  0  0  0
 26 29  1  0  0  0  0
M  END
$$$$

  -OEChem-02102214123D

 29 28  0     1  0  0  0  0  0999 V2000
   -2.6340   -4.2009    0.7406 H   0  0  0  0  0  0  0  0  0  0  0  0
   -2.6445   -3.2857    0.1416 C   0  0  0  0  0  0  0  0  0  0  0  0
   -3.4300   -2.6276    0.5204 H   0  0  0  0  0  0  0  0  0  0  0  0
   -2.8655   -3.5478   -0.8959 H   0  0  0  0  0  0  0  0  0  0  0  0
   -1.2979   -2.5922    0.2266 C   0  0  0  0  0  0  0  0  0  0  0  0
   -0.4019   -3.0839    0.8886 O   0  0  0  0  0  0  0  0  0  0  0  0
   -1.0976   -1.3965   -0.4368 N   0  0  0  0  0  0  0  0  0  0  0  0
   -1.8526   -1.0784   -1.0378 H   0  0  0  0  0  0  0  0  0  0  0  0
    0.2018   -0.7032   -0.5179 C   0  0  1  0  0  0  0  0  0  0  0  0
    0.9160   -1.3808   -0.9991 H   0  0  0  0  0  0  0  0  0  0  0  0
    0.0403    0.5614   -1.3790 C   0  0  0  0  0  0  0  0  0  0  0  0
   -0.5267    0.3108   -2.2815 H   0  0  0  0  0  0  0  0  0  0  0  0
   -0.5406    1.3141   -0.8332 H   0  0  0  0  0  0  0  0  0  0  0  0
    1.4066    1.1315   -1.8177 C   0  0  0  0  0  0  0  0  0  0  0  0
    2.2389    0.5055   -1.4841 H   0  0  0  0  0  0  0  0  0  0  0  0
    1.4524    1.1607   -2.9101 H   0  0  0  0  0  0  0  0  0  0  0  0
    1.5969    2.5481   -1.3006 C   0  0  0  0  0  0  0  0  0  0  0  0
    1.0359    3.5010   -1.8083 O   0  0  0  0  0  0  0  0  0  0  0  0
    2.2714    2.7642   -0.1340 N   0  0  0  0  0  0  0  0  0  0  0  0
    2.1441    3.6731    0.2984 H   0  0  0  0  0  0  0  0  0  0  0  0
    2.4953    1.9500    0.4407 H   0  0  0  0  0  0  0  0  0  0  0  0
    0.7862   -0.3083    0.8632 C   0  0  0  0  0  0  0  0  0  0  0  0
    1.9970   -0.1762    1.0035 O   0  0  0  0  0  0  0  0  0  0  0  0
   -0.0415    0.2678    1.8099 N   0  0  0  0  0  0  0  0  0  0  0  0
   -1.0357    0.1014    1.6910 H   0  0  0  0  0  0  0  0  0  0  0  0
    0.4363    0.7374    3.1045 C   0  0  0  0  0  0  0  0  0  0  0  0
    1.1470    1.5603    2.9763 H   0  0  0  0  0  0  0  0  0  0  0  0
   -0.4022    1.0978    3.7082 H   0  0  0  0  0  0  0  0  0  0  0  0
    0.9306   -0.0748    3.6480 H   0  0  0  0  0  0  0  0  0  0  0  0
  1  2  1  0  0  0  0
  2  3  1  0  0  0  0
  2  4  1  0  0  0  0
  2  5  1  0  0  0  0
  5  6  2  0  0  0  0
  5  7  1  0  0  0  0
  7  8  1  0  0  0  0
  7  9  1  0  0  0  0
  9 10  1  0  0  0  0
  9 11  1  0  0  0  0
  9 22  1  0  0  0  0
 11 12  1  0  0  0  0
 11 13  1  0  0  0  0
 11 14  1  0  0  0  0
 14 15  1  0  0  0  0
 14 16  1  0  0  0  0
 14 17  1  0  0  0  0
 17 18  2  0  0  0  0
 17 19  1  0  0  0  0
 19 20  1  0  0  0  0
 19 21  1  0  0  0  0
 22 23  2  0  0  0  0
 22 24  1  0  0  0  0
 24 25  1  0  0  0  0
 24 26  1  0  0  0  0
 26 27  1  0  0  0  0
 26 28  1  0  0  0  0
 26 29  1  0  0  0  0
M  END
$$$$

  -OEChem-02102214123D

 29 28  0     1  0  0  0  0  0999 V2000
   -2.5816   -4.2428    0.6761 H   0  0  0  0  0  0  0  0  0  0  0  0
   -2.6072   -3.3083    0.1080 C   0  0  0  0  0  0  0  0  0  0  0  0
   -3.4009   -2.6742    0.5102 H   0  0  0  0  0  0  0  0  0  0  0  0
   -2.8271   -3.5391   -0.9371 H   0  0  0  0  0  0  0  0  0  0  0  0
   -1.2708   -2.5981    0.2122 C   0  0  0  0  0  0  0  0  0  0  0  0
   -0.3702   -3.0905    0.8675 O   0  0  0  0  0  0  0  0  0  0  0  0
   -1.0841   -1.3883   -0.4287 N   0  0  0  0  0  0  0  0  0  0  0  0
   -1.8449   -1.0626   -1.0180 H   0  0  0  0  0  0  0  0  0  0  0  0
    0.2043   -0.6734   -0.4845 C   0  0  1  0  0  0  0  0  0  0  0  0
    0.9316   -1.3418   -0.9593 H   0  0  0  0  0  0  0  0  0  0  0  0
    0.0228    0.5738   -1.3706 C   0  0  0  0  0  0  0  0  0  0  0  0
   -0.5110    0.2768   -2.2793 H   0  0  0  0  0  0  0  0  0  0  0  0
   -0.5996    1.3176   -0.8593 H   0  0  0  0  0  0  0  0  0  0  0  0
    1.3672    1.1959   -1.8034 C   0  0  0  0  0  0  0  0  0  0  0  0
    2.1908    0.4857   -1.6843 H   0  0  0  0  0  0  0  0  0  0  0  0
    1.3176    1.4565   -2.8647 H   0  0  0  0  0  0  0  0  0  0  0  0
    1.6730    2.4734   -1.0300 C   0  0  0  0  0  0  0  0  0  0  0  0
    1.1060    3.5191   -1.2864 O   0  0  0  0  0  0  0  0  0  0  0  0
    2.5024    2.4761    0.0527 N   0  0  0  0  0  0  0  0  0  0  0  0
    2.4480    3.3008    0.6408 H   0  0  0  0  0  0  0  0  0  0  0  0
    2.7028    1.5696    0.4824 H   0  0  0  0  0  0  0  0  0  0  0  0
    0.7820   -0.2861    0.8967 C   0  0  0  0  0  0  0  0  0  0  0  0
    1.9963   -0.2132    1.0494 O   0  0  0  0  0  0  0  0  0  0  0  0
   -0.0438    0.2680    1.8568 N   0  0  0  0  0  0  0  0  0  0  0  0
   -1.0411    0.1358    1.7227 H   0  0  0  0  0  0  0  0  0  0  0  0
    0.4352    0.7084    3.1607 C   0  0  0  0  0  0  0  0  0  0  0  0
    1.1631    1.5186    3.0485 H   0  0  0  0  0  0  0  0  0  0  0  0
   -0.3995    1.0768    3.7647 H   0  0  0  0  0  0  0  0  0  0  0  0
    0.9099   -0.1219    3.6942 H   0  0  0  0  0  0  0  0  0  0  0  0
  1  2  1  0  0  0  0
  2  3  1  0  0  0  0
  2  4  1  0  0  0  0
  2  5  1  0  0  0  0
  5  6  2  0  0  0  0
  5  7  1  0  0  0  0
  7  8  1  0  0  0  0
  7  9  1  0  0  0  0
  9 10  1  0  0  0  0
  9 11  1  0  0  0  0
  9 22  1  0  0  0  0
 11 12  1  0  0  0  0
 11 13  1  0  0  0  0
 11 14  1  0  0  0  0
 14 15  1  0  0  0  0
 14 16  1  0  0  0  0
 14 17  1  0  0  0  0
 17 18  2  0  0  0  0
 17 19  1  0  0  0  0
 19 20  1  0  0  0  0
 19 21  1  0  0  0  0
 22 23  2  0  0  0  0
 22 24  1  0  0  0  0
 24 25  1  0  0  0  0
 24 26  1  0  0  0  0
 26 27  1  0  0  0  0
 26 28  1  0  0  0  0
 26 29  1  0  0  0  0
M  END
$$$$

  -OEChem-02102214123D

 29 28  0     1  0  0  0  0  0999 V2000
   -2.5624   -4.2726    0.5971 H   0  0  0  0  0  0  0  0  0  0  0  0
   -2.5933   -3.3145    0.0700 C   0  0  0  0  0  0  0  0  0  0  0  0
   -3.3843   -2.6994    0.5057 H   0  0  0  0  0  0  0  0  0  0  0  0
   -2.8218   -3.5006   -0.9822 H   0  0  0  0  0  0  0  0  0  0  0  0
   -1.2564   -2.6080    0.1939 C   0  0  0  0  0  0  0  0  0  0  0  0
   -0.3573   -3.1187    0.8367 O   0  0  0  0  0  0  0  0  0  0  0  0
   -1.0651   -1.3871   -0.4245 N   0  0  0  0  0  0  0  0  0  0  0  0
   -1.8278   -1.0417   -0.9998 H   0  0  0  0  0  0  0  0  0  0  0  0
    0.2170   -0.6583   -0.4395 C   0  0  1  0  0  0  0  0  0  0  0  0
    0.9635   -1.3180   -0.8965 H   0  0  0  0  0  0  0  0  0  0  0  0
    0.0306    0.5680   -1.3572 C   0  0  0  0  0  0  0  0  0  0  0  0
   -0.4697    0.2336   -2.2720 H   0  0  0  0  0  0  0  0  0  0  0  0
   -0.6271    1.3016   -0.8770 H   0  0  0  0  0  0  0  0  0  0  0  0
    1.3495    1.2454   -1.7825 C   0  0  0  0  0  0  0  0  0  0  0  0
    2.1464    0.5029   -1.8841 H   0  0  0  0  0  0  0  0  0  0  0  0
    1.2111    1.7094   -2.7632 H   0  0  0  0  0  0  0  0  0  0  0  0
    1.7905    2.3434   -0.8175 C   0  0  0  0  0  0  0  0  0  0  0  0
    1.2108    3.4129   -0.7864 O   0  0  0  0  0  0  0  0  0  0  0  0
    2.8106    2.1872    0.0728 N   0  0  0  0  0  0  0  0  0  0  0  0
    2.8630    2.9170    0.7755 H   0  0  0  0  0  0  0  0  0  0  0  0
    3.0018    1.2266    0.3655 H   0  0  0  0  0  0  0  0  0  0  0  0
    0.7616   -0.2829    0.9565 C   0  0  0  0  0  0  0  0  0  0  0  0
    1.9708   -0.3042    1.1570 O   0  0  0  0  0  0  0  0  0  0  0  0
   -0.0761    0.2534    1.9160 N   0  0  0  0  0  0  0  0  0  0  0  0
   -1.0733    0.1994    1.7363 H   0  0  0  0  0  0  0  0  0  0  0  0
    0.3822    0.6548    3.2395 C   0  0  0  0  0  0  0  0  0  0  0  0
    1.0927    1.4845    3.1629 H   0  0  0  0  0  0  0  0  0  0  0  0
   -0.4649    0.9813    3.8503 H   0  0  0  0  0  0  0  0  0  0  0  0
    0.8715   -0.1839    3.7463 H   0  0  0  0  0  0  0  0  0  0  0  0
  1  2  1  0  0  0  0
  2  3  1  0  0  0  0
  2  4  1  0  0  0  0
  2  5  1  0  0  0  0
  5  6  2  0  0  0  0
  5  7  1  0  0  0  0
  7  8  1  0  0  0  0
  7  9  1  0  0  0  0
  9 10  1  0  0  0  0
  9 11  1  0  0  0  0
  9 22  1  0  0  0  0
 11 12  1  0  0  0  0
 11 13  1  0  0  0  0
 11 14  1  0  0  0  0
 14 15  1  0  0  0  0
 14 16  1  0  0  0  0
 14 17  1  0  0  0  0
 17 18  2  0  0  0  0
 17 19  1  0  0  0  0
 19 20  1  0  0  0  0
 19 21  1  0  0  0  0
 22 23  2  0  0  0  0
 22 24  1  0  0  0  0
 24 25  1  0  0  0  0
 24 26  1  0  0  0  0
 26 27  1  0  0  0  0
 26 28  1  0  0  0  0
 26 29  1  0  0  0  0
M  END
$$$$

  -OEChem-02102214123D

 29 28  0     1  0  0  0  0  0999 V2000
   -2.5485   -4.2858    0.5528 H   0  0  0  0  0  0  0  0  0  0  0  0
   -2.5760   -3.3183    0.0432 C   0  0  0  0  0  0  0  0  0  0  0  0
   -3.3469   -2.6988    0.5076 H   0  0  0  0  0  0  0  0  0  0  0  0
   -2.8309   -3.4820   -1.0067 H   0  0  0  0  0  0  0  0  0  0  0  0
   -1.2257   -2.6346    0.1497 C   0  0  0  0  0  0  0  0  0  0  0  0
   -0.3158   -3.1788    0.7483 O   0  0  0  0  0  0  0  0  0  0  0  0
   -1.0348   -1.3987   -0.4384 N   0  0  0  0  0  0  0  0  0  0  0  0
   -1.8168   -1.0117   -0.9582 H   0  0  0  0  0  0  0  0  0  0  0  0
    0.2375   -0.6531   -0.4101 C   0  0  1  0  0  0  0  0  0  0  0  0
    1.0055   -1.2929   -0.8594 H   0  0  0  0  0  0  0  0  0  0  0  0
    0.0412    0.5736   -1.3287 C   0  0  0  0  0  0  0  0  0  0  0  0
   -0.4428    0.2353   -2.2510 H   0  0  0  0  0  0  0  0  0  0  0  0
   -0.6374    1.2862   -0.8460 H   0  0  0  0  0  0  0  0  0  0  0  0
    1.3333    1.3082   -1.7418 C   0  0  0  0  0  0  0  0  0  0  0  0
    2.0773    0.5819   -2.0805 H   0  0  0  0  0  0  0  0  0  0  0  0
    1.1136    1.9678   -2.5859 H   0  0  0  0  0  0  0  0  0  0  0  0
    1.9386    2.1672   -0.6339 C   0  0  0  0  0  0  0  0  0  0  0  0
    1.3737    3.1782   -0.2600 O   0  0  0  0  0  0  0  0  0  0  0  0
    3.1197    1.8747   -0.0198 N   0  0  0  0  0  0  0  0  0  0  0  0
    3.2908    2.4417    0.8046 H   0  0  0  0  0  0  0  0  0  0  0  0
    3.3343    0.8812    0.0517 H   0  0  0  0  0  0  0  0  0  0  0  0
    0.7382   -0.3039    1.0091 C   0  0  0  0  0  0  0  0  0  0  0  0
    1.9339   -0.3908    1.2626 O   0  0  0  0  0  0  0  0  0  0  0  0
   -0.1281    0.1996    1.9607 N   0  0  0  0  0  0  0  0  0  0  0  0
   -1.1142    0.2286    1.7252 H   0  0  0  0  0  0  0  0  0  0  0  0
    0.2960    0.5962    3.2968 C   0  0  0  0  0  0  0  0  0  0  0  0
    1.0217    1.4144    3.2394 H   0  0  0  0  0  0  0  0  0  0  0  0
   -0.5635    0.9372    3.8816 H   0  0  0  0  0  0  0  0  0  0  0  0
    0.7565   -0.2492    3.8188 H   0  0  0  0  0  0  0  0  0  0  0  0
  1  2  1  0  0  0  0
  2  3  1  0  0  0  0
  2  4  1  0  0  0  0
  2  5  1  0  0  0  0
  5  6  2  0  0  0  0
  5  7  1  0  0  0  0
  7  8  1  0  0  0  0
  7  9  1  0  0  0  0
  9 10  1  0  0  0  0
  9 11  1  0  0  0  0
  9 22  1  0  0  0  0
 11 12  1  0  0  0  0
 11 13  1  0  0  0  0
 11 14  1  0  0  0  0
 14 15  1  0  0  0  0
 14 16  1  0  0  0  0
 14 17  1  0  0  0  0
 17 18  2  0  0  0  0
 17 19  1  0  0  0  0
 19 20  1  0  0  0  0
 19 21  1  0  0  0  0
 22 23  2  0  0  0  0
 22 24  1  0  0  0  0
 24 25  1  0  0  0  0
 24 26  1  0  0  0  0
 26 27  1  0  0  0  0
 26 28  1  0  0  0  0
 26 29  1  0  0  0  0
M  END
$$$$

  -OEChem-02102214123D

 29 28  0     1  0  0  0  0  0999 V2000
   -2.5264   -4.2877    0.5362 H   0  0  0  0  0  0  0  0  0  0  0  0
   -2.5517   -3.3171    0.0323 C   0  0  0  0  0  0  0  0  0  0  0  0
   -3.3056   -2.6909    0.5152 H   0  0  0  0  0  0  0  0  0  0  0  0
   -2.8290   -3.4716   -1.0131 H   0  0  0  0  0  0  0  0  0  0  0  0
   -1.1907   -2.6519    0.1158 C   0  0  0  0  0  0  0  0  0  0  0  0
   -0.2689   -3.2256    0.6664 O   0  0  0  0  0  0  0  0  0  0  0  0
   -1.0003   -1.4056   -0.4506 N   0  0  0  0  0  0  0  0  0  0  0  0
   -1.8001   -0.9838   -0.9126 H   0  0  0  0  0  0  0  0  0  0  0  0
    0.2646   -0.6490   -0.3848 C   0  0  1  0  0  0  0  0  0  0  0  0
    1.0529   -1.2687   -0.8268 H   0  0  0  0  0  0  0  0  0  0  0  0
    0.0609    0.5889   -1.2907 C   0  0  0  0  0  0  0  0  0  0  0  0
   -0.4242    0.2654   -2.2176 H   0  0  0  0  0  0  0  0  0  0  0  0
   -0.6233    1.2809   -0.7868 H   0  0  0  0  0  0  0  0  0  0  0  0
    1.3293    1.3721   -1.6945 C   0  0  0  0  0  0  0  0  0  0  0  0
    1.9857    0.7112   -2.2675 H   0  0  0  0  0  0  0  0  0  0  0  0
    1.0438    2.1981   -2.3522 H   0  0  0  0  0  0  0  0  0  0  0  0
    2.1260    1.9543   -0.5320 C   0  0  0  0  0  0  0  0  0  0  0  0
    1.6535    2.8462    0.1477 O   0  0  0  0  0  0  0  0  0  0  0  0
    3.3818    1.5322   -0.2069 N   0  0  0  0  0  0  0  0  0  0  0  0
    3.6727    1.8307    0.7198 H   0  0  0  0  0  0  0  0  0  0  0  0
    3.6178    0.5850   -0.4845 H   0  0  0  0  0  0  0  0  0  0  0  0
    0.7115   -0.3277    1.0614 C   0  0  0  0  0  0  0  0  0  0  0  0
    1.8866   -0.4655    1.3771 O   0  0  0  0  0  0  0  0  0  0  0  0
   -0.1950    0.1465    1.9913 N   0  0  0  0  0  0  0  0  0  0  0  0
   -1.1582    0.2531    1.6943 H   0  0  0  0  0  0  0  0  0  0  0  0
    0.1790    0.5303    3.3459 C   0  0  0  0  0  0  0  0  0  0  0  0
    0.9213    1.3354    3.3234 H   0  0  0  0  0  0  0  0  0  0  0  0
   -0.6987    0.8843    3.8949 H   0  0  0  0  0  0  0  0  0  0  0  0
    0.6019   -0.3254    3.8829 H   0  0  0  0  0  0  0  0  0  0  0  0
  1  2  1  0  0  0  0
  2  3  1  0  0  0  0
  2  4  1  0  0  0  0
  2  5  1  0  0  0  0
  5  6  2  0  0  0  0
  5  7  1  0  0  0  0
  7  8  1  0  0  0  0
  7  9  1  0  0  0  0
  9 10  1  0  0  0  0
  9 11  1  0  0  0  0
  9 22  1  0  0  0  0
 11 12  1  0  0  0  0
 11 13  1  0  0  0  0
 11 14  1  0  0  0  0
 14 15  1  0  0  0  0
 14 16  1  0  0  0  0
 14 17  1  0  0  0  0
 17 18  2  0  0  0  0
 17 19  1  0  0  0  0
 19 20  1  0  0  0  0
 19 21  1  0  0  0  0
 22 23  2  0  0  0  0
 22 24  1  0  0  0  0
 24 25  1  0  0  0  0
 24 26  1  0  0  0  0
 26 27  1  0  0  0  0
 26 28  1  0  0  0  0
 26 29  1  0  0  0  0
M  END
$$$$

  -OEChem-02102214123D

 29 28  0     1  0  0  0  0  0999 V2000
   -2.5006   -4.2767    0.5147 H   0  0  0  0  0  0  0  0  0  0  0  0
   -2.5179   -3.3052    0.0125 C   0  0  0  0  0  0  0  0  0  0  0  0
   -3.2743   -2.6777    0.4896 H   0  0  0  0  0  0  0  0  0  0  0  0
   -2.7853   -3.4563   -1.0361 H   0  0  0  0  0  0  0  0  0  0  0  0
   -1.1559   -2.6444    0.1104 C   0  0  0  0  0  0  0  0  0  0  0  0
   -0.2389   -3.2253    0.6610 O   0  0  0  0  0  0  0  0  0  0  0  0
   -0.9587   -1.3966   -0.4504 N   0  0  0  0  0  0  0  0  0  0  0  0
   -1.7573   -0.9692   -0.9094 H   0  0  0  0  0  0  0  0  0  0  0  0
    0.3019   -0.6346   -0.3601 C   0  0  1  0  0  0  0  0  0  0  0  0
    1.1046   -1.2441   -0.7898 H   0  0  0  0  0  0  0  0  0  0  0  0
    0.0915    0.6038   -1.2665 C   0  0  0  0  0  0  0  0  0  0  0  0
   -0.4008    0.2858   -2.1919 H   0  0  0  0  0  0  0  0  0  0  0  0
   -0.5957    1.2811   -0.7475 H   0  0  0  0  0  0  0  0  0  0  0  0
    1.3338    1.4277   -1.6767 C   0  0  0  0  0  0  0  0  0  0  0  0
    1.8726    0.8741   -2.4506 H   0  0  0  0  0  0  0  0  0  0  0  0
    1.0043    2.3696   -2.1252 H   0  0  0  0  0  0  0  0  0  0  0  0
    2.3283    1.7501   -0.5693 C   0  0  0  0  0  0  0  0  0  0  0  0
    2.0959    2.6537    0.2111 O   0  0  0  0  0  0  0  0  0  0  0  0
    3.5094    1.0841   -0.4160 N   0  0  0  0  0  0  0  0  0  0  0  0
    3.9190    1.2126    0.5059 H   0  0  0  0  0  0  0  0  0  0  0  0
    3.5633    0.1583   -0.8258 H   0  0  0  0  0  0  0  0  0  0  0  0
    0.7060   -0.3210    1.1026 C   0  0  0  0  0  0  0  0  0  0  0  0
    1.8597   -0.5042    1.4685 O   0  0  0  0  0  0  0  0  0  0  0  0
   -0.2297    0.1431    2.0093 N   0  0  0  0  0  0  0  0  0  0  0  0
   -1.1853    0.2438    1.6874 H   0  0  0  0  0  0  0  0  0  0  0  0
    0.0898    0.4469    3.3980 C   0  0  0  0  0  0  0  0  0  0  0  0
    0.8653    1.2186    3.4513 H   0  0  0  0  0  0  0  0  0  0  0  0
   -0.7988    0.8140    3.9200 H   0  0  0  0  0  0  0  0  0  0  0  0
    0.4484   -0.4506    3.9128 H   0  0  0  0  0  0  0  0  0  0  0  0
  1  2  1  0  0  0  0
  2  3  1  0  0  0  0
  2  4  1  0  0  0  0
  2  5  1  0  0  0  0
  5  6  2  0  0  0  0
  5  7  1  0  0  0  0
  7  8  1  0  0  0  0
  7  9  1  0  0  0  0
  9 10  1  0  0  0  0
  9 11  1  0  0  0  0
  9 22  1  0  0  0  0
 11 12  1  0  0  0  0
 11 13  1  0  0  0  0
 11 14  1  0  0  0  0
 14 15  1  0  0  0  0
 14 16  1  0  0  0  0
 14 17  1  0  0  0  0
 17 18  2  0  0  0  0
 17 19  1  0  0  0  0
 19 20  1  0  0  0  0
 19 21  1  0  0  0  0
 22 23  2  0  0  0  0
 22 24  1  0  0  0  0
 24 25  1  0  0  0  0
 24 26  1  0  0  0  0
 26 27  1  0  0  0  0
 26 28  1  0  0  0  0
 26 29  1  0  0  0  0
M  END
$$$$

  -OEChem-02102214123D

 29 28  0     1  0  0  0  0  0999 V2000
   -2.4987   -4.2554    0.5737 H   0  0  0  0  0  0  0  0  0  0  0  0
   -2.5022   -3.2975    0.0455 C   0  0  0  0  0  0  0  0  0  0  0  0
   -3.2651   -2.6546    0.4908 H   0  0  0  0  0  0  0  0  0  0  0  0
   -2.7503   -3.4760   -1.0036 H   0  0  0  0  0  0  0  0  0  0  0  0
   -1.1400   -2.6382    0.1529 C   0  0  0  0  0  0  0  0  0  0  0  0
   -0.2385   -3.2033    0.7438 O   0  0  0  0  0  0  0  0  0  0  0  0
   -0.9261   -1.4069   -0.4382 N   0  0  0  0  0  0  0  0  0  0  0  0
   -1.7094   -0.9972   -0.9377 H   0  0  0  0  0  0  0  0  0  0  0  0
    0.3336   -0.6436   -0.3385 C   0  0  1  0  0  0  0  0  0  0  0  0
    1.1457   -1.2608   -0.7377 H   0  0  0  0  0  0  0  0  0  0  0  0
    0.1382    0.5828   -1.2644 C   0  0  0  0  0  0  0  0  0  0  0  0
   -0.3501    0.2557   -2.1888 H   0  0  0  0  0  0  0  0  0  0  0  0
   -0.5550    1.2631   -0.7575 H   0  0  0  0  0  0  0  0  0  0  0  0
    1.3757    1.4162   -1.6800 C   0  0  0  0  0  0  0  0  0  0  0  0
    1.7717    0.9932   -2.6074 H   0  0  0  0  0  0  0  0  0  0  0  0
    1.0526    2.4363   -1.9091 H   0  0  0  0  0  0  0  0  0  0  0  0
    2.5434    1.4911   -0.7039 C   0  0  0  0  0  0  0  0  0  0  0  0
    2.6616    2.4520    0.0316 O   0  0  0  0  0  0  0  0  0  0  0  0
    3.5429    0.5617   -0.6718 N   0  0  0  0  0  0  0  0  0  0  0  0
    4.0920    0.6011    0.1835 H   0  0  0  0  0  0  0  0  0  0  0  0
    3.3300   -0.3535   -1.0512 H   0  0  0  0  0  0  0  0  0  0  0  0
    0.6963   -0.2915    1.1271 C   0  0  0  0  0  0  0  0  0  0  0  0
    1.8343   -0.4731    1.5370 O   0  0  0  0  0  0  0  0  0  0  0  0
   -0.2663    0.1968    1.9921 N   0  0  0  0  0  0  0  0  0  0  0  0
   -1.2196    0.2426    1.6513 H   0  0  0  0  0  0  0  0  0  0  0  0
    0.0016    0.4926    3.3940 C   0  0  0  0  0  0  0  0  0  0  0  0
    0.8078    1.2287    3.4823 H   0  0  0  0  0  0  0  0  0  0  0  0
   -0.8931    0.9027    3.8721 H   0  0  0  0  0  0  0  0  0  0  0  0
    0.2954   -0.4177    3.9273 H   0  0  0  0  0  0  0  0  0  0  0  0
  1  2  1  0  0  0  0
  2  3  1  0  0  0  0
  2  4  1  0  0  0  0
  2  5  1  0  0  0  0
  5  6  2  0  0  0  0
  5  7  1  0  0  0  0
  7  8  1  0  0  0  0
  7  9  1  0  0  0  0
  9 10  1  0  0  0  0
  9 11  1  0  0  0  0
  9 22  1  0  0  0  0
 11 12  1  0  0  0  0
 11 13  1  0  0  0  0
 11 14  1  0  0  0  0
 14 15  1  0  0  0  0
 14 16  1  0  0  0  0
 14 17  1  0  0  0  0
 17 18  2  0  0  0  0
 17 19  1  0  0  0  0
 19 20  1  0  0  0  0
 19 21  1  0  0  0  0
 22 23  2  0  0  0  0
 22 24  1  0  0  0  0
 24 25  1  0  0  0  0
 24 26  1  0  0  0  0
 26 27  1  0  0  0  0
 26 28  1  0  0  0  0
 26 29  1  0  0  0  0
M  END
$$$$

  -OEChem-02102214123D

 29 28  0     1  0  0  0  0  0999 V2000
   -2.9049   -4.0475    0.7586 H   0  0  0  0  0  0  0  0  0  0  0  0
   -2.7991   -3.1430    0.1526 C   0  0  0  0  0  0  0  0  0  0  0  0
   -3.5733   -2.4303    0.4464 H   0  0  0  0  0  0  0  0  0  0  0  0
   -2.9356   -3.4086   -0.8984 H   0  0  0  0  0  0  0  0  0  0  0  0
   -1.4249   -2.5345    0.3611 C   0  0  0  0  0  0  0  0  0  0  0  0
   -0.6630   -3.0339    1.1675 O   0  0  0  0  0  0  0  0  0  0  0  0
   -1.0628   -1.4086   -0.3565 N   0  0  0  0  0  0  0  0  0  0  0  0
   -1.7089   -1.1314   -1.0892 H   0  0  0  0  0  0  0  0  0  0  0  0
    0.3035   -0.8431   -0.3949 C   0  0  1  0  0  0  0  0  0  0  0  0
    1.0031   -1.5834   -0.8003 H   0  0  0  0  0  0  0  0  0  0  0  0
    0.2153    0.3863   -1.3351 C   0  0  0  0  0  0  0  0  0  0  0  0
   -0.3902    0.1122   -2.2057 H   0  0  0  0  0  0  0  0  0  0  0  0
   -0.3303    1.1745   -0.8051 H   0  0  0  0  0  0  0  0  0  0  0  0
    1.5261    1.0053   -1.8869 C   0  0  0  0  0  0  0  0  0  0  0  0
    1.6098    0.7269   -2.9422 H   0  0  0  0  0  0  0  0  0  0  0  0
    1.4397    2.0948   -1.8564 H   0  0  0  0  0  0  0  0  0  0  0  0
    2.8467    0.6181   -1.2312 C   0  0  0  0  0  0  0  0  0  0  0  0
    3.5193   -0.2831   -1.6937 O   0  0  0  0  0  0  0  0  0  0  0  0
    3.4038    1.3405   -0.2166 N   0  0  0  0  0  0  0  0  0  0  0  0
    4.1556    0.8402    0.2507 H   0  0  0  0  0  0  0  0  0  0  0  0
    2.7602    1.8636    0.3655 H   0  0  0  0  0  0  0  0  0  0  0  0
    0.7725   -0.4363    1.0292 C   0  0  0  0  0  0  0  0  0  0  0  0
    1.9270   -0.5977    1.3959 O   0  0  0  0  0  0  0  0  0  0  0  0
   -0.0923    0.2557    1.8598 N   0  0  0  0  0  0  0  0  0  0  0  0
   -1.0721    0.2062    1.6005 H   0  0  0  0  0  0  0  0  0  0  0  0
    0.2355    0.5586    3.2482 C   0  0  0  0  0  0  0  0  0  0  0  0
    1.1365    1.1782    3.3050 H   0  0  0  0  0  0  0  0  0  0  0  0
   -0.5869    1.1041    3.7210 H   0  0  0  0  0  0  0  0  0  0  0  0
    0.4079   -0.3658    3.8099 H   0  0  0  0  0  0  0  0  0  0  0  0
  1  2  1  0  0  0  0
  2  3  1  0  0  0  0
  2  4  1  0  0  0  0
  2  5  1  0  0  0  0
  5  6  2  0  0  0  0
  5  7  1  0  0  0  0
  7  8  1  0  0  0  0
  7  9  1  0  0  0  0
  9 10  1  0  0  0  0
  9 11  1  0  0  0  0
  9 22  1  0  0  0  0
 11 12  1  0  0  0  0
 11 13  1  0  0  0  0
 11 14  1  0  0  0  0
 14 15  1  0  0  0  0
 14 16  1  0  0  0  0
 14 17  1  0  0  0  0
 17 18  2  0  0  0  0
 17 19  1  0  0  0  0
 19 20  1  0  0  0  0
 19 21  1  0  0  0  0
 22 23  2  0  0  0  0
 22 24  1  0  0  0  0
 24 25  1  0  0  0  0
 24 26  1  0  0  0  0
 26 27  1  0  0  0  0
 26 28  1  0  0  0  0
 26 29  1  0  0  0  0
M  END
$$$$

  -OEChem-02102214123D

 29 28  0     1  0  0  0  0  0999 V2000
   -2.8272   -4.1198    0.7811 H   0  0  0  0  0  0  0  0  0  0  0  0
   -2.7470   -3.2263    0.1551 C   0  0  0  0  0  0  0  0  0  0  0  0
   -3.5518   -2.5372    0.4216 H   0  0  0  0  0  0  0  0  0  0  0  0
   -2.8587   -3.5212   -0.8911 H   0  0  0  0  0  0  0  0  0  0  0  0
   -1.3996   -2.5610    0.3662 C   0  0  0  0  0  0  0  0  0  0  0  0
   -0.6196   -3.0263    1.1763 O   0  0  0  0  0  0  0  0  0  0  0  0
   -1.0800   -1.4246   -0.3550 N   0  0  0  0  0  0  0  0  0  0  0  0
   -1.7351   -1.1755   -1.0901 H   0  0  0  0  0  0  0  0  0  0  0  0
    0.2691   -0.8217   -0.4075 C   0  0  1  0  0  0  0  0  0  0  0  0
    0.9772   -1.5471   -0.8248 H   0  0  0  0  0  0  0  0  0  0  0  0
    0.1578    0.4218   -1.3227 C   0  0  0  0  0  0  0  0  0  0  0  0
   -0.4321    0.1349   -2.1998 H   0  0  0  0  0  0  0  0  0  0  0  0
   -0.4130    1.1950   -0.7970 H   0  0  0  0  0  0  0  0  0  0  0  0
    1.4625    1.0621   -1.8673 C   0  0  0  0  0  0  0  0  0  0  0  0
    1.4144    1.0706   -2.9605 H   0  0  0  0  0  0  0  0  0  0  0  0
    1.4926    2.1068   -1.5454 H   0  0  0  0  0  0  0  0  0  0  0  0
    2.7955    0.4271   -1.4783 C   0  0  0  0  0  0  0  0  0  0  0  0
    3.2433   -0.4955   -2.1322 O   0  0  0  0  0  0  0  0  0  0  0  0
    3.6122    0.9350   -0.5116 N   0  0  0  0  0  0  0  0  0  0  0  0
    4.3795    0.3092   -0.2842 H   0  0  0  0  0  0  0  0  0  0  0  0
    3.1347    1.3739    0.2698 H   0  0  0  0  0  0  0  0  0  0  0  0
    0.7472   -0.4016    1.0095 C   0  0  0  0  0  0  0  0  0  0  0  0
    1.9245   -0.4644    1.3329 O   0  0  0  0  0  0  0  0  0  0  0  0
   -0.1265    0.2660    1.8504 N   0  0  0  0  0  0  0  0  0  0  0  0
   -1.1101    0.1616    1.6234 H   0  0  0  0  0  0  0  0  0  0  0  0
    0.2283    0.6356    3.2153 C   0  0  0  0  0  0  0  0  0  0  0  0
    1.0941    1.3059    3.2204 H   0  0  0  0  0  0  0  0  0  0  0  0
   -0.6079    1.1518    3.6965 H   0  0  0  0  0  0  0  0  0  0  0  0
    0.4705   -0.2573    3.8014 H   0  0  0  0  0  0  0  0  0  0  0  0
  1  2  1  0  0  0  0
  2  3  1  0  0  0  0
  2  4  1  0  0  0  0
  2  5  1  0  0  0  0
  5  6  2  0  0  0  0
  5  7  1  0  0  0  0
  7  8  1  0  0  0  0
  7  9  1  0  0  0  0
  9 10  1  0  0  0  0
  9 11  1  0  0  0  0
  9 22  1  0  0  0  0
 11 12  1  0  0  0  0
 11 13  1  0  0  0  0
 11 14  1  0  0  0  0
 14 15  1  0  0  0  0
 14 16  1  0  0  0  0
 14 17  1  0  0  0  0
 17 18  2  0  0  0  0
 17 19  1  0  0  0  0
 19 20  1  0  0  0  0
 19 21  1  0  0  0  0
 22 23  2  0  0  0  0
 22 24  1  0  0  0  0
 24 25  1  0  0  0  0
 24 26  1  0  0  0  0
 26 27  1  0  0  0  0
 26 28  1  0  0  0  0
 26 29  1  0  0  0  0
M  END
$$$$

  -OEChem-02102214123D

 29 28  0     1  0  0  0  0  0999 V2000
   -2.7193   -4.1836    0.7807 H   0  0  0  0  0  0  0  0  0  0  0  0
   -2.6693   -3.2963    0.1429 C   0  0  0  0  0  0  0  0  0  0  0  0
   -3.4933   -2.6283    0.4046 H   0  0  0  0  0  0  0  0  0  0  0  0
   -2.7768   -3.6078   -0.8990 H   0  0  0  0  0  0  0  0  0  0  0  0
   -1.3422   -2.5875    0.3386 C   0  0  0  0  0  0  0  0  0  0  0  0
   -0.5280   -3.0367    1.1243 O   0  0  0  0  0  0  0  0  0  0  0  0
   -1.0770   -1.4283   -0.3676 N   0  0  0  0  0  0  0  0  0  0  0  0
   -1.7529   -1.1898   -1.0874 H   0  0  0  0  0  0  0  0  0  0  0  0
    0.2481   -0.7770   -0.4284 C   0  0  1  0  0  0  0  0  0  0  0  0
    0.9675   -1.4775   -0.8669 H   0  0  0  0  0  0  0  0  0  0  0  0
    0.0992    0.4844   -1.3102 C   0  0  0  0  0  0  0  0  0  0  0  0
   -0.4708    0.1871   -2.1968 H   0  0  0  0  0  0  0  0  0  0  0  0
   -0.5003    1.2336   -0.7820 H   0  0  0  0  0  0  0  0  0  0  0  0
    1.3912    1.1584   -1.8405 C   0  0  0  0  0  0  0  0  0  0  0  0
    1.2344    1.4655   -2.8789 H   0  0  0  0  0  0  0  0  0  0  0  0
    1.5574    2.0710   -1.2614 H   0  0  0  0  0  0  0  0  0  0  0  0
    2.6867    0.3506   -1.7707 C   0  0  0  0  0  0  0  0  0  0  0  0
    2.9627   -0.4312   -2.6609 O   0  0  0  0  0  0  0  0  0  0  0  0
    3.6344    0.5128   -0.8052 N   0  0  0  0  0  0  0  0  0  0  0  0
    4.3675   -0.1881   -0.8500 H   0  0  0  0  0  0  0  0  0  0  0  0
    3.2658    0.7311    0.1209 H   0  0  0  0  0  0  0  0  0  0  0  0
    0.7444   -0.3589    0.9828 C   0  0  0  0  0  0  0  0  0  0  0  0
    1.9373   -0.3358    1.2541 O   0  0  0  0  0  0  0  0  0  0  0  0
   -0.1319    0.2662    1.8528 N   0  0  0  0  0  0  0  0  0  0  0  0
   -1.1174    0.1203    1.6588 H   0  0  0  0  0  0  0  0  0  0  0  0
    0.2535    0.6818    3.1963 C   0  0  0  0  0  0  0  0  0  0  0  0
    1.0720    1.4081    3.1549 H   0  0  0  0  0  0  0  0  0  0  0  0
   -0.5948    1.1498    3.7049 H   0  0  0  0  0  0  0  0  0  0  0  0
    0.5786   -0.1825    3.7852 H   0  0  0  0  0  0  0  0  0  0  0  0
  1  2  1  0  0  0  0
  2  3  1  0  0  0  0
  2  4  1  0  0  0  0
  2  5  1  0  0  0  0
  5  6  2  0  0  0  0
  5  7  1  0  0  0  0
  7  8  1  0  0  0  0
  7  9  1  0  0  0  0
  9 10  1  0  0  0  0
  9 11  1  0  0  0  0
  9 22  1  0  0  0  0
 11 12  1  0  0  0  0
 11 13  1  0  0  0  0
 11 14  1  0  0  0  0
 14 15  1  0  0  0  0
 14 16  1  0  0  0  0
 14 17  1  0  0  0  0
 17 18  2  0  0  0  0
 17 19  1  0  0  0  0
 19 20  1  0  0  0  0
 19 21  1  0  0  0  0
 22 23  2  0  0  0  0
 22 24  1  0  0  0  0
 24 25  1  0  0  0  0
 24 26  1  0  0  0  0
 26 27  1  0  0  0  0
 26 28  1  0  0  0  0
 26 29  1  0  0  0  0
M  END
$$$$

  -OEChem-02102214123D

 29 28  0     1  0  0  0  0  0999 V2000
   -2.5851   -4.2664    0.7070 H   0  0  0  0  0  0  0  0  0  0  0  0
   -2.5759   -3.3702    0.0798 C   0  0  0  0  0  0  0  0  0  0  0  0
   -3.4313   -2.7455    0.3474 H   0  0  0  0  0  0  0  0  0  0  0  0
   -2.6659   -3.6733   -0.9662 H   0  0  0  0  0  0  0  0  0  0  0  0
   -1.2837   -2.6022    0.2866 C   0  0  0  0  0  0  0  0  0  0  0  0
   -0.4376   -3.0353    1.0476 O   0  0  0  0  0  0  0  0  0  0  0  0
   -1.0803   -1.4111   -0.3854 N   0  0  0  0  0  0  0  0  0  0  0  0
   -1.7747   -1.1794   -1.0899 H   0  0  0  0  0  0  0  0  0  0  0  0
    0.2170   -0.7088   -0.4431 C   0  0  1  0  0  0  0  0  0  0  0  0
    0.9431   -1.3856   -0.9058 H   0  0  0  0  0  0  0  0  0  0  0  0
    0.0315    0.5620   -1.3022 C   0  0  0  0  0  0  0  0  0  0  0  0
   -0.5240    0.2682   -2.1991 H   0  0  0  0  0  0  0  0  0  0  0  0
   -0.5847    1.2900   -0.7637 H   0  0  0  0  0  0  0  0  0  0  0  0
    1.3217    1.2580   -1.7990 C   0  0  0  0  0  0  0  0  0  0  0  0
    1.1067    1.8076   -2.7199 H   0  0  0  0  0  0  0  0  0  0  0  0
    1.6262    1.9929   -1.0485 H   0  0  0  0  0  0  0  0  0  0  0  0
    2.5200    0.3420   -2.0423 C   0  0  0  0  0  0  0  0  0  0  0  0
    2.5988   -0.3031   -3.0707 O   0  0  0  0  0  0  0  0  0  0  0  0
    3.5340    0.1712   -1.1476 N   0  0  0  0  0  0  0  0  0  0  0  0
    4.1469   -0.6087   -1.3628 H   0  0  0  0  0  0  0  0  0  0  0  0
    3.2899    0.3270   -0.1669 H   0  0  0  0  0  0  0  0  0  0  0  0
    0.7515   -0.3039    0.9554 C   0  0  0  0  0  0  0  0  0  0  0  0
    1.9565   -0.2244    1.1606 O   0  0  0  0  0  0  0  0  0  0  0  0
   -0.1090    0.2706    1.8737 N   0  0  0  0  0  0  0  0  0  0  0  0
   -1.0964    0.0900    1.7227 H   0  0  0  0  0  0  0  0  0  0  0  0
    0.3228    0.6950    3.1998 C   0  0  0  0  0  0  0  0  0  0  0  0
    1.1059    1.4568    3.1244 H   0  0  0  0  0  0  0  0  0  0  0  0
   -0.5191    1.1225    3.7527 H   0  0  0  0  0  0  0  0  0  0  0  0
    0.7135   -0.1579    3.7648 H   0  0  0  0  0  0  0  0  0  0  0  0
  1  2  1  0  0  0  0
  2  3  1  0  0  0  0
  2  4  1  0  0  0  0
  2  5  1  0  0  0  0
  5  6  2  0  0  0  0
  5  7  1  0  0  0  0
  7  8  1  0  0  0  0
  7  9  1  0  0  0  0
  9 10  1  0  0  0  0
  9 11  1  0  0  0  0
  9 22  1  0  0  0  0
 11 12  1  0  0  0  0
 11 13  1  0  0  0  0
 11 14  1  0  0  0  0
 14 15  1  0  0  0  0
 14 16  1  0  0  0  0
 14 17  1  0  0  0  0
 17 18  2  0  0  0  0
 17 19  1  0  0  0  0
 19 20  1  0  0  0  0
 19 21  1  0  0  0  0
 22 23  2  0  0  0  0
 22 24  1  0  0  0  0
 24 25  1  0  0  0  0
 24 26  1  0  0  0  0
 26 27  1  0  0  0  0
 26 28  1  0  0  0  0
 26 29  1  0  0  0  0
M  END
$$$$

  -OEChem-02102214123D

 29 28  0     1  0  0  0  0  0999 V2000
   -2.4572   -4.3402    0.5948 H   0  0  0  0  0  0  0  0  0  0  0  0
   -2.4885   -3.4304   -0.0117 C   0  0  0  0  0  0  0  0  0  0  0  0
   -3.3698   -2.8498    0.2714 H   0  0  0  0  0  0  0  0  0  0  0  0
   -2.5679   -3.7128   -1.0644 H   0  0  0  0  0  0  0  0  0  0  0  0
   -1.2309   -2.6119    0.2115 C   0  0  0  0  0  0  0  0  0  0  0  0
   -0.3567   -3.0321    0.9481 O   0  0  0  0  0  0  0  0  0  0  0  0
   -1.0888   -1.3873   -0.4132 N   0  0  0  0  0  0  0  0  0  0  0  0
   -1.7984   -1.1565   -1.1028 H   0  0  0  0  0  0  0  0  0  0  0  0
    0.1775   -0.6325   -0.4492 C   0  0  1  0  0  0  0  0  0  0  0  0
    0.9130   -1.2886   -0.9260 H   0  0  0  0  0  0  0  0  0  0  0  0
   -0.0346    0.6310   -1.3117 C   0  0  0  0  0  0  0  0  0  0  0  0
   -0.5644    0.3349   -2.2236 H   0  0  0  0  0  0  0  0  0  0  0  0
   -0.6724    1.3427   -0.7770 H   0  0  0  0  0  0  0  0  0  0  0  0
    1.2644    1.3413   -1.7518 C   0  0  0  0  0  0  0  0  0  0  0  0
    1.0330    2.0720   -2.5318 H   0  0  0  0  0  0  0  0  0  0  0  0
    1.6763    1.8937   -0.9023 H   0  0  0  0  0  0  0  0  0  0  0  0
    2.3440    0.3978   -2.2721 C   0  0  0  0  0  0  0  0  0  0  0  0
    2.2677   -0.0860   -3.3858 O   0  0  0  0  0  0  0  0  0  0  0  0
    3.3660   -0.0403   -1.4816 N   0  0  0  0  0  0  0  0  0  0  0  0
    3.8687   -0.8469   -1.8372 H   0  0  0  0  0  0  0  0  0  0  0  0
    3.2334    0.0497   -0.4711 H   0  0  0  0  0  0  0  0  0  0  0  0
    0.7493   -0.2410    0.9339 C   0  0  0  0  0  0  0  0  0  0  0  0
    1.9627   -0.1322    1.0751 O   0  0  0  0  0  0  0  0  0  0  0  0
   -0.0881    0.2788    1.9036 N   0  0  0  0  0  0  0  0  0  0  0  0
   -1.0754    0.0706    1.7912 H   0  0  0  0  0  0  0  0  0  0  0  0
    0.3899    0.6893    3.2179 C   0  0  0  0  0  0  0  0  0  0  0  0
    1.1431    1.4786    3.1241 H   0  0  0  0  0  0  0  0  0  0  0  0
   -0.4391    1.0761    3.8179 H   0  0  0  0  0  0  0  0  0  0  0  0
    0.8341   -0.1612    3.7457 H   0  0  0  0  0  0  0  0  0  0  0  0
  1  2  1  0  0  0  0
  2  3  1  0  0  0  0
  2  4  1  0  0  0  0
  2  5  1  0  0  0  0
  5  6  2  0  0  0  0
  5  7  1  0  0  0  0
  7  8  1  0  0  0  0
  7  9  1  0  0  0  0
  9 10  1  0  0  0  0
  9 11  1  0  0  0  0
  9 22  1  0  0  0  0
 11 12  1  0  0  0  0
 11 13  1  0  0  0  0
 11 14  1  0  0  0  0
 14 15  1  0  0  0  0
 14 16  1  0  0  0  0
 14 17  1  0  0  0  0
 17 18  2  0  0  0  0
 17 19  1  0  0  0  0
 19 20  1  0  0  0  0
 19 21  1  0  0  0  0
 22 23  2  0  0  0  0
 22 24  1  0  0  0  0
 24 25  1  0  0  0  0
 24 26  1  0  0  0  0
 26 27  1  0  0  0  0
 26 28  1  0  0  0  0
 26 29  1  0  0  0  0
M  END
$$$$

  -OEChem-02102214123D

 29 28  0     1  0  0  0  0  0999 V2000
   -2.3760   -4.3817    0.4903 H   0  0  0  0  0  0  0  0  0  0  0  0
   -2.4283   -3.4611   -0.0981 C   0  0  0  0  0  0  0  0  0  0  0  0
   -3.3286   -2.9125    0.1880 H   0  0  0  0  0  0  0  0  0  0  0  0
   -2.4896   -3.7242   -1.1570 H   0  0  0  0  0  0  0  0  0  0  0  0
   -1.1976   -2.6105    0.1536 C   0  0  0  0  0  0  0  0  0  0  0  0
   -0.3117   -3.0242    0.8799 O   0  0  0  0  0  0  0  0  0  0  0  0
   -1.0939   -1.3626   -0.4306 N   0  0  0  0  0  0  0  0  0  0  0  0
   -1.8103   -1.1310   -1.1130 H   0  0  0  0  0  0  0  0  0  0  0  0
    0.1478   -0.5688   -0.4394 C   0  0  1  0  0  0  0  0  0  0  0  0
    0.9007   -1.2010   -0.9209 H   0  0  0  0  0  0  0  0  0  0  0  0
   -0.0829    0.6806   -1.3160 C   0  0  0  0  0  0  0  0  0  0  0  0
   -0.5920    0.3829   -2.2394 H   0  0  0  0  0  0  0  0  0  0  0  0
   -0.7384    1.3802   -0.7870 H   0  0  0  0  0  0  0  0  0  0  0  0
    1.2220    1.4034   -1.7045 C   0  0  0  0  0  0  0  0  0  0  0  0
    0.9795    2.2723   -2.3225 H   0  0  0  0  0  0  0  0  0  0  0  0
    1.7309    1.7781   -0.8123 H   0  0  0  0  0  0  0  0  0  0  0  0
    2.1728    0.5139   -2.4918 C   0  0  0  0  0  0  0  0  0  0  0  0
    1.9411    0.1925   -3.6421 O   0  0  0  0  0  0  0  0  0  0  0  0
    3.2336   -0.0861   -1.8767 N   0  0  0  0  0  0  0  0  0  0  0  0
    3.6566   -0.8594   -2.3798 H   0  0  0  0  0  0  0  0  0  0  0  0
    3.2474   -0.0824   -0.8556 H   0  0  0  0  0  0  0  0  0  0  0  0
    0.7308   -0.1896    0.9389 C   0  0  0  0  0  0  0  0  0  0  0  0
    1.9477   -0.0859    1.0560 O   0  0  0  0  0  0  0  0  0  0  0  0
   -0.0960    0.2848    1.9394 N   0  0  0  0  0  0  0  0  0  0  0  0
   -1.0826    0.0683    1.8376 H   0  0  0  0  0  0  0  0  0  0  0  0
    0.4029    0.6563    3.2572 C   0  0  0  0  0  0  0  0  0  0  0  0
    1.1443    1.4581    3.1755 H   0  0  0  0  0  0  0  0  0  0  0  0
   -0.4188    1.0116    3.8862 H   0  0  0  0  0  0  0  0  0  0  0  0
    0.8686   -0.2058    3.7464 H   0  0  0  0  0  0  0  0  0  0  0  0
  1  2  1  0  0  0  0
  2  3  1  0  0  0  0
  2  4  1  0  0  0  0
  2  5  1  0  0  0  0
  5  6  2  0  0  0  0
  5  7  1  0  0  0  0
  7  8  1  0  0  0  0
  7  9  1  0  0  0  0
  9 10  1  0  0  0  0
  9 11  1  0  0  0  0
  9 22  1  0  0  0  0
 11 12  1  0  0  0  0
 11 13  1  0  0  0  0
 11 14  1  0  0  0  0
 14 15  1  0  0  0  0
 14 16  1  0  0  0  0
 14 17  1  0  0  0  0
 17 18  2  0  0  0  0
 17 19  1  0  0  0  0
 19 20  1  0  0  0  0
 19 21  1  0  0  0  0
 22 23  2  0  0  0  0
 22 24  1  0  0  0  0
 24 25  1  0  0  0  0
 24 26  1  0  0  0  0
 26 27  1  0  0  0  0
 26 28  1  0  0  0  0
 26 29  1  0  0  0  0
M  END
$$$$

  -OEChem-02102214123D

 29 28  0     1  0  0  0  0  0999 V2000
   -2.3621   -4.3676    0.4524 H   0  0  0  0  0  0  0  0  0  0  0  0
   -2.4060   -3.4426   -0.1299 C   0  0  0  0  0  0  0  0  0  0  0  0
   -3.3038   -2.8899    0.1568 H   0  0  0  0  0  0  0  0  0  0  0  0
   -2.4656   -3.6978   -1.1907 H   0  0  0  0  0  0  0  0  0  0  0  0
   -1.1702   -2.6026    0.1316 C   0  0  0  0  0  0  0  0  0  0  0  0
   -0.2830   -3.0344    0.8455 O   0  0  0  0  0  0  0  0  0  0  0  0
   -1.0611   -1.3486   -0.4384 N   0  0  0  0  0  0  0  0  0  0  0  0
   -1.7819   -1.0994   -1.1099 H   0  0  0  0  0  0  0  0  0  0  0  0
    0.1736   -0.5432   -0.4200 C   0  0  1  0  0  0  0  0  0  0  0  0
    0.9524   -1.1456   -0.8999 H   0  0  0  0  0  0  0  0  0  0  0  0
   -0.0709    0.7124   -1.2811 C   0  0  0  0  0  0  0  0  0  0  0  0
   -0.5903    0.4360   -2.2057 H   0  0  0  0  0  0  0  0  0  0  0  0
   -0.7246    1.3974   -0.7307 H   0  0  0  0  0  0  0  0  0  0  0  0
    1.2328    1.4487   -1.6449 C   0  0  0  0  0  0  0  0  0  0  0  0
    0.9824    2.4372   -2.0398 H   0  0  0  0  0  0  0  0  0  0  0  0
    1.8616    1.6080   -0.7659 H   0  0  0  0  0  0  0  0  0  0  0  0
    2.0140    0.7087   -2.7210 C   0  0  0  0  0  0  0  0  0  0  0  0
    1.5772    0.5660   -3.8477 O   0  0  0  0  0  0  0  0  0  0  0  0
    3.1636    0.0388   -2.4158 N   0  0  0  0  0  0  0  0  0  0  0  0
    3.4908   -0.6285   -3.1076 H   0  0  0  0  0  0  0  0  0  0  0  0
    3.4027   -0.0859   -1.4343 H   0  0  0  0  0  0  0  0  0  0  0  0
    0.7070   -0.1845    0.9853 C   0  0  0  0  0  0  0  0  0  0  0  0
    1.9168   -0.1013    1.1635 O   0  0  0  0  0  0  0  0  0  0  0  0
   -0.1594    0.2639    1.9648 N   0  0  0  0  0  0  0  0  0  0  0  0
   -1.1422    0.0605    1.8133 H   0  0  0  0  0  0  0  0  0  0  0  0
    0.2848    0.5875    3.3146 C   0  0  0  0  0  0  0  0  0  0  0  0
    1.0222    1.3968    3.2925 H   0  0  0  0  0  0  0  0  0  0  0  0
   -0.5636    0.9122    3.9244 H   0  0  0  0  0  0  0  0  0  0  0  0
    0.7380   -0.2898    3.7883 H   0  0  0  0  0  0  0  0  0  0  0  0
  1  2  1  0  0  0  0
  2  3  1  0  0  0  0
  2  4  1  0  0  0  0
  2  5  1  0  0  0  0
  5  6  2  0  0  0  0
  5  7  1  0  0  0  0
  7  8  1  0  0  0  0
  7  9  1  0  0  0  0
  9 10  1  0  0  0  0
  9 11  1  0  0  0  0
  9 22  1  0  0  0  0
 11 12  1  0  0  0  0
 11 13  1  0  0  0  0
 11 14  1  0  0  0  0
 14 15  1  0  0  0  0
 14 16  1  0  0  0  0
 14 17  1  0  0  0  0
 17 18  2  0  0  0  0
 17 19  1  0  0  0  0
 19 20  1  0  0  0  0
 19 21  1  0  0  0  0
 22 23  2  0  0  0  0
 22 24  1  0  0  0  0
 24 25  1  0  0  0  0
 24 26  1  0  0  0  0
 26 27  1  0  0  0  0
 26 28  1  0  0  0  0
 26 29  1  0  0  0  0
M  END
$$$$

  -OEChem-02102214123D

 29 28  0     1  0  0  0  0  0999 V2000
   -2.3974   -4.3324    0.4801 H   0  0  0  0  0  0  0  0  0  0  0  0
   -2.4136   -3.4217   -0.1256 C   0  0  0  0  0  0  0  0  0  0  0  0
   -3.2980   -2.8385    0.1418 H   0  0  0  0  0  0  0  0  0  0  0  0
   -2.4738   -3.7020   -1.1801 H   0  0  0  0  0  0  0  0  0  0  0  0
   -1.1574   -2.6081    0.1228 C   0  0  0  0  0  0  0  0  0  0  0  0
   -0.2700   -3.0619    0.8225 O   0  0  0  0  0  0  0  0  0  0  0  0
   -1.0304   -1.3534   -0.4422 N   0  0  0  0  0  0  0  0  0  0  0  0
   -1.7549   -1.0815   -1.1009 H   0  0  0  0  0  0  0  0  0  0  0  0
    0.2041   -0.5477   -0.3954 C   0  0  1  0  0  0  0  0  0  0  0  0
    1.0011   -1.1342   -0.8660 H   0  0  0  0  0  0  0  0  0  0  0  0
   -0.0372    0.7179   -1.2414 C   0  0  0  0  0  0  0  0  0  0  0  0
   -0.5627    0.4581   -2.1674 H   0  0  0  0  0  0  0  0  0  0  0  0
   -0.6910    1.3926   -0.6789 H   0  0  0  0  0  0  0  0  0  0  0  0
    1.2667    1.4676   -1.5857 C   0  0  0  0  0  0  0  0  0  0  0  0
    1.0395    2.5295   -1.7164 H   0  0  0  0  0  0  0  0  0  0  0  0
    2.0013    1.3965   -0.7805 H   0  0  0  0  0  0  0  0  0  0  0  0
    1.8734    0.9709   -2.8913 C   0  0  0  0  0  0  0  0  0  0  0  0
    1.2808    1.0592   -3.9506 O   0  0  0  0  0  0  0  0  0  0  0  0
    3.0531    0.2842   -2.9089 N   0  0  0  0  0  0  0  0  0  0  0  0
    3.2789   -0.2046   -3.7699 H   0  0  0  0  0  0  0  0  0  0  0  0
    3.4595   -0.0145   -2.0267 H   0  0  0  0  0  0  0  0  0  0  0  0
    0.6868   -0.2014    1.0331 C   0  0  0  0  0  0  0  0  0  0  0  0
    1.8868   -0.1304    1.2680 O   0  0  0  0  0  0  0  0  0  0  0  0
   -0.2180    0.2380    1.9822 N   0  0  0  0  0  0  0  0  0  0  0  0
   -1.1953    0.0467    1.7868 H   0  0  0  0  0  0  0  0  0  0  0  0
    0.1704    0.5535    3.3508 C   0  0  0  0  0  0  0  0  0  0  0  0
    0.9116    1.3595    3.3632 H   0  0  0  0  0  0  0  0  0  0  0  0
   -0.7015    0.8797    3.9258 H   0  0  0  0  0  0  0  0  0  0  0  0
    0.5997   -0.3281    3.8388 H   0  0  0  0  0  0  0  0  0  0  0  0
  1  2  1  0  0  0  0
  2  3  1  0  0  0  0
  2  4  1  0  0  0  0
  2  5  1  0  0  0  0
  5  6  2  0  0  0  0
  5  7  1  0  0  0  0
  7  8  1  0  0  0  0
  7  9  1  0  0  0  0
  9 10  1  0  0  0  0
  9 11  1  0  0  0  0
  9 22  1  0  0  0  0
 11 12  1  0  0  0  0
 11 13  1  0  0  0  0
 11 14  1  0  0  0  0
 14 15  1  0  0  0  0
 14 16  1  0  0  0  0
 14 17  1  0  0  0  0
 17 18  2  0  0  0  0
 17 19  1  0  0  0  0
 19 20  1  0  0  0  0
 19 21  1  0  0  0  0
 22 23  2  0  0  0  0
 22 24  1  0  0  0  0
 24 25  1  0  0  0  0
 24 26  1  0  0  0  0
 26 27  1  0  0  0  0
 26 28  1  0  0  0  0
 26 29  1  0  0  0  0
M  END
$$$$

  -OEChem-02102214123D

 29 28  0     1  0  0  0  0  0999 V2000
   -2.4232   -4.3556    0.4234 H   0  0  0  0  0  0  0  0  0  0  0  0
   -2.4554   -3.4083   -0.1227 C   0  0  0  0  0  0  0  0  0  0  0  0
   -3.3276   -2.8405    0.2102 H   0  0  0  0  0  0  0  0  0  0  0  0
   -2.5522   -3.6221   -1.1899 H   0  0  0  0  0  0  0  0  0  0  0  0
   -1.1881   -2.6148    0.1346 C   0  0  0  0  0  0  0  0  0  0  0  0
   -0.3129   -3.0825    0.8403 O   0  0  0  0  0  0  0  0  0  0  0  0
   -1.0365   -1.3636   -0.4319 N   0  0  0  0  0  0  0  0  0  0  0  0
   -1.7550   -1.0768   -1.0909 H   0  0  0  0  0  0  0  0  0  0  0  0
    0.2056   -0.5707   -0.3671 C   0  0  1  0  0  0  0  0  0  0  0  0
    1.0054   -1.1624   -0.8262 H   0  0  0  0  0  0  0  0  0  0  0  0
   -0.0125    0.7014   -1.2087 C   0  0  0  0  0  0  0  0  0  0  0  0
   -0.5339    0.4444   -2.1373 H   0  0  0  0  0  0  0  0  0  0  0  0
   -0.6685    1.3805   -0.6536 H   0  0  0  0  0  0  0  0  0  0  0  0
    1.3045    1.4424   -1.5367 C   0  0  0  0  0  0  0  0  0  0  0  0
    1.1555    2.5153   -1.3861 H   0  0  0  0  0  0  0  0  0  0  0  0
    2.1123    1.1360   -0.8684 H   0  0  0  0  0  0  0  0  0  0  0  0
    1.7434    1.2401   -2.9827 C   0  0  0  0  0  0  0  0  0  0  0  0
    1.0042    1.4699   -3.9218 O   0  0  0  0  0  0  0  0  0  0  0  0
    2.9613    0.7060   -3.2914 N   0  0  0  0  0  0  0  0  0  0  0  0
    3.1031    0.4268   -4.2576 H   0  0  0  0  0  0  0  0  0  0  0  0
    3.5291    0.3070   -2.5501 H   0  0  0  0  0  0  0  0  0  0  0  0
    0.6634   -0.2269    1.0710 C   0  0  0  0  0  0  0  0  0  0  0  0
    1.8579   -0.1640    1.3334 O   0  0  0  0  0  0  0  0  0  0  0  0
   -0.2577    0.2234    1.9992 N   0  0  0  0  0  0  0  0  0  0  0  0
   -1.2324    0.0456    1.7805 H   0  0  0  0  0  0  0  0  0  0  0  0
    0.1024    0.5378    3.3760 C   0  0  0  0  0  0  0  0  0  0  0  0
    0.8574    1.3307    3.4043 H   0  0  0  0  0  0  0  0  0  0  0  0
   -0.7773    0.8815    3.9286 H   0  0  0  0  0  0  0  0  0  0  0  0
    0.5036   -0.3492    3.8776 H   0  0  0  0  0  0  0  0  0  0  0  0
  1  2  1  0  0  0  0
  2  3  1  0  0  0  0
  2  4  1  0  0  0  0
  2  5  1  0  0  0  0
  5  6  2  0  0  0  0
  5  7  1  0  0  0  0
  7  8  1  0  0  0  0
  7  9  1  0  0  0  0
  9 10  1  0  0  0  0
  9 11  1  0  0  0  0
  9 22  1  0  0  0  0
 11 12  1  0  0  0  0
 11 13  1  0  0  0  0
 11 14  1  0  0  0  0
 14 15  1  0  0  0  0
 14 16  1  0  0  0  0
 14 17  1  0  0  0  0
 17 18  2  0  0  0  0
 17 19  1  0  0  0  0
 19 20  1  0  0  0  0
 19 21  1  0  0  0  0
 22 23  2  0  0  0  0
 22 24  1  0  0  0  0
 24 25  1  0  0  0  0
 24 26  1  0  0  0  0
 26 27  1  0  0  0  0
 26 28  1  0  0  0  0
 26 29  1  0  0  0  0
M  END
$$$$

  -OEChem-02102214123D

 29 28  0     1  0  0  0  0  0999 V2000
   -2.5716   -4.3106    0.5037 H   0  0  0  0  0  0  0  0  0  0  0  0
   -2.5501   -3.3973   -0.0977 C   0  0  0  0  0  0  0  0  0  0  0  0
   -3.4171   -2.7856    0.1629 H   0  0  0  0  0  0  0  0  0  0  0  0
   -2.6082   -3.6703   -1.1541 H   0  0  0  0  0  0  0  0  0  0  0  0
   -1.2701   -2.6275    0.1680 C   0  0  0  0  0  0  0  0  0  0  0  0
   -0.4158   -3.1038    0.8935 O   0  0  0  0  0  0  0  0  0  0  0  0
   -1.0863   -1.3854   -0.4089 N   0  0  0  0  0  0  0  0  0  0  0  0
   -1.7899   -1.0932   -1.0814 H   0  0  0  0  0  0  0  0  0  0  0  0
    0.1747   -0.6225   -0.3486 C   0  0  1  0  0  0  0  0  0  0  0  0
    0.9583   -1.2381   -0.8045 H   0  0  0  0  0  0  0  0  0  0  0  0
   -0.0071    0.6540   -1.1907 C   0  0  0  0  0  0  0  0  0  0  0  0
   -0.5209    0.3866   -2.1200 H   0  0  0  0  0  0  0  0  0  0  0  0
   -0.6572    1.3560   -0.6575 H   0  0  0  0  0  0  0  0  0  0  0  0
    1.3368    1.3533   -1.5148 C   0  0  0  0  0  0  0  0  0  0  0  0
    1.3309    2.3591   -1.0858 H   0  0  0  0  0  0  0  0  0  0  0  0
    2.1679    0.8130   -1.0537 H   0  0  0  0  0  0  0  0  0  0  0  0
    1.6279    1.4749   -3.0091 C   0  0  0  0  0  0  0  0  0  0  0  0
    0.7563    1.6508   -3.8408 O   0  0  0  0  0  0  0  0  0  0  0  0
    2.8997    1.3703   -3.4946 N   0  0  0  0  0  0  0  0  0  0  0  0
    2.9940    1.2928   -4.5030 H   0  0  0  0  0  0  0  0  0  0  0  0
    3.6386    1.0422   -2.8807 H   0  0  0  0  0  0  0  0  0  0  0  0
    0.6436   -0.2748    1.0842 C   0  0  0  0  0  0  0  0  0  0  0  0
    1.8404   -0.2163    1.3370 O   0  0  0  0  0  0  0  0  0  0  0  0
   -0.2647    0.2074    2.0091 N   0  0  0  0  0  0  0  0  0  0  0  0
   -1.2432    0.0392    1.7994 H   0  0  0  0  0  0  0  0  0  0  0  0
    0.1087    0.5364    3.3789 C   0  0  0  0  0  0  0  0  0  0  0  0
    0.8653    1.3281    3.3910 H   0  0  0  0  0  0  0  0  0  0  0  0
   -0.7655    0.8875    3.9352 H   0  0  0  0  0  0  0  0  0  0  0  0
    0.5132   -0.3457    3.8866 H   0  0  0  0  0  0  0  0  0  0  0  0
  1  2  1  0  0  0  0
  2  3  1  0  0  0  0
  2  4  1  0  0  0  0
  2  5  1  0  0  0  0
  5  6  2  0  0  0  0
  5  7  1  0  0  0  0
  7  8  1  0  0  0  0
  7  9  1  0  0  0  0
  9 10  1  0  0  0  0
  9 11  1  0  0  0  0
  9 22  1  0  0  0  0
 11 12  1  0  0  0  0
 11 13  1  0  0  0  0
 11 14  1  0  0  0  0
 14 15  1  0  0  0  0
 14 16  1  0  0  0  0
 14 17  1  0  0  0  0
 17 18  2  0  0  0  0
 17 19  1  0  0  0  0
 19 20  1  0  0  0  0
 19 21  1  0  0  0  0
 22 23  2  0  0  0  0
 22 24  1  0  0  0  0
 24 25  1  0  0  0  0
 24 26  1  0  0  0  0
 26 27  1  0  0  0  0
 26 28  1  0  0  0  0
 26 29  1  0  0  0  0
M  END
$$$$

  -OEChem-02102214123D

 29 28  0     1  0  0  0  0  0999 V2000
   -2.6187   -4.3295    0.4825 H   0  0  0  0  0  0  0  0  0  0  0  0
   -2.6095   -3.3896   -0.0769 C   0  0  0  0  0  0  0  0  0  0  0  0
   -3.4616   -2.7836    0.2400 H   0  0  0  0  0  0  0  0  0  0  0  0
   -2.7050   -3.6139   -1.1420 H   0  0  0  0  0  0  0  0  0  0  0  0
   -1.3148   -2.6422    0.1806 C   0  0  0  0  0  0  0  0  0  0  0  0
   -0.4648   -3.1310    0.9029 O   0  0  0  0  0  0  0  0  0  0  0  0
   -1.1118   -1.4058   -0.4013 N   0  0  0  0  0  0  0  0  0  0  0  0
   -1.8168   -1.0968   -1.0649 H   0  0  0  0  0  0  0  0  0  0  0  0
    0.1588   -0.6601   -0.3393 C   0  0  1  0  0  0  0  0  0  0  0  0
    0.9325   -1.2940   -0.7869 H   0  0  0  0  0  0  0  0  0  0  0  0
    0.0061    0.6149   -1.1874 C   0  0  0  0  0  0  0  0  0  0  0  0
   -0.4824    0.3290   -2.1247 H   0  0  0  0  0  0  0  0  0  0  0  0
   -0.6501    1.3344   -0.6861 H   0  0  0  0  0  0  0  0  0  0  0  0
    1.3678    1.2825   -1.4990 C   0  0  0  0  0  0  0  0  0  0  0  0
    1.5066    2.1473   -0.8442 H   0  0  0  0  0  0  0  0  0  0  0  0
    2.1793    0.5812   -1.2842 H   0  0  0  0  0  0  0  0  0  0  0  0
    1.5317    1.7265   -2.9518 C   0  0  0  0  0  0  0  0  0  0  0  0
    0.5923    1.9102   -3.7045 O   0  0  0  0  0  0  0  0  0  0  0  0
    2.7683    1.9478   -3.4859 N   0  0  0  0  0  0  0  0  0  0  0  0
    2.8102    2.0938   -4.4901 H   0  0  0  0  0  0  0  0  0  0  0  0
    3.5923    1.6563   -2.9700 H   0  0  0  0  0  0  0  0  0  0  0  0
    0.6342   -0.3072    1.0890 C   0  0  0  0  0  0  0  0  0  0  0  0
    1.8330   -0.2428    1.3312 O   0  0  0  0  0  0  0  0  0  0  0  0
   -0.2672    0.1950    2.0098 N   0  0  0  0  0  0  0  0  0  0  0  0
   -1.2479    0.0314    1.8068 H   0  0  0  0  0  0  0  0  0  0  0  0
    0.1142    0.5559    3.3691 C   0  0  0  0  0  0  0  0  0  0  0  0
    0.8751    1.3434    3.3581 H   0  0  0  0  0  0  0  0  0  0  0  0
   -0.7557    0.9258    3.9201 H   0  0  0  0  0  0  0  0  0  0  0  0
    0.5158   -0.3155    3.8970 H   0  0  0  0  0  0  0  0  0  0  0  0
  1  2  1  0  0  0  0
  2  3  1  0  0  0  0
  2  4  1  0  0  0  0
  2  5  1  0  0  0  0
  5  6  2  0  0  0  0
  5  7  1  0  0  0  0
  7  8  1  0  0  0  0
  7  9  1  0  0  0  0
  9 10  1  0  0  0  0
  9 11  1  0  0  0  0
  9 22  1  0  0  0  0
 11 12  1  0  0  0  0
 11 13  1  0  0  0  0
 11 14  1  0  0  0  0
 14 15  1  0  0  0  0
 14 16  1  0  0  0  0
 14 17  1  0  0  0  0
 17 18  2  0  0  0  0
 17 19  1  0  0  0  0
 19 20  1  0  0  0  0
 19 21  1  0  0  0  0
 22 23  2  0  0  0  0
 22 24  1  0  0  0  0
 24 25  1  0  0  0  0
 24 26  1  0  0  0  0
 26 27  1  0  0  0  0
 26 28  1  0  0  0  0
 26 29  1  0  0  0  0
M  END
$$$$

  -OEChem-02102214123D

 29 28  0     1  0  0  0  0  0999 V2000
   -2.6745   -4.3271    0.4887 H   0  0  0  0  0  0  0  0  0  0  0  0
   -2.6579   -3.3823   -0.0620 C   0  0  0  0  0  0  0  0  0  0  0  0
   -3.5034   -2.7715    0.2630 H   0  0  0  0  0  0  0  0  0  0  0  0
   -2.7591   -3.5961   -1.1288 H   0  0  0  0  0  0  0  0  0  0  0  0
   -1.3553   -2.6494    0.1989 C   0  0  0  0  0  0  0  0  0  0  0  0
   -0.5201   -3.1407    0.9366 O   0  0  0  0  0  0  0  0  0  0  0  0
   -1.1273   -1.4236   -0.3964 N   0  0  0  0  0  0  0  0  0  0  0  0
   -1.8228   -1.1100   -1.0678 H   0  0  0  0  0  0  0  0  0  0  0  0
    0.1559   -0.6991   -0.3355 C   0  0  1  0  0  0  0  0  0  0  0  0
    0.9204   -1.3522   -0.7709 H   0  0  0  0  0  0  0  0  0  0  0  0
    0.0312    0.5678   -1.1995 C   0  0  0  0  0  0  0  0  0  0  0  0
   -0.4417    0.2776   -2.1444 H   0  0  0  0  0  0  0  0  0  0  0  0
   -0.6199    1.3059   -0.7192 H   0  0  0  0  0  0  0  0  0  0  0  0
    1.4061    1.2015   -1.5060 C   0  0  0  0  0  0  0  0  0  0  0  0
    1.6812    1.8888   -0.7008 H   0  0  0  0  0  0  0  0  0  0  0  0
    2.1683    0.4178   -1.5438 H   0  0  0  0  0  0  0  0  0  0  0  0
    1.4544    1.9411   -2.8408 C   0  0  0  0  0  0  0  0  0  0  0  0
    0.4558    2.2605   -3.4604 O   0  0  0  0  0  0  0  0  0  0  0  0
    2.6436    2.3104   -3.4001 N   0  0  0  0  0  0  0  0  0  0  0  0
    2.5904    2.9500   -4.1874 H   0  0  0  0  0  0  0  0  0  0  0  0
    3.4893    2.2517   -2.8420 H   0  0  0  0  0  0  0  0  0  0  0  0
    0.6344   -0.3348    1.0886 C   0  0  0  0  0  0  0  0  0  0  0  0
    1.8341   -0.2810    1.3292 O   0  0  0  0  0  0  0  0  0  0  0  0
   -0.2587    0.1961    2.0015 N   0  0  0  0  0  0  0  0  0  0  0  0
   -1.2425    0.0502    1.7995 H   0  0  0  0  0  0  0  0  0  0  0  0
    0.1293    0.5803    3.3527 C   0  0  0  0  0  0  0  0  0  0  0  0
    0.8937    1.3639    3.3241 H   0  0  0  0  0  0  0  0  0  0  0  0
   -0.7367    0.9646    3.8998 H   0  0  0  0  0  0  0  0  0  0  0  0
    0.5291   -0.2827    3.8957 H   0  0  0  0  0  0  0  0  0  0  0  0
  1  2  1  0  0  0  0
  2  3  1  0  0  0  0
  2  4  1  0  0  0  0
  2  5  1  0  0  0  0
  5  6  2  0  0  0  0
  5  7  1  0  0  0  0
  7  8  1  0  0  0  0
  7  9  1  0  0  0  0
  9 10  1  0  0  0  0
  9 11  1  0  0  0  0
  9 22  1  0  0  0  0
 11 12  1  0  0  0  0
 11 13  1  0  0  0  0
 11 14  1  0  0  0  0
 14 15  1  0  0  0  0
 14 16  1  0  0  0  0
 14 17  1  0  0  0  0
 17 18  2  0  0  0  0
 17 19  1  0  0  0  0
 19 20  1  0  0  0  0
 19 21  1  0  0  0  0
 22 23  2  0  0  0  0
 22 24  1  0  0  0  0
 24 25  1  0  0  0  0
 24 26  1  0  0  0  0
 26 27  1  0  0  0  0
 26 28  1  0  0  0  0
 26 29  1  0  0  0  0
M  END
$$$$

  -OEChem-02102214123D

 29 28  0     1  0  0  0  0  0999 V2000
   -2.6964   -4.3163    0.4961 H   0  0  0  0  0  0  0  0  0  0  0  0
   -2.6842   -3.3589   -0.0328 C   0  0  0  0  0  0  0  0  0  0  0  0
   -3.5108   -2.7451    0.3328 H   0  0  0  0  0  0  0  0  0  0  0  0
   -2.8220   -3.5467   -1.1003 H   0  0  0  0  0  0  0  0  0  0  0  0
   -1.3643   -2.6490    0.2039 C   0  0  0  0  0  0  0  0  0  0  0  0
   -0.5263   -3.1536    0.9291 O   0  0  0  0  0  0  0  0  0  0  0  0
   -1.1232   -1.4297   -0.3997 N   0  0  0  0  0  0  0  0  0  0  0  0
   -1.8264   -1.0993   -1.0547 H   0  0  0  0  0  0  0  0  0  0  0  0
    0.1665   -0.7166   -0.3416 C   0  0  1  0  0  0  0  0  0  0  0  0
    0.9285   -1.3783   -0.7688 H   0  0  0  0  0  0  0  0  0  0  0  0
    0.0542    0.5412   -1.2201 C   0  0  0  0  0  0  0  0  0  0  0  0
   -0.4182    0.2575   -2.1672 H   0  0  0  0  0  0  0  0  0  0  0  0
   -0.5875    1.2887   -0.7408 H   0  0  0  0  0  0  0  0  0  0  0  0
    1.4342    1.1569   -1.5278 C   0  0  0  0  0  0  0  0  0  0  0  0
    1.8272    1.6475   -0.6328 H   0  0  0  0  0  0  0  0  0  0  0  0
    2.1328    0.3632   -1.8073 H   0  0  0  0  0  0  0  0  0  0  0  0
    1.3973    2.1690   -2.6698 C   0  0  0  0  0  0  0  0  0  0  0  0
    0.3657    2.5198   -3.2139 O   0  0  0  0  0  0  0  0  0  0  0  0
    2.5412    2.7556   -3.1289 N   0  0  0  0  0  0  0  0  0  0  0  0
    2.4198    3.5424   -3.7597 H   0  0  0  0  0  0  0  0  0  0  0  0
    3.3936    2.6595   -2.5865 H   0  0  0  0  0  0  0  0  0  0  0  0
    0.6403   -0.3488    1.0835 C   0  0  0  0  0  0  0  0  0  0  0  0
    1.8384   -0.3125    1.3349 O   0  0  0  0  0  0  0  0  0  0  0  0
   -0.2536    0.1951    1.9881 N   0  0  0  0  0  0  0  0  0  0  0  0
   -1.2374    0.0642    1.7765 H   0  0  0  0  0  0  0  0  0  0  0  0
    0.1267    0.5750    3.3428 C   0  0  0  0  0  0  0  0  0  0  0  0
    0.9224    1.3271    3.3226 H   0  0  0  0  0  0  0  0  0  0  0  0
   -0.7323    0.9984    3.8718 H   0  0  0  0  0  0  0  0  0  0  0  0
    0.4819   -0.2990    3.8989 H   0  0  0  0  0  0  0  0  0  0  0  0
  1  2  1  0  0  0  0
  2  3  1  0  0  0  0
  2  4  1  0  0  0  0
  2  5  1  0  0  0  0
  5  6  2  0  0  0  0
  5  7  1  0  0  0  0
  7  8  1  0  0  0  0
  7  9  1  0  0  0  0
  9 10  1  0  0  0  0
  9 11  1  0  0  0  0
  9 22  1  0  0  0  0
 11 12  1  0  0  0  0
 11 13  1  0  0  0  0
 11 14  1  0  0  0  0
 14 15  1  0  0  0  0
 14 16  1  0  0  0  0
 14 17  1  0  0  0  0
 17 18  2  0  0  0  0
 17 19  1  0  0  0  0
 19 20  1  0  0  0  0
 19 21  1  0  0  0  0
 22 23  2  0  0  0  0
 22 24  1  0  0  0  0
 24 25  1  0  0  0  0
 24 26  1  0  0  0  0
 26 27  1  0  0  0  0
 26 28  1  0  0  0  0
 26 29  1  0  0  0  0
M  END
$$$$

  -OEChem-02102214123D

 29 28  0     1  0  0  0  0  0999 V2000
   -2.7136   -4.3237    0.5030 H   0  0  0  0  0  0  0  0  0  0  0  0
   -2.7077   -3.3641   -0.0219 C   0  0  0  0  0  0  0  0  0  0  0  0
   -3.5333   -2.7534    0.3515 H   0  0  0  0  0  0  0  0  0  0  0  0
   -2.8511   -3.5477   -1.0894 H   0  0  0  0  0  0  0  0  0  0  0  0
   -1.3882   -2.6524    0.2090 C   0  0  0  0  0  0  0  0  0  0  0  0
   -0.5425   -3.1590    0.9238 O   0  0  0  0  0  0  0  0  0  0  0  0
   -1.1528   -1.4333   -0.3965 N   0  0  0  0  0  0  0  0  0  0  0  0
   -1.8642   -1.1005   -1.0412 H   0  0  0  0  0  0  0  0  0  0  0  0
    0.1391   -0.7233   -0.3545 C   0  0  1  0  0  0  0  0  0  0  0  0
    0.8867   -1.3989   -0.7849 H   0  0  0  0  0  0  0  0  0  0  0  0
    0.0382    0.5308   -1.2420 C   0  0  0  0  0  0  0  0  0  0  0  0
   -0.6601    0.3436   -2.0649 H   0  0  0  0  0  0  0  0  0  0  0  0
   -0.3575    1.3717   -0.6610 H   0  0  0  0  0  0  0  0  0  0  0  0
    1.4026    0.9043   -1.8516 C   0  0  0  0  0  0  0  0  0  0  0  0
    2.1222    1.0925   -1.0495 H   0  0  0  0  0  0  0  0  0  0  0  0
    1.7784    0.0717   -2.4527 H   0  0  0  0  0  0  0  0  0  0  0  0
    1.3315    2.1452   -2.7371 C   0  0  0  0  0  0  0  0  0  0  0  0
    0.2821    2.6824   -3.0424 O   0  0  0  0  0  0  0  0  0  0  0  0
    2.4625    2.7196   -3.2409 N   0  0  0  0  0  0  0  0  0  0  0  0
    2.3457    3.6321   -3.6716 H   0  0  0  0  0  0  0  0  0  0  0  0
    3.3625    2.4437   -2.8620 H   0  0  0  0  0  0  0  0  0  0  0  0
    0.6422   -0.3527    1.0594 C   0  0  0  0  0  0  0  0  0  0  0  0
    1.8455   -0.3113    1.2822 O   0  0  0  0  0  0  0  0  0  0  0  0
   -0.2315    0.1963    1.9805 N   0  0  0  0  0  0  0  0  0  0  0  0
   -1.2204    0.0724    1.7892 H   0  0  0  0  0  0  0  0  0  0  0  0
    0.1790    0.5976    3.3200 C   0  0  0  0  0  0  0  0  0  0  0  0
    0.9590    1.3645    3.2689 H   0  0  0  0  0  0  0  0  0  0  0  0
   -0.6730    1.0102    3.8688 H   0  0  0  0  0  0  0  0  0  0  0  0
    0.5663   -0.2635    3.8749 H   0  0  0  0  0  0  0  0  0  0  0  0
  1  2  1  0  0  0  0
  2  3  1  0  0  0  0
  2  4  1  0  0  0  0
  2  5  1  0  0  0  0
  5  6  2  0  0  0  0
  5  7  1  0  0  0  0
  7  8  1  0  0  0  0
  7  9  1  0  0  0  0
  9 10  1  0  0  0  0
  9 11  1  0  0  0  0
  9 22  1  0  0  0  0
 11 12  1  0  0  0  0
 11 13  1  0  0  0  0
 11 14  1  0  0  0  0
 14 15  1  0  0  0  0
 14 16  1  0  0  0  0
 14 17  1  0  0  0  0
 17 18  2  0  0  0  0
 17 19  1  0  0  0  0
 19 20  1  0  0  0  0
 19 21  1  0  0  0  0
 22 23  2  0  0  0  0
 22 24  1  0  0  0  0
 24 25  1  0  0  0  0
 24 26  1  0  0  0  0
 26 27  1  0  0  0  0
 26 28  1  0  0  0  0
 26 29  1  0  0  0  0
M  END
$$$$

  -OEChem-02102214123D

 29 28  0     1  0  0  0  0  0999 V2000
   -2.7489   -4.2805    0.5955 H   0  0  0  0  0  0  0  0  0  0  0  0
   -2.7297   -3.3441    0.0304 C   0  0  0  0  0  0  0  0  0  0  0  0
   -3.5343   -2.6993    0.3916 H   0  0  0  0  0  0  0  0  0  0  0  0
   -2.8966   -3.5684   -1.0259 H   0  0  0  0  0  0  0  0  0  0  0  0
   -1.3906   -2.6539    0.2100 C   0  0  0  0  0  0  0  0  0  0  0  0
   -0.5329   -3.1661    0.9064 O   0  0  0  0  0  0  0  0  0  0  0  0
   -1.1547   -1.4421   -0.4100 N   0  0  0  0  0  0  0  0  0  0  0  0
   -1.8809   -1.0986   -1.0321 H   0  0  0  0  0  0  0  0  0  0  0  0
    0.1414   -0.7387   -0.3896 C   0  0  1  0  0  0  0  0  0  0  0  0
    0.8818   -1.4211   -0.8227 H   0  0  0  0  0  0  0  0  0  0  0  0
    0.0380    0.5072   -1.2885 C   0  0  0  0  0  0  0  0  0  0  0  0
   -0.6759    0.3335   -2.1007 H   0  0  0  0  0  0  0  0  0  0  0  0
   -0.3389    1.3498   -0.6973 H   0  0  0  0  0  0  0  0  0  0  0  0
    1.3976    0.8682   -1.9176 C   0  0  0  0  0  0  0  0  0  0  0  0
    2.1794    0.8179   -1.1548 H   0  0  0  0  0  0  0  0  0  0  0  0
    1.6493    0.1485   -2.7013 H   0  0  0  0  0  0  0  0  0  0  0  0
    1.4107    2.2759   -2.5057 C   0  0  0  0  0  0  0  0  0  0  0  0
    0.3939    2.8567   -2.8400 O   0  0  0  0  0  0  0  0  0  0  0  0
    2.5776    2.9635   -2.6787 N   0  0  0  0  0  0  0  0  0  0  0  0
    2.4844    3.9500   -2.9015 H   0  0  0  0  0  0  0  0  0  0  0  0
    3.4185    2.6194   -2.2261 H   0  0  0  0  0  0  0  0  0  0  0  0
    0.6579   -0.3593    1.0177 C   0  0  0  0  0  0  0  0  0  0  0  0
    1.8631   -0.3222    1.2318 O   0  0  0  0  0  0  0  0  0  0  0  0
   -0.2051    0.2016    1.9417 N   0  0  0  0  0  0  0  0  0  0  0  0
   -1.1964    0.0832    1.7597 H   0  0  0  0  0  0  0  0  0  0  0  0
    0.2196    0.6111    3.2744 C   0  0  0  0  0  0  0  0  0  0  0  0
    0.9935    1.3833    3.2100 H   0  0  0  0  0  0  0  0  0  0  0  0
   -0.6283    1.0196    3.8325 H   0  0  0  0  0  0  0  0  0  0  0  0
    0.6206   -0.2448    3.8277 H   0  0  0  0  0  0  0  0  0  0  0  0
  1  2  1  0  0  0  0
  2  3  1  0  0  0  0
  2  4  1  0  0  0  0
  2  5  1  0  0  0  0
  5  6  2  0  0  0  0
  5  7  1  0  0  0  0
  7  8  1  0  0  0  0
  7  9  1  0  0  0  0
  9 10  1  0  0  0  0
  9 11  1  0  0  0  0
  9 22  1  0  0  0  0
 11 12  1  0  0  0  0
 11 13  1  0  0  0  0
 11 14  1  0  0  0  0
 14 15  1  0  0  0  0
 14 16  1  0  0  0  0
 14 17  1  0  0  0  0
 17 18  2  0  0  0  0
 17 19  1  0  0  0  0
 19 20  1  0  0  0  0
 19 21  1  0  0  0  0
 22 23  2  0  0  0  0
 22 24  1  0  0  0  0
 24 25  1  0  0  0  0
 24 26  1  0  0  0  0
 26 27  1  0  0  0  0
 26 28  1  0  0  0  0
 26 29  1  0  0  0  0
M  END
$$$$

  -OEChem-02102214123D

 29 28  0     1  0  0  0  0  0999 V2000
   -2.7677   -4.2418    0.6545 H   0  0  0  0  0  0  0  0  0  0  0  0
   -2.7490   -3.3168    0.0709 C   0  0  0  0  0  0  0  0  0  0  0  0
   -3.5472   -2.6612    0.4268 H   0  0  0  0  0  0  0  0  0  0  0  0
   -2.9269   -3.5606   -0.9792 H   0  0  0  0  0  0  0  0  0  0  0  0
   -1.4039   -2.6313    0.2231 C   0  0  0  0  0  0  0  0  0  0  0  0
   -0.5401   -3.1369    0.9168 O   0  0  0  0  0  0  0  0  0  0  0  0
   -1.1676   -1.4320   -0.4211 N   0  0  0  0  0  0  0  0  0  0  0  0
   -1.8969   -1.0997   -1.0455 H   0  0  0  0  0  0  0  0  0  0  0  0
    0.1405   -0.7515   -0.4487 C   0  0  1  0  0  0  0  0  0  0  0  0
    0.8543   -1.4523   -0.8964 H   0  0  0  0  0  0  0  0  0  0  0  0
    0.0373    0.4902   -1.3537 C   0  0  0  0  0  0  0  0  0  0  0  0
   -0.7055    0.3326   -2.1428 H   0  0  0  0  0  0  0  0  0  0  0  0
   -0.3048    1.3413   -0.7531 H   0  0  0  0  0  0  0  0  0  0  0  0
    1.3850    0.8183   -2.0264 C   0  0  0  0  0  0  0  0  0  0  0  0
    2.2143    0.5071   -1.3857 H   0  0  0  0  0  0  0  0  0  0  0  0
    1.4773    0.2726   -2.9695 H   0  0  0  0  0  0  0  0  0  0  0  0
    1.5297    2.3119   -2.2870 C   0  0  0  0  0  0  0  0  0  0  0  0
    0.6483    2.9569   -2.8240 O   0  0  0  0  0  0  0  0  0  0  0  0
    2.6110    3.0155   -1.8408 N   0  0  0  0  0  0  0  0  0  0  0  0
    2.5208    4.0267   -1.8573 H   0  0  0  0  0  0  0  0  0  0  0  0
    3.2338    2.5709   -1.1729 H   0  0  0  0  0  0  0  0  0  0  0  0
    0.7046   -0.3625    0.9383 C   0  0  0  0  0  0  0  0  0  0  0  0
    1.9168   -0.3117    1.1063 O   0  0  0  0  0  0  0  0  0  0  0  0
   -0.1239    0.2252    1.8771 N   0  0  0  0  0  0  0  0  0  0  0  0
   -1.1209    0.0994    1.7354 H   0  0  0  0  0  0  0  0  0  0  0  0
    0.3484    0.6700    3.1821 C   0  0  0  0  0  0  0  0  0  0  0  0
    1.1029    1.4554    3.0691 H   0  0  0  0  0  0  0  0  0  0  0  0
   -0.4829    1.0733    3.7681 H   0  0  0  0  0  0  0  0  0  0  0  0
    0.7898   -0.1662    3.7346 H   0  0  0  0  0  0  0  0  0  0  0  0
  1  2  1  0  0  0  0
  2  3  1  0  0  0  0
  2  4  1  0  0  0  0
  2  5  1  0  0  0  0
  5  6  2  0  0  0  0
  5  7  1  0  0  0  0
  7  8  1  0  0  0  0
  7  9  1  0  0  0  0
  9 10  1  0  0  0  0
  9 11  1  0  0  0  0
  9 22  1  0  0  0  0
 11 12  1  0  0  0  0
 11 13  1  0  0  0  0
 11 14  1  0  0  0  0
 14 15  1  0  0  0  0
 14 16  1  0  0  0  0
 14 17  1  0  0  0  0
 17 18  2  0  0  0  0
 17 19  1  0  0  0  0
 19 20  1  0  0  0  0
 19 21  1  0  0  0  0
 22 23  2  0  0  0  0
 22 24  1  0  0  0  0
 24 25  1  0  0  0  0
 24 26  1  0  0  0  0
 26 27  1  0  0  0  0
 26 28  1  0  0  0  0
 26 29  1  0  0  0  0
M  END
$$$$

  -OEChem-02102214123D

 29 28  0     1  0  0  0  0  0999 V2000
   -2.7247   -4.2212    0.6925 H   0  0  0  0  0  0  0  0  0  0  0  0
   -2.7249   -3.3008    0.1014 C   0  0  0  0  0  0  0  0  0  0  0  0
   -3.5134   -2.6435    0.4758 H   0  0  0  0  0  0  0  0  0  0  0  0
   -2.9333   -3.5533   -0.9411 H   0  0  0  0  0  0  0  0  0  0  0  0
   -1.3778   -2.6112    0.2093 C   0  0  0  0  0  0  0  0  0  0  0  0
   -0.4915   -3.1098    0.8794 O   0  0  0  0  0  0  0  0  0  0  0  0
   -1.1657   -1.4107   -0.4411 N   0  0  0  0  0  0  0  0  0  0  0  0
   -1.9119   -1.0860   -1.0495 H   0  0  0  0  0  0  0  0  0  0  0  0
    0.1425   -0.7342   -0.5156 C   0  0  1  0  0  0  0  0  0  0  0  0
    0.8313   -1.4408   -0.9927 H   0  0  0  0  0  0  0  0  0  0  0  0
    0.0296    0.5236   -1.3952 C   0  0  0  0  0  0  0  0  0  0  0  0
   -0.7356    0.3801   -2.1649 H   0  0  0  0  0  0  0  0  0  0  0  0
   -0.2924    1.3722   -0.7798 H   0  0  0  0  0  0  0  0  0  0  0  0
    1.3640    0.8343   -2.1040 C   0  0  0  0  0  0  0  0  0  0  0  0
    2.1915    0.2720   -1.6625 H   0  0  0  0  0  0  0  0  0  0  0  0
    1.3031    0.5471   -3.1574 H   0  0  0  0  0  0  0  0  0  0  0  0
    1.6899    2.3152   -2.0054 C   0  0  0  0  0  0  0  0  0  0  0  0
    1.1289    3.1433   -2.6977 O   0  0  0  0  0  0  0  0  0  0  0  0
    2.5038    2.7799   -1.0128 N   0  0  0  0  0  0  0  0  0  0  0  0
    2.4784    3.7799   -0.8403 H   0  0  0  0  0  0  0  0  0  0  0  0
    2.7651    2.1373   -0.2669 H   0  0  0  0  0  0  0  0  0  0  0  0
    0.7664   -0.3476    0.8468 C   0  0  0  0  0  0  0  0  0  0  0  0
    1.9828   -0.2276    0.9384 O   0  0  0  0  0  0  0  0  0  0  0  0
   -0.0244    0.2413    1.8168 N   0  0  0  0  0  0  0  0  0  0  0  0
   -1.0229    0.0767    1.7368 H   0  0  0  0  0  0  0  0  0  0  0  0
    0.5048    0.7139    3.0902 C   0  0  0  0  0  0  0  0  0  0  0  0
    1.2314    1.5172    2.9298 H   0  0  0  0  0  0  0  0  0  0  0  0
   -0.3047    1.1026    3.7153 H   0  0  0  0  0  0  0  0  0  0  0  0
    0.9959   -0.1045    3.6274 H   0  0  0  0  0  0  0  0  0  0  0  0
  1  2  1  0  0  0  0
  2  3  1  0  0  0  0
  2  4  1  0  0  0  0
  2  5  1  0  0  0  0
  5  6  2  0  0  0  0
  5  7  1  0  0  0  0
  7  8  1  0  0  0  0
  7  9  1  0  0  0  0
  9 10  1  0  0  0  0
  9 11  1  0  0  0  0
  9 22  1  0  0  0  0
 11 12  1  0  0  0  0
 11 13  1  0  0  0  0
 11 14  1  0  0  0  0
 14 15  1  0  0  0  0
 14 16  1  0  0  0  0
 14 17  1  0  0  0  0
 17 18  2  0  0  0  0
 17 19  1  0  0  0  0
 19 20  1  0  0  0  0
 19 21  1  0  0  0  0
 22 23  2  0  0  0  0
 22 24  1  0  0  0  0
 24 25  1  0  0  0  0
 24 26  1  0  0  0  0
 26 27  1  0  0  0  0
 26 28  1  0  0  0  0
 26 29  1  0  0  0  0
M  END
$$$$

  -OEChem-02102214123D

 29 28  0     1  0  0  0  0  0999 V2000
   -2.6289   -4.2713    0.6492 H   0  0  0  0  0  0  0  0  0  0  0  0
   -2.6614   -3.3350    0.0847 C   0  0  0  0  0  0  0  0  0  0  0  0
   -3.4567   -2.7063    0.4925 H   0  0  0  0  0  0  0  0  0  0  0  0
   -2.8848   -3.5634   -0.9603 H   0  0  0  0  0  0  0  0  0  0  0  0
   -1.3281   -2.6183    0.1853 C   0  0  0  0  0  0  0  0  0  0  0  0
   -0.4198   -3.1091    0.8315 O   0  0  0  0  0  0  0  0  0  0  0  0
   -1.1529   -1.4012   -0.4446 N   0  0  0  0  0  0  0  0  0  0  0  0
   -1.9168   -1.0807   -1.0328 H   0  0  0  0  0  0  0  0  0  0  0  0
    0.1404   -0.6983   -0.5309 C   0  0  1  0  0  0  0  0  0  0  0  0
    0.8284   -1.3891   -1.0313 H   0  0  0  0  0  0  0  0  0  0  0  0
   -0.0058    0.5731   -1.3868 C   0  0  0  0  0  0  0  0  0  0  0  0
   -0.7705    0.4084   -2.1527 H   0  0  0  0  0  0  0  0  0  0  0  0
   -0.3518    1.4098   -0.7681 H   0  0  0  0  0  0  0  0  0  0  0  0
    1.3120    0.9214   -2.1119 C   0  0  0  0  0  0  0  0  0  0  0  0
    2.0972    0.1876   -1.9081 H   0  0  0  0  0  0  0  0  0  0  0  0
    1.1466    0.9270   -3.1932 H   0  0  0  0  0  0  0  0  0  0  0  0
    1.8053    2.2967   -1.6897 C   0  0  0  0  0  0  0  0  0  0  0  0
    1.4093    3.3142   -2.2264 O   0  0  0  0  0  0  0  0  0  0  0  0
    2.6011    2.4370   -0.5898 N   0  0  0  0  0  0  0  0  0  0  0  0
    2.6875    3.3755   -0.2143 H   0  0  0  0  0  0  0  0  0  0  0  0
    2.7028    1.6284    0.0282 H   0  0  0  0  0  0  0  0  0  0  0  0
    0.7911   -0.3236    0.8214 C   0  0  0  0  0  0  0  0  0  0  0  0
    2.0060   -0.1634    0.8756 O   0  0  0  0  0  0  0  0  0  0  0  0
    0.0143    0.2330    1.8209 N   0  0  0  0  0  0  0  0  0  0  0  0
   -0.9817    0.0437    1.7688 H   0  0  0  0  0  0  0  0  0  0  0  0
    0.5671    0.7209    3.0783 C   0  0  0  0  0  0  0  0  0  0  0  0
    1.2428    1.5638    2.8990 H   0  0  0  0  0  0  0  0  0  0  0  0
   -0.2370    1.0589    3.7389 H   0  0  0  0  0  0  0  0  0  0  0  0
    1.1219   -0.0747    3.5868 H   0  0  0  0  0  0  0  0  0  0  0  0
  1  2  1  0  0  0  0
  2  3  1  0  0  0  0
  2  4  1  0  0  0  0
  2  5  1  0  0  0  0
  5  6  2  0  0  0  0
  5  7  1  0  0  0  0
  7  8  1  0  0  0  0
  7  9  1  0  0  0  0
  9 10  1  0  0  0  0
  9 11  1  0  0  0  0
  9 22  1  0  0  0  0
 11 12  1  0  0  0  0
 11 13  1  0  0  0  0
 11 14  1  0  0  0  0
 14 15  1  0  0  0  0
 14 16  1  0  0  0  0
 14 17  1  0  0  0  0
 17 18  2  0  0  0  0
 17 19  1  0  0  0  0
 19 20  1  0  0  0  0
 19 21  1  0  0  0  0
 22 23  2  0  0  0  0
 22 24  1  0  0  0  0
 24 25  1  0  0  0  0
 24 26  1  0  0  0  0
 26 27  1  0  0  0  0
 26 28  1  0  0  0  0
 26 29  1  0  0  0  0
M  END
$$$$

  -OEChem-02102214123D

 29 28  0     1  0  0  0  0  0999 V2000
   -2.5715   -4.2916    0.6016 H   0  0  0  0  0  0  0  0  0  0  0  0
   -2.6164   -3.3423    0.0601 C   0  0  0  0  0  0  0  0  0  0  0  0
   -3.4159   -2.7321    0.4868 H   0  0  0  0  0  0  0  0  0  0  0  0
   -2.8426   -3.5477   -0.9889 H   0  0  0  0  0  0  0  0  0  0  0  0
   -1.2895   -2.6153    0.1731 C   0  0  0  0  0  0  0  0  0  0  0  0
   -0.3769   -3.1117    0.8083 O   0  0  0  0  0  0  0  0  0  0  0  0
   -1.1220   -1.3890   -0.4414 N   0  0  0  0  0  0  0  0  0  0  0  0
   -1.8908   -1.0604   -1.0187 H   0  0  0  0  0  0  0  0  0  0  0  0
    0.1626   -0.6667   -0.5029 C   0  0  1  0  0  0  0  0  0  0  0  0
    0.8711   -1.3433   -0.9939 H   0  0  0  0  0  0  0  0  0  0  0  0
   -0.0147    0.5907   -1.3795 C   0  0  0  0  0  0  0  0  0  0  0  0
   -0.7591    0.3742   -2.1525 H   0  0  0  0  0  0  0  0  0  0  0  0
   -0.4075    1.4235   -0.7842 H   0  0  0  0  0  0  0  0  0  0  0  0
    1.2838    0.9993   -2.1066 C   0  0  0  0  0  0  0  0  0  0  0  0
    2.0052    0.1778   -2.1322 H   0  0  0  0  0  0  0  0  0  0  0  0
    1.0503    1.2555   -3.1442 H   0  0  0  0  0  0  0  0  0  0  0  0
    1.9293    2.2209   -1.4617 C   0  0  0  0  0  0  0  0  0  0  0  0
    1.5805    3.3473   -1.7615 O   0  0  0  0  0  0  0  0  0  0  0  0
    2.8605    2.1154   -0.4710 N   0  0  0  0  0  0  0  0  0  0  0  0
    3.0520    2.9734    0.0354 H   0  0  0  0  0  0  0  0  0  0  0  0
    2.9075    1.2246    0.0301 H   0  0  0  0  0  0  0  0  0  0  0  0
    0.7844   -0.3002    0.8629 C   0  0  0  0  0  0  0  0  0  0  0  0
    2.0039   -0.2366    0.9691 O   0  0  0  0  0  0  0  0  0  0  0  0
   -0.0054    0.2350    1.8632 N   0  0  0  0  0  0  0  0  0  0  0  0
   -1.0067    0.0981    1.7685 H   0  0  0  0  0  0  0  0  0  0  0  0
    0.5257    0.6528    3.1545 C   0  0  0  0  0  0  0  0  0  0  0  0
    1.2375    1.4754    3.0281 H   0  0  0  0  0  0  0  0  0  0  0  0
   -0.2851    0.9959    3.8040 H   0  0  0  0  0  0  0  0  0  0  0  0
    1.0348   -0.1823    3.6474 H   0  0  0  0  0  0  0  0  0  0  0  0
  1  2  1  0  0  0  0
  2  3  1  0  0  0  0
  2  4  1  0  0  0  0
  2  5  1  0  0  0  0
  5  6  2  0  0  0  0
  5  7  1  0  0  0  0
  7  8  1  0  0  0  0
  7  9  1  0  0  0  0
  9 10  1  0  0  0  0
  9 11  1  0  0  0  0
  9 22  1  0  0  0  0
 11 12  1  0  0  0  0
 11 13  1  0  0  0  0
 11 14  1  0  0  0  0
 14 15  1  0  0  0  0
 14 16  1  0  0  0  0
 14 17  1  0  0  0  0
 17 18  2  0  0  0  0
 17 19  1  0  0  0  0
 19 20  1  0  0  0  0
 19 21  1  0  0  0  0
 22 23  2  0  0  0  0
 22 24  1  0  0  0  0
 24 25  1  0  0  0  0
 24 26  1  0  0  0  0
 26 27  1  0  0  0  0
 26 28  1  0  0  0  0
 26 29  1  0  0  0  0
M  END
$$$$

  -OEChem-02102214123D

 29 28  0     1  0  0  0  0  0999 V2000
   -2.5370   -4.3003    0.5633 H   0  0  0  0  0  0  0  0  0  0  0  0
   -2.5842   -3.3388    0.0441 C   0  0  0  0  0  0  0  0  0  0  0  0
   -3.3788   -2.7368    0.4910 H   0  0  0  0  0  0  0  0  0  0  0  0
   -2.8193   -3.5199   -1.0075 H   0  0  0  0  0  0  0  0  0  0  0  0
   -1.2549   -2.6171    0.1630 C   0  0  0  0  0  0  0  0  0  0  0  0
   -0.3423   -3.1254    0.7885 O   0  0  0  0  0  0  0  0  0  0  0  0
   -1.0852   -1.3855   -0.4404 N   0  0  0  0  0  0  0  0  0  0  0  0
   -1.8588   -1.0429   -1.0026 H   0  0  0  0  0  0  0  0  0  0  0  0
    0.1921   -0.6477   -0.4719 C   0  0  1  0  0  0  0  0  0  0  0  0
    0.9243   -1.3074   -0.9511 H   0  0  0  0  0  0  0  0  0  0  0  0
   -0.0077    0.5971   -1.3654 C   0  0  0  0  0  0  0  0  0  0  0  0
   -0.7351    0.3484   -2.1450 H   0  0  0  0  0  0  0  0  0  0  0  0
   -0.4326    1.4219   -0.7815 H   0  0  0  0  0  0  0  0  0  0  0  0
    1.2713    1.0617   -2.0912 C   0  0  0  0  0  0  0  0  0  0  0  0
    1.9054    0.2080   -2.3454 H   0  0  0  0  0  0  0  0  0  0  0  0
    0.9888    1.5451   -3.0312 H   0  0  0  0  0  0  0  0  0  0  0  0
    2.0789    2.0749   -1.2838 C   0  0  0  0  0  0  0  0  0  0  0  0
    1.8017    3.2587   -1.3252 O   0  0  0  0  0  0  0  0  0  0  0  0
    3.1303    1.7343   -0.4862 N   0  0  0  0  0  0  0  0  0  0  0  0
    3.4491    2.4848    0.1177 H   0  0  0  0  0  0  0  0  0  0  0  0
    3.1113    0.7893   -0.0971 H   0  0  0  0  0  0  0  0  0  0  0  0
    0.7699   -0.2876    0.9141 C   0  0  0  0  0  0  0  0  0  0  0  0
    1.9822   -0.3202    1.0866 O   0  0  0  0  0  0  0  0  0  0  0  0
   -0.0455    0.2304    1.9024 N   0  0  0  0  0  0  0  0  0  0  0  0
   -1.0464    0.1533    1.7543 H   0  0  0  0  0  0  0  0  0  0  0  0
    0.4454    0.5939    3.2256 C   0  0  0  0  0  0  0  0  0  0  0  0
    1.1971    1.3868    3.1503 H   0  0  0  0  0  0  0  0  0  0  0  0
   -0.3778    0.9573    3.8481 H   0  0  0  0  0  0  0  0  0  0  0  0
    0.8964   -0.2739    3.7184 H   0  0  0  0  0  0  0  0  0  0  0  0
  1  2  1  0  0  0  0
  2  3  1  0  0  0  0
  2  4  1  0  0  0  0
  2  5  1  0  0  0  0
  5  6  2  0  0  0  0
  5  7  1  0  0  0  0
  7  8  1  0  0  0  0
  7  9  1  0  0  0  0
  9 10  1  0  0  0  0
  9 11  1  0  0  0  0
  9 22  1  0  0  0  0
 11 12  1  0  0  0  0
 11 13  1  0  0  0  0
 11 14  1  0  0  0  0
 14 15  1  0  0  0  0
 14 16  1  0  0  0  0
 14 17  1  0  0  0  0
 17 18  2  0  0  0  0
 17 19  1  0  0  0  0
 19 20  1  0  0  0  0
 19 21  1  0  0  0  0
 22 23  2  0  0  0  0
 22 24  1  0  0  0  0
 24 25  1  0  0  0  0
 24 26  1  0  0  0  0
 26 27  1  0  0  0  0
 26 28  1  0  0  0  0
 26 29  1  0  0  0  0
M  END
$$$$

  -OEChem-02102214123D

 29 28  0     1  0  0  0  0  0999 V2000
   -2.4935   -4.3067    0.5301 H   0  0  0  0  0  0  0  0  0  0  0  0
   -2.5432   -3.3382    0.0238 C   0  0  0  0  0  0  0  0  0  0  0  0
   -3.3297   -2.7393    0.4889 H   0  0  0  0  0  0  0  0  0  0  0  0
   -2.7920   -3.5042   -1.0271 H   0  0  0  0  0  0  0  0  0  0  0  0
   -1.2098   -2.6232    0.1351 C   0  0  0  0  0  0  0  0  0  0  0  0
   -0.2884   -3.1476    0.7335 O   0  0  0  0  0  0  0  0  0  0  0  0
   -1.0457   -1.3821   -0.4506 N   0  0  0  0  0  0  0  0  0  0  0  0
   -1.8312   -1.0206   -0.9837 H   0  0  0  0  0  0  0  0  0  0  0  0
    0.2212   -0.6253   -0.4503 C   0  0  1  0  0  0  0  0  0  0  0  0
    0.9776   -1.2606   -0.9250 H   0  0  0  0  0  0  0  0  0  0  0  0
    0.0030    0.6217   -1.3381 C   0  0  0  0  0  0  0  0  0  0  0  0
   -0.7190    0.3710   -2.1224 H   0  0  0  0  0  0  0  0  0  0  0  0
   -0.4353    1.4301   -0.7416 H   0  0  0  0  0  0  0  0  0  0  0  0
    1.2661    1.1395   -2.0556 C   0  0  0  0  0  0  0  0  0  0  0  0
    1.7886    0.3069   -2.5347 H   0  0  0  0  0  0  0  0  0  0  0  0
    0.9611    1.8284   -2.8489 H   0  0  0  0  0  0  0  0  0  0  0  0
    2.2444    1.8862   -1.1524 C   0  0  0  0  0  0  0  0  0  0  0  0
    2.0991    3.0759   -0.9451 O   0  0  0  0  0  0  0  0  0  0  0  0
    3.3500    1.3131   -0.5987 N   0  0  0  0  0  0  0  0  0  0  0  0
    3.8138    1.9154    0.0743 H   0  0  0  0  0  0  0  0  0  0  0  0
    3.2513    0.3312   -0.3423 H   0  0  0  0  0  0  0  0  0  0  0  0
    0.7505   -0.2828    0.9605 C   0  0  0  0  0  0  0  0  0  0  0  0
    1.9485   -0.3757    1.1939 O   0  0  0  0  0  0  0  0  0  0  0  0
   -0.1012    0.2055    1.9337 N   0  0  0  0  0  0  0  0  0  0  0  0
   -1.0951    0.1704    1.7340 H   0  0  0  0  0  0  0  0  0  0  0  0
    0.3365    0.5088    3.2901 C   0  0  0  0  0  0  0  0  0  0  0  0
    1.1072    1.2867    3.2781 H   0  0  0  0  0  0  0  0  0  0  0  0
   -0.5061    0.8678    3.8885 H   0  0  0  0  0  0  0  0  0  0  0  0
    0.7463   -0.3865    3.7693 H   0  0  0  0  0  0  0  0  0  0  0  0
  1  2  1  0  0  0  0
  2  3  1  0  0  0  0
  2  4  1  0  0  0  0
  2  5  1  0  0  0  0
  5  6  2  0  0  0  0
  5  7  1  0  0  0  0
  7  8  1  0  0  0  0
  7  9  1  0  0  0  0
  9 10  1  0  0  0  0
  9 11  1  0  0  0  0
  9 22  1  0  0  0  0
 11 12  1  0  0  0  0
 11 13  1  0  0  0  0
 11 14  1  0  0  0  0
 14 15  1  0  0  0  0
 14 16  1  0  0  0  0
 14 17  1  0  0  0  0
 17 18  2  0  0  0  0
 17 19  1  0  0  0  0
 19 20  1  0  0  0  0
 19 21  1  0  0  0  0
 22 23  2  0  0  0  0
 22 24  1  0  0  0  0
 24 25  1  0  0  0  0
 24 26  1  0  0  0  0
 26 27  1  0  0  0  0
 26 28  1  0  0  0  0
 26 29  1  0  0  0  0
M  END
$$$$

  -OEChem-02102214123D

 29 28  0     1  0  0  0  0  0999 V2000
   -2.4639   -4.2970    0.5347 H   0  0  0  0  0  0  0  0  0  0  0  0
   -2.5114   -3.3309    0.0236 C   0  0  0  0  0  0  0  0  0  0  0  0
   -3.2744   -2.7159    0.5067 H   0  0  0  0  0  0  0  0  0  0  0  0
   -2.7922   -3.4988   -1.0189 H   0  0  0  0  0  0  0  0  0  0  0  0
   -1.1634   -2.6378    0.0942 C   0  0  0  0  0  0  0  0  0  0  0  0
   -0.2263   -3.1895    0.6414 O   0  0  0  0  0  0  0  0  0  0  0  0
   -1.0031   -1.3880   -0.4739 N   0  0  0  0  0  0  0  0  0  0  0  0
   -1.8116   -0.9883   -0.9406 H   0  0  0  0  0  0  0  0  0  0  0  0
    0.2520   -0.6126   -0.4331 C   0  0  1  0  0  0  0  0  0  0  0  0
    1.0330   -1.2255   -0.8967 H   0  0  0  0  0  0  0  0  0  0  0  0
    0.0275    0.6424   -1.3102 C   0  0  0  0  0  0  0  0  0  0  0  0
   -0.6876    0.4035   -2.1043 H   0  0  0  0  0  0  0  0  0  0  0  0
   -0.4202    1.4325   -0.6965 H   0  0  0  0  0  0  0  0  0  0  0  0
    1.2884    1.2016   -2.0007 C   0  0  0  0  0  0  0  0  0  0  0  0
    1.6926    0.4454   -2.6795 H   0  0  0  0  0  0  0  0  0  0  0  0
    1.0086    2.0673   -2.6080 H   0  0  0  0  0  0  0  0  0  0  0  0
    2.3937    1.6362   -1.0449 C   0  0  0  0  0  0  0  0  0  0  0  0
    2.3098    2.6968   -0.4553 O   0  0  0  0  0  0  0  0  0  0  0  0
    3.5205    0.8981   -0.8280 N   0  0  0  0  0  0  0  0  0  0  0  0
    4.0251    1.1829    0.0071 H   0  0  0  0  0  0  0  0  0  0  0  0
    3.4476   -0.0972   -1.0096 H   0  0  0  0  0  0  0  0  0  0  0  0
    0.7294   -0.2836    1.0023 C   0  0  0  0  0  0  0  0  0  0  0  0
    1.9122   -0.3996    1.2932 O   0  0  0  0  0  0  0  0  0  0  0  0
   -0.1649    0.1773    1.9513 N   0  0  0  0  0  0  0  0  0  0  0  0
   -1.1477    0.1735    1.7026 H   0  0  0  0  0  0  0  0  0  0  0  0
    0.2169    0.4738    3.3261 C   0  0  0  0  0  0  0  0  0  0  0  0
    1.0142    1.2244    3.3487 H   0  0  0  0  0  0  0  0  0  0  0  0
   -0.6404    0.8663    3.8808 H   0  0  0  0  0  0  0  0  0  0  0  0
    0.5713   -0.4325    3.8285 H   0  0  0  0  0  0  0  0  0  0  0  0
  1  2  1  0  0  0  0
  2  3  1  0  0  0  0
  2  4  1  0  0  0  0
  2  5  1  0  0  0  0
  5  6  2  0  0  0  0
  5  7  1  0  0  0  0
  7  8  1  0  0  0  0
  7  9  1  0  0  0  0
  9 10  1  0  0  0  0
  9 11  1  0  0  0  0
  9 22  1  0  0  0  0
 11 12  1  0  0  0  0
 11 13  1  0  0  0  0
 11 14  1  0  0  0  0
 14 15  1  0  0  0  0
 14 16  1  0  0  0  0
 14 17  1  0  0  0  0
 17 18  2  0  0  0  0
 17 19  1  0  0  0  0
 19 20  1  0  0  0  0
 19 21  1  0  0  0  0
 22 23  2  0  0  0  0
 22 24  1  0  0  0  0
 24 25  1  0  0  0  0
 24 26  1  0  0  0  0
 26 27  1  0  0  0  0
 26 28  1  0  0  0  0
 26 29  1  0  0  0  0
M  END
$$$$

  -OEChem-02102214123D

 29 28  0     1  0  0  0  0  0999 V2000
   -2.4462   -4.2949    0.4847 H   0  0  0  0  0  0  0  0  0  0  0  0
   -2.4867   -3.3243   -0.0180 C   0  0  0  0  0  0  0  0  0  0  0  0
   -3.2537   -2.7123    0.4625 H   0  0  0  0  0  0  0  0  0  0  0  0
   -2.7571   -3.4824   -1.0647 H   0  0  0  0  0  0  0  0  0  0  0  0
   -1.1382   -2.6348    0.0719 C   0  0  0  0  0  0  0  0  0  0  0  0
   -0.2062   -3.1939    0.6200 O   0  0  0  0  0  0  0  0  0  0  0  0
   -0.9707   -1.3799   -0.4829 N   0  0  0  0  0  0  0  0  0  0  0  0
   -1.7771   -0.9717   -0.9459 H   0  0  0  0  0  0  0  0  0  0  0  0
    0.2812   -0.6013   -0.4126 C   0  0  1  0  0  0  0  0  0  0  0  0
    1.0721   -1.2069   -0.8682 H   0  0  0  0  0  0  0  0  0  0  0  0
    0.0616    0.6616   -1.2806 C   0  0  0  0  0  0  0  0  0  0  0  0
   -0.6554    0.4383   -2.0779 H   0  0  0  0  0  0  0  0  0  0  0  0
   -0.3881    1.4368   -0.6500 H   0  0  0  0  0  0  0  0  0  0  0  0
    1.3127    1.2591   -1.9615 C   0  0  0  0  0  0  0  0  0  0  0  0
    1.5779    0.6294   -2.8152 H   0  0  0  0  0  0  0  0  0  0  0  0
    1.0638    2.2486   -2.3562 H   0  0  0  0  0  0  0  0  0  0  0  0
    2.5544    1.3892   -1.0866 C   0  0  0  0  0  0  0  0  0  0  0  0
    2.7615    2.4185   -0.4734 O   0  0  0  0  0  0  0  0  0  0  0  0
    3.5141    0.4219   -1.0078 N   0  0  0  0  0  0  0  0  0  0  0  0
    4.1300    0.5395   -0.2072 H   0  0  0  0  0  0  0  0  0  0  0  0
    3.2337   -0.5217   -1.2488 H   0  0  0  0  0  0  0  0  0  0  0  0
    0.7240   -0.2867    1.0381 C   0  0  0  0  0  0  0  0  0  0  0  0
    1.8950   -0.4191    1.3647 O   0  0  0  0  0  0  0  0  0  0  0  0
   -0.1957    0.1610    1.9692 N   0  0  0  0  0  0  0  0  0  0  0  0
   -1.1717    0.1533    1.6953 H   0  0  0  0  0  0  0  0  0  0  0  0
    0.1448    0.4056    3.3650 C   0  0  0  0  0  0  0  0  0  0  0  0
    0.9559    1.1378    3.4393 H   0  0  0  0  0  0  0  0  0  0  0  0
   -0.7228    0.7984    3.9035 H   0  0  0  0  0  0  0  0  0  0  0  0
    0.4634   -0.5240    3.8483 H   0  0  0  0  0  0  0  0  0  0  0  0
  1  2  1  0  0  0  0
  2  3  1  0  0  0  0
  2  4  1  0  0  0  0
  2  5  1  0  0  0  0
  5  6  2  0  0  0  0
  5  7  1  0  0  0  0
  7  8  1  0  0  0  0
  7  9  1  0  0  0  0
  9 10  1  0  0  0  0
  9 11  1  0  0  0  0
  9 22  1  0  0  0  0
 11 12  1  0  0  0  0
 11 13  1  0  0  0  0
 11 14  1  0  0  0  0
 14 15  1  0  0  0  0
 14 16  1  0  0  0  0
 14 17  1  0  0  0  0
 17 18  2  0  0  0  0
 17 19  1  0  0  0  0
 19 20  1  0  0  0  0
 19 21  1  0  0  0  0
 22 23  2  0  0  0  0
 22 24  1  0  0  0  0
 24 25  1  0  0  0  0
 24 26  1  0  0  0  0
 26 27  1  0  0  0  0
 26 28  1  0  0  0  0
 26 29  1  0  0  0  0
M  END
$$$$

  -OEChem-02102214123D

 29 28  0     1  0  0  0  0  0999 V2000
   -2.4696   -4.3122    0.3582 H   0  0  0  0  0  0  0  0  0  0  0  0
   -2.4989   -3.3264   -0.1150 C   0  0  0  0  0  0  0  0  0  0  0  0
   -3.2838   -2.7328    0.3596 H   0  0  0  0  0  0  0  0  0  0  0  0
   -2.7350   -3.4526   -1.1744 H   0  0  0  0  0  0  0  0  0  0  0  0
   -1.1581   -2.6336    0.0393 C   0  0  0  0  0  0  0  0  0  0  0  0
   -0.2457   -3.1972    0.6151 O   0  0  0  0  0  0  0  0  0  0  0  0
   -0.9722   -1.3716   -0.4928 N   0  0  0  0  0  0  0  0  0  0  0  0
   -1.7570   -0.9649   -0.9931 H   0  0  0  0  0  0  0  0  0  0  0  0
    0.2828   -0.6024   -0.3871 C   0  0  1  0  0  0  0  0  0  0  0  0
    1.0681   -1.2168   -0.8368 H   0  0  0  0  0  0  0  0  0  0  0  0
    0.0986    0.6782   -1.2357 C   0  0  0  0  0  0  0  0  0  0  0  0
   -0.6135    0.4813   -2.0440 H   0  0  0  0  0  0  0  0  0  0  0  0
   -0.3539    1.4407   -0.5922 H   0  0  0  0  0  0  0  0  0  0  0  0
    1.3575    1.2974   -1.8916 C   0  0  0  0  0  0  0  0  0  0  0  0
    1.4747    0.8513   -2.8830 H   0  0  0  0  0  0  0  0  0  0  0  0
    1.1828    2.3674   -2.0420 H   0  0  0  0  0  0  0  0  0  0  0  0
    2.6983    1.1235   -1.1802 C   0  0  0  0  0  0  0  0  0  0  0  0
    3.2431    2.0820   -0.6680 O   0  0  0  0  0  0  0  0  0  0  0  0
    3.4315   -0.0278   -1.2282 N   0  0  0  0  0  0  0  0  0  0  0  0
    4.1863   -0.0481   -0.5473 H   0  0  0  0  0  0  0  0  0  0  0  0
    2.9300   -0.8899   -1.4053 H   0  0  0  0  0  0  0  0  0  0  0  0
    0.7097   -0.3070    1.0717 C   0  0  0  0  0  0  0  0  0  0  0  0
    1.8828   -0.4111    1.3980 O   0  0  0  0  0  0  0  0  0  0  0  0
   -0.2178    0.1360    1.9974 N   0  0  0  0  0  0  0  0  0  0  0  0
   -1.1936    0.0978    1.7251 H   0  0  0  0  0  0  0  0  0  0  0  0
    0.1157    0.3754    3.3961 C   0  0  0  0  0  0  0  0  0  0  0  0
    0.9171    1.1176    3.4767 H   0  0  0  0  0  0  0  0  0  0  0  0
   -0.7584    0.7530    3.9349 H   0  0  0  0  0  0  0  0  0  0  0  0
    0.4456   -0.5525    3.8751 H   0  0  0  0  0  0  0  0  0  0  0  0
  1  2  1  0  0  0  0
  2  3  1  0  0  0  0
  2  4  1  0  0  0  0
  2  5  1  0  0  0  0
  5  6  2  0  0  0  0
  5  7  1  0  0  0  0
  7  8  1  0  0  0  0
  7  9  1  0  0  0  0
  9 10  1  0  0  0  0
  9 11  1  0  0  0  0
  9 22  1  0  0  0  0
 11 12  1  0  0  0  0
 11 13  1  0  0  0  0
 11 14  1  0  0  0  0
 14 15  1  0  0  0  0
 14 16  1  0  0  0  0
 14 17  1  0  0  0  0
 17 18  2  0  0  0  0
 17 19  1  0  0  0  0
 19 20  1  0  0  0  0
 19 21  1  0  0  0  0
 22 23  2  0  0  0  0
 22 24  1  0  0  0  0
 24 25  1  0  0  0  0
 24 26  1  0  0  0  0
 26 27  1  0  0  0  0
 26 28  1  0  0  0  0
 26 29  1  0  0  0  0
M  END
$$$$

  -OEChem-02102214123D

 29 28  0     1  0  0  0  0  0999 V2000
   -2.8214   -4.1285    0.8269 H   0  0  0  0  0  0  0  0  0  0  0  0
   -2.7450   -3.2559    0.1716 C   0  0  0  0  0  0  0  0  0  0  0  0
   -3.5560   -2.5643    0.4116 H   0  0  0  0  0  0  0  0  0  0  0  0
   -2.8490   -3.5859   -0.8649 H   0  0  0  0  0  0  0  0  0  0  0  0
   -1.4038   -2.5741    0.3661 C   0  0  0  0  0  0  0  0  0  0  0  0
   -0.6083   -3.0262    1.1688 O   0  0  0  0  0  0  0  0  0  0  0  0
   -1.1026   -1.4390   -0.3644 N   0  0  0  0  0  0  0  0  0  0  0  0
   -1.7680   -1.1977   -1.0929 H   0  0  0  0  0  0  0  0  0  0  0  0
    0.2414   -0.8272   -0.4307 C   0  0  1  0  0  0  0  0  0  0  0  0
    0.9394   -1.5673   -0.8387 H   0  0  0  0  0  0  0  0  0  0  0  0
    0.1510    0.4038   -1.3671 C   0  0  0  0  0  0  0  0  0  0  0  0
   -0.6440    0.2330   -2.1003 H   0  0  0  0  0  0  0  0  0  0  0  0
   -0.1563    1.2707   -0.7721 H   0  0  0  0  0  0  0  0  0  0  0  0
    1.4185    0.7914   -2.1725 C   0  0  0  0  0  0  0  0  0  0  0  0
    1.2508    0.5072   -3.2162 H   0  0  0  0  0  0  0  0  0  0  0  0
    1.5227    1.8798   -2.1558 H   0  0  0  0  0  0  0  0  0  0  0  0
    2.7623    0.1880   -1.7670 C   0  0  0  0  0  0  0  0  0  0  0  0
    3.2548   -0.7071   -2.4269 O   0  0  0  0  0  0  0  0  0  0  0  0
    3.5545    0.7105   -0.7893 N   0  0  0  0  0  0  0  0  0  0  0  0
    4.3581    0.1229   -0.5888 H   0  0  0  0  0  0  0  0  0  0  0  0
    3.0524    1.0784    0.0156 H   0  0  0  0  0  0  0  0  0  0  0  0
    0.7421   -0.3914    0.9734 C   0  0  0  0  0  0  0  0  0  0  0  0
    1.9338   -0.3883    1.2464 O   0  0  0  0  0  0  0  0  0  0  0  0
   -0.1200    0.2784    1.8242 N   0  0  0  0  0  0  0  0  0  0  0  0
   -1.1084    0.1482    1.6336 H   0  0  0  0  0  0  0  0  0  0  0  0
    0.2734    0.7168    3.1583 C   0  0  0  0  0  0  0  0  0  0  0  0
    1.1100    1.4210    3.1015 H   0  0  0  0  0  0  0  0  0  0  0  0
   -0.5634    1.2185    3.6533 H   0  0  0  0  0  0  0  0  0  0  0  0
    0.5755   -0.1405    3.7690 H   0  0  0  0  0  0  0  0  0  0  0  0
  1  2  1  0  0  0  0
  2  3  1  0  0  0  0
  2  4  1  0  0  0  0
  2  5  1  0  0  0  0
  5  6  2  0  0  0  0
  5  7  1  0  0  0  0
  7  8  1  0  0  0  0
  7  9  1  0  0  0  0
  9 10  1  0  0  0  0
  9 11  1  0  0  0  0
  9 22  1  0  0  0  0
 11 12  1  0  0  0  0
 11 13  1  0  0  0  0
 11 14  1  0  0  0  0
 14 15  1  0  0  0  0
 14 16  1  0  0  0  0
 14 17  1  0  0  0  0
 17 18  2  0  0  0  0
 17 19  1  0  0  0  0
 19 20  1  0  0  0  0
 19 21  1  0  0  0  0
 22 23  2  0  0  0  0
 22 24  1  0  0  0  0
 24 25  1  0  0  0  0
 24 26  1  0  0  0  0
 26 27  1  0  0  0  0
 26 28  1  0  0  0  0
 26 29  1  0  0  0  0
M  END
$$$$

  -OEChem-02102214123D

 29 28  0     1  0  0  0  0  0999 V2000
   -2.7375   -4.1936    0.8087 H   0  0  0  0  0  0  0  0  0  0  0  0
   -2.6904   -3.3188    0.1536 C   0  0  0  0  0  0  0  0  0  0  0  0
   -3.5193   -2.6512    0.3997 H   0  0  0  0  0  0  0  0  0  0  0  0
   -2.7926   -3.6508   -0.8825 H   0  0  0  0  0  0  0  0  0  0  0  0
   -1.3676   -2.5993    0.3397 C   0  0  0  0  0  0  0  0  0  0  0  0
   -0.5435   -3.0417    1.1192 O   0  0  0  0  0  0  0  0  0  0  0  0
   -1.1132   -1.4398   -0.3697 N   0  0  0  0  0  0  0  0  0  0  0  0
   -1.7954   -1.2041   -1.0847 H   0  0  0  0  0  0  0  0  0  0  0  0
    0.2126   -0.7923   -0.4449 C   0  0  1  0  0  0  0  0  0  0  0  0
    0.9100   -1.5171   -0.8784 H   0  0  0  0  0  0  0  0  0  0  0  0
    0.0930    0.4615   -1.3466 C   0  0  0  0  0  0  0  0  0  0  0  0
   -0.6941    0.2728   -2.0837 H   0  0  0  0  0  0  0  0  0  0  0  0
   -0.2458    1.3098   -0.7415 H   0  0  0  0  0  0  0  0  0  0  0  0
    1.3442    0.8957   -2.1558 C   0  0  0  0  0  0  0  0  0  0  0  0
    1.0779    0.9243   -3.2168 H   0  0  0  0  0  0  0  0  0  0  0  0
    1.5986    1.9196   -1.8678 H   0  0  0  0  0  0  0  0  0  0  0  0
    2.6197    0.0636   -2.0257 C   0  0  0  0  0  0  0  0  0  0  0  0
    2.8956   -0.7680   -2.8694 O   0  0  0  0  0  0  0  0  0  0  0  0
    3.5558    0.2564   -1.0549 N   0  0  0  0  0  0  0  0  0  0  0  0
    4.2748   -0.4601   -1.0479 H   0  0  0  0  0  0  0  0  0  0  0  0
    3.1873    0.5469   -0.1481 H   0  0  0  0  0  0  0  0  0  0  0  0
    0.7447   -0.3698    0.9506 C   0  0  0  0  0  0  0  0  0  0  0  0
    1.9474   -0.3116    1.1693 O   0  0  0  0  0  0  0  0  0  0  0  0
   -0.1079    0.2628    1.8384 N   0  0  0  0  0  0  0  0  0  0  0  0
   -1.0983    0.1046    1.6814 H   0  0  0  0  0  0  0  0  0  0  0  0
    0.3198    0.7142    3.1573 C   0  0  0  0  0  0  0  0  0  0  0  0
    1.1267    1.4493    3.0699 H   0  0  0  0  0  0  0  0  0  0  0  0
   -0.5155    1.1839    3.6855 H   0  0  0  0  0  0  0  0  0  0  0  0
    0.6767   -0.1322    3.7535 H   0  0  0  0  0  0  0  0  0  0  0  0
  1  2  1  0  0  0  0
  2  3  1  0  0  0  0
  2  4  1  0  0  0  0
  2  5  1  0  0  0  0
  5  6  2  0  0  0  0
  5  7  1  0  0  0  0
  7  8  1  0  0  0  0
  7  9  1  0  0  0  0
  9 10  1  0  0  0  0
  9 11  1  0  0  0  0
  9 22  1  0  0  0  0
 11 12  1  0  0  0  0
 11 13  1  0  0  0  0
 11 14  1  0  0  0  0
 14 15  1  0  0  0  0
 14 16  1  0  0  0  0
 14 17  1  0  0  0  0
 17 18  2  0  0  0  0
 17 19  1  0  0  0  0
 19 20  1  0  0  0  0
 19 21  1  0  0  0  0
 22 23  2  0  0  0  0
 22 24  1  0  0  0  0
 24 25  1  0  0  0  0
 24 26  1  0  0  0  0
 26 27  1  0  0  0  0
 26 28  1  0  0  0  0
 26 29  1  0  0  0  0
M  END
$$$$

  -OEChem-02102214123D

 29 28  0     1  0  0  0  0  0999 V2000
   -2.6395   -4.2721    0.7301 H   0  0  0  0  0  0  0  0  0  0  0  0
   -2.6237   -3.3879    0.0864 C   0  0  0  0  0  0  0  0  0  0  0  0
   -3.4807   -2.7575    0.3346 H   0  0  0  0  0  0  0  0  0  0  0  0
   -2.7051   -3.7108   -0.9543 H   0  0  0  0  0  0  0  0  0  0  0  0
   -1.3328   -2.6176    0.2902 C   0  0  0  0  0  0  0  0  0  0  0  0
   -0.4865   -3.0459    1.0541 O   0  0  0  0  0  0  0  0  0  0  0  0
   -1.1308   -1.4271   -0.3830 N   0  0  0  0  0  0  0  0  0  0  0  0
   -1.8244   -1.1988   -1.0894 H   0  0  0  0  0  0  0  0  0  0  0  0
    0.1737   -0.7396   -0.4543 C   0  0  1  0  0  0  0  0  0  0  0  0
    0.8694   -1.4501   -0.9115 H   0  0  0  0  0  0  0  0  0  0  0  0
    0.0265    0.5277   -1.3316 C   0  0  0  0  0  0  0  0  0  0  0  0
   -0.7408    0.3157   -2.0835 H   0  0  0  0  0  0  0  0  0  0  0  0
   -0.3490    1.3591   -0.7250 H   0  0  0  0  0  0  0  0  0  0  0  0
    1.2744    0.9972   -2.1242 C   0  0  0  0  0  0  0  0  0  0  0  0
    0.9648    1.3177   -3.1234 H   0  0  0  0  0  0  0  0  0  0  0  0
    1.6821    1.8779   -1.6201 H   0  0  0  0  0  0  0  0  0  0  0  0
    2.4260    0.0046   -2.2721 C   0  0  0  0  0  0  0  0  0  0  0  0
    2.4847   -0.7296   -3.2400 O   0  0  0  0  0  0  0  0  0  0  0  0
    3.4286   -0.1250   -1.3574 N   0  0  0  0  0  0  0  0  0  0  0  0
    4.0108   -0.9452   -1.4930 H   0  0  0  0  0  0  0  0  0  0  0  0
    3.2003    0.1434   -0.3975 H   0  0  0  0  0  0  0  0  0  0  0  0
    0.7523   -0.3339    0.9245 C   0  0  0  0  0  0  0  0  0  0  0  0
    1.9646   -0.2404    1.0745 O   0  0  0  0  0  0  0  0  0  0  0  0
   -0.0739    0.2563    1.8639 N   0  0  0  0  0  0  0  0  0  0  0  0
   -1.0659    0.0714    1.7524 H   0  0  0  0  0  0  0  0  0  0  0  0
    0.4056    0.7037    3.1661 C   0  0  0  0  0  0  0  0  0  0  0  0
    1.1986    1.4498    3.0488 H   0  0  0  0  0  0  0  0  0  0  0  0
   -0.4117    1.1588    3.7337 H   0  0  0  0  0  0  0  0  0  0  0  0
    0.7998   -0.1422    3.7395 H   0  0  0  0  0  0  0  0  0  0  0  0
  1  2  1  0  0  0  0
  2  3  1  0  0  0  0
  2  4  1  0  0  0  0
  2  5  1  0  0  0  0
  5  6  2  0  0  0  0
  5  7  1  0  0  0  0
  7  8  1  0  0  0  0
  7  9  1  0  0  0  0
  9 10  1  0  0  0  0
  9 11  1  0  0  0  0
  9 22  1  0  0  0  0
 11 12  1  0  0  0  0
 11 13  1  0  0  0  0
 11 14  1  0  0  0  0
 14 15  1  0  0  0  0
 14 16  1  0  0  0  0
 14 17  1  0  0  0  0
 17 18  2  0  0  0  0
 17 19  1  0  0  0  0
 19 20  1  0  0  0  0
 19 21  1  0  0  0  0
 22 23  2  0  0  0  0
 22 24  1  0  0  0  0
 24 25  1  0  0  0  0
 24 26  1  0  0  0  0
 26 27  1  0  0  0  0
 26 28  1  0  0  0  0
 26 29  1  0  0  0  0
M  END
$$$$

  -OEChem-02102214123D

 29 28  0     1  0  0  0  0  0999 V2000
   -2.5388   -4.3549    0.5956 H   0  0  0  0  0  0  0  0  0  0  0  0
   -2.5632   -3.4449   -0.0110 C   0  0  0  0  0  0  0  0  0  0  0  0
   -3.4431   -2.8603    0.2678 H   0  0  0  0  0  0  0  0  0  0  0  0
   -2.6390   -3.7277   -1.0638 H   0  0  0  0  0  0  0  0  0  0  0  0
   -1.3030   -2.6317    0.2169 C   0  0  0  0  0  0  0  0  0  0  0  0
   -0.4337   -3.0536    0.9586 O   0  0  0  0  0  0  0  0  0  0  0  0
   -1.1528   -1.4081   -0.4077 N   0  0  0  0  0  0  0  0  0  0  0  0
   -1.8588   -1.1774   -1.1011 H   0  0  0  0  0  0  0  0  0  0  0  0
    0.1262   -0.6757   -0.4589 C   0  0  1  0  0  0  0  0  0  0  0  0
    0.8248   -1.3719   -0.9304 H   0  0  0  0  0  0  0  0  0  0  0  0
   -0.0418    0.5911   -1.3317 C   0  0  0  0  0  0  0  0  0  0  0  0
   -0.7820    0.3627   -2.1057 H   0  0  0  0  0  0  0  0  0  0  0  0
   -0.4495    1.4108   -0.7303 H   0  0  0  0  0  0  0  0  0  0  0  0
    1.2228    1.0781   -2.0807 C   0  0  0  0  0  0  0  0  0  0  0  0
    0.9237    1.6303   -2.9762 H   0  0  0  0  0  0  0  0  0  0  0  0
    1.7542    1.7807   -1.4322 H   0  0  0  0  0  0  0  0  0  0  0  0
    2.2220   -0.0018   -2.4830 C   0  0  0  0  0  0  0  0  0  0  0  0
    2.0886   -0.6230   -3.5203 O   0  0  0  0  0  0  0  0  0  0  0  0
    3.2448   -0.3851   -1.6645 N   0  0  0  0  0  0  0  0  0  0  0  0
    3.6942   -1.2584   -1.9206 H   0  0  0  0  0  0  0  0  0  0  0  0
    3.1507   -0.1554   -0.6721 H   0  0  0  0  0  0  0  0  0  0  0  0
    0.7483   -0.2851    0.8999 C   0  0  0  0  0  0  0  0  0  0  0  0
    1.9666   -0.1696    0.9813 O   0  0  0  0  0  0  0  0  0  0  0  0
   -0.0465    0.2567    1.8928 N   0  0  0  0  0  0  0  0  0  0  0  0
   -1.0384    0.0510    1.8239 H   0  0  0  0  0  0  0  0  0  0  0  0
    0.4864    0.6870    3.1794 C   0  0  0  0  0  0  0  0  0  0  0  0
    1.2518    1.4580    3.0408 H   0  0  0  0  0  0  0  0  0  0  0  0
   -0.3127    1.1053    3.7986 H   0  0  0  0  0  0  0  0  0  0  0  0
    0.9321   -0.1601    3.7113 H   0  0  0  0  0  0  0  0  0  0  0  0
  1  2  1  0  0  0  0
  2  3  1  0  0  0  0
  2  4  1  0  0  0  0
  2  5  1  0  0  0  0
  5  6  2  0  0  0  0
  5  7  1  0  0  0  0
  7  8  1  0  0  0  0
  7  9  1  0  0  0  0
  9 10  1  0  0  0  0
  9 11  1  0  0  0  0
  9 22  1  0  0  0  0
 11 12  1  0  0  0  0
 11 13  1  0  0  0  0
 11 14  1  0  0  0  0
 14 15  1  0  0  0  0
 14 16  1  0  0  0  0
 14 17  1  0  0  0  0
 17 18  2  0  0  0  0
 17 19  1  0  0  0  0
 19 20  1  0  0  0  0
 19 21  1  0  0  0  0
 22 23  2  0  0  0  0
 22 24  1  0  0  0  0
 24 25  1  0  0  0  0
 24 26  1  0  0  0  0
 26 27  1  0  0  0  0
 26 28  1  0  0  0  0
 26 29  1  0  0  0  0
M  END
$$$$

  -OEChem-02102214123D

 29 28  0     1  0  0  0  0  0999 V2000
   -2.4707   -4.3973    0.4796 H   0  0  0  0  0  0  0  0  0  0  0  0
   -2.5138   -3.4754   -0.1076 C   0  0  0  0  0  0  0  0  0  0  0  0
   -3.4093   -2.9185    0.1781 H   0  0  0  0  0  0  0  0  0  0  0  0
   -2.5769   -3.7363   -1.1669 H   0  0  0  0  0  0  0  0  0  0  0  0
   -1.2753   -2.6366    0.1462 C   0  0  0  0  0  0  0  0  0  0  0  0
   -0.3923   -3.0593    0.8713 O   0  0  0  0  0  0  0  0  0  0  0  0
   -1.1620   -1.3869   -0.4321 N   0  0  0  0  0  0  0  0  0  0  0  0
   -1.8742   -1.1517   -1.1177 H   0  0  0  0  0  0  0  0  0  0  0  0
    0.0945   -0.6169   -0.4561 C   0  0  1  0  0  0  0  0  0  0  0  0
    0.8088   -1.2886   -0.9385 H   0  0  0  0  0  0  0  0  0  0  0  0
   -0.0971    0.6508   -1.3211 C   0  0  0  0  0  0  0  0  0  0  0  0
   -0.8200    0.4228   -2.1115 H   0  0  0  0  0  0  0  0  0  0  0  0
   -0.5217    1.4577   -0.7144 H   0  0  0  0  0  0  0  0  0  0  0  0
    1.1846    1.1489   -2.0235 C   0  0  0  0  0  0  0  0  0  0  0  0
    0.9169    1.8926   -2.7795 H   0  0  0  0  0  0  0  0  0  0  0  0
    1.8187    1.6498   -1.2861 H   0  0  0  0  0  0  0  0  0  0  0  0
    2.0092    0.0563   -2.6906 C   0  0  0  0  0  0  0  0  0  0  0  0
    1.6509   -0.4622   -3.7312 O   0  0  0  0  0  0  0  0  0  0  0  0
    3.0946   -0.4870   -2.0646 N   0  0  0  0  0  0  0  0  0  0  0  0
    3.4218   -1.3695   -2.4449 H   0  0  0  0  0  0  0  0  0  0  0  0
    3.1941   -0.3080   -1.0647 H   0  0  0  0  0  0  0  0  0  0  0  0
    0.7309   -0.2450    0.8980 C   0  0  0  0  0  0  0  0  0  0  0  0
    1.9503   -0.1228    0.9529 O   0  0  0  0  0  0  0  0  0  0  0  0
   -0.0511    0.2478    1.9255 N   0  0  0  0  0  0  0  0  0  0  0  0
   -1.0410    0.0283    1.8720 H   0  0  0  0  0  0  0  0  0  0  0  0
    0.5061    0.6401    3.2140 C   0  0  0  0  0  0  0  0  0  0  0  0
    1.2423    1.4408    3.0870 H   0  0  0  0  0  0  0  0  0  0  0  0
   -0.2869    1.0046    3.8739 H   0  0  0  0  0  0  0  0  0  0  0  0
    0.9941   -0.2141    3.6952 H   0  0  0  0  0  0  0  0  0  0  0  0
  1  2  1  0  0  0  0
  2  3  1  0  0  0  0
  2  4  1  0  0  0  0
  2  5  1  0  0  0  0
  5  6  2  0  0  0  0
  5  7  1  0  0  0  0
  7  8  1  0  0  0  0
  7  9  1  0  0  0  0
  9 10  1  0  0  0  0
  9 11  1  0  0  0  0
  9 22  1  0  0  0  0
 11 12  1  0  0  0  0
 11 13  1  0  0  0  0
 11 14  1  0  0  0  0
 14 15  1  0  0  0  0
 14 16  1  0  0  0  0
 14 17  1  0  0  0  0
 17 18  2  0  0  0  0
 17 19  1  0  0  0  0
 19 20  1  0  0  0  0
 19 21  1  0  0  0  0
 22 23  2  0  0  0  0
 22 24  1  0  0  0  0
 24 25  1  0  0  0  0
 24 26  1  0  0  0  0
 26 27  1  0  0  0  0
 26 28  1  0  0  0  0
 26 29  1  0  0  0  0
M  END
$$$$

  -OEChem-02102214123D

 29 28  0     1  0  0  0  0  0999 V2000
   -2.4357   -4.3900    0.4322 H   0  0  0  0  0  0  0  0  0  0  0  0
   -2.4795   -3.4612   -0.1439 C   0  0  0  0  0  0  0  0  0  0  0  0
   -3.3733   -2.9069    0.1519 H   0  0  0  0  0  0  0  0  0  0  0  0
   -2.5463   -3.7093   -1.2060 H   0  0  0  0  0  0  0  0  0  0  0  0
   -1.2394   -2.6270    0.1160 C   0  0  0  0  0  0  0  0  0  0  0  0
   -0.3546   -3.0616    0.8317 O   0  0  0  0  0  0  0  0  0  0  0  0
   -1.1285   -1.3695   -0.4458 N   0  0  0  0  0  0  0  0  0  0  0  0
   -1.8389   -1.1274   -1.1311 H   0  0  0  0  0  0  0  0  0  0  0  0
    0.1198   -0.5852   -0.4464 C   0  0  1  0  0  0  0  0  0  0  0  0
    0.8632   -1.2191   -0.9389 H   0  0  0  0  0  0  0  0  0  0  0  0
   -0.0934    0.6987   -1.2789 C   0  0  0  0  0  0  0  0  0  0  0  0
   -0.8253    0.5017   -2.0699 H   0  0  0  0  0  0  0  0  0  0  0  0
   -0.5062    1.4886   -0.6424 H   0  0  0  0  0  0  0  0  0  0  0  0
    1.1978    1.1995   -1.9545 C   0  0  0  0  0  0  0  0  0  0  0  0
    0.9811    2.1112   -2.5179 H   0  0  0  0  0  0  0  0  0  0  0  0
    1.9377    1.4566   -1.1912 H   0  0  0  0  0  0  0  0  0  0  0  0
    1.8000    0.1800   -2.9127 C   0  0  0  0  0  0  0  0  0  0  0  0
    1.1911   -0.2082   -3.8923 O   0  0  0  0  0  0  0  0  0  0  0  0
    2.9713   -0.4594   -2.6244 N   0  0  0  0  0  0  0  0  0  0  0  0
    3.1642   -1.2942   -3.1693 H   0  0  0  0  0  0  0  0  0  0  0  0
    3.3377   -0.3790   -1.6785 H   0  0  0  0  0  0  0  0  0  0  0  0
    0.7114   -0.2367    0.9357 C   0  0  0  0  0  0  0  0  0  0  0  0
    1.9262   -0.1175    1.0454 O   0  0  0  0  0  0  0  0  0  0  0  0
   -0.1117    0.2247    1.9459 N   0  0  0  0  0  0  0  0  0  0  0  0
   -1.0975    0.0029    1.8479 H   0  0  0  0  0  0  0  0  0  0  0  0
    0.3931    0.5866    3.2641 C   0  0  0  0  0  0  0  0  0  0  0  0
    1.1215    1.4004    3.1854 H   0  0  0  0  0  0  0  0  0  0  0  0
   -0.4280    0.9209    3.9051 H   0  0  0  0  0  0  0  0  0  0  0  0
    0.8760   -0.2746    3.7378 H   0  0  0  0  0  0  0  0  0  0  0  0
  1  2  1  0  0  0  0
  2  3  1  0  0  0  0
  2  4  1  0  0  0  0
  2  5  1  0  0  0  0
  5  6  2  0  0  0  0
  5  7  1  0  0  0  0
  7  8  1  0  0  0  0
  7  9  1  0  0  0  0
  9 10  1  0  0  0  0
  9 11  1  0  0  0  0
  9 22  1  0  0  0  0
 11 12  1  0  0  0  0
 11 13  1  0  0  0  0
 11 14  1  0  0  0  0
 14 15  1  0  0  0  0
 14 16  1  0  0  0  0
 14 17  1  0  0  0  0
 17 18  2  0  0  0  0
 17 19  1  0  0  0  0
 19 20  1  0  0  0  0
 19 21  1  0  0  0  0
 22 23  2  0  0  0  0
 22 24  1  0  0  0  0
 24 25  1  0  0  0  0
 24 26  1  0  0  0  0
 26 27  1  0  0  0  0
 26 28  1  0  0  0  0
 26 29  1  0  0  0  0
M  END
$$$$

  -OEChem-02102214123D

 29 28  0     1  0  0  0  0  0999 V2000
   -2.3942   -4.4210    0.3092 H   0  0  0  0  0  0  0  0  0  0  0  0
   -2.4833   -3.4360   -0.1579 C   0  0  0  0  0  0  0  0  0  0  0  0
   -3.3587   -2.9288    0.2548 H   0  0  0  0  0  0  0  0  0  0  0  0
   -2.6205   -3.5699   -1.2336 H   0  0  0  0  0  0  0  0  0  0  0  0
   -1.2348   -2.6163    0.1089 C   0  0  0  0  0  0  0  0  0  0  0  0
   -0.3549   -3.0654    0.8215 O   0  0  0  0  0  0  0  0  0  0  0  0
   -1.1113   -1.3570   -0.4458 N   0  0  0  0  0  0  0  0  0  0  0  0
   -1.8170   -1.1035   -1.1319 H   0  0  0  0  0  0  0  0  0  0  0  0
    0.1360   -0.5713   -0.4234 C   0  0  1  0  0  0  0  0  0  0  0  0
    0.8982   -1.1844   -0.9168 H   0  0  0  0  0  0  0  0  0  0  0  0
   -0.0804    0.7144   -1.2476 C   0  0  0  0  0  0  0  0  0  0  0  0
   -0.8230    0.5428   -2.0346 H   0  0  0  0  0  0  0  0  0  0  0  0
   -0.4779    1.5000   -0.5962 H   0  0  0  0  0  0  0  0  0  0  0  0
    1.2273    1.2042   -1.8977 C   0  0  0  0  0  0  0  0  0  0  0  0
    1.0879    2.2291   -2.2517 H   0  0  0  0  0  0  0  0  0  0  0  0
    2.0361    1.2221   -1.1620 H   0  0  0  0  0  0  0  0  0  0  0  0
    1.6323    0.3518   -3.0952 C   0  0  0  0  0  0  0  0  0  0  0  0
    0.8536    0.0879   -3.9929 O   0  0  0  0  0  0  0  0  0  0  0  0
    2.8495   -0.2636   -3.1497 N   0  0  0  0  0  0  0  0  0  0  0  0
    2.9480   -0.9930   -3.8495 H   0  0  0  0  0  0  0  0  0  0  0  0
    3.4170   -0.2878   -2.3073 H   0  0  0  0  0  0  0  0  0  0  0  0
    0.6876   -0.2362    0.9804 C   0  0  0  0  0  0  0  0  0  0  0  0
    1.8977   -0.1329    1.1400 O   0  0  0  0  0  0  0  0  0  0  0  0
   -0.1671    0.2141    1.9696 N   0  0  0  0  0  0  0  0  0  0  0  0
   -1.1514    0.0080    1.8310 H   0  0  0  0  0  0  0  0  0  0  0  0
    0.2934    0.5488    3.3112 C   0  0  0  0  0  0  0  0  0  0  0  0
    1.0455    1.3439    3.2721 H   0  0  0  0  0  0  0  0  0  0  0  0
   -0.5438    0.8985    3.9226 H   0  0  0  0  0  0  0  0  0  0  0  0
    0.7345   -0.3296    3.7941 H   0  0  0  0  0  0  0  0  0  0  0  0
  1  2  1  0  0  0  0
  2  3  1  0  0  0  0
  2  4  1  0  0  0  0
  2  5  1  0  0  0  0
  5  6  2  0  0  0  0
  5  7  1  0  0  0  0
  7  8  1  0  0  0  0
  7  9  1  0  0  0  0
  9 10  1  0  0  0  0
  9 11  1  0  0  0  0
  9 22  1  0  0  0  0
 11 12  1  0  0  0  0
 11 13  1  0  0  0  0
 11 14  1  0  0  0  0
 14 15  1  0  0  0  0
 14 16  1  0  0  0  0
 14 17  1  0  0  0  0
 17 18  2  0  0  0  0
 17 19  1  0  0  0  0
 19 20  1  0  0  0  0
 19 21  1  0  0  0  0
 22 23  2  0  0  0  0
 22 24  1  0  0  0  0
 24 25  1  0  0  0  0
 24 26  1  0  0  0  0
 26 27  1  0  0  0  0
 26 28  1  0  0  0  0
 26 29  1  0  0  0  0
M  END
$$$$

  -OEChem-02102214123D

 29 28  0     1  0  0  0  0  0999 V2000
   -2.6615   -4.3220    0.4445 H   0  0  0  0  0  0  0  0  0  0  0  0
   -2.6378   -3.3895   -0.1267 C   0  0  0  0  0  0  0  0  0  0  0  0
   -3.5239   -2.8015    0.1238 H   0  0  0  0  0  0  0  0  0  0  0  0
   -2.6565   -3.6303   -1.1924 H   0  0  0  0  0  0  0  0  0  0  0  0
   -1.3817   -2.6057    0.2043 C   0  0  0  0  0  0  0  0  0  0  0  0
   -0.5755   -3.0609    0.9960 O   0  0  0  0  0  0  0  0  0  0  0  0
   -1.1724   -1.3725   -0.3827 N   0  0  0  0  0  0  0  0  0  0  0  0
   -1.8139   -1.1346   -1.1343 H   0  0  0  0  0  0  0  0  0  0  0  0
    0.1197   -0.6618   -0.3522 C   0  0  1  0  0  0  0  0  0  0  0  0
    0.8584   -1.3210   -0.8224 H   0  0  0  0  0  0  0  0  0  0  0  0
   -0.0129    0.6203   -1.1990 C   0  0  0  0  0  0  0  0  0  0  0  0
   -0.7734    0.4969   -1.9773 H   0  0  0  0  0  0  0  0  0  0  0  0
   -0.3573    1.4358   -0.5541 H   0  0  0  0  0  0  0  0  0  0  0  0
    1.3351    1.0197   -1.8392 C   0  0  0  0  0  0  0  0  0  0  0  0
    1.3487    2.1056   -1.9655 H   0  0  0  0  0  0  0  0  0  0  0  0
    2.1665    0.7593   -1.1783 H   0  0  0  0  0  0  0  0  0  0  0  0
    1.5728    0.4028   -3.2174 C   0  0  0  0  0  0  0  0  0  0  0  0
    0.7362   -0.2528   -3.8126 O   0  0  0  0  0  0  0  0  0  0  0  0
    2.7726    0.5431   -3.8528 N   0  0  0  0  0  0  0  0  0  0  0  0
    2.9143   -0.0518   -4.6639 H   0  0  0  0  0  0  0  0  0  0  0  0
    3.5704    0.8673   -3.3158 H   0  0  0  0  0  0  0  0  0  0  0  0
    0.6507   -0.3245    1.0608 C   0  0  0  0  0  0  0  0  0  0  0  0
    1.8583   -0.2724    1.2584 O   0  0  0  0  0  0  0  0  0  0  0  0
   -0.2088    0.2003    2.0088 N   0  0  0  0  0  0  0  0  0  0  0  0
   -1.1957    0.0241    1.8495 H   0  0  0  0  0  0  0  0  0  0  0  0
    0.2263    0.5531    3.3542 C   0  0  0  0  0  0  0  0  0  0  0  0
    1.0068    1.3202    3.3168 H   0  0  0  0  0  0  0  0  0  0  0  0
   -0.6149    0.9472    3.9322 H   0  0  0  0  0  0  0  0  0  0  0  0
    0.6222   -0.3274    3.8710 H   0  0  0  0  0  0  0  0  0  0  0  0
  1  2  1  0  0  0  0
  2  3  1  0  0  0  0
  2  4  1  0  0  0  0
  2  5  1  0  0  0  0
  5  6  2  0  0  0  0
  5  7  1  0  0  0  0
  7  8  1  0  0  0  0
  7  9  1  0  0  0  0
  9 10  1  0  0  0  0
  9 11  1  0  0  0  0
  9 22  1  0  0  0  0
 11 12  1  0  0  0  0
 11 13  1  0  0  0  0
 11 14  1  0  0  0  0
 14 15  1  0  0  0  0
 14 16  1  0  0  0  0
 14 17  1  0  0  0  0
 17 18  2  0  0  0  0
 17 19  1  0  0  0  0
 19 20  1  0  0  0  0
 19 21  1  0  0  0  0
 22 23  2  0  0  0  0
 22 24  1  0  0  0  0
 24 25  1  0  0  0  0
 24 26  1  0  0  0  0
 26 27  1  0  0  0  0
 26 28  1  0  0  0  0
 26 29  1  0  0  0  0
M  END
$$$$

  -OEChem-02102214123D

 29 28  0     1  0  0  0  0  0999 V2000
   -2.6888   -4.3371    0.4148 H   0  0  0  0  0  0  0  0  0  0  0  0
   -2.6841   -3.3760   -0.1073 C   0  0  0  0  0  0  0  0  0  0  0  0
   -3.5616   -2.8032    0.2018 H   0  0  0  0  0  0  0  0  0  0  0  0
   -2.7373   -3.5611   -1.1830 H   0  0  0  0  0  0  0  0  0  0  0  0
   -1.4183   -2.6082    0.2245 C   0  0  0  0  0  0  0  0  0  0  0  0
   -0.6225   -3.0693    1.0232 O   0  0  0  0  0  0  0  0  0  0  0  0
   -1.1860   -1.3839   -0.3723 N   0  0  0  0  0  0  0  0  0  0  0  0
   -1.8211   -1.1391   -1.1272 H   0  0  0  0  0  0  0  0  0  0  0  0
    0.1155   -0.6911   -0.3354 C   0  0  1  0  0  0  0  0  0  0  0  0
    0.8467   -1.3690   -0.7902 H   0  0  0  0  0  0  0  0  0  0  0  0
    0.0148    0.5830   -1.1979 C   0  0  0  0  0  0  0  0  0  0  0  0
   -0.7430    0.4587   -1.9780 H   0  0  0  0  0  0  0  0  0  0  0  0
   -0.3261    1.4118   -0.5682 H   0  0  0  0  0  0  0  0  0  0  0  0
    1.3785    0.9568   -1.8275 C   0  0  0  0  0  0  0  0  0  0  0  0
    1.5234    2.0343   -1.7116 H   0  0  0  0  0  0  0  0  0  0  0  0
    2.1989    0.4640   -1.2978 H   0  0  0  0  0  0  0  0  0  0  0  0
    1.4933    0.6397   -3.3187 C   0  0  0  0  0  0  0  0  0  0  0  0
    0.6670   -0.0085   -3.9357 O   0  0  0  0  0  0  0  0  0  0  0  0
    2.5726    1.0557   -4.0434 N   0  0  0  0  0  0  0  0  0  0  0  0
    2.6713    0.6419   -4.9660 H   0  0  0  0  0  0  0  0  0  0  0  0
    3.3910    1.3918   -3.5464 H   0  0  0  0  0  0  0  0  0  0  0  0
    0.6413   -0.3448    1.0771 C   0  0  0  0  0  0  0  0  0  0  0  0
    1.8482   -0.3028    1.2808 O   0  0  0  0  0  0  0  0  0  0  0  0
   -0.2175    0.2030    2.0126 N   0  0  0  0  0  0  0  0  0  0  0  0
   -1.2058    0.0403    1.8482 H   0  0  0  0  0  0  0  0  0  0  0  0
    0.2135    0.5669    3.3564 C   0  0  0  0  0  0  0  0  0  0  0  0
    1.0130    1.3141    3.3147 H   0  0  0  0  0  0  0  0  0  0  0  0
   -0.6230    0.9909    3.9199 H   0  0  0  0  0  0  0  0  0  0  0  0
    0.5825   -0.3148    3.8909 H   0  0  0  0  0  0  0  0  0  0  0  0
  1  2  1  0  0  0  0
  2  3  1  0  0  0  0
  2  4  1  0  0  0  0
  2  5  1  0  0  0  0
  5  6  2  0  0  0  0
  5  7  1  0  0  0  0
  7  8  1  0  0  0  0
  7  9  1  0  0  0  0
  9 10  1  0  0  0  0
  9 11  1  0  0  0  0
  9 22  1  0  0  0  0
 11 12  1  0  0  0  0
 11 13  1  0  0  0  0
 11 14  1  0  0  0  0
 14 15  1  0  0  0  0
 14 16  1  0  0  0  0
 14 17  1  0  0  0  0
 17 18  2  0  0  0  0
 17 19  1  0  0  0  0
 19 20  1  0  0  0  0
 19 21  1  0  0  0  0
 22 23  2  0  0  0  0
 22 24  1  0  0  0  0
 24 25  1  0  0  0  0
 24 26  1  0  0  0  0
 26 27  1  0  0  0  0
 26 28  1  0  0  0  0
 26 29  1  0  0  0  0
M  END
$$$$

  -OEChem-02102214123D

 29 28  0     1  0  0  0  0  0999 V2000
   -2.7040   -4.3414    0.4510 H   0  0  0  0  0  0  0  0  0  0  0  0
   -2.6994   -3.3827   -0.0758 C   0  0  0  0  0  0  0  0  0  0  0  0
   -3.5626   -2.7981    0.2506 H   0  0  0  0  0  0  0  0  0  0  0  0
   -2.7796   -3.5718   -1.1490 H   0  0  0  0  0  0  0  0  0  0  0  0
   -1.4173   -2.6286    0.2231 C   0  0  0  0  0  0  0  0  0  0  0  0
   -0.6011   -3.1021    0.9934 O   0  0  0  0  0  0  0  0  0  0  0  0
   -1.1897   -1.4036   -0.3737 N   0  0  0  0  0  0  0  0  0  0  0  0
   -1.8508   -1.1342   -1.0972 H   0  0  0  0  0  0  0  0  0  0  0  0
    0.1072   -0.7021   -0.3386 C   0  0  1  0  0  0  0  0  0  0  0  0
    0.8380   -1.3820   -0.7904 H   0  0  0  0  0  0  0  0  0  0  0  0
    0.0059    0.5709   -1.2025 C   0  0  0  0  0  0  0  0  0  0  0  0
   -0.7425    0.4150   -1.9851 H   0  0  0  0  0  0  0  0  0  0  0  0
   -0.3577    1.4034   -0.5903 H   0  0  0  0  0  0  0  0  0  0  0  0
    1.3698    0.9558   -1.8324 C   0  0  0  0  0  0  0  0  0  0  0  0
    1.6462    1.9492   -1.4686 H   0  0  0  0  0  0  0  0  0  0  0  0
    2.1534    0.2687   -1.5008 H   0  0  0  0  0  0  0  0  0  0  0  0
    1.3944    0.9920   -3.3612 C   0  0  0  0  0  0  0  0  0  0  0  0
    0.4883    0.5850   -4.0658 O   0  0  0  0  0  0  0  0  0  0  0  0
    2.4808    1.4765   -4.0309 N   0  0  0  0  0  0  0  0  0  0  0  0
    2.5029    1.2966   -5.0304 H   0  0  0  0  0  0  0  0  0  0  0  0
    3.3447    1.6245   -3.5194 H   0  0  0  0  0  0  0  0  0  0  0  0
    0.6361   -0.3487    1.0698 C   0  0  0  0  0  0  0  0  0  0  0  0
    1.8441   -0.2930    1.2634 O   0  0  0  0  0  0  0  0  0  0  0  0
   -0.2208    0.1963    2.0089 N   0  0  0  0  0  0  0  0  0  0  0  0
   -1.2102    0.0369    1.8479 H   0  0  0  0  0  0  0  0  0  0  0  0
    0.2158    0.5753    3.3468 C   0  0  0  0  0  0  0  0  0  0  0  0
    1.0049    1.3327    3.2933 H   0  0  0  0  0  0  0  0  0  0  0  0
   -0.6219    0.9921    3.9139 H   0  0  0  0  0  0  0  0  0  0  0  0
    0.6008   -0.2976    3.8845 H   0  0  0  0  0  0  0  0  0  0  0  0
  1  2  1  0  0  0  0
  2  3  1  0  0  0  0
  2  4  1  0  0  0  0
  2  5  1  0  0  0  0
  5  6  2  0  0  0  0
  5  7  1  0  0  0  0
  7  8  1  0  0  0  0
  7  9  1  0  0  0  0
  9 10  1  0  0  0  0
  9 11  1  0  0  0  0
  9 22  1  0  0  0  0
 11 12  1  0  0  0  0
 11 13  1  0  0  0  0
 11 14  1  0  0  0  0
 14 15  1  0  0  0  0
 14 16  1  0  0  0  0
 14 17  1  0  0  0  0
 17 18  2  0  0  0  0
 17 19  1  0  0  0  0
 19 20  1  0  0  0  0
 19 21  1  0  0  0  0
 22 23  2  0  0  0  0
 22 24  1  0  0  0  0
 24 25  1  0  0  0  0
 24 26  1  0  0  0  0
 26 27  1  0  0  0  0
 26 28  1  0  0  0  0
 26 29  1  0  0  0  0
M  END
$$$$

  -OEChem-02102214123D

 29 28  0     1  0  0  0  0  0999 V2000
   -2.6744   -4.3333    0.4954 H   0  0  0  0  0  0  0  0  0  0  0  0
   -2.6604   -3.3981   -0.0717 C   0  0  0  0  0  0  0  0  0  0  0  0
   -3.5110   -2.7867    0.2389 H   0  0  0  0  0  0  0  0  0  0  0  0
   -2.7551   -3.6306   -1.1352 H   0  0  0  0  0  0  0  0  0  0  0  0
   -1.3636   -2.6528    0.1819 C   0  0  0  0  0  0  0  0  0  0  0  0
   -0.5115   -3.1438    0.9004 O   0  0  0  0  0  0  0  0  0  0  0  0
   -1.1623   -1.4134   -0.3939 N   0  0  0  0  0  0  0  0  0  0  0  0
   -1.8694   -1.1005   -1.0535 H   0  0  0  0  0  0  0  0  0  0  0  0
    0.1135   -0.6753   -0.3403 C   0  0  1  0  0  0  0  0  0  0  0  0
    0.8632   -1.3357   -0.7891 H   0  0  0  0  0  0  0  0  0  0  0  0
   -0.0075    0.6027   -1.1945 C   0  0  0  0  0  0  0  0  0  0  0  0
   -0.7165    0.3956   -2.0022 H   0  0  0  0  0  0  0  0  0  0  0  0
   -0.4287    1.4245   -0.6055 H   0  0  0  0  0  0  0  0  0  0  0  0
    1.3508    1.0334   -1.8047 C   0  0  0  0  0  0  0  0  0  0  0  0
    1.7461    1.8729   -1.2257 H   0  0  0  0  0  0  0  0  0  0  0  0
    2.0750    0.2187   -1.7201 H   0  0  0  0  0  0  0  0  0  0  0  0
    1.3005    1.4356   -3.2789 C   0  0  0  0  0  0  0  0  0  0  0  0
    0.2678    1.5665   -3.9107 O   0  0  0  0  0  0  0  0  0  0  0  0
    2.4489    1.6792   -3.9758 N   0  0  0  0  0  0  0  0  0  0  0  0
    2.3545    1.7973   -4.9803 H   0  0  0  0  0  0  0  0  0  0  0  0
    3.3424    1.4272   -3.5660 H   0  0  0  0  0  0  0  0  0  0  0  0
    0.6271   -0.3246    1.0733 C   0  0  0  0  0  0  0  0  0  0  0  0
    1.8329   -0.2440    1.2713 O   0  0  0  0  0  0  0  0  0  0  0  0
   -0.2456    0.1840    2.0180 N   0  0  0  0  0  0  0  0  0  0  0  0
   -1.2320    0.0153    1.8491 H   0  0  0  0  0  0  0  0  0  0  0  0
    0.1804    0.5626    3.3593 C   0  0  0  0  0  0  0  0  0  0  0  0
    0.9255    1.3637    3.3130 H   0  0  0  0  0  0  0  0  0  0  0  0
   -0.6739    0.9210    3.9412 H   0  0  0  0  0  0  0  0  0  0  0  0
    0.6185   -0.2969    3.8775 H   0  0  0  0  0  0  0  0  0  0  0  0
  1  2  1  0  0  0  0
  2  3  1  0  0  0  0
  2  4  1  0  0  0  0
  2  5  1  0  0  0  0
  5  6  2  0  0  0  0
  5  7  1  0  0  0  0
  7  8  1  0  0  0  0
  7  9  1  0  0  0  0
  9 10  1  0  0  0  0
  9 11  1  0  0  0  0
  9 22  1  0  0  0  0
 11 12  1  0  0  0  0
 11 13  1  0  0  0  0
 11 14  1  0  0  0  0
 14 15  1  0  0  0  0
 14 16  1  0  0  0  0
 14 17  1  0  0  0  0
 17 18  2  0  0  0  0
 17 19  1  0  0  0  0
 19 20  1  0  0  0  0
 19 21  1  0  0  0  0
 22 23  2  0  0  0  0
 22 24  1  0  0  0  0
 24 25  1  0  0  0  0
 24 26  1  0  0  0  0
 26 27  1  0  0  0  0
 26 28  1  0  0  0  0
 26 29  1  0  0  0  0
M  END
$$$$

  -OEChem-02102214123D

 29 28  0     1  0  0  0  0  0999 V2000
   -2.6840   -4.3520    0.4736 H   0  0  0  0  0  0  0  0  0  0  0  0
   -2.6853   -3.3917   -0.0501 C   0  0  0  0  0  0  0  0  0  0  0  0
   -3.5239   -2.7935    0.3142 H   0  0  0  0  0  0  0  0  0  0  0  0
   -2.8141   -3.5757   -1.1195 H   0  0  0  0  0  0  0  0  0  0  0  0
   -1.3787   -2.6612    0.1974 C   0  0  0  0  0  0  0  0  0  0  0  0
   -0.5337   -3.1573    0.9206 O   0  0  0  0  0  0  0  0  0  0  0  0
   -1.1575   -1.4324   -0.3939 N   0  0  0  0  0  0  0  0  0  0  0  0
   -1.8639   -1.1098   -1.0493 H   0  0  0  0  0  0  0  0  0  0  0  0
    0.1259   -0.7075   -0.3393 C   0  0  1  0  0  0  0  0  0  0  0  0
    0.8754   -1.3785   -0.7727 H   0  0  0  0  0  0  0  0  0  0  0  0
    0.0218    0.5618   -1.2071 C   0  0  0  0  0  0  0  0  0  0  0  0
   -0.6687    0.3448   -2.0291 H   0  0  0  0  0  0  0  0  0  0  0  0
   -0.4040    1.3955   -0.6381 H   0  0  0  0  0  0  0  0  0  0  0  0
    1.3853    0.9688   -1.8110 C   0  0  0  0  0  0  0  0  0  0  0  0
    1.9194    1.6053   -1.0999 H   0  0  0  0  0  0  0  0  0  0  0  0
    1.9974    0.0781   -1.9772 H   0  0  0  0  0  0  0  0  0  0  0  0
    1.2785    1.6876   -3.1549 C   0  0  0  0  0  0  0  0  0  0  0  0
    0.2211    2.0444   -3.6422 O   0  0  0  0  0  0  0  0  0  0  0  0
    2.3945    1.9958   -3.8783 N   0  0  0  0  0  0  0  0  0  0  0  0
    2.2594    2.6283   -4.6617 H   0  0  0  0  0  0  0  0  0  0  0  0
    3.3045    1.9134   -3.4369 H   0  0  0  0  0  0  0  0  0  0  0  0
    0.6298   -0.3425    1.0743 C   0  0  0  0  0  0  0  0  0  0  0  0
    1.8342   -0.2735    1.2844 O   0  0  0  0  0  0  0  0  0  0  0  0
   -0.2468    0.1889    2.0028 N   0  0  0  0  0  0  0  0  0  0  0  0
   -1.2339    0.0362    1.8228 H   0  0  0  0  0  0  0  0  0  0  0  0
    0.1680    0.5907    3.3411 C   0  0  0  0  0  0  0  0  0  0  0  0
    0.9457    1.3599    3.2877 H   0  0  0  0  0  0  0  0  0  0  0  0
   -0.6828    1.0009    3.8936 H   0  0  0  0  0  0  0  0  0  0  0  0
    0.5606   -0.2694    3.8936 H   0  0  0  0  0  0  0  0  0  0  0  0
  1  2  1  0  0  0  0
  2  3  1  0  0  0  0
  2  4  1  0  0  0  0
  2  5  1  0  0  0  0
  5  6  2  0  0  0  0
  5  7  1  0  0  0  0
  7  8  1  0  0  0  0
  7  9  1  0  0  0  0
  9 10  1  0  0  0  0
  9 11  1  0  0  0  0
  9 22  1  0  0  0  0
 11 12  1  0  0  0  0
 11 13  1  0  0  0  0
 11 14  1  0  0  0  0
 14 15  1  0  0  0  0
 14 16  1  0  0  0  0
 14 17  1  0  0  0  0
 17 18  2  0  0  0  0
 17 19  1  0  0  0  0
 19 20  1  0  0  0  0
 19 21  1  0  0  0  0
 22 23  2  0  0  0  0
 22 24  1  0  0  0  0
 24 25  1  0  0  0  0
 24 26  1  0  0  0  0
 26 27  1  0  0  0  0
 26 28  1  0  0  0  0
 26 29  1  0  0  0  0
M  END
$$$$

  -OEChem-02102214123D

 29 28  0     1  0  0  0  0  0999 V2000
   -2.6970   -4.3392    0.4875 H   0  0  0  0  0  0  0  0  0  0  0  0
   -2.6954   -3.3786   -0.0357 C   0  0  0  0  0  0  0  0  0  0  0  0
   -3.5260   -2.7742    0.3366 H   0  0  0  0  0  0  0  0  0  0  0  0
   -2.8351   -3.5610   -1.1039 H   0  0  0  0  0  0  0  0  0  0  0  0
   -1.3809   -2.6588    0.2002 C   0  0  0  0  0  0  0  0  0  0  0  0
   -0.5346   -3.1600    0.9184 O   0  0  0  0  0  0  0  0  0  0  0  0
   -1.1537   -1.4336   -0.3965 N   0  0  0  0  0  0  0  0  0  0  0  0
   -1.8642   -1.1041   -1.0441 H   0  0  0  0  0  0  0  0  0  0  0  0
    0.1324   -0.7133   -0.3454 C   0  0  1  0  0  0  0  0  0  0  0  0
    0.8834   -1.3852   -0.7754 H   0  0  0  0  0  0  0  0  0  0  0  0
    0.0318    0.5496   -1.2216 C   0  0  0  0  0  0  0  0  0  0  0  0
   -0.6565    0.3446   -2.0489 H   0  0  0  0  0  0  0  0  0  0  0  0
   -0.3831    1.3882   -0.6511 H   0  0  0  0  0  0  0  0  0  0  0  0
    1.3984    0.9379   -1.8216 C   0  0  0  0  0  0  0  0  0  0  0  0
    2.0358    1.3547   -1.0362 H   0  0  0  0  0  0  0  0  0  0  0  0
    1.8936    0.0463   -2.2159 H   0  0  0  0  0  0  0  0  0  0  0  0
    1.2886    1.9449   -2.9640 C   0  0  0  0  0  0  0  0  0  0  0  0
    0.2281    2.4051   -3.3470 O   0  0  0  0  0  0  0  0  0  0  0  0
    2.4005    2.3926   -3.6171 N   0  0  0  0  0  0  0  0  0  0  0  0
    2.2653    3.1840   -4.2394 H   0  0  0  0  0  0  0  0  0  0  0  0
    3.3133    2.2080   -3.2141 H   0  0  0  0  0  0  0  0  0  0  0  0
    0.6333   -0.3457    1.0689 C   0  0  0  0  0  0  0  0  0  0  0  0
    1.8369   -0.2868    1.2865 O   0  0  0  0  0  0  0  0  0  0  0  0
   -0.2446    0.1918    1.9924 N   0  0  0  0  0  0  0  0  0  0  0  0
   -1.2319    0.0484    1.8065 H   0  0  0  0  0  0  0  0  0  0  0  0
    0.1657    0.5906    3.3326 C   0  0  0  0  0  0  0  0  0  0  0  0
    0.9468    1.3566    3.2833 H   0  0  0  0  0  0  0  0  0  0  0  0
   -0.6858    1.0035    3.8817 H   0  0  0  0  0  0  0  0  0  0  0  0
    0.5520   -0.2717    3.8859 H   0  0  0  0  0  0  0  0  0  0  0  0
  1  2  1  0  0  0  0
  2  3  1  0  0  0  0
  2  4  1  0  0  0  0
  2  5  1  0  0  0  0
  5  6  2  0  0  0  0
  5  7  1  0  0  0  0
  7  8  1  0  0  0  0
  7  9  1  0  0  0  0
  9 10  1  0  0  0  0
  9 11  1  0  0  0  0
  9 22  1  0  0  0  0
 11 12  1  0  0  0  0
 11 13  1  0  0  0  0
 11 14  1  0  0  0  0
 14 15  1  0  0  0  0
 14 16  1  0  0  0  0
 14 17  1  0  0  0  0
 17 18  2  0  0  0  0
 17 19  1  0  0  0  0
 19 20  1  0  0  0  0
 19 21  1  0  0  0  0
 22 23  2  0  0  0  0
 22 24  1  0  0  0  0
 24 25  1  0  0  0  0
 24 26  1  0  0  0  0
 26 27  1  0  0  0  0
 26 28  1  0  0  0  0
 26 29  1  0  0  0  0
M  END
$$$$

  -OEChem-02102214123D

 29 28  0     1  0  0  0  0  0999 V2000
   -2.7370   -4.3208    0.5558 H   0  0  0  0  0  0  0  0  0  0  0  0
   -2.7297   -3.3756    0.0054 C   0  0  0  0  0  0  0  0  0  0  0  0
   -3.5462   -2.7491    0.3722 H   0  0  0  0  0  0  0  0  0  0  0  0
   -2.8876   -3.5858   -1.0552 H   0  0  0  0  0  0  0  0  0  0  0  0
   -1.4024   -2.6677    0.2018 C   0  0  0  0  0  0  0  0  0  0  0  0
   -0.5382   -3.1775    0.8920 O   0  0  0  0  0  0  0  0  0  0  0  0
   -1.1831   -1.4438   -0.3998 N   0  0  0  0  0  0  0  0  0  0  0  0
   -1.9122   -1.1035   -1.0203 H   0  0  0  0  0  0  0  0  0  0  0  0
    0.1051   -0.7262   -0.3724 C   0  0  1  0  0  0  0  0  0  0  0  0
    0.8466   -1.4071   -0.8054 H   0  0  0  0  0  0  0  0  0  0  0  0
    0.0094    0.5314   -1.2596 C   0  0  0  0  0  0  0  0  0  0  0  0
   -0.8694    0.4637   -1.9100 H   0  0  0  0  0  0  0  0  0  0  0  0
   -0.1157    1.4270   -0.6400 H   0  0  0  0  0  0  0  0  0  0  0  0
    1.2567    0.6786   -2.1498 C   0  0  0  0  0  0  0  0  0  0  0  0
    2.1448    0.7470   -1.5144 H   0  0  0  0  0  0  0  0  0  0  0  0
    1.3644   -0.2031   -2.7874 H   0  0  0  0  0  0  0  0  0  0  0  0
    1.1981    1.9142   -3.0437 C   0  0  0  0  0  0  0  0  0  0  0  0
    0.1655    2.5197   -3.2666 O   0  0  0  0  0  0  0  0  0  0  0  0
    2.3198    2.4099   -3.6434 N   0  0  0  0  0  0  0  0  0  0  0  0
    2.2275    3.3274   -4.0698 H   0  0  0  0  0  0  0  0  0  0  0  0
    3.2276    2.0804   -3.3317 H   0  0  0  0  0  0  0  0  0  0  0  0
    0.6349   -0.3564    1.0307 C   0  0  0  0  0  0  0  0  0  0  0  0
    1.8432   -0.2875    1.2159 O   0  0  0  0  0  0  0  0  0  0  0  0
   -0.2210    0.1851    1.9725 N   0  0  0  0  0  0  0  0  0  0  0  0
   -1.2130    0.0451    1.8112 H   0  0  0  0  0  0  0  0  0  0  0  0
    0.2236    0.6075    3.2946 C   0  0  0  0  0  0  0  0  0  0  0  0
    0.9754    1.3995    3.2111 H   0  0  0  0  0  0  0  0  0  0  0  0
   -0.6210    0.9946    3.8724 H   0  0  0  0  0  0  0  0  0  0  0  0
    0.6597   -0.2369    3.8388 H   0  0  0  0  0  0  0  0  0  0  0  0
  1  2  1  0  0  0  0
  2  3  1  0  0  0  0
  2  4  1  0  0  0  0
  2  5  1  0  0  0  0
  5  6  2  0  0  0  0
  5  7  1  0  0  0  0
  7  8  1  0  0  0  0
  7  9  1  0  0  0  0
  9 10  1  0  0  0  0
  9 11  1  0  0  0  0
  9 22  1  0  0  0  0
 11 12  1  0  0  0  0
 11 13  1  0  0  0  0
 11 14  1  0  0  0  0
 14 15  1  0  0  0  0
 14 16  1  0  0  0  0
 14 17  1  0  0  0  0
 17 18  2  0  0  0  0
 17 19  1  0  0  0  0
 19 20  1  0  0  0  0
 19 21  1  0  0  0  0
 22 23  2  0  0  0  0
 22 24  1  0  0  0  0
 24 25  1  0  0  0  0
 24 26  1  0  0  0  0
 26 27  1  0  0  0  0
 26 28  1  0  0  0  0
 26 29  1  0  0  0  0
M  END
$$$$

  -OEChem-02102214123D

 29 28  0     1  0  0  0  0  0999 V2000
   -2.7526   -4.2995    0.6057 H   0  0  0  0  0  0  0  0  0  0  0  0
   -2.7462   -3.3636    0.0396 C   0  0  0  0  0  0  0  0  0  0  0  0
   -3.5543   -2.7262    0.4061 H   0  0  0  0  0  0  0  0  0  0  0  0
   -2.9185   -3.5903   -1.0153 H   0  0  0  0  0  0  0  0  0  0  0  0
   -1.4120   -2.6614    0.2086 C   0  0  0  0  0  0  0  0  0  0  0  0
   -0.5417   -3.1681    0.8934 O   0  0  0  0  0  0  0  0  0  0  0  0
   -1.1944   -1.4445   -0.4079 N   0  0  0  0  0  0  0  0  0  0  0  0
   -1.9289   -1.1074   -1.0237 H   0  0  0  0  0  0  0  0  0  0  0  0
    0.0996   -0.7370   -0.4078 C   0  0  1  0  0  0  0  0  0  0  0  0
    0.8272   -1.4277   -0.8490 H   0  0  0  0  0  0  0  0  0  0  0  0
   -0.0015    0.5131   -1.3050 C   0  0  0  0  0  0  0  0  0  0  0  0
   -0.8941    0.4663   -1.9380 H   0  0  0  0  0  0  0  0  0  0  0  0
   -0.0981    1.4083   -0.6791 H   0  0  0  0  0  0  0  0  0  0  0  0
    1.2319    0.6427   -2.2168 C   0  0  0  0  0  0  0  0  0  0  0  0
    2.1361    0.4646   -1.6266 H   0  0  0  0  0  0  0  0  0  0  0  0
    1.1950   -0.1081   -3.0108 H   0  0  0  0  0  0  0  0  0  0  0  0
    1.3390    2.0308   -2.8399 C   0  0  0  0  0  0  0  0  0  0  0  0
    0.3575    2.6942   -3.1208 O   0  0  0  0  0  0  0  0  0  0  0  0
    2.5485    2.6121   -3.0907 N   0  0  0  0  0  0  0  0  0  0  0  0
    2.5259    3.6003   -3.3249 H   0  0  0  0  0  0  0  0  0  0  0  0
    3.3798    2.2064   -2.6730 H   0  0  0  0  0  0  0  0  0  0  0  0
    0.6553   -0.3594    0.9833 C   0  0  0  0  0  0  0  0  0  0  0  0
    1.8671   -0.2925    1.1463 O   0  0  0  0  0  0  0  0  0  0  0  0
   -0.1823    0.1968    1.9327 N   0  0  0  0  0  0  0  0  0  0  0  0
   -1.1773    0.0594    1.7884 H   0  0  0  0  0  0  0  0  0  0  0  0
    0.2834    0.6274    3.2447 C   0  0  0  0  0  0  0  0  0  0  0  0
    1.0337    1.4187    3.1448 H   0  0  0  0  0  0  0  0  0  0  0  0
   -0.5522    1.0182    3.8331 H   0  0  0  0  0  0  0  0  0  0  0  0
    0.7276   -0.2133    3.7878 H   0  0  0  0  0  0  0  0  0  0  0  0
  1  2  1  0  0  0  0
  2  3  1  0  0  0  0
  2  4  1  0  0  0  0
  2  5  1  0  0  0  0
  5  6  2  0  0  0  0
  5  7  1  0  0  0  0
  7  8  1  0  0  0  0
  7  9  1  0  0  0  0
  9 10  1  0  0  0  0
  9 11  1  0  0  0  0
  9 22  1  0  0  0  0
 11 12  1  0  0  0  0
 11 13  1  0  0  0  0
 11 14  1  0  0  0  0
 14 15  1  0  0  0  0
 14 16  1  0  0  0  0
 14 17  1  0  0  0  0
 17 18  2  0  0  0  0
 17 19  1  0  0  0  0
 19 20  1  0  0  0  0
 19 21  1  0  0  0  0
 22 23  2  0  0  0  0
 22 24  1  0  0  0  0
 24 25  1  0  0  0  0
 24 26  1  0  0  0  0
 26 27  1  0  0  0  0
 26 28  1  0  0  0  0
 26 29  1  0  0  0  0
M  END
$$$$

  -OEChem-02102214123D

 29 28  0     1  0  0  0  0  0999 V2000
   -2.7819   -4.2490    0.6652 H   0  0  0  0  0  0  0  0  0  0  0  0
   -2.7769   -3.3238    0.0817 C   0  0  0  0  0  0  0  0  0  0  0  0
   -3.5699   -2.6701    0.4528 H   0  0  0  0  0  0  0  0  0  0  0  0
   -2.9739   -3.5678   -0.9650 H   0  0  0  0  0  0  0  0  0  0  0  0
   -1.4315   -2.6346    0.2103 C   0  0  0  0  0  0  0  0  0  0  0  0
   -0.5537   -3.1381    0.8881 O   0  0  0  0  0  0  0  0  0  0  0  0
   -1.2128   -1.4297   -0.4295 N   0  0  0  0  0  0  0  0  0  0  0  0
   -1.9510   -1.1032   -1.0466 H   0  0  0  0  0  0  0  0  0  0  0  0
    0.0962   -0.7533   -0.4858 C   0  0  1  0  0  0  0  0  0  0  0  0
    0.7859   -1.4716   -0.9439 H   0  0  0  0  0  0  0  0  0  0  0  0
    0.0043    0.4931   -1.3893 C   0  0  0  0  0  0  0  0  0  0  0  0
   -0.9091    0.4739   -1.9928 H   0  0  0  0  0  0  0  0  0  0  0  0
   -0.0483    1.3918   -0.7631 H   0  0  0  0  0  0  0  0  0  0  0  0
    1.2095    0.5810   -2.3431 C   0  0  0  0  0  0  0  0  0  0  0  0
    2.0951    0.1364   -1.8787 H   0  0  0  0  0  0  0  0  0  0  0  0
    1.0060    0.0287   -3.2648 H   0  0  0  0  0  0  0  0  0  0  0  0
    1.5332    2.0311   -2.6715 C   0  0  0  0  0  0  0  0  0  0  0  0
    0.7692    2.7210   -3.3196 O   0  0  0  0  0  0  0  0  0  0  0  0
    2.6224    2.6578   -2.1378 N   0  0  0  0  0  0  0  0  0  0  0  0
    2.6344    3.6708   -2.2097 H   0  0  0  0  0  0  0  0  0  0  0  0
    3.1269    2.1942   -1.3872 H   0  0  0  0  0  0  0  0  0  0  0  0
    0.7166   -0.3717    0.8764 C   0  0  0  0  0  0  0  0  0  0  0  0
    1.9349   -0.2865    0.9722 O   0  0  0  0  0  0  0  0  0  0  0  0
   -0.0720    0.2154    1.8489 N   0  0  0  0  0  0  0  0  0  0  0  0
   -1.0728    0.0708    1.7602 H   0  0  0  0  0  0  0  0  0  0  0  0
    0.4584    0.6778    3.1251 C   0  0  0  0  0  0  0  0  0  0  0  0
    1.1874    1.4798    2.9692 H   0  0  0  0  0  0  0  0  0  0  0  0
   -0.3500    1.0646    3.7529 H   0  0  0  0  0  0  0  0  0  0  0  0
    0.9476   -0.1451    3.6570 H   0  0  0  0  0  0  0  0  0  0  0  0
  1  2  1  0  0  0  0
  2  3  1  0  0  0  0
  2  4  1  0  0  0  0
  2  5  1  0  0  0  0
  5  6  2  0  0  0  0
  5  7  1  0  0  0  0
  7  8  1  0  0  0  0
  7  9  1  0  0  0  0
  9 10  1  0  0  0  0
  9 11  1  0  0  0  0
  9 22  1  0  0  0  0
 11 12  1  0  0  0  0
 11 13  1  0  0  0  0
 11 14  1  0  0  0  0
 14 15  1  0  0  0  0
 14 16  1  0  0  0  0
 14 17  1  0  0  0  0
 17 18  2  0  0  0  0
 17 19  1  0  0  0  0
 19 20  1  0  0  0  0
 19 21  1  0  0  0  0
 22 23  2  0  0  0  0
 22 24  1  0  0  0  0
 24 25  1  0  0  0  0
 24 26  1  0  0  0  0
 26 27  1  0  0  0  0
 26 28  1  0  0  0  0
 26 29  1  0  0  0  0
M  END
$$$$

  -OEChem-02102214123D

 29 28  0     1  0  0  0  0  0999 V2000
   -2.7334   -4.2689    0.6383 H   0  0  0  0  0  0  0  0  0  0  0  0
   -2.7509   -3.3359    0.0679 C   0  0  0  0  0  0  0  0  0  0  0  0
   -3.5461   -2.6983    0.4614 H   0  0  0  0  0  0  0  0  0  0  0  0
   -2.9621   -3.5686   -0.9786 H   0  0  0  0  0  0  0  0  0  0  0  0
   -1.4129   -2.6300    0.1829 C   0  0  0  0  0  0  0  0  0  0  0  0
   -0.5164   -3.1278    0.8402 O   0  0  0  0  0  0  0  0  0  0  0  0
   -1.2199   -1.4142   -0.4443 N   0  0  0  0  0  0  0  0  0  0  0  0
   -1.9719   -1.0903   -1.0459 H   0  0  0  0  0  0  0  0  0  0  0  0
    0.0853   -0.7335   -0.5285 C   0  0  1  0  0  0  0  0  0  0  0  0
    0.7537   -1.4534   -1.0134 H   0  0  0  0  0  0  0  0  0  0  0  0
   -0.0131    0.5302   -1.4060 C   0  0  0  0  0  0  0  0  0  0  0  0
   -0.9362    0.5161   -1.9944 H   0  0  0  0  0  0  0  0  0  0  0  0
   -0.0648    1.4194   -0.7660 H   0  0  0  0  0  0  0  0  0  0  0  0
    1.1737    0.6303   -2.3863 C   0  0  0  0  0  0  0  0  0  0  0  0
    1.9878   -0.0420   -2.0997 H   0  0  0  0  0  0  0  0  0  0  0  0
    0.8556    0.3515   -3.3950 H   0  0  0  0  0  0  0  0  0  0  0  0
    1.7292    2.0450   -2.3968 C   0  0  0  0  0  0  0  0  0  0  0  0
    1.2817    2.9050   -3.1312 O   0  0  0  0  0  0  0  0  0  0  0  0
    2.6620    2.4294   -1.4766 N   0  0  0  0  0  0  0  0  0  0  0  0
    2.8161    3.4280   -1.3793 H   0  0  0  0  0  0  0  0  0  0  0  0
    2.8599    1.8014   -0.6986 H   0  0  0  0  0  0  0  0  0  0  0  0
    0.7598   -0.3651    0.8115 C   0  0  0  0  0  0  0  0  0  0  0  0
    1.9763   -0.2135    0.8322 O   0  0  0  0  0  0  0  0  0  0  0  0
    0.0084    0.2087    1.8205 N   0  0  0  0  0  0  0  0  0  0  0  0
   -0.9895    0.0245    1.7918 H   0  0  0  0  0  0  0  0  0  0  0  0
    0.5934    0.6967    3.0633 C   0  0  0  0  0  0  0  0  0  0  0  0
    1.2944    1.5138    2.8629 H   0  0  0  0  0  0  0  0  0  0  0  0
   -0.1904    1.0714    3.7285 H   0  0  0  0  0  0  0  0  0  0  0  0
    1.1287   -0.1091    3.5768 H   0  0  0  0  0  0  0  0  0  0  0  0
  1  2  1  0  0  0  0
  2  3  1  0  0  0  0
  2  4  1  0  0  0  0
  2  5  1  0  0  0  0
  5  6  2  0  0  0  0
  5  7  1  0  0  0  0
  7  8  1  0  0  0  0
  7  9  1  0  0  0  0
  9 10  1  0  0  0  0
  9 11  1  0  0  0  0
  9 22  1  0  0  0  0
 11 12  1  0  0  0  0
 11 13  1  0  0  0  0
 11 14  1  0  0  0  0
 14 15  1  0  0  0  0
 14 16  1  0  0  0  0
 14 17  1  0  0  0  0
 17 18  2  0  0  0  0
 17 19  1  0  0  0  0
 19 20  1  0  0  0  0
 19 21  1  0  0  0  0
 22 23  2  0  0  0  0
 22 24  1  0  0  0  0
 24 25  1  0  0  0  0
 24 26  1  0  0  0  0
 26 27  1  0  0  0  0
 26 28  1  0  0  0  0
 26 29  1  0  0  0  0
M  END
$$$$

  -OEChem-02102214123D

 29 28  0     1  0  0  0  0  0999 V2000
   -2.6498   -4.3103    0.5816 H   0  0  0  0  0  0  0  0  0  0  0  0
   -2.6924   -3.3638    0.0349 C   0  0  0  0  0  0  0  0  0  0  0  0
   -3.4970   -2.7533    0.4517 H   0  0  0  0  0  0  0  0  0  0  0  0
   -2.9097   -3.5752   -1.0149 H   0  0  0  0  0  0  0  0  0  0  0  0
   -1.3682   -2.6330    0.1547 C   0  0  0  0  0  0  0  0  0  0  0  0
   -0.4567   -3.1252    0.7953 O   0  0  0  0  0  0  0  0  0  0  0  0
   -1.2023   -1.4035   -0.4530 N   0  0  0  0  0  0  0  0  0  0  0  0
   -1.9651   -1.0834   -1.0427 H   0  0  0  0  0  0  0  0  0  0  0  0
    0.0923   -0.7036   -0.5427 C   0  0  1  0  0  0  0  0  0  0  0  0
    0.7621   -1.4085   -1.0468 H   0  0  0  0  0  0  0  0  0  0  0  0
   -0.0353    0.5763   -1.3944 C   0  0  0  0  0  0  0  0  0  0  0  0
   -0.9622    0.5366   -1.9753 H   0  0  0  0  0  0  0  0  0  0  0  0
   -0.1143    1.4587   -0.7474 H   0  0  0  0  0  0  0  0  0  0  0  0
    1.1318    0.7234   -2.3949 C   0  0  0  0  0  0  0  0  0  0  0  0
    1.8342   -0.1125   -2.3410 H   0  0  0  0  0  0  0  0  0  0  0  0
    0.7404    0.7541   -3.4160 H   0  0  0  0  0  0  0  0  0  0  0  0
    1.8951    2.0108   -2.1228 C   0  0  0  0  0  0  0  0  0  0  0  0
    1.6675    3.0350   -2.7383 O   0  0  0  0  0  0  0  0  0  0  0  0
    2.7921    2.0813   -1.0956 N   0  0  0  0  0  0  0  0  0  0  0  0
    3.0923    3.0116   -0.8238 H   0  0  0  0  0  0  0  0  0  0  0  0
    2.7979    1.3230   -0.4088 H   0  0  0  0  0  0  0  0  0  0  0  0
    0.7837   -0.3492    0.7921 C   0  0  0  0  0  0  0  0  0  0  0  0
    1.9989   -0.1817    0.7927 O   0  0  0  0  0  0  0  0  0  0  0  0
    0.0438    0.1972    1.8244 N   0  0  0  0  0  0  0  0  0  0  0  0
   -0.9526    0.0020    1.8112 H   0  0  0  0  0  0  0  0  0  0  0  0
    0.6450    0.6796    3.0618 C   0  0  0  0  0  0  0  0  0  0  0  0
    1.3232    1.5150    2.8585 H   0  0  0  0  0  0  0  0  0  0  0  0
   -0.1319    1.0271    3.7495 H   0  0  0  0  0  0  0  0  0  0  0  0
    1.2090   -0.1215    3.5514 H   0  0  0  0  0  0  0  0  0  0  0  0
  1  2  1  0  0  0  0
  2  3  1  0  0  0  0
  2  4  1  0  0  0  0
  2  5  1  0  0  0  0
  5  6  2  0  0  0  0
  5  7  1  0  0  0  0
  7  8  1  0  0  0  0
  7  9  1  0  0  0  0
  9 10  1  0  0  0  0
  9 11  1  0  0  0  0
  9 22  1  0  0  0  0
 11 12  1  0  0  0  0
 11 13  1  0  0  0  0
 11 14  1  0  0  0  0
 14 15  1  0  0  0  0
 14 16  1  0  0  0  0
 14 17  1  0  0  0  0
 17 18  2  0  0  0  0
 17 19  1  0  0  0  0
 19 20  1  0  0  0  0
 19 21  1  0  0  0  0
 22 23  2  0  0  0  0
 22 24  1  0  0  0  0
 24 25  1  0  0  0  0
 24 26  1  0  0  0  0
 26 27  1  0  0  0  0
 26 28  1  0  0  0  0
 26 29  1  0  0  0  0
M  END
$$$$

  -OEChem-02102214123D

 29 28  0     1  0  0  0  0  0999 V2000
   -2.5888   -4.3120    0.5577 H   0  0  0  0  0  0  0  0  0  0  0  0
   -2.6382   -3.3578    0.0249 C   0  0  0  0  0  0  0  0  0  0  0  0
   -3.4389   -2.7542    0.4590 H   0  0  0  0  0  0  0  0  0  0  0  0
   -2.8658   -3.5542   -1.0258 H   0  0  0  0  0  0  0  0  0  0  0  0
   -1.3140   -2.6265    0.1416 C   0  0  0  0  0  0  0  0  0  0  0  0
   -0.3977   -3.1241    0.7707 O   0  0  0  0  0  0  0  0  0  0  0  0
   -1.1556   -1.3909   -0.4563 N   0  0  0  0  0  0  0  0  0  0  0  0
   -1.9237   -1.0682   -1.0376 H   0  0  0  0  0  0  0  0  0  0  0  0
    0.1304   -0.6715   -0.5295 C   0  0  1  0  0  0  0  0  0  0  0  0
    0.8249   -1.3534   -1.0318 H   0  0  0  0  0  0  0  0  0  0  0  0
   -0.0401    0.6056   -1.3850 C   0  0  0  0  0  0  0  0  0  0  0  0
   -0.9643    0.5216   -1.9657 H   0  0  0  0  0  0  0  0  0  0  0  0
   -0.1553    1.4885   -0.7447 H   0  0  0  0  0  0  0  0  0  0  0  0
    1.1083    0.8115   -2.3959 C   0  0  0  0  0  0  0  0  0  0  0  0
    1.6739   -0.1081   -2.5660 H   0  0  0  0  0  0  0  0  0  0  0  0
    0.6851    1.1097   -3.3599 H   0  0  0  0  0  0  0  0  0  0  0  0
    2.0616    1.9134   -1.9456 C   0  0  0  0  0  0  0  0  0  0  0  0
    1.9742    3.0412   -2.3926 O   0  0  0  0  0  0  0  0  0  0  0  0
    3.0202    1.7080   -0.9969 N   0  0  0  0  0  0  0  0  0  0  0  0
    3.4542    2.5480   -0.6288 H   0  0  0  0  0  0  0  0  0  0  0  0
    2.9171    0.8952   -0.3841 H   0  0  0  0  0  0  0  0  0  0  0  0
    0.7832   -0.3265    0.8265 C   0  0  0  0  0  0  0  0  0  0  0  0
    2.0043   -0.2493    0.8929 O   0  0  0  0  0  0  0  0  0  0  0  0
    0.0198    0.1965    1.8531 N   0  0  0  0  0  0  0  0  0  0  0  0
   -0.9813    0.0409    1.7906 H   0  0  0  0  0  0  0  0  0  0  0  0
    0.5872    0.5892    3.1371 C   0  0  0  0  0  0  0  0  0  0  0  0
    1.3163    1.3954    3.0042 H   0  0  0  0  0  0  0  0  0  0  0  0
   -0.2016    0.9458    3.8063 H   0  0  0  0  0  0  0  0  0  0  0  0
    1.0859   -0.2628    3.6113 H   0  0  0  0  0  0  0  0  0  0  0  0
  1  2  1  0  0  0  0
  2  3  1  0  0  0  0
  2  4  1  0  0  0  0
  2  5  1  0  0  0  0
  5  6  2  0  0  0  0
  5  7  1  0  0  0  0
  7  8  1  0  0  0  0
  7  9  1  0  0  0  0
  9 10  1  0  0  0  0
  9 11  1  0  0  0  0
  9 22  1  0  0  0  0
 11 12  1  0  0  0  0
 11 13  1  0  0  0  0
 11 14  1  0  0  0  0
 14 15  1  0  0  0  0
 14 16  1  0  0  0  0
 14 17  1  0  0  0  0
 17 18  2  0  0  0  0
 17 19  1  0  0  0  0
 19 20  1  0  0  0  0
 19 21  1  0  0  0  0
 22 23  2  0  0  0  0
 22 24  1  0  0  0  0
 24 25  1  0  0  0  0
 24 26  1  0  0  0  0
 26 27  1  0  0  0  0
 26 28  1  0  0  0  0
 26 29  1  0  0  0  0
M  END
$$$$

  -OEChem-02102214123D

 29 28  0     1  0  0  0  0  0999 V2000
   -2.5297   -4.3215    0.5136 H   0  0  0  0  0  0  0  0  0  0  0  0
   -2.5860   -3.3567    0.0011 C   0  0  0  0  0  0  0  0  0  0  0  0
   -3.3850   -2.7646    0.4536 H   0  0  0  0  0  0  0  0  0  0  0  0
   -2.8215   -3.5323   -1.0513 H   0  0  0  0  0  0  0  0  0  0  0  0
   -1.2628   -2.6244    0.1221 C   0  0  0  0  0  0  0  0  0  0  0  0
   -0.3403   -3.1338    0.7318 O   0  0  0  0  0  0  0  0  0  0  0  0
   -1.1107   -1.3806   -0.4609 N   0  0  0  0  0  0  0  0  0  0  0  0
   -1.8869   -1.0473   -1.0251 H   0  0  0  0  0  0  0  0  0  0  0  0
    0.1663   -0.6419   -0.5105 C   0  0  1  0  0  0  0  0  0  0  0  0
    0.8858   -1.2951   -1.0164 H   0  0  0  0  0  0  0  0  0  0  0  0
   -0.0402    0.6364   -1.3592 C   0  0  0  0  0  0  0  0  0  0  0  0
   -0.9626    0.5308   -1.9393 H   0  0  0  0  0  0  0  0  0  0  0  0
   -0.1748    1.5110   -0.7118 H   0  0  0  0  0  0  0  0  0  0  0  0
    1.0932    0.8981   -2.3719 C   0  0  0  0  0  0  0  0  0  0  0  0
    1.5028   -0.0416   -2.7517 H   0  0  0  0  0  0  0  0  0  0  0  0
    0.6757    1.4342   -3.2298 H   0  0  0  0  0  0  0  0  0  0  0  0
    2.2258    1.7530   -1.8075 C   0  0  0  0  0  0  0  0  0  0  0  0
    2.3027    2.9355   -2.0817 O   0  0  0  0  0  0  0  0  0  0  0  0
    3.2210    1.2604   -1.0166 N   0  0  0  0  0  0  0  0  0  0  0  0
    3.8082    1.9719   -0.5939 H   0  0  0  0  0  0  0  0  0  0  0  0
    3.0055    0.4293   -0.4619 H   0  0  0  0  0  0  0  0  0  0  0  0
    0.7744   -0.3133    0.8710 C   0  0  0  0  0  0  0  0  0  0  0  0
    1.9911   -0.3187    1.0057 O   0  0  0  0  0  0  0  0  0  0  0  0
   -0.0209    0.1813    1.8877 N   0  0  0  0  0  0  0  0  0  0  0  0
   -1.0231    0.0724    1.7713 H   0  0  0  0  0  0  0  0  0  0  0  0
    0.5002    0.5073    3.2094 C   0  0  0  0  0  0  0  0  0  0  0  0
    1.2663    1.2866    3.1384 H   0  0  0  0  0  0  0  0  0  0  0  0
   -0.3045    0.8741    3.8537 H   0  0  0  0  0  0  0  0  0  0  0  0
    0.9418   -0.3797    3.6759 H   0  0  0  0  0  0  0  0  0  0  0  0
  1  2  1  0  0  0  0
  2  3  1  0  0  0  0
  2  4  1  0  0  0  0
  2  5  1  0  0  0  0
  5  6  2  0  0  0  0
  5  7  1  0  0  0  0
  7  8  1  0  0  0  0
  7  9  1  0  0  0  0
  9 10  1  0  0  0  0
  9 11  1  0  0  0  0
  9 22  1  0  0  0  0
 11 12  1  0  0  0  0
 11 13  1  0  0  0  0
 11 14  1  0  0  0  0
 14 15  1  0  0  0  0
 14 16  1  0  0  0  0
 14 17  1  0  0  0  0
 17 18  2  0  0  0  0
 17 19  1  0  0  0  0
 19 20  1  0  0  0  0
 19 21  1  0  0  0  0
 22 23  2  0  0  0  0
 22 24  1  0  0  0  0
 24 25  1  0  0  0  0
 24 26  1  0  0  0  0
 26 27  1  0  0  0  0
 26 28  1  0  0  0  0
 26 29  1  0  0  0  0
M  END
$$$$

  -OEChem-02102214123D

 29 28  0     1  0  0  0  0  0999 V2000
   -2.4817   -4.3312    0.4572 H   0  0  0  0  0  0  0  0  0  0  0  0
   -2.5427   -3.3559   -0.0343 C   0  0  0  0  0  0  0  0  0  0  0  0
   -3.3389   -2.7742    0.4364 H   0  0  0  0  0  0  0  0  0  0  0  0
   -2.7857   -3.5097   -1.0884 H   0  0  0  0  0  0  0  0  0  0  0  0
   -1.2194   -2.6252    0.0925 C   0  0  0  0  0  0  0  0  0  0  0  0
   -0.2932   -3.1463    0.6863 O   0  0  0  0  0  0  0  0  0  0  0  0
   -1.0696   -1.3727   -0.4725 N   0  0  0  0  0  0  0  0  0  0  0  0
   -1.8509   -1.0263   -1.0213 H   0  0  0  0  0  0  0  0  0  0  0  0
    0.1994   -0.6185   -0.4924 C   0  0  1  0  0  0  0  0  0  0  0  0
    0.9406   -1.2454   -1.0010 H   0  0  0  0  0  0  0  0  0  0  0  0
   -0.0255    0.6688   -1.3226 C   0  0  0  0  0  0  0  0  0  0  0  0
   -0.9477    0.5663   -1.9033 H   0  0  0  0  0  0  0  0  0  0  0  0
   -0.1654    1.5271   -0.6552 H   0  0  0  0  0  0  0  0  0  0  0  0
    1.1007    0.9818   -2.3283 C   0  0  0  0  0  0  0  0  0  0  0  0
    1.3459    0.0826   -2.9001 H   0  0  0  0  0  0  0  0  0  0  0  0
    0.7287    1.7242   -3.0411 H   0  0  0  0  0  0  0  0  0  0  0  0
    2.3862    1.5373   -1.7171 C   0  0  0  0  0  0  0  0  0  0  0  0
    2.6768    2.7088   -1.8653 O   0  0  0  0  0  0  0  0  0  0  0  0
    3.3321    0.7722   -1.1022 N   0  0  0  0  0  0  0  0  0  0  0  0
    4.0717    1.3181   -0.6711 H   0  0  0  0  0  0  0  0  0  0  0  0
    2.9913   -0.0358   -0.5801 H   0  0  0  0  0  0  0  0  0  0  0  0
    0.7613   -0.3108    0.9144 C   0  0  0  0  0  0  0  0  0  0  0  0
    1.9685   -0.3598    1.1057 O   0  0  0  0  0  0  0  0  0  0  0  0
   -0.0708    0.1550    1.9154 N   0  0  0  0  0  0  0  0  0  0  0  0
   -1.0686    0.0686    1.7528 H   0  0  0  0  0  0  0  0  0  0  0  0
    0.3986    0.4329    3.2668 C   0  0  0  0  0  0  0  0  0  0  0  0
    1.1701    1.2099    3.2522 H   0  0  0  0  0  0  0  0  0  0  0  0
   -0.4295    0.7821    3.8907 H   0  0  0  0  0  0  0  0  0  0  0  0
    0.8175   -0.4718    3.7200 H   0  0  0  0  0  0  0  0  0  0  0  0
  1  2  1  0  0  0  0
  2  3  1  0  0  0  0
  2  4  1  0  0  0  0
  2  5  1  0  0  0  0
  5  6  2  0  0  0  0
  5  7  1  0  0  0  0
  7  8  1  0  0  0  0
  7  9  1  0  0  0  0
  9 10  1  0  0  0  0
  9 11  1  0  0  0  0
  9 22  1  0  0  0  0
 11 12  1  0  0  0  0
 11 13  1  0  0  0  0
 11 14  1  0  0  0  0
 14 15  1  0  0  0  0
 14 16  1  0  0  0  0
 14 17  1  0  0  0  0
 17 18  2  0  0  0  0
 17 19  1  0  0  0  0
 19 20  1  0  0  0  0
 19 21  1  0  0  0  0
 22 23  2  0  0  0  0
 22 24  1  0  0  0  0
 24 25  1  0  0  0  0
 24 26  1  0  0  0  0
 26 27  1  0  0  0  0
 26 28  1  0  0  0  0
 26 29  1  0  0  0  0
M  END
$$$$

  -OEChem-02102214123D

 29 28  0     1  0  0  0  0  0999 V2000
   -2.4386   -4.3373    0.4252 H   0  0  0  0  0  0  0  0  0  0  0  0
   -2.5054   -3.3593   -0.0602 C   0  0  0  0  0  0  0  0  0  0  0  0
   -3.2931   -2.7791    0.4263 H   0  0  0  0  0  0  0  0  0  0  0  0
   -2.7648   -3.5068   -1.1113 H   0  0  0  0  0  0  0  0  0  0  0  0
   -1.1787   -2.6319    0.0497 C   0  0  0  0  0  0  0  0  0  0  0  0
   -0.2378   -3.1660    0.6078 O   0  0  0  0  0  0  0  0  0  0  0  0
   -1.0387   -1.3699   -0.4965 N   0  0  0  0  0  0  0  0  0  0  0  0
   -1.8396   -0.9954   -0.9965 H   0  0  0  0  0  0  0  0  0  0  0  0
    0.2152   -0.5918   -0.4731 C   0  0  1  0  0  0  0  0  0  0  0  0
    0.9762   -1.2054   -0.9665 H   0  0  0  0  0  0  0  0  0  0  0  0
   -0.0035    0.6943   -1.3059 C   0  0  0  0  0  0  0  0  0  0  0  0
   -0.9115    0.5949   -1.9092 H   0  0  0  0  0  0  0  0  0  0  0  0
   -0.1608    1.5431   -0.6303 H   0  0  0  0  0  0  0  0  0  0  0  0
    1.1486    1.0350   -2.2727 C   0  0  0  0  0  0  0  0  0  0  0  0
    1.2605    0.2269   -3.0010 H   0  0  0  0  0  0  0  0  0  0  0  0
    0.8866    1.9396   -2.8297 H   0  0  0  0  0  0  0  0  0  0  0  0
    2.5005    1.2664   -1.6015 C   0  0  0  0  0  0  0  0  0  0  0  0
    2.8723    2.3962   -1.3488 O   0  0  0  0  0  0  0  0  0  0  0  0
    3.3896    0.2657   -1.3367 N   0  0  0  0  0  0  0  0  0  0  0  0
    4.1383    0.5549   -0.7133 H   0  0  0  0  0  0  0  0  0  0  0  0
    3.0006   -0.6604   -1.1945 H   0  0  0  0  0  0  0  0  0  0  0  0
    0.7395   -0.2863    0.9501 C   0  0  0  0  0  0  0  0  0  0  0  0
    1.9395   -0.3383    1.1789 O   0  0  0  0  0  0  0  0  0  0  0  0
   -0.1254    0.1543    1.9351 N   0  0  0  0  0  0  0  0  0  0  0  0
   -1.1178    0.0841    1.7378 H   0  0  0  0  0  0  0  0  0  0  0  0
    0.3040    0.4229    3.3017 C   0  0  0  0  0  0  0  0  0  0  0  0
    1.0861    1.1896    3.3136 H   0  0  0  0  0  0  0  0  0  0  0  0
   -0.5389    0.7820    3.8999 H   0  0  0  0  0  0  0  0  0  0  0  0
    0.6960   -0.4886    3.7652 H   0  0  0  0  0  0  0  0  0  0  0  0
  1  2  1  0  0  0  0
  2  3  1  0  0  0  0
  2  4  1  0  0  0  0
  2  5  1  0  0  0  0
  5  6  2  0  0  0  0
  5  7  1  0  0  0  0
  7  8  1  0  0  0  0
  7  9  1  0  0  0  0
  9 10  1  0  0  0  0
  9 11  1  0  0  0  0
  9 22  1  0  0  0  0
 11 12  1  0  0  0  0
 11 13  1  0  0  0  0
 11 14  1  0  0  0  0
 14 15  1  0  0  0  0
 14 16  1  0  0  0  0
 14 17  1  0  0  0  0
 17 18  2  0  0  0  0
 17 19  1  0  0  0  0
 19 20  1  0  0  0  0
 19 21  1  0  0  0  0
 22 23  2  0  0  0  0
 22 24  1  0  0  0  0
 24 25  1  0  0  0  0
 24 26  1  0  0  0  0
 26 27  1  0  0  0  0
 26 28  1  0  0  0  0
 26 29  1  0  0  0  0
M  END
$$$$

  -OEChem-02102214123D

 29 28  0     1  0  0  0  0  0999 V2000
   -2.4548   -4.3381    0.3510 H   0  0  0  0  0  0  0  0  0  0  0  0
   -2.5087   -3.3547   -0.1249 C   0  0  0  0  0  0  0  0  0  0  0  0
   -3.2972   -2.7737    0.3591 H   0  0  0  0  0  0  0  0  0  0  0  0
   -2.7580   -3.4893   -1.1802 H   0  0  0  0  0  0  0  0  0  0  0  0
   -1.1780   -2.6381    0.0077 C   0  0  0  0  0  0  0  0  0  0  0  0
   -0.2451   -3.1873    0.5645 O   0  0  0  0  0  0  0  0  0  0  0  0
   -1.0246   -1.3677   -0.5146 N   0  0  0  0  0  0  0  0  0  0  0  0
   -1.8215   -0.9728   -1.0050 H   0  0  0  0  0  0  0  0  0  0  0  0
    0.2266   -0.5887   -0.4425 C   0  0  1  0  0  0  0  0  0  0  0  0
    0.9926   -1.2073   -0.9177 H   0  0  0  0  0  0  0  0  0  0  0  0
    0.0384    0.7027   -1.2748 C   0  0  0  0  0  0  0  0  0  0  0  0
   -0.8576    0.6197   -1.8983 H   0  0  0  0  0  0  0  0  0  0  0  0
   -0.1309    1.5386   -0.5863 H   0  0  0  0  0  0  0  0  0  0  0  0
    1.2103    1.0787   -2.2088 C   0  0  0  0  0  0  0  0  0  0  0  0
    1.1871    0.4175   -3.0794 H   0  0  0  0  0  0  0  0  0  0  0  0
    1.0583    2.0991   -2.5734 H   0  0  0  0  0  0  0  0  0  0  0  0
    2.6112    0.9850   -1.6044 C   0  0  0  0  0  0  0  0  0  0  0  0
    3.1926    1.9951   -1.2587 O   0  0  0  0  0  0  0  0  0  0  0  0
    3.3330   -0.1725   -1.5408 N   0  0  0  0  0  0  0  0  0  0  0  0
    4.1416   -0.1088   -0.9278 H   0  0  0  0  0  0  0  0  0  0  0  0
    2.8171   -1.0445   -1.5573 H   0  0  0  0  0  0  0  0  0  0  0  0
    0.7193   -0.2979    0.9945 C   0  0  0  0  0  0  0  0  0  0  0  0
    1.9150   -0.3385    1.2450 O   0  0  0  0  0  0  0  0  0  0  0  0
   -0.1683    0.1306    1.9649 N   0  0  0  0  0  0  0  0  0  0  0  0
   -1.1561    0.0522    1.7486 H   0  0  0  0  0  0  0  0  0  0  0  0
    0.2323    0.3902    3.3422 C   0  0  0  0  0  0  0  0  0  0  0  0
    1.0165    1.1540    3.3763 H   0  0  0  0  0  0  0  0  0  0  0  0
   -0.6221    0.7489    3.9240 H   0  0  0  0  0  0  0  0  0  0  0  0
    0.6116   -0.5251    3.8087 H   0  0  0  0  0  0  0  0  0  0  0  0
  1  2  1  0  0  0  0
  2  3  1  0  0  0  0
  2  4  1  0  0  0  0
  2  5  1  0  0  0  0
  5  6  2  0  0  0  0
  5  7  1  0  0  0  0
  7  8  1  0  0  0  0
  7  9  1  0  0  0  0
  9 10  1  0  0  0  0
  9 11  1  0  0  0  0
  9 22  1  0  0  0  0
 11 12  1  0  0  0  0
 11 13  1  0  0  0  0
 11 14  1  0  0  0  0
 14 15  1  0  0  0  0
 14 16  1  0  0  0  0
 14 17  1  0  0  0  0
 17 18  2  0  0  0  0
 17 19  1  0  0  0  0
 19 20  1  0  0  0  0
 19 21  1  0  0  0  0
 22 23  2  0  0  0  0
 22 24  1  0  0  0  0
 24 25  1  0  0  0  0
 24 26  1  0  0  0  0
 26 27  1  0  0  0  0
 26 28  1  0  0  0  0
 26 29  1  0  0  0  0
M  END
$$$$

  -OEChem-02102214123D

 29 28  0     1  0  0  0  0  0999 V2000
   -2.5288   -4.3099    0.2875 H   0  0  0  0  0  0  0  0  0  0  0  0
   -2.5460   -3.3303   -0.1989 C   0  0  0  0  0  0  0  0  0  0  0  0
   -3.3416   -2.7303    0.2492 H   0  0  0  0  0  0  0  0  0  0  0  0
   -2.7570   -3.4700   -1.2618 H   0  0  0  0  0  0  0  0  0  0  0  0
   -1.2083   -2.6369   -0.0225 C   0  0  0  0  0  0  0  0  0  0  0  0
   -0.2991   -3.2066    0.5526 O   0  0  0  0  0  0  0  0  0  0  0  0
   -1.0218   -1.3632   -0.5254 N   0  0  0  0  0  0  0  0  0  0  0  0
   -1.8027   -0.9461   -1.0231 H   0  0  0  0  0  0  0  0  0  0  0  0
    0.2354   -0.6007   -0.4020 C   0  0  1  0  0  0  0  0  0  0  0  0
    1.0014   -1.2364   -0.8490 H   0  0  0  0  0  0  0  0  0  0  0  0
    0.0998    0.6999   -1.2317 C   0  0  0  0  0  0  0  0  0  0  0  0
   -0.7820    0.6404   -1.8776 H   0  0  0  0  0  0  0  0  0  0  0  0
   -0.0803    1.5258   -0.5339 H   0  0  0  0  0  0  0  0  0  0  0  0
    1.2974    1.0980   -2.1303 C   0  0  0  0  0  0  0  0  0  0  0  0
    1.1475    0.6431   -3.1133 H   0  0  0  0  0  0  0  0  0  0  0  0
    1.2816    2.1828   -2.2742 H   0  0  0  0  0  0  0  0  0  0  0  0
    2.7002    0.6917   -1.6737 C   0  0  0  0  0  0  0  0  0  0  0  0
    3.4852    1.5384   -1.2941 O   0  0  0  0  0  0  0  0  0  0  0  0
    3.2253   -0.5570   -1.8521 N   0  0  0  0  0  0  0  0  0  0  0  0
    4.0994   -0.7089   -1.3556 H   0  0  0  0  0  0  0  0  0  0  0  0
    2.5821   -1.3330   -1.9545 H   0  0  0  0  0  0  0  0  0  0  0  0
    0.6910   -0.3256    1.0485 C   0  0  0  0  0  0  0  0  0  0  0  0
    1.8815   -0.3542    1.3214 O   0  0  0  0  0  0  0  0  0  0  0  0
   -0.2182    0.1071    1.9968 N   0  0  0  0  0  0  0  0  0  0  0  0
   -1.2006    0.0174    1.7620 H   0  0  0  0  0  0  0  0  0  0  0  0
    0.1531    0.3656    3.3823 C   0  0  0  0  0  0  0  0  0  0  0  0
    0.9413    1.1245    3.4331 H   0  0  0  0  0  0  0  0  0  0  0  0
   -0.7116    0.7305    3.9447 H   0  0  0  0  0  0  0  0  0  0  0  0
    0.5165   -0.5518    3.8574 H   0  0  0  0  0  0  0  0  0  0  0  0
  1  2  1  0  0  0  0
  2  3  1  0  0  0  0
  2  4  1  0  0  0  0
  2  5  1  0  0  0  0
  5  6  2  0  0  0  0
  5  7  1  0  0  0  0
  7  8  1  0  0  0  0
  7  9  1  0  0  0  0
  9 10  1  0  0  0  0
  9 11  1  0  0  0  0
  9 22  1  0  0  0  0
 11 12  1  0  0  0  0
 11 13  1  0  0  0  0
 11 14  1  0  0  0  0
 14 15  1  0  0  0  0
 14 16  1  0  0  0  0
 14 17  1  0  0  0  0
 17 18  2  0  0  0  0
 17 19  1  0  0  0  0
 19 20  1  0  0  0  0
 19 21  1  0  0  0  0
 22 23  2  0  0  0  0
 22 24  1  0  0  0  0
 24 25  1  0  0  0  0
 24 26  1  0  0  0  0
 26 27  1  0  0  0  0
 26 28  1  0  0  0  0
 26 29  1  0  0  0  0
M  END
$$$$

  -OEChem-02102214123D

 29 28  0     1  0  0  0  0  0999 V2000
   -2.5891   -4.2944    0.1994 H   0  0  0  0  0  0  0  0  0  0  0  0
   -2.5842   -3.2957   -0.2471 C   0  0  0  0  0  0  0  0  0  0  0  0
   -3.3718   -2.6992    0.2192 H   0  0  0  0  0  0  0  0  0  0  0  0
   -2.7893   -3.3883   -1.3163 H   0  0  0  0  0  0  0  0  0  0  0  0
   -1.2353   -2.6357   -0.0316 C   0  0  0  0  0  0  0  0  0  0  0  0
   -0.3592   -3.2255    0.5733 O   0  0  0  0  0  0  0  0  0  0  0  0
   -1.0018   -1.3686   -0.5311 N   0  0  0  0  0  0  0  0  0  0  0  0
   -1.7593   -0.9316   -1.0475 H   0  0  0  0  0  0  0  0  0  0  0  0
    0.2660   -0.6314   -0.3640 C   0  0  1  0  0  0  0  0  0  0  0  0
    1.0382   -1.2836   -0.7733 H   0  0  0  0  0  0  0  0  0  0  0  0
    0.1813    0.6805   -1.1861 C   0  0  0  0  0  0  0  0  0  0  0  0
   -0.6837    0.6360   -1.8553 H   0  0  0  0  0  0  0  0  0  0  0  0
   -0.0130    1.5020   -0.4872 H   0  0  0  0  0  0  0  0  0  0  0  0
    1.4013    1.0856   -2.0559 C   0  0  0  0  0  0  0  0  0  0  0  0
    1.1465    0.8997   -3.1029 H   0  0  0  0  0  0  0  0  0  0  0  0
    1.5526    2.1647   -1.9542 H   0  0  0  0  0  0  0  0  0  0  0  0
    2.7444    0.3968   -1.8100 C   0  0  0  0  0  0  0  0  0  0  0  0
    3.7007    1.0305   -1.4103 O   0  0  0  0  0  0  0  0  0  0  0  0
    3.0243   -0.8665   -2.2503 N   0  0  0  0  0  0  0  0  0  0  0  0
    3.9092   -1.2407   -1.9179 H   0  0  0  0  0  0  0  0  0  0  0  0
    2.2515   -1.4987   -2.4233 H   0  0  0  0  0  0  0  0  0  0  0  0
    0.6697   -0.3614    1.1029 C   0  0  0  0  0  0  0  0  0  0  0  0
    1.8499   -0.3732    1.4168 O   0  0  0  0  0  0  0  0  0  0  0  0
   -0.2704    0.0924    2.0107 N   0  0  0  0  0  0  0  0  0  0  0  0
   -1.2441    0.0014    1.7430 H   0  0  0  0  0  0  0  0  0  0  0  0
    0.0530    0.3807    3.4024 C   0  0  0  0  0  0  0  0  0  0  0  0
    0.7986    1.1805    3.4645 H   0  0  0  0  0  0  0  0  0  0  0  0
   -0.8436    0.7031    3.9403 H   0  0  0  0  0  0  0  0  0  0  0  0
    0.4521   -0.5120    3.8956 H   0  0  0  0  0  0  0  0  0  0  0  0
  1  2  1  0  0  0  0
  2  3  1  0  0  0  0
  2  4  1  0  0  0  0
  2  5  1  0  0  0  0
  5  6  2  0  0  0  0
  5  7  1  0  0  0  0
  7  8  1  0  0  0  0
  7  9  1  0  0  0  0
  9 10  1  0  0  0  0
  9 11  1  0  0  0  0
  9 22  1  0  0  0  0
 11 12  1  0  0  0  0
 11 13  1  0  0  0  0
 11 14  1  0  0  0  0
 14 15  1  0  0  0  0
 14 16  1  0  0  0  0
 14 17  1  0  0  0  0
 17 18  2  0  0  0  0
 17 19  1  0  0  0  0
 19 20  1  0  0  0  0
 19 21  1  0  0  0  0
 22 23  2  0  0  0  0
 22 24  1  0  0  0  0
 24 25  1  0  0  0  0
 24 26  1  0  0  0  0
 26 27  1  0  0  0  0
 26 28  1  0  0  0  0
 26 29  1  0  0  0  0
M  END
$$$$

  -OEChem-02102214123D

 29 28  0     1  0  0  0  0  0999 V2000
   -2.6606   -4.2430    0.1979 H   0  0  0  0  0  0  0  0  0  0  0  0
   -2.6198   -3.2537   -0.2672 C   0  0  0  0  0  0  0  0  0  0  0  0
   -3.4022   -2.6282    0.1692 H   0  0  0  0  0  0  0  0  0  0  0  0
   -2.8030   -3.3626   -1.3389 H   0  0  0  0  0  0  0  0  0  0  0  0
   -1.2593   -2.6244   -0.0334 C   0  0  0  0  0  0  0  0  0  0  0  0
   -0.4091   -3.2297    0.5924 O   0  0  0  0  0  0  0  0  0  0  0  0
   -0.9871   -1.3668   -0.5374 N   0  0  0  0  0  0  0  0  0  0  0  0
   -1.7284   -0.9129   -1.0627 H   0  0  0  0  0  0  0  0  0  0  0  0
    0.2918   -0.6542   -0.3463 C   0  0  1  0  0  0  0  0  0  0  0  0
    1.0644   -1.3237   -0.7256 H   0  0  0  0  0  0  0  0  0  0  0  0
    0.2538    0.6645   -1.1637 C   0  0  0  0  0  0  0  0  0  0  0  0
   -0.5900    0.6182   -1.8595 H   0  0  0  0  0  0  0  0  0  0  0  0
    0.0388    1.4925   -0.4787 H   0  0  0  0  0  0  0  0  0  0  0  0
    1.4959    1.0539   -2.0123 C   0  0  0  0  0  0  0  0  0  0  0  0
    1.1800    1.1736   -3.0522 H   0  0  0  0  0  0  0  0  0  0  0  0
    1.8382    2.0359   -1.6707 H   0  0  0  0  0  0  0  0  0  0  0  0
    2.7149    0.1314   -2.0179 C   0  0  0  0  0  0  0  0  0  0  0  0
    3.8115    0.5350   -1.6865 O   0  0  0  0  0  0  0  0  0  0  0  0
    2.7052   -1.0930   -2.6256 N   0  0  0  0  0  0  0  0  0  0  0  0
    3.5430   -1.6486   -2.4746 H   0  0  0  0  0  0  0  0  0  0  0  0
    1.8152   -1.5568   -2.7648 H   0  0  0  0  0  0  0  0  0  0  0  0
    0.6628   -0.3817    1.1291 C   0  0  0  0  0  0  0  0  0  0  0  0
    1.8364   -0.3832    1.4674 O   0  0  0  0  0  0  0  0  0  0  0  0
   -0.2920    0.0975    2.0085 N   0  0  0  0  0  0  0  0  0  0  0  0
   -1.2604   -0.0038    1.7256 H   0  0  0  0  0  0  0  0  0  0  0  0
    0.0033    0.3930    3.4051 C   0  0  0  0  0  0  0  0  0  0  0  0
    0.7726    1.1690    3.4787 H   0  0  0  0  0  0  0  0  0  0  0  0
   -0.8960    0.7508    3.9151 H   0  0  0  0  0  0  0  0  0  0  0  0
    0.3601   -0.5060    3.9189 H   0  0  0  0  0  0  0  0  0  0  0  0
  1  2  1  0  0  0  0
  2  3  1  0  0  0  0
  2  4  1  0  0  0  0
  2  5  1  0  0  0  0
  5  6  2  0  0  0  0
  5  7  1  0  0  0  0
  7  8  1  0  0  0  0
  7  9  1  0  0  0  0
  9 10  1  0  0  0  0
  9 11  1  0  0  0  0
  9 22  1  0  0  0  0
 11 12  1  0  0  0  0
 11 13  1  0  0  0  0
 11 14  1  0  0  0  0
 14 15  1  0  0  0  0
 14 16  1  0  0  0  0
 14 17  1  0  0  0  0
 17 18  2  0  0  0  0
 17 19  1  0  0  0  0
 19 20  1  0  0  0  0
 19 21  1  0  0  0  0
 22 23  2  0  0  0  0
 22 24  1  0  0  0  0
 24 25  1  0  0  0  0
 24 26  1  0  0  0  0
 26 27  1  0  0  0  0
 26 28  1  0  0  0  0
 26 29  1  0  0  0  0
M  END
$$$$

  -OEChem-02102214123D

 29 28  0     1  0  0  0  0  0999 V2000
   -2.6042   -4.3606    0.6206 H   0  0  0  0  0  0  0  0  0  0  0  0
   -2.6206   -3.4596    0.0006 C   0  0  0  0  0  0  0  0  0  0  0  0
   -3.5020   -2.8693    0.2619 H   0  0  0  0  0  0  0  0  0  0  0  0
   -2.6867   -3.7569   -1.0489 H   0  0  0  0  0  0  0  0  0  0  0  0
   -1.3608   -2.6461    0.2300 C   0  0  0  0  0  0  0  0  0  0  0  0
   -0.4969   -3.0617    0.9818 O   0  0  0  0  0  0  0  0  0  0  0  0
   -1.2072   -1.4249   -0.3985 N   0  0  0  0  0  0  0  0  0  0  0  0
   -1.9067   -1.2028   -1.1011 H   0  0  0  0  0  0  0  0  0  0  0  0
    0.0799   -0.7082   -0.4632 C   0  0  1  0  0  0  0  0  0  0  0  0
    0.7552   -1.4356   -0.9171 H   0  0  0  0  0  0  0  0  0  0  0  0
   -0.0550    0.5513   -1.3602 C   0  0  0  0  0  0  0  0  0  0  0  0
   -0.9730    0.4457   -1.9471 H   0  0  0  0  0  0  0  0  0  0  0  0
   -0.1900    1.4401   -0.7336 H   0  0  0  0  0  0  0  0  0  0  0  0
    1.0771    0.8226   -2.3855 C   0  0  0  0  0  0  0  0  0  0  0  0
    0.6342    1.1575   -3.3283 H   0  0  0  0  0  0  0  0  0  0  0  0
    1.6841    1.6503   -2.0076 H   0  0  0  0  0  0  0  0  0  0  0  0
    2.0369   -0.3239   -2.6849 C   0  0  0  0  0  0  0  0  0  0  0  0
    1.8659   -1.0545   -3.6420 O   0  0  0  0  0  0  0  0  0  0  0  0
    3.0842   -0.6208   -1.8600 N   0  0  0  0  0  0  0  0  0  0  0  0
    3.5208   -1.5217   -2.0285 H   0  0  0  0  0  0  0  0  0  0  0  0
    3.0325   -0.2742   -0.8994 H   0  0  0  0  0  0  0  0  0  0  0  0
    0.7371   -0.3154    0.8759 C   0  0  0  0  0  0  0  0  0  0  0  0
    1.9576   -0.1985    0.9110 O   0  0  0  0  0  0  0  0  0  0  0  0
   -0.0258    0.2435    1.8838 N   0  0  0  0  0  0  0  0  0  0  0  0
   -1.0195    0.0369    1.8485 H   0  0  0  0  0  0  0  0  0  0  0  0
    0.5479    0.6787    3.1510 C   0  0  0  0  0  0  0  0  0  0  0  0
    1.3128    1.4445    2.9846 H   0  0  0  0  0  0  0  0  0  0  0  0
   -0.2303    1.1047    3.7913 H   0  0  0  0  0  0  0  0  0  0  0  0
    1.0046   -0.1683    3.6739 H   0  0  0  0  0  0  0  0  0  0  0  0
  1  2  1  0  0  0  0
  2  3  1  0  0  0  0
  2  4  1  0  0  0  0
  2  5  1  0  0  0  0
  5  6  2  0  0  0  0
  5  7  1  0  0  0  0
  7  8  1  0  0  0  0
  7  9  1  0  0  0  0
  9 10  1  0  0  0  0
  9 11  1  0  0  0  0
  9 22  1  0  0  0  0
 11 12  1  0  0  0  0
 11 13  1  0  0  0  0
 11 14  1  0  0  0  0
 14 15  1  0  0  0  0
 14 16  1  0  0  0  0
 14 17  1  0  0  0  0
 17 18  2  0  0  0  0
 17 19  1  0  0  0  0
 19 20  1  0  0  0  0
 19 21  1  0  0  0  0
 22 23  2  0  0  0  0
 22 24  1  0  0  0  0
 24 25  1  0  0  0  0
 24 26  1  0  0  0  0
 26 27  1  0  0  0  0
 26 28  1  0  0  0  0
 26 29  1  0  0  0  0
M  END
$$$$

  -OEChem-02102214123D

 29 28  0     1  0  0  0  0  0999 V2000
   -2.5606   -4.3962    0.5154 H   0  0  0  0  0  0  0  0  0  0  0  0
   -2.5916   -3.4765   -0.0759 C   0  0  0  0  0  0  0  0  0  0  0  0
   -3.4818   -2.9084    0.2044 H   0  0  0  0  0  0  0  0  0  0  0  0
   -2.6537   -3.7416   -1.1341 H   0  0  0  0  0  0  0  0  0  0  0  0
   -1.3447   -2.6506    0.1779 C   0  0  0  0  0  0  0  0  0  0  0  0
   -0.4756   -3.0734    0.9199 O   0  0  0  0  0  0  0  0  0  0  0  0
   -1.2108   -1.4101   -0.4156 N   0  0  0  0  0  0  0  0  0  0  0  0
   -1.9073   -1.1866   -1.1209 H   0  0  0  0  0  0  0  0  0  0  0  0
    0.0636   -0.6698   -0.4578 C   0  0  1  0  0  0  0  0  0  0  0  0
    0.7561   -1.3731   -0.9228 H   0  0  0  0  0  0  0  0  0  0  0  0
   -0.0920    0.6047   -1.3291 C   0  0  0  0  0  0  0  0  0  0  0  0
   -0.9999    0.4909   -1.9303 H   0  0  0  0  0  0  0  0  0  0  0  0
   -0.2473    1.4814   -0.6907 H   0  0  0  0  0  0  0  0  0  0  0  0
    1.0491    0.8972   -2.3326 C   0  0  0  0  0  0  0  0  0  0  0  0
    0.6544    1.4796   -3.1700 H   0  0  0  0  0  0  0  0  0  0  0  0
    1.7921    1.5219   -1.8284 H   0  0  0  0  0  0  0  0  0  0  0  0
    1.7839   -0.3162   -2.8873 C   0  0  0  0  0  0  0  0  0  0  0  0
    1.3190   -0.9739   -3.7987 O   0  0  0  0  0  0  0  0  0  0  0  0
    2.9216   -0.7887   -2.2970 N   0  0  0  0  0  0  0  0  0  0  0  0
    3.1950   -1.7275   -2.5710 H   0  0  0  0  0  0  0  0  0  0  0  0
    3.1246   -0.4696   -1.3502 H   0  0  0  0  0  0  0  0  0  0  0  0
    0.7210   -0.2980    0.8856 C   0  0  0  0  0  0  0  0  0  0  0  0
    1.9415   -0.1825    0.9181 O   0  0  0  0  0  0  0  0  0  0  0  0
   -0.0409    0.2240    1.9138 N   0  0  0  0  0  0  0  0  0  0  0  0
   -1.0334    0.0124    1.8770 H   0  0  0  0  0  0  0  0  0  0  0  0
    0.5378    0.6256    3.1898 C   0  0  0  0  0  0  0  0  0  0  0  0
    1.2796    1.4179    3.0435 H   0  0  0  0  0  0  0  0  0  0  0  0
   -0.2428    1.0045    3.8564 H   0  0  0  0  0  0  0  0  0  0  0  0
    1.0245   -0.2280    3.6737 H   0  0  0  0  0  0  0  0  0  0  0  0
  1  2  1  0  0  0  0
  2  3  1  0  0  0  0
  2  4  1  0  0  0  0
  2  5  1  0  0  0  0
  5  6  2  0  0  0  0
  5  7  1  0  0  0  0
  7  8  1  0  0  0  0
  7  9  1  0  0  0  0
  9 10  1  0  0  0  0
  9 11  1  0  0  0  0
  9 22  1  0  0  0  0
 11 12  1  0  0  0  0
 11 13  1  0  0  0  0
 11 14  1  0  0  0  0
 14 15  1  0  0  0  0
 14 16  1  0  0  0  0
 14 17  1  0  0  0  0
 17 18  2  0  0  0  0
 17 19  1  0  0  0  0
 19 20  1  0  0  0  0
 19 21  1  0  0  0  0
 22 23  2  0  0  0  0
 22 24  1  0  0  0  0
 24 25  1  0  0  0  0
 24 26  1  0  0  0  0
 26 27  1  0  0  0  0
 26 28  1  0  0  0  0
 26 29  1  0  0  0  0
M  END
$$$$

  -OEChem-02102214123D

 29 28  0     1  0  0  0  0  0999 V2000
   -2.5385   -4.3837    0.4565 H   0  0  0  0  0  0  0  0  0  0  0  0
   -2.5602   -3.4610   -0.1304 C   0  0  0  0  0  0  0  0  0  0  0  0
   -3.4559   -2.8956    0.1372 H   0  0  0  0  0  0  0  0  0  0  0  0
   -2.6034   -3.7203   -1.1911 H   0  0  0  0  0  0  0  0  0  0  0  0
   -1.3196   -2.6343    0.1503 C   0  0  0  0  0  0  0  0  0  0  0  0
   -0.4587   -3.0665    0.8964 O   0  0  0  0  0  0  0  0  0  0  0  0
   -1.1841   -1.3858   -0.4260 N   0  0  0  0  0  0  0  0  0  0  0  0
   -1.8645   -1.1660   -1.1484 H   0  0  0  0  0  0  0  0  0  0  0  0
    0.0871   -0.6389   -0.4462 C   0  0  1  0  0  0  0  0  0  0  0  0
    0.8073   -1.3072   -0.9242 H   0  0  0  0  0  0  0  0  0  0  0  0
   -0.0866    0.6605   -1.2746 C   0  0  0  0  0  0  0  0  0  0  0  0
   -1.0004    0.5758   -1.8721 H   0  0  0  0  0  0  0  0  0  0  0  0
   -0.2220    1.5197   -0.6086 H   0  0  0  0  0  0  0  0  0  0  0  0
    1.0626    0.9538   -2.2622 C   0  0  0  0  0  0  0  0  0  0  0  0
    0.7597    1.7465   -2.9519 H   0  0  0  0  0  0  0  0  0  0  0  0
    1.9218    1.3239   -1.6950 H   0  0  0  0  0  0  0  0  0  0  0  0
    1.5130   -0.2539   -3.0755 C   0  0  0  0  0  0  0  0  0  0  0  0
    0.7461   -0.8295   -3.8250 O   0  0  0  0  0  0  0  0  0  0  0  0
    2.7337   -0.8350   -2.8840 N   0  0  0  0  0  0  0  0  0  0  0  0
    2.8395   -1.7685   -3.2699 H   0  0  0  0  0  0  0  0  0  0  0  0
    3.2591   -0.5745   -2.0536 H   0  0  0  0  0  0  0  0  0  0  0  0
    0.7043   -0.2952    0.9255 C   0  0  0  0  0  0  0  0  0  0  0  0
    1.9216   -0.1837    1.0100 O   0  0  0  0  0  0  0  0  0  0  0  0
   -0.0938    0.1994    1.9403 N   0  0  0  0  0  0  0  0  0  0  0  0
   -1.0839   -0.0113    1.8617 H   0  0  0  0  0  0  0  0  0  0  0  0
    0.4380    0.5637    3.2474 C   0  0  0  0  0  0  0  0  0  0  0  0
    1.1825    1.3610    3.1508 H   0  0  0  0  0  0  0  0  0  0  0  0
   -0.3665    0.9218    3.8968 H   0  0  0  0  0  0  0  0  0  0  0  0
    0.9093   -0.3030    3.7228 H   0  0  0  0  0  0  0  0  0  0  0  0
  1  2  1  0  0  0  0
  2  3  1  0  0  0  0
  2  4  1  0  0  0  0
  2  5  1  0  0  0  0
  5  6  2  0  0  0  0
  5  7  1  0  0  0  0
  7  8  1  0  0  0  0
  7  9  1  0  0  0  0
  9 10  1  0  0  0  0
  9 11  1  0  0  0  0
  9 22  1  0  0  0  0
 11 12  1  0  0  0  0
 11 13  1  0  0  0  0
 11 14  1  0  0  0  0
 14 15  1  0  0  0  0
 14 16  1  0  0  0  0
 14 17  1  0  0  0  0
 17 18  2  0  0  0  0
 17 19  1  0  0  0  0
 19 20  1  0  0  0  0
 19 21  1  0  0  0  0
 22 23  2  0  0  0  0
 22 24  1  0  0  0  0
 24 25  1  0  0  0  0
 24 26  1  0  0  0  0
 26 27  1  0  0  0  0
 26 28  1  0  0  0  0
 26 29  1  0  0  0  0
M  END
$$$$

  -OEChem-02102214123D

 29 28  0     1  0  0  0  0  0999 V2000
   -2.5658   -4.3707    0.3828 H   0  0  0  0  0  0  0  0  0  0  0  0
   -2.5750   -3.4326   -0.1796 C   0  0  0  0  0  0  0  0  0  0  0  0
   -3.4778   -2.8751    0.0812 H   0  0  0  0  0  0  0  0  0  0  0  0
   -2.5921   -3.6633   -1.2476 H   0  0  0  0  0  0  0  0  0  0  0  0
   -1.3428   -2.6125    0.1525 C   0  0  0  0  0  0  0  0  0  0  0  0
   -0.5137   -3.0517    0.9298 O   0  0  0  0  0  0  0  0  0  0  0  0
   -1.1819   -1.3632   -0.4144 N   0  0  0  0  0  0  0  0  0  0  0  0
   -1.8257   -1.1511   -1.1723 H   0  0  0  0  0  0  0  0  0  0  0  0
    0.0962   -0.6286   -0.4051 C   0  0  1  0  0  0  0  0  0  0  0  0
    0.8293   -1.2818   -0.8890 H   0  0  0  0  0  0  0  0  0  0  0  0
   -0.0672    0.6780   -1.2184 C   0  0  0  0  0  0  0  0  0  0  0  0
   -0.9828    0.6325   -1.8181 H   0  0  0  0  0  0  0  0  0  0  0  0
   -0.1740    1.5320   -0.5404 H   0  0  0  0  0  0  0  0  0  0  0  0
    1.1150    0.9296   -2.1729 C   0  0  0  0  0  0  0  0  0  0  0  0
    0.9587    1.8708   -2.7067 H   0  0  0  0  0  0  0  0  0  0  0  0
    2.0323    1.0299   -1.5850 H   0  0  0  0  0  0  0  0  0  0  0  0
    1.3004   -0.1832   -3.2020 C   0  0  0  0  0  0  0  0  0  0  0  0
    0.3522   -0.7473   -3.7187 O   0  0  0  0  0  0  0  0  0  0  0  0
    2.5374   -0.6603   -3.5267 N   0  0  0  0  0  0  0  0  0  0  0  0
    2.5515   -1.5368   -4.0400 H   0  0  0  0  0  0  0  0  0  0  0  0
    3.3225   -0.4093   -2.9338 H   0  0  0  0  0  0  0  0  0  0  0  0
    0.6779   -0.3032    0.9876 C   0  0  0  0  0  0  0  0  0  0  0  0
    1.8921   -0.2027    1.1152 O   0  0  0  0  0  0  0  0  0  0  0  0
   -0.1483    0.1899    1.9804 N   0  0  0  0  0  0  0  0  0  0  0  0
   -1.1365   -0.0148    1.8682 H   0  0  0  0  0  0  0  0  0  0  0  0
    0.3432    0.5428    3.3059 C   0  0  0  0  0  0  0  0  0  0  0  0
    1.0964    1.3349    3.2379 H   0  0  0  0  0  0  0  0  0  0  0  0
   -0.4796    0.9037    3.9301 H   0  0  0  0  0  0  0  0  0  0  0  0
    0.7920   -0.3299    3.7919 H   0  0  0  0  0  0  0  0  0  0  0  0
  1  2  1  0  0  0  0
  2  3  1  0  0  0  0
  2  4  1  0  0  0  0
  2  5  1  0  0  0  0
  5  6  2  0  0  0  0
  5  7  1  0  0  0  0
  7  8  1  0  0  0  0
  7  9  1  0  0  0  0
  9 10  1  0  0  0  0
  9 11  1  0  0  0  0
  9 22  1  0  0  0  0
 11 12  1  0  0  0  0
 11 13  1  0  0  0  0
 11 14  1  0  0  0  0
 14 15  1  0  0  0  0
 14 16  1  0  0  0  0
 14 17  1  0  0  0  0
 17 18  2  0  0  0  0
 17 19  1  0  0  0  0
 19 20  1  0  0  0  0
 19 21  1  0  0  0  0
 22 23  2  0  0  0  0
 22 24  1  0  0  0  0
 24 25  1  0  0  0  0
 24 26  1  0  0  0  0
 26 27  1  0  0  0  0
 26 28  1  0  0  0  0
 26 29  1  0  0  0  0
M  END
$$$$

  -OEChem-02102214123D

 29 28  0     1  0  0  0  0  0999 V2000
   -2.6215   -4.3513    0.3558 H   0  0  0  0  0  0  0  0  0  0  0  0
   -2.6112   -3.4081   -0.1977 C   0  0  0  0  0  0  0  0  0  0  0  0
   -3.5216   -2.8521    0.0382 H   0  0  0  0  0  0  0  0  0  0  0  0
   -2.5930   -3.6291   -1.2677 H   0  0  0  0  0  0  0  0  0  0  0  0
   -1.3898   -2.5927    0.1825 C   0  0  0  0  0  0  0  0  0  0  0  0
   -0.5994   -3.0320    0.9993 O   0  0  0  0  0  0  0  0  0  0  0  0
   -1.1931   -1.3508   -0.3898 N   0  0  0  0  0  0  0  0  0  0  0  0
   -1.8018   -1.1454   -1.1783 H   0  0  0  0  0  0  0  0  0  0  0  0
    0.0990   -0.6418   -0.3575 C   0  0  1  0  0  0  0  0  0  0  0  0
    0.8306   -1.3048   -0.8322 H   0  0  0  0  0  0  0  0  0  0  0  0
   -0.0286    0.6578   -1.1843 C   0  0  0  0  0  0  0  0  0  0  0  0
   -0.9430    0.6504   -1.7874 H   0  0  0  0  0  0  0  0  0  0  0  0
   -0.1069    1.5165   -0.5085 H   0  0  0  0  0  0  0  0  0  0  0  0
    1.1889    0.8531   -2.1077 C   0  0  0  0  0  0  0  0  0  0  0  0
    1.1978    1.8841   -2.4714 H   0  0  0  0  0  0  0  0  0  0  0  0
    2.1116    0.6941   -1.5412 H   0  0  0  0  0  0  0  0  0  0  0  0
    1.1701   -0.0717   -3.3247 C   0  0  0  0  0  0  0  0  0  0  0  0
    0.1761   -0.6824   -3.6782 O   0  0  0  0  0  0  0  0  0  0  0  0
    2.2938   -0.2834   -4.0697 N   0  0  0  0  0  0  0  0  0  0  0  0
    2.2467   -1.0515   -4.7329 H   0  0  0  0  0  0  0  0  0  0  0  0
    3.1897    0.0053   -3.6900 H   0  0  0  0  0  0  0  0  0  0  0  0
    0.6543   -0.3193    1.0476 C   0  0  0  0  0  0  0  0  0  0  0  0
    1.8663   -0.2439    1.2076 O   0  0  0  0  0  0  0  0  0  0  0  0
   -0.1868    0.1962    2.0164 N   0  0  0  0  0  0  0  0  0  0  0  0
   -1.1752    0.0062    1.8815 H   0  0  0  0  0  0  0  0  0  0  0  0
    0.2782    0.5495    3.3515 C   0  0  0  0  0  0  0  0  0  0  0  0
    1.0492    1.3254    3.2969 H   0  0  0  0  0  0  0  0  0  0  0  0
   -0.5525    0.9322    3.9517 H   0  0  0  0  0  0  0  0  0  0  0  0
    0.6965   -0.3285    3.8550 H   0  0  0  0  0  0  0  0  0  0  0  0
  1  2  1  0  0  0  0
  2  3  1  0  0  0  0
  2  4  1  0  0  0  0
  2  5  1  0  0  0  0
  5  6  2  0  0  0  0
  5  7  1  0  0  0  0
  7  8  1  0  0  0  0
  7  9  1  0  0  0  0
  9 10  1  0  0  0  0
  9 11  1  0  0  0  0
  9 22  1  0  0  0  0
 11 12  1  0  0  0  0
 11 13  1  0  0  0  0
 11 14  1  0  0  0  0
 14 15  1  0  0  0  0
 14 16  1  0  0  0  0
 14 17  1  0  0  0  0
 17 18  2  0  0  0  0
 17 19  1  0  0  0  0
 19 20  1  0  0  0  0
 19 21  1  0  0  0  0
 22 23  2  0  0  0  0
 22 24  1  0  0  0  0
 24 25  1  0  0  0  0
 24 26  1  0  0  0  0
 26 27  1  0  0  0  0
 26 28  1  0  0  0  0
 26 29  1  0  0  0  0
M  END
$$$$

  -OEChem-02102214123D

 29 28  0     1  0  0  0  0  0999 V2000
   -2.6856   -4.3315    0.3738 H   0  0  0  0  0  0  0  0  0  0  0  0
   -2.6632   -3.3829   -0.1702 C   0  0  0  0  0  0  0  0  0  0  0  0
   -3.5608   -2.8125    0.0800 H   0  0  0  0  0  0  0  0  0  0  0  0
   -2.6592   -3.5933   -1.2425 H   0  0  0  0  0  0  0  0  0  0  0  0
   -1.4236   -2.5935    0.2065 C   0  0  0  0  0  0  0  0  0  0  0  0
   -0.6478   -3.0421    1.0320 O   0  0  0  0  0  0  0  0  0  0  0  0
   -1.1961   -1.3618   -0.3761 N   0  0  0  0  0  0  0  0  0  0  0  0
   -1.7974   -1.1459   -1.1675 H   0  0  0  0  0  0  0  0  0  0  0  0
    0.1055   -0.6712   -0.3302 C   0  0  1  0  0  0  0  0  0  0  0  0
    0.8327   -1.3523   -0.7870 H   0  0  0  0  0  0  0  0  0  0  0  0
    0.0103    0.6151   -1.1795 C   0  0  0  0  0  0  0  0  0  0  0  0
   -0.9019    0.6258   -1.7857 H   0  0  0  0  0  0  0  0  0  0  0  0
   -0.0557    1.4814   -0.5122 H   0  0  0  0  0  0  0  0  0  0  0  0
    1.2498    0.7776   -2.0834 C   0  0  0  0  0  0  0  0  0  0  0  0
    1.4137    1.8452   -2.2532 H   0  0  0  0  0  0  0  0  0  0  0  0
    2.1424    0.3872   -1.5850 H   0  0  0  0  0  0  0  0  0  0  0  0
    1.0913    0.1180   -3.4532 C   0  0  0  0  0  0  0  0  0  0  0  0
    0.1133   -0.5366   -3.7704 O   0  0  0  0  0  0  0  0  0  0  0  0
    2.0721    0.2101   -4.3981 N   0  0  0  0  0  0  0  0  0  0  0  0
    1.9757   -0.4081   -5.1984 H   0  0  0  0  0  0  0  0  0  0  0  0
    2.9898    0.5406   -4.1180 H   0  0  0  0  0  0  0  0  0  0  0  0
    0.6422   -0.3393    1.0799 C   0  0  0  0  0  0  0  0  0  0  0  0
    1.8520   -0.2785    1.2604 O   0  0  0  0  0  0  0  0  0  0  0  0
   -0.2079    0.2003    2.0277 N   0  0  0  0  0  0  0  0  0  0  0  0
   -1.1965    0.0238    1.8775 H   0  0  0  0  0  0  0  0  0  0  0  0
    0.2387    0.5601    3.3673 C   0  0  0  0  0  0  0  0  0  0  0  0
    1.0259    1.3198    3.3188 H   0  0  0  0  0  0  0  0  0  0  0  0
   -0.5958    0.9661    3.9468 H   0  0  0  0  0  0  0  0  0  0  0  0
    0.6300   -0.3199    3.8885 H   0  0  0  0  0  0  0  0  0  0  0  0
  1  2  1  0  0  0  0
  2  3  1  0  0  0  0
  2  4  1  0  0  0  0
  2  5  1  0  0  0  0
  5  6  2  0  0  0  0
  5  7  1  0  0  0  0
  7  8  1  0  0  0  0
  7  9  1  0  0  0  0
  9 10  1  0  0  0  0
  9 11  1  0  0  0  0
  9 22  1  0  0  0  0
 11 12  1  0  0  0  0
 11 13  1  0  0  0  0
 11 14  1  0  0  0  0
 14 15  1  0  0  0  0
 14 16  1  0  0  0  0
 14 17  1  0  0  0  0
 17 18  2  0  0  0  0
 17 19  1  0  0  0  0
 19 20  1  0  0  0  0
 19 21  1  0  0  0  0
 22 23  2  0  0  0  0
 22 24  1  0  0  0  0
 24 25  1  0  0  0  0
 24 26  1  0  0  0  0
 26 27  1  0  0  0  0
 26 28  1  0  0  0  0
 26 29  1  0  0  0  0
M  END
$$$$

  -OEChem-02102214123D

 29 28  0     1  0  0  0  0  0999 V2000
   -2.7209   -4.3302    0.3981 H   0  0  0  0  0  0  0  0  0  0  0  0
   -2.7043   -3.3714   -0.1278 C   0  0  0  0  0  0  0  0  0  0  0  0
   -3.5871   -2.7961    0.1610 H   0  0  0  0  0  0  0  0  0  0  0  0
   -2.7357   -3.5607   -1.2036 H   0  0  0  0  0  0  0  0  0  0  0  0
   -1.4447   -2.6036    0.2263 C   0  0  0  0  0  0  0  0  0  0  0  0
   -0.6634   -3.0639    1.0399 O   0  0  0  0  0  0  0  0  0  0  0  0
   -1.2008   -1.3802   -0.3671 N   0  0  0  0  0  0  0  0  0  0  0  0
   -1.8151   -1.1444   -1.1427 H   0  0  0  0  0  0  0  0  0  0  0  0
    0.1064   -0.6991   -0.3201 C   0  0  1  0  0  0  0  0  0  0  0  0
    0.8282   -1.3958   -0.7605 H   0  0  0  0  0  0  0  0  0  0  0  0
    0.0329    0.5763   -1.1882 C   0  0  0  0  0  0  0  0  0  0  0  0
   -0.8799    0.5864   -1.7923 H   0  0  0  0  0  0  0  0  0  0  0  0
   -0.0322    1.4511   -0.5320 H   0  0  0  0  0  0  0  0  0  0  0  0
    1.2806    0.7278   -2.0896 C   0  0  0  0  0  0  0  0  0  0  0  0
    1.6035    1.7718   -2.0470 H   0  0  0  0  0  0  0  0  0  0  0  0
    2.1122    0.1224   -1.7174 H   0  0  0  0  0  0  0  0  0  0  0  0
    1.0255    0.3916   -3.5586 C   0  0  0  0  0  0  0  0  0  0  0  0
    0.0387   -0.2093   -3.9457 O   0  0  0  0  0  0  0  0  0  0  0  0
    1.9289    0.7260   -4.5256 N   0  0  0  0  0  0  0  0  0  0  0  0
    1.7804    0.3031   -5.4372 H   0  0  0  0  0  0  0  0  0  0  0  0
    2.8587    1.0200   -4.2451 H   0  0  0  0  0  0  0  0  0  0  0  0
    0.6357   -0.3562    1.0901 C   0  0  0  0  0  0  0  0  0  0  0  0
    1.8445   -0.3056    1.2795 O   0  0  0  0  0  0  0  0  0  0  0  0
   -0.2163    0.2006    2.0264 N   0  0  0  0  0  0  0  0  0  0  0  0
   -1.2062    0.0394    1.8685 H   0  0  0  0  0  0  0  0  0  0  0  0
    0.2242    0.5716    3.3649 C   0  0  0  0  0  0  0  0  0  0  0  0
    1.0216    1.3203    3.3132 H   0  0  0  0  0  0  0  0  0  0  0  0
   -0.6090    0.9960    3.9329 H   0  0  0  0  0  0  0  0  0  0  0  0
    0.5994   -0.3070    3.9003 H   0  0  0  0  0  0  0  0  0  0  0  0
  1  2  1  0  0  0  0
  2  3  1  0  0  0  0
  2  4  1  0  0  0  0
  2  5  1  0  0  0  0
  5  6  2  0  0  0  0
  5  7  1  0  0  0  0
  7  8  1  0  0  0  0
  7  9  1  0  0  0  0
  9 10  1  0  0  0  0
  9 11  1  0  0  0  0
  9 22  1  0  0  0  0
 11 12  1  0  0  0  0
 11 13  1  0  0  0  0
 11 14  1  0  0  0  0
 14 15  1  0  0  0  0
 14 16  1  0  0  0  0
 14 17  1  0  0  0  0
 17 18  2  0  0  0  0
 17 19  1  0  0  0  0
 19 20  1  0  0  0  0
 19 21  1  0  0  0  0
 22 23  2  0  0  0  0
 22 24  1  0  0  0  0
 24 25  1  0  0  0  0
 24 26  1  0  0  0  0
 26 27  1  0  0  0  0
 26 28  1  0  0  0  0
 26 29  1  0  0  0  0
M  END
$$$$

  -OEChem-02102214123D

 29 28  0     1  0  0  0  0  0999 V2000
   -2.8046   -4.2839    0.5021 H   0  0  0  0  0  0  0  0  0  0  0  0
   -2.7459   -3.3586   -0.0781 C   0  0  0  0  0  0  0  0  0  0  0  0
   -3.6055   -2.7319    0.1713 H   0  0  0  0  0  0  0  0  0  0  0  0
   -2.7809   -3.6078   -1.1414 H   0  0  0  0  0  0  0  0  0  0  0  0
   -1.4574   -2.6237    0.2398 C   0  0  0  0  0  0  0  0  0  0  0  0
   -0.6672   -3.0999    1.0354 O   0  0  0  0  0  0  0  0  0  0  0  0
   -1.1982   -1.4090   -0.3644 N   0  0  0  0  0  0  0  0  0  0  0  0
   -1.8304   -1.1497   -1.1175 H   0  0  0  0  0  0  0  0  0  0  0  0
    0.1130   -0.7353   -0.3203 C   0  0  1  0  0  0  0  0  0  0  0  0
    0.8307   -1.4447   -0.7459 H   0  0  0  0  0  0  0  0  0  0  0  0
    0.0524    0.5343   -1.2001 C   0  0  0  0  0  0  0  0  0  0  0  0
   -0.8576    0.5195   -1.8077 H   0  0  0  0  0  0  0  0  0  0  0  0
   -0.0297    1.4204   -0.5608 H   0  0  0  0  0  0  0  0  0  0  0  0
    1.3001    0.6863   -2.1071 C   0  0  0  0  0  0  0  0  0  0  0  0
    1.7942    1.6273   -1.8498 H   0  0  0  0  0  0  0  0  0  0  0  0
    2.0254   -0.1104   -1.9209 H   0  0  0  0  0  0  0  0  0  0  0  0
    0.9878    0.7085   -3.6036 C   0  0  0  0  0  0  0  0  0  0  0  0
   -0.0118    0.2066   -4.0858 O   0  0  0  0  0  0  0  0  0  0  0  0
    1.8505    1.2743   -4.4977 N   0  0  0  0  0  0  0  0  0  0  0  0
    1.6651    1.0809   -5.4777 H   0  0  0  0  0  0  0  0  0  0  0  0
    2.7887    1.5108   -4.1918 H   0  0  0  0  0  0  0  0  0  0  0  0
    0.6377   -0.3803    1.0883 C   0  0  0  0  0  0  0  0  0  0  0  0
    1.8457   -0.3331    1.2829 O   0  0  0  0  0  0  0  0  0  0  0  0
   -0.2154    0.1916    2.0145 N   0  0  0  0  0  0  0  0  0  0  0  0
   -1.2062    0.0406    1.8528 H   0  0  0  0  0  0  0  0  0  0  0  0
    0.2223    0.5880    3.3468 C   0  0  0  0  0  0  0  0  0  0  0  0
    0.9952    1.3610    3.2822 H   0  0  0  0  0  0  0  0  0  0  0  0
   -0.6202    0.9904    3.9172 H   0  0  0  0  0  0  0  0  0  0  0  0
    0.6294   -0.2729    3.8879 H   0  0  0  0  0  0  0  0  0  0  0  0
  1  2  1  0  0  0  0
  2  3  1  0  0  0  0
  2  4  1  0  0  0  0
  2  5  1  0  0  0  0
  5  6  2  0  0  0  0
  5  7  1  0  0  0  0
  7  8  1  0  0  0  0
  7  9  1  0  0  0  0
  9 10  1  0  0  0  0
  9 11  1  0  0  0  0
  9 22  1  0  0  0  0
 11 12  1  0  0  0  0
 11 13  1  0  0  0  0
 11 14  1  0  0  0  0
 14 15  1  0  0  0  0
 14 16  1  0  0  0  0
 14 17  1  0  0  0  0
 17 18  2  0  0  0  0
 17 19  1  0  0  0  0
 19 20  1  0  0  0  0
 19 21  1  0  0  0  0
 22 23  2  0  0  0  0
 22 24  1  0  0  0  0
 24 25  1  0  0  0  0
 24 26  1  0  0  0  0
 26 27  1  0  0  0  0
 26 28  1  0  0  0  0
 26 29  1  0  0  0  0
M  END
$$$$

  -OEChem-02102214123D

 29 28  0     1  0  0  0  0  0999 V2000
   -2.7119   -4.3439    0.4671 H   0  0  0  0  0  0  0  0  0  0  0  0
   -2.7102   -3.3811   -0.0521 C   0  0  0  0  0  0  0  0  0  0  0  0
   -3.5555   -2.7877    0.3046 H   0  0  0  0  0  0  0  0  0  0  0  0
   -2.8252   -3.5603   -1.1239 H   0  0  0  0  0  0  0  0  0  0  0  0
   -1.4096   -2.6467    0.2150 C   0  0  0  0  0  0  0  0  0  0  0  0
   -0.5757   -3.1383    0.9542 O   0  0  0  0  0  0  0  0  0  0  0  0
   -1.1827   -1.4184   -0.3750 N   0  0  0  0  0  0  0  0  0  0  0  0
   -1.8684   -1.1172   -1.0624 H   0  0  0  0  0  0  0  0  0  0  0  0
    0.1095   -0.7075   -0.3313 C   0  0  1  0  0  0  0  0  0  0  0  0
    0.8451   -1.3946   -0.7616 H   0  0  0  0  0  0  0  0  0  0  0  0
    0.0186    0.5700   -1.1983 C   0  0  0  0  0  0  0  0  0  0  0  0
   -0.8818    0.4993   -1.8156 H   0  0  0  0  0  0  0  0  0  0  0  0
   -0.1127    1.4556   -0.5665 H   0  0  0  0  0  0  0  0  0  0  0  0
    1.2596    0.7678   -2.1080 C   0  0  0  0  0  0  0  0  0  0  0  0
    1.8983    1.5349   -1.6609 H   0  0  0  0  0  0  0  0  0  0  0  0
    1.8498   -0.1505   -2.1569 H   0  0  0  0  0  0  0  0  0  0  0  0
    0.9490    1.1651   -3.5522 C   0  0  0  0  0  0  0  0  0  0  0  0
   -0.1694    1.1620   -4.0336 O   0  0  0  0  0  0  0  0  0  0  0  0
    1.9493    1.5253   -4.4083 N   0  0  0  0  0  0  0  0  0  0  0  0
    1.6949    1.6019   -5.3887 H   0  0  0  0  0  0  0  0  0  0  0  0
    2.9136    1.3616   -4.1385 H   0  0  0  0  0  0  0  0  0  0  0  0
    0.6303   -0.3540    1.0790 C   0  0  0  0  0  0  0  0  0  0  0  0
    1.8374   -0.2904    1.2738 O   0  0  0  0  0  0  0  0  0  0  0  0
   -0.2324    0.1826    2.0173 N   0  0  0  0  0  0  0  0  0  0  0  0
   -1.2214    0.0279    1.8501 H   0  0  0  0  0  0  0  0  0  0  0  0
    0.1987    0.5646    3.3559 C   0  0  0  0  0  0  0  0  0  0  0  0
    0.9852    1.3250    3.3041 H   0  0  0  0  0  0  0  0  0  0  0  0
   -0.6425    0.9787    3.9199 H   0  0  0  0  0  0  0  0  0  0  0  0
    0.5853   -0.3063    3.8958 H   0  0  0  0  0  0  0  0  0  0  0  0
  1  2  1  0  0  0  0
  2  3  1  0  0  0  0
  2  4  1  0  0  0  0
  2  5  1  0  0  0  0
  5  6  2  0  0  0  0
  5  7  1  0  0  0  0
  7  8  1  0  0  0  0
  7  9  1  0  0  0  0
  9 10  1  0  0  0  0
  9 11  1  0  0  0  0
  9 22  1  0  0  0  0
 11 12  1  0  0  0  0
 11 13  1  0  0  0  0
 11 14  1  0  0  0  0
 14 15  1  0  0  0  0
 14 16  1  0  0  0  0
 14 17  1  0  0  0  0
 17 18  2  0  0  0  0
 17 19  1  0  0  0  0
 19 20  1  0  0  0  0
 19 21  1  0  0  0  0
 22 23  2  0  0  0  0
 22 24  1  0  0  0  0
 24 25  1  0  0  0  0
 24 26  1  0  0  0  0
 26 27  1  0  0  0  0
 26 28  1  0  0  0  0
 26 29  1  0  0  0  0
M  END
$$$$

  -OEChem-02102214123D

 29 28  0     1  0  0  0  0  0999 V2000
   -2.6989   -4.3468    0.4913 H   0  0  0  0  0  0  0  0  0  0  0  0
   -2.6997   -3.3862   -0.0319 C   0  0  0  0  0  0  0  0  0  0  0  0
   -3.5310   -2.7832    0.3412 H   0  0  0  0  0  0  0  0  0  0  0  0
   -2.8400   -3.5693   -1.0999 H   0  0  0  0  0  0  0  0  0  0  0  0
   -1.3865   -2.6635    0.2025 C   0  0  0  0  0  0  0  0  0  0  0  0
   -0.5356   -3.1667    0.9139 O   0  0  0  0  0  0  0  0  0  0  0  0
   -1.1650   -1.4346   -0.3882 N   0  0  0  0  0  0  0  0  0  0  0  0
   -1.8769   -1.1063   -1.0349 H   0  0  0  0  0  0  0  0  0  0  0  0
    0.1201   -0.7115   -0.3387 C   0  0  1  0  0  0  0  0  0  0  0  0
    0.8677   -1.3901   -0.7629 H   0  0  0  0  0  0  0  0  0  0  0  0
    0.0276    0.5625   -1.2083 C   0  0  0  0  0  0  0  0  0  0  0  0
   -0.8517    0.4667   -1.8537 H   0  0  0  0  0  0  0  0  0  0  0  0
   -0.1299    1.4532   -0.5900 H   0  0  0  0  0  0  0  0  0  0  0  0
    1.2747    0.7580   -2.1019 C   0  0  0  0  0  0  0  0  0  0  0  0
    2.0382    1.3023   -1.5387 H   0  0  0  0  0  0  0  0  0  0  0  0
    1.6952   -0.2141   -2.3723 H   0  0  0  0  0  0  0  0  0  0  0  0
    0.9923    1.4873   -3.4152 C   0  0  0  0  0  0  0  0  0  0  0  0
   -0.0995    1.9355   -3.7148 O   0  0  0  0  0  0  0  0  0  0  0  0
    1.9818    1.6895   -4.3336 N   0  0  0  0  0  0  0  0  0  0  0  0
    1.7632    2.3289   -5.0922 H   0  0  0  0  0  0  0  0  0  0  0  0
    2.9459    1.5276   -4.0614 H   0  0  0  0  0  0  0  0  0  0  0  0
    0.6271   -0.3506    1.0746 C   0  0  0  0  0  0  0  0  0  0  0  0
    1.8319   -0.2819    1.2806 O   0  0  0  0  0  0  0  0  0  0  0  0
   -0.2471    0.1797    2.0059 N   0  0  0  0  0  0  0  0  0  0  0  0
   -1.2348    0.0337    1.8250 H   0  0  0  0  0  0  0  0  0  0  0  0
    0.1690    0.5740    3.3458 C   0  0  0  0  0  0  0  0  0  0  0  0
    0.9487    1.3414    3.2960 H   0  0  0  0  0  0  0  0  0  0  0  0
   -0.6807    0.9833    3.9004 H   0  0  0  0  0  0  0  0  0  0  0  0
    0.5592   -0.2899    3.8941 H   0  0  0  0  0  0  0  0  0  0  0  0
  1  2  1  0  0  0  0
  2  3  1  0  0  0  0
  2  4  1  0  0  0  0
  2  5  1  0  0  0  0
  5  6  2  0  0  0  0
  5  7  1  0  0  0  0
  7  8  1  0  0  0  0
  7  9  1  0  0  0  0
  9 10  1  0  0  0  0
  9 11  1  0  0  0  0
  9 22  1  0  0  0  0
 11 12  1  0  0  0  0
 11 13  1  0  0  0  0
 11 14  1  0  0  0  0
 14 15  1  0  0  0  0
 14 16  1  0  0  0  0
 14 17  1  0  0  0  0
 17 18  2  0  0  0  0
 17 19  1  0  0  0  0
 19 20  1  0  0  0  0
 19 21  1  0  0  0  0
 22 23  2  0  0  0  0
 22 24  1  0  0  0  0
 24 25  1  0  0  0  0
 24 26  1  0  0  0  0
 26 27  1  0  0  0  0
 26 28  1  0  0  0  0
 26 29  1  0  0  0  0
M  END
$$$$

  -OEChem-02102214123D

 29 28  0     1  0  0  0  0  0999 V2000
   -2.7096   -4.3384    0.5043 H   0  0  0  0  0  0  0  0  0  0  0  0
   -2.7085   -3.3805   -0.0237 C   0  0  0  0  0  0  0  0  0  0  0  0
   -3.5362   -2.7728    0.3490 H   0  0  0  0  0  0  0  0  0  0  0  0
   -2.8530   -3.5676   -1.0905 H   0  0  0  0  0  0  0  0  0  0  0  0
   -1.3919   -2.6622    0.2040 C   0  0  0  0  0  0  0  0  0  0  0  0
   -0.5404   -3.1664    0.9137 O   0  0  0  0  0  0  0  0  0  0  0  0
   -1.1687   -1.4358   -0.3912 N   0  0  0  0  0  0  0  0  0  0  0  0
   -1.8841   -1.1041   -1.0321 H   0  0  0  0  0  0  0  0  0  0  0  0
    0.1181   -0.7160   -0.3482 C   0  0  1  0  0  0  0  0  0  0  0  0
    0.8658   -1.3934   -0.7755 H   0  0  0  0  0  0  0  0  0  0  0  0
    0.0248    0.5517   -1.2233 C   0  0  0  0  0  0  0  0  0  0  0  0
   -0.8510    0.4678   -1.8759 H   0  0  0  0  0  0  0  0  0  0  0  0
   -0.1198    1.4450   -0.6052 H   0  0  0  0  0  0  0  0  0  0  0  0
    1.2734    0.7230   -2.1115 C   0  0  0  0  0  0  0  0  0  0  0  0
    2.1192    1.0302   -1.4894 H   0  0  0  0  0  0  0  0  0  0  0  0
    1.5288   -0.2328   -2.5772 H   0  0  0  0  0  0  0  0  0  0  0  0
    1.0781    1.7376   -3.2365 C   0  0  0  0  0  0  0  0  0  0  0  0
    0.0181    2.2956   -3.4549 O   0  0  0  0  0  0  0  0  0  0  0  0
    2.1067    2.0761   -4.0677 N   0  0  0  0  0  0  0  0  0  0  0  0
    1.9478    2.8778   -4.6711 H   0  0  0  0  0  0  0  0  0  0  0  0
    3.0513    1.8034   -3.8165 H   0  0  0  0  0  0  0  0  0  0  0  0
    0.6295   -0.3523    1.0629 C   0  0  0  0  0  0  0  0  0  0  0  0
    1.8350   -0.2873    1.2662 O   0  0  0  0  0  0  0  0  0  0  0  0
   -0.2409    0.1829    1.9948 N   0  0  0  0  0  0  0  0  0  0  0  0
   -1.2301    0.0440    1.8157 H   0  0  0  0  0  0  0  0  0  0  0  0
    0.1809    0.5852    3.3303 C   0  0  0  0  0  0  0  0  0  0  0  0
    0.9468    1.3657    3.2718 H   0  0  0  0  0  0  0  0  0  0  0  0
   -0.6701    0.9804    3.8931 H   0  0  0  0  0  0  0  0  0  0  0  0
    0.5913   -0.2713    3.8755 H   0  0  0  0  0  0  0  0  0  0  0  0
  1  2  1  0  0  0  0
  2  3  1  0  0  0  0
  2  4  1  0  0  0  0
  2  5  1  0  0  0  0
  5  6  2  0  0  0  0
  5  7  1  0  0  0  0
  7  8  1  0  0  0  0
  7  9  1  0  0  0  0
  9 10  1  0  0  0  0
  9 11  1  0  0  0  0
  9 22  1  0  0  0  0
 11 12  1  0  0  0  0
 11 13  1  0  0  0  0
 11 14  1  0  0  0  0
 14 15  1  0  0  0  0
 14 16  1  0  0  0  0
 14 17  1  0  0  0  0
 17 18  2  0  0  0  0
 17 19  1  0  0  0  0
 19 20  1  0  0  0  0
 19 21  1  0  0  0  0
 22 23  2  0  0  0  0
 22 24  1  0  0  0  0
 24 25  1  0  0  0  0
 24 26  1  0  0  0  0
 26 27  1  0  0  0  0
 26 28  1  0  0  0  0
 26 29  1  0  0  0  0
M  END
$$$$

  -OEChem-02102214123D

 29 28  0     1  0  0  0  0  0999 V2000
   -2.7433   -4.3130    0.5802 H   0  0  0  0  0  0  0  0  0  0  0  0
   -2.7366   -3.3696    0.0266 C   0  0  0  0  0  0  0  0  0  0  0  0
   -3.5481   -2.7391    0.3979 H   0  0  0  0  0  0  0  0  0  0  0  0
   -2.9039   -3.5823   -1.0321 H   0  0  0  0  0  0  0  0  0  0  0  0
   -1.4045   -2.6670    0.2106 C   0  0  0  0  0  0  0  0  0  0  0  0
   -0.5373   -3.1798    0.8948 O   0  0  0  0  0  0  0  0  0  0  0  0
   -1.1840   -1.4451   -0.3951 N   0  0  0  0  0  0  0  0  0  0  0  0
   -1.9120   -1.1080   -1.0185 H   0  0  0  0  0  0  0  0  0  0  0  0
    0.1072   -0.7319   -0.3774 C   0  0  1  0  0  0  0  0  0  0  0  0
    0.8527   -1.4093   -0.8098 H   0  0  0  0  0  0  0  0  0  0  0  0
    0.0042    0.5343   -1.2557 C   0  0  0  0  0  0  0  0  0  0  0  0
   -1.0036    0.6258   -1.6749 H   0  0  0  0  0  0  0  0  0  0  0  0
    0.1796    1.4319   -0.6508 H   0  0  0  0  0  0  0  0  0  0  0  0
    1.0264    0.4946   -2.4054 C   0  0  0  0  0  0  0  0  0  0  0  0
    2.0341    0.4224   -1.9855 H   0  0  0  0  0  0  0  0  0  0  0  0
    0.8538   -0.3893   -3.0257 H   0  0  0  0  0  0  0  0  0  0  0  0
    0.9549    1.7311   -3.2971 C   0  0  0  0  0  0  0  0  0  0  0  0
   -0.0315    2.4419   -3.3590 O   0  0  0  0  0  0  0  0  0  0  0  0
    2.0071    2.1016   -4.0844 N   0  0  0  0  0  0  0  0  0  0  0  0
    1.9423    3.0218   -4.5103 H   0  0  0  0  0  0  0  0  0  0  0  0
    2.9143    1.6771   -3.9213 H   0  0  0  0  0  0  0  0  0  0  0  0
    0.6347   -0.3675    1.0282 C   0  0  0  0  0  0  0  0  0  0  0  0
    1.8428   -0.3049    1.2163 O   0  0  0  0  0  0  0  0  0  0  0  0
   -0.2220    0.1743    1.9692 N   0  0  0  0  0  0  0  0  0  0  0  0
   -1.2142    0.0423    1.8023 H   0  0  0  0  0  0  0  0  0  0  0  0
    0.2190    0.5889    3.2948 C   0  0  0  0  0  0  0  0  0  0  0  0
    0.9782    1.3743    3.2177 H   0  0  0  0  0  0  0  0  0  0  0  0
   -0.6255    0.9820    3.8689 H   0  0  0  0  0  0  0  0  0  0  0  0
    0.6447   -0.2608    3.8392 H   0  0  0  0  0  0  0  0  0  0  0  0
  1  2  1  0  0  0  0
  2  3  1  0  0  0  0
  2  4  1  0  0  0  0
  2  5  1  0  0  0  0
  5  6  2  0  0  0  0
  5  7  1  0  0  0  0
  7  8  1  0  0  0  0
  7  9  1  0  0  0  0
  9 10  1  0  0  0  0
  9 11  1  0  0  0  0
  9 22  1  0  0  0  0
 11 12  1  0  0  0  0
 11 13  1  0  0  0  0
 11 14  1  0  0  0  0
 14 15  1  0  0  0  0
 14 16  1  0  0  0  0
 14 17  1  0  0  0  0
 17 18  2  0  0  0  0
 17 19  1  0  0  0  0
 19 20  1  0  0  0  0
 19 21  1  0  0  0  0
 22 23  2  0  0  0  0
 22 24  1  0  0  0  0
 24 25  1  0  0  0  0
 24 26  1  0  0  0  0
 26 27  1  0  0  0  0
 26 28  1  0  0  0  0
 26 29  1  0  0  0  0
M  END
$$$$

  -OEChem-02102214123D

 29 28  0     1  0  0  0  0  0999 V2000
   -2.7621   -4.2931    0.6296 H   0  0  0  0  0  0  0  0  0  0  0  0
   -2.7594   -3.3577    0.0626 C   0  0  0  0  0  0  0  0  0  0  0  0
   -3.5678   -2.7215    0.4303 H   0  0  0  0  0  0  0  0  0  0  0  0
   -2.9339   -3.5862   -0.9915 H   0  0  0  0  0  0  0  0  0  0  0  0
   -1.4264   -2.6525    0.2268 C   0  0  0  0  0  0  0  0  0  0  0  0
   -0.5546   -3.1549    0.9129 O   0  0  0  0  0  0  0  0  0  0  0  0
   -1.2100   -1.4407   -0.4003 N   0  0  0  0  0  0  0  0  0  0  0  0
   -1.9418   -1.1162   -1.0260 H   0  0  0  0  0  0  0  0  0  0  0  0
    0.0886   -0.7417   -0.4220 C   0  0  1  0  0  0  0  0  0  0  0  0
    0.8127   -1.4376   -0.8605 H   0  0  0  0  0  0  0  0  0  0  0  0
   -0.0189    0.5093   -1.3218 C   0  0  0  0  0  0  0  0  0  0  0  0
   -1.0325    0.6228   -1.7205 H   0  0  0  0  0  0  0  0  0  0  0  0
    0.1889    1.4068   -0.7266 H   0  0  0  0  0  0  0  0  0  0  0  0
    0.9767    0.4437   -2.4933 C   0  0  0  0  0  0  0  0  0  0  0  0
    1.9553    0.1274   -2.1197 H   0  0  0  0  0  0  0  0  0  0  0  0
    0.6446   -0.2899   -3.2328 H   0  0  0  0  0  0  0  0  0  0  0  0
    1.1421    1.8013   -3.1669 C   0  0  0  0  0  0  0  0  0  0  0  0
    0.1900    2.5231   -3.3985 O   0  0  0  0  0  0  0  0  0  0  0  0
    2.3691    2.2947   -3.5061 N   0  0  0  0  0  0  0  0  0  0  0  0
    2.3956    3.2760   -3.7674 H   0  0  0  0  0  0  0  0  0  0  0  0
    3.1968    1.8468   -3.1261 H   0  0  0  0  0  0  0  0  0  0  0  0
    0.6561   -0.3643    0.9645 C   0  0  0  0  0  0  0  0  0  0  0  0
    1.8696   -0.3085    1.1174 O   0  0  0  0  0  0  0  0  0  0  0  0
   -0.1697    0.1995    1.9200 N   0  0  0  0  0  0  0  0  0  0  0  0
   -1.1665    0.0663    1.7837 H   0  0  0  0  0  0  0  0  0  0  0  0
    0.3094    0.6046    3.2356 C   0  0  0  0  0  0  0  0  0  0  0  0
    1.0852    1.3718    3.1429 H   0  0  0  0  0  0  0  0  0  0  0  0
   -0.5131    1.0176    3.8274 H   0  0  0  0  0  0  0  0  0  0  0  0
    0.7261   -0.2549    3.7714 H   0  0  0  0  0  0  0  0  0  0  0  0
  1  2  1  0  0  0  0
  2  3  1  0  0  0  0
  2  4  1  0  0  0  0
  2  5  1  0  0  0  0
  5  6  2  0  0  0  0
  5  7  1  0  0  0  0
  7  8  1  0  0  0  0
  7  9  1  0  0  0  0
  9 10  1  0  0  0  0
  9 11  1  0  0  0  0
  9 22  1  0  0  0  0
 11 12  1  0  0  0  0
 11 13  1  0  0  0  0
 11 14  1  0  0  0  0
 14 15  1  0  0  0  0
 14 16  1  0  0  0  0
 14 17  1  0  0  0  0
 17 18  2  0  0  0  0
 17 19  1  0  0  0  0
 19 20  1  0  0  0  0
 19 21  1  0  0  0  0
 22 23  2  0  0  0  0
 22 24  1  0  0  0  0
 24 25  1  0  0  0  0
 24 26  1  0  0  0  0
 26 27  1  0  0  0  0
 26 28  1  0  0  0  0
 26 29  1  0  0  0  0
M  END
$$$$

  -OEChem-02102214123D

 29 28  0     1  0  0  0  0  0999 V2000
   -2.8012   -4.2460    0.6830 H   0  0  0  0  0  0  0  0  0  0  0  0
   -2.7951   -3.3232    0.0958 C   0  0  0  0  0  0  0  0  0  0  0  0
   -3.5854   -2.6659    0.4662 H   0  0  0  0  0  0  0  0  0  0  0  0
   -2.9956   -3.5713   -0.9493 H   0  0  0  0  0  0  0  0  0  0  0  0
   -1.4477   -2.6368    0.2172 C   0  0  0  0  0  0  0  0  0  0  0  0
   -0.5669   -3.1423    0.8894 O   0  0  0  0  0  0  0  0  0  0  0  0
   -1.2293   -1.4341   -0.4268 N   0  0  0  0  0  0  0  0  0  0  0  0
   -1.9682   -1.1118   -1.0453 H   0  0  0  0  0  0  0  0  0  0  0  0
    0.0832   -0.7651   -0.4994 C   0  0  1  0  0  0  0  0  0  0  0  0
    0.7708   -1.4857   -0.9556 H   0  0  0  0  0  0  0  0  0  0  0  0
   -0.0199    0.4862   -1.4002 C   0  0  0  0  0  0  0  0  0  0  0  0
   -1.0428    0.6295   -1.7634 H   0  0  0  0  0  0  0  0  0  0  0  0
    0.2268    1.3754   -0.8071 H   0  0  0  0  0  0  0  0  0  0  0  0
    0.9309    0.4022   -2.6087 C   0  0  0  0  0  0  0  0  0  0  0  0
    1.8289   -0.1675   -2.3525 H   0  0  0  0  0  0  0  0  0  0  0  0
    0.4406   -0.1065   -3.4436 H   0  0  0  0  0  0  0  0  0  0  0  0
    1.3776    1.7919   -3.0379 C   0  0  0  0  0  0  0  0  0  0  0  0
    0.6437    2.5245   -3.6730 O   0  0  0  0  0  0  0  0  0  0  0  0
    2.5661    2.3216   -2.6240 N   0  0  0  0  0  0  0  0  0  0  0  0
    2.6810    3.3214   -2.7610 H   0  0  0  0  0  0  0  0  0  0  0  0
    3.0816    1.8452   -1.8892 H   0  0  0  0  0  0  0  0  0  0  0  0
    0.7148   -0.3887    0.8592 C   0  0  0  0  0  0  0  0  0  0  0  0
    1.9344   -0.3168    0.9447 O   0  0  0  0  0  0  0  0  0  0  0  0
   -0.0615    0.2019    1.8394 N   0  0  0  0  0  0  0  0  0  0  0  0
   -1.0634    0.0606    1.7593 H   0  0  0  0  0  0  0  0  0  0  0  0
    0.4821    0.6400    3.1188 C   0  0  0  0  0  0  0  0  0  0  0  0
    1.2419    1.4141    2.9684 H   0  0  0  0  0  0  0  0  0  0  0  0
   -0.3133    1.0554    3.7449 H   0  0  0  0  0  0  0  0  0  0  0  0
    0.9380   -0.2027    3.6494 H   0  0  0  0  0  0  0  0  0  0  0  0
  1  2  1  0  0  0  0
  2  3  1  0  0  0  0
  2  4  1  0  0  0  0
  2  5  1  0  0  0  0
  5  6  2  0  0  0  0
  5  7  1  0  0  0  0
  7  8  1  0  0  0  0
  7  9  1  0  0  0  0
  9 10  1  0  0  0  0
  9 11  1  0  0  0  0
  9 22  1  0  0  0  0
 11 12  1  0  0  0  0
 11 13  1  0  0  0  0
 11 14  1  0  0  0  0
 14 15  1  0  0  0  0
 14 16  1  0  0  0  0
 14 17  1  0  0  0  0
 17 18  2  0  0  0  0
 17 19  1  0  0  0  0
 19 20  1  0  0  0  0
 19 21  1  0  0  0  0
 22 23  2  0  0  0  0
 22 24  1  0  0  0  0
 24 25  1  0  0  0  0
 24 26  1  0  0  0  0
 26 27  1  0  0  0  0
 26 28  1  0  0  0  0
 26 29  1  0  0  0  0
M  END
$$$$

  -OEChem-02102214123D

 29 28  0     1  0  0  0  0  0999 V2000
   -2.7710   -4.2753    0.6245 H   0  0  0  0  0  0  0  0  0  0  0  0
   -2.7812   -3.3408    0.0561 C   0  0  0  0  0  0  0  0  0  0  0  0
   -3.5785   -2.7026    0.4440 H   0  0  0  0  0  0  0  0  0  0  0  0
   -2.9845   -3.5707   -0.9926 H   0  0  0  0  0  0  0  0  0  0  0  0
   -1.4428   -2.6378    0.1838 C   0  0  0  0  0  0  0  0  0  0  0  0
   -0.5517   -3.1409    0.8442 O   0  0  0  0  0  0  0  0  0  0  0  0
   -1.2425   -1.4220   -0.4412 N   0  0  0  0  0  0  0  0  0  0  0  0
   -1.9868   -1.1035   -1.0551 H   0  0  0  0  0  0  0  0  0  0  0  0
    0.0681   -0.7512   -0.5300 C   0  0  1  0  0  0  0  0  0  0  0  0
    0.7387   -1.4719   -1.0094 H   0  0  0  0  0  0  0  0  0  0  0  0
   -0.0391    0.5201   -1.4033 C   0  0  0  0  0  0  0  0  0  0  0  0
   -1.0674    0.6644   -1.7496 H   0  0  0  0  0  0  0  0  0  0  0  0
    0.2025    1.3992   -0.7932 H   0  0  0  0  0  0  0  0  0  0  0  0
    0.8893    0.4683   -2.6348 C   0  0  0  0  0  0  0  0  0  0  0  0
    1.6484   -0.3120   -2.5348 H   0  0  0  0  0  0  0  0  0  0  0  0
    0.3077    0.2476   -3.5347 H   0  0  0  0  0  0  0  0  0  0  0  0
    1.6191    1.7923   -2.8064 C   0  0  0  0  0  0  0  0  0  0  0  0
    1.1822    2.6752   -3.5194 O   0  0  0  0  0  0  0  0  0  0  0  0
    2.7422    2.0756   -2.0826 N   0  0  0  0  0  0  0  0  0  0  0  0
    3.0442    3.0451   -2.0842 H   0  0  0  0  0  0  0  0  0  0  0  0
    2.9838    1.4677   -1.3024 H   0  0  0  0  0  0  0  0  0  0  0  0
    0.7451   -0.3951    0.8116 C   0  0  0  0  0  0  0  0  0  0  0  0
    1.9648   -0.2787    0.8353 O   0  0  0  0  0  0  0  0  0  0  0  0
    0.0022    0.1801    1.8261 N   0  0  0  0  0  0  0  0  0  0  0  0
   -0.9985    0.0118    1.7962 H   0  0  0  0  0  0  0  0  0  0  0  0
    0.5953    0.6483    3.0724 C   0  0  0  0  0  0  0  0  0  0  0  0
    1.3118    1.4533    2.8779 H   0  0  0  0  0  0  0  0  0  0  0  0
   -0.1817    1.0338    3.7392 H   0  0  0  0  0  0  0  0  0  0  0  0
    1.1146   -0.1710    3.5809 H   0  0  0  0  0  0  0  0  0  0  0  0
  1  2  1  0  0  0  0
  2  3  1  0  0  0  0
  2  4  1  0  0  0  0
  2  5  1  0  0  0  0
  5  6  2  0  0  0  0
  5  7  1  0  0  0  0
  7  8  1  0  0  0  0
  7  9  1  0  0  0  0
  9 10  1  0  0  0  0
  9 11  1  0  0  0  0
  9 22  1  0  0  0  0
 11 12  1  0  0  0  0
 11 13  1  0  0  0  0
 11 14  1  0  0  0  0
 14 15  1  0  0  0  0
 14 16  1  0  0  0  0
 14 17  1  0  0  0  0
 17 18  2  0  0  0  0
 17 19  1  0  0  0  0
 19 20  1  0  0  0  0
 19 21  1  0  0  0  0
 22 23  2  0  0  0  0
 22 24  1  0  0  0  0
 24 25  1  0  0  0  0
 24 26  1  0  0  0  0
 26 27  1  0  0  0  0
 26 28  1  0  0  0  0
 26 29  1  0  0  0  0
M  END
$$$$

  -OEChem-02102214123D

 29 28  0     1  0  0  0  0  0999 V2000
   -2.7107   -4.3085    0.5589 H   0  0  0  0  0  0  0  0  0  0  0  0
   -2.7418   -3.3638    0.0083 C   0  0  0  0  0  0  0  0  0  0  0  0
   -3.5416   -2.7433    0.4200 H   0  0  0  0  0  0  0  0  0  0  0  0
   -2.9579   -3.5765   -1.0416 H   0  0  0  0  0  0  0  0  0  0  0  0
   -1.4106   -2.6459    0.1288 C   0  0  0  0  0  0  0  0  0  0  0  0
   -0.4995   -3.1518    0.7593 O   0  0  0  0  0  0  0  0  0  0  0  0
   -1.2396   -1.4098   -0.4639 N   0  0  0  0  0  0  0  0  0  0  0  0
   -2.0015   -1.0823   -1.0508 H   0  0  0  0  0  0  0  0  0  0  0  0
    0.0604   -0.7208   -0.5591 C   0  0  1  0  0  0  0  0  0  0  0  0
    0.7257   -1.4275   -1.0656 H   0  0  0  0  0  0  0  0  0  0  0  0
   -0.0585    0.5736   -1.3951 C   0  0  0  0  0  0  0  0  0  0  0  0
   -1.0906    0.6937   -1.7394 H   0  0  0  0  0  0  0  0  0  0  0  0
    0.1528    1.4512   -0.7711 H   0  0  0  0  0  0  0  0  0  0  0  0
    0.8580    0.5580   -2.6381 C   0  0  0  0  0  0  0  0  0  0  0  0
    1.4217   -0.3729   -2.7345 H   0  0  0  0  0  0  0  0  0  0  0  0
    0.2508    0.6642   -3.5419 H   0  0  0  0  0  0  0  0  0  0  0  0
    1.8458    1.7143   -2.5704 C   0  0  0  0  0  0  0  0  0  0  0  0
    1.7574    2.6798   -3.3046 O   0  0  0  0  0  0  0  0  0  0  0  0
    2.8395    1.7273   -1.6323 N   0  0  0  0  0  0  0  0  0  0  0  0
    3.3367    2.6041   -1.5136 H   0  0  0  0  0  0  0  0  0  0  0  0
    2.7936    1.0588   -0.8603 H   0  0  0  0  0  0  0  0  0  0  0  0
    0.7732   -0.3896    0.7689 C   0  0  0  0  0  0  0  0  0  0  0  0
    1.9882   -0.2228    0.7402 O   0  0  0  0  0  0  0  0  0  0  0  0
    0.0557    0.1505    1.8199 N   0  0  0  0  0  0  0  0  0  0  0  0
   -0.9396   -0.0498    1.8286 H   0  0  0  0  0  0  0  0  0  0  0  0
    0.6850    0.6132    3.0507 C   0  0  0  0  0  0  0  0  0  0  0  0
    1.3811    1.4322    2.8415 H   0  0  0  0  0  0  0  0  0  0  0  0
   -0.0740    0.9777    3.7496 H   0  0  0  0  0  0  0  0  0  0  0  0
    1.2351   -0.2036    3.5297 H   0  0  0  0  0  0  0  0  0  0  0  0
  1  2  1  0  0  0  0
  2  3  1  0  0  0  0
  2  4  1  0  0  0  0
  2  5  1  0  0  0  0
  5  6  2  0  0  0  0
  5  7  1  0  0  0  0
  7  8  1  0  0  0  0
  7  9  1  0  0  0  0
  9 10  1  0  0  0  0
  9 11  1  0  0  0  0
  9 22  1  0  0  0  0
 11 12  1  0  0  0  0
 11 13  1  0  0  0  0
 11 14  1  0  0  0  0
 14 15  1  0  0  0  0
 14 16  1  0  0  0  0
 14 17  1  0  0  0  0
 17 18  2  0  0  0  0
 17 19  1  0  0  0  0
 19 20  1  0  0  0  0
 19 21  1  0  0  0  0
 22 23  2  0  0  0  0
 22 24  1  0  0  0  0
 24 25  1  0  0  0  0
 24 26  1  0  0  0  0
 26 27  1  0  0  0  0
 26 28  1  0  0  0  0
 26 29  1  0  0  0  0
M  END
$$$$

  -OEChem-02102214123D

 29 28  0     1  0  0  0  0  0999 V2000
   -2.6334   -4.3227    0.4995 H   0  0  0  0  0  0  0  0  0  0  0  0
   -2.6772   -3.3673   -0.0313 C   0  0  0  0  0  0  0  0  0  0  0  0
   -3.4796   -2.7631    0.3987 H   0  0  0  0  0  0  0  0  0  0  0  0
   -2.8988   -3.5604   -1.0837 H   0  0  0  0  0  0  0  0  0  0  0  0
   -1.3522   -2.6395    0.0948 C   0  0  0  0  0  0  0  0  0  0  0  0
   -0.4323   -3.1504    0.7078 O   0  0  0  0  0  0  0  0  0  0  0  0
   -1.1970   -1.3914   -0.4774 N   0  0  0  0  0  0  0  0  0  0  0  0
   -1.9643   -1.0636   -1.0569 H   0  0  0  0  0  0  0  0  0  0  0  0
    0.0937   -0.6821   -0.5606 C   0  0  1  0  0  0  0  0  0  0  0  0
    0.7794   -1.3575   -1.0833 H   0  0  0  0  0  0  0  0  0  0  0  0
   -0.0667    0.6259   -1.3720 C   0  0  0  0  0  0  0  0  0  0  0  0
   -1.1051    0.7164   -1.7061 H   0  0  0  0  0  0  0  0  0  0  0  0
    0.1274    1.5024   -0.7415 H   0  0  0  0  0  0  0  0  0  0  0  0
    0.8344    0.6591   -2.6241 C   0  0  0  0  0  0  0  0  0  0  0  0
    1.1853   -0.3362   -2.9082 H   0  0  0  0  0  0  0  0  0  0  0  0
    0.2536    1.0455   -3.4670 H   0  0  0  0  0  0  0  0  0  0  0  0
    2.0322    1.5814   -2.4207 C   0  0  0  0  0  0  0  0  0  0  0  0
    2.1677    2.5954   -3.0783 O   0  0  0  0  0  0  0  0  0  0  0  0
    3.0004    1.3213   -1.4932 N   0  0  0  0  0  0  0  0  0  0  0  0
    3.6560    2.0751   -1.3152 H   0  0  0  0  0  0  0  0  0  0  0  0
    2.8029    0.6449   -0.7515 H   0  0  0  0  0  0  0  0  0  0  0  0
    0.7790   -0.3750    0.7881 C   0  0  0  0  0  0  0  0  0  0  0  0
    1.9995   -0.2640    0.8069 O   0  0  0  0  0  0  0  0  0  0  0  0
    0.0419    0.1299    1.8429 N   0  0  0  0  0  0  0  0  0  0  0  0
   -0.9573   -0.0468    1.8135 H   0  0  0  0  0  0  0  0  0  0  0  0
    0.6458    0.5117    3.1132 C   0  0  0  0  0  0  0  0  0  0  0  0
    1.3702    1.3196    2.9663 H   0  0  0  0  0  0  0  0  0  0  0  0
   -0.1237    0.8620    3.8079 H   0  0  0  0  0  0  0  0  0  0  0  0
    1.1588   -0.3439    3.5650 H   0  0  0  0  0  0  0  0  0  0  0  0
  1  2  1  0  0  0  0
  2  3  1  0  0  0  0
  2  4  1  0  0  0  0
  2  5  1  0  0  0  0
  5  6  2  0  0  0  0
  5  7  1  0  0  0  0
  7  8  1  0  0  0  0
  7  9  1  0  0  0  0
  9 10  1  0  0  0  0
  9 11  1  0  0  0  0
  9 22  1  0  0  0  0
 11 12  1  0  0  0  0
 11 13  1  0  0  0  0
 11 14  1  0  0  0  0
 14 15  1  0  0  0  0
 14 16  1  0  0  0  0
 14 17  1  0  0  0  0
 17 18  2  0  0  0  0
 17 19  1  0  0  0  0
 19 20  1  0  0  0  0
 19 21  1  0  0  0  0
 22 23  2  0  0  0  0
 22 24  1  0  0  0  0
 24 25  1  0  0  0  0
 24 26  1  0  0  0  0
 26 27  1  0  0  0  0
 26 28  1  0  0  0  0
 26 29  1  0  0  0  0
M  END
$$$$

  -OEChem-02102214123D

 29 28  0     1  0  0  0  0  0999 V2000
   -2.5802   -4.3331    0.4275 H   0  0  0  0  0  0  0  0  0  0  0  0
   -2.6292   -3.3639   -0.0774 C   0  0  0  0  0  0  0  0  0  0  0  0
   -3.4343   -2.7756    0.3693 H   0  0  0  0  0  0  0  0  0  0  0  0
   -2.8507   -3.5307   -1.1342 H   0  0  0  0  0  0  0  0  0  0  0  0
   -1.3073   -2.6331    0.0669 C   0  0  0  0  0  0  0  0  0  0  0  0
   -0.3895   -3.1523    0.6755 O   0  0  0  0  0  0  0  0  0  0  0  0
   -1.1516   -1.3774   -0.4894 N   0  0  0  0  0  0  0  0  0  0  0  0
   -1.9170   -1.0454   -1.0691 H   0  0  0  0  0  0  0  0  0  0  0  0
    0.1349   -0.6556   -0.5476 C   0  0  1  0  0  0  0  0  0  0  0  0
    0.8417   -1.3013   -1.0808 H   0  0  0  0  0  0  0  0  0  0  0  0
   -0.0562    0.6635   -1.3360 C   0  0  0  0  0  0  0  0  0  0  0  0
   -1.0981    0.7437   -1.6616 H   0  0  0  0  0  0  0  0  0  0  0  0
    0.1348    1.5312   -0.6929 H   0  0  0  0  0  0  0  0  0  0  0  0
    0.8367    0.7458   -2.5899 C   0  0  0  0  0  0  0  0  0  0  0  0
    0.9759   -0.2425   -3.0365 H   0  0  0  0  0  0  0  0  0  0  0  0
    0.3279    1.3650   -3.3352 H   0  0  0  0  0  0  0  0  0  0  0  0
    2.2019    1.3788   -2.3249 C   0  0  0  0  0  0  0  0  0  0  0  0
    2.5463    2.3804   -2.9226 O   0  0  0  0  0  0  0  0  0  0  0  0
    3.1289    0.8484   -1.4754 N   0  0  0  0  0  0  0  0  0  0  0  0
    3.9295    1.4437   -1.2893 H   0  0  0  0  0  0  0  0  0  0  0  0
    2.8079    0.2202   -0.7358 H   0  0  0  0  0  0  0  0  0  0  0  0
    0.7742   -0.3711    0.8296 C   0  0  0  0  0  0  0  0  0  0  0  0
    1.9946   -0.3228    0.9152 O   0  0  0  0  0  0  0  0  0  0  0  0
    0.0028    0.1076    1.8719 N   0  0  0  0  0  0  0  0  0  0  0  0
   -0.9988   -0.0362    1.7915 H   0  0  0  0  0  0  0  0  0  0  0  0
    0.5596    0.4354    3.1785 C   0  0  0  0  0  0  0  0  0  0  0  0
    1.3143    1.2239    3.0878 H   0  0  0  0  0  0  0  0  0  0  0  0
   -0.2297    0.7911    3.8473 H   0  0  0  0  0  0  0  0  0  0  0  0
    1.0248   -0.4480    3.6285 H   0  0  0  0  0  0  0  0  0  0  0  0
  1  2  1  0  0  0  0
  2  3  1  0  0  0  0
  2  4  1  0  0  0  0
  2  5  1  0  0  0  0
  5  6  2  0  0  0  0
  5  7  1  0  0  0  0
  7  8  1  0  0  0  0
  7  9  1  0  0  0  0
  9 10  1  0  0  0  0
  9 11  1  0  0  0  0
  9 22  1  0  0  0  0
 11 12  1  0  0  0  0
 11 13  1  0  0  0  0
 11 14  1  0  0  0  0
 14 15  1  0  0  0  0
 14 16  1  0  0  0  0
 14 17  1  0  0  0  0
 17 18  2  0  0  0  0
 17 19  1  0  0  0  0
 19 20  1  0  0  0  0
 19 21  1  0  0  0  0
 22 23  2  0  0  0  0
 22 24  1  0  0  0  0
 24 25  1  0  0  0  0
 24 26  1  0  0  0  0
 26 27  1  0  0  0  0
 26 28  1  0  0  0  0
 26 29  1  0  0  0  0
M  END
$$$$

  -OEChem-02102214123D

 29 28  0     1  0  0  0  0  0999 V2000
   -2.5546   -4.3362    0.3487 H   0  0  0  0  0  0  0  0  0  0  0  0
   -2.6025   -3.3539   -0.1304 C   0  0  0  0  0  0  0  0  0  0  0  0
   -3.4084   -2.7776    0.3302 H   0  0  0  0  0  0  0  0  0  0  0  0
   -2.8215   -3.4925   -1.1919 H   0  0  0  0  0  0  0  0  0  0  0  0
   -1.2813   -2.6274    0.0372 C   0  0  0  0  0  0  0  0  0  0  0  0
   -0.3698   -3.1586    0.6447 O   0  0  0  0  0  0  0  0  0  0  0  0
   -1.1177   -1.3648   -0.5015 N   0  0  0  0  0  0  0  0  0  0  0  0
   -1.8765   -1.0236   -1.0843 H   0  0  0  0  0  0  0  0  0  0  0  0
    0.1683   -0.6403   -0.5307 C   0  0  1  0  0  0  0  0  0  0  0  0
    0.8870   -1.2680   -1.0694 H   0  0  0  0  0  0  0  0  0  0  0  0
   -0.0278    0.6920   -1.2950 C   0  0  0  0  0  0  0  0  0  0  0  0
   -1.0711    0.7833   -1.6138 H   0  0  0  0  0  0  0  0  0  0  0  0
    0.1713    1.5418   -0.6312 H   0  0  0  0  0  0  0  0  0  0  0  0
    0.8633    0.8247   -2.5463 C   0  0  0  0  0  0  0  0  0  0  0  0
    0.7965   -0.0911   -3.1400 H   0  0  0  0  0  0  0  0  0  0  0  0
    0.4655    1.6386   -3.1604 H   0  0  0  0  0  0  0  0  0  0  0  0
    2.3417    1.1272   -2.2910 C   0  0  0  0  0  0  0  0  0  0  0  0
    2.8934    2.0196   -2.9057 O   0  0  0  0  0  0  0  0  0  0  0  0
    3.1647    0.3832   -1.4970 N   0  0  0  0  0  0  0  0  0  0  0  0
    4.0870    0.7848   -1.3601 H   0  0  0  0  0  0  0  0  0  0  0  0
    2.7479   -0.1292   -0.7182 H   0  0  0  0  0  0  0  0  0  0  0  0
    0.7648   -0.3827    0.8724 C   0  0  0  0  0  0  0  0  0  0  0  0
    1.9805   -0.3642    1.0083 O   0  0  0  0  0  0  0  0  0  0  0  0
   -0.0399    0.0750    1.8994 N   0  0  0  0  0  0  0  0  0  0  0  0
   -1.0392   -0.0546    1.7774 H   0  0  0  0  0  0  0  0  0  0  0  0
    0.4703    0.3511    3.2366 C   0  0  0  0  0  0  0  0  0  0  0  0
    1.2300    1.1391    3.2022 H   0  0  0  0  0  0  0  0  0  0  0  0
   -0.3415    0.6846    3.8900 H   0  0  0  0  0  0  0  0  0  0  0  0
    0.9167   -0.5505    3.6693 H   0  0  0  0  0  0  0  0  0  0  0  0
  1  2  1  0  0  0  0
  2  3  1  0  0  0  0
  2  4  1  0  0  0  0
  2  5  1  0  0  0  0
  5  6  2  0  0  0  0
  5  7  1  0  0  0  0
  7  8  1  0  0  0  0
  7  9  1  0  0  0  0
  9 10  1  0  0  0  0
  9 11  1  0  0  0  0
  9 22  1  0  0  0  0
 11 12  1  0  0  0  0
 11 13  1  0  0  0  0
 11 14  1  0  0  0  0
 14 15  1  0  0  0  0
 14 16  1  0  0  0  0
 14 17  1  0  0  0  0
 17 18  2  0  0  0  0
 17 19  1  0  0  0  0
 19 20  1  0  0  0  0
 19 21  1  0  0  0  0
 22 23  2  0  0  0  0
 22 24  1  0  0  0  0
 24 25  1  0  0  0  0
 24 26  1  0  0  0  0
 26 27  1  0  0  0  0
 26 28  1  0  0  0  0
 26 29  1  0  0  0  0
M  END
$$$$

  -OEChem-02102214123D

 29 28  0     1  0  0  0  0  0999 V2000
   -2.6254   -4.3100    0.2889 H   0  0  0  0  0  0  0  0  0  0  0  0
   -2.6383   -3.3254   -0.1876 C   0  0  0  0  0  0  0  0  0  0  0  0
   -3.4407   -2.7312    0.2561 H   0  0  0  0  0  0  0  0  0  0  0  0
   -2.8355   -3.4553   -1.2545 H   0  0  0  0  0  0  0  0  0  0  0  0
   -1.3045   -2.6314    0.0140 C   0  0  0  0  0  0  0  0  0  0  0  0
   -0.4239   -3.1836    0.6477 O   0  0  0  0  0  0  0  0  0  0  0  0
   -1.0989   -1.3716   -0.5175 N   0  0  0  0  0  0  0  0  0  0  0  0
   -1.8301   -1.0209   -1.1294 H   0  0  0  0  0  0  0  0  0  0  0  0
    0.2044   -0.6765   -0.5184 C   0  0  1  0  0  0  0  0  0  0  0  0
    0.9221   -1.3090   -1.0522 H   0  0  0  0  0  0  0  0  0  0  0  0
    0.0406    0.6756   -1.2576 C   0  0  0  0  0  0  0  0  0  0  0  0
   -1.0025    0.8087   -1.5611 H   0  0  0  0  0  0  0  0  0  0  0  0
    0.2684    1.4954   -0.5663 H   0  0  0  0  0  0  0  0  0  0  0  0
    0.9256    0.8612   -2.5110 C   0  0  0  0  0  0  0  0  0  0  0  0
    0.6470    0.0913   -3.2356 H   0  0  0  0  0  0  0  0  0  0  0  0
    0.6750    1.8301   -2.9532 H   0  0  0  0  0  0  0  0  0  0  0  0
    2.4515    0.8097   -2.3773 C   0  0  0  0  0  0  0  0  0  0  0  0
    3.1370    1.3493   -3.2244 O   0  0  0  0  0  0  0  0  0  0  0  0
    3.1622    0.1360   -1.4281 N   0  0  0  0  0  0  0  0  0  0  0  0
    4.1614    0.3147   -1.4257 H   0  0  0  0  0  0  0  0  0  0  0  0
    2.7096   -0.1287   -0.5524 H   0  0  0  0  0  0  0  0  0  0  0  0
    0.7542   -0.4490    0.9118 C   0  0  0  0  0  0  0  0  0  0  0  0
    1.9626   -0.4358    1.0996 O   0  0  0  0  0  0  0  0  0  0  0  0
   -0.0829    0.0161    1.9095 N   0  0  0  0  0  0  0  0  0  0  0  0
   -1.0774   -0.1056    1.7477 H   0  0  0  0  0  0  0  0  0  0  0  0
    0.3752    0.2568    3.2724 C   0  0  0  0  0  0  0  0  0  0  0  0
    1.1722    1.0078    3.2834 H   0  0  0  0  0  0  0  0  0  0  0  0
   -0.4504    0.6237    3.8896 H   0  0  0  0  0  0  0  0  0  0  0  0
    0.7568   -0.6688    3.7165 H   0  0  0  0  0  0  0  0  0  0  0  0
  1  2  1  0  0  0  0
  2  3  1  0  0  0  0
  2  4  1  0  0  0  0
  2  5  1  0  0  0  0
  5  6  2  0  0  0  0
  5  7  1  0  0  0  0
  7  8  1  0  0  0  0
  7  9  1  0  0  0  0
  9 10  1  0  0  0  0
  9 11  1  0  0  0  0
  9 22  1  0  0  0  0
 11 12  1  0  0  0  0
 11 13  1  0  0  0  0
 11 14  1  0  0  0  0
 14 15  1  0  0  0  0
 14 16  1  0  0  0  0
 14 17  1  0  0  0  0
 17 18  2  0  0  0  0
 17 19  1  0  0  0  0
 19 20  1  0  0  0  0
 19 21  1  0  0  0  0
 22 23  2  0  0  0  0
 22 24  1  0  0  0  0
 24 25  1  0  0  0  0
 24 26  1  0  0  0  0
 26 27  1  0  0  0  0
 26 28  1  0  0  0  0
 26 29  1  0  0  0  0
M  END
$$$$

  -OEChem-02102214123D

 29 28  0     1  0  0  0  0  0999 V2000
   -2.5417   -4.3149    0.2977 H   0  0  0  0  0  0  0  0  0  0  0  0
   -2.5661   -3.3393   -0.1967 C   0  0  0  0  0  0  0  0  0  0  0  0
   -3.3627   -2.7398    0.2503 H   0  0  0  0  0  0  0  0  0  0  0  0
   -2.7810   -3.4887   -1.2575 H   0  0  0  0  0  0  0  0  0  0  0  0
   -1.2308   -2.6381   -0.0313 C   0  0  0  0  0  0  0  0  0  0  0  0
   -0.3130   -3.2041    0.5337 O   0  0  0  0  0  0  0  0  0  0  0  0
   -1.0549   -1.3631   -0.5344 N   0  0  0  0  0  0  0  0  0  0  0  0
   -1.8372   -0.9563   -1.0386 H   0  0  0  0  0  0  0  0  0  0  0  0
    0.2063   -0.6023   -0.4409 C   0  0  1  0  0  0  0  0  0  0  0  0
    0.9679   -1.2330   -0.9019 H   0  0  0  0  0  0  0  0  0  0  0  0
    0.0528    0.7109   -1.2495 C   0  0  0  0  0  0  0  0  0  0  0  0
   -0.9623    0.7954   -1.6500 H   0  0  0  0  0  0  0  0  0  0  0  0
    0.1882    1.5562   -0.5643 H   0  0  0  0  0  0  0  0  0  0  0  0
    1.0481    0.9036   -2.4158 C   0  0  0  0  0  0  0  0  0  0  0  0
    0.7408    0.2637   -3.2471 H   0  0  0  0  0  0  0  0  0  0  0  0
    0.9884    1.9390   -2.7652 H   0  0  0  0  0  0  0  0  0  0  0  0
    2.5106    0.5821   -2.1047 C   0  0  0  0  0  0  0  0  0  0  0  0
    3.2926    1.4769   -1.8511 O   0  0  0  0  0  0  0  0  0  0  0  0
    3.0559   -0.6646   -2.2296 N   0  0  0  0  0  0  0  0  0  0  0  0
    3.9833   -0.7561   -1.8229 H   0  0  0  0  0  0  0  0  0  0  0  0
    2.4327   -1.4639   -2.2142 H   0  0  0  0  0  0  0  0  0  0  0  0
    0.6978   -0.3339    0.9993 C   0  0  0  0  0  0  0  0  0  0  0  0
    1.8971   -0.3347    1.2339 O   0  0  0  0  0  0  0  0  0  0  0  0
   -0.1877    0.0957    1.9712 N   0  0  0  0  0  0  0  0  0  0  0  0
   -1.1752   -0.0054    1.7641 H   0  0  0  0  0  0  0  0  0  0  0  0
    0.2192    0.3640    3.3450 C   0  0  0  0  0  0  0  0  0  0  0  0
    0.9976    1.1339    3.3716 H   0  0  0  0  0  0  0  0  0  0  0  0
   -0.6343    0.7183    3.9309 H   0  0  0  0  0  0  0  0  0  0  0  0
    0.6083   -0.5465    3.8127 H   0  0  0  0  0  0  0  0  0  0  0  0
  1  2  1  0  0  0  0
  2  3  1  0  0  0  0
  2  4  1  0  0  0  0
  2  5  1  0  0  0  0
  5  6  2  0  0  0  0
  5  7  1  0  0  0  0
  7  8  1  0  0  0  0
  7  9  1  0  0  0  0
  9 10  1  0  0  0  0
  9 11  1  0  0  0  0
  9 22  1  0  0  0  0
 11 12  1  0  0  0  0
 11 13  1  0  0  0  0
 11 14  1  0  0  0  0
 14 15  1  0  0  0  0
 14 16  1  0  0  0  0
 14 17  1  0  0  0  0
 17 18  2  0  0  0  0
 17 19  1  0  0  0  0
 19 20  1  0  0  0  0
 19 21  1  0  0  0  0
 22 23  2  0  0  0  0
 22 24  1  0  0  0  0
 24 25  1  0  0  0  0
 24 26  1  0  0  0  0
 26 27  1  0  0  0  0
 26 28  1  0  0  0  0
 26 29  1  0  0  0  0
M  END
$$$$

  -OEChem-02102214123D

 29 28  0     1  0  0  0  0  0999 V2000
   -2.6176   -4.2677    0.2799 H   0  0  0  0  0  0  0  0  0  0  0  0
   -2.5954   -3.3009   -0.2313 C   0  0  0  0  0  0  0  0  0  0  0  0
   -3.3884   -2.6702    0.1774 H   0  0  0  0  0  0  0  0  0  0  0  0
   -2.7777   -3.4625   -1.2964 H   0  0  0  0  0  0  0  0  0  0  0  0
   -1.2459   -2.6373   -0.0311 C   0  0  0  0  0  0  0  0  0  0  0  0
   -0.3624   -3.2254    0.5646 O   0  0  0  0  0  0  0  0  0  0  0  0
   -1.0193   -1.3715   -0.5373 N   0  0  0  0  0  0  0  0  0  0  0  0
   -1.7771   -0.9443   -1.0615 H   0  0  0  0  0  0  0  0  0  0  0  0
    0.2528   -0.6362   -0.3953 C   0  0  1  0  0  0  0  0  0  0  0  0
    1.0276   -1.2811   -0.8105 H   0  0  0  0  0  0  0  0  0  0  0  0
    0.1465    0.6848   -1.2038 C   0  0  0  0  0  0  0  0  0  0  0  0
   -0.8605    0.7980   -1.6175 H   0  0  0  0  0  0  0  0  0  0  0  0
    0.2833    1.5156   -0.5013 H   0  0  0  0  0  0  0  0  0  0  0  0
    1.1652    0.9059   -2.3496 C   0  0  0  0  0  0  0  0  0  0  0  0
    0.7341    0.5001   -3.2688 H   0  0  0  0  0  0  0  0  0  0  0  0
    1.2915    1.9820   -2.5041 H   0  0  0  0  0  0  0  0  0  0  0  0
    2.5496    0.2758   -2.1988 C   0  0  0  0  0  0  0  0  0  0  0  0
    3.5102    0.9553   -1.8978 O   0  0  0  0  0  0  0  0  0  0  0  0
    2.8270   -1.0117   -2.5637 N   0  0  0  0  0  0  0  0  0  0  0  0
    3.7466   -1.3421   -2.2832 H   0  0  0  0  0  0  0  0  0  0  0  0
    2.0599   -1.6712   -2.6273 H   0  0  0  0  0  0  0  0  0  0  0  0
    0.6735   -0.3703    1.0684 C   0  0  0  0  0  0  0  0  0  0  0  0
    1.8580   -0.3767    1.3673 O   0  0  0  0  0  0  0  0  0  0  0  0
   -0.2554    0.0828    1.9881 N   0  0  0  0  0  0  0  0  0  0  0  0
   -1.2322   -0.0074    1.7313 H   0  0  0  0  0  0  0  0  0  0  0  0
    0.0841    0.3642    3.3775 C   0  0  0  0  0  0  0  0  0  0  0  0
    0.8448    1.1502    3.4343 H   0  0  0  0  0  0  0  0  0  0  0  0
   -0.8018    0.7023    3.9233 H   0  0  0  0  0  0  0  0  0  0  0  0
    0.4711   -0.5362    3.8664 H   0  0  0  0  0  0  0  0  0  0  0  0
  1  2  1  0  0  0  0
  2  3  1  0  0  0  0
  2  4  1  0  0  0  0
  2  5  1  0  0  0  0
  5  6  2  0  0  0  0
  5  7  1  0  0  0  0
  7  8  1  0  0  0  0
  7  9  1  0  0  0  0
  9 10  1  0  0  0  0
  9 11  1  0  0  0  0
  9 22  1  0  0  0  0
 11 12  1  0  0  0  0
 11 13  1  0  0  0  0
 11 14  1  0  0  0  0
 14 15  1  0  0  0  0
 14 16  1  0  0  0  0
 14 17  1  0  0  0  0
 17 18  2  0  0  0  0
 17 19  1  0  0  0  0
 19 20  1  0  0  0  0
 19 21  1  0  0  0  0
 22 23  2  0  0  0  0
 22 24  1  0  0  0  0
 24 25  1  0  0  0  0
 24 26  1  0  0  0  0
 26 27  1  0  0  0  0
 26 28  1  0  0  0  0
 26 29  1  0  0  0  0
M  END
$$$$

  -OEChem-02102214123D

 29 28  0     1  0  0  0  0  0999 V2000
   -2.6898   -4.2227    0.2721 H   0  0  0  0  0  0  0  0  0  0  0  0
   -2.6218   -3.2697   -0.2607 C   0  0  0  0  0  0  0  0  0  0  0  0
   -3.4181   -2.6121    0.0956 H   0  0  0  0  0  0  0  0  0  0  0  0
   -2.7598   -3.4543   -1.3288 H   0  0  0  0  0  0  0  0  0  0  0  0
   -1.2679   -2.6306   -0.0147 C   0  0  0  0  0  0  0  0  0  0  0  0
   -0.4223   -3.2271    0.6254 O   0  0  0  0  0  0  0  0  0  0  0  0
   -0.9951   -1.3781   -0.5316 N   0  0  0  0  0  0  0  0  0  0  0  0
   -1.7249   -0.9440   -1.0888 H   0  0  0  0  0  0  0  0  0  0  0  0
    0.2894   -0.6690   -0.3632 C   0  0  1  0  0  0  0  0  0  0  0  0
    1.0691   -1.3315   -0.7398 H   0  0  0  0  0  0  0  0  0  0  0  0
    0.2286    0.6556   -1.1753 C   0  0  0  0  0  0  0  0  0  0  0  0
   -0.7700    0.7861   -1.6039 H   0  0  0  0  0  0  0  0  0  0  0  0
    0.3617    1.4832   -0.4686 H   0  0  0  0  0  0  0  0  0  0  0  0
    1.2662    0.8782   -2.3082 C   0  0  0  0  0  0  0  0  0  0  0  0
    0.7530    0.7526   -3.2654 H   0  0  0  0  0  0  0  0  0  0  0  0
    1.6063    1.9178   -2.2660 H   0  0  0  0  0  0  0  0  0  0  0  0
    2.5019   -0.0191   -2.3571 C   0  0  0  0  0  0  0  0  0  0  0  0
    3.6078    0.4200   -2.1151 O   0  0  0  0  0  0  0  0  0  0  0  0
    2.4687   -1.2910   -2.8566 N   0  0  0  0  0  0  0  0  0  0  0  0
    3.3247   -1.8233   -2.7247 H   0  0  0  0  0  0  0  0  0  0  0  0
    1.5786   -1.7744   -2.8892 H   0  0  0  0  0  0  0  0  0  0  0  0
    0.6652   -0.3944    1.1121 C   0  0  0  0  0  0  0  0  0  0  0  0
    1.8396   -0.3959    1.4486 O   0  0  0  0  0  0  0  0  0  0  0  0
   -0.2873    0.0902    1.9912 N   0  0  0  0  0  0  0  0  0  0  0  0
   -1.2561   -0.0084    1.7087 H   0  0  0  0  0  0  0  0  0  0  0  0
    0.0095    0.3907    3.3863 C   0  0  0  0  0  0  0  0  0  0  0  0
    0.7923    1.1534    3.4564 H   0  0  0  0  0  0  0  0  0  0  0  0
   -0.8847    0.7690    3.8906 H   0  0  0  0  0  0  0  0  0  0  0  0
    0.3486   -0.5105    3.9079 H   0  0  0  0  0  0  0  0  0  0  0  0
  1  2  1  0  0  0  0
  2  3  1  0  0  0  0
  2  4  1  0  0  0  0
  2  5  1  0  0  0  0
  5  6  2  0  0  0  0
  5  7  1  0  0  0  0
  7  8  1  0  0  0  0
  7  9  1  0  0  0  0
  9 10  1  0  0  0  0
  9 11  1  0  0  0  0
  9 22  1  0  0  0  0
 11 12  1  0  0  0  0
 11 13  1  0  0  0  0
 11 14  1  0  0  0  0
 14 15  1  0  0  0  0
 14 16  1  0  0  0  0
 14 17  1  0  0  0  0
 17 18  2  0  0  0  0
 17 19  1  0  0  0  0
 19 20  1  0  0  0  0
 19 21  1  0  0  0  0
 22 23  2  0  0  0  0
 22 24  1  0  0  0  0
 24 25  1  0  0  0  0
 24 26  1  0  0  0  0
 26 27  1  0  0  0  0
 26 28  1  0  0  0  0
 26 29  1  0  0  0  0
M  END
$$$$

  -OEChem-02102214123D

 29 28  0     1  0  0  0  0  0999 V2000
   -2.7911   -4.1562    0.2931 H   0  0  0  0  0  0  0  0  0  0  0  0
   -2.6528   -3.2418   -0.2911 C   0  0  0  0  0  0  0  0  0  0  0  0
   -3.4661   -2.5506   -0.0575 H   0  0  0  0  0  0  0  0  0  0  0  0
   -2.6908   -3.4947   -1.3533 H   0  0  0  0  0  0  0  0  0  0  0  0
   -1.3159   -2.6072    0.0433 C   0  0  0  0  0  0  0  0  0  0  0  0
   -0.5442   -3.1805    0.7889 O   0  0  0  0  0  0  0  0  0  0  0  0
   -0.9869   -1.3786   -0.4977 N   0  0  0  0  0  0  0  0  0  0  0  0
   -1.6485   -0.9821   -1.1575 H   0  0  0  0  0  0  0  0  0  0  0  0
    0.3165   -0.7080   -0.3134 C   0  0  1  0  0  0  0  0  0  0  0  0
    1.0900   -1.3989   -0.6543 H   0  0  0  0  0  0  0  0  0  0  0  0
    0.3172    0.6141   -1.1356 C   0  0  0  0  0  0  0  0  0  0  0  0
   -0.6667    0.7519   -1.5947 H   0  0  0  0  0  0  0  0  0  0  0  0
    0.4408    1.4526   -0.4402 H   0  0  0  0  0  0  0  0  0  0  0  0
    1.3818    0.7965   -2.2525 C   0  0  0  0  0  0  0  0  0  0  0  0
    0.8656    0.9842   -3.1977 H   0  0  0  0  0  0  0  0  0  0  0  0
    1.9600    1.6974   -2.0234 H   0  0  0  0  0  0  0  0  0  0  0  0
    2.3809   -0.3323   -2.4943 C   0  0  0  0  0  0  0  0  0  0  0  0
    3.5719   -0.1824   -2.3119 O   0  0  0  0  0  0  0  0  0  0  0  0
    2.0179   -1.5046   -3.0961 N   0  0  0  0  0  0  0  0  0  0  0  0
    2.7759   -2.1144   -3.3905 H   0  0  0  0  0  0  0  0  0  0  0  0
    1.0858   -1.6113   -3.4780 H   0  0  0  0  0  0  0  0  0  0  0  0
    0.6578   -0.4103    1.1666 C   0  0  0  0  0  0  0  0  0  0  0  0
    1.8236   -0.4059    1.5334 O   0  0  0  0  0  0  0  0  0  0  0  0
   -0.3074    0.1257    2.0013 N   0  0  0  0  0  0  0  0  0  0  0  0
   -1.2698    0.0124    1.7020 H   0  0  0  0  0  0  0  0  0  0  0  0
   -0.0439    0.4566    3.3963 C   0  0  0  0  0  0  0  0  0  0  0  0
    0.7528    1.2046    3.4698 H   0  0  0  0  0  0  0  0  0  0  0  0
   -0.9439    0.8659    3.8646 H   0  0  0  0  0  0  0  0  0  0  0  0
    0.2606   -0.4377    3.9502 H   0  0  0  0  0  0  0  0  0  0  0  0
  1  2  1  0  0  0  0
  2  3  1  0  0  0  0
  2  4  1  0  0  0  0
  2  5  1  0  0  0  0
  5  6  2  0  0  0  0
  5  7  1  0  0  0  0
  7  8  1  0  0  0  0
  7  9  1  0  0  0  0
  9 10  1  0  0  0  0
  9 11  1  0  0  0  0
  9 22  1  0  0  0  0
 11 12  1  0  0  0  0
 11 13  1  0  0  0  0
 11 14  1  0  0  0  0
 14 15  1  0  0  0  0
 14 16  1  0  0  0  0
 14 17  1  0  0  0  0
 17 18  2  0  0  0  0
 17 19  1  0  0  0  0
 19 20  1  0  0  0  0
 19 21  1  0  0  0  0
 22 23  2  0  0  0  0
 22 24  1  0  0  0  0
 24 25  1  0  0  0  0
 24 26  1  0  0  0  0
 26 27  1  0  0  0  0
 26 28  1  0  0  0  0
 26 29  1  0  0  0  0
M  END
$$$$

  -OEChem-02102214123D

 29 28  0     1  0  0  0  0  0999 V2000
   -2.6404   -4.3704    0.5900 H   0  0  0  0  0  0  0  0  0  0  0  0
   -2.6448   -3.4649   -0.0237 C   0  0  0  0  0  0  0  0  0  0  0  0
   -3.5330   -2.8781    0.2222 H   0  0  0  0  0  0  0  0  0  0  0  0
   -2.6863   -3.7545   -1.0767 H   0  0  0  0  0  0  0  0  0  0  0  0
   -1.3926   -2.6498    0.2394 C   0  0  0  0  0  0  0  0  0  0  0  0
   -0.5499   -3.0652    1.0151 O   0  0  0  0  0  0  0  0  0  0  0  0
   -1.2248   -1.4309   -0.3897 N   0  0  0  0  0  0  0  0  0  0  0  0
   -1.8941   -1.2348   -1.1288 H   0  0  0  0  0  0  0  0  0  0  0  0
    0.0707   -0.7285   -0.4538 C   0  0  1  0  0  0  0  0  0  0  0  0
    0.7653   -1.4436   -0.8962 H   0  0  0  0  0  0  0  0  0  0  0  0
   -0.0706    0.5552   -1.3233 C   0  0  0  0  0  0  0  0  0  0  0  0
   -1.1096    0.6253   -1.6614 H   0  0  0  0  0  0  0  0  0  0  0  0
    0.1045    1.4425   -0.7041 H   0  0  0  0  0  0  0  0  0  0  0  0
    0.8193    0.6681   -2.5877 C   0  0  0  0  0  0  0  0  0  0  0  0
    0.2256    1.0793   -3.4093 H   0  0  0  0  0  0  0  0  0  0  0  0
    1.6165    1.3876   -2.3800 H   0  0  0  0  0  0  0  0  0  0  0  0
    1.4877   -0.6124   -3.0719 C   0  0  0  0  0  0  0  0  0  0  0  0
    0.8951   -1.3972   -3.7878 O   0  0  0  0  0  0  0  0  0  0  0  0
    2.7241   -0.9901   -2.6309 N   0  0  0  0  0  0  0  0  0  0  0  0
    2.9732   -1.9578   -2.8140 H   0  0  0  0  0  0  0  0  0  0  0  0
    3.0897   -0.5327   -1.7987 H   0  0  0  0  0  0  0  0  0  0  0  0
    0.7107   -0.3532    0.8994 C   0  0  0  0  0  0  0  0  0  0  0  0
    1.9310   -0.2581    0.9596 O   0  0  0  0  0  0  0  0  0  0  0  0
   -0.0627    0.2065    1.8991 N   0  0  0  0  0  0  0  0  0  0  0  0
   -1.0570    0.0075    1.8449 H   0  0  0  0  0  0  0  0  0  0  0  0
    0.4934    0.6180    3.1818 C   0  0  0  0  0  0  0  0  0  0  0  0
    1.2692    1.3776    3.0393 H   0  0  0  0  0  0  0  0  0  0  0  0
   -0.2913    1.0436    3.8144 H   0  0  0  0  0  0  0  0  0  0  0  0
    0.9320   -0.2407    3.7010 H   0  0  0  0  0  0  0  0  0  0  0  0
  1  2  1  0  0  0  0
  2  3  1  0  0  0  0
  2  4  1  0  0  0  0
  2  5  1  0  0  0  0
  5  6  2  0  0  0  0
  5  7  1  0  0  0  0
  7  8  1  0  0  0  0
  7  9  1  0  0  0  0
  9 10  1  0  0  0  0
  9 11  1  0  0  0  0
  9 22  1  0  0  0  0
 11 12  1  0  0  0  0
 11 13  1  0  0  0  0
 11 14  1  0  0  0  0
 14 15  1  0  0  0  0
 14 16  1  0  0  0  0
 14 17  1  0  0  0  0
 17 18  2  0  0  0  0
 17 19  1  0  0  0  0
 19 20  1  0  0  0  0
 19 21  1  0  0  0  0
 22 23  2  0  0  0  0
 22 24  1  0  0  0  0
 24 25  1  0  0  0  0
 24 26  1  0  0  0  0
 26 27  1  0  0  0  0
 26 28  1  0  0  0  0
 26 29  1  0  0  0  0
M  END
$$$$

  -OEChem-02102214123D

 29 28  0     1  0  0  0  0  0999 V2000
   -2.6227   -4.3661    0.5079 H   0  0  0  0  0  0  0  0  0  0  0  0
   -2.6238   -3.4476   -0.0859 C   0  0  0  0  0  0  0  0  0  0  0  0
   -3.5175   -2.8699    0.1614 H   0  0  0  0  0  0  0  0  0  0  0  0
   -2.6514   -3.7146   -1.1453 H   0  0  0  0  0  0  0  0  0  0  0  0
   -1.3787   -2.6332    0.2098 C   0  0  0  0  0  0  0  0  0  0  0  0
   -0.5480   -3.0599    0.9924 O   0  0  0  0  0  0  0  0  0  0  0  0
   -1.2061   -1.4045   -0.3984 N   0  0  0  0  0  0  0  0  0  0  0  0
   -1.8508   -1.2163   -1.1619 H   0  0  0  0  0  0  0  0  0  0  0  0
    0.0889   -0.6995   -0.4392 C   0  0  1  0  0  0  0  0  0  0  0  0
    0.8059   -1.3852   -0.8961 H   0  0  0  0  0  0  0  0  0  0  0  0
   -0.0619    0.6090   -1.2671 C   0  0  0  0  0  0  0  0  0  0  0  0
   -1.0999    0.6849   -1.6076 H   0  0  0  0  0  0  0  0  0  0  0  0
    0.1160    1.4829   -0.6299 H   0  0  0  0  0  0  0  0  0  0  0  0
    0.8346    0.7295   -2.5215 C   0  0  0  0  0  0  0  0  0  0  0  0
    0.3559    1.3869   -3.2529 H   0  0  0  0  0  0  0  0  0  0  0  0
    1.7739    1.2046   -2.2245 H   0  0  0  0  0  0  0  0  0  0  0  0
    1.1811   -0.5910   -3.2002 C   0  0  0  0  0  0  0  0  0  0  0  0
    0.3125   -1.2827   -3.6990 O   0  0  0  0  0  0  0  0  0  0  0  0
    2.4375   -1.1237   -3.1545 N   0  0  0  0  0  0  0  0  0  0  0  0
    2.5068   -2.1050   -3.4081 H   0  0  0  0  0  0  0  0  0  0  0  0
    3.1018   -0.7284   -2.4953 H   0  0  0  0  0  0  0  0  0  0  0  0
    0.6976   -0.3537    0.9374 C   0  0  0  0  0  0  0  0  0  0  0  0
    1.9155   -0.2695    1.0393 O   0  0  0  0  0  0  0  0  0  0  0  0
   -0.1022    0.1823    1.9297 N   0  0  0  0  0  0  0  0  0  0  0  0
   -1.0948   -0.0132    1.8422 H   0  0  0  0  0  0  0  0  0  0  0  0
    0.4188    0.5555    3.2383 C   0  0  0  0  0  0  0  0  0  0  0  0
    1.1946    1.3218    3.1384 H   0  0  0  0  0  0  0  0  0  0  0  0
   -0.3834    0.9584    3.8637 H   0  0  0  0  0  0  0  0  0  0  0  0
    0.8481   -0.3171    3.7416 H   0  0  0  0  0  0  0  0  0  0  0  0
  1  2  1  0  0  0  0
  2  3  1  0  0  0  0
  2  4  1  0  0  0  0
  2  5  1  0  0  0  0
  5  6  2  0  0  0  0
  5  7  1  0  0  0  0
  7  8  1  0  0  0  0
  7  9  1  0  0  0  0
  9 10  1  0  0  0  0
  9 11  1  0  0  0  0
  9 22  1  0  0  0  0
 11 12  1  0  0  0  0
 11 13  1  0  0  0  0
 11 14  1  0  0  0  0
 14 15  1  0  0  0  0
 14 16  1  0  0  0  0
 14 17  1  0  0  0  0
 17 18  2  0  0  0  0
 17 19  1  0  0  0  0
 19 20  1  0  0  0  0
 19 21  1  0  0  0  0
 22 23  2  0  0  0  0
 22 24  1  0  0  0  0
 24 25  1  0  0  0  0
 24 26  1  0  0  0  0
 26 27  1  0  0  0  0
 26 28  1  0  0  0  0
 26 29  1  0  0  0  0
M  END
$$$$

  -OEChem-02102214123D

 29 28  0     1  0  0  0  0  0999 V2000
   -2.6104   -4.3605    0.4048 H   0  0  0  0  0  0  0  0  0  0  0  0
   -2.6049   -3.4273   -0.1655 C   0  0  0  0  0  0  0  0  0  0  0  0
   -3.5093   -2.8630    0.0740 H   0  0  0  0  0  0  0  0  0  0  0  0
   -2.6039   -3.6668   -1.2319 H   0  0  0  0  0  0  0  0  0  0  0  0
   -1.3752   -2.6098    0.1816 C   0  0  0  0  0  0  0  0  0  0  0  0
   -0.5651   -3.0447    0.9813 O   0  0  0  0  0  0  0  0  0  0  0  0
   -1.1934   -1.3720   -0.4041 N   0  0  0  0  0  0  0  0  0  0  0  0
   -1.8063   -1.1909   -1.1962 H   0  0  0  0  0  0  0  0  0  0  0  0
    0.1005   -0.6650   -0.4118 C   0  0  1  0  0  0  0  0  0  0  0  0
    0.8323   -1.3292   -0.8809 H   0  0  0  0  0  0  0  0  0  0  0  0
   -0.0505    0.6527   -1.2191 C   0  0  0  0  0  0  0  0  0  0  0  0
   -1.0829    0.7442   -1.5730 H   0  0  0  0  0  0  0  0  0  0  0  0
    0.1357    1.5184   -0.5733 H   0  0  0  0  0  0  0  0  0  0  0  0
    0.8786    0.7466   -2.4465 C   0  0  0  0  0  0  0  0  0  0  0  0
    0.5680    1.5793   -3.0833 H   0  0  0  0  0  0  0  0  0  0  0  0
    1.8932    0.9576   -2.0964 H   0  0  0  0  0  0  0  0  0  0  0  0
    0.9142   -0.5298   -3.2838 C   0  0  0  0  0  0  0  0  0  0  0  0
   -0.1095   -1.1173   -3.5871 O   0  0  0  0  0  0  0  0  0  0  0  0
    2.0876   -1.1276   -3.6440 N   0  0  0  0  0  0  0  0  0  0  0  0
    2.0116   -2.0779   -3.9951 H   0  0  0  0  0  0  0  0  0  0  0  0
    2.9456   -0.8214   -3.1958 H   0  0  0  0  0  0  0  0  0  0  0  0
    0.6822   -0.3413    0.9825 C   0  0  0  0  0  0  0  0  0  0  0  0
    1.8975   -0.2639    1.1143 O   0  0  0  0  0  0  0  0  0  0  0  0
   -0.1379    0.1772    1.9678 N   0  0  0  0  0  0  0  0  0  0  0  0
   -1.1288   -0.0129    1.8537 H   0  0  0  0  0  0  0  0  0  0  0  0
    0.3545    0.5251    3.2947 C   0  0  0  0  0  0  0  0  0  0  0  0
    1.1340    1.2912    3.2272 H   0  0  0  0  0  0  0  0  0  0  0  0
   -0.4610    0.9182    3.9090 H   0  0  0  0  0  0  0  0  0  0  0  0
    0.7701   -0.3579    3.7915 H   0  0  0  0  0  0  0  0  0  0  0  0
  1  2  1  0  0  0  0
  2  3  1  0  0  0  0
  2  4  1  0  0  0  0
  2  5  1  0  0  0  0
  5  6  2  0  0  0  0
  5  7  1  0  0  0  0
  7  8  1  0  0  0  0
  7  9  1  0  0  0  0
  9 10  1  0  0  0  0
  9 11  1  0  0  0  0
  9 22  1  0  0  0  0
 11 12  1  0  0  0  0
 11 13  1  0  0  0  0
 11 14  1  0  0  0  0
 14 15  1  0  0  0  0
 14 16  1  0  0  0  0
 14 17  1  0  0  0  0
 17 18  2  0  0  0  0
 17 19  1  0  0  0  0
 19 20  1  0  0  0  0
 19 21  1  0  0  0  0
 22 23  2  0  0  0  0
 22 24  1  0  0  0  0
 24 25  1  0  0  0  0
 24 26  1  0  0  0  0
 26 27  1  0  0  0  0
 26 28  1  0  0  0  0
 26 29  1  0  0  0  0
M  END
$$$$

  -OEChem-02102214123D

 29 28  0     1  0  0  0  0  0999 V2000
   -2.6388   -4.3333    0.3502 H   0  0  0  0  0  0  0  0  0  0  0  0
   -2.6059   -3.4002   -0.2192 C   0  0  0  0  0  0  0  0  0  0  0  0
   -3.5181   -2.8330   -0.0191 H   0  0  0  0  0  0  0  0  0  0  0  0
   -2.5597   -3.6395   -1.2846 H   0  0  0  0  0  0  0  0  0  0  0  0
   -1.3897   -2.5863    0.1802 C   0  0  0  0  0  0  0  0  0  0  0  0
   -0.6134   -3.0249    1.0110 O   0  0  0  0  0  0  0  0  0  0  0  0
   -1.1828   -1.3485   -0.3960 N   0  0  0  0  0  0  0  0  0  0  0  0
   -1.7592   -1.1725   -1.2173 H   0  0  0  0  0  0  0  0  0  0  0  0
    0.1158   -0.6520   -0.3698 C   0  0  1  0  0  0  0  0  0  0  0  0
    0.8536   -1.3115   -0.8389 H   0  0  0  0  0  0  0  0  0  0  0  0
   -0.0210    0.6623   -1.1786 C   0  0  0  0  0  0  0  0  0  0  0  0
   -1.0460    0.7813   -1.5463 H   0  0  0  0  0  0  0  0  0  0  0  0
    0.1814    1.5242   -0.5328 H   0  0  0  0  0  0  0  0  0  0  0  0
    0.9491    0.7077   -2.3728 C   0  0  0  0  0  0  0  0  0  0  0  0
    0.8325    1.6565   -2.9033 H   0  0  0  0  0  0  0  0  0  0  0  0
    1.9764    0.6566   -2.0000 H   0  0  0  0  0  0  0  0  0  0  0  0
    0.7183   -0.4342   -3.3634 C   0  0  0  0  0  0  0  0  0  0  0  0
   -0.3673   -0.9748   -3.4950 O   0  0  0  0  0  0  0  0  0  0  0  0
    1.7320   -0.9303   -4.1312 N   0  0  0  0  0  0  0  0  0  0  0  0
    1.5390   -1.8014   -4.6172 H   0  0  0  0  0  0  0  0  0  0  0  0
    2.6878   -0.6744   -3.9047 H   0  0  0  0  0  0  0  0  0  0  0  0
    0.6672   -0.3370    1.0385 C   0  0  0  0  0  0  0  0  0  0  0  0
    1.8793   -0.2722    1.2023 O   0  0  0  0  0  0  0  0  0  0  0  0
   -0.1733    0.1850    2.0044 N   0  0  0  0  0  0  0  0  0  0  0  0
   -1.1621   -0.0003    1.8652 H   0  0  0  0  0  0  0  0  0  0  0  0
    0.2887    0.5237    3.3442 C   0  0  0  0  0  0  0  0  0  0  0  0
    1.0648    1.2949    3.2989 H   0  0  0  0  0  0  0  0  0  0  0  0
   -0.5417    0.9063    3.9449 H   0  0  0  0  0  0  0  0  0  0  0  0
    0.6994   -0.3612    3.8417 H   0  0  0  0  0  0  0  0  0  0  0  0
  1  2  1  0  0  0  0
  2  3  1  0  0  0  0
  2  4  1  0  0  0  0
  2  5  1  0  0  0  0
  5  6  2  0  0  0  0
  5  7  1  0  0  0  0
  7  8  1  0  0  0  0
  7  9  1  0  0  0  0
  9 10  1  0  0  0  0
  9 11  1  0  0  0  0
  9 22  1  0  0  0  0
 11 12  1  0  0  0  0
 11 13  1  0  0  0  0
 11 14  1  0  0  0  0
 14 15  1  0  0  0  0
 14 16  1  0  0  0  0
 14 17  1  0  0  0  0
 17 18  2  0  0  0  0
 17 19  1  0  0  0  0
 19 20  1  0  0  0  0
 19 21  1  0  0  0  0
 22 23  2  0  0  0  0
 22 24  1  0  0  0  0
 24 25  1  0  0  0  0
 24 26  1  0  0  0  0
 26 27  1  0  0  0  0
 26 28  1  0  0  0  0
 26 29  1  0  0  0  0
M  END
$$$$

  -OEChem-02102214123D

 29 28  0     1  0  0  0  0  0999 V2000
   -2.6545   -4.3350    0.3051 H   0  0  0  0  0  0  0  0  0  0  0  0
   -2.6317   -3.3772   -0.2225 C   0  0  0  0  0  0  0  0  0  0  0  0
   -3.5430   -2.8228    0.0133 H   0  0  0  0  0  0  0  0  0  0  0  0
   -2.5972   -3.5693   -1.2977 H   0  0  0  0  0  0  0  0  0  0  0  0
   -1.4140   -2.5769    0.1990 C   0  0  0  0  0  0  0  0  0  0  0  0
   -0.6650   -3.0184    1.0532 O   0  0  0  0  0  0  0  0  0  0  0  0
   -1.1743   -1.3481   -0.3840 N   0  0  0  0  0  0  0  0  0  0  0  0
   -1.7287   -1.1692   -1.2203 H   0  0  0  0  0  0  0  0  0  0  0  0
    0.1331   -0.6699   -0.3327 C   0  0  1  0  0  0  0  0  0  0  0  0
    0.8699   -1.3423   -0.7855 H   0  0  0  0  0  0  0  0  0  0  0  0
    0.0243    0.6334   -1.1595 C   0  0  0  0  0  0  0  0  0  0  0  0
   -0.9934    0.7837   -1.5369 H   0  0  0  0  0  0  0  0  0  0  0  0
    0.2460    1.4938   -0.5181 H   0  0  0  0  0  0  0  0  0  0  0  0
    1.0272    0.6346   -2.3265 C   0  0  0  0  0  0  0  0  0  0  0  0
    1.1095    1.6500   -2.7234 H   0  0  0  0  0  0  0  0  0  0  0  0
    2.0175    0.3370   -1.9686 H   0  0  0  0  0  0  0  0  0  0  0  0
    0.5924   -0.2852   -3.4690 C   0  0  0  0  0  0  0  0  0  0  0  0
   -0.4905   -0.8473   -3.4951 O   0  0  0  0  0  0  0  0  0  0  0  0
    1.4171   -0.5380   -4.5268 N   0  0  0  0  0  0  0  0  0  0  0  0
    1.1304   -1.2881   -5.1490 H   0  0  0  0  0  0  0  0  0  0  0  0
    2.3948   -0.2738   -4.4620 H   0  0  0  0  0  0  0  0  0  0  0  0
    0.6562   -0.3467    1.0844 C   0  0  0  0  0  0  0  0  0  0  0  0
    1.8645   -0.3024    1.2793 O   0  0  0  0  0  0  0  0  0  0  0  0
   -0.2000    0.1982    2.0234 N   0  0  0  0  0  0  0  0  0  0  0  0
   -1.1884    0.0340    1.8580 H   0  0  0  0  0  0  0  0  0  0  0  0
    0.2316    0.5459    3.3708 C   0  0  0  0  0  0  0  0  0  0  0  0
    1.0331    1.2914    3.3379 H   0  0  0  0  0  0  0  0  0  0  0  0
   -0.6045    0.9655    3.9380 H   0  0  0  0  0  0  0  0  0  0  0  0
    0.5978   -0.3429    3.8952 H   0  0  0  0  0  0  0  0  0  0  0  0
  1  2  1  0  0  0  0
  2  3  1  0  0  0  0
  2  4  1  0  0  0  0
  2  5  1  0  0  0  0
  5  6  2  0  0  0  0
  5  7  1  0  0  0  0
  7  8  1  0  0  0  0
  7  9  1  0  0  0  0
  9 10  1  0  0  0  0
  9 11  1  0  0  0  0
  9 22  1  0  0  0  0
 11 12  1  0  0  0  0
 11 13  1  0  0  0  0
 11 14  1  0  0  0  0
 14 15  1  0  0  0  0
 14 16  1  0  0  0  0
 14 17  1  0  0  0  0
 17 18  2  0  0  0  0
 17 19  1  0  0  0  0
 19 20  1  0  0  0  0
 19 21  1  0  0  0  0
 22 23  2  0  0  0  0
 22 24  1  0  0  0  0
 24 25  1  0  0  0  0
 24 26  1  0  0  0  0
 26 27  1  0  0  0  0
 26 28  1  0  0  0  0
 26 29  1  0  0  0  0
M  END
$$$$

  -OEChem-02102214123D

 29 28  0     1  0  0  0  0  0999 V2000
   -2.6916   -4.3241    0.3170 H   0  0  0  0  0  0  0  0  0  0  0  0
   -2.6722   -3.3527   -0.1853 C   0  0  0  0  0  0  0  0  0  0  0  0
   -3.5702   -2.7949    0.0903 H   0  0  0  0  0  0  0  0  0  0  0  0
   -2.6703   -3.5163   -1.2659 H   0  0  0  0  0  0  0  0  0  0  0  0
   -1.4339   -2.5776    0.2234 C   0  0  0  0  0  0  0  0  0  0  0  0
   -0.6939   -3.0276    1.0807 O   0  0  0  0  0  0  0  0  0  0  0  0
   -1.1654   -1.3616   -0.3736 N   0  0  0  0  0  0  0  0  0  0  0  0
   -1.7222   -1.1673   -1.2046 H   0  0  0  0  0  0  0  0  0  0  0  0
    0.1494   -0.6984   -0.3106 C   0  0  1  0  0  0  0  0  0  0  0  0
    0.8831   -1.3904   -0.7381 H   0  0  0  0  0  0  0  0  0  0  0  0
    0.0668    0.5868   -1.1664 C   0  0  0  0  0  0  0  0  0  0  0  0
   -0.9464    0.7572   -1.5470 H   0  0  0  0  0  0  0  0  0  0  0  0
    0.3015    1.4505   -0.5337 H   0  0  0  0  0  0  0  0  0  0  0  0
    1.0898    0.5584   -2.3190 C   0  0  0  0  0  0  0  0  0  0  0  0
    1.3642    1.5884   -2.5626 H   0  0  0  0  0  0  0  0  0  0  0  0
    2.0059    0.0406   -2.0199 H   0  0  0  0  0  0  0  0  0  0  0  0
    0.5161   -0.0761   -3.5863 C   0  0  0  0  0  0  0  0  0  0  0  0
   -0.5445   -0.6790   -3.6055 O   0  0  0  0  0  0  0  0  0  0  0  0
    1.1898   -0.0230   -4.7724 N   0  0  0  0  0  0  0  0  0  0  0  0
    0.8373   -0.6220   -5.5135 H   0  0  0  0  0  0  0  0  0  0  0  0
    2.1611    0.2709   -4.7723 H   0  0  0  0  0  0  0  0  0  0  0  0
    0.6494   -0.3601    1.1117 C   0  0  0  0  0  0  0  0  0  0  0  0
    1.8539   -0.3280    1.3307 O   0  0  0  0  0  0  0  0  0  0  0  0
   -0.2184    0.2093    2.0255 N   0  0  0  0  0  0  0  0  0  0  0  0
   -1.2053    0.0562    1.8417 H   0  0  0  0  0  0  0  0  0  0  0  0
    0.1898    0.5628    3.3787 C   0  0  0  0  0  0  0  0  0  0  0  0
    1.0067    1.2917    3.3558 H   0  0  0  0  0  0  0  0  0  0  0  0
   -0.6497    1.0052    3.9234 H   0  0  0  0  0  0  0  0  0  0  0  0
    0.5260   -0.3277    3.9202 H   0  0  0  0  0  0  0  0  0  0  0  0
  1  2  1  0  0  0  0
  2  3  1  0  0  0  0
  2  4  1  0  0  0  0
  2  5  1  0  0  0  0
  5  6  2  0  0  0  0
  5  7  1  0  0  0  0
  7  8  1  0  0  0  0
  7  9  1  0  0  0  0
  9 10  1  0  0  0  0
  9 11  1  0  0  0  0
  9 22  1  0  0  0  0
 11 12  1  0  0  0  0
 11 13  1  0  0  0  0
 11 14  1  0  0  0  0
 14 15  1  0  0  0  0
 14 16  1  0  0  0  0
 14 17  1  0  0  0  0
 17 18  2  0  0  0  0
 17 19  1  0  0  0  0
 19 20  1  0  0  0  0
 19 21  1  0  0  0  0
 22 23  2  0  0  0  0
 22 24  1  0  0  0  0
 24 25  1  0  0  0  0
 24 26  1  0  0  0  0
 26 27  1  0  0  0  0
 26 28  1  0  0  0  0
 26 29  1  0  0  0  0
M  END
$$$$

  -OEChem-02102214123D

 29 28  0     1  0  0  0  0  0999 V2000
   -2.7665   -4.2959    0.4086 H   0  0  0  0  0  0  0  0  0  0  0  0
   -2.7195   -3.3440   -0.1279 C   0  0  0  0  0  0  0  0  0  0  0  0
   -3.5955   -2.7469    0.1360 H   0  0  0  0  0  0  0  0  0  0  0  0
   -2.7339   -3.5449   -1.2020 H   0  0  0  0  0  0  0  0  0  0  0  0
   -1.4520   -2.5975    0.2431 C   0  0  0  0  0  0  0  0  0  0  0  0
   -0.6996   -3.0601    1.0825 O   0  0  0  0  0  0  0  0  0  0  0  0
   -1.1695   -1.3905   -0.3658 N   0  0  0  0  0  0  0  0  0  0  0  0
   -1.7517   -1.1676   -1.1709 H   0  0  0  0  0  0  0  0  0  0  0  0
    0.1483   -0.7324   -0.3039 C   0  0  1  0  0  0  0  0  0  0  0  0
    0.8781   -1.4396   -0.7111 H   0  0  0  0  0  0  0  0  0  0  0  0
    0.0833    0.5388   -1.1831 C   0  0  0  0  0  0  0  0  0  0  0  0
   -0.9294    0.7091   -1.5643 H   0  0  0  0  0  0  0  0  0  0  0  0
    0.3137    1.4099   -0.5595 H   0  0  0  0  0  0  0  0  0  0  0  0
    1.1142    0.5041   -2.3340 C   0  0  0  0  0  0  0  0  0  0  0  0
    1.5825    1.4902   -2.4000 H   0  0  0  0  0  0  0  0  0  0  0  0
    1.9149   -0.2147   -2.1398 H   0  0  0  0  0  0  0  0  0  0  0  0
    0.4751    0.2088   -3.6899 C   0  0  0  0  0  0  0  0  0  0  0  0
   -0.5975   -0.3594   -3.8049 O   0  0  0  0  0  0  0  0  0  0  0  0
    1.1037    0.5345   -4.8571 N   0  0  0  0  0  0  0  0  0  0  0  0
    0.7083    0.1345   -5.7032 H   0  0  0  0  0  0  0  0  0  0  0  0
    2.0817    0.8035   -4.8283 H   0  0  0  0  0  0  0  0  0  0  0  0
    0.6435   -0.3775    1.1159 C   0  0  0  0  0  0  0  0  0  0  0  0
    1.8472   -0.3475    1.3391 O   0  0  0  0  0  0  0  0  0  0  0  0
   -0.2237    0.2080    2.0201 N   0  0  0  0  0  0  0  0  0  0  0  0
   -1.2113    0.0606    1.8367 H   0  0  0  0  0  0  0  0  0  0  0  0
    0.1859    0.5825    3.3674 C   0  0  0  0  0  0  0  0  0  0  0  0
    0.9975    1.3168    3.3315 H   0  0  0  0  0  0  0  0  0  0  0  0
   -0.6550    1.0261    3.9089 H   0  0  0  0  0  0  0  0  0  0  0  0
    0.5312   -0.2980    3.9198 H   0  0  0  0  0  0  0  0  0  0  0  0
  1  2  1  0  0  0  0
  2  3  1  0  0  0  0
  2  4  1  0  0  0  0
  2  5  1  0  0  0  0
  5  6  2  0  0  0  0
  5  7  1  0  0  0  0
  7  8  1  0  0  0  0
  7  9  1  0  0  0  0
  9 10  1  0  0  0  0
  9 11  1  0  0  0  0
  9 22  1  0  0  0  0
 11 12  1  0  0  0  0
 11 13  1  0  0  0  0
 11 14  1  0  0  0  0
 14 15  1  0  0  0  0
 14 16  1  0  0  0  0
 14 17  1  0  0  0  0
 17 18  2  0  0  0  0
 17 19  1  0  0  0  0
 19 20  1  0  0  0  0
 19 21  1  0  0  0  0
 22 23  2  0  0  0  0
 22 24  1  0  0  0  0
 24 25  1  0  0  0  0
 24 26  1  0  0  0  0
 26 27  1  0  0  0  0
 26 28  1  0  0  0  0
 26 29  1  0  0  0  0
M  END
$$$$

  -OEChem-02102214123D

 29 28  0     1  0  0  0  0  0999 V2000
   -2.8528   -4.2596    0.5137 H   0  0  0  0  0  0  0  0  0  0  0  0
   -2.7692   -3.3386   -0.0703 C   0  0  0  0  0  0  0  0  0  0  0  0
   -3.6267   -2.7000    0.1545 H   0  0  0  0  0  0  0  0  0  0  0  0
   -2.7823   -3.5944   -1.1327 H   0  0  0  0  0  0  0  0  0  0  0  0
   -1.4795   -2.6172    0.2734 C   0  0  0  0  0  0  0  0  0  0  0  0
   -0.7277   -3.0839    1.1108 O   0  0  0  0  0  0  0  0  0  0  0  0
   -1.1741   -1.4283   -0.3599 N   0  0  0  0  0  0  0  0  0  0  0  0
   -1.7690   -1.1917   -1.1510 H   0  0  0  0  0  0  0  0  0  0  0  0
    0.1535   -0.7872   -0.3079 C   0  0  1  0  0  0  0  0  0  0  0  0
    0.8763   -1.5133   -0.6939 H   0  0  0  0  0  0  0  0  0  0  0  0
    0.1155    0.4729   -1.2064 C   0  0  0  0  0  0  0  0  0  0  0  0
   -0.8961    0.6311   -1.5951 H   0  0  0  0  0  0  0  0  0  0  0  0
    0.3383    1.3579   -0.5994 H   0  0  0  0  0  0  0  0  0  0  0  0
    1.1456    0.4203   -2.3609 C   0  0  0  0  0  0  0  0  0  0  0  0
    1.8277    1.2686   -2.2543 H   0  0  0  0  0  0  0  0  0  0  0  0
    1.7563   -0.4851   -2.3212 H   0  0  0  0  0  0  0  0  0  0  0  0
    0.4899    0.4945   -3.7377 C   0  0  0  0  0  0  0  0  0  0  0  0
   -0.5752   -0.0438   -3.9836 O   0  0  0  0  0  0  0  0  0  0  0  0
    1.0753    1.1629   -4.7745 N   0  0  0  0  0  0  0  0  0  0  0  0
    0.6645    1.0142   -5.6918 H   0  0  0  0  0  0  0  0  0  0  0  0
    2.0437    1.4533   -4.6886 H   0  0  0  0  0  0  0  0  0  0  0  0
    0.6452   -0.4093    1.1076 C   0  0  0  0  0  0  0  0  0  0  0  0
    1.8478   -0.3871    1.3366 O   0  0  0  0  0  0  0  0  0  0  0  0
   -0.2188    0.2072    1.9944 N   0  0  0  0  0  0  0  0  0  0  0  0
   -1.2083    0.0774    1.8081 H   0  0  0  0  0  0  0  0  0  0  0  0
    0.1921    0.6281    3.3278 C   0  0  0  0  0  0  0  0  0  0  0  0
    0.9895    1.3761    3.2648 H   0  0  0  0  0  0  0  0  0  0  0  0
   -0.6535    1.0710    3.8622 H   0  0  0  0  0  0  0  0  0  0  0  0
    0.5572   -0.2290    3.9035 H   0  0  0  0  0  0  0  0  0  0  0  0
  1  2  1  0  0  0  0
  2  3  1  0  0  0  0
  2  4  1  0  0  0  0
  2  5  1  0  0  0  0
  5  6  2  0  0  0  0
  5  7  1  0  0  0  0
  7  8  1  0  0  0  0
  7  9  1  0  0  0  0
  9 10  1  0  0  0  0
  9 11  1  0  0  0  0
  9 22  1  0  0  0  0
 11 12  1  0  0  0  0
 11 13  1  0  0  0  0
 11 14  1  0  0  0  0
 14 15  1  0  0  0  0
 14 16  1  0  0  0  0
 14 17  1  0  0  0  0
 17 18  2  0  0  0  0
 17 19  1  0  0  0  0
 19 20  1  0  0  0  0
 19 21  1  0  0  0  0
 22 23  2  0  0  0  0
 22 24  1  0  0  0  0
 24 25  1  0  0  0  0
 24 26  1  0  0  0  0
 26 27  1  0  0  0  0
 26 28  1  0  0  0  0
 26 29  1  0  0  0  0
M  END
$$$$

  -OEChem-02102214123D

 29 28  0     1  0  0  0  0  0999 V2000
   -2.8794   -4.2411    0.5926 H   0  0  0  0  0  0  0  0  0  0  0  0
   -2.7943   -3.3333   -0.0116 C   0  0  0  0  0  0  0  0  0  0  0  0
   -3.6323   -2.6734    0.2250 H   0  0  0  0  0  0  0  0  0  0  0  0
   -2.8424   -3.6086   -1.0680 H   0  0  0  0  0  0  0  0  0  0  0  0
   -1.4814   -2.6319    0.2817 C   0  0  0  0  0  0  0  0  0  0  0  0
   -0.7035   -3.1115    1.0870 O   0  0  0  0  0  0  0  0  0  0  0  0
   -1.1832   -1.4466   -0.3619 N   0  0  0  0  0  0  0  0  0  0  0  0
   -1.8138   -1.1826   -1.1151 H   0  0  0  0  0  0  0  0  0  0  0  0
    0.1437   -0.8018   -0.3303 C   0  0  1  0  0  0  0  0  0  0  0  0
    0.8653   -1.5295   -0.7151 H   0  0  0  0  0  0  0  0  0  0  0  0
    0.1073    0.4524   -1.2372 C   0  0  0  0  0  0  0  0  0  0  0  0
   -0.9046    0.5785   -1.6360 H   0  0  0  0  0  0  0  0  0  0  0  0
    0.3115    1.3537   -0.6477 H   0  0  0  0  0  0  0  0  0  0  0  0
    1.1320    0.3835   -2.3949 C   0  0  0  0  0  0  0  0  0  0  0  0
    1.9898    1.0159   -2.1496 H   0  0  0  0  0  0  0  0  0  0  0  0
    1.5076   -0.6338   -2.5303 H   0  0  0  0  0  0  0  0  0  0  0  0
    0.5378    0.8147   -3.7327 C   0  0  0  0  0  0  0  0  0  0  0  0
   -0.5523    0.4284   -4.1142 O   0  0  0  0  0  0  0  0  0  0  0  0
    1.1994    1.6628   -4.5738 N   0  0  0  0  0  0  0  0  0  0  0  0
    0.8085    1.7648   -5.5060 H   0  0  0  0  0  0  0  0  0  0  0  0
    2.1803    1.8606   -4.4046 H   0  0  0  0  0  0  0  0  0  0  0  0
    0.6483   -0.4144    1.0779 C   0  0  0  0  0  0  0  0  0  0  0  0
    1.8528   -0.3882    1.2962 O   0  0  0  0  0  0  0  0  0  0  0  0
   -0.2090    0.2049    1.9691 N   0  0  0  0  0  0  0  0  0  0  0  0
   -1.2001    0.0780    1.7897 H   0  0  0  0  0  0  0  0  0  0  0  0
    0.2119    0.6356    3.2963 C   0  0  0  0  0  0  0  0  0  0  0  0
    0.9926    1.3997    3.2216 H   0  0  0  0  0  0  0  0  0  0  0  0
   -0.6351    1.0617    3.8423 H   0  0  0  0  0  0  0  0  0  0  0  0
    0.6028   -0.2125    3.8683 H   0  0  0  0  0  0  0  0  0  0  0  0
  1  2  1  0  0  0  0
  2  3  1  0  0  0  0
  2  4  1  0  0  0  0
  2  5  1  0  0  0  0
  5  6  2  0  0  0  0
  5  7  1  0  0  0  0
  7  8  1  0  0  0  0
  7  9  1  0  0  0  0
  9 10  1  0  0  0  0
  9 11  1  0  0  0  0
  9 22  1  0  0  0  0
 11 12  1  0  0  0  0
 11 13  1  0  0  0  0
 11 14  1  0  0  0  0
 14 15  1  0  0  0  0
 14 16  1  0  0  0  0
 14 17  1  0  0  0  0
 17 18  2  0  0  0  0
 17 19  1  0  0  0  0
 19 20  1  0  0  0  0
 19 21  1  0  0  0  0
 22 23  2  0  0  0  0
 22 24  1  0  0  0  0
 24 25  1  0  0  0  0
 24 26  1  0  0  0  0
 26 27  1  0  0  0  0
 26 28  1  0  0  0  0
 26 29  1  0  0  0  0
M  END
$$$$

  -OEChem-02102214123D

 29 28  0     1  0  0  0  0  0999 V2000
   -2.7168   -4.3387    0.4945 H   0  0  0  0  0  0  0  0  0  0  0  0
   -2.7105   -3.3777   -0.0277 C   0  0  0  0  0  0  0  0  0  0  0  0
   -3.5422   -2.7720    0.3400 H   0  0  0  0  0  0  0  0  0  0  0  0
   -2.8443   -3.5589   -1.0969 H   0  0  0  0  0  0  0  0  0  0  0  0
   -1.3964   -2.6597    0.2165 C   0  0  0  0  0  0  0  0  0  0  0  0
   -0.5518   -3.1662    0.9329 O   0  0  0  0  0  0  0  0  0  0  0  0
   -1.1647   -1.4352   -0.3794 N   0  0  0  0  0  0  0  0  0  0  0  0
   -1.8701   -1.1094   -1.0349 H   0  0  0  0  0  0  0  0  0  0  0  0
    0.1270   -0.7227   -0.3365 C   0  0  1  0  0  0  0  0  0  0  0  0
    0.8813   -1.3986   -0.7536 H   0  0  0  0  0  0  0  0  0  0  0  0
    0.0339    0.5570   -1.2010 C   0  0  0  0  0  0  0  0  0  0  0  0
   -0.9781    0.6261   -1.6128 H   0  0  0  0  0  0  0  0  0  0  0  0
    0.1816    1.4555   -0.5911 H   0  0  0  0  0  0  0  0  0  0  0  0
    1.0649    0.5560   -2.3534 C   0  0  0  0  0  0  0  0  0  0  0  0
    2.0098    0.9695   -1.9897 H   0  0  0  0  0  0  0  0  0  0  0  0
    1.2550   -0.4702   -2.6794 H   0  0  0  0  0  0  0  0  0  0  0  0
    0.6158    1.3234   -3.5967 C   0  0  0  0  0  0  0  0  0  0  0  0
   -0.4751    1.8530   -3.7052 O   0  0  0  0  0  0  0  0  0  0  0  0
    1.4400    1.4509   -4.6775 N   0  0  0  0  0  0  0  0  0  0  0  0
    1.1416    2.1086   -5.3921 H   0  0  0  0  0  0  0  0  0  0  0  0
    2.4212    1.2114   -4.5792 H   0  0  0  0  0  0  0  0  0  0  0  0
    0.6293   -0.3661    1.0803 C   0  0  0  0  0  0  0  0  0  0  0  0
    1.8335   -0.3064    1.2923 O   0  0  0  0  0  0  0  0  0  0  0  0
   -0.2448    0.1712    2.0075 N   0  0  0  0  0  0  0  0  0  0  0  0
   -1.2333    0.0350    1.8223 H   0  0  0  0  0  0  0  0  0  0  0  0
    0.1706    0.5708    3.3459 C   0  0  0  0  0  0  0  0  0  0  0  0
    0.9473    1.3411    3.2931 H   0  0  0  0  0  0  0  0  0  0  0  0
   -0.6804    0.9785    3.8996 H   0  0  0  0  0  0  0  0  0  0  0  0
    0.5646   -0.2899    3.8966 H   0  0  0  0  0  0  0  0  0  0  0  0
  1  2  1  0  0  0  0
  2  3  1  0  0  0  0
  2  4  1  0  0  0  0
  2  5  1  0  0  0  0
  5  6  2  0  0  0  0
  5  7  1  0  0  0  0
  7  8  1  0  0  0  0
  7  9  1  0  0  0  0
  9 10  1  0  0  0  0
  9 11  1  0  0  0  0
  9 22  1  0  0  0  0
 11 12  1  0  0  0  0
 11 13  1  0  0  0  0
 11 14  1  0  0  0  0
 14 15  1  0  0  0  0
 14 16  1  0  0  0  0
 14 17  1  0  0  0  0
 17 18  2  0  0  0  0
 17 19  1  0  0  0  0
 19 20  1  0  0  0  0
 19 21  1  0  0  0  0
 22 23  2  0  0  0  0
 22 24  1  0  0  0  0
 24 25  1  0  0  0  0
 24 26  1  0  0  0  0
 26 27  1  0  0  0  0
 26 28  1  0  0  0  0
 26 29  1  0  0  0  0
M  END
$$$$

  -OEChem-02102214123D

 29 28  0     1  0  0  0  0  0999 V2000
   -2.7494   -4.3093    0.5714 H   0  0  0  0  0  0  0  0  0  0  0  0
   -2.7308   -3.3693    0.0123 C   0  0  0  0  0  0  0  0  0  0  0  0
   -3.5474   -2.7348    0.3647 H   0  0  0  0  0  0  0  0  0  0  0  0
   -2.8791   -3.5885   -1.0479 H   0  0  0  0  0  0  0  0  0  0  0  0
   -1.4016   -2.6668    0.2166 C   0  0  0  0  0  0  0  0  0  0  0  0
   -0.5460   -3.1781    0.9162 O   0  0  0  0  0  0  0  0  0  0  0  0
   -1.1728   -1.4459   -0.3878 N   0  0  0  0  0  0  0  0  0  0  0  0
   -1.8904   -1.1135   -1.0260 H   0  0  0  0  0  0  0  0  0  0  0  0
    0.1200   -0.7353   -0.3594 C   0  0  1  0  0  0  0  0  0  0  0  0
    0.8697   -1.4116   -0.7848 H   0  0  0  0  0  0  0  0  0  0  0  0
    0.0238    0.5379   -1.2298 C   0  0  0  0  0  0  0  0  0  0  0  0
   -0.9857    0.6154   -1.6472 H   0  0  0  0  0  0  0  0  0  0  0  0
    0.1858    1.4382   -0.6255 H   0  0  0  0  0  0  0  0  0  0  0  0
    1.0496    0.5107   -2.3797 C   0  0  0  0  0  0  0  0  0  0  0  0
    2.0506    0.6763   -1.9706 H   0  0  0  0  0  0  0  0  0  0  0  0
    1.0396   -0.4724   -2.8586 H   0  0  0  0  0  0  0  0  0  0  0  0
    0.7666    1.5460   -3.4665 C   0  0  0  0  0  0  0  0  0  0  0  0
   -0.2906    2.1425   -3.5600 O   0  0  0  0  0  0  0  0  0  0  0  0
    1.7060    1.8570   -4.4068 N   0  0  0  0  0  0  0  0  0  0  0  0
    1.5080    2.6701   -4.9827 H   0  0  0  0  0  0  0  0  0  0  0  0
    2.6630    1.5514   -4.2648 H   0  0  0  0  0  0  0  0  0  0  0  0
    0.6334   -0.3725    1.0517 C   0  0  0  0  0  0  0  0  0  0  0  0
    1.8391   -0.3131    1.2553 O   0  0  0  0  0  0  0  0  0  0  0  0
   -0.2342    0.1707    1.9818 N   0  0  0  0  0  0  0  0  0  0  0  0
   -1.2242    0.0405    1.8011 H   0  0  0  0  0  0  0  0  0  0  0  0
    0.1895    0.5821    3.3140 C   0  0  0  0  0  0  0  0  0  0  0  0
    0.9410    1.3758    3.2489 H   0  0  0  0  0  0  0  0  0  0  0  0
   -0.6646    0.9627    3.8823 H   0  0  0  0  0  0  0  0  0  0  0  0
    0.6185   -0.2664    3.8574 H   0  0  0  0  0  0  0  0  0  0  0  0
  1  2  1  0  0  0  0
  2  3  1  0  0  0  0
  2  4  1  0  0  0  0
  2  5  1  0  0  0  0
  5  6  2  0  0  0  0
  5  7  1  0  0  0  0
  7  8  1  0  0  0  0
  7  9  1  0  0  0  0
  9 10  1  0  0  0  0
  9 11  1  0  0  0  0
  9 22  1  0  0  0  0
 11 12  1  0  0  0  0
 11 13  1  0  0  0  0
 11 14  1  0  0  0  0
 14 15  1  0  0  0  0
 14 16  1  0  0  0  0
 14 17  1  0  0  0  0
 17 18  2  0  0  0  0
 17 19  1  0  0  0  0
 19 20  1  0  0  0  0
 19 21  1  0  0  0  0
 22 23  2  0  0  0  0
 22 24  1  0  0  0  0
 24 25  1  0  0  0  0
 24 26  1  0  0  0  0
 26 27  1  0  0  0  0
 26 28  1  0  0  0  0
 26 29  1  0  0  0  0
M  END
$$$$

  -OEChem-02102214123D

 29 28  0     1  0  0  0  0  0999 V2000
   -2.7783   -4.2780    0.6492 H   0  0  0  0  0  0  0  0  0  0  0  0
   -2.7553   -3.3506    0.0695 C   0  0  0  0  0  0  0  0  0  0  0  0
   -3.5473   -2.6907    0.4315 H   0  0  0  0  0  0  0  0  0  0  0  0
   -2.9388   -3.5885   -0.9810 H   0  0  0  0  0  0  0  0  0  0  0  0
   -1.4056   -2.6741    0.2203 C   0  0  0  0  0  0  0  0  0  0  0  0
   -0.5344   -3.1998    0.8891 O   0  0  0  0  0  0  0  0  0  0  0  0
   -1.1746   -1.4608   -0.3983 N   0  0  0  0  0  0  0  0  0  0  0  0
   -1.9102   -1.1104   -1.0056 H   0  0  0  0  0  0  0  0  0  0  0  0
    0.1220   -0.7571   -0.3926 C   0  0  1  0  0  0  0  0  0  0  0  0
    0.8736   -1.4282   -0.8239 H   0  0  0  0  0  0  0  0  0  0  0  0
    0.0024    0.5115   -1.2634 C   0  0  0  0  0  0  0  0  0  0  0  0
   -1.0501    0.7714   -1.4212 H   0  0  0  0  0  0  0  0  0  0  0  0
    0.4657    1.3628   -0.7503 H   0  0  0  0  0  0  0  0  0  0  0  0
    0.7118    0.3217   -2.6155 C   0  0  0  0  0  0  0  0  0  0  0  0
    1.7683    0.0997   -2.4392 H   0  0  0  0  0  0  0  0  0  0  0  0
    0.2732   -0.5248   -3.1511 H   0  0  0  0  0  0  0  0  0  0  0  0
    0.6108    1.5601   -3.5008 C   0  0  0  0  0  0  0  0  0  0  0  0
   -0.3495    2.3070   -3.4700 O   0  0  0  0  0  0  0  0  0  0  0  0
    1.6016    1.8960   -4.3781 N   0  0  0  0  0  0  0  0  0  0  0  0
    1.5311    2.8185   -4.7980 H   0  0  0  0  0  0  0  0  0  0  0  0
    2.5034    1.4372   -4.3009 H   0  0  0  0  0  0  0  0  0  0  0  0
    0.6433   -0.3879    1.0146 C   0  0  0  0  0  0  0  0  0  0  0  0
    1.8501   -0.3392    1.2133 O   0  0  0  0  0  0  0  0  0  0  0  0
   -0.2151    0.1656    1.9471 N   0  0  0  0  0  0  0  0  0  0  0  0
   -1.2073    0.0477    1.7711 H   0  0  0  0  0  0  0  0  0  0  0  0
    0.2191    0.5856    3.2733 C   0  0  0  0  0  0  0  0  0  0  0  0
    0.9807    1.3689    3.1976 H   0  0  0  0  0  0  0  0  0  0  0  0
   -0.6279    0.9831    3.8403 H   0  0  0  0  0  0  0  0  0  0  0  0
    0.6388   -0.2627    3.8241 H   0  0  0  0  0  0  0  0  0  0  0  0
  1  2  1  0  0  0  0
  2  3  1  0  0  0  0
  2  4  1  0  0  0  0
  2  5  1  0  0  0  0
  5  6  2  0  0  0  0
  5  7  1  0  0  0  0
  7  8  1  0  0  0  0
  7  9  1  0  0  0  0
  9 10  1  0  0  0  0
  9 11  1  0  0  0  0
  9 22  1  0  0  0  0
 11 12  1  0  0  0  0
 11 13  1  0  0  0  0
 11 14  1  0  0  0  0
 14 15  1  0  0  0  0
 14 16  1  0  0  0  0
 14 17  1  0  0  0  0
 17 18  2  0  0  0  0
 17 19  1  0  0  0  0
 19 20  1  0  0  0  0
 19 21  1  0  0  0  0
 22 23  2  0  0  0  0
 22 24  1  0  0  0  0
 24 25  1  0  0  0  0
 24 26  1  0  0  0  0
 26 27  1  0  0  0  0
 26 28  1  0  0  0  0
 26 29  1  0  0  0  0
M  END
$$$$

  -OEChem-02102214123D

 29 28  0     1  0  0  0  0  0999 V2000
   -2.8186   -4.2609    0.6939 H   0  0  0  0  0  0  0  0  0  0  0  0
   -2.8008   -3.3369    0.1085 C   0  0  0  0  0  0  0  0  0  0  0  0
   -3.5914   -2.6759    0.4718 H   0  0  0  0  0  0  0  0  0  0  0  0
   -2.9914   -3.5816   -0.9393 H   0  0  0  0  0  0  0  0  0  0  0  0
   -1.4507   -2.6583    0.2457 C   0  0  0  0  0  0  0  0  0  0  0  0
   -0.5831   -3.1656    0.9333 O   0  0  0  0  0  0  0  0  0  0  0  0
   -1.2151   -1.4640   -0.4078 N   0  0  0  0  0  0  0  0  0  0  0  0
   -1.9429   -1.1433   -1.0403 H   0  0  0  0  0  0  0  0  0  0  0  0
    0.0971   -0.7920   -0.4605 C   0  0  1  0  0  0  0  0  0  0  0  0
    0.8157   -1.4912   -0.9020 H   0  0  0  0  0  0  0  0  0  0  0  0
   -0.0246    0.4629   -1.3521 C   0  0  0  0  0  0  0  0  0  0  0  0
   -1.0713    0.7611   -1.4764 H   0  0  0  0  0  0  0  0  0  0  0  0
    0.4858    1.3016   -0.8630 H   0  0  0  0  0  0  0  0  0  0  0  0
    0.6275    0.2454   -2.7275 C   0  0  0  0  0  0  0  0  0  0  0  0
    1.6050   -0.2304   -2.6072 H   0  0  0  0  0  0  0  0  0  0  0  0
    0.0069   -0.4135   -3.3411 H   0  0  0  0  0  0  0  0  0  0  0  0
    0.8268    1.5725   -3.4475 C   0  0  0  0  0  0  0  0  0  0  0  0
   -0.1198    2.2701   -3.7585 O   0  0  0  0  0  0  0  0  0  0  0  0
    2.0676    2.0887   -3.6887 N   0  0  0  0  0  0  0  0  0  0  0  0
    2.0967    3.0638   -3.9728 H   0  0  0  0  0  0  0  0  0  0  0  0
    2.8709    1.6658   -3.2346 H   0  0  0  0  0  0  0  0  0  0  0  0
    0.6779   -0.4043    0.9182 C   0  0  0  0  0  0  0  0  0  0  0  0
    1.8929   -0.3609    1.0624 O   0  0  0  0  0  0  0  0  0  0  0  0
   -0.1338    0.1904    1.8670 N   0  0  0  0  0  0  0  0  0  0  0  0
   -1.1334    0.0687    1.7410 H   0  0  0  0  0  0  0  0  0  0  0  0
    0.3609    0.6314    3.1651 C   0  0  0  0  0  0  0  0  0  0  0  0
    1.1478    1.3828    3.0412 H   0  0  0  0  0  0  0  0  0  0  0  0
   -0.4507    1.0772    3.7478 H   0  0  0  0  0  0  0  0  0  0  0  0
    0.7680   -0.2161    3.7265 H   0  0  0  0  0  0  0  0  0  0  0  0
  1  2  1  0  0  0  0
  2  3  1  0  0  0  0
  2  4  1  0  0  0  0
  2  5  1  0  0  0  0
  5  6  2  0  0  0  0
  5  7  1  0  0  0  0
  7  8  1  0  0  0  0
  7  9  1  0  0  0  0
  9 10  1  0  0  0  0
  9 11  1  0  0  0  0
  9 22  1  0  0  0  0
 11 12  1  0  0  0  0
 11 13  1  0  0  0  0
 11 14  1  0  0  0  0
 14 15  1  0  0  0  0
 14 16  1  0  0  0  0
 14 17  1  0  0  0  0
 17 18  2  0  0  0  0
 17 19  1  0  0  0  0
 19 20  1  0  0  0  0
 19 21  1  0  0  0  0
 22 23  2  0  0  0  0
 22 24  1  0  0  0  0
 24 25  1  0  0  0  0
 24 26  1  0  0  0  0
 26 27  1  0  0  0  0
 26 28  1  0  0  0  0
 26 29  1  0  0  0  0
M  END
$$$$

  -OEChem-02102214123D

 29 28  0     1  0  0  0  0  0999 V2000
   -2.8281   -4.2367    0.7026 H   0  0  0  0  0  0  0  0  0  0  0  0
   -2.8124   -3.3193    0.1072 C   0  0  0  0  0  0  0  0  0  0  0  0
   -3.5968   -2.6513    0.4711 H   0  0  0  0  0  0  0  0  0  0  0  0
   -3.0140   -3.5745   -0.9359 H   0  0  0  0  0  0  0  0  0  0  0  0
   -1.4588   -2.6444    0.2240 C   0  0  0  0  0  0  0  0  0  0  0  0
   -0.5807   -3.1561    0.8948 O   0  0  0  0  0  0  0  0  0  0  0  0
   -1.2319   -1.4470   -0.4269 N   0  0  0  0  0  0  0  0  0  0  0  0
   -1.9678   -1.1260   -1.0497 H   0  0  0  0  0  0  0  0  0  0  0  0
    0.0850   -0.7880   -0.5099 C   0  0  1  0  0  0  0  0  0  0  0  0
    0.7821   -1.4972   -0.9691 H   0  0  0  0  0  0  0  0  0  0  0  0
   -0.0409    0.4753   -1.3913 C   0  0  0  0  0  0  0  0  0  0  0  0
   -1.0846    0.7934   -1.4852 H   0  0  0  0  0  0  0  0  0  0  0  0
    0.4903    1.2989   -0.8985 H   0  0  0  0  0  0  0  0  0  0  0  0
    0.5727    0.2742   -2.7898 C   0  0  0  0  0  0  0  0  0  0  0  0
    1.4112   -0.4267   -2.7499 H   0  0  0  0  0  0  0  0  0  0  0  0
   -0.1742   -0.1409   -3.4725 H   0  0  0  0  0  0  0  0  0  0  0  0
    1.1028    1.5901   -3.3411 C   0  0  0  0  0  0  0  0  0  0  0  0
    0.3742    2.3711   -3.9216 O   0  0  0  0  0  0  0  0  0  0  0  0
    2.3878    1.9967   -3.1224 N   0  0  0  0  0  0  0  0  0  0  0  0
    2.5908    2.9685   -3.3369 H   0  0  0  0  0  0  0  0  0  0  0  0
    2.9495    1.4976   -2.4388 H   0  0  0  0  0  0  0  0  0  0  0  0
    0.7091   -0.4167    0.8543 C   0  0  0  0  0  0  0  0  0  0  0  0
    1.9284   -0.3667    0.9530 O   0  0  0  0  0  0  0  0  0  0  0  0
   -0.0685    0.1787    1.8307 N   0  0  0  0  0  0  0  0  0  0  0  0
   -1.0713    0.0493    1.7427 H   0  0  0  0  0  0  0  0  0  0  0  0
    0.4711    0.6096    3.1143 C   0  0  0  0  0  0  0  0  0  0  0  0
    1.2357    1.3801    2.9697 H   0  0  0  0  0  0  0  0  0  0  0  0
   -0.3249    1.0275    3.7379 H   0  0  0  0  0  0  0  0  0  0  0  0
    0.9197   -0.2372    3.6445 H   0  0  0  0  0  0  0  0  0  0  0  0
  1  2  1  0  0  0  0
  2  3  1  0  0  0  0
  2  4  1  0  0  0  0
  2  5  1  0  0  0  0
  5  6  2  0  0  0  0
  5  7  1  0  0  0  0
  7  8  1  0  0  0  0
  7  9  1  0  0  0  0
  9 10  1  0  0  0  0
  9 11  1  0  0  0  0
  9 22  1  0  0  0  0
 11 12  1  0  0  0  0
 11 13  1  0  0  0  0
 11 14  1  0  0  0  0
 14 15  1  0  0  0  0
 14 16  1  0  0  0  0
 14 17  1  0  0  0  0
 17 18  2  0  0  0  0
 17 19  1  0  0  0  0
 19 20  1  0  0  0  0
 19 21  1  0  0  0  0
 22 23  2  0  0  0  0
 22 24  1  0  0  0  0
 24 25  1  0  0  0  0
 24 26  1  0  0  0  0
 26 27  1  0  0  0  0
 26 28  1  0  0  0  0
 26 29  1  0  0  0  0
M  END
$$$$

  -OEChem-02102214123D

 29 28  0     1  0  0  0  0  0999 V2000
   -2.8027   -4.2502    0.6602 H   0  0  0  0  0  0  0  0  0  0  0  0
   -2.8012   -3.3257    0.0756 C   0  0  0  0  0  0  0  0  0  0  0  0
   -3.5835   -2.6669    0.4599 H   0  0  0  0  0  0  0  0  0  0  0  0
   -3.0179   -3.5695   -0.9671 H   0  0  0  0  0  0  0  0  0  0  0  0
   -1.4492   -2.6451    0.1793 C   0  0  0  0  0  0  0  0  0  0  0  0
   -0.5553   -3.1655    0.8222 O   0  0  0  0  0  0  0  0  0  0  0  0
   -1.2403   -1.4316   -0.4479 N   0  0  0  0  0  0  0  0  0  0  0  0
   -1.9889   -1.1007   -1.0499 H   0  0  0  0  0  0  0  0  0  0  0  0
    0.0739   -0.7683   -0.5416 C   0  0  1  0  0  0  0  0  0  0  0  0
    0.7611   -1.4705   -1.0249 H   0  0  0  0  0  0  0  0  0  0  0  0
   -0.0584    0.5179   -1.3901 C   0  0  0  0  0  0  0  0  0  0  0  0
   -1.1048    0.8324   -1.4618 H   0  0  0  0  0  0  0  0  0  0  0  0
    0.4683    1.3330   -0.8785 H   0  0  0  0  0  0  0  0  0  0  0  0
    0.5316    0.3598   -2.8079 C   0  0  0  0  0  0  0  0  0  0  0  0
    1.1705   -0.5237   -2.8829 H   0  0  0  0  0  0  0  0  0  0  0  0
   -0.2768    0.2394   -3.5351 H   0  0  0  0  0  0  0  0  0  0  0  0
    1.3779    1.5687   -3.1826 C   0  0  0  0  0  0  0  0  0  0  0  0
    0.9312    2.4716   -3.8631 O   0  0  0  0  0  0  0  0  0  0  0  0
    2.6507    1.7215   -2.7113 N   0  0  0  0  0  0  0  0  0  0  0  0
    3.0683    2.6384   -2.8404 H   0  0  0  0  0  0  0  0  0  0  0  0
    2.9662    1.1209   -1.9538 H   0  0  0  0  0  0  0  0  0  0  0  0
    0.7306   -0.4262    0.8144 C   0  0  0  0  0  0  0  0  0  0  0  0
    1.9520   -0.3555    0.8738 O   0  0  0  0  0  0  0  0  0  0  0  0
   -0.0243    0.1459    1.8219 N   0  0  0  0  0  0  0  0  0  0  0  0
   -1.0279    0.0056    1.7627 H   0  0  0  0  0  0  0  0  0  0  0  0
    0.5489    0.5705    3.0929 C   0  0  0  0  0  0  0  0  0  0  0  0
    1.3021    1.3490    2.9324 H   0  0  0  0  0  0  0  0  0  0  0  0
   -0.2318    0.9763    3.7432 H   0  0  0  0  0  0  0  0  0  0  0  0
    1.0202   -0.2767    3.6023 H   0  0  0  0  0  0  0  0  0  0  0  0
  1  2  1  0  0  0  0
  2  3  1  0  0  0  0
  2  4  1  0  0  0  0
  2  5  1  0  0  0  0
  5  6  2  0  0  0  0
  5  7  1  0  0  0  0
  7  8  1  0  0  0  0
  7  9  1  0  0  0  0
  9 10  1  0  0  0  0
  9 11  1  0  0  0  0
  9 22  1  0  0  0  0
 11 12  1  0  0  0  0
 11 13  1  0  0  0  0
 11 14  1  0  0  0  0
 14 15  1  0  0  0  0
 14 16  1  0  0  0  0
 14 17  1  0  0  0  0
 17 18  2  0  0  0  0
 17 19  1  0  0  0  0
 19 20  1  0  0  0  0
 19 21  1  0  0  0  0
 22 23  2  0  0  0  0
 22 24  1  0  0  0  0
 24 25  1  0  0  0  0
 24 26  1  0  0  0  0
 26 27  1  0  0  0  0
 26 28  1  0  0  0  0
 26 29  1  0  0  0  0
M  END
$$$$

  -OEChem-02102214123D

 29 28  0     1  0  0  0  0  0999 V2000
   -2.7742   -4.2787    0.5652 H   0  0  0  0  0  0  0  0  0  0  0  0
   -2.7857   -3.3419    0.0010 C   0  0  0  0  0  0  0  0  0  0  0  0
   -3.5703   -2.6986    0.4059 H   0  0  0  0  0  0  0  0  0  0  0  0
   -3.0089   -3.5650   -1.0451 H   0  0  0  0  0  0  0  0  0  0  0  0
   -1.4392   -2.6514    0.1086 C   0  0  0  0  0  0  0  0  0  0  0  0
   -0.5306   -3.1815    0.7224 O   0  0  0  0  0  0  0  0  0  0  0  0
   -1.2523   -1.4141   -0.4770 N   0  0  0  0  0  0  0  0  0  0  0  0
   -2.0125   -1.0703   -1.0568 H   0  0  0  0  0  0  0  0  0  0  0  0
    0.0555   -0.7392   -0.5702 C   0  0  1  0  0  0  0  0  0  0  0  0
    0.7338   -1.4281   -1.0848 H   0  0  0  0  0  0  0  0  0  0  0  0
   -0.0754    0.5724   -1.3775 C   0  0  0  0  0  0  0  0  0  0  0  0
   -1.1287    0.8625   -1.4487 H   0  0  0  0  0  0  0  0  0  0  0  0
    0.4236    1.3914   -0.8445 H   0  0  0  0  0  0  0  0  0  0  0  0
    0.5086    0.4469   -2.8012 C   0  0  0  0  0  0  0  0  0  0  0  0
    0.8890   -0.5566   -3.0070 H   0  0  0  0  0  0  0  0  0  0  0  0
   -0.2781    0.6497   -3.5342 H   0  0  0  0  0  0  0  0  0  0  0  0
    1.6393    1.4470   -3.0082 C   0  0  0  0  0  0  0  0  0  0  0  0
    1.5523    2.3528   -3.8144 O   0  0  0  0  0  0  0  0  0  0  0  0
    2.7909    1.3755   -2.2753 N   0  0  0  0  0  0  0  0  0  0  0  0
    3.4178    2.1713   -2.3446 H   0  0  0  0  0  0  0  0  0  0  0  0
    2.8119    0.7822   -1.4467 H   0  0  0  0  0  0  0  0  0  0  0  0
    0.7526   -0.4345    0.7729 C   0  0  0  0  0  0  0  0  0  0  0  0
    1.9729   -0.3191    0.7736 O   0  0  0  0  0  0  0  0  0  0  0  0
    0.0287    0.1004    1.8221 N   0  0  0  0  0  0  0  0  0  0  0  0
   -0.9717   -0.0715    1.8065 H   0  0  0  0  0  0  0  0  0  0  0  0
    0.6462    0.5185    3.0745 C   0  0  0  0  0  0  0  0  0  0  0  0
    1.3750    1.3162    2.8957 H   0  0  0  0  0  0  0  0  0  0  0  0
   -0.1150    0.8970    3.7634 H   0  0  0  0  0  0  0  0  0  0  0  0
    1.1572   -0.3254    3.5500 H   0  0  0  0  0  0  0  0  0  0  0  0
  1  2  1  0  0  0  0
  2  3  1  0  0  0  0
  2  4  1  0  0  0  0
  2  5  1  0  0  0  0
  5  6  2  0  0  0  0
  5  7  1  0  0  0  0
  7  8  1  0  0  0  0
  7  9  1  0  0  0  0
  9 10  1  0  0  0  0
  9 11  1  0  0  0  0
  9 22  1  0  0  0  0
 11 12  1  0  0  0  0
 11 13  1  0  0  0  0
 11 14  1  0  0  0  0
 14 15  1  0  0  0  0
 14 16  1  0  0  0  0
 14 17  1  0  0  0  0
 17 18  2  0  0  0  0
 17 19  1  0  0  0  0
 19 20  1  0  0  0  0
 19 21  1  0  0  0  0
 22 23  2  0  0  0  0
 22 24  1  0  0  0  0
 24 25  1  0  0  0  0
 24 26  1  0  0  0  0
 26 27  1  0  0  0  0
 26 28  1  0  0  0  0
 26 29  1  0  0  0  0
M  END
$$$$

  -OEChem-02102214123D

 29 28  0     1  0  0  0  0  0999 V2000
   -2.7236   -4.3146    0.4365 H   0  0  0  0  0  0  0  0  0  0  0  0
   -2.7489   -3.3605   -0.0979 C   0  0  0  0  0  0  0  0  0  0  0  0
   -3.5540   -2.7482    0.3152 H   0  0  0  0  0  0  0  0  0  0  0  0
   -2.9521   -3.5551   -1.1537 H   0  0  0  0  0  0  0  0  0  0  0  0
   -1.4198   -2.6441    0.0508 C   0  0  0  0  0  0  0  0  0  0  0  0
   -0.5081   -3.1720    0.6616 O   0  0  0  0  0  0  0  0  0  0  0  0
   -1.2502   -1.3877   -0.4983 N   0  0  0  0  0  0  0  0  0  0  0  0
   -2.0094   -1.0463   -1.0810 H   0  0  0  0  0  0  0  0  0  0  0  0
    0.0512   -0.6984   -0.5771 C   0  0  1  0  0  0  0  0  0  0  0  0
    0.7310   -1.3684   -1.1154 H   0  0  0  0  0  0  0  0  0  0  0  0
   -0.0856    0.6301   -1.3534 C   0  0  0  0  0  0  0  0  0  0  0  0
   -1.1445    0.8966   -1.4311 H   0  0  0  0  0  0  0  0  0  0  0  0
    0.3938    1.4542   -0.8101 H   0  0  0  0  0  0  0  0  0  0  0  0
    0.5062    0.5219   -2.7723 C   0  0  0  0  0  0  0  0  0  0  0  0
    0.6206   -0.5167   -3.0936 H   0  0  0  0  0  0  0  0  0  0  0  0
   -0.1766    1.0048   -3.4781 H   0  0  0  0  0  0  0  0  0  0  0  0
    1.8515    1.2368   -2.8564 C   0  0  0  0  0  0  0  0  0  0  0  0
    2.0711    2.0753   -3.7092 O   0  0  0  0  0  0  0  0  0  0  0  0
    2.8753    0.9530   -1.9951 N   0  0  0  0  0  0  0  0  0  0  0  0
    3.6757    1.5764   -2.0302 H   0  0  0  0  0  0  0  0  0  0  0  0
    2.6799    0.4307   -1.1387 H   0  0  0  0  0  0  0  0  0  0  0  0
    0.7600   -0.4242    0.7649 C   0  0  0  0  0  0  0  0  0  0  0  0
    1.9793   -0.2965    0.7467 O   0  0  0  0  0  0  0  0  0  0  0  0
    0.0470    0.0750    1.8386 N   0  0  0  0  0  0  0  0  0  0  0  0
   -0.9510   -0.1113    1.8345 H   0  0  0  0  0  0  0  0  0  0  0  0
    0.6794    0.4594    3.0944 C   0  0  0  0  0  0  0  0  0  0  0  0
    1.4068    1.2611    2.9283 H   0  0  0  0  0  0  0  0  0  0  0  0
   -0.0734    0.8196    3.8021 H   0  0  0  0  0  0  0  0  0  0  0  0
    1.1949   -0.3973    3.5412 H   0  0  0  0  0  0  0  0  0  0  0  0
  1  2  1  0  0  0  0
  2  3  1  0  0  0  0
  2  4  1  0  0  0  0
  2  5  1  0  0  0  0
  5  6  2  0  0  0  0
  5  7  1  0  0  0  0
  7  8  1  0  0  0  0
  7  9  1  0  0  0  0
  9 10  1  0  0  0  0
  9 11  1  0  0  0  0
  9 22  1  0  0  0  0
 11 12  1  0  0  0  0
 11 13  1  0  0  0  0
 11 14  1  0  0  0  0
 14 15  1  0  0  0  0
 14 16  1  0  0  0  0
 14 17  1  0  0  0  0
 17 18  2  0  0  0  0
 17 19  1  0  0  0  0
 19 20  1  0  0  0  0
 19 21  1  0  0  0  0
 22 23  2  0  0  0  0
 22 24  1  0  0  0  0
 24 25  1  0  0  0  0
 24 26  1  0  0  0  0
 26 27  1  0  0  0  0
 26 28  1  0  0  0  0
 26 29  1  0  0  0  0
M  END
$$$$

  -OEChem-02102214123D

 29 28  0     1  0  0  0  0  0999 V2000
   -2.6906   -4.3191    0.3408 H   0  0  0  0  0  0  0  0  0  0  0  0
   -2.7152   -3.3524   -0.1706 C   0  0  0  0  0  0  0  0  0  0  0  0
   -3.5234   -2.7519    0.2538 H   0  0  0  0  0  0  0  0  0  0  0  0
   -2.9130   -3.5216   -1.2319 H   0  0  0  0  0  0  0  0  0  0  0  0
   -1.3884   -2.6376    0.0021 C   0  0  0  0  0  0  0  0  0  0  0  0
   -0.4813   -3.1777    0.6089 O   0  0  0  0  0  0  0  0  0  0  0  0
   -1.2159   -1.3710   -0.5229 N   0  0  0  0  0  0  0  0  0  0  0  0
   -1.9694   -1.0228   -1.1087 H   0  0  0  0  0  0  0  0  0  0  0  0
    0.0845   -0.6769   -0.5759 C   0  0  1  0  0  0  0  0  0  0  0  0
    0.7746   -1.3237   -1.1300 H   0  0  0  0  0  0  0  0  0  0  0  0
   -0.0667    0.6696   -1.3192 C   0  0  0  0  0  0  0  0  0  0  0  0
   -1.1276    0.9317   -1.3860 H   0  0  0  0  0  0  0  0  0  0  0  0
    0.4183    1.4824   -0.7646 H   0  0  0  0  0  0  0  0  0  0  0  0
    0.5247    0.6017   -2.7383 C   0  0  0  0  0  0  0  0  0  0  0  0
    0.3956   -0.3952   -3.1688 H   0  0  0  0  0  0  0  0  0  0  0  0
   -0.0199    1.3053   -3.3751 H   0  0  0  0  0  0  0  0  0  0  0  0
    2.0028    0.9899   -2.7830 C   0  0  0  0  0  0  0  0  0  0  0  0
    2.4330    1.6868   -3.6816 O   0  0  0  0  0  0  0  0  0  0  0  0
    2.9264    0.5491   -1.8764 N   0  0  0  0  0  0  0  0  0  0  0  0
    3.8454    0.9762   -1.9348 H   0  0  0  0  0  0  0  0  0  0  0  0
    2.6160    0.1503   -0.9877 H   0  0  0  0  0  0  0  0  0  0  0  0
    0.7596   -0.4355    0.7906 C   0  0  0  0  0  0  0  0  0  0  0  0
    1.9809   -0.3447    0.8193 O   0  0  0  0  0  0  0  0  0  0  0  0
    0.0222    0.0360    1.8603 N   0  0  0  0  0  0  0  0  0  0  0  0
   -0.9787   -0.1282    1.8187 H   0  0  0  0  0  0  0  0  0  0  0  0
    0.6236    0.3585    3.1484 C   0  0  0  0  0  0  0  0  0  0  0  0
    1.3698    1.1521    3.0357 H   0  0  0  0  0  0  0  0  0  0  0  0
   -0.1430    0.7044    3.8482 H   0  0  0  0  0  0  0  0  0  0  0  0
    1.1103   -0.5250    3.5749 H   0  0  0  0  0  0  0  0  0  0  0  0
  1  2  1  0  0  0  0
  2  3  1  0  0  0  0
  2  4  1  0  0  0  0
  2  5  1  0  0  0  0
  5  6  2  0  0  0  0
  5  7  1  0  0  0  0
  7  8  1  0  0  0  0
  7  9  1  0  0  0  0
  9 10  1  0  0  0  0
  9 11  1  0  0  0  0
  9 22  1  0  0  0  0
 11 12  1  0  0  0  0
 11 13  1  0  0  0  0
 11 14  1  0  0  0  0
 14 15  1  0  0  0  0
 14 16  1  0  0  0  0
 14 17  1  0  0  0  0
 17 18  2  0  0  0  0
 17 19  1  0  0  0  0
 19 20  1  0  0  0  0
 19 21  1  0  0  0  0
 22 23  2  0  0  0  0
 22 24  1  0  0  0  0
 24 25  1  0  0  0  0
 24 26  1  0  0  0  0
 26 27  1  0  0  0  0
 26 28  1  0  0  0  0
 26 29  1  0  0  0  0
M  END
$$$$

  -OEChem-02102214123D

 29 28  0     1  0  0  0  0  0999 V2000
   -2.7243   -4.3090    0.2421 H   0  0  0  0  0  0  0  0  0  0  0  0
   -2.7341   -3.3230   -0.2314 C   0  0  0  0  0  0  0  0  0  0  0  0
   -3.5351   -2.7276    0.2134 H   0  0  0  0  0  0  0  0  0  0  0  0
   -2.9309   -3.4492   -1.2988 H   0  0  0  0  0  0  0  0  0  0  0  0
   -1.3979   -2.6340   -0.0275 C   0  0  0  0  0  0  0  0  0  0  0  0
   -0.5143   -3.1941    0.5955 O   0  0  0  0  0  0  0  0  0  0  0  0
   -1.1928   -1.3669   -0.5402 N   0  0  0  0  0  0  0  0  0  0  0  0
   -1.9279   -1.0042   -1.1404 H   0  0  0  0  0  0  0  0  0  0  0  0
    0.1198   -0.6930   -0.5653 C   0  0  1  0  0  0  0  0  0  0  0  0
    0.8104   -1.3371   -1.1213 H   0  0  0  0  0  0  0  0  0  0  0  0
   -0.0139    0.6700   -1.2838 C   0  0  0  0  0  0  0  0  0  0  0  0
   -1.0692    0.9560   -1.3392 H   0  0  0  0  0  0  0  0  0  0  0  0
    0.4925    1.4564   -0.7111 H   0  0  0  0  0  0  0  0  0  0  0  0
    0.5784    0.6496   -2.7050 C   0  0  0  0  0  0  0  0  0  0  0  0
    0.2168   -0.2336   -3.2391 H   0  0  0  0  0  0  0  0  0  0  0  0
    0.2133    1.5309   -3.2405 H   0  0  0  0  0  0  0  0  0  0  0  0
    2.1074    0.6719   -2.7836 C   0  0  0  0  0  0  0  0  0  0  0  0
    2.6534    1.0479   -3.8027 O   0  0  0  0  0  0  0  0  0  0  0  0
    2.9514    0.2633   -1.7892 N   0  0  0  0  0  0  0  0  0  0  0  0
    3.9429    0.4247   -1.9352 H   0  0  0  0  0  0  0  0  0  0  0  0
    2.6007    0.0577   -0.8517 H   0  0  0  0  0  0  0  0  0  0  0  0
    0.7546   -0.4822    0.8274 C   0  0  0  0  0  0  0  0  0  0  0  0
    1.9746   -0.4106    0.9059 O   0  0  0  0  0  0  0  0  0  0  0  0
   -0.0137   -0.0127    1.8762 N   0  0  0  0  0  0  0  0  0  0  0  0
   -1.0143   -0.1635    1.7951 H   0  0  0  0  0  0  0  0  0  0  0  0
    0.5427    0.2713    3.1932 C   0  0  0  0  0  0  0  0  0  0  0  0
    1.2937    1.0656    3.1300 H   0  0  0  0  0  0  0  0  0  0  0  0
   -0.2480    0.5994    3.8746 H   0  0  0  0  0  0  0  0  0  0  0  0
    1.0121   -0.6253    3.6120 H   0  0  0  0  0  0  0  0  0  0  0  0
  1  2  1  0  0  0  0
  2  3  1  0  0  0  0
  2  4  1  0  0  0  0
  2  5  1  0  0  0  0
  5  6  2  0  0  0  0
  5  7  1  0  0  0  0
  7  8  1  0  0  0  0
  7  9  1  0  0  0  0
  9 10  1  0  0  0  0
  9 11  1  0  0  0  0
  9 22  1  0  0  0  0
 11 12  1  0  0  0  0
 11 13  1  0  0  0  0
 11 14  1  0  0  0  0
 14 15  1  0  0  0  0
 14 16  1  0  0  0  0
 14 17  1  0  0  0  0
 17 18  2  0  0  0  0
 17 19  1  0  0  0  0
 19 20  1  0  0  0  0
 19 21  1  0  0  0  0
 22 23  2  0  0  0  0
 22 24  1  0  0  0  0
 24 25  1  0  0  0  0
 24 26  1  0  0  0  0
 26 27  1  0  0  0  0
 26 28  1  0  0  0  0
 26 29  1  0  0  0  0
M  END
$$$$

  -OEChem-02102214123D

 29 28  0     1  0  0  0  0  0999 V2000
   -2.5931   -4.2935    0.3198 H   0  0  0  0  0  0  0  0  0  0  0  0
   -2.6075   -3.3256   -0.1897 C   0  0  0  0  0  0  0  0  0  0  0  0
   -3.3992   -2.7121    0.2470 H   0  0  0  0  0  0  0  0  0  0  0  0
   -2.8227   -3.4890   -1.2484 H   0  0  0  0  0  0  0  0  0  0  0  0
   -1.2661   -2.6342   -0.0341 C   0  0  0  0  0  0  0  0  0  0  0  0
   -0.3483   -3.2068    0.5241 O   0  0  0  0  0  0  0  0  0  0  0  0
   -1.0846   -1.3621   -0.5424 N   0  0  0  0  0  0  0  0  0  0  0  0
   -1.8614   -0.9593   -1.0581 H   0  0  0  0  0  0  0  0  0  0  0  0
    0.1874   -0.6168   -0.4786 C   0  0  1  0  0  0  0  0  0  0  0  0
    0.9491   -1.2355   -0.9577 H   0  0  0  0  0  0  0  0  0  0  0  0
    0.0150    0.7135   -1.2505 C   0  0  0  0  0  0  0  0  0  0  0  0
   -1.0470    0.9485   -1.3721 H   0  0  0  0  0  0  0  0  0  0  0  0
    0.4505    1.5289   -0.6597 H   0  0  0  0  0  0  0  0  0  0  0  0
    0.7029    0.7332   -2.6299 C   0  0  0  0  0  0  0  0  0  0  0  0
    0.2647   -0.0409   -3.2653 H   0  0  0  0  0  0  0  0  0  0  0  0
    0.5112    1.6978   -3.1095 H   0  0  0  0  0  0  0  0  0  0  0  0
    2.2151    0.5208   -2.5749 C   0  0  0  0  0  0  0  0  0  0  0  0
    2.9700    1.4710   -2.5149 O   0  0  0  0  0  0  0  0  0  0  0  0
    2.8058   -0.7078   -2.6657 N   0  0  0  0  0  0  0  0  0  0  0  0
    3.7935   -0.7212   -2.4253 H   0  0  0  0  0  0  0  0  0  0  0  0
    2.2411   -1.5294   -2.4810 H   0  0  0  0  0  0  0  0  0  0  0  0
    0.7041   -0.3590    0.9547 C   0  0  0  0  0  0  0  0  0  0  0  0
    1.9084   -0.3510    1.1650 O   0  0  0  0  0  0  0  0  0  0  0  0
   -0.1620    0.0782    1.9406 N   0  0  0  0  0  0  0  0  0  0  0  0
   -1.1535   -0.0212    1.7517 H   0  0  0  0  0  0  0  0  0  0  0  0
    0.2699    0.3509    3.3057 C   0  0  0  0  0  0  0  0  0  0  0  0
    1.0364    1.1331    3.3169 H   0  0  0  0  0  0  0  0  0  0  0  0
   -0.5766    0.6905    3.9101 H   0  0  0  0  0  0  0  0  0  0  0  0
    0.6838   -0.5538    3.7636 H   0  0  0  0  0  0  0  0  0  0  0  0
  1  2  1  0  0  0  0
  2  3  1  0  0  0  0
  2  4  1  0  0  0  0
  2  5  1  0  0  0  0
  5  6  2  0  0  0  0
  5  7  1  0  0  0  0
  7  8  1  0  0  0  0
  7  9  1  0  0  0  0
  9 10  1  0  0  0  0
  9 11  1  0  0  0  0
  9 22  1  0  0  0  0
 11 12  1  0  0  0  0
 11 13  1  0  0  0  0
 11 14  1  0  0  0  0
 14 15  1  0  0  0  0
 14 16  1  0  0  0  0
 14 17  1  0  0  0  0
 17 18  2  0  0  0  0
 17 19  1  0  0  0  0
 19 20  1  0  0  0  0
 19 21  1  0  0  0  0
 22 23  2  0  0  0  0
 22 24  1  0  0  0  0
 24 25  1  0  0  0  0
 24 26  1  0  0  0  0
 26 27  1  0  0  0  0
 26 28  1  0  0  0  0
 26 29  1  0  0  0  0
M  END
$$$$

  -OEChem-02102214123D

 29 28  0     1  0  0  0  0  0999 V2000
   -2.6392   -4.2538    0.3171 H   0  0  0  0  0  0  0  0  0  0  0  0
   -2.6130   -3.2981   -0.2146 C   0  0  0  0  0  0  0  0  0  0  0  0
   -3.4060   -2.6572    0.1781 H   0  0  0  0  0  0  0  0  0  0  0  0
   -2.7929   -3.4819   -1.2766 H   0  0  0  0  0  0  0  0  0  0  0  0
   -1.2624   -2.6337   -0.0244 C   0  0  0  0  0  0  0  0  0  0  0  0
   -0.3756   -3.2198    0.5682 O   0  0  0  0  0  0  0  0  0  0  0  0
   -1.0383   -1.3715   -0.5402 N   0  0  0  0  0  0  0  0  0  0  0  0
   -1.7941   -0.9541   -1.0750 H   0  0  0  0  0  0  0  0  0  0  0  0
    0.2406   -0.6427   -0.4311 C   0  0  1  0  0  0  0  0  0  0  0  0
    1.0205   -1.2717   -0.8636 H   0  0  0  0  0  0  0  0  0  0  0  0
    0.1020    0.6889   -1.2125 C   0  0  0  0  0  0  0  0  0  0  0  0
   -0.9528    0.9499   -1.3443 H   0  0  0  0  0  0  0  0  0  0  0  0
    0.5445    1.4862   -0.6029 H   0  0  0  0  0  0  0  0  0  0  0  0
    0.8188    0.7459   -2.5803 C   0  0  0  0  0  0  0  0  0  0  0  0
    0.2337    0.1733   -3.3047 H   0  0  0  0  0  0  0  0  0  0  0  0
    0.8380    1.7834   -2.9274 H   0  0  0  0  0  0  0  0  0  0  0  0
    2.2471    0.2048   -2.6085 C   0  0  0  0  0  0  0  0  0  0  0  0
    3.1963    0.9451   -2.4479 O   0  0  0  0  0  0  0  0  0  0  0  0
    2.5458   -1.0922   -2.9184 N   0  0  0  0  0  0  0  0  0  0  0  0
    3.5112   -1.3606   -2.7459 H   0  0  0  0  0  0  0  0  0  0  0  0
    1.8130   -1.7891   -2.8450 H   0  0  0  0  0  0  0  0  0  0  0  0
    0.6847   -0.3798    1.0269 C   0  0  0  0  0  0  0  0  0  0  0  0
    1.8746   -0.3831    1.3059 O   0  0  0  0  0  0  0  0  0  0  0  0
   -0.2276    0.0777    1.9611 N   0  0  0  0  0  0  0  0  0  0  0  0
   -1.2085   -0.0180    1.7226 H   0  0  0  0  0  0  0  0  0  0  0  0
    0.1353    0.3550    3.3454 C   0  0  0  0  0  0  0  0  0  0  0  0
    0.9111    1.1267    3.3912 H   0  0  0  0  0  0  0  0  0  0  0  0
   -0.7367    0.7111    3.9021 H   0  0  0  0  0  0  0  0  0  0  0  0
    0.5119   -0.5516    3.8310 H   0  0  0  0  0  0  0  0  0  0  0  0
  1  2  1  0  0  0  0
  2  3  1  0  0  0  0
  2  4  1  0  0  0  0
  2  5  1  0  0  0  0
  5  6  2  0  0  0  0
  5  7  1  0  0  0  0
  7  8  1  0  0  0  0
  7  9  1  0  0  0  0
  9 10  1  0  0  0  0
  9 11  1  0  0  0  0
  9 22  1  0  0  0  0
 11 12  1  0  0  0  0
 11 13  1  0  0  0  0
 11 14  1  0  0  0  0
 14 15  1  0  0  0  0
 14 16  1  0  0  0  0
 14 17  1  0  0  0  0
 17 18  2  0  0  0  0
 17 19  1  0  0  0  0
 19 20  1  0  0  0  0
 19 21  1  0  0  0  0
 22 23  2  0  0  0  0
 22 24  1  0  0  0  0
 24 25  1  0  0  0  0
 24 26  1  0  0  0  0
 26 27  1  0  0  0  0
 26 28  1  0  0  0  0
 26 29  1  0  0  0  0
M  END
$$$$

  -OEChem-02102214123D

 29 28  0     1  0  0  0  0  0999 V2000
   -2.6946   -4.2174    0.3095 H   0  0  0  0  0  0  0  0  0  0  0  0
   -2.6297   -3.2722   -0.2375 C   0  0  0  0  0  0  0  0  0  0  0  0
   -3.4183   -2.6062    0.1203 H   0  0  0  0  0  0  0  0  0  0  0  0
   -2.7827   -3.4710   -1.3011 H   0  0  0  0  0  0  0  0  0  0  0  0
   -1.2698   -2.6360   -0.0182 C   0  0  0  0  0  0  0  0  0  0  0  0
   -0.4133   -3.2343    0.6054 O   0  0  0  0  0  0  0  0  0  0  0  0
   -1.0029   -1.3860   -0.5433 N   0  0  0  0  0  0  0  0  0  0  0  0
   -1.7390   -0.9526   -1.0928 H   0  0  0  0  0  0  0  0  0  0  0  0
    0.2845   -0.6780   -0.3979 C   0  0  1  0  0  0  0  0  0  0  0  0
    1.0760   -1.3211   -0.7852 H   0  0  0  0  0  0  0  0  0  0  0  0
    0.1865    0.6539   -1.1888 C   0  0  0  0  0  0  0  0  0  0  0  0
   -0.8600    0.9403   -1.3325 H   0  0  0  0  0  0  0  0  0  0  0  0
    0.6337    1.4363   -0.5635 H   0  0  0  0  0  0  0  0  0  0  0  0
    0.9298    0.7336   -2.5453 C   0  0  0  0  0  0  0  0  0  0  0  0
    0.2405    0.4078   -3.3285 H   0  0  0  0  0  0  0  0  0  0  0  0
    1.1761    1.7799   -2.7512 H   0  0  0  0  0  0  0  0  0  0  0  0
    2.2002   -0.0992   -2.7023 C   0  0  0  0  0  0  0  0  0  0  0  0
    3.2990    0.4060   -2.5946 O   0  0  0  0  0  0  0  0  0  0  0  0
    2.1812   -1.4089   -3.0927 N   0  0  0  0  0  0  0  0  0  0  0  0
    3.0739   -1.8901   -3.0198 H   0  0  0  0  0  0  0  0  0  0  0  0
    1.3201   -1.9332   -2.9860 H   0  0  0  0  0  0  0  0  0  0  0  0
    0.6709   -0.4053    1.0756 C   0  0  0  0  0  0  0  0  0  0  0  0
    1.8480   -0.4079    1.4040 O   0  0  0  0  0  0  0  0  0  0  0  0
   -0.2735    0.0791    1.9635 N   0  0  0  0  0  0  0  0  0  0  0  0
   -1.2449   -0.0149    1.6883 H   0  0  0  0  0  0  0  0  0  0  0  0
    0.0362    0.3779    3.3565 C   0  0  0  0  0  0  0  0  0  0  0  0
    0.8193    1.1409    3.4204 H   0  0  0  0  0  0  0  0  0  0  0  0
   -0.8533    0.7545    3.8702 H   0  0  0  0  0  0  0  0  0  0  0  0
    0.3810   -0.5241    3.8730 H   0  0  0  0  0  0  0  0  0  0  0  0
  1  2  1  0  0  0  0
  2  3  1  0  0  0  0
  2  4  1  0  0  0  0
  2  5  1  0  0  0  0
  5  6  2  0  0  0  0
  5  7  1  0  0  0  0
  7  8  1  0  0  0  0
  7  9  1  0  0  0  0
  9 10  1  0  0  0  0
  9 11  1  0  0  0  0
  9 22  1  0  0  0  0
 11 12  1  0  0  0  0
 11 13  1  0  0  0  0
 11 14  1  0  0  0  0
 14 15  1  0  0  0  0
 14 16  1  0  0  0  0
 14 17  1  0  0  0  0
 17 18  2  0  0  0  0
 17 19  1  0  0  0  0
 19 20  1  0  0  0  0
 19 21  1  0  0  0  0
 22 23  2  0  0  0  0
 22 24  1  0  0  0  0
 24 25  1  0  0  0  0
 24 26  1  0  0  0  0
 26 27  1  0  0  0  0
 26 28  1  0  0  0  0
 26 29  1  0  0  0  0
M  END
$$$$

  -OEChem-02102214123D

 29 28  0     1  0  0  0  0  0999 V2000
   -2.7331   -4.1966    0.2674 H   0  0  0  0  0  0  0  0  0  0  0  0
   -2.6623   -3.2270   -0.2342 C   0  0  0  0  0  0  0  0  0  0  0  0
   -3.4227   -2.5617    0.1813 H   0  0  0  0  0  0  0  0  0  0  0  0
   -2.8536   -3.3691   -1.3005 H   0  0  0  0  0  0  0  0  0  0  0  0
   -1.2814   -2.6335   -0.0276 C   0  0  0  0  0  0  0  0  0  0  0  0
   -0.4419   -3.2527    0.5984 O   0  0  0  0  0  0  0  0  0  0  0  0
   -0.9769   -1.3962   -0.5626 N   0  0  0  0  0  0  0  0  0  0  0  0
   -1.7104   -0.9311   -1.0892 H   0  0  0  0  0  0  0  0  0  0  0  0
    0.3187   -0.7087   -0.3878 C   0  0  1  0  0  0  0  0  0  0  0  0
    1.1176   -1.3670   -0.7337 H   0  0  0  0  0  0  0  0  0  0  0  0
    0.2720    0.6201   -1.1905 C   0  0  0  0  0  0  0  0  0  0  0  0
   -0.7656    0.9240   -1.3618 H   0  0  0  0  0  0  0  0  0  0  0  0
    0.7126    1.3975   -0.5545 H   0  0  0  0  0  0  0  0  0  0  0  0
    1.0506    0.6945   -2.5311 C   0  0  0  0  0  0  0  0  0  0  0  0
    0.3233    0.6551   -3.3463 H   0  0  0  0  0  0  0  0  0  0  0  0
    1.5441    1.6696   -2.5935 H   0  0  0  0  0  0  0  0  0  0  0  0
    2.0919   -0.3829   -2.8258 C   0  0  0  0  0  0  0  0  0  0  0  0
    3.2780   -0.1250   -2.8595 O   0  0  0  0  0  0  0  0  0  0  0  0
    1.7482   -1.6491   -3.2087 N   0  0  0  0  0  0  0  0  0  0  0  0
    2.5216   -2.3079   -3.2458 H   0  0  0  0  0  0  0  0  0  0  0  0
    0.8189   -1.9831   -2.9805 H   0  0  0  0  0  0  0  0  0  0  0  0
    0.6555   -0.4253    1.0966 C   0  0  0  0  0  0  0  0  0  0  0  0
    1.8204   -0.4275    1.4657 O   0  0  0  0  0  0  0  0  0  0  0  0
   -0.3133    0.0856    1.9430 N   0  0  0  0  0  0  0  0  0  0  0  0
   -1.2755   -0.0022    1.6360 H   0  0  0  0  0  0  0  0  0  0  0  0
   -0.0508    0.3994    3.3425 C   0  0  0  0  0  0  0  0  0  0  0  0
    0.7349    1.1579    3.4251 H   0  0  0  0  0  0  0  0  0  0  0  0
   -0.9555    0.7878    3.8196 H   0  0  0  0  0  0  0  0  0  0  0  0
    0.2684   -0.4987    3.8818 H   0  0  0  0  0  0  0  0  0  0  0  0
  1  2  1  0  0  0  0
  2  3  1  0  0  0  0
  2  4  1  0  0  0  0
  2  5  1  0  0  0  0
  5  6  2  0  0  0  0
  5  7  1  0  0  0  0
  7  8  1  0  0  0  0
  7  9  1  0  0  0  0
  9 10  1  0  0  0  0
  9 11  1  0  0  0  0
  9 22  1  0  0  0  0
 11 12  1  0  0  0  0
 11 13  1  0  0  0  0
 11 14  1  0  0  0  0
 14 15  1  0  0  0  0
 14 16  1  0  0  0  0
 14 17  1  0  0  0  0
 17 18  2  0  0  0  0
 17 19  1  0  0  0  0
 19 20  1  0  0  0  0
 19 21  1  0  0  0  0
 22 23  2  0  0  0  0
 22 24  1  0  0  0  0
 24 25  1  0  0  0  0
 24 26  1  0  0  0  0
 26 27  1  0  0  0  0
 26 28  1  0  0  0  0
 26 29  1  0  0  0  0
M  END
$$$$

  -OEChem-02102214123D

 29 28  0     1  0  0  0  0  0999 V2000
   -2.6951   -4.3419    0.6755 H   0  0  0  0  0  0  0  0  0  0  0  0
   -2.6730   -3.4587    0.0308 C   0  0  0  0  0  0  0  0  0  0  0  0
   -3.5600   -2.8534    0.2321 H   0  0  0  0  0  0  0  0  0  0  0  0
   -2.6909   -3.7853   -1.0120 H   0  0  0  0  0  0  0  0  0  0  0  0
   -1.4182   -2.6488    0.2969 C   0  0  0  0  0  0  0  0  0  0  0  0
   -0.5977   -3.0503    1.1031 O   0  0  0  0  0  0  0  0  0  0  0  0
   -1.2244   -1.4537   -0.3696 N   0  0  0  0  0  0  0  0  0  0  0  0
   -1.8700   -1.2900   -1.1378 H   0  0  0  0  0  0  0  0  0  0  0  0
    0.0841   -0.7777   -0.4512 C   0  0  1  0  0  0  0  0  0  0  0  0
    0.7949   -1.4873   -0.8787 H   0  0  0  0  0  0  0  0  0  0  0  0
   -0.0692    0.5048   -1.3189 C   0  0  0  0  0  0  0  0  0  0  0  0
   -1.1271    0.7839   -1.3646 H   0  0  0  0  0  0  0  0  0  0  0  0
    0.4369    1.3334   -0.8097 H   0  0  0  0  0  0  0  0  0  0  0  0
    0.4946    0.4683   -2.7634 C   0  0  0  0  0  0  0  0  0  0  0  0
   -0.3204    0.6817   -3.4615 H   0  0  0  0  0  0  0  0  0  0  0  0
    1.2273    1.2726   -2.8762 H   0  0  0  0  0  0  0  0  0  0  0  0
    1.1531   -0.8312   -3.2106 C   0  0  0  0  0  0  0  0  0  0  0  0
    0.4962   -1.7262   -3.7078 O   0  0  0  0  0  0  0  0  0  0  0  0
    2.4750   -1.0893   -2.9851 N   0  0  0  0  0  0  0  0  0  0  0  0
    2.7562   -2.0582   -3.1060 H   0  0  0  0  0  0  0  0  0  0  0  0
    2.9677   -0.5079   -2.3131 H   0  0  0  0  0  0  0  0  0  0  0  0
    0.6981   -0.3847    0.9119 C   0  0  0  0  0  0  0  0  0  0  0  0
    1.9174   -0.3137    1.0077 O   0  0  0  0  0  0  0  0  0  0  0  0
   -0.0902    0.2096    1.8803 N   0  0  0  0  0  0  0  0  0  0  0  0
   -1.0859    0.0264    1.8037 H   0  0  0  0  0  0  0  0  0  0  0  0
    0.4401    0.6270    3.1724 C   0  0  0  0  0  0  0  0  0  0  0  0
    1.2409    1.3623    3.0409 H   0  0  0  0  0  0  0  0  0  0  0  0
   -0.3499    1.0847    3.7754 H   0  0  0  0  0  0  0  0  0  0  0  0
    0.8393   -0.2347    3.7176 H   0  0  0  0  0  0  0  0  0  0  0  0
  1  2  1  0  0  0  0
  2  3  1  0  0  0  0
  2  4  1  0  0  0  0
  2  5  1  0  0  0  0
  5  6  2  0  0  0  0
  5  7  1  0  0  0  0
  7  8  1  0  0  0  0
  7  9  1  0  0  0  0
  9 10  1  0  0  0  0
  9 11  1  0  0  0  0
  9 22  1  0  0  0  0
 11 12  1  0  0  0  0
 11 13  1  0  0  0  0
 11 14  1  0  0  0  0
 14 15  1  0  0  0  0
 14 16  1  0  0  0  0
 14 17  1  0  0  0  0
 17 18  2  0  0  0  0
 17 19  1  0  0  0  0
 19 20  1  0  0  0  0
 19 21  1  0  0  0  0
 22 23  2  0  0  0  0
 22 24  1  0  0  0  0
 24 25  1  0  0  0  0
 24 26  1  0  0  0  0
 26 27  1  0  0  0  0
 26 28  1  0  0  0  0
 26 29  1  0  0  0  0
M  END
$$$$

  -OEChem-02102214123D

 29 28  0     1  0  0  0  0  0999 V2000
   -2.6716   -4.3533    0.5645 H   0  0  0  0  0  0  0  0  0  0  0  0
   -2.6536   -3.4456   -0.0455 C   0  0  0  0  0  0  0  0  0  0  0  0
   -3.5558   -2.8651    0.1607 H   0  0  0  0  0  0  0  0  0  0  0  0
   -2.6449   -3.7316   -1.1002 H   0  0  0  0  0  0  0  0  0  0  0  0
   -1.4200   -2.6234    0.2760 C   0  0  0  0  0  0  0  0  0  0  0  0
   -0.6215   -3.0292    1.1022 O   0  0  0  0  0  0  0  0  0  0  0  0
   -1.2198   -1.4176   -0.3686 N   0  0  0  0  0  0  0  0  0  0  0  0
   -1.8327   -1.2711   -1.1675 H   0  0  0  0  0  0  0  0  0  0  0  0
    0.0917   -0.7457   -0.4319 C   0  0  1  0  0  0  0  0  0  0  0  0
    0.8132   -1.4362   -0.8753 H   0  0  0  0  0  0  0  0  0  0  0  0
   -0.0570    0.5600   -1.2637 C   0  0  0  0  0  0  0  0  0  0  0  0
   -1.1184    0.8246   -1.3162 H   0  0  0  0  0  0  0  0  0  0  0  0
    0.4345    1.3870   -0.7379 H   0  0  0  0  0  0  0  0  0  0  0  0
    0.5101    0.5361   -2.7055 C   0  0  0  0  0  0  0  0  0  0  0  0
   -0.1908    1.0388   -3.3779 H   0  0  0  0  0  0  0  0  0  0  0  0
    1.4384    1.1140   -2.7202 H   0  0  0  0  0  0  0  0  0  0  0  0
    0.8184   -0.8444   -3.2746 C   0  0  0  0  0  0  0  0  0  0  0  0
   -0.0816   -1.6168   -3.5501 O   0  0  0  0  0  0  0  0  0  0  0  0
    2.0928   -1.3217   -3.3861 N   0  0  0  0  0  0  0  0  0  0  0  0
    2.1754   -2.3223   -3.5427 H   0  0  0  0  0  0  0  0  0  0  0  0
    2.8382   -0.8247   -2.9082 H   0  0  0  0  0  0  0  0  0  0  0  0
    0.6909   -0.3842    0.9466 C   0  0  0  0  0  0  0  0  0  0  0  0
    1.9088   -0.3313    1.0670 O   0  0  0  0  0  0  0  0  0  0  0  0
   -0.1089    0.1924    1.9162 N   0  0  0  0  0  0  0  0  0  0  0  0
   -1.1037    0.0138    1.8186 H   0  0  0  0  0  0  0  0  0  0  0  0
    0.4014    0.5651    3.2293 C   0  0  0  0  0  0  0  0  0  0  0  0
    1.2115    1.2958    3.1345 H   0  0  0  0  0  0  0  0  0  0  0  0
   -0.3954    1.0122    3.8314 H   0  0  0  0  0  0  0  0  0  0  0  0
    0.7820   -0.3171    3.7548 H   0  0  0  0  0  0  0  0  0  0  0  0
  1  2  1  0  0  0  0
  2  3  1  0  0  0  0
  2  4  1  0  0  0  0
  2  5  1  0  0  0  0
  5  6  2  0  0  0  0
  5  7  1  0  0  0  0
  7  8  1  0  0  0  0
  7  9  1  0  0  0  0
  9 10  1  0  0  0  0
  9 11  1  0  0  0  0
  9 22  1  0  0  0  0
 11 12  1  0  0  0  0
 11 13  1  0  0  0  0
 11 14  1  0  0  0  0
 14 15  1  0  0  0  0
 14 16  1  0  0  0  0
 14 17  1  0  0  0  0
 17 18  2  0  0  0  0
 17 19  1  0  0  0  0
 19 20  1  0  0  0  0
 19 21  1  0  0  0  0
 22 23  2  0  0  0  0
 22 24  1  0  0  0  0
 24 25  1  0  0  0  0
 24 26  1  0  0  0  0
 26 27  1  0  0  0  0
 26 28  1  0  0  0  0
 26 29  1  0  0  0  0
M  END
$$$$

  -OEChem-02102214123D

 29 28  0     1  0  0  0  0  0999 V2000
   -2.6466   -4.3532    0.4555 H   0  0  0  0  0  0  0  0  0  0  0  0
   -2.6307   -3.4260   -0.1244 C   0  0  0  0  0  0  0  0  0  0  0  0
   -3.5357   -2.8556    0.0973 H   0  0  0  0  0  0  0  0  0  0  0  0
   -2.6177   -3.6761   -1.1882 H   0  0  0  0  0  0  0  0  0  0  0  0
   -1.4025   -2.6089    0.2282 C   0  0  0  0  0  0  0  0  0  0  0  0
   -0.6096   -3.0322    1.0514 O   0  0  0  0  0  0  0  0  0  0  0  0
   -1.2009   -1.3890   -0.3876 N   0  0  0  0  0  0  0  0  0  0  0  0
   -1.7914   -1.2418   -1.2049 H   0  0  0  0  0  0  0  0  0  0  0  0
    0.1069   -0.7085   -0.4208 C   0  0  1  0  0  0  0  0  0  0  0  0
    0.8407   -1.3749   -0.8838 H   0  0  0  0  0  0  0  0  0  0  0  0
   -0.0468    0.6122   -1.2230 C   0  0  0  0  0  0  0  0  0  0  0  0
   -1.1106    0.8645   -1.2920 H   0  0  0  0  0  0  0  0  0  0  0  0
    0.4317    1.4375   -0.6830 H   0  0  0  0  0  0  0  0  0  0  0  0
    0.5434    0.5853   -2.6511 C   0  0  0  0  0  0  0  0  0  0  0  0
    0.0126    1.3027   -3.2830 H   0  0  0  0  0  0  0  0  0  0  0  0
    1.5871    0.9079   -2.5974 H   0  0  0  0  0  0  0  0  0  0  0  0
    0.5134   -0.7863   -3.3209 C   0  0  0  0  0  0  0  0  0  0  0  0
   -0.5354   -1.3917   -3.4600 O   0  0  0  0  0  0  0  0  0  0  0  0
    1.6517   -1.4427   -3.6923 N   0  0  0  0  0  0  0  0  0  0  0  0
    1.5446   -2.4281   -3.9154 H   0  0  0  0  0  0  0  0  0  0  0  0
    2.5459   -1.0932   -3.3620 H   0  0  0  0  0  0  0  0  0  0  0  0
    0.6869   -0.3732    0.9723 C   0  0  0  0  0  0  0  0  0  0  0  0
    1.9024   -0.3258    1.1148 O   0  0  0  0  0  0  0  0  0  0  0  0
   -0.1293    0.1778    1.9430 N   0  0  0  0  0  0  0  0  0  0  0  0
   -1.1232    0.0084    1.8218 H   0  0  0  0  0  0  0  0  0  0  0  0
    0.3583    0.5248    3.2715 C   0  0  0  0  0  0  0  0  0  0  0  0
    1.1562    1.2717    3.2057 H   0  0  0  0  0  0  0  0  0  0  0  0
   -0.4534    0.9419    3.8747 H   0  0  0  0  0  0  0  0  0  0  0  0
    0.7480   -0.3640    3.7790 H   0  0  0  0  0  0  0  0  0  0  0  0
  1  2  1  0  0  0  0
  2  3  1  0  0  0  0
  2  4  1  0  0  0  0
  2  5  1  0  0  0  0
  5  6  2  0  0  0  0
  5  7  1  0  0  0  0
  7  8  1  0  0  0  0
  7  9  1  0  0  0  0
  9 10  1  0  0  0  0
  9 11  1  0  0  0  0
  9 22  1  0  0  0  0
 11 12  1  0  0  0  0
 11 13  1  0  0  0  0
 11 14  1  0  0  0  0
 14 15  1  0  0  0  0
 14 16  1  0  0  0  0
 14 17  1  0  0  0  0
 17 18  2  0  0  0  0
 17 19  1  0  0  0  0
 19 20  1  0  0  0  0
 19 21  1  0  0  0  0
 22 23  2  0  0  0  0
 22 24  1  0  0  0  0
 24 25  1  0  0  0  0
 24 26  1  0  0  0  0
 26 27  1  0  0  0  0
 26 28  1  0  0  0  0
 26 29  1  0  0  0  0
M  END
$$$$

  -OEChem-02102214123D

 29 28  0     1  0  0  0  0  0999 V2000
   -2.6284   -4.3486    0.3355 H   0  0  0  0  0  0  0  0  0  0  0  0
   -2.6162   -3.3981   -0.2054 C   0  0  0  0  0  0  0  0  0  0  0  0
   -3.5276   -2.8449    0.0331 H   0  0  0  0  0  0  0  0  0  0  0  0
   -2.5934   -3.6035   -1.2787 H   0  0  0  0  0  0  0  0  0  0  0  0
   -1.3974   -2.5862    0.1899 C   0  0  0  0  0  0  0  0  0  0  0  0
   -0.6187   -3.0257    1.0180 O   0  0  0  0  0  0  0  0  0  0  0  0
   -1.1846   -1.3559   -0.3998 N   0  0  0  0  0  0  0  0  0  0  0  0
   -1.7536   -1.1994   -1.2327 H   0  0  0  0  0  0  0  0  0  0  0  0
    0.1210   -0.6710   -0.3978 C   0  0  1  0  0  0  0  0  0  0  0  0
    0.8624   -1.3227   -0.8718 H   0  0  0  0  0  0  0  0  0  0  0  0
   -0.0293    0.6522   -1.1908 C   0  0  0  0  0  0  0  0  0  0  0  0
   -1.0905    0.9072   -1.2839 H   0  0  0  0  0  0  0  0  0  0  0  0
    0.4442    1.4755   -0.6439 H   0  0  0  0  0  0  0  0  0  0  0  0
    0.6012    0.5963   -2.5968 C   0  0  0  0  0  0  0  0  0  0  0  0
    0.2742    1.4590   -3.1837 H   0  0  0  0  0  0  0  0  0  0  0  0
    1.6883    0.6588   -2.4934 H   0  0  0  0  0  0  0  0  0  0  0  0
    0.2607   -0.6830   -3.3608 C   0  0  0  0  0  0  0  0  0  0  0  0
   -0.8711   -1.1388   -3.3707 O   0  0  0  0  0  0  0  0  0  0  0  0
    1.2143   -1.4169   -4.0061 N   0  0  0  0  0  0  0  0  0  0  0  0
    0.9370   -2.3459   -4.3101 H   0  0  0  0  0  0  0  0  0  0  0  0
    2.1932   -1.2066   -3.8391 H   0  0  0  0  0  0  0  0  0  0  0  0
    0.6782   -0.3559    1.0089 C   0  0  0  0  0  0  0  0  0  0  0  0
    1.8912   -0.3134    1.1731 O   0  0  0  0  0  0  0  0  0  0  0  0
   -0.1542    0.1772    1.9756 N   0  0  0  0  0  0  0  0  0  0  0  0
   -1.1462    0.0131    1.8333 H   0  0  0  0  0  0  0  0  0  0  0  0
    0.3118    0.4982    3.3184 C   0  0  0  0  0  0  0  0  0  0  0  0
    1.1081    1.2490    3.2797 H   0  0  0  0  0  0  0  0  0  0  0  0
   -0.5107    0.9002    3.9175 H   0  0  0  0  0  0  0  0  0  0  0  0
    0.6974   -0.3994    3.8137 H   0  0  0  0  0  0  0  0  0  0  0  0
  1  2  1  0  0  0  0
  2  3  1  0  0  0  0
  2  4  1  0  0  0  0
  2  5  1  0  0  0  0
  5  6  2  0  0  0  0
  5  7  1  0  0  0  0
  7  8  1  0  0  0  0
  7  9  1  0  0  0  0
  9 10  1  0  0  0  0
  9 11  1  0  0  0  0
  9 22  1  0  0  0  0
 11 12  1  0  0  0  0
 11 13  1  0  0  0  0
 11 14  1  0  0  0  0
 14 15  1  0  0  0  0
 14 16  1  0  0  0  0
 14 17  1  0  0  0  0
 17 18  2  0  0  0  0
 17 19  1  0  0  0  0
 19 20  1  0  0  0  0
 19 21  1  0  0  0  0
 22 23  2  0  0  0  0
 22 24  1  0  0  0  0
 24 25  1  0  0  0  0
 24 26  1  0  0  0  0
 26 27  1  0  0  0  0
 26 28  1  0  0  0  0
 26 29  1  0  0  0  0
M  END
$$$$

  -OEChem-02102214123D

 29 28  0     1  0  0  0  0  0999 V2000
   -2.6511   -4.3363    0.3055 H   0  0  0  0  0  0  0  0  0  0  0  0
   -2.6249   -3.3795   -0.2235 C   0  0  0  0  0  0  0  0  0  0  0  0
   -3.5391   -2.8256    0.0023 H   0  0  0  0  0  0  0  0  0  0  0  0
   -2.5807   -3.5729   -1.2982 H   0  0  0  0  0  0  0  0  0  0  0  0
   -1.4121   -2.5763    0.2065 C   0  0  0  0  0  0  0  0  0  0  0  0
   -0.6660   -3.0169    1.0636 O   0  0  0  0  0  0  0  0  0  0  0  0
   -1.1679   -1.3522   -0.3832 N   0  0  0  0  0  0  0  0  0  0  0  0
   -1.7131   -1.1884   -1.2319 H   0  0  0  0  0  0  0  0  0  0  0  0
    0.1425   -0.6788   -0.3449 C   0  0  1  0  0  0  0  0  0  0  0  0
    0.8884   -1.3397   -0.7997 H   0  0  0  0  0  0  0  0  0  0  0  0
    0.0228    0.6332   -1.1571 C   0  0  0  0  0  0  0  0  0  0  0  0
   -1.0286    0.9158   -1.2818 H   0  0  0  0  0  0  0  0  0  0  0  0
    0.5059    1.4516   -0.6108 H   0  0  0  0  0  0  0  0  0  0  0  0
    0.7061    0.5216   -2.5323 C   0  0  0  0  0  0  0  0  0  0  0  0
    0.6152    1.4732   -3.0626 H   0  0  0  0  0  0  0  0  0  0  0  0
    1.7715    0.3205   -2.3868 H   0  0  0  0  0  0  0  0  0  0  0  0
    0.1041   -0.5821   -3.4036 C   0  0  0  0  0  0  0  0  0  0  0  0
   -1.0586   -0.9389   -3.2990 O   0  0  0  0  0  0  0  0  0  0  0  0
    0.8479   -1.2369   -4.3427 N   0  0  0  0  0  0  0  0  0  0  0  0
    0.3539   -1.8685   -4.9665 H   0  0  0  0  0  0  0  0  0  0  0  0
    1.7800   -0.9058   -4.5697 H   0  0  0  0  0  0  0  0  0  0  0  0
    0.6623   -0.3573    1.0746 C   0  0  0  0  0  0  0  0  0  0  0  0
    1.8701   -0.3219    1.2741 O   0  0  0  0  0  0  0  0  0  0  0  0
   -0.1931    0.1908    2.0127 N   0  0  0  0  0  0  0  0  0  0  0  0
   -1.1817    0.0284    1.8461 H   0  0  0  0  0  0  0  0  0  0  0  0
    0.2380    0.5281    3.3634 C   0  0  0  0  0  0  0  0  0  0  0  0
    1.0431    1.2698    3.3360 H   0  0  0  0  0  0  0  0  0  0  0  0
   -0.5963    0.9480    3.9333 H   0  0  0  0  0  0  0  0  0  0  0  0
    0.5998   -0.3654    3.8830 H   0  0  0  0  0  0  0  0  0  0  0  0
  1  2  1  0  0  0  0
  2  3  1  0  0  0  0
  2  4  1  0  0  0  0
  2  5  1  0  0  0  0
  5  6  2  0  0  0  0
  5  7  1  0  0  0  0
  7  8  1  0  0  0  0
  7  9  1  0  0  0  0
  9 10  1  0  0  0  0
  9 11  1  0  0  0  0
  9 22  1  0  0  0  0
 11 12  1  0  0  0  0
 11 13  1  0  0  0  0
 11 14  1  0  0  0  0
 14 15  1  0  0  0  0
 14 16  1  0  0  0  0
 14 17  1  0  0  0  0
 17 18  2  0  0  0  0
 17 19  1  0  0  0  0
 19 20  1  0  0  0  0
 19 21  1  0  0  0  0
 22 23  2  0  0  0  0
 22 24  1  0  0  0  0
 24 25  1  0  0  0  0
 24 26  1  0  0  0  0
 26 27  1  0  0  0  0
 26 28  1  0  0  0  0
 26 29  1  0  0  0  0
M  END
$$$$

  -OEChem-02102214123D

 29 28  0     1  0  0  0  0  0999 V2000
   -2.6922   -4.3152    0.3027 H   0  0  0  0  0  0  0  0  0  0  0  0
   -2.6557   -3.3510   -0.2123 C   0  0  0  0  0  0  0  0  0  0  0  0
   -3.5542   -2.7823    0.0386 H   0  0  0  0  0  0  0  0  0  0  0  0
   -2.6346   -3.5288   -1.2904 H   0  0  0  0  0  0  0  0  0  0  0  0
   -1.4198   -2.5784    0.2081 C   0  0  0  0  0  0  0  0  0  0  0  0
   -0.6806   -3.0347    1.0630 O   0  0  0  0  0  0  0  0  0  0  0  0
   -1.1488   -1.3611   -0.3833 N   0  0  0  0  0  0  0  0  0  0  0  0
   -1.6893   -1.1795   -1.2321 H   0  0  0  0  0  0  0  0  0  0  0  0
    0.1655   -0.6979   -0.3238 C   0  0  1  0  0  0  0  0  0  0  0  0
    0.9131   -1.3676   -0.7621 H   0  0  0  0  0  0  0  0  0  0  0  0
    0.0588    0.6055   -1.1486 C   0  0  0  0  0  0  0  0  0  0  0  0
   -0.9851    0.9116   -1.2795 H   0  0  0  0  0  0  0  0  0  0  0  0
    0.5546    1.4166   -0.6028 H   0  0  0  0  0  0  0  0  0  0  0  0
    0.7657    0.4706   -2.5096 C   0  0  0  0  0  0  0  0  0  0  0  0
    0.8924    1.4675   -2.9412 H   0  0  0  0  0  0  0  0  0  0  0  0
    1.7624    0.0400   -2.3748 H   0  0  0  0  0  0  0  0  0  0  0  0
   -0.0296   -0.3747   -3.5069 C   0  0  0  0  0  0  0  0  0  0  0  0
   -1.1459   -0.8116   -3.2741 O   0  0  0  0  0  0  0  0  0  0  0  0
    0.4896   -0.6983   -4.7270 N   0  0  0  0  0  0  0  0  0  0  0  0
   -0.0193   -1.3937   -5.2654 H   0  0  0  0  0  0  0  0  0  0  0  0
    1.4746   -0.5313   -4.9058 H   0  0  0  0  0  0  0  0  0  0  0  0
    0.6597   -0.3701    1.1031 C   0  0  0  0  0  0  0  0  0  0  0  0
    1.8634   -0.3405    1.3266 O   0  0  0  0  0  0  0  0  0  0  0  0
   -0.2107    0.1917    2.0189 N   0  0  0  0  0  0  0  0  0  0  0  0
   -1.1974    0.0423    1.8306 H   0  0  0  0  0  0  0  0  0  0  0  0
    0.1944    0.5454    3.3733 C   0  0  0  0  0  0  0  0  0  0  0  0
    1.0110    1.2748    3.3526 H   0  0  0  0  0  0  0  0  0  0  0  0
   -0.6468    0.9873    3.9157 H   0  0  0  0  0  0  0  0  0  0  0  0
    0.5302   -0.3445    3.9161 H   0  0  0  0  0  0  0  0  0  0  0  0
  1  2  1  0  0  0  0
  2  3  1  0  0  0  0
  2  4  1  0  0  0  0
  2  5  1  0  0  0  0
  5  6  2  0  0  0  0
  5  7  1  0  0  0  0
  7  8  1  0  0  0  0
  7  9  1  0  0  0  0
  9 10  1  0  0  0  0
  9 11  1  0  0  0  0
  9 22  1  0  0  0  0
 11 12  1  0  0  0  0
 11 13  1  0  0  0  0
 11 14  1  0  0  0  0
 14 15  1  0  0  0  0
 14 16  1  0  0  0  0
 14 17  1  0  0  0  0
 17 18  2  0  0  0  0
 17 19  1  0  0  0  0
 19 20  1  0  0  0  0
 19 21  1  0  0  0  0
 22 23  2  0  0  0  0
 22 24  1  0  0  0  0
 24 25  1  0  0  0  0
 24 26  1  0  0  0  0
 26 27  1  0  0  0  0
 26 28  1  0  0  0  0
 26 29  1  0  0  0  0
M  END
$$$$

  -OEChem-02102214123D

 29 28  0     1  0  0  0  0  0999 V2000
   -2.7118   -4.3041    0.3064 H   0  0  0  0  0  0  0  0  0  0  0  0
   -2.6792   -3.3273   -0.1843 C   0  0  0  0  0  0  0  0  0  0  0  0
   -3.5707   -2.7609    0.0951 H   0  0  0  0  0  0  0  0  0  0  0  0
   -2.6760   -3.4777   -1.2669 H   0  0  0  0  0  0  0  0  0  0  0  0
   -1.4331   -2.5721    0.2370 C   0  0  0  0  0  0  0  0  0  0  0  0
   -0.7169   -3.0245    1.1133 O   0  0  0  0  0  0  0  0  0  0  0  0
   -1.1276   -1.3737   -0.3760 N   0  0  0  0  0  0  0  0  0  0  0  0
   -1.6610   -1.1864   -1.2278 H   0  0  0  0  0  0  0  0  0  0  0  0
    0.1951   -0.7287   -0.3019 C   0  0  1  0  0  0  0  0  0  0  0  0
    0.9433   -1.4190   -0.7054 H   0  0  0  0  0  0  0  0  0  0  0  0
    0.1076    0.5519   -1.1617 C   0  0  0  0  0  0  0  0  0  0  0  0
   -0.9283    0.8816   -1.3001 H   0  0  0  0  0  0  0  0  0  0  0  0
    0.6166    1.3628   -0.6280 H   0  0  0  0  0  0  0  0  0  0  0  0
    0.8353    0.3769   -2.5092 C   0  0  0  0  0  0  0  0  0  0  0  0
    1.1879    1.3572   -2.8417 H   0  0  0  0  0  0  0  0  0  0  0  0
    1.7132   -0.2673   -2.4093 H   0  0  0  0  0  0  0  0  0  0  0  0
   -0.0975   -0.1698   -3.5908 C   0  0  0  0  0  0  0  0  0  0  0  0
   -1.1742   -0.6871   -3.3364 O   0  0  0  0  0  0  0  0  0  0  0  0
    0.2503   -0.1396   -4.9105 N   0  0  0  0  0  0  0  0  0  0  0  0
   -0.3323   -0.6818   -5.5422 H   0  0  0  0  0  0  0  0  0  0  0  0
    1.2065    0.0869   -5.1641 H   0  0  0  0  0  0  0  0  0  0  0  0
    0.6586   -0.3746    1.1294 C   0  0  0  0  0  0  0  0  0  0  0  0
    1.8558   -0.3641    1.3864 O   0  0  0  0  0  0  0  0  0  0  0  0
   -0.2259    0.2211    2.0099 N   0  0  0  0  0  0  0  0  0  0  0  0
   -1.2091    0.0846    1.7962 H   0  0  0  0  0  0  0  0  0  0  0  0
    0.1461    0.5728    3.3742 C   0  0  0  0  0  0  0  0  0  0  0  0
    0.9730    1.2907    3.3744 H   0  0  0  0  0  0  0  0  0  0  0  0
   -0.7034    1.0273    3.8930 H   0  0  0  0  0  0  0  0  0  0  0  0
    0.4549   -0.3204    3.9275 H   0  0  0  0  0  0  0  0  0  0  0  0
  1  2  1  0  0  0  0
  2  3  1  0  0  0  0
  2  4  1  0  0  0  0
  2  5  1  0  0  0  0
  5  6  2  0  0  0  0
  5  7  1  0  0  0  0
  7  8  1  0  0  0  0
  7  9  1  0  0  0  0
  9 10  1  0  0  0  0
  9 11  1  0  0  0  0
  9 22  1  0  0  0  0
 11 12  1  0  0  0  0
 11 13  1  0  0  0  0
 11 14  1  0  0  0  0
 14 15  1  0  0  0  0
 14 16  1  0  0  0  0
 14 17  1  0  0  0  0
 17 18  2  0  0  0  0
 17 19  1  0  0  0  0
 19 20  1  0  0  0  0
 19 21  1  0  0  0  0
 22 23  2  0  0  0  0
 22 24  1  0  0  0  0
 24 25  1  0  0  0  0
 24 26  1  0  0  0  0
 26 27  1  0  0  0  0
 26 28  1  0  0  0  0
 26 29  1  0  0  0  0
M  END
$$$$

  -OEChem-02102214123D

 29 28  0     1  0  0  0  0  0999 V2000
   -2.8064   -4.2636    0.4208 H   0  0  0  0  0  0  0  0  0  0  0  0
   -2.7224   -3.3239   -0.1323 C   0  0  0  0  0  0  0  0  0  0  0  0
   -3.5923   -2.7024    0.0929 H   0  0  0  0  0  0  0  0  0  0  0  0
   -2.7091   -3.5459   -1.2023 H   0  0  0  0  0  0  0  0  0  0  0  0
   -1.4506   -2.5970    0.2618 C   0  0  0  0  0  0  0  0  0  0  0  0
   -0.7345   -3.0563    1.1342 O   0  0  0  0  0  0  0  0  0  0  0  0
   -1.1188   -1.4166   -0.3724 N   0  0  0  0  0  0  0  0  0  0  0  0
   -1.6674   -1.2067   -1.2074 H   0  0  0  0  0  0  0  0  0  0  0  0
    0.2109   -0.7858   -0.2946 C   0  0  1  0  0  0  0  0  0  0  0  0
    0.9571   -1.4933   -0.6697 H   0  0  0  0  0  0  0  0  0  0  0  0
    0.1429    0.4770   -1.1811 C   0  0  0  0  0  0  0  0  0  0  0  0
   -0.8891    0.8168   -1.3240 H   0  0  0  0  0  0  0  0  0  0  0  0
    0.6545    1.2924   -0.6567 H   0  0  0  0  0  0  0  0  0  0  0  0
    0.8798    0.2817   -2.5237 C   0  0  0  0  0  0  0  0  0  0  0  0
    1.4637    1.1827   -2.7322 H   0  0  0  0  0  0  0  0  0  0  0  0
    1.5810   -0.5564   -2.4929 H   0  0  0  0  0  0  0  0  0  0  0  0
   -0.1086    0.0855   -3.6711 C   0  0  0  0  0  0  0  0  0  0  0  0
   -1.1816   -0.4734   -3.5104 O   0  0  0  0  0  0  0  0  0  0  0  0
    0.1674    0.5036   -4.9412 N   0  0  0  0  0  0  0  0  0  0  0  0
   -0.4617    0.1764   -5.6689 H   0  0  0  0  0  0  0  0  0  0  0  0
    1.1131    0.7891   -5.1730 H   0  0  0  0  0  0  0  0  0  0  0  0
    0.6586   -0.4052    1.1351 C   0  0  0  0  0  0  0  0  0  0  0  0
    1.8525   -0.3968    1.4069 O   0  0  0  0  0  0  0  0  0  0  0  0
   -0.2308    0.2209    1.9893 N   0  0  0  0  0  0  0  0  0  0  0  0
   -1.2134    0.0927    1.7678 H   0  0  0  0  0  0  0  0  0  0  0  0
    0.1324    0.6314    3.3395 C   0  0  0  0  0  0  0  0  0  0  0  0
    0.9573    1.3512    3.3131 H   0  0  0  0  0  0  0  0  0  0  0  0
   -0.7216    1.1052    3.8329 H   0  0  0  0  0  0  0  0  0  0  0  0
    0.4404   -0.2361    3.9330 H   0  0  0  0  0  0  0  0  0  0  0  0
  1  2  1  0  0  0  0
  2  3  1  0  0  0  0
  2  4  1  0  0  0  0
  2  5  1  0  0  0  0
  5  6  2  0  0  0  0
  5  7  1  0  0  0  0
  7  8  1  0  0  0  0
  7  9  1  0  0  0  0
  9 10  1  0  0  0  0
  9 11  1  0  0  0  0
  9 22  1  0  0  0  0
 11 12  1  0  0  0  0
 11 13  1  0  0  0  0
 11 14  1  0  0  0  0
 14 15  1  0  0  0  0
 14 16  1  0  0  0  0
 14 17  1  0  0  0  0
 17 18  2  0  0  0  0
 17 19  1  0  0  0  0
 19 20  1  0  0  0  0
 19 21  1  0  0  0  0
 22 23  2  0  0  0  0
 22 24  1  0  0  0  0
 24 25  1  0  0  0  0
 24 26  1  0  0  0  0
 26 27  1  0  0  0  0
 26 28  1  0  0  0  0
 26 29  1  0  0  0  0
M  END
$$$$

  -OEChem-02102214123D

 29 28  0     1  0  0  0  0  0999 V2000
   -2.8565   -4.2494    0.5231 H   0  0  0  0  0  0  0  0  0  0  0  0
   -2.7665   -3.3226   -0.0507 C   0  0  0  0  0  0  0  0  0  0  0  0
   -3.6131   -2.6750    0.1896 H   0  0  0  0  0  0  0  0  0  0  0  0
   -2.7930   -3.5655   -1.1158 H   0  0  0  0  0  0  0  0  0  0  0  0
   -1.4646   -2.6220    0.2895 C   0  0  0  0  0  0  0  0  0  0  0  0
   -0.7296   -3.0875    1.1423 O   0  0  0  0  0  0  0  0  0  0  0  0
   -1.1280   -1.4549   -0.3672 N   0  0  0  0  0  0  0  0  0  0  0  0
   -1.7126   -1.2182   -1.1678 H   0  0  0  0  0  0  0  0  0  0  0  0
    0.2056   -0.8279   -0.3100 C   0  0  1  0  0  0  0  0  0  0  0  0
    0.9488   -1.5455   -0.6725 H   0  0  0  0  0  0  0  0  0  0  0  0
    0.1509    0.4233   -1.2142 C   0  0  0  0  0  0  0  0  0  0  0  0
   -0.8850    0.7492   -1.3611 H   0  0  0  0  0  0  0  0  0  0  0  0
    0.6534    1.2532   -0.7034 H   0  0  0  0  0  0  0  0  0  0  0  0
    0.8818    0.2109   -2.5596 C   0  0  0  0  0  0  0  0  0  0  0  0
    1.6908    0.9422   -2.6429 H   0  0  0  0  0  0  0  0  0  0  0  0
    1.3347   -0.7815   -2.6266 H   0  0  0  0  0  0  0  0  0  0  0  0
   -0.0677    0.3844   -3.7410 C   0  0  0  0  0  0  0  0  0  0  0  0
   -1.1829   -0.1078   -3.7414 O   0  0  0  0  0  0  0  0  0  0  0  0
    0.2761    1.1024   -4.8502 N   0  0  0  0  0  0  0  0  0  0  0  0
   -0.3505    1.0261   -5.6465 H   0  0  0  0  0  0  0  0  0  0  0  0
    1.2456    1.3697   -4.9852 H   0  0  0  0  0  0  0  0  0  0  0  0
    0.6593   -0.4248    1.1112 C   0  0  0  0  0  0  0  0  0  0  0  0
    1.8536   -0.4150    1.3803 O   0  0  0  0  0  0  0  0  0  0  0  0
   -0.2266    0.2189    1.9558 N   0  0  0  0  0  0  0  0  0  0  0  0
   -1.2103    0.0969    1.7366 H   0  0  0  0  0  0  0  0  0  0  0  0
    0.1420    0.6659    3.2925 C   0  0  0  0  0  0  0  0  0  0  0  0
    0.9551    1.3976    3.2413 H   0  0  0  0  0  0  0  0  0  0  0  0
   -0.7150    1.1377    3.7823 H   0  0  0  0  0  0  0  0  0  0  0  0
    0.4688   -0.1824    3.9031 H   0  0  0  0  0  0  0  0  0  0  0  0
  1  2  1  0  0  0  0
  2  3  1  0  0  0  0
  2  4  1  0  0  0  0
  2  5  1  0  0  0  0
  5  6  2  0  0  0  0
  5  7  1  0  0  0  0
  7  8  1  0  0  0  0
  7  9  1  0  0  0  0
  9 10  1  0  0  0  0
  9 11  1  0  0  0  0
  9 22  1  0  0  0  0
 11 12  1  0  0  0  0
 11 13  1  0  0  0  0
 11 14  1  0  0  0  0
 14 15  1  0  0  0  0
 14 16  1  0  0  0  0
 14 17  1  0  0  0  0
 17 18  2  0  0  0  0
 17 19  1  0  0  0  0
 19 20  1  0  0  0  0
 19 21  1  0  0  0  0
 22 23  2  0  0  0  0
 22 24  1  0  0  0  0
 24 25  1  0  0  0  0
 24 26  1  0  0  0  0
 26 27  1  0  0  0  0
 26 28  1  0  0  0  0
 26 29  1  0  0  0  0
M  END
$$$$

  -OEChem-02102214123D

 29 28  0     1  0  0  0  0  0999 V2000
   -2.8866   -4.2351    0.6305 H   0  0  0  0  0  0  0  0  0  0  0  0
   -2.8004   -3.3271    0.0266 C   0  0  0  0  0  0  0  0  0  0  0  0
   -3.6298   -2.6598    0.2731 H   0  0  0  0  0  0  0  0  0  0  0  0
   -2.8629   -3.6009   -1.0294 H   0  0  0  0  0  0  0  0  0  0  0  0
   -1.4779   -2.6381    0.3056 C   0  0  0  0  0  0  0  0  0  0  0  0
   -0.7081   -3.1110    1.1225 O   0  0  0  0  0  0  0  0  0  0  0  0
   -1.1590   -1.4750   -0.3675 N   0  0  0  0  0  0  0  0  0  0  0  0
   -1.7844   -1.2172   -1.1283 H   0  0  0  0  0  0  0  0  0  0  0  0
    0.1736   -0.8425   -0.3426 C   0  0  1  0  0  0  0  0  0  0  0  0
    0.9111   -1.5649   -0.7086 H   0  0  0  0  0  0  0  0  0  0  0  0
    0.1288    0.3990   -1.2604 C   0  0  0  0  0  0  0  0  0  0  0  0
   -0.9125    0.6992   -1.4229 H   0  0  0  0  0  0  0  0  0  0  0  0
    0.6168    1.2483   -0.7681 H   0  0  0  0  0  0  0  0  0  0  0  0
    0.8523    0.1556   -2.6028 C   0  0  0  0  0  0  0  0  0  0  0  0
    1.8337    0.6374   -2.5825 H   0  0  0  0  0  0  0  0  0  0  0  0
    1.0147   -0.9123   -2.7731 H   0  0  0  0  0  0  0  0  0  0  0  0
    0.0348    0.6746   -3.7795 C   0  0  0  0  0  0  0  0  0  0  0  0
   -1.1078    0.3008   -3.9731 O   0  0  0  0  0  0  0  0  0  0  0  0
    0.5206    1.6164   -4.6406 N   0  0  0  0  0  0  0  0  0  0  0  0
   -0.0353    1.7975   -5.4716 H   0  0  0  0  0  0  0  0  0  0  0  0
    1.5112    1.8357   -4.6274 H   0  0  0  0  0  0  0  0  0  0  0  0
    0.6544   -0.4258    1.0659 C   0  0  0  0  0  0  0  0  0  0  0  0
    1.8542   -0.4069    1.3084 O   0  0  0  0  0  0  0  0  0  0  0  0
   -0.2143    0.2220    1.9252 N   0  0  0  0  0  0  0  0  0  0  0  0
   -1.2029    0.1019    1.7279 H   0  0  0  0  0  0  0  0  0  0  0  0
    0.1846    0.6804    3.2497 C   0  0  0  0  0  0  0  0  0  0  0  0
    0.9805    1.4286    3.1731 H   0  0  0  0  0  0  0  0  0  0  0  0
   -0.6670    1.1351    3.7644 H   0  0  0  0  0  0  0  0  0  0  0  0
    0.5469   -0.1593    3.8521 H   0  0  0  0  0  0  0  0  0  0  0  0
  1  2  1  0  0  0  0
  2  3  1  0  0  0  0
  2  4  1  0  0  0  0
  2  5  1  0  0  0  0
  5  6  2  0  0  0  0
  5  7  1  0  0  0  0
  7  8  1  0  0  0  0
  7  9  1  0  0  0  0
  9 10  1  0  0  0  0
  9 11  1  0  0  0  0
  9 22  1  0  0  0  0
 11 12  1  0  0  0  0
 11 13  1  0  0  0  0
 11 14  1  0  0  0  0
 14 15  1  0  0  0  0
 14 16  1  0  0  0  0
 14 17  1  0  0  0  0
 17 18  2  0  0  0  0
 17 19  1  0  0  0  0
 19 20  1  0  0  0  0
 19 21  1  0  0  0  0
 22 23  2  0  0  0  0
 22 24  1  0  0  0  0
 24 25  1  0  0  0  0
 24 26  1  0  0  0  0
 26 27  1  0  0  0  0
 26 28  1  0  0  0  0
 26 29  1  0  0  0  0
M  END
$$$$

  -OEChem-02102214123D

 29 28  0     1  0  0  0  0  0999 V2000
   -2.8886   -4.2152    0.7220 H   0  0  0  0  0  0  0  0  0  0  0  0
   -2.8100   -3.3282    0.0867 C   0  0  0  0  0  0  0  0  0  0  0  0
   -3.6240   -2.6437    0.3371 H   0  0  0  0  0  0  0  0  0  0  0  0
   -2.9077   -3.6343   -0.9577 H   0  0  0  0  0  0  0  0  0  0  0  0
   -1.4719   -2.6473    0.3041 C   0  0  0  0  0  0  0  0  0  0  0  0
   -0.6659   -3.1278    1.0806 O   0  0  0  0  0  0  0  0  0  0  0  0
   -1.1797   -1.4805   -0.3754 N   0  0  0  0  0  0  0  0  0  0  0  0
   -1.8432   -1.2037   -1.0952 H   0  0  0  0  0  0  0  0  0  0  0  0
    0.1473   -0.8351   -0.3817 C   0  0  1  0  0  0  0  0  0  0  0  0
    0.8808   -1.5534   -0.7647 H   0  0  0  0  0  0  0  0  0  0  0  0
    0.0881    0.4018   -1.3035 C   0  0  0  0  0  0  0  0  0  0  0  0
   -0.9581    0.6833   -1.4667 H   0  0  0  0  0  0  0  0  0  0  0  0
    0.5707    1.2621   -0.8254 H   0  0  0  0  0  0  0  0  0  0  0  0
    0.7967    0.1377   -2.6466 C   0  0  0  0  0  0  0  0  0  0  0  0
    1.8629    0.3630   -2.5532 H   0  0  0  0  0  0  0  0  0  0  0  0
    0.7037   -0.9168   -2.9227 H   0  0  0  0  0  0  0  0  0  0  0  0
    0.1787    0.9466   -3.7806 C   0  0  0  0  0  0  0  0  0  0  0  0
   -1.0071    0.8720   -4.0455 O   0  0  0  0  0  0  0  0  0  0  0  0
    0.9083    1.8381   -4.5134 N   0  0  0  0  0  0  0  0  0  0  0  0
    0.3870    2.4546   -5.1301 H   0  0  0  0  0  0  0  0  0  0  0  0
    1.8487    2.0778   -4.2171 H   0  0  0  0  0  0  0  0  0  0  0  0
    0.6563   -0.4153    1.0160 C   0  0  0  0  0  0  0  0  0  0  0  0
    1.8610   -0.3901    1.2324 O   0  0  0  0  0  0  0  0  0  0  0  0
   -0.1977    0.2231    1.8970 N   0  0  0  0  0  0  0  0  0  0  0  0
   -1.1895    0.1025    1.7183 H   0  0  0  0  0  0  0  0  0  0  0  0
    0.2258    0.6677    3.2187 C   0  0  0  0  0  0  0  0  0  0  0  0
    1.0252    1.4116    3.1351 H   0  0  0  0  0  0  0  0  0  0  0  0
   -0.6141    1.1231    3.7518 H   0  0  0  0  0  0  0  0  0  0  0  0
    0.5931   -0.1798    3.8073 H   0  0  0  0  0  0  0  0  0  0  0  0
  1  2  1  0  0  0  0
  2  3  1  0  0  0  0
  2  4  1  0  0  0  0
  2  5  1  0  0  0  0
  5  6  2  0  0  0  0
  5  7  1  0  0  0  0
  7  8  1  0  0  0  0
  7  9  1  0  0  0  0
  9 10  1  0  0  0  0
  9 11  1  0  0  0  0
  9 22  1  0  0  0  0
 11 12  1  0  0  0  0
 11 13  1  0  0  0  0
 11 14  1  0  0  0  0
 14 15  1  0  0  0  0
 14 16  1  0  0  0  0
 14 17  1  0  0  0  0
 17 18  2  0  0  0  0
 17 19  1  0  0  0  0
 19 20  1  0  0  0  0
 19 21  1  0  0  0  0
 22 23  2  0  0  0  0
 22 24  1  0  0  0  0
 24 25  1  0  0  0  0
 24 26  1  0  0  0  0
 26 27  1  0  0  0  0
 26 28  1  0  0  0  0
 26 29  1  0  0  0  0
M  END
$$$$

  -OEChem-02102214123D

 29 28  0     1  0  0  0  0  0999 V2000
   -2.8537   -4.2381    0.7133 H   0  0  0  0  0  0  0  0  0  0  0  0
   -2.8036   -3.3315    0.1034 C   0  0  0  0  0  0  0  0  0  0  0  0
   -3.6076   -2.6576    0.4090 H   0  0  0  0  0  0  0  0  0  0  0  0
   -2.9446   -3.6054   -0.9450 H   0  0  0  0  0  0  0  0  0  0  0  0
   -1.4588   -2.6534    0.2857 C   0  0  0  0  0  0  0  0  0  0  0  0
   -0.6250   -3.1463    1.0239 O   0  0  0  0  0  0  0  0  0  0  0  0
   -1.1917   -1.4748   -0.3835 N   0  0  0  0  0  0  0  0  0  0  0  0
   -1.8865   -1.1751   -1.0626 H   0  0  0  0  0  0  0  0  0  0  0  0
    0.1272   -0.8139   -0.4071 C   0  0  1  0  0  0  0  0  0  0  0  0
    0.8588   -1.5213   -0.8139 H   0  0  0  0  0  0  0  0  0  0  0  0
    0.0411    0.4277   -1.3195 C   0  0  0  0  0  0  0  0  0  0  0  0
   -1.0080    0.7013   -1.4769 H   0  0  0  0  0  0  0  0  0  0  0  0
    0.5248    1.2885   -0.8430 H   0  0  0  0  0  0  0  0  0  0  0  0
    0.7341    0.1696   -2.6682 C   0  0  0  0  0  0  0  0  0  0  0  0
    1.8189    0.1558   -2.5293 H   0  0  0  0  0  0  0  0  0  0  0  0
    0.4347   -0.8063   -3.0613 H   0  0  0  0  0  0  0  0  0  0  0  0
    0.3523    1.2214   -3.7024 C   0  0  0  0  0  0  0  0  0  0  0  0
   -0.8091    1.4316   -3.9991 O   0  0  0  0  0  0  0  0  0  0  0  0
    1.2833    2.0240   -4.2972 N   0  0  0  0  0  0  0  0  0  0  0  0
    0.9263    2.8119   -4.8301 H   0  0  0  0  0  0  0  0  0  0  0  0
    2.2337    2.0317   -3.9411 H   0  0  0  0  0  0  0  0  0  0  0  0
    0.6608   -0.4047    0.9843 C   0  0  0  0  0  0  0  0  0  0  0  0
    1.8693   -0.3738    1.1774 O   0  0  0  0  0  0  0  0  0  0  0  0
   -0.1811    0.2134    1.8909 N   0  0  0  0  0  0  0  0  0  0  0  0
   -1.1754    0.0901    1.7287 H   0  0  0  0  0  0  0  0  0  0  0  0
    0.2637    0.6476    3.2091 C   0  0  0  0  0  0  0  0  0  0  0  0
    1.0791    1.3734    3.1203 H   0  0  0  0  0  0  0  0  0  0  0  0
   -0.5608    1.1224    3.7495 H   0  0  0  0  0  0  0  0  0  0  0  0
    0.6160   -0.2087    3.7938 H   0  0  0  0  0  0  0  0  0  0  0  0
  1  2  1  0  0  0  0
  2  3  1  0  0  0  0
  2  4  1  0  0  0  0
  2  5  1  0  0  0  0
  5  6  2  0  0  0  0
  5  7  1  0  0  0  0
  7  8  1  0  0  0  0
  7  9  1  0  0  0  0
  9 10  1  0  0  0  0
  9 11  1  0  0  0  0
  9 22  1  0  0  0  0
 11 12  1  0  0  0  0
 11 13  1  0  0  0  0
 11 14  1  0  0  0  0
 14 15  1  0  0  0  0
 14 16  1  0  0  0  0
 14 17  1  0  0  0  0
 17 18  2  0  0  0  0
 17 19  1  0  0  0  0
 19 20  1  0  0  0  0
 19 21  1  0  0  0  0
 22 23  2  0  0  0  0
 22 24  1  0  0  0  0
 24 25  1  0  0  0  0
 24 26  1  0  0  0  0
 26 27  1  0  0  0  0
 26 28  1  0  0  0  0
 26 29  1  0  0  0  0
M  END
$$$$

  -OEChem-02102214123D

 29 28  0     1  0  0  0  0  0999 V2000
   -2.8346   -4.2476    0.7598 H   0  0  0  0  0  0  0  0  0  0  0  0
   -2.8072   -3.3392    0.1512 C   0  0  0  0  0  0  0  0  0  0  0  0
   -3.5930   -2.6625    0.4950 H   0  0  0  0  0  0  0  0  0  0  0  0
   -2.9966   -3.6087   -0.8906 H   0  0  0  0  0  0  0  0  0  0  0  0
   -1.4518   -2.6687    0.2751 C   0  0  0  0  0  0  0  0  0  0  0  0
   -0.5868   -3.1723    0.9688 O   0  0  0  0  0  0  0  0  0  0  0  0
   -1.2081   -1.4864   -0.3967 N   0  0  0  0  0  0  0  0  0  0  0  0
   -1.9373   -1.1630   -1.0266 H   0  0  0  0  0  0  0  0  0  0  0  0
    0.1049   -0.8159   -0.4500 C   0  0  1  0  0  0  0  0  0  0  0  0
    0.8363   -1.5076   -0.8834 H   0  0  0  0  0  0  0  0  0  0  0  0
   -0.0203    0.4311   -1.3441 C   0  0  0  0  0  0  0  0  0  0  0  0
   -1.0192    0.8718   -1.2502 H   0  0  0  0  0  0  0  0  0  0  0  0
    0.6991    1.1904   -1.0149 H   0  0  0  0  0  0  0  0  0  0  0  0
    0.2860    0.0913   -2.8108 C   0  0  0  0  0  0  0  0  0  0  0  0
    1.2992   -0.3116   -2.8976 H   0  0  0  0  0  0  0  0  0  0  0  0
   -0.4094   -0.6706   -3.1743 H   0  0  0  0  0  0  0  0  0  0  0  0
    0.1597    1.3282   -3.6889 C   0  0  0  0  0  0  0  0  0  0  0  0
   -0.9171    1.8623   -3.8739 O   0  0  0  0  0  0  0  0  0  0  0  0
    1.2488    1.9462   -4.2333 N   0  0  0  0  0  0  0  0  0  0  0  0
    1.0897    2.8678   -4.6302 H   0  0  0  0  0  0  0  0  0  0  0  0
    2.1768    1.6745   -3.9251 H   0  0  0  0  0  0  0  0  0  0  0  0
    0.6640   -0.4087    0.9319 C   0  0  0  0  0  0  0  0  0  0  0  0
    1.8760   -0.3694    1.0990 O   0  0  0  0  0  0  0  0  0  0  0  0
   -0.1627    0.1992    1.8594 N   0  0  0  0  0  0  0  0  0  0  0  0
   -1.1601    0.0772    1.7167 H   0  0  0  0  0  0  0  0  0  0  0  0
    0.3086    0.6409    3.1658 C   0  0  0  0  0  0  0  0  0  0  0  0
    1.0887    1.4015    3.0551 H   0  0  0  0  0  0  0  0  0  0  0  0
   -0.5162    1.0750    3.7388 H   0  0  0  0  0  0  0  0  0  0  0  0
    0.7174   -0.2039    3.7302 H   0  0  0  0  0  0  0  0  0  0  0  0
  1  2  1  0  0  0  0
  2  3  1  0  0  0  0
  2  4  1  0  0  0  0
  2  5  1  0  0  0  0
  5  6  2  0  0  0  0
  5  7  1  0  0  0  0
  7  8  1  0  0  0  0
  7  9  1  0  0  0  0
  9 10  1  0  0  0  0
  9 11  1  0  0  0  0
  9 22  1  0  0  0  0
 11 12  1  0  0  0  0
 11 13  1  0  0  0  0
 11 14  1  0  0  0  0
 14 15  1  0  0  0  0
 14 16  1  0  0  0  0
 14 17  1  0  0  0  0
 17 18  2  0  0  0  0
 17 19  1  0  0  0  0
 19 20  1  0  0  0  0
 19 21  1  0  0  0  0
 22 23  2  0  0  0  0
 22 24  1  0  0  0  0
 24 25  1  0  0  0  0
 24 26  1  0  0  0  0
 26 27  1  0  0  0  0
 26 28  1  0  0  0  0
 26 29  1  0  0  0  0
M  END
$$$$

  -OEChem-02102214123D

 29 28  0     1  0  0  0  0  0999 V2000
   -2.8162   -4.2766    0.6873 H   0  0  0  0  0  0  0  0  0  0  0  0
   -2.8123   -3.3377    0.1260 C   0  0  0  0  0  0  0  0  0  0  0  0
   -3.6003   -2.6904    0.5180 H   0  0  0  0  0  0  0  0  0  0  0  0
   -3.0176   -3.5567   -0.9246 H   0  0  0  0  0  0  0  0  0  0  0  0
   -1.4638   -2.6558    0.2600 C   0  0  0  0  0  0  0  0  0  0  0  0
   -0.5952   -3.1588    0.9492 O   0  0  0  0  0  0  0  0  0  0  0  0
   -1.2277   -1.4679   -0.4048 N   0  0  0  0  0  0  0  0  0  0  0  0
   -1.9567   -1.1516   -1.0382 H   0  0  0  0  0  0  0  0  0  0  0  0
    0.0874   -0.8040   -0.4750 C   0  0  1  0  0  0  0  0  0  0  0  0
    0.8060   -1.4971   -0.9258 H   0  0  0  0  0  0  0  0  0  0  0  0
   -0.0531    0.4512   -1.3566 C   0  0  0  0  0  0  0  0  0  0  0  0
   -1.0420    0.9078   -1.2385 H   0  0  0  0  0  0  0  0  0  0  0  0
    0.6835    1.1945   -1.0281 H   0  0  0  0  0  0  0  0  0  0  0  0
    0.2217    0.1345   -2.8356 C   0  0  0  0  0  0  0  0  0  0  0  0
    1.1175   -0.4859   -2.9309 H   0  0  0  0  0  0  0  0  0  0  0  0
   -0.6163   -0.4216   -3.2654 H   0  0  0  0  0  0  0  0  0  0  0  0
    0.4399    1.4164   -3.6267 C   0  0  0  0  0  0  0  0  0  0  0  0
   -0.4925    2.1377   -3.9243 O   0  0  0  0  0  0  0  0  0  0  0  0
    1.6877    1.8642   -3.9538 N   0  0  0  0  0  0  0  0  0  0  0  0
    1.7450    2.8200   -4.2935 H   0  0  0  0  0  0  0  0  0  0  0  0
    2.4966    1.4241   -3.5269 H   0  0  0  0  0  0  0  0  0  0  0  0
    0.6784   -0.4111    0.8980 C   0  0  0  0  0  0  0  0  0  0  0  0
    1.8943   -0.3810    1.0368 O   0  0  0  0  0  0  0  0  0  0  0  0
   -0.1229    0.1939    1.8491 N   0  0  0  0  0  0  0  0  0  0  0  0
   -1.1239    0.0767    1.7303 H   0  0  0  0  0  0  0  0  0  0  0  0
    0.3818    0.6252    3.1466 C   0  0  0  0  0  0  0  0  0  0  0  0
    1.1898    1.3535    3.0213 H   0  0  0  0  0  0  0  0  0  0  0  0
   -0.4177    1.0960    3.7264 H   0  0  0  0  0  0  0  0  0  0  0  0
    0.7640   -0.2313    3.7118 H   0  0  0  0  0  0  0  0  0  0  0  0
  1  2  1  0  0  0  0
  2  3  1  0  0  0  0
  2  4  1  0  0  0  0
  2  5  1  0  0  0  0
  5  6  2  0  0  0  0
  5  7  1  0  0  0  0
  7  8  1  0  0  0  0
  7  9  1  0  0  0  0
  9 10  1  0  0  0  0
  9 11  1  0  0  0  0
  9 22  1  0  0  0  0
 11 12  1  0  0  0  0
 11 13  1  0  0  0  0
 11 14  1  0  0  0  0
 14 15  1  0  0  0  0
 14 16  1  0  0  0  0
 14 17  1  0  0  0  0
 17 18  2  0  0  0  0
 17 19  1  0  0  0  0
 19 20  1  0  0  0  0
 19 21  1  0  0  0  0
 22 23  2  0  0  0  0
 22 24  1  0  0  0  0
 24 25  1  0  0  0  0
 24 26  1  0  0  0  0
 26 27  1  0  0  0  0
 26 28  1  0  0  0  0
 26 29  1  0  0  0  0
M  END
$$$$

  -OEChem-02102214123D

 29 28  0     1  0  0  0  0  0999 V2000
   -2.8238   -4.2478    0.7056 H   0  0  0  0  0  0  0  0  0  0  0  0
   -2.8140   -3.3240    0.1198 C   0  0  0  0  0  0  0  0  0  0  0  0
   -3.5908   -2.6575    0.5023 H   0  0  0  0  0  0  0  0  0  0  0  0
   -3.0319   -3.5674   -0.9229 H   0  0  0  0  0  0  0  0  0  0  0  0
   -1.4565   -2.6541    0.2235 C   0  0  0  0  0  0  0  0  0  0  0  0
   -0.5711   -3.1733    0.8788 O   0  0  0  0  0  0  0  0  0  0  0  0
   -1.2334   -1.4545   -0.4248 N   0  0  0  0  0  0  0  0  0  0  0  0
   -1.9779   -1.1232   -1.0320 H   0  0  0  0  0  0  0  0  0  0  0  0
    0.0799   -0.7880   -0.5064 C   0  0  1  0  0  0  0  0  0  0  0  0
    0.7919   -1.4749   -0.9763 H   0  0  0  0  0  0  0  0  0  0  0  0
   -0.0726    0.4841   -1.3638 C   0  0  0  0  0  0  0  0  0  0  0  0
   -1.0545    0.9470   -1.2180 H   0  0  0  0  0  0  0  0  0  0  0  0
    0.6728    1.2143   -1.0249 H   0  0  0  0  0  0  0  0  0  0  0  0
    0.1759    0.2088   -2.8590 C   0  0  0  0  0  0  0  0  0  0  0  0
    0.8965   -0.6033   -2.9899 H   0  0  0  0  0  0  0  0  0  0  0  0
   -0.7557   -0.0956   -3.3444 H   0  0  0  0  0  0  0  0  0  0  0  0
    0.7384    1.4417   -3.5531 C   0  0  0  0  0  0  0  0  0  0  0  0
    0.0081    2.3280   -3.9514 O   0  0  0  0  0  0  0  0  0  0  0  0
    2.0815    1.6509   -3.6836 N   0  0  0  0  0  0  0  0  0  0  0  0
    2.3605    2.5854   -3.9684 H   0  0  0  0  0  0  0  0  0  0  0  0
    2.7226    1.0667   -3.1560 H   0  0  0  0  0  0  0  0  0  0  0  0
    0.6924   -0.4196    0.8640 C   0  0  0  0  0  0  0  0  0  0  0  0
    1.9105   -0.3864    0.9817 O   0  0  0  0  0  0  0  0  0  0  0  0
   -0.0939    0.1669    1.8389 N   0  0  0  0  0  0  0  0  0  0  0  0
   -1.0966    0.0519    1.7338 H   0  0  0  0  0  0  0  0  0  0  0  0
    0.4315    0.5772    3.1352 C   0  0  0  0  0  0  0  0  0  0  0  0
    1.2096    1.3377    3.0110 H   0  0  0  0  0  0  0  0  0  0  0  0
   -0.3680    1.0007    3.7505 H   0  0  0  0  0  0  0  0  0  0  0  0
    0.8591   -0.2816    3.6634 H   0  0  0  0  0  0  0  0  0  0  0  0
  1  2  1  0  0  0  0
  2  3  1  0  0  0  0
  2  4  1  0  0  0  0
  2  5  1  0  0  0  0
  5  6  2  0  0  0  0
  5  7  1  0  0  0  0
  7  8  1  0  0  0  0
  7  9  1  0  0  0  0
  9 10  1  0  0  0  0
  9 11  1  0  0  0  0
  9 22  1  0  0  0  0
 11 12  1  0  0  0  0
 11 13  1  0  0  0  0
 11 14  1  0  0  0  0
 14 15  1  0  0  0  0
 14 16  1  0  0  0  0
 14 17  1  0  0  0  0
 17 18  2  0  0  0  0
 17 19  1  0  0  0  0
 19 20  1  0  0  0  0
 19 21  1  0  0  0  0
 22 23  2  0  0  0  0
 22 24  1  0  0  0  0
 24 25  1  0  0  0  0
 24 26  1  0  0  0  0
 26 27  1  0  0  0  0
 26 28  1  0  0  0  0
 26 29  1  0  0  0  0
M  END
$$$$

  -OEChem-02102214123D

 29 28  0     1  0  0  0  0  0999 V2000
   -2.8313   -4.2393    0.6553 H   0  0  0  0  0  0  0  0  0  0  0  0
   -2.8259   -3.3070    0.0831 C   0  0  0  0  0  0  0  0  0  0  0  0
   -3.5929   -2.6423    0.4875 H   0  0  0  0  0  0  0  0  0  0  0  0
   -3.0614   -3.5334   -0.9595 H   0  0  0  0  0  0  0  0  0  0  0  0
   -1.4636   -2.6458    0.1760 C   0  0  0  0  0  0  0  0  0  0  0  0
   -0.5704   -3.1801    0.8079 O   0  0  0  0  0  0  0  0  0  0  0  0
   -1.2461   -1.4330   -0.4494 N   0  0  0  0  0  0  0  0  0  0  0  0
   -1.9975   -1.0886   -1.0403 H   0  0  0  0  0  0  0  0  0  0  0  0
    0.0700   -0.7732   -0.5414 C   0  0  1  0  0  0  0  0  0  0  0  0
    0.7684   -1.4571   -1.0358 H   0  0  0  0  0  0  0  0  0  0  0  0
   -0.0819    0.5193   -1.3697 C   0  0  0  0  0  0  0  0  0  0  0  0
   -1.0604    0.9810   -1.2000 H   0  0  0  0  0  0  0  0  0  0  0  0
    0.6654    1.2413   -1.0180 H   0  0  0  0  0  0  0  0  0  0  0  0
    0.1401    0.2801   -2.8783 C   0  0  0  0  0  0  0  0  0  0  0  0
    0.6176   -0.6862   -3.0605 H   0  0  0  0  0  0  0  0  0  0  0  0
   -0.8233    0.2691   -3.3961 H   0  0  0  0  0  0  0  0  0  0  0  0
    1.0301    1.3564   -3.4862 C   0  0  0  0  0  0  0  0  0  0  0  0
    0.5631    2.2727   -4.1339 O   0  0  0  0  0  0  0  0  0  0  0  0
    2.3821    1.3672   -3.2925 N   0  0  0  0  0  0  0  0  0  0  0  0
    2.8648    2.2177   -3.5677 H   0  0  0  0  0  0  0  0  0  0  0  0
    2.7803    0.7650   -2.5777 H   0  0  0  0  0  0  0  0  0  0  0  0
    0.7146   -0.4386    0.8227 C   0  0  0  0  0  0  0  0  0  0  0  0
    1.9356   -0.4014    0.9056 O   0  0  0  0  0  0  0  0  0  0  0  0
   -0.0456    0.1314    1.8274 N   0  0  0  0  0  0  0  0  0  0  0  0
   -1.0502    0.0107    1.7502 H   0  0  0  0  0  0  0  0  0  0  0  0
    0.5145    0.5192    3.1160 C   0  0  0  0  0  0  0  0  0  0  0  0
    1.2884    1.2825    2.9837 H   0  0  0  0  0  0  0  0  0  0  0  0
   -0.2684    0.9311    3.7600 H   0  0  0  0  0  0  0  0  0  0  0  0
    0.9572   -0.3478    3.6177 H   0  0  0  0  0  0  0  0  0  0  0  0
  1  2  1  0  0  0  0
  2  3  1  0  0  0  0
  2  4  1  0  0  0  0
  2  5  1  0  0  0  0
  5  6  2  0  0  0  0
  5  7  1  0  0  0  0
  7  8  1  0  0  0  0
  7  9  1  0  0  0  0
  9 10  1  0  0  0  0
  9 11  1  0  0  0  0
  9 22  1  0  0  0  0
 11 12  1  0  0  0  0
 11 13  1  0  0  0  0
 11 14  1  0  0  0  0
 14 15  1  0  0  0  0
 14 16  1  0  0  0  0
 14 17  1  0  0  0  0
 17 18  2  0  0  0  0
 17 19  1  0  0  0  0
 19 20  1  0  0  0  0
 19 21  1  0  0  0  0
 22 23  2  0  0  0  0
 22 24  1  0  0  0  0
 24 25  1  0  0  0  0
 24 26  1  0  0  0  0
 26 27  1  0  0  0  0
 26 28  1  0  0  0  0
 26 29  1  0  0  0  0
M  END
$$$$

  -OEChem-02102214123D

 29 28  0     1  0  0  0  0  0999 V2000
   -2.8214   -4.2520    0.5449 H   0  0  0  0  0  0  0  0  0  0  0  0
   -2.8225   -3.3032    0.0005 C   0  0  0  0  0  0  0  0  0  0  0  0
   -3.5941   -2.6560    0.4244 H   0  0  0  0  0  0  0  0  0  0  0  0
   -3.0569   -3.5008   -1.0483 H   0  0  0  0  0  0  0  0  0  0  0  0
   -1.4644   -2.6365    0.1120 C   0  0  0  0  0  0  0  0  0  0  0  0
   -0.5658   -3.1850    0.7238 O   0  0  0  0  0  0  0  0  0  0  0  0
   -1.2552   -1.4044   -0.4769 N   0  0  0  0  0  0  0  0  0  0  0  0
   -2.0104   -1.0464   -1.0548 H   0  0  0  0  0  0  0  0  0  0  0  0
    0.0599   -0.7428   -0.5619 C   0  0  1  0  0  0  0  0  0  0  0  0
    0.7508   -1.4144   -1.0837 H   0  0  0  0  0  0  0  0  0  0  0  0
   -0.0860    0.5723   -1.3535 C   0  0  0  0  0  0  0  0  0  0  0  0
   -1.0734    1.0116   -1.1766 H   0  0  0  0  0  0  0  0  0  0  0  0
    0.6440    1.3023   -0.9826 H   0  0  0  0  0  0  0  0  0  0  0  0
    0.1315    0.3601   -2.8669 C   0  0  0  0  0  0  0  0  0  0  0  0
    0.3199   -0.6905   -3.1034 H   0  0  0  0  0  0  0  0  0  0  0  0
   -0.7746    0.6540   -3.4051 H   0  0  0  0  0  0  0  0  0  0  0  0
    1.2984    1.1908   -3.3874 C   0  0  0  0  0  0  0  0  0  0  0  0
    1.1352    2.0744   -4.2057 O   0  0  0  0  0  0  0  0  0  0  0  0
    2.5784    0.9791   -2.9591 N   0  0  0  0  0  0  0  0  0  0  0  0
    3.2615    1.6799   -3.2312 H   0  0  0  0  0  0  0  0  0  0  0  0
    2.7328    0.4158   -2.1265 H   0  0  0  0  0  0  0  0  0  0  0  0
    0.7269   -0.4487    0.7996 C   0  0  0  0  0  0  0  0  0  0  0  0
    1.9493   -0.3996    0.8530 O   0  0  0  0  0  0  0  0  0  0  0  0
   -0.0152    0.0919    1.8337 N   0  0  0  0  0  0  0  0  0  0  0  0
   -1.0197   -0.0424    1.7789 H   0  0  0  0  0  0  0  0  0  0  0  0
    0.5715    0.4529    3.1183 C   0  0  0  0  0  0  0  0  0  0  0  0
    1.3399    1.2221    2.9874 H   0  0  0  0  0  0  0  0  0  0  0  0
   -0.1985    0.8474    3.7883 H   0  0  0  0  0  0  0  0  0  0  0  0
    1.0273   -0.4241    3.5899 H   0  0  0  0  0  0  0  0  0  0  0  0
  1  2  1  0  0  0  0
  2  3  1  0  0  0  0
  2  4  1  0  0  0  0
  2  5  1  0  0  0  0
  5  6  2  0  0  0  0
  5  7  1  0  0  0  0
  7  8  1  0  0  0  0
  7  9  1  0  0  0  0
  9 10  1  0  0  0  0
  9 11  1  0  0  0  0
  9 22  1  0  0  0  0
 11 12  1  0  0  0  0
 11 13  1  0  0  0  0
 11 14  1  0  0  0  0
 14 15  1  0  0  0  0
 14 16  1  0  0  0  0
 14 17  1  0  0  0  0
 17 18  2  0  0  0  0
 17 19  1  0  0  0  0
 19 20  1  0  0  0  0
 19 21  1  0  0  0  0
 22 23  2  0  0  0  0
 22 24  1  0  0  0  0
 24 25  1  0  0  0  0
 24 26  1  0  0  0  0
 26 27  1  0  0  0  0
 26 28  1  0  0  0  0
 26 29  1  0  0  0  0
M  END
$$$$

  -OEChem-02102214123D

 29 28  0     1  0  0  0  0  0999 V2000
   -2.8092   -4.2731    0.4230 H   0  0  0  0  0  0  0  0  0  0  0  0
   -2.8162   -3.3164   -0.1073 C   0  0  0  0  0  0  0  0  0  0  0  0
   -3.6027   -2.6867    0.3154 H   0  0  0  0  0  0  0  0  0  0  0  0
   -3.0331   -3.5020   -1.1621 H   0  0  0  0  0  0  0  0  0  0  0  0
   -1.4690   -2.6328    0.0331 C   0  0  0  0  0  0  0  0  0  0  0  0
   -0.5660   -3.1859    0.6344 O   0  0  0  0  0  0  0  0  0  0  0  0
   -1.2736   -1.3778   -0.5110 N   0  0  0  0  0  0  0  0  0  0  0  0
   -2.0277   -1.0139   -1.0867 H   0  0  0  0  0  0  0  0  0  0  0  0
    0.0391   -0.7095   -0.5794 C   0  0  1  0  0  0  0  0  0  0  0  0
    0.7204   -1.3700   -1.1280 H   0  0  0  0  0  0  0  0  0  0  0  0
   -0.0900    0.6260   -1.3367 C   0  0  0  0  0  0  0  0  0  0  0  0
   -1.0879    1.0442   -1.1685 H   0  0  0  0  0  0  0  0  0  0  0  0
    0.6216    1.3637   -0.9451 H   0  0  0  0  0  0  0  0  0  0  0  0
    0.1418    0.4318   -2.8473 C   0  0  0  0  0  0  0  0  0  0  0  0
    0.0400   -0.6170   -3.1402 H   0  0  0  0  0  0  0  0  0  0  0  0
   -0.6149    0.9991   -3.3976 H   0  0  0  0  0  0  0  0  0  0  0  0
    1.5149    0.9471   -3.2681 C   0  0  0  0  0  0  0  0  0  0  0  0
    1.6487    1.6813   -4.2275 O   0  0  0  0  0  0  0  0  0  0  0  0
    2.6580    0.5812   -2.6124 N   0  0  0  0  0  0  0  0  0  0  0  0
    3.5009    1.0860   -2.8698 H   0  0  0  0  0  0  0  0  0  0  0  0
    2.5880    0.1509   -1.6916 H   0  0  0  0  0  0  0  0  0  0  0  0
    0.7314   -0.4571    0.7754 C   0  0  0  0  0  0  0  0  0  0  0  0
    1.9542   -0.3836    0.7889 O   0  0  0  0  0  0  0  0  0  0  0  0
    0.0112    0.0465    1.8423 N   0  0  0  0  0  0  0  0  0  0  0  0
   -0.9919   -0.1060    1.8131 H   0  0  0  0  0  0  0  0  0  0  0  0
    0.6291    0.3791    3.1199 C   0  0  0  0  0  0  0  0  0  0  0  0
    1.3838    1.1618    2.9893 H   0  0  0  0  0  0  0  0  0  0  0  0
   -0.1267    0.7443    3.8219 H   0  0  0  0  0  0  0  0  0  0  0  0
    1.1090   -0.5043    3.5541 H   0  0  0  0  0  0  0  0  0  0  0  0
  1  2  1  0  0  0  0
  2  3  1  0  0  0  0
  2  4  1  0  0  0  0
  2  5  1  0  0  0  0
  5  6  2  0  0  0  0
  5  7  1  0  0  0  0
  7  8  1  0  0  0  0
  7  9  1  0  0  0  0
  9 10  1  0  0  0  0
  9 11  1  0  0  0  0
  9 22  1  0  0  0  0
 11 12  1  0  0  0  0
 11 13  1  0  0  0  0
 11 14  1  0  0  0  0
 14 15  1  0  0  0  0
 14 16  1  0  0  0  0
 14 17  1  0  0  0  0
 17 18  2  0  0  0  0
 17 19  1  0  0  0  0
 19 20  1  0  0  0  0
 19 21  1  0  0  0  0
 22 23  2  0  0  0  0
 22 24  1  0  0  0  0
 24 25  1  0  0  0  0
 24 26  1  0  0  0  0
 26 27  1  0  0  0  0
 26 28  1  0  0  0  0
 26 29  1  0  0  0  0
M  END
$$$$

  -OEChem-02102214123D

 29 28  0     1  0  0  0  0  0999 V2000
   -2.8204   -4.2884    0.2894 H   0  0  0  0  0  0  0  0  0  0  0  0
   -2.8183   -3.3196   -0.2186 C   0  0  0  0  0  0  0  0  0  0  0  0
   -3.6183   -2.7033    0.1985 H   0  0  0  0  0  0  0  0  0  0  0  0
   -3.0078   -3.4809   -1.2826 H   0  0  0  0  0  0  0  0  0  0  0  0
   -1.4785   -2.6337   -0.0282 C   0  0  0  0  0  0  0  0  0  0  0  0
   -0.5883   -3.1954    0.5840 O   0  0  0  0  0  0  0  0  0  0  0  0
   -1.2762   -1.3659   -0.5388 N   0  0  0  0  0  0  0  0  0  0  0  0
   -2.0182   -0.9956   -1.1260 H   0  0  0  0  0  0  0  0  0  0  0  0
    0.0391   -0.7008   -0.5798 C   0  0  1  0  0  0  0  0  0  0  0  0
    0.7148   -1.3564   -1.1411 H   0  0  0  0  0  0  0  0  0  0  0  0
   -0.0741    0.6516   -1.3110 C   0  0  0  0  0  0  0  0  0  0  0  0
   -1.0736    1.0675   -1.1477 H   0  0  0  0  0  0  0  0  0  0  0  0
    0.6360    1.3816   -0.9032 H   0  0  0  0  0  0  0  0  0  0  0  0
    0.1759    0.4838   -2.8189 C   0  0  0  0  0  0  0  0  0  0  0  0
   -0.1836   -0.4876   -3.1697 H   0  0  0  0  0  0  0  0  0  0  0  0
   -0.3816    1.2571   -3.3560 H   0  0  0  0  0  0  0  0  0  0  0  0
    1.6535    0.6436   -3.1783 C   0  0  0  0  0  0  0  0  0  0  0  0
    1.9841    1.1115   -4.2504 O   0  0  0  0  0  0  0  0  0  0  0  0
    2.6730    0.2359   -2.3607 N   0  0  0  0  0  0  0  0  0  0  0  0
    3.6119    0.4988   -2.6448 H   0  0  0  0  0  0  0  0  0  0  0  0
    2.4847    0.0016   -1.3855 H   0  0  0  0  0  0  0  0  0  0  0  0
    0.7300   -0.4808    0.7806 C   0  0  0  0  0  0  0  0  0  0  0  0
    1.9525   -0.3969    0.7870 O   0  0  0  0  0  0  0  0  0  0  0  0
    0.0114    0.0008    1.8585 N   0  0  0  0  0  0  0  0  0  0  0  0
   -0.9908   -0.1591    1.8315 H   0  0  0  0  0  0  0  0  0  0  0  0
    0.6321    0.3146    3.1393 C   0  0  0  0  0  0  0  0  0  0  0  0
    1.3831    1.1024    3.0195 H   0  0  0  0  0  0  0  0  0  0  0  0
   -0.1229    0.6651    3.8492 H   0  0  0  0  0  0  0  0  0  0  0  0
    1.1170   -0.5738    3.5574 H   0  0  0  0  0  0  0  0  0  0  0  0
  1  2  1  0  0  0  0
  2  3  1  0  0  0  0
  2  4  1  0  0  0  0
  2  5  1  0  0  0  0
  5  6  2  0  0  0  0
  5  7  1  0  0  0  0
  7  8  1  0  0  0  0
  7  9  1  0  0  0  0
  9 10  1  0  0  0  0
  9 11  1  0  0  0  0
  9 22  1  0  0  0  0
 11 12  1  0  0  0  0
 11 13  1  0  0  0  0
 11 14  1  0  0  0  0
 14 15  1  0  0  0  0
 14 16  1  0  0  0  0
 14 17  1  0  0  0  0
 17 18  2  0  0  0  0
 17 19  1  0  0  0  0
 19 20  1  0  0  0  0
 19 21  1  0  0  0  0
 22 23  2  0  0  0  0
 22 24  1  0  0  0  0
 24 25  1  0  0  0  0
 24 26  1  0  0  0  0
 26 27  1  0  0  0  0
 26 28  1  0  0  0  0
 26 29  1  0  0  0  0
M  END
$$$$

  -OEChem-02102214123D

 29 28  0     1  0  0  0  0  0999 V2000
   -2.6578   -4.2815    0.2971 H   0  0  0  0  0  0  0  0  0  0  0  0
   -2.6801   -3.2942   -0.1731 C   0  0  0  0  0  0  0  0  0  0  0  0
   -3.4469   -2.6899    0.3173 H   0  0  0  0  0  0  0  0  0  0  0  0
   -2.9376   -3.4138   -1.2282 H   0  0  0  0  0  0  0  0  0  0  0  0
   -1.3256   -2.6237   -0.0416 C   0  0  0  0  0  0  0  0  0  0  0  0
   -0.4075   -3.2082    0.5037 O   0  0  0  0  0  0  0  0  0  0  0  0
   -1.1335   -1.3547   -0.5531 N   0  0  0  0  0  0  0  0  0  0  0  0
   -1.9126   -0.9395   -1.0559 H   0  0  0  0  0  0  0  0  0  0  0  0
    0.1520   -0.6318   -0.5174 C   0  0  1  0  0  0  0  0  0  0  0  0
    0.9035   -1.2461   -1.0198 H   0  0  0  0  0  0  0  0  0  0  0  0
   -0.0190    0.7080   -1.2625 C   0  0  0  0  0  0  0  0  0  0  0  0
   -1.0388    1.0820   -1.1262 H   0  0  0  0  0  0  0  0  0  0  0  0
    0.6550    1.4594   -0.8319 H   0  0  0  0  0  0  0  0  0  0  0  0
    0.2994    0.5910   -2.7645 C   0  0  0  0  0  0  0  0  0  0  0  0
   -0.2045   -0.2801   -3.1919 H   0  0  0  0  0  0  0  0  0  0  0  0
   -0.0851    1.4770   -3.2787 H   0  0  0  0  0  0  0  0  0  0  0  0
    1.7972    0.5000   -3.0462 C   0  0  0  0  0  0  0  0  0  0  0  0
    2.4438    1.4952   -3.3070 O   0  0  0  0  0  0  0  0  0  0  0  0
    2.4834   -0.6811   -3.0541 N   0  0  0  0  0  0  0  0  0  0  0  0
    3.4957   -0.5896   -3.0626 H   0  0  0  0  0  0  0  0  0  0  0  0
    2.0612   -1.4916   -2.6140 H   0  0  0  0  0  0  0  0  0  0  0  0
    0.7001   -0.3872    0.9064 C   0  0  0  0  0  0  0  0  0  0  0  0
    1.9094   -0.3799    1.0884 O   0  0  0  0  0  0  0  0  0  0  0  0
   -0.1405    0.0619    1.9088 N   0  0  0  0  0  0  0  0  0  0  0  0
   -1.1359   -0.0427    1.7444 H   0  0  0  0  0  0  0  0  0  0  0  0
    0.3220    0.3243    3.2659 C   0  0  0  0  0  0  0  0  0  0  0  0
    1.1005    1.0945    3.2641 H   0  0  0  0  0  0  0  0  0  0  0  0
   -0.5075    0.6752    3.8871 H   0  0  0  0  0  0  0  0  0  0  0  0
    0.7302   -0.5879    3.7135 H   0  0  0  0  0  0  0  0  0  0  0  0
  1  2  1  0  0  0  0
  2  3  1  0  0  0  0
  2  4  1  0  0  0  0
  2  5  1  0  0  0  0
  5  6  2  0  0  0  0
  5  7  1  0  0  0  0
  7  8  1  0  0  0  0
  7  9  1  0  0  0  0
  9 10  1  0  0  0  0
  9 11  1  0  0  0  0
  9 22  1  0  0  0  0
 11 12  1  0  0  0  0
 11 13  1  0  0  0  0
 11 14  1  0  0  0  0
 14 15  1  0  0  0  0
 14 16  1  0  0  0  0
 14 17  1  0  0  0  0
 17 18  2  0  0  0  0
 17 19  1  0  0  0  0
 19 20  1  0  0  0  0
 19 21  1  0  0  0  0
 22 23  2  0  0  0  0
 22 24  1  0  0  0  0
 24 25  1  0  0  0  0
 24 26  1  0  0  0  0
 26 27  1  0  0  0  0
 26 28  1  0  0  0  0
 26 29  1  0  0  0  0
M  END
$$$$

  -OEChem-02102214123D

 29 28  0     1  0  0  0  0  0999 V2000
   -2.6765   -4.2322    0.3515 H   0  0  0  0  0  0  0  0  0  0  0  0
   -2.6572   -3.2795   -0.1855 C   0  0  0  0  0  0  0  0  0  0  0  0
   -3.4272   -2.6269    0.2324 H   0  0  0  0  0  0  0  0  0  0  0  0
   -2.8776   -3.4657   -1.2393 H   0  0  0  0  0  0  0  0  0  0  0  0
   -1.2925   -2.6316   -0.0469 C   0  0  0  0  0  0  0  0  0  0  0  0
   -0.3883   -3.2323    0.5034 O   0  0  0  0  0  0  0  0  0  0  0  0
   -1.0746   -1.3675   -0.5608 N   0  0  0  0  0  0  0  0  0  0  0  0
   -1.8485   -0.9309   -1.0531 H   0  0  0  0  0  0  0  0  0  0  0  0
    0.2107   -0.6467   -0.4782 C   0  0  1  0  0  0  0  0  0  0  0  0
    0.9879   -1.2596   -0.9412 H   0  0  0  0  0  0  0  0  0  0  0  0
    0.0558    0.6960   -1.2259 C   0  0  0  0  0  0  0  0  0  0  0  0
   -0.9602    1.0840   -1.1018 H   0  0  0  0  0  0  0  0  0  0  0  0
    0.7332    1.4306   -0.7726 H   0  0  0  0  0  0  0  0  0  0  0  0
    0.4116    0.6212   -2.7245 C   0  0  0  0  0  0  0  0  0  0  0  0
   -0.2647   -0.0769   -3.2250 H   0  0  0  0  0  0  0  0  0  0  0  0
    0.2575    1.6059   -3.1760 H   0  0  0  0  0  0  0  0  0  0  0  0
    1.8504    0.1935   -3.0029 C   0  0  0  0  0  0  0  0  0  0  0  0
    2.7449    1.0132   -3.0628 O   0  0  0  0  0  0  0  0  0  0  0  0
    2.2045   -1.1033   -3.2473 N   0  0  0  0  0  0  0  0  0  0  0  0
    3.2048   -1.2851   -3.2366 H   0  0  0  0  0  0  0  0  0  0  0  0
    1.5595   -1.8403   -2.9839 H   0  0  0  0  0  0  0  0  0  0  0  0
    0.6878   -0.3972    0.9713 C   0  0  0  0  0  0  0  0  0  0  0  0
    1.8842   -0.4014    1.2228 O   0  0  0  0  0  0  0  0  0  0  0  0
   -0.2023    0.0586    1.9276 N   0  0  0  0  0  0  0  0  0  0  0  0
   -1.1885   -0.0289    1.7088 H   0  0  0  0  0  0  0  0  0  0  0  0
    0.1907    0.3313    3.3046 C   0  0  0  0  0  0  0  0  0  0  0  0
    0.9655    1.1046    3.3362 H   0  0  0  0  0  0  0  0  0  0  0  0
   -0.6697    0.6831    3.8814 H   0  0  0  0  0  0  0  0  0  0  0  0
    0.5791   -0.5764    3.7783 H   0  0  0  0  0  0  0  0  0  0  0  0
  1  2  1  0  0  0  0
  2  3  1  0  0  0  0
  2  4  1  0  0  0  0
  2  5  1  0  0  0  0
  5  6  2  0  0  0  0
  5  7  1  0  0  0  0
  7  8  1  0  0  0  0
  7  9  1  0  0  0  0
  9 10  1  0  0  0  0
  9 11  1  0  0  0  0
  9 22  1  0  0  0  0
 11 12  1  0  0  0  0
 11 13  1  0  0  0  0
 11 14  1  0  0  0  0
 14 15  1  0  0  0  0
 14 16  1  0  0  0  0
 14 17  1  0  0  0  0
 17 18  2  0  0  0  0
 17 19  1  0  0  0  0
 19 20  1  0  0  0  0
 19 21  1  0  0  0  0
 22 23  2  0  0  0  0
 22 24  1  0  0  0  0
 24 25  1  0  0  0  0
 24 26  1  0  0  0  0
 26 27  1  0  0  0  0
 26 28  1  0  0  0  0
 26 29  1  0  0  0  0
M  END
$$$$

  -OEChem-02102214123D

 29 28  0     1  0  0  0  0  0999 V2000
   -2.7108   -4.2104    0.3197 H   0  0  0  0  0  0  0  0  0  0  0  0
   -2.6607   -3.2594   -0.2186 C   0  0  0  0  0  0  0  0  0  0  0  0
   -3.4310   -2.5926    0.1762 H   0  0  0  0  0  0  0  0  0  0  0  0
   -2.8550   -3.4445   -1.2779 H   0  0  0  0  0  0  0  0  0  0  0  0
   -1.2898   -2.6336   -0.0435 C   0  0  0  0  0  0  0  0  0  0  0  0
   -0.4125   -3.2445    0.5375 O   0  0  0  0  0  0  0  0  0  0  0  0
   -1.0351   -1.3794   -0.5639 N   0  0  0  0  0  0  0  0  0  0  0  0
   -1.7898   -0.9322   -1.0760 H   0  0  0  0  0  0  0  0  0  0  0  0
    0.2552   -0.6735   -0.4430 C   0  0  1  0  0  0  0  0  0  0  0  0
    1.0465   -1.2985   -0.8624 H   0  0  0  0  0  0  0  0  0  0  0  0
    0.1302    0.6659   -1.2050 C   0  0  0  0  0  0  0  0  0  0  0  0
   -0.8785    1.0767   -1.0947 H   0  0  0  0  0  0  0  0  0  0  0  0
    0.8150    1.3819   -0.7338 H   0  0  0  0  0  0  0  0  0  0  0  0
    0.5198    0.6204   -2.6996 C   0  0  0  0  0  0  0  0  0  0  0  0
   -0.2885    0.1404   -3.2574 H   0  0  0  0  0  0  0  0  0  0  0  0
    0.6074    1.6448   -3.0739 H   0  0  0  0  0  0  0  0  0  0  0  0
    1.8124   -0.1228   -3.0280 C   0  0  0  0  0  0  0  0  0  0  0  0
    2.8692    0.4681   -3.1201 O   0  0  0  0  0  0  0  0  0  0  0  0
    1.8448   -1.4588   -3.3138 N   0  0  0  0  0  0  0  0  0  0  0  0
    2.7759   -1.8650   -3.3576 H   0  0  0  0  0  0  0  0  0  0  0  0
    1.0625   -2.0343   -3.0219 H   0  0  0  0  0  0  0  0  0  0  0  0
    0.6767   -0.4133    1.0226 C   0  0  0  0  0  0  0  0  0  0  0  0
    1.8617   -0.4203    1.3223 O   0  0  0  0  0  0  0  0  0  0  0  0
   -0.2452    0.0640    1.9375 N   0  0  0  0  0  0  0  0  0  0  0  0
   -1.2232   -0.0222    1.6840 H   0  0  0  0  0  0  0  0  0  0  0  0
    0.0980    0.3516    3.3249 C   0  0  0  0  0  0  0  0  0  0  0  0
    0.8797    1.1171    3.3760 H   0  0  0  0  0  0  0  0  0  0  0  0
   -0.7799    0.7203    3.8638 H   0  0  0  0  0  0  0  0  0  0  0  0
    0.4586   -0.5537    3.8250 H   0  0  0  0  0  0  0  0  0  0  0  0
  1  2  1  0  0  0  0
  2  3  1  0  0  0  0
  2  4  1  0  0  0  0
  2  5  1  0  0  0  0
  5  6  2  0  0  0  0
  5  7  1  0  0  0  0
  7  8  1  0  0  0  0
  7  9  1  0  0  0  0
  9 10  1  0  0  0  0
  9 11  1  0  0  0  0
  9 22  1  0  0  0  0
 11 12  1  0  0  0  0
 11 13  1  0  0  0  0
 11 14  1  0  0  0  0
 14 15  1  0  0  0  0
 14 16  1  0  0  0  0
 14 17  1  0  0  0  0
 17 18  2  0  0  0  0
 17 19  1  0  0  0  0
 19 20  1  0  0  0  0
 19 21  1  0  0  0  0
 22 23  2  0  0  0  0
 22 24  1  0  0  0  0
 24 25  1  0  0  0  0
 24 26  1  0  0  0  0
 26 27  1  0  0  0  0
 26 28  1  0  0  0  0
 26 29  1  0  0  0  0
M  END
$$$$

  -OEChem-02102214123D

 29 28  0     1  0  0  0  0  0999 V2000
   -2.7494   -4.1964    0.2751 H   0  0  0  0  0  0  0  0  0  0  0  0
   -2.6825   -3.2330   -0.2389 C   0  0  0  0  0  0  0  0  0  0  0  0
   -3.4409   -2.5628    0.1727 H   0  0  0  0  0  0  0  0  0  0  0  0
   -2.8798   -3.3884   -1.3023 H   0  0  0  0  0  0  0  0  0  0  0  0
   -1.3004   -2.6374   -0.0484 C   0  0  0  0  0  0  0  0  0  0  0  0
   -0.4458   -3.2640    0.5491 O   0  0  0  0  0  0  0  0  0  0  0  0
   -1.0066   -1.3951   -0.5777 N   0  0  0  0  0  0  0  0  0  0  0  0
   -1.7509   -0.9223   -1.0821 H   0  0  0  0  0  0  0  0  0  0  0  0
    0.2913   -0.7091   -0.4219 C   0  0  1  0  0  0  0  0  0  0  0  0
    1.0927   -1.3484   -0.7988 H   0  0  0  0  0  0  0  0  0  0  0  0
    0.2140    0.6279   -1.1964 C   0  0  0  0  0  0  0  0  0  0  0  0
   -0.7847    1.0669   -1.1053 H   0  0  0  0  0  0  0  0  0  0  0  0
    0.9055    1.3232   -0.7045 H   0  0  0  0  0  0  0  0  0  0  0  0
    0.6427    0.5983   -2.6842 C   0  0  0  0  0  0  0  0  0  0  0  0
   -0.2420    0.3840   -3.2895 H   0  0  0  0  0  0  0  0  0  0  0  0
    0.9923    1.5951   -2.9706 H   0  0  0  0  0  0  0  0  0  0  0  0
    1.7085   -0.4197   -3.0840 C   0  0  0  0  0  0  0  0  0  0  0  0
    2.8549   -0.0821   -3.2986 O   0  0  0  0  0  0  0  0  0  0  0  0
    1.4169   -1.7325   -3.3268 N   0  0  0  0  0  0  0  0  0  0  0  0
    2.2286   -2.3347   -3.4369 H   0  0  0  0  0  0  0  0  0  0  0  0
    0.5659   -2.1136   -2.9285 H   0  0  0  0  0  0  0  0  0  0  0  0
    0.6594   -0.4379    1.0566 C   0  0  0  0  0  0  0  0  0  0  0  0
    1.8326   -0.4434    1.3993 O   0  0  0  0  0  0  0  0  0  0  0  0
   -0.2903    0.0660    1.9283 N   0  0  0  0  0  0  0  0  0  0  0  0
   -1.2594   -0.0128    1.6410 H   0  0  0  0  0  0  0  0  0  0  0  0
    0.0056    0.3849    3.3198 C   0  0  0  0  0  0  0  0  0  0  0  0
    0.7940    1.1426    3.3801 H   0  0  0  0  0  0  0  0  0  0  0  0
   -0.8864    0.7774    3.8171 H   0  0  0  0  0  0  0  0  0  0  0  0
    0.3367   -0.5112    3.8553 H   0  0  0  0  0  0  0  0  0  0  0  0
  1  2  1  0  0  0  0
  2  3  1  0  0  0  0
  2  4  1  0  0  0  0
  2  5  1  0  0  0  0
  5  6  2  0  0  0  0
  5  7  1  0  0  0  0
  7  8  1  0  0  0  0
  7  9  1  0  0  0  0
  9 10  1  0  0  0  0
  9 11  1  0  0  0  0
  9 22  1  0  0  0  0
 11 12  1  0  0  0  0
 11 13  1  0  0  0  0
 11 14  1  0  0  0  0
 14 15  1  0  0  0  0
 14 16  1  0  0  0  0
 14 17  1  0  0  0  0
 17 18  2  0  0  0  0
 17 19  1  0  0  0  0
 19 20  1  0  0  0  0
 19 21  1  0  0  0  0
 22 23  2  0  0  0  0
 22 24  1  0  0  0  0
 24 25  1  0  0  0  0
 24 26  1  0  0  0  0
 26 27  1  0  0  0  0
 26 28  1  0  0  0  0
 26 29  1  0  0  0  0
M  END
$$$$

  -OEChem-02102214123D

 29 28  0     1  0  0  0  0  0999 V2000
   -2.7917   -4.1847    0.3375 H   0  0  0  0  0  0  0  0  0  0  0  0
   -2.6565   -3.2733   -0.2521 C   0  0  0  0  0  0  0  0  0  0  0  0
   -3.4899   -2.5970   -0.0478 H   0  0  0  0  0  0  0  0  0  0  0  0
   -2.6595   -3.5377   -1.3121 H   0  0  0  0  0  0  0  0  0  0  0  0
   -1.3428   -2.6079    0.1128 C   0  0  0  0  0  0  0  0  0  0  0  0
   -0.6086   -3.1327    0.9290 O   0  0  0  0  0  0  0  0  0  0  0  0
   -0.9993   -1.4052   -0.4760 N   0  0  0  0  0  0  0  0  0  0  0  0
   -1.6177   -1.0716   -1.2081 H   0  0  0  0  0  0  0  0  0  0  0  0
    0.3161   -0.7509   -0.3251 C   0  0  1  0  0  0  0  0  0  0  0  0
    1.1073   -1.4288   -0.6602 H   0  0  0  0  0  0  0  0  0  0  0  0
    0.2940    0.5614   -1.1491 C   0  0  0  0  0  0  0  0  0  0  0  0
   -0.6933    1.0304   -1.0863 H   0  0  0  0  0  0  0  0  0  0  0  0
    0.9957    1.2533   -0.6674 H   0  0  0  0  0  0  0  0  0  0  0  0
    0.7436    0.4785   -2.6308 C   0  0  0  0  0  0  0  0  0  0  0  0
   -0.1442    0.5557   -3.2636 H   0  0  0  0  0  0  0  0  0  0  0  0
    1.3741    1.3434   -2.8594 H   0  0  0  0  0  0  0  0  0  0  0  0
    1.4951   -0.7812   -3.0494 C   0  0  0  0  0  0  0  0  0  0  0  0
    2.6972   -0.8819   -2.9169 O   0  0  0  0  0  0  0  0  0  0  0  0
    0.8632   -1.8524   -3.6149 N   0  0  0  0  0  0  0  0  0  0  0  0
    1.4768   -2.5658   -3.9998 H   0  0  0  0  0  0  0  0  0  0  0  0
   -0.0719   -1.7327   -3.9854 H   0  0  0  0  0  0  0  0  0  0  0  0
    0.6565   -0.4130    1.1474 C   0  0  0  0  0  0  0  0  0  0  0  0
    1.8213   -0.4090    1.5202 O   0  0  0  0  0  0  0  0  0  0  0  0
   -0.3044    0.1636    1.9597 N   0  0  0  0  0  0  0  0  0  0  0  0
   -1.2662    0.0408    1.6622 H   0  0  0  0  0  0  0  0  0  0  0  0
   -0.0451    0.5124    3.3511 C   0  0  0  0  0  0  0  0  0  0  0  0
    0.7629    1.2487    3.4180 H   0  0  0  0  0  0  0  0  0  0  0  0
   -0.9415    0.9433    3.8070 H   0  0  0  0  0  0  0  0  0  0  0  0
    0.2416   -0.3781    3.9205 H   0  0  0  0  0  0  0  0  0  0  0  0
  1  2  1  0  0  0  0
  2  3  1  0  0  0  0
  2  4  1  0  0  0  0
  2  5  1  0  0  0  0
  5  6  2  0  0  0  0
  5  7  1  0  0  0  0
  7  8  1  0  0  0  0
  7  9  1  0  0  0  0
  9 10  1  0  0  0  0
  9 11  1  0  0  0  0
  9 22  1  0  0  0  0
 11 12  1  0  0  0  0
 11 13  1  0  0  0  0
 11 14  1  0  0  0  0
 14 15  1  0  0  0  0
 14 16  1  0  0  0  0
 14 17  1  0  0  0  0
 17 18  2  0  0  0  0
 17 19  1  0  0  0  0
 19 20  1  0  0  0  0
 19 21  1  0  0  0  0
 22 23  2  0  0  0  0
 22 24  1  0  0  0  0
 24 25  1  0  0  0  0
 24 26  1  0  0  0  0
 26 27  1  0  0  0  0
 26 28  1  0  0  0  0
 26 29  1  0  0  0  0
M  END
$$$$

  -OEChem-02102214123D

 29 28  0     1  0  0  0  0  0999 V2000
   -2.6899   -4.3596    0.6170 H   0  0  0  0  0  0  0  0  0  0  0  0
   -2.6675   -3.4618   -0.0071 C   0  0  0  0  0  0  0  0  0  0  0  0
   -3.5735   -2.8805    0.1793 H   0  0  0  0  0  0  0  0  0  0  0  0
   -2.6457   -3.7642   -1.0573 H   0  0  0  0  0  0  0  0  0  0  0  0
   -1.4398   -2.6311    0.3151 C   0  0  0  0  0  0  0  0  0  0  0  0
   -0.6520   -3.0184    1.1605 O   0  0  0  0  0  0  0  0  0  0  0  0
   -1.2346   -1.4384   -0.3516 N   0  0  0  0  0  0  0  0  0  0  0  0
   -1.8357   -1.3198   -1.1648 H   0  0  0  0  0  0  0  0  0  0  0  0
    0.0810   -0.7775   -0.4324 C   0  0  1  0  0  0  0  0  0  0  0  0
    0.8050   -1.4627   -0.8820 H   0  0  0  0  0  0  0  0  0  0  0  0
   -0.0828    0.5205   -1.2642 C   0  0  0  0  0  0  0  0  0  0  0  0
   -1.0663    0.9581   -1.0619 H   0  0  0  0  0  0  0  0  0  0  0  0
    0.6566    1.2498   -0.9126 H   0  0  0  0  0  0  0  0  0  0  0  0
    0.1176    0.3948   -2.7962 C   0  0  0  0  0  0  0  0  0  0  0  0
   -0.7963    0.7256   -3.2982 H   0  0  0  0  0  0  0  0  0  0  0  0
    0.9150    1.0757   -3.1073 H   0  0  0  0  0  0  0  0  0  0  0  0
    0.4510   -0.9991   -3.3154 C   0  0  0  0  0  0  0  0  0  0  0  0
   -0.4255   -1.8333   -3.4535 O   0  0  0  0  0  0  0  0  0  0  0  0
    1.7330   -1.4058   -3.5515 N   0  0  0  0  0  0  0  0  0  0  0  0
    1.8638   -2.4061   -3.6745 H   0  0  0  0  0  0  0  0  0  0  0  0
    2.4965   -0.8375   -3.1979 H   0  0  0  0  0  0  0  0  0  0  0  0
    0.6842   -0.3984    0.9402 C   0  0  0  0  0  0  0  0  0  0  0  0
    1.9025   -0.3504    1.0587 O   0  0  0  0  0  0  0  0  0  0  0  0
   -0.1112    0.1991    1.9010 N   0  0  0  0  0  0  0  0  0  0  0  0
   -1.1063    0.0167    1.8114 H   0  0  0  0  0  0  0  0  0  0  0  0
    0.4047    0.5940    3.2055 C   0  0  0  0  0  0  0  0  0  0  0  0
    1.2193    1.3175    3.0942 H   0  0  0  0  0  0  0  0  0  0  0  0
   -0.3874    1.0584    3.8005 H   0  0  0  0  0  0  0  0  0  0  0  0
    0.7812   -0.2802    3.7470 H   0  0  0  0  0  0  0  0  0  0  0  0
  1  2  1  0  0  0  0
  2  3  1  0  0  0  0
  2  4  1  0  0  0  0
  2  5  1  0  0  0  0
  5  6  2  0  0  0  0
  5  7  1  0  0  0  0
  7  8  1  0  0  0  0
  7  9  1  0  0  0  0
  9 10  1  0  0  0  0
  9 11  1  0  0  0  0
  9 22  1  0  0  0  0
 11 12  1  0  0  0  0
 11 13  1  0  0  0  0
 11 14  1  0  0  0  0
 14 15  1  0  0  0  0
 14 16  1  0  0  0  0
 14 17  1  0  0  0  0
 17 18  2  0  0  0  0
 17 19  1  0  0  0  0
 19 20  1  0  0  0  0
 19 21  1  0  0  0  0
 22 23  2  0  0  0  0
 22 24  1  0  0  0  0
 24 25  1  0  0  0  0
 24 26  1  0  0  0  0
 26 27  1  0  0  0  0
 26 28  1  0  0  0  0
 26 29  1  0  0  0  0
M  END
$$$$

  -OEChem-02102214123D

 29 28  0     1  0  0  0  0  0999 V2000
   -2.6719   -4.3643    0.5068 H   0  0  0  0  0  0  0  0  0  0  0  0
   -2.6566   -3.4428   -0.0817 C   0  0  0  0  0  0  0  0  0  0  0  0
   -3.5661   -2.8750    0.1281 H   0  0  0  0  0  0  0  0  0  0  0  0
   -2.6344   -3.7032   -1.1432 H   0  0  0  0  0  0  0  0  0  0  0  0
   -1.4349   -2.6158    0.2712 C   0  0  0  0  0  0  0  0  0  0  0  0
   -0.6499   -3.0223    1.1101 O   0  0  0  0  0  0  0  0  0  0  0  0
   -1.2280   -1.4087   -0.3673 N   0  0  0  0  0  0  0  0  0  0  0  0
   -1.8085   -1.2913   -1.1982 H   0  0  0  0  0  0  0  0  0  0  0  0
    0.0866   -0.7423   -0.4238 C   0  0  1  0  0  0  0  0  0  0  0  0
    0.8157   -1.4101   -0.8933 H   0  0  0  0  0  0  0  0  0  0  0  0
   -0.0714    0.5717   -1.2294 C   0  0  0  0  0  0  0  0  0  0  0  0
   -1.0694    0.9817   -1.0409 H   0  0  0  0  0  0  0  0  0  0  0  0
    0.6445    1.3129   -0.8550 H   0  0  0  0  0  0  0  0  0  0  0  0
    0.1470    0.4586   -2.7586 C   0  0  0  0  0  0  0  0  0  0  0  0
   -0.6140    1.0482   -3.2778 H   0  0  0  0  0  0  0  0  0  0  0  0
    1.1172    0.8999   -3.0038 H   0  0  0  0  0  0  0  0  0  0  0  0
    0.1269   -0.9605   -3.3184 C   0  0  0  0  0  0  0  0  0  0  0  0
   -0.9091   -1.6021   -3.3473 O   0  0  0  0  0  0  0  0  0  0  0  0
    1.2624   -1.6083   -3.7132 N   0  0  0  0  0  0  0  0  0  0  0  0
    1.1771   -2.6094   -3.8647 H   0  0  0  0  0  0  0  0  0  0  0  0
    2.1640   -1.2064   -3.4753 H   0  0  0  0  0  0  0  0  0  0  0  0
    0.6805   -0.3912    0.9597 C   0  0  0  0  0  0  0  0  0  0  0  0
    1.8977   -0.3549    1.0907 O   0  0  0  0  0  0  0  0  0  0  0  0
   -0.1210    0.1837    1.9286 N   0  0  0  0  0  0  0  0  0  0  0  0
   -1.1168    0.0146    1.8229 H   0  0  0  0  0  0  0  0  0  0  0  0
    0.3846    0.5468    3.2461 C   0  0  0  0  0  0  0  0  0  0  0  0
    1.1964    1.2764    3.1588 H   0  0  0  0  0  0  0  0  0  0  0  0
   -0.4136    0.9917    3.8478 H   0  0  0  0  0  0  0  0  0  0  0  0
    0.7614   -0.3393    3.7675 H   0  0  0  0  0  0  0  0  0  0  0  0
  1  2  1  0  0  0  0
  2  3  1  0  0  0  0
  2  4  1  0  0  0  0
  2  5  1  0  0  0  0
  5  6  2  0  0  0  0
  5  7  1  0  0  0  0
  7  8  1  0  0  0  0
  7  9  1  0  0  0  0
  9 10  1  0  0  0  0
  9 11  1  0  0  0  0
  9 22  1  0  0  0  0
 11 12  1  0  0  0  0
 11 13  1  0  0  0  0
 11 14  1  0  0  0  0
 14 15  1  0  0  0  0
 14 16  1  0  0  0  0
 14 17  1  0  0  0  0
 17 18  2  0  0  0  0
 17 19  1  0  0  0  0
 19 20  1  0  0  0  0
 19 21  1  0  0  0  0
 22 23  2  0  0  0  0
 22 24  1  0  0  0  0
 24 25  1  0  0  0  0
 24 26  1  0  0  0  0
 26 27  1  0  0  0  0
 26 28  1  0  0  0  0
 26 29  1  0  0  0  0
M  END
$$$$

  -OEChem-02102214123D

 29 28  0     1  0  0  0  0  0999 V2000
   -2.6561   -4.3556    0.3990 H   0  0  0  0  0  0  0  0  0  0  0  0
   -2.6435   -3.4142   -0.1575 C   0  0  0  0  0  0  0  0  0  0  0  0
   -3.5495   -2.8517    0.0798 H   0  0  0  0  0  0  0  0  0  0  0  0
   -2.6312   -3.6372   -1.2276 H   0  0  0  0  0  0  0  0  0  0  0  0
   -1.4166   -2.6032    0.2124 C   0  0  0  0  0  0  0  0  0  0  0  0
   -0.6190   -3.0431    1.0221 O   0  0  0  0  0  0  0  0  0  0  0  0
   -1.2103   -1.3787   -0.3907 N   0  0  0  0  0  0  0  0  0  0  0  0
   -1.8011   -1.2257   -1.2109 H   0  0  0  0  0  0  0  0  0  0  0  0
    0.0979   -0.6982   -0.4209 C   0  0  1  0  0  0  0  0  0  0  0  0
    0.8328   -1.3474   -0.9083 H   0  0  0  0  0  0  0  0  0  0  0  0
   -0.0586    0.6245   -1.2086 C   0  0  0  0  0  0  0  0  0  0  0  0
   -1.0665    1.0188   -1.0388 H   0  0  0  0  0  0  0  0  0  0  0  0
    0.6414    1.3721   -0.8177 H   0  0  0  0  0  0  0  0  0  0  0  0
    0.1901    0.5066   -2.7301 C   0  0  0  0  0  0  0  0  0  0  0  0
   -0.3727    1.2838   -3.2550 H   0  0  0  0  0  0  0  0  0  0  0  0
    1.2514    0.6891   -2.9204 H   0  0  0  0  0  0  0  0  0  0  0  0
   -0.1641   -0.8525   -3.3295 C   0  0  0  0  0  0  0  0  0  0  0  0
   -1.3066   -1.2777   -3.2923 O   0  0  0  0  0  0  0  0  0  0  0  0
    0.7828   -1.6965   -3.8353 N   0  0  0  0  0  0  0  0  0  0  0  0
    0.4853   -2.6503   -4.0202 H   0  0  0  0  0  0  0  0  0  0  0  0
    1.7640   -1.4909   -3.6743 H   0  0  0  0  0  0  0  0  0  0  0  0
    0.6787   -0.3772    0.9750 C   0  0  0  0  0  0  0  0  0  0  0  0
    1.8942   -0.3389    1.1196 O   0  0  0  0  0  0  0  0  0  0  0  0
   -0.1364    0.1644    1.9516 N   0  0  0  0  0  0  0  0  0  0  0  0
   -1.1309   -0.0003    1.8281 H   0  0  0  0  0  0  0  0  0  0  0  0
    0.3523    0.5020    3.2822 C   0  0  0  0  0  0  0  0  0  0  0  0
    1.1533    1.2461    3.2201 H   0  0  0  0  0  0  0  0  0  0  0  0
   -0.4581    0.9194    3.8872 H   0  0  0  0  0  0  0  0  0  0  0  0
    0.7387   -0.3907    3.7853 H   0  0  0  0  0  0  0  0  0  0  0  0
  1  2  1  0  0  0  0
  2  3  1  0  0  0  0
  2  4  1  0  0  0  0
  2  5  1  0  0  0  0
  5  6  2  0  0  0  0
  5  7  1  0  0  0  0
  7  8  1  0  0  0  0
  7  9  1  0  0  0  0
  9 10  1  0  0  0  0
  9 11  1  0  0  0  0
  9 22  1  0  0  0  0
 11 12  1  0  0  0  0
 11 13  1  0  0  0  0
 11 14  1  0  0  0  0
 14 15  1  0  0  0  0
 14 16  1  0  0  0  0
 14 17  1  0  0  0  0
 17 18  2  0  0  0  0
 17 19  1  0  0  0  0
 19 20  1  0  0  0  0
 19 21  1  0  0  0  0
 22 23  2  0  0  0  0
 22 24  1  0  0  0  0
 24 25  1  0  0  0  0
 24 26  1  0  0  0  0
 26 27  1  0  0  0  0
 26 28  1  0  0  0  0
 26 29  1  0  0  0  0
M  END
$$$$

  -OEChem-02102214123D

 29 28  0     1  0  0  0  0  0999 V2000
   -2.6645   -4.3448    0.3503 H   0  0  0  0  0  0  0  0  0  0  0  0
   -2.6519   -3.3855   -0.1746 C   0  0  0  0  0  0  0  0  0  0  0  0
   -3.5487   -2.8228    0.0955 H   0  0  0  0  0  0  0  0  0  0  0  0
   -2.6592   -3.5728   -1.2514 H   0  0  0  0  0  0  0  0  0  0  0  0
   -1.4119   -2.5976    0.2025 C   0  0  0  0  0  0  0  0  0  0  0  0
   -0.6212   -3.0571    1.0081 O   0  0  0  0  0  0  0  0  0  0  0  0
   -1.1877   -1.3694   -0.3858 N   0  0  0  0  0  0  0  0  0  0  0  0
   -1.7856   -1.1795   -1.1944 H   0  0  0  0  0  0  0  0  0  0  0  0
    0.1179   -0.6837   -0.3817 C   0  0  1  0  0  0  0  0  0  0  0  0
    0.8615   -1.3308   -0.8600 H   0  0  0  0  0  0  0  0  0  0  0  0
   -0.0150    0.6354   -1.1774 C   0  0  0  0  0  0  0  0  0  0  0  0
   -1.0257    1.0372   -1.0455 H   0  0  0  0  0  0  0  0  0  0  0  0
    0.6798    1.3808   -0.7731 H   0  0  0  0  0  0  0  0  0  0  0  0
    0.2869    0.4859   -2.6838 C   0  0  0  0  0  0  0  0  0  0  0  0
   -0.0378    1.3860   -3.2131 H   0  0  0  0  0  0  0  0  0  0  0  0
    1.3697    0.4010   -2.8119 H   0  0  0  0  0  0  0  0  0  0  0  0
   -0.3690   -0.7314   -3.3322 C   0  0  0  0  0  0  0  0  0  0  0  0
   -1.5589   -0.9647   -3.1975 O   0  0  0  0  0  0  0  0  0  0  0  0
    0.3499   -1.6541   -4.0367 N   0  0  0  0  0  0  0  0  0  0  0  0
   -0.1750   -2.3728   -4.5268 H   0  0  0  0  0  0  0  0  0  0  0  0
    1.3149   -1.4591   -4.2835 H   0  0  0  0  0  0  0  0  0  0  0  0
    0.6655   -0.3678    1.0284 C   0  0  0  0  0  0  0  0  0  0  0  0
    1.8770   -0.3257    1.2026 O   0  0  0  0  0  0  0  0  0  0  0  0
   -0.1739    0.1656    1.9893 N   0  0  0  0  0  0  0  0  0  0  0  0
   -1.1653    0.0036    1.8401 H   0  0  0  0  0  0  0  0  0  0  0  0
    0.2835    0.4987    3.3323 C   0  0  0  0  0  0  0  0  0  0  0  0
    1.0833    1.2456    3.2915 H   0  0  0  0  0  0  0  0  0  0  0  0
   -0.5411    0.9109    3.9215 H   0  0  0  0  0  0  0  0  0  0  0  0
    0.6616   -0.3953    3.8394 H   0  0  0  0  0  0  0  0  0  0  0  0
  1  2  1  0  0  0  0
  2  3  1  0  0  0  0
  2  4  1  0  0  0  0
  2  5  1  0  0  0  0
  5  6  2  0  0  0  0
  5  7  1  0  0  0  0
  7  8  1  0  0  0  0
  7  9  1  0  0  0  0
  9 10  1  0  0  0  0
  9 11  1  0  0  0  0
  9 22  1  0  0  0  0
 11 12  1  0  0  0  0
 11 13  1  0  0  0  0
 11 14  1  0  0  0  0
 14 15  1  0  0  0  0
 14 16  1  0  0  0  0
 14 17  1  0  0  0  0
 17 18  2  0  0  0  0
 17 19  1  0  0  0  0
 19 20  1  0  0  0  0
 19 21  1  0  0  0  0
 22 23  2  0  0  0  0
 22 24  1  0  0  0  0
 24 25  1  0  0  0  0
 24 26  1  0  0  0  0
 26 27  1  0  0  0  0
 26 28  1  0  0  0  0
 26 29  1  0  0  0  0
M  END
$$$$

  -OEChem-02102214123D

 29 28  0     1  0  0  0  0  0999 V2000
   -2.6851   -4.3203    0.3422 H   0  0  0  0  0  0  0  0  0  0  0  0
   -2.6626   -3.3543   -0.1697 C   0  0  0  0  0  0  0  0  0  0  0  0
   -3.5448   -2.7793    0.1210 H   0  0  0  0  0  0  0  0  0  0  0  0
   -2.6888   -3.5262   -1.2487 H   0  0  0  0  0  0  0  0  0  0  0  0
   -1.4034   -2.5945    0.2010 C   0  0  0  0  0  0  0  0  0  0  0  0
   -0.6175   -3.0725    1.0005 O   0  0  0  0  0  0  0  0  0  0  0  0
   -1.1563   -1.3692   -0.3833 N   0  0  0  0  0  0  0  0  0  0  0  0
   -1.7661   -1.1410   -1.1736 H   0  0  0  0  0  0  0  0  0  0  0  0
    0.1484   -0.6844   -0.3521 C   0  0  1  0  0  0  0  0  0  0  0  0
    0.9010   -1.3349   -0.8110 H   0  0  0  0  0  0  0  0  0  0  0  0
    0.0308    0.6259   -1.1620 C   0  0  0  0  0  0  0  0  0  0  0  0
   -0.9757    1.0456   -1.0542 H   0  0  0  0  0  0  0  0  0  0  0  0
    0.7312    1.3648   -0.7553 H   0  0  0  0  0  0  0  0  0  0  0  0
    0.3732    0.4375   -2.6542 C   0  0  0  0  0  0  0  0  0  0  0  0
    0.2942    1.4007   -3.1660 H   0  0  0  0  0  0  0  0  0  0  0  0
    1.4108    0.1020   -2.7385 H   0  0  0  0  0  0  0  0  0  0  0  0
   -0.5281   -0.5641   -3.3757 C   0  0  0  0  0  0  0  0  0  0  0  0
   -1.7073   -0.7068   -3.0965 O   0  0  0  0  0  0  0  0  0  0  0  0
   -0.0493   -1.3754   -4.3636 N   0  0  0  0  0  0  0  0  0  0  0  0
   -0.7354   -1.9073   -4.8913 H   0  0  0  0  0  0  0  0  0  0  0  0
    0.8751   -1.2045   -4.7462 H   0  0  0  0  0  0  0  0  0  0  0  0
    0.6606   -0.3652    1.0703 C   0  0  0  0  0  0  0  0  0  0  0  0
    1.8667   -0.3286    1.2790 O   0  0  0  0  0  0  0  0  0  0  0  0
   -0.2035    0.1708    2.0075 N   0  0  0  0  0  0  0  0  0  0  0  0
   -1.1915    0.0198    1.8274 H   0  0  0  0  0  0  0  0  0  0  0  0
    0.2158    0.4998    3.3636 C   0  0  0  0  0  0  0  0  0  0  0  0
    1.0067    1.2570    3.3479 H   0  0  0  0  0  0  0  0  0  0  0  0
   -0.6289    0.8967    3.9347 H   0  0  0  0  0  0  0  0  0  0  0  0
    0.5927   -0.3929    3.8739 H   0  0  0  0  0  0  0  0  0  0  0  0
  1  2  1  0  0  0  0
  2  3  1  0  0  0  0
  2  4  1  0  0  0  0
  2  5  1  0  0  0  0
  5  6  2  0  0  0  0
  5  7  1  0  0  0  0
  7  8  1  0  0  0  0
  7  9  1  0  0  0  0
  9 10  1  0  0  0  0
  9 11  1  0  0  0  0
  9 22  1  0  0  0  0
 11 12  1  0  0  0  0
 11 13  1  0  0  0  0
 11 14  1  0  0  0  0
 14 15  1  0  0  0  0
 14 16  1  0  0  0  0
 14 17  1  0  0  0  0
 17 18  2  0  0  0  0
 17 19  1  0  0  0  0
 19 20  1  0  0  0  0
 19 21  1  0  0  0  0
 22 23  2  0  0  0  0
 22 24  1  0  0  0  0
 24 25  1  0  0  0  0
 24 26  1  0  0  0  0
 26 27  1  0  0  0  0
 26 28  1  0  0  0  0
 26 29  1  0  0  0  0
M  END
$$$$

  -OEChem-02102214123D

 29 28  0     1  0  0  0  0  0999 V2000
   -2.7245   -4.3090    0.3836 H   0  0  0  0  0  0  0  0  0  0  0  0
   -2.6852   -3.3428   -0.1271 C   0  0  0  0  0  0  0  0  0  0  0  0
   -3.5504   -2.7478    0.1749 H   0  0  0  0  0  0  0  0  0  0  0  0
   -2.7282   -3.5126   -1.2060 H   0  0  0  0  0  0  0  0  0  0  0  0
   -1.4050   -2.6123    0.2306 C   0  0  0  0  0  0  0  0  0  0  0  0
   -0.6339   -3.0960    1.0411 O   0  0  0  0  0  0  0  0  0  0  0  0
   -1.1255   -1.4027   -0.3711 N   0  0  0  0  0  0  0  0  0  0  0  0
   -1.7304   -1.1594   -1.1609 H   0  0  0  0  0  0  0  0  0  0  0  0
    0.1832   -0.7281   -0.3191 C   0  0  1  0  0  0  0  0  0  0  0  0
    0.9435   -1.3918   -0.7452 H   0  0  0  0  0  0  0  0  0  0  0  0
    0.0837    0.5666   -1.1539 C   0  0  0  0  0  0  0  0  0  0  0  0
   -0.9125    1.0140   -1.0636 H   0  0  0  0  0  0  0  0  0  0  0  0
    0.7957    1.2963   -0.7512 H   0  0  0  0  0  0  0  0  0  0  0  0
    0.4571    0.3390   -2.6333 C   0  0  0  0  0  0  0  0  0  0  0  0
    0.6274    1.3115   -3.1034 H   0  0  0  0  0  0  0  0  0  0  0  0
    1.3929   -0.2240   -2.6952 H   0  0  0  0  0  0  0  0  0  0  0  0
   -0.6209   -0.3848   -3.4424 C   0  0  0  0  0  0  0  0  0  0  0  0
   -1.7508   -0.5863   -3.0273 O   0  0  0  0  0  0  0  0  0  0  0  0
   -0.3656   -0.8493   -4.7001 N   0  0  0  0  0  0  0  0  0  0  0  0
   -1.1633   -1.1808   -5.2352 H   0  0  0  0  0  0  0  0  0  0  0  0
    0.4919   -0.5755   -5.1688 H   0  0  0  0  0  0  0  0  0  0  0  0
    0.6575   -0.3822    1.1099 C   0  0  0  0  0  0  0  0  0  0  0  0
    1.8570   -0.3471    1.3534 O   0  0  0  0  0  0  0  0  0  0  0  0
   -0.2301    0.1810    2.0082 N   0  0  0  0  0  0  0  0  0  0  0  0
   -1.2136    0.0364    1.8007 H   0  0  0  0  0  0  0  0  0  0  0  0
    0.1513    0.5489    3.3655 C   0  0  0  0  0  0  0  0  0  0  0  0
    0.9562    1.2912    3.3506 H   0  0  0  0  0  0  0  0  0  0  0  0
   -0.7039    0.9799    3.8944 H   0  0  0  0  0  0  0  0  0  0  0  0
    0.4946   -0.3325    3.9173 H   0  0  0  0  0  0  0  0  0  0  0  0
  1  2  1  0  0  0  0
  2  3  1  0  0  0  0
  2  4  1  0  0  0  0
  2  5  1  0  0  0  0
  5  6  2  0  0  0  0
  5  7  1  0  0  0  0
  7  8  1  0  0  0  0
  7  9  1  0  0  0  0
  9 10  1  0  0  0  0
  9 11  1  0  0  0  0
  9 22  1  0  0  0  0
 11 12  1  0  0  0  0
 11 13  1  0  0  0  0
 11 14  1  0  0  0  0
 14 15  1  0  0  0  0
 14 16  1  0  0  0  0
 14 17  1  0  0  0  0
 17 18  2  0  0  0  0
 17 19  1  0  0  0  0
 19 20  1  0  0  0  0
 19 21  1  0  0  0  0
 22 23  2  0  0  0  0
 22 24  1  0  0  0  0
 24 25  1  0  0  0  0
 24 26  1  0  0  0  0
 26 27  1  0  0  0  0
 26 28  1  0  0  0  0
 26 29  1  0  0  0  0
M  END
$$$$

  -OEChem-02102214123D

 29 28  0     1  0  0  0  0  0999 V2000
   -2.7478   -4.2952    0.3818 H   0  0  0  0  0  0  0  0  0  0  0  0
   -2.7030   -3.3250   -0.1209 C   0  0  0  0  0  0  0  0  0  0  0  0
   -3.5651   -2.7276    0.1848 H   0  0  0  0  0  0  0  0  0  0  0  0
   -2.7455   -3.4856   -1.2011 H   0  0  0  0  0  0  0  0  0  0  0  0
   -1.4189   -2.6053    0.2447 C   0  0  0  0  0  0  0  0  0  0  0  0
   -0.6663   -3.0868    1.0736 O   0  0  0  0  0  0  0  0  0  0  0  0
   -1.1125   -1.4098   -0.3720 N   0  0  0  0  0  0  0  0  0  0  0  0
   -1.7016   -1.1669   -1.1738 H   0  0  0  0  0  0  0  0  0  0  0  0
    0.2038   -0.7521   -0.3056 C   0  0  1  0  0  0  0  0  0  0  0  0
    0.9640   -1.4306   -0.7065 H   0  0  0  0  0  0  0  0  0  0  0  0
    0.1137    0.5261   -1.1636 C   0  0  0  0  0  0  0  0  0  0  0  0
   -0.8752    0.9920   -1.0833 H   0  0  0  0  0  0  0  0  0  0  0  0
    0.8340    1.2516   -0.7681 H   0  0  0  0  0  0  0  0  0  0  0  0
    0.5018    0.2638   -2.6344 C   0  0  0  0  0  0  0  0  0  0  0  0
    0.9120    1.1888   -3.0493 H   0  0  0  0  0  0  0  0  0  0  0  0
    1.2832   -0.4980   -2.7041 H   0  0  0  0  0  0  0  0  0  0  0  0
   -0.6897   -0.1391   -3.5044 C   0  0  0  0  0  0  0  0  0  0  0  0
   -1.7525   -0.5230   -3.0427 O   0  0  0  0  0  0  0  0  0  0  0  0
   -0.6090   -0.1245   -4.8670 N   0  0  0  0  0  0  0  0  0  0  0  0
   -1.3741   -0.5645   -5.3704 H   0  0  0  0  0  0  0  0  0  0  0  0
    0.2972   -0.0094   -5.3092 H   0  0  0  0  0  0  0  0  0  0  0  0
    0.6577   -0.3869    1.1255 C   0  0  0  0  0  0  0  0  0  0  0  0
    1.8528   -0.3696    1.3912 O   0  0  0  0  0  0  0  0  0  0  0  0
   -0.2364    0.2043    1.9992 N   0  0  0  0  0  0  0  0  0  0  0  0
   -1.2182    0.0739    1.7754 H   0  0  0  0  0  0  0  0  0  0  0  0
    0.1258    0.5821    3.3592 C   0  0  0  0  0  0  0  0  0  0  0  0
    0.9458    1.3079    3.3513 H   0  0  0  0  0  0  0  0  0  0  0  0
   -0.7307    1.0371    3.8656 H   0  0  0  0  0  0  0  0  0  0  0  0
    0.4399   -0.2988    3.9288 H   0  0  0  0  0  0  0  0  0  0  0  0
  1  2  1  0  0  0  0
  2  3  1  0  0  0  0
  2  4  1  0  0  0  0
  2  5  1  0  0  0  0
  5  6  2  0  0  0  0
  5  7  1  0  0  0  0
  7  8  1  0  0  0  0
  7  9  1  0  0  0  0
  9 10  1  0  0  0  0
  9 11  1  0  0  0  0
  9 22  1  0  0  0  0
 11 12  1  0  0  0  0
 11 13  1  0  0  0  0
 11 14  1  0  0  0  0
 14 15  1  0  0  0  0
 14 16  1  0  0  0  0
 14 17  1  0  0  0  0
 17 18  2  0  0  0  0
 17 19  1  0  0  0  0
 19 20  1  0  0  0  0
 19 21  1  0  0  0  0
 22 23  2  0  0  0  0
 22 24  1  0  0  0  0
 24 25  1  0  0  0  0
 24 26  1  0  0  0  0
 26 27  1  0  0  0  0
 26 28  1  0  0  0  0
 26 29  1  0  0  0  0
M  END
$$$$

  -OEChem-02102214123D

 29 28  0     1  0  0  0  0  0999 V2000
   -2.8052   -4.2657    0.4474 H   0  0  0  0  0  0  0  0  0  0  0  0
   -2.7238   -3.3218   -0.0990 C   0  0  0  0  0  0  0  0  0  0  0  0
   -3.5800   -2.6922    0.1540 H   0  0  0  0  0  0  0  0  0  0  0  0
   -2.7408   -3.5331   -1.1711 H   0  0  0  0  0  0  0  0  0  0  0  0
   -1.4331   -2.6143    0.2684 C   0  0  0  0  0  0  0  0  0  0  0  0
   -0.7092   -3.0800    1.1311 O   0  0  0  0  0  0  0  0  0  0  0  0
   -1.0909   -1.4449   -0.3793 N   0  0  0  0  0  0  0  0  0  0  0  0
   -1.6611   -1.2118   -1.1967 H   0  0  0  0  0  0  0  0  0  0  0  0
    0.2358   -0.8075   -0.3016 C   0  0  1  0  0  0  0  0  0  0  0  0
    0.9995   -1.5021   -0.6674 H   0  0  0  0  0  0  0  0  0  0  0  0
    0.1525    0.4440   -1.1939 C   0  0  0  0  0  0  0  0  0  0  0  0
   -0.8331    0.9194   -1.1273 H   0  0  0  0  0  0  0  0  0  0  0  0
    0.8741    1.1779   -0.8168 H   0  0  0  0  0  0  0  0  0  0  0  0
    0.5522    0.1271   -2.6506 C   0  0  0  0  0  0  0  0  0  0  0  0
    1.2026    0.9264   -3.0166 H   0  0  0  0  0  0  0  0  0  0  0  0
    1.1117   -0.8090   -2.7290 H   0  0  0  0  0  0  0  0  0  0  0  0
   -0.6786    0.0631   -3.5503 C   0  0  0  0  0  0  0  0  0  0  0  0
   -1.7181   -0.4534   -3.1720 O   0  0  0  0  0  0  0  0  0  0  0  0
   -0.6776    0.5658   -4.8196 N   0  0  0  0  0  0  0  0  0  0  0  0
   -1.4790    0.3316   -5.3988 H   0  0  0  0  0  0  0  0  0  0  0  0
    0.2043    0.8286   -5.2475 H   0  0  0  0  0  0  0  0  0  0  0  0
    0.6629   -0.4032    1.1272 C   0  0  0  0  0  0  0  0  0  0  0  0
    1.8521   -0.3904    1.4182 O   0  0  0  0  0  0  0  0  0  0  0  0
   -0.2412    0.2317    1.9590 N   0  0  0  0  0  0  0  0  0  0  0  0
   -1.2199    0.1029    1.7210 H   0  0  0  0  0  0  0  0  0  0  0  0
    0.0986    0.6585    3.3102 C   0  0  0  0  0  0  0  0  0  0  0  0
    0.9219    1.3803    3.2891 H   0  0  0  0  0  0  0  0  0  0  0  0
   -0.7646    1.1354    3.7841 H   0  0  0  0  0  0  0  0  0  0  0  0
    0.3991   -0.2016    3.9180 H   0  0  0  0  0  0  0  0  0  0  0  0
  1  2  1  0  0  0  0
  2  3  1  0  0  0  0
  2  4  1  0  0  0  0
  2  5  1  0  0  0  0
  5  6  2  0  0  0  0
  5  7  1  0  0  0  0
  7  8  1  0  0  0  0
  7  9  1  0  0  0  0
  9 10  1  0  0  0  0
  9 11  1  0  0  0  0
  9 22  1  0  0  0  0
 11 12  1  0  0  0  0
 11 13  1  0  0  0  0
 11 14  1  0  0  0  0
 14 15  1  0  0  0  0
 14 16  1  0  0  0  0
 14 17  1  0  0  0  0
 17 18  2  0  0  0  0
 17 19  1  0  0  0  0
 19 20  1  0  0  0  0
 19 21  1  0  0  0  0
 22 23  2  0  0  0  0
 22 24  1  0  0  0  0
 24 25  1  0  0  0  0
 24 26  1  0  0  0  0
 26 27  1  0  0  0  0
 26 28  1  0  0  0  0
 26 29  1  0  0  0  0
M  END
$$$$

  -OEChem-02102214123D

 29 28  0     1  0  0  0  0  0999 V2000
   -2.8364   -4.2579    0.5201 H   0  0  0  0  0  0  0  0  0  0  0  0
   -2.7581   -3.3180   -0.0338 C   0  0  0  0  0  0  0  0  0  0  0  0
   -3.5930   -2.6717    0.2478 H   0  0  0  0  0  0  0  0  0  0  0  0
   -2.8190   -3.5345   -1.1033 H   0  0  0  0  0  0  0  0  0  0  0  0
   -1.4418   -2.6331    0.2827 C   0  0  0  0  0  0  0  0  0  0  0  0
   -0.6941   -3.1090    1.1188 O   0  0  0  0  0  0  0  0  0  0  0  0
   -1.1025   -1.4704   -0.3792 N   0  0  0  0  0  0  0  0  0  0  0  0
   -1.7078   -1.2075   -1.1582 H   0  0  0  0  0  0  0  0  0  0  0  0
    0.2250   -0.8315   -0.3173 C   0  0  1  0  0  0  0  0  0  0  0  0
    0.9877   -1.5298   -0.6787 H   0  0  0  0  0  0  0  0  0  0  0  0
    0.1387    0.4068   -1.2256 C   0  0  0  0  0  0  0  0  0  0  0  0
   -0.8547    0.8664   -1.1609 H   0  0  0  0  0  0  0  0  0  0  0  0
    0.8488    1.1591   -0.8628 H   0  0  0  0  0  0  0  0  0  0  0  0
    0.5330    0.0669   -2.6794 C   0  0  0  0  0  0  0  0  0  0  0  0
    1.3951    0.6743   -2.9685 H   0  0  0  0  0  0  0  0  0  0  0  0
    0.8211   -0.9823   -2.7889 H   0  0  0  0  0  0  0  0  0  0  0  0
   -0.6218    0.3509   -3.6314 C   0  0  0  0  0  0  0  0  0  0  0  0
   -1.7378   -0.0862   -3.4066 O   0  0  0  0  0  0  0  0  0  0  0  0
   -0.4737    1.1044   -4.7604 N   0  0  0  0  0  0  0  0  0  0  0  0
   -1.2559    1.1036   -5.4090 H   0  0  0  0  0  0  0  0  0  0  0  0
    0.4603    1.3331   -5.0846 H   0  0  0  0  0  0  0  0  0  0  0  0
    0.6630   -0.4107    1.1033 C   0  0  0  0  0  0  0  0  0  0  0  0
    1.8546   -0.3920    1.3840 O   0  0  0  0  0  0  0  0  0  0  0  0
   -0.2340    0.2336    1.9355 N   0  0  0  0  0  0  0  0  0  0  0  0
   -1.2152    0.1072    1.7075 H   0  0  0  0  0  0  0  0  0  0  0  0
    0.1197    0.6845    3.2752 C   0  0  0  0  0  0  0  0  0  0  0  0
    0.9379    1.4110    3.2317 H   0  0  0  0  0  0  0  0  0  0  0  0
   -0.7406    1.1634    3.7522 H   0  0  0  0  0  0  0  0  0  0  0  0
    0.4336   -0.1633    3.8935 H   0  0  0  0  0  0  0  0  0  0  0  0
  1  2  1  0  0  0  0
  2  3  1  0  0  0  0
  2  4  1  0  0  0  0
  2  5  1  0  0  0  0
  5  6  2  0  0  0  0
  5  7  1  0  0  0  0
  7  8  1  0  0  0  0
  7  9  1  0  0  0  0
  9 10  1  0  0  0  0
  9 11  1  0  0  0  0
  9 22  1  0  0  0  0
 11 12  1  0  0  0  0
 11 13  1  0  0  0  0
 11 14  1  0  0  0  0
 14 15  1  0  0  0  0
 14 16  1  0  0  0  0
 14 17  1  0  0  0  0
 17 18  2  0  0  0  0
 17 19  1  0  0  0  0
 19 20  1  0  0  0  0
 19 21  1  0  0  0  0
 22 23  2  0  0  0  0
 22 24  1  0  0  0  0
 24 25  1  0  0  0  0
 24 26  1  0  0  0  0
 26 27  1  0  0  0  0
 26 28  1  0  0  0  0
 26 29  1  0  0  0  0
M  END
$$$$

  -OEChem-02102214123D

 29 28  0     1  0  0  0  0  0999 V2000
   -2.8603   -4.2325    0.6758 H   0  0  0  0  0  0  0  0  0  0  0  0
   -2.7847   -3.3250    0.0701 C   0  0  0  0  0  0  0  0  0  0  0  0
   -3.5973   -2.6489    0.3464 H   0  0  0  0  0  0  0  0  0  0  0  0
   -2.8875   -3.5960   -0.9834 H   0  0  0  0  0  0  0  0  0  0  0  0
   -1.4460   -2.6510    0.3043 C   0  0  0  0  0  0  0  0  0  0  0  0
   -0.6542   -3.1328    1.0948 O   0  0  0  0  0  0  0  0  0  0  0  0
   -1.1373   -1.4890   -0.3751 N   0  0  0  0  0  0  0  0  0  0  0  0
   -1.7899   -1.2066   -1.1047 H   0  0  0  0  0  0  0  0  0  0  0  0
    0.1866   -0.8388   -0.3544 C   0  0  1  0  0  0  0  0  0  0  0  0
    0.9418   -1.5397   -0.7275 H   0  0  0  0  0  0  0  0  0  0  0  0
    0.1055    0.3939   -1.2721 C   0  0  0  0  0  0  0  0  0  0  0  0
   -0.8967    0.8338   -1.2112 H   0  0  0  0  0  0  0  0  0  0  0  0
    0.8056    1.1619   -0.9230 H   0  0  0  0  0  0  0  0  0  0  0  0
    0.4829    0.0373   -2.7253 C   0  0  0  0  0  0  0  0  0  0  0  0
    1.4991    0.3814   -2.9371 H   0  0  0  0  0  0  0  0  0  0  0  0
    0.4642   -1.0456   -2.8789 H   0  0  0  0  0  0  0  0  0  0  0  0
   -0.4968    0.6535   -3.7150 C   0  0  0  0  0  0  0  0  0  0  0  0
   -1.6836    0.3831   -3.6728 O   0  0  0  0  0  0  0  0  0  0  0  0
   -0.1085    1.5656   -4.6539 N   0  0  0  0  0  0  0  0  0  0  0  0
   -0.8014    1.8203   -5.3520 H   0  0  0  0  0  0  0  0  0  0  0  0
    0.8804    1.6995   -4.8378 H   0  0  0  0  0  0  0  0  0  0  0  0
    0.6557   -0.4079    1.0537 C   0  0  0  0  0  0  0  0  0  0  0  0
    1.8529   -0.3887    1.3084 O   0  0  0  0  0  0  0  0  0  0  0  0
   -0.2239    0.2327    1.9075 N   0  0  0  0  0  0  0  0  0  0  0  0
   -1.2097    0.1111    1.6985 H   0  0  0  0  0  0  0  0  0  0  0  0
    0.1570    0.6735    3.2436 C   0  0  0  0  0  0  0  0  0  0  0  0
    0.9780    1.3964    3.1905 H   0  0  0  0  0  0  0  0  0  0  0  0
   -0.6918    1.1535    3.7401 H   0  0  0  0  0  0  0  0  0  0  0  0
    0.4779   -0.1802    3.8501 H   0  0  0  0  0  0  0  0  0  0  0  0
  1  2  1  0  0  0  0
  2  3  1  0  0  0  0
  2  4  1  0  0  0  0
  2  5  1  0  0  0  0
  5  6  2  0  0  0  0
  5  7  1  0  0  0  0
  7  8  1  0  0  0  0
  7  9  1  0  0  0  0
  9 10  1  0  0  0  0
  9 11  1  0  0  0  0
  9 22  1  0  0  0  0
 11 12  1  0  0  0  0
 11 13  1  0  0  0  0
 11 14  1  0  0  0  0
 14 15  1  0  0  0  0
 14 16  1  0  0  0  0
 14 17  1  0  0  0  0
 17 18  2  0  0  0  0
 17 19  1  0  0  0  0
 19 20  1  0  0  0  0
 19 21  1  0  0  0  0
 22 23  2  0  0  0  0
 22 24  1  0  0  0  0
 24 25  1  0  0  0  0
 24 26  1  0  0  0  0
 26 27  1  0  0  0  0
 26 28  1  0  0  0  0
 26 29  1  0  0  0  0
M  END
$$$$

  -OEChem-02102214123D

 29 28  0     1  0  0  0  0  0999 V2000
   -2.8786   -4.2313    0.7455 H   0  0  0  0  0  0  0  0  0  0  0  0
   -2.8104   -3.3366    0.1200 C   0  0  0  0  0  0  0  0  0  0  0  0
   -3.6130   -2.6500    0.3995 H   0  0  0  0  0  0  0  0  0  0  0  0
   -2.9367   -3.6284   -0.9254 H   0  0  0  0  0  0  0  0  0  0  0  0
   -1.4626   -2.6669    0.3117 C   0  0  0  0  0  0  0  0  0  0  0  0
   -0.6471   -3.1497    1.0767 O   0  0  0  0  0  0  0  0  0  0  0  0
   -1.1708   -1.5080   -0.3806 N   0  0  0  0  0  0  0  0  0  0  0  0
   -1.8513   -1.2153   -1.0783 H   0  0  0  0  0  0  0  0  0  0  0  0
    0.1530   -0.8568   -0.3949 C   0  0  1  0  0  0  0  0  0  0  0  0
    0.8960   -1.5630   -0.7825 H   0  0  0  0  0  0  0  0  0  0  0  0
    0.0687    0.3707   -1.3186 C   0  0  0  0  0  0  0  0  0  0  0  0
   -0.9366    0.8029   -1.2566 H   0  0  0  0  0  0  0  0  0  0  0  0
    0.7692    1.1455   -0.9853 H   0  0  0  0  0  0  0  0  0  0  0  0
    0.4225   -0.0038   -2.7698 C   0  0  0  0  0  0  0  0  0  0  0  0
    1.5032    0.0667   -2.9217 H   0  0  0  0  0  0  0  0  0  0  0  0
    0.1268   -1.0363   -2.9782 H   0  0  0  0  0  0  0  0  0  0  0  0
   -0.3132    0.8858   -3.7619 C   0  0  0  0  0  0  0  0  0  0  0  0
   -1.5272    0.8641   -3.8460 O   0  0  0  0  0  0  0  0  0  0  0  0
    0.3377    1.8017   -4.5375 N   0  0  0  0  0  0  0  0  0  0  0  0
   -0.2439    2.4765   -5.0262 H   0  0  0  0  0  0  0  0  0  0  0  0
    1.3166    1.9996   -4.3580 H   0  0  0  0  0  0  0  0  0  0  0  0
    0.6571   -0.4180    0.9982 C   0  0  0  0  0  0  0  0  0  0  0  0
    1.8612   -0.3808    1.2158 O   0  0  0  0  0  0  0  0  0  0  0  0
   -0.2027    0.2267    1.8689 N   0  0  0  0  0  0  0  0  0  0  0  0
   -1.1936    0.0954    1.6920 H   0  0  0  0  0  0  0  0  0  0  0  0
    0.2158    0.7041    3.1807 C   0  0  0  0  0  0  0  0  0  0  0  0
    1.0158    1.4455    3.0816 H   0  0  0  0  0  0  0  0  0  0  0  0
   -0.6260    1.1737    3.6984 H   0  0  0  0  0  0  0  0  0  0  0  0
    0.5798   -0.1286    3.7918 H   0  0  0  0  0  0  0  0  0  0  0  0
  1  2  1  0  0  0  0
  2  3  1  0  0  0  0
  2  4  1  0  0  0  0
  2  5  1  0  0  0  0
  5  6  2  0  0  0  0
  5  7  1  0  0  0  0
  7  8  1  0  0  0  0
  7  9  1  0  0  0  0
  9 10  1  0  0  0  0
  9 11  1  0  0  0  0
  9 22  1  0  0  0  0
 11 12  1  0  0  0  0
 11 13  1  0  0  0  0
 11 14  1  0  0  0  0
 14 15  1  0  0  0  0
 14 16  1  0  0  0  0
 14 17  1  0  0  0  0
 17 18  2  0  0  0  0
 17 19  1  0  0  0  0
 19 20  1  0  0  0  0
 19 21  1  0  0  0  0
 22 23  2  0  0  0  0
 22 24  1  0  0  0  0
 24 25  1  0  0  0  0
 24 26  1  0  0  0  0
 26 27  1  0  0  0  0
 26 28  1  0  0  0  0
 26 29  1  0  0  0  0
M  END
$$$$

  -OEChem-02102214123D

 29 28  0     1  0  0  0  0  0999 V2000
   -2.8595   -4.2389    0.7628 H   0  0  0  0  0  0  0  0  0  0  0  0
   -2.8120   -3.3390    0.1427 C   0  0  0  0  0  0  0  0  0  0  0  0
   -3.6077   -2.6569    0.4516 H   0  0  0  0  0  0  0  0  0  0  0  0
   -2.9682   -3.6231   -0.9009 H   0  0  0  0  0  0  0  0  0  0  0  0
   -1.4610   -2.6669    0.3002 C   0  0  0  0  0  0  0  0  0  0  0  0
   -0.6213   -3.1562    1.0340 O   0  0  0  0  0  0  0  0  0  0  0  0
   -1.1939   -1.4985   -0.3865 N   0  0  0  0  0  0  0  0  0  0  0  0
   -1.8986   -1.1942   -1.0538 H   0  0  0  0  0  0  0  0  0  0  0  0
    0.1258   -0.8404   -0.4252 C   0  0  1  0  0  0  0  0  0  0  0  0
    0.8604   -1.5419   -0.8369 H   0  0  0  0  0  0  0  0  0  0  0  0
    0.0216    0.3945   -1.3373 C   0  0  0  0  0  0  0  0  0  0  0  0
   -0.9820    0.8289   -1.2613 H   0  0  0  0  0  0  0  0  0  0  0  0
    0.7310    1.1640   -1.0107 H   0  0  0  0  0  0  0  0  0  0  0  0
    0.3486    0.0286   -2.7939 C   0  0  0  0  0  0  0  0  0  0  0  0
    1.4226   -0.1469   -2.9035 H   0  0  0  0  0  0  0  0  0  0  0  0
   -0.1696   -0.8925   -3.0762 H   0  0  0  0  0  0  0  0  0  0  0  0
   -0.1008    1.1294   -3.7440 C   0  0  0  0  0  0  0  0  0  0  0  0
   -1.2809    1.3723   -3.9125 O   0  0  0  0  0  0  0  0  0  0  0  0
    0.7883    1.9497   -4.3772 N   0  0  0  0  0  0  0  0  0  0  0  0
    0.3997    2.7711   -4.8318 H   0  0  0  0  0  0  0  0  0  0  0  0
    1.7653    1.9278   -4.1035 H   0  0  0  0  0  0  0  0  0  0  0  0
    0.6623   -0.4142    0.9598 C   0  0  0  0  0  0  0  0  0  0  0  0
    1.8711   -0.3798    1.1497 O   0  0  0  0  0  0  0  0  0  0  0  0
   -0.1777    0.2167    1.8594 N   0  0  0  0  0  0  0  0  0  0  0  0
   -1.1727    0.0933    1.7013 H   0  0  0  0  0  0  0  0  0  0  0  0
    0.2706    0.6811    3.1660 C   0  0  0  0  0  0  0  0  0  0  0  0
    1.0594    1.4328    3.0565 H   0  0  0  0  0  0  0  0  0  0  0  0
   -0.5624    1.1337    3.7122 H   0  0  0  0  0  0  0  0  0  0  0  0
    0.6600   -0.1554    3.7560 H   0  0  0  0  0  0  0  0  0  0  0  0
  1  2  1  0  0  0  0
  2  3  1  0  0  0  0
  2  4  1  0  0  0  0
  2  5  1  0  0  0  0
  5  6  2  0  0  0  0
  5  7  1  0  0  0  0
  7  8  1  0  0  0  0
  7  9  1  0  0  0  0
  9 10  1  0  0  0  0
  9 11  1  0  0  0  0
  9 22  1  0  0  0  0
 11 12  1  0  0  0  0
 11 13  1  0  0  0  0
 11 14  1  0  0  0  0
 14 15  1  0  0  0  0
 14 16  1  0  0  0  0
 14 17  1  0  0  0  0
 17 18  2  0  0  0  0
 17 19  1  0  0  0  0
 19 20  1  0  0  0  0
 19 21  1  0  0  0  0
 22 23  2  0  0  0  0
 22 24  1  0  0  0  0
 24 25  1  0  0  0  0
 24 26  1  0  0  0  0
 26 27  1  0  0  0  0
 26 28  1  0  0  0  0
 26 29  1  0  0  0  0
M  END
$$$$

  -OEChem-02102214123D

 29 28  0     1  0  0  0  0  0999 V2000
   -2.7990   -4.2834    0.7744 H   0  0  0  0  0  0  0  0  0  0  0  0
   -2.8014   -3.3565    0.1935 C   0  0  0  0  0  0  0  0  0  0  0  0
   -3.5728   -2.6937    0.5926 H   0  0  0  0  0  0  0  0  0  0  0  0
   -3.0363   -3.5949   -0.8465 H   0  0  0  0  0  0  0  0  0  0  0  0
   -1.4440   -2.6845    0.2778 C   0  0  0  0  0  0  0  0  0  0  0  0
   -0.5549   -3.1925    0.9369 O   0  0  0  0  0  0  0  0  0  0  0  0
   -1.2242   -1.4961   -0.3911 N   0  0  0  0  0  0  0  0  0  0  0  0
   -1.9802   -1.1536   -0.9779 H   0  0  0  0  0  0  0  0  0  0  0  0
    0.0787   -0.8076   -0.4563 C   0  0  1  0  0  0  0  0  0  0  0  0
    0.8116   -1.4882   -0.9041 H   0  0  0  0  0  0  0  0  0  0  0  0
   -0.0638    0.4356   -1.3481 C   0  0  0  0  0  0  0  0  0  0  0  0
   -0.9549    1.0051   -1.0603 H   0  0  0  0  0  0  0  0  0  0  0  0
    0.8041    1.0883   -1.1962 H   0  0  0  0  0  0  0  0  0  0  0  0
   -0.1313    0.0508   -2.8350 C   0  0  0  0  0  0  0  0  0  0  0  0
    0.7738   -0.4919   -3.1228 H   0  0  0  0  0  0  0  0  0  0  0  0
   -0.9861   -0.6050   -3.0211 H   0  0  0  0  0  0  0  0  0  0  0  0
   -0.2731    1.2909   -3.7052 C   0  0  0  0  0  0  0  0  0  0  0  0
   -1.3248    1.8981   -3.7657 O   0  0  0  0  0  0  0  0  0  0  0  0
    0.7811    1.8233   -4.3904 N   0  0  0  0  0  0  0  0  0  0  0  0
    0.6399    2.7505   -4.7815 H   0  0  0  0  0  0  0  0  0  0  0  0
    1.7183    1.4866   -4.1957 H   0  0  0  0  0  0  0  0  0  0  0  0
    0.6515   -0.3971    0.9185 C   0  0  0  0  0  0  0  0  0  0  0  0
    1.8647   -0.3521    1.0736 O   0  0  0  0  0  0  0  0  0  0  0  0
   -0.1698    0.1970    1.8596 N   0  0  0  0  0  0  0  0  0  0  0  0
   -1.1678    0.0706    1.7259 H   0  0  0  0  0  0  0  0  0  0  0  0
    0.3119    0.6311    3.1648 C   0  0  0  0  0  0  0  0  0  0  0  0
    1.0948    1.3886    3.0526 H   0  0  0  0  0  0  0  0  0  0  0  0
   -0.5074    1.0665    3.7445 H   0  0  0  0  0  0  0  0  0  0  0  0
    0.7202   -0.2179    3.7232 H   0  0  0  0  0  0  0  0  0  0  0  0
  1  2  1  0  0  0  0
  2  3  1  0  0  0  0
  2  4  1  0  0  0  0
  2  5  1  0  0  0  0
  5  6  2  0  0  0  0
  5  7  1  0  0  0  0
  7  8  1  0  0  0  0
  7  9  1  0  0  0  0
  9 10  1  0  0  0  0
  9 11  1  0  0  0  0
  9 22  1  0  0  0  0
 11 12  1  0  0  0  0
 11 13  1  0  0  0  0
 11 14  1  0  0  0  0
 14 15  1  0  0  0  0
 14 16  1  0  0  0  0
 14 17  1  0  0  0  0
 17 18  2  0  0  0  0
 17 19  1  0  0  0  0
 19 20  1  0  0  0  0
 19 21  1  0  0  0  0
 22 23  2  0  0  0  0
 22 24  1  0  0  0  0
 24 25  1  0  0  0  0
 24 26  1  0  0  0  0
 26 27  1  0  0  0  0
 26 28  1  0  0  0  0
 26 29  1  0  0  0  0
M  END
$$$$

  -OEChem-02102214123D

 29 28  0     1  0  0  0  0  0999 V2000
   -2.8197   -4.2724    0.7456 H   0  0  0  0  0  0  0  0  0  0  0  0
   -2.8212   -3.3444    0.1665 C   0  0  0  0  0  0  0  0  0  0  0  0
   -3.5914   -2.6812    0.5677 H   0  0  0  0  0  0  0  0  0  0  0  0
   -3.0577   -3.5804   -0.8738 H   0  0  0  0  0  0  0  0  0  0  0  0
   -1.4622   -2.6753    0.2504 C   0  0  0  0  0  0  0  0  0  0  0  0
   -0.5687   -3.1936    0.8952 O   0  0  0  0  0  0  0  0  0  0  0  0
   -1.2455   -1.4788   -0.4052 N   0  0  0  0  0  0  0  0  0  0  0  0
   -2.0038   -1.1323   -0.9862 H   0  0  0  0  0  0  0  0  0  0  0  0
    0.0613   -0.7997   -0.4842 C   0  0  1  0  0  0  0  0  0  0  0  0
    0.7806   -1.4796   -0.9545 H   0  0  0  0  0  0  0  0  0  0  0  0
   -0.0918    0.4599   -1.3522 C   0  0  0  0  0  0  0  0  0  0  0  0
   -0.9639    1.0444   -1.0384 H   0  0  0  0  0  0  0  0  0  0  0  0
    0.7927    1.0914   -1.2041 H   0  0  0  0  0  0  0  0  0  0  0  0
   -0.1937    0.1078   -2.8454 C   0  0  0  0  0  0  0  0  0  0  0  0
    0.5632   -0.6354   -3.1115 H   0  0  0  0  0  0  0  0  0  0  0  0
   -1.1748   -0.3201   -3.0685 H   0  0  0  0  0  0  0  0  0  0  0  0
    0.0230    1.3449   -3.7045 C   0  0  0  0  0  0  0  0  0  0  0  0
   -0.8802    2.1312   -3.9127 O   0  0  0  0  0  0  0  0  0  0  0  0
    1.2481    1.6707   -4.2120 N   0  0  0  0  0  0  0  0  0  0  0  0
    1.3375    2.6056   -4.5998 H   0  0  0  0  0  0  0  0  0  0  0  0
    2.0684    1.1751   -3.8781 H   0  0  0  0  0  0  0  0  0  0  0  0
    0.6647   -0.4129    0.8845 C   0  0  0  0  0  0  0  0  0  0  0  0
    1.8815   -0.3752    1.0116 O   0  0  0  0  0  0  0  0  0  0  0  0
   -0.1315    0.1747    1.8508 N   0  0  0  0  0  0  0  0  0  0  0  0
   -1.1331    0.0556    1.7395 H   0  0  0  0  0  0  0  0  0  0  0  0
    0.3833    0.6031    3.1453 C   0  0  0  0  0  0  0  0  0  0  0  0
    1.1589    1.3653    3.0169 H   0  0  0  0  0  0  0  0  0  0  0  0
   -0.4220    1.0309    3.7499 H   0  0  0  0  0  0  0  0  0  0  0  0
    0.8110   -0.2471    3.6872 H   0  0  0  0  0  0  0  0  0  0  0  0
  1  2  1  0  0  0  0
  2  3  1  0  0  0  0
  2  4  1  0  0  0  0
  2  5  1  0  0  0  0
  5  6  2  0  0  0  0
  5  7  1  0  0  0  0
  7  8  1  0  0  0  0
  7  9  1  0  0  0  0
  9 10  1  0  0  0  0
  9 11  1  0  0  0  0
  9 22  1  0  0  0  0
 11 12  1  0  0  0  0
 11 13  1  0  0  0  0
 11 14  1  0  0  0  0
 14 15  1  0  0  0  0
 14 16  1  0  0  0  0
 14 17  1  0  0  0  0
 17 18  2  0  0  0  0
 17 19  1  0  0  0  0
 19 20  1  0  0  0  0
 19 21  1  0  0  0  0
 22 23  2  0  0  0  0
 22 24  1  0  0  0  0
 24 25  1  0  0  0  0
 24 26  1  0  0  0  0
 26 27  1  0  0  0  0
 26 28  1  0  0  0  0
 26 29  1  0  0  0  0
M  END
$$$$

  -OEChem-02102214123D

 29 28  0     1  0  0  0  0  0999 V2000
   -2.8284   -4.2605    0.7019 H   0  0  0  0  0  0  0  0  0  0  0  0
   -2.8313   -3.3259    0.1333 C   0  0  0  0  0  0  0  0  0  0  0  0
   -3.5940   -2.6639    0.5501 H   0  0  0  0  0  0  0  0  0  0  0  0
   -3.0798   -3.5490   -0.9071 H   0  0  0  0  0  0  0  0  0  0  0  0
   -1.4685   -2.6637    0.2107 C   0  0  0  0  0  0  0  0  0  0  0  0
   -0.5694   -3.1954    0.8363 O   0  0  0  0  0  0  0  0  0  0  0  0
   -1.2556   -1.4557   -0.4251 N   0  0  0  0  0  0  0  0  0  0  0  0
   -2.0166   -1.1012   -0.9975 H   0  0  0  0  0  0  0  0  0  0  0  0
    0.0536   -0.7819   -0.5086 C   0  0  1  0  0  0  0  0  0  0  0  0
    0.7643   -1.4555   -1.0002 H   0  0  0  0  0  0  0  0  0  0  0  0
   -0.1064    0.4972   -1.3471 C   0  0  0  0  0  0  0  0  0  0  0  0
   -0.9647    1.0863   -1.0061 H   0  0  0  0  0  0  0  0  0  0  0  0
    0.7874    1.1142   -1.1925 H   0  0  0  0  0  0  0  0  0  0  0  0
   -0.2334    0.1854   -2.8500 C   0  0  0  0  0  0  0  0  0  0  0  0
    0.3214   -0.7229   -3.1017 H   0  0  0  0  0  0  0  0  0  0  0  0
   -1.2814    0.0158   -3.1119 H   0  0  0  0  0  0  0  0  0  0  0  0
    0.3264    1.3220   -3.6941 C   0  0  0  0  0  0  0  0  0  0  0  0
   -0.3768    2.2470   -4.0507 O   0  0  0  0  0  0  0  0  0  0  0  0
    1.6471    1.3900   -4.0346 N   0  0  0  0  0  0  0  0  0  0  0  0
    1.9616    2.2730   -4.4271 H   0  0  0  0  0  0  0  0  0  0  0  0
    2.3077    0.7725   -3.5732 H   0  0  0  0  0  0  0  0  0  0  0  0
    0.6772   -0.4247    0.8590 C   0  0  0  0  0  0  0  0  0  0  0  0
    1.8958   -0.3930    0.9690 O   0  0  0  0  0  0  0  0  0  0  0  0
   -0.1035    0.1480    1.8465 N   0  0  0  0  0  0  0  0  0  0  0  0
   -1.1065    0.0293    1.7493 H   0  0  0  0  0  0  0  0  0  0  0  0
    0.4313    0.5494    3.1414 C   0  0  0  0  0  0  0  0  0  0  0  0
    1.2222    1.2964    3.0158 H   0  0  0  0  0  0  0  0  0  0  0  0
   -0.3595    0.9874    3.7577 H   0  0  0  0  0  0  0  0  0  0  0  0
    0.8447   -0.3166    3.6689 H   0  0  0  0  0  0  0  0  0  0  0  0
  1  2  1  0  0  0  0
  2  3  1  0  0  0  0
  2  4  1  0  0  0  0
  2  5  1  0  0  0  0
  5  6  2  0  0  0  0
  5  7  1  0  0  0  0
  7  8  1  0  0  0  0
  7  9  1  0  0  0  0
  9 10  1  0  0  0  0
  9 11  1  0  0  0  0
  9 22  1  0  0  0  0
 11 12  1  0  0  0  0
 11 13  1  0  0  0  0
 11 14  1  0  0  0  0
 14 15  1  0  0  0  0
 14 16  1  0  0  0  0
 14 17  1  0  0  0  0
 17 18  2  0  0  0  0
 17 19  1  0  0  0  0
 19 20  1  0  0  0  0
 19 21  1  0  0  0  0
 22 23  2  0  0  0  0
 22 24  1  0  0  0  0
 24 25  1  0  0  0  0
 24 26  1  0  0  0  0
 26 27  1  0  0  0  0
 26 28  1  0  0  0  0
 26 29  1  0  0  0  0
M  END
$$$$

  -OEChem-02102214123D

 29 28  0     1  0  0  0  0  0999 V2000
   -2.8622   -4.2423    0.6237 H   0  0  0  0  0  0  0  0  0  0  0  0
   -2.8542   -3.3069    0.0567 C   0  0  0  0  0  0  0  0  0  0  0  0
   -3.6244   -2.6456    0.4608 H   0  0  0  0  0  0  0  0  0  0  0  0
   -3.0837   -3.5275   -0.9886 H   0  0  0  0  0  0  0  0  0  0  0  0
   -1.4927   -2.6456    0.1604 C   0  0  0  0  0  0  0  0  0  0  0  0
   -0.5969   -3.1924    0.7777 O   0  0  0  0  0  0  0  0  0  0  0  0
   -1.2756   -1.4235   -0.4462 N   0  0  0  0  0  0  0  0  0  0  0  0
   -2.0311   -1.0620   -1.0214 H   0  0  0  0  0  0  0  0  0  0  0  0
    0.0400   -0.7622   -0.5280 C   0  0  1  0  0  0  0  0  0  0  0  0
    0.7364   -1.4324   -1.0441 H   0  0  0  0  0  0  0  0  0  0  0  0
   -0.1126    0.5373   -1.3367 C   0  0  0  0  0  0  0  0  0  0  0  0
   -0.9661    1.1210   -0.9754 H   0  0  0  0  0  0  0  0  0  0  0  0
    0.7825    1.1490   -1.1689 H   0  0  0  0  0  0  0  0  0  0  0  0
   -0.2576    0.2612   -2.8475 C   0  0  0  0  0  0  0  0  0  0  0  0
    0.0378   -0.7643   -3.0864 H   0  0  0  0  0  0  0  0  0  0  0  0
   -1.3035    0.3782   -3.1464 H   0  0  0  0  0  0  0  0  0  0  0  0
    0.6134    1.1986   -3.6738 C   0  0  0  0  0  0  0  0  0  0  0  0
    0.1391    2.1535   -4.2569 O   0  0  0  0  0  0  0  0  0  0  0  0
    1.9650    1.0295   -3.7729 N   0  0  0  0  0  0  0  0  0  0  0  0
    2.4804    1.8006   -4.1878 H   0  0  0  0  0  0  0  0  0  0  0  0
    2.4294    0.3933   -3.1320 H   0  0  0  0  0  0  0  0  0  0  0  0
    0.6902   -0.4455    0.8371 C   0  0  0  0  0  0  0  0  0  0  0  0
    1.9112   -0.4210    0.9196 O   0  0  0  0  0  0  0  0  0  0  0  0
   -0.0647    0.1114    1.8533 N   0  0  0  0  0  0  0  0  0  0  0  0
   -1.0703   -0.0023    1.7792 H   0  0  0  0  0  0  0  0  0  0  0  0
    0.5040    0.4910    3.1404 C   0  0  0  0  0  0  0  0  0  0  0  0
    1.2612    1.2711    3.0092 H   0  0  0  0  0  0  0  0  0  0  0  0
   -0.2779    0.8779    3.8009 H   0  0  0  0  0  0  0  0  0  0  0  0
    0.9701   -0.3747    3.6230 H   0  0  0  0  0  0  0  0  0  0  0  0
  1  2  1  0  0  0  0
  2  3  1  0  0  0  0
  2  4  1  0  0  0  0
  2  5  1  0  0  0  0
  5  6  2  0  0  0  0
  5  7  1  0  0  0  0
  7  8  1  0  0  0  0
  7  9  1  0  0  0  0
  9 10  1  0  0  0  0
  9 11  1  0  0  0  0
  9 22  1  0  0  0  0
 11 12  1  0  0  0  0
 11 13  1  0  0  0  0
 11 14  1  0  0  0  0
 14 15  1  0  0  0  0
 14 16  1  0  0  0  0
 14 17  1  0  0  0  0
 17 18  2  0  0  0  0
 17 19  1  0  0  0  0
 19 20  1  0  0  0  0
 19 21  1  0  0  0  0
 22 23  2  0  0  0  0
 22 24  1  0  0  0  0
 24 25  1  0  0  0  0
 24 26  1  0  0  0  0
 26 27  1  0  0  0  0
 26 28  1  0  0  0  0
 26 29  1  0  0  0  0
M  END
$$$$

  -OEChem-02102214123D

 29 28  0     1  0  0  0  0  0999 V2000
   -2.8698   -4.2327    0.5392 H   0  0  0  0  0  0  0  0  0  0  0  0
   -2.8598   -3.2885   -0.0130 C   0  0  0  0  0  0  0  0  0  0  0  0
   -3.6262   -2.6307    0.4035 H   0  0  0  0  0  0  0  0  0  0  0  0
   -3.0932   -3.4919   -1.0609 H   0  0  0  0  0  0  0  0  0  0  0  0
   -1.4954   -2.6344    0.0973 C   0  0  0  0  0  0  0  0  0  0  0  0
   -0.5967   -3.1986    0.6943 O   0  0  0  0  0  0  0  0  0  0  0  0
   -1.2789   -1.3970   -0.4780 N   0  0  0  0  0  0  0  0  0  0  0  0
   -2.0362   -1.0193   -1.0403 H   0  0  0  0  0  0  0  0  0  0  0  0
    0.0385   -0.7376   -0.5482 C   0  0  1  0  0  0  0  0  0  0  0  0
    0.7287   -1.3977   -1.0857 H   0  0  0  0  0  0  0  0  0  0  0  0
   -0.1043    0.5827   -1.3237 C   0  0  0  0  0  0  0  0  0  0  0  0
   -0.9681    1.1430   -0.9501 H   0  0  0  0  0  0  0  0  0  0  0  0
    0.7782    1.2065   -1.1344 H   0  0  0  0  0  0  0  0  0  0  0  0
   -0.2510    0.3415   -2.8408 C   0  0  0  0  0  0  0  0  0  0  0  0
   -0.2494   -0.7270   -3.0736 H   0  0  0  0  0  0  0  0  0  0  0  0
   -1.2086    0.7476   -3.1802 H   0  0  0  0  0  0  0  0  0  0  0  0
    0.8692    1.0080   -3.6306 C   0  0  0  0  0  0  0  0  0  0  0  0
    0.6470    1.9281   -4.3927 O   0  0  0  0  0  0  0  0  0  0  0  0
    2.1694    0.6021   -3.5248 N   0  0  0  0  0  0  0  0  0  0  0  0
    2.8614    1.2083   -3.9563 H   0  0  0  0  0  0  0  0  0  0  0  0
    2.4358   -0.0045   -2.7549 H   0  0  0  0  0  0  0  0  0  0  0  0
    0.6982   -0.4580    0.8199 C   0  0  0  0  0  0  0  0  0  0  0  0
    1.9200   -0.4384    0.8921 O   0  0  0  0  0  0  0  0  0  0  0  0
   -0.0483    0.0747    1.8548 N   0  0  0  0  0  0  0  0  0  0  0  0
   -1.0547   -0.0348    1.7837 H   0  0  0  0  0  0  0  0  0  0  0  0
    0.5292    0.4128    3.1497 C   0  0  0  0  0  0  0  0  0  0  0  0
    1.2967    1.1857    3.0370 H   0  0  0  0  0  0  0  0  0  0  0  0
   -0.2459    0.7930    3.8218 H   0  0  0  0  0  0  0  0  0  0  0  0
    0.9840   -0.4715    3.6089 H   0  0  0  0  0  0  0  0  0  0  0  0
  1  2  1  0  0  0  0
  2  3  1  0  0  0  0
  2  4  1  0  0  0  0
  2  5  1  0  0  0  0
  5  6  2  0  0  0  0
  5  7  1  0  0  0  0
  7  8  1  0  0  0  0
  7  9  1  0  0  0  0
  9 10  1  0  0  0  0
  9 11  1  0  0  0  0
  9 22  1  0  0  0  0
 11 12  1  0  0  0  0
 11 13  1  0  0  0  0
 11 14  1  0  0  0  0
 14 15  1  0  0  0  0
 14 16  1  0  0  0  0
 14 17  1  0  0  0  0
 17 18  2  0  0  0  0
 17 19  1  0  0  0  0
 19 20  1  0  0  0  0
 19 21  1  0  0  0  0
 22 23  2  0  0  0  0
 22 24  1  0  0  0  0
 24 25  1  0  0  0  0
 24 26  1  0  0  0  0
 26 27  1  0  0  0  0
 26 28  1  0  0  0  0
 26 29  1  0  0  0  0
M  END
$$$$

  -OEChem-02102214123D

 29 28  0     1  0  0  0  0  0999 V2000
   -2.8861   -4.2471    0.3976 H   0  0  0  0  0  0  0  0  0  0  0  0
   -2.8806   -3.2753   -0.1047 C   0  0  0  0  0  0  0  0  0  0  0  0
   -3.6468   -2.6417    0.3486 H   0  0  0  0  0  0  0  0  0  0  0  0
   -3.1181   -3.4252   -1.1607 H   0  0  0  0  0  0  0  0  0  0  0  0
   -1.5172   -2.6241    0.0331 C   0  0  0  0  0  0  0  0  0  0  0  0
   -0.6242   -3.2008    0.6269 O   0  0  0  0  0  0  0  0  0  0  0  0
   -1.2958   -1.3728   -0.5094 N   0  0  0  0  0  0  0  0  0  0  0  0
   -2.0487   -0.9821   -1.0688 H   0  0  0  0  0  0  0  0  0  0  0  0
    0.0259   -0.7200   -0.5645 C   0  0  1  0  0  0  0  0  0  0  0  0
    0.7046   -1.3793   -1.1171 H   0  0  0  0  0  0  0  0  0  0  0  0
   -0.0920    0.6151   -1.3191 C   0  0  0  0  0  0  0  0  0  0  0  0
   -0.9669    1.1594   -0.9483 H   0  0  0  0  0  0  0  0  0  0  0  0
    0.7797    1.2472   -1.1097 H   0  0  0  0  0  0  0  0  0  0  0  0
   -0.2269    0.3944   -2.8390 C   0  0  0  0  0  0  0  0  0  0  0  0
   -0.5179   -0.6348   -3.0667 H   0  0  0  0  0  0  0  0  0  0  0  0
   -1.0122    1.0515   -3.2248 H   0  0  0  0  0  0  0  0  0  0  0  0
    1.0666    0.7200   -3.5802 C   0  0  0  0  0  0  0  0  0  0  0  0
    1.0640    1.4089   -4.5813 O   0  0  0  0  0  0  0  0  0  0  0  0
    2.2784    0.2209   -3.1909 N   0  0  0  0  0  0  0  0  0  0  0  0
    3.0911    0.6068   -3.6631 H   0  0  0  0  0  0  0  0  0  0  0  0
    2.3752   -0.1792   -2.2613 H   0  0  0  0  0  0  0  0  0  0  0  0
    0.6992   -0.4771    0.8024 C   0  0  0  0  0  0  0  0  0  0  0  0
    1.9222   -0.4549    0.8535 O   0  0  0  0  0  0  0  0  0  0  0  0
   -0.0320    0.0350    1.8582 N   0  0  0  0  0  0  0  0  0  0  0  0
   -1.0386   -0.0819    1.8026 H   0  0  0  0  0  0  0  0  0  0  0  0
    0.5648    0.3346    3.1540 C   0  0  0  0  0  0  0  0  0  0  0  0
    1.3550    1.0855    3.0488 H   0  0  0  0  0  0  0  0  0  0  0  0
   -0.1932    0.7278    3.8381 H   0  0  0  0  0  0  0  0  0  0  0  0
    0.9956   -0.5708    3.5946 H   0  0  0  0  0  0  0  0  0  0  0  0
  1  2  1  0  0  0  0
  2  3  1  0  0  0  0
  2  4  1  0  0  0  0
  2  5  1  0  0  0  0
  5  6  2  0  0  0  0
  5  7  1  0  0  0  0
  7  8  1  0  0  0  0
  7  9  1  0  0  0  0
  9 10  1  0  0  0  0
  9 11  1  0  0  0  0
  9 22  1  0  0  0  0
 11 12  1  0  0  0  0
 11 13  1  0  0  0  0
 11 14  1  0  0  0  0
 14 15  1  0  0  0  0
 14 16  1  0  0  0  0
 14 17  1  0  0  0  0
 17 18  2  0  0  0  0
 17 19  1  0  0  0  0
 19 20  1  0  0  0  0
 19 21  1  0  0  0  0
 22 23  2  0  0  0  0
 22 24  1  0  0  0  0
 24 25  1  0  0  0  0
 24 26  1  0  0  0  0
 26 27  1  0  0  0  0
 26 28  1  0  0  0  0
 26 29  1  0  0  0  0
M  END
$$$$

  -OEChem-02102214123D

 29 28  0     1  0  0  0  0  0999 V2000
   -2.9305   -4.2543    0.2598 H   0  0  0  0  0  0  0  0  0  0  0  0
   -2.9234   -3.2555   -0.1860 C   0  0  0  0  0  0  0  0  0  0  0  0
   -3.6842   -2.6453    0.3065 H   0  0  0  0  0  0  0  0  0  0  0  0
   -3.1661   -3.3443   -1.2477 H   0  0  0  0  0  0  0  0  0  0  0  0
   -1.5564   -2.6192   -0.0165 C   0  0  0  0  0  0  0  0  0  0  0  0
   -0.6804   -3.2109    0.5879 O   0  0  0  0  0  0  0  0  0  0  0  0
   -1.3125   -1.3622   -0.5360 N   0  0  0  0  0  0  0  0  0  0  0  0
   -2.0505   -0.9572   -1.1051 H   0  0  0  0  0  0  0  0  0  0  0  0
    0.0200   -0.7304   -0.5674 C   0  0  1  0  0  0  0  0  0  0  0  0
    0.6864   -1.4004   -1.1218 H   0  0  0  0  0  0  0  0  0  0  0  0
   -0.0583    0.6183   -1.3052 C   0  0  0  0  0  0  0  0  0  0  0  0
   -0.9319    1.1685   -0.9398 H   0  0  0  0  0  0  0  0  0  0  0  0
    0.8190    1.2356   -1.0766 H   0  0  0  0  0  0  0  0  0  0  0  0
   -0.1742    0.4283   -2.8291 C   0  0  0  0  0  0  0  0  0  0  0  0
   -0.7344   -0.4793   -3.0686 H   0  0  0  0  0  0  0  0  0  0  0  0
   -0.7239    1.2773   -3.2463 H   0  0  0  0  0  0  0  0  0  0  0  0
    1.1864    0.3744   -3.5238 C   0  0  0  0  0  0  0  0  0  0  0  0
    1.3051    0.7262   -4.6809 O   0  0  0  0  0  0  0  0  0  0  0  0
    2.3198   -0.1047   -2.9257 N   0  0  0  0  0  0  0  0  0  0  0  0
    3.1882    0.0208   -3.4377 H   0  0  0  0  0  0  0  0  0  0  0  0
    2.3379   -0.2533   -1.9193 H   0  0  0  0  0  0  0  0  0  0  0  0
    0.6916   -0.5180    0.8043 C   0  0  0  0  0  0  0  0  0  0  0  0
    1.9150   -0.4944    0.8485 O   0  0  0  0  0  0  0  0  0  0  0  0
   -0.0351   -0.0098    1.8648 N   0  0  0  0  0  0  0  0  0  0  0  0
   -1.0419   -0.1275    1.8120 H   0  0  0  0  0  0  0  0  0  0  0  0
    0.5658    0.2832    3.1600 C   0  0  0  0  0  0  0  0  0  0  0  0
    1.3493    1.0415    3.0568 H   0  0  0  0  0  0  0  0  0  0  0  0
   -0.1922    0.6641    3.8512 H   0  0  0  0  0  0  0  0  0  0  0  0
    1.0061   -0.6222    3.5913 H   0  0  0  0  0  0  0  0  0  0  0  0
  1  2  1  0  0  0  0
  2  3  1  0  0  0  0
  2  4  1  0  0  0  0
  2  5  1  0  0  0  0
  5  6  2  0  0  0  0
  5  7  1  0  0  0  0
  7  8  1  0  0  0  0
  7  9  1  0  0  0  0
  9 10  1  0  0  0  0
  9 11  1  0  0  0  0
  9 22  1  0  0  0  0
 11 12  1  0  0  0  0
 11 13  1  0  0  0  0
 11 14  1  0  0  0  0
 14 15  1  0  0  0  0
 14 16  1  0  0  0  0
 14 17  1  0  0  0  0
 17 18  2  0  0  0  0
 17 19  1  0  0  0  0
 19 20  1  0  0  0  0
 19 21  1  0  0  0  0
 22 23  2  0  0  0  0
 22 24  1  0  0  0  0
 24 25  1  0  0  0  0
 24 26  1  0  0  0  0
 26 27  1  0  0  0  0
 26 28  1  0  0  0  0
 26 29  1  0  0  0  0
M  END
$$$$

  -OEChem-02102214123D

 29 28  0     1  0  0  0  0  0999 V2000
   -2.7497   -4.2229    0.3311 H   0  0  0  0  0  0  0  0  0  0  0  0
   -2.7444   -3.2483   -0.1658 C   0  0  0  0  0  0  0  0  0  0  0  0
   -3.4873   -2.6068    0.3140 H   0  0  0  0  0  0  0  0  0  0  0  0
   -3.0149   -3.3880   -1.2152 H   0  0  0  0  0  0  0  0  0  0  0  0
   -1.3678   -2.6189   -0.0633 C   0  0  0  0  0  0  0  0  0  0  0  0
   -0.4539   -3.2355    0.4525 O   0  0  0  0  0  0  0  0  0  0  0  0
   -1.1493   -1.3519   -0.5695 N   0  0  0  0  0  0  0  0  0  0  0  0
   -1.9343   -0.8948   -1.0243 H   0  0  0  0  0  0  0  0  0  0  0  0
    0.1464   -0.6477   -0.5142 C   0  0  1  0  0  0  0  0  0  0  0  0
    0.9014   -1.2629   -1.0123 H   0  0  0  0  0  0  0  0  0  0  0  0
    0.0101    0.6991   -1.2487 C   0  0  0  0  0  0  0  0  0  0  0  0
   -0.9002    1.2067   -0.9132 H   0  0  0  0  0  0  0  0  0  0  0  0
    0.8555    1.3473   -0.9853 H   0  0  0  0  0  0  0  0  0  0  0  0
   -0.0196    0.5380   -2.7808 C   0  0  0  0  0  0  0  0  0  0  0  0
   -0.7211   -0.2478   -3.0723 H   0  0  0  0  0  0  0  0  0  0  0  0
   -0.3720    1.4726   -3.2277 H   0  0  0  0  0  0  0  0  0  0  0  0
    1.3559    0.2320   -3.3649 C   0  0  0  0  0  0  0  0  0  0  0  0
    2.0917    1.1232   -3.7396 O   0  0  0  0  0  0  0  0  0  0  0  0
    1.8246   -1.0420   -3.5163 N   0  0  0  0  0  0  0  0  0  0  0  0
    2.8140   -1.1172   -3.7363 H   0  0  0  0  0  0  0  0  0  0  0  0
    1.3628   -1.7946   -3.0167 H   0  0  0  0  0  0  0  0  0  0  0  0
    0.6741   -0.4150    0.9195 C   0  0  0  0  0  0  0  0  0  0  0  0
    1.8792   -0.4242    1.1261 O   0  0  0  0  0  0  0  0  0  0  0  0
   -0.1778    0.0437    1.9084 N   0  0  0  0  0  0  0  0  0  0  0  0
   -1.1718   -0.0403    1.7258 H   0  0  0  0  0  0  0  0  0  0  0  0
    0.2652    0.3043    3.2724 C   0  0  0  0  0  0  0  0  0  0  0  0
    1.0558    1.0623    3.2814 H   0  0  0  0  0  0  0  0  0  0  0  0
   -0.5692    0.6711    3.8778 H   0  0  0  0  0  0  0  0  0  0  0  0
    0.6511   -0.6126    3.7305 H   0  0  0  0  0  0  0  0  0  0  0  0
  1  2  1  0  0  0  0
  2  3  1  0  0  0  0
  2  4  1  0  0  0  0
  2  5  1  0  0  0  0
  5  6  2  0  0  0  0
  5  7  1  0  0  0  0
  7  8  1  0  0  0  0
  7  9  1  0  0  0  0
  9 10  1  0  0  0  0
  9 11  1  0  0  0  0
  9 22  1  0  0  0  0
 11 12  1  0  0  0  0
 11 13  1  0  0  0  0
 11 14  1  0  0  0  0
 14 15  1  0  0  0  0
 14 16  1  0  0  0  0
 14 17  1  0  0  0  0
 17 18  2  0  0  0  0
 17 19  1  0  0  0  0
 19 20  1  0  0  0  0
 19 21  1  0  0  0  0
 22 23  2  0  0  0  0
 22 24  1  0  0  0  0
 24 25  1  0  0  0  0
 24 26  1  0  0  0  0
 26 27  1  0  0  0  0
 26 28  1  0  0  0  0
 26 29  1  0  0  0  0
M  END
$$$$

  -OEChem-02102214123D

 29 28  0     1  0  0  0  0  0999 V2000
   -2.7482   -4.2283    0.2583 H   0  0  0  0  0  0  0  0  0  0  0  0
   -2.7285   -3.2394   -0.2090 C   0  0  0  0  0  0  0  0  0  0  0  0
   -3.4710   -2.6056    0.2814 H   0  0  0  0  0  0  0  0  0  0  0  0
   -2.9887   -3.3455   -1.2649 H   0  0  0  0  0  0  0  0  0  0  0  0
   -1.3475   -2.6259   -0.0730 C   0  0  0  0  0  0  0  0  0  0  0  0
   -0.4520   -3.2540    0.4602 O   0  0  0  0  0  0  0  0  0  0  0  0
   -1.1014   -1.3641   -0.5794 N   0  0  0  0  0  0  0  0  0  0  0  0
   -1.8760   -0.8914   -1.0361 H   0  0  0  0  0  0  0  0  0  0  0  0
    0.1960   -0.6672   -0.4838 C   0  0  1  0  0  0  0  0  0  0  0  0
    0.9699   -1.2857   -0.9470 H   0  0  0  0  0  0  0  0  0  0  0  0
    0.0752    0.6805   -1.2211 C   0  0  0  0  0  0  0  0  0  0  0  0
   -0.8302    1.2032   -0.8960 H   0  0  0  0  0  0  0  0  0  0  0  0
    0.9292    1.3097   -0.9402 H   0  0  0  0  0  0  0  0  0  0  0  0
    0.0804    0.5489   -2.7578 C   0  0  0  0  0  0  0  0  0  0  0  0
   -0.7806   -0.0418   -3.0802 H   0  0  0  0  0  0  0  0  0  0  0  0
   -0.0247    1.5448   -3.1984 H   0  0  0  0  0  0  0  0  0  0  0  0
    1.3469   -0.0881   -3.3222 C   0  0  0  0  0  0  0  0  0  0  0  0
    2.2927    0.5918   -3.6662 O   0  0  0  0  0  0  0  0  0  0  0  0
    1.4714   -1.4350   -3.5146 N   0  0  0  0  0  0  0  0  0  0  0  0
    2.4130   -1.7540   -3.7272 H   0  0  0  0  0  0  0  0  0  0  0  0
    0.8321   -2.0543   -3.0277 H   0  0  0  0  0  0  0  0  0  0  0  0
    0.6718   -0.4289    0.9675 C   0  0  0  0  0  0  0  0  0  0  0  0
    1.8679   -0.4343    1.2199 O   0  0  0  0  0  0  0  0  0  0  0  0
   -0.2145    0.0412    1.9204 N   0  0  0  0  0  0  0  0  0  0  0  0
   -1.2016   -0.0354    1.7015 H   0  0  0  0  0  0  0  0  0  0  0  0
    0.1813    0.3335    3.2927 C   0  0  0  0  0  0  0  0  0  0  0  0
    0.9581    1.1052    3.3118 H   0  0  0  0  0  0  0  0  0  0  0  0
   -0.6775    0.6965    3.8651 H   0  0  0  0  0  0  0  0  0  0  0  0
    0.5683   -0.5678    3.7798 H   0  0  0  0  0  0  0  0  0  0  0  0
  1  2  1  0  0  0  0
  2  3  1  0  0  0  0
  2  4  1  0  0  0  0
  2  5  1  0  0  0  0
  5  6  2  0  0  0  0
  5  7  1  0  0  0  0
  7  8  1  0  0  0  0
  7  9  1  0  0  0  0
  9 10  1  0  0  0  0
  9 11  1  0  0  0  0
  9 22  1  0  0  0  0
 11 12  1  0  0  0  0
 11 13  1  0  0  0  0
 11 14  1  0  0  0  0
 14 15  1  0  0  0  0
 14 16  1  0  0  0  0
 14 17  1  0  0  0  0
 17 18  2  0  0  0  0
 17 19  1  0  0  0  0
 19 20  1  0  0  0  0
 19 21  1  0  0  0  0
 22 23  2  0  0  0  0
 22 24  1  0  0  0  0
 24 25  1  0  0  0  0
 24 26  1  0  0  0  0
 26 27  1  0  0  0  0
 26 28  1  0  0  0  0
 26 29  1  0  0  0  0
M  END
$$$$

  -OEChem-02102214123D

 29 28  0     1  0  0  0  0  0999 V2000
   -2.7737   -4.1963    0.2604 H   0  0  0  0  0  0  0  0  0  0  0  0
   -2.7308   -3.2152   -0.2218 C   0  0  0  0  0  0  0  0  0  0  0  0
   -3.4645   -2.5594    0.2530 H   0  0  0  0  0  0  0  0  0  0  0  0
   -2.9848   -3.3321   -1.2782 H   0  0  0  0  0  0  0  0  0  0  0  0
   -1.3386   -2.6283   -0.0834 C   0  0  0  0  0  0  0  0  0  0  0  0
   -0.4587   -3.2703    0.4584 O   0  0  0  0  0  0  0  0  0  0  0  0
   -1.0622   -1.3766   -0.5988 N   0  0  0  0  0  0  0  0  0  0  0  0
   -1.8280   -0.8843   -1.0498 H   0  0  0  0  0  0  0  0  0  0  0  0
    0.2383   -0.6914   -0.4650 C   0  0  1  0  0  0  0  0  0  0  0  0
    1.0293   -1.3189   -0.8851 H   0  0  0  0  0  0  0  0  0  0  0  0
    0.1469    0.6511   -1.2177 C   0  0  0  0  0  0  0  0  0  0  0  0
   -0.7528    1.1949   -0.9121 H   0  0  0  0  0  0  0  0  0  0  0  0
    1.0079    1.2599   -0.9152 H   0  0  0  0  0  0  0  0  0  0  0  0
    0.1947    0.5415   -2.7581 C   0  0  0  0  0  0  0  0  0  0  0  0
   -0.7741    0.1854   -3.1175 H   0  0  0  0  0  0  0  0  0  0  0  0
    0.3489    1.5398   -3.1789 H   0  0  0  0  0  0  0  0  0  0  0  0
    1.2659   -0.3899   -3.3201 C   0  0  0  0  0  0  0  0  0  0  0  0
    2.3121    0.0455   -3.7570 O   0  0  0  0  0  0  0  0  0  0  0  0
    1.0808   -1.7386   -3.4385 N   0  0  0  0  0  0  0  0  0  0  0  0
    1.9185   -2.2638   -3.6747 H   0  0  0  0  0  0  0  0  0  0  0  0
    0.3693   -2.1737   -2.8607 H   0  0  0  0  0  0  0  0  0  0  0  0
    0.6561   -0.4401    1.0026 C   0  0  0  0  0  0  0  0  0  0  0  0
    1.8402   -0.4549    1.3057 O   0  0  0  0  0  0  0  0  0  0  0  0
   -0.2632    0.0505    1.9133 N   0  0  0  0  0  0  0  0  0  0  0  0
   -1.2414   -0.0185    1.6554 H   0  0  0  0  0  0  0  0  0  0  0  0
    0.0784    0.3413    3.3005 C   0  0  0  0  0  0  0  0  0  0  0  0
    0.8612    1.1056    3.3510 H   0  0  0  0  0  0  0  0  0  0  0  0
   -0.7999    0.7129    3.8369 H   0  0  0  0  0  0  0  0  0  0  0  0
    0.4366   -0.5629    3.8039 H   0  0  0  0  0  0  0  0  0  0  0  0
  1  2  1  0  0  0  0
  2  3  1  0  0  0  0
  2  4  1  0  0  0  0
  2  5  1  0  0  0  0
  5  6  2  0  0  0  0
  5  7  1  0  0  0  0
  7  8  1  0  0  0  0
  7  9  1  0  0  0  0
  9 10  1  0  0  0  0
  9 11  1  0  0  0  0
  9 22  1  0  0  0  0
 11 12  1  0  0  0  0
 11 13  1  0  0  0  0
 11 14  1  0  0  0  0
 14 15  1  0  0  0  0
 14 16  1  0  0  0  0
 14 17  1  0  0  0  0
 17 18  2  0  0  0  0
 17 19  1  0  0  0  0
 19 20  1  0  0  0  0
 19 21  1  0  0  0  0
 22 23  2  0  0  0  0
 22 24  1  0  0  0  0
 24 25  1  0  0  0  0
 24 26  1  0  0  0  0
 26 27  1  0  0  0  0
 26 28  1  0  0  0  0
 26 29  1  0  0  0  0
M  END
$$$$

  -OEChem-02102214123D

 29 28  0     1  0  0  0  0  0999 V2000
   -2.7855   -4.2108    0.3412 H   0  0  0  0  0  0  0  0  0  0  0  0
   -2.6674   -3.2936   -0.2433 C   0  0  0  0  0  0  0  0  0  0  0  0
   -3.5076   -2.6295   -0.0270 H   0  0  0  0  0  0  0  0  0  0  0  0
   -2.6762   -3.5511   -1.3051 H   0  0  0  0  0  0  0  0  0  0  0  0
   -1.3594   -2.6130    0.1143 C   0  0  0  0  0  0  0  0  0  0  0  0
   -0.6107   -3.1328    0.9204 O   0  0  0  0  0  0  0  0  0  0  0  0
   -1.0385   -1.4024   -0.4702 N   0  0  0  0  0  0  0  0  0  0  0  0
   -1.6690   -1.0727   -1.1933 H   0  0  0  0  0  0  0  0  0  0  0  0
    0.2742   -0.7391   -0.3401 C   0  0  1  0  0  0  0  0  0  0  0  0
    1.0602   -1.4054   -0.7114 H   0  0  0  0  0  0  0  0  0  0  0  0
    0.2311    0.5735   -1.1536 C   0  0  0  0  0  0  0  0  0  0  0  0
   -0.6532    1.1582   -0.8800 H   0  0  0  0  0  0  0  0  0  0  0  0
    1.1076    1.1622   -0.8563 H   0  0  0  0  0  0  0  0  0  0  0  0
    0.3069    0.4230   -2.6922 C   0  0  0  0  0  0  0  0  0  0  0  0
   -0.7113    0.3416   -3.0804 H   0  0  0  0  0  0  0  0  0  0  0  0
    0.7448    1.3291   -3.1210 H   0  0  0  0  0  0  0  0  0  0  0  0
    1.0945   -0.7818   -3.1979 C   0  0  0  0  0  0  0  0  0  0  0  0
    2.3026   -0.8413   -3.0984 O   0  0  0  0  0  0  0  0  0  0  0  0
    0.4877   -1.8596   -3.7782 N   0  0  0  0  0  0  0  0  0  0  0  0
    1.1179   -2.5328   -4.2064 H   0  0  0  0  0  0  0  0  0  0  0  0
   -0.4607   -1.7645   -4.1214 H   0  0  0  0  0  0  0  0  0  0  0  0
    0.6560   -0.4060    1.1225 C   0  0  0  0  0  0  0  0  0  0  0  0
    1.8316   -0.3962    1.4599 O   0  0  0  0  0  0  0  0  0  0  0  0
   -0.2837    0.1599    1.9666 N   0  0  0  0  0  0  0  0  0  0  0  0
   -1.2530    0.0292    1.6988 H   0  0  0  0  0  0  0  0  0  0  0  0
    0.0153    0.5077    3.3504 C   0  0  0  0  0  0  0  0  0  0  0  0
    0.8187    1.2506    3.3950 H   0  0  0  0  0  0  0  0  0  0  0  0
   -0.8699    0.9299    3.8353 H   0  0  0  0  0  0  0  0  0  0  0  0
    0.3273   -0.3814    3.9086 H   0  0  0  0  0  0  0  0  0  0  0  0
  1  2  1  0  0  0  0
  2  3  1  0  0  0  0
  2  4  1  0  0  0  0
  2  5  1  0  0  0  0
  5  6  2  0  0  0  0
  5  7  1  0  0  0  0
  7  8  1  0  0  0  0
  7  9  1  0  0  0  0
  9 10  1  0  0  0  0
  9 11  1  0  0  0  0
  9 22  1  0  0  0  0
 11 12  1  0  0  0  0
 11 13  1  0  0  0  0
 11 14  1  0  0  0  0
 14 15  1  0  0  0  0
 14 16  1  0  0  0  0
 14 17  1  0  0  0  0
 17 18  2  0  0  0  0
 17 19  1  0  0  0  0
 19 20  1  0  0  0  0
 19 21  1  0  0  0  0
 22 23  2  0  0  0  0
 22 24  1  0  0  0  0
 24 25  1  0  0  0  0
 24 26  1  0  0  0  0
 26 27  1  0  0  0  0
 26 28  1  0  0  0  0
 26 29  1  0  0  0  0
M  END
$$$$

  -OEChem-02102214123D

 29 28  0     1  0  0  0  0  0999 V2000
   -2.8417   -4.1768    0.3915 H   0  0  0  0  0  0  0  0  0  0  0  0
   -2.6661   -3.3093   -0.2513 C   0  0  0  0  0  0  0  0  0  0  0  0
   -3.5201   -2.6329   -0.1688 H   0  0  0  0  0  0  0  0  0  0  0  0
   -2.5762   -3.6512   -1.2852 H   0  0  0  0  0  0  0  0  0  0  0  0
   -1.3939   -2.5981    0.1703 C   0  0  0  0  0  0  0  0  0  0  0  0
   -0.7076   -3.0683    1.0586 O   0  0  0  0  0  0  0  0  0  0  0  0
   -1.0415   -1.4121   -0.4458 N   0  0  0  0  0  0  0  0  0  0  0  0
   -1.6036   -1.1536   -1.2498 H   0  0  0  0  0  0  0  0  0  0  0  0
    0.2832   -0.7743   -0.3084 C   0  0  1  0  0  0  0  0  0  0  0  0
    1.0625   -1.4665   -0.6452 H   0  0  0  0  0  0  0  0  0  0  0  0
    0.2920    0.5186   -1.1548 C   0  0  0  0  0  0  0  0  0  0  0  0
   -0.5841    1.1284   -0.9101 H   0  0  0  0  0  0  0  0  0  0  0  0
    1.1733    1.0948   -0.8481 H   0  0  0  0  0  0  0  0  0  0  0  0
    0.3953    0.3466   -2.6919 C   0  0  0  0  0  0  0  0  0  0  0  0
   -0.5831    0.5633   -3.1278 H   0  0  0  0  0  0  0  0  0  0  0  0
    1.0931    1.0908   -3.0877 H   0  0  0  0  0  0  0  0  0  0  0  0
    0.8314   -1.0277   -3.1907 C   0  0  0  0  0  0  0  0  0  0  0  0
    1.9825   -1.4050   -3.1170 O   0  0  0  0  0  0  0  0  0  0  0  0
   -0.0492   -1.9067   -3.7554 N   0  0  0  0  0  0  0  0  0  0  0  0
    0.3860   -2.7093   -4.2035 H   0  0  0  0  0  0  0  0  0  0  0  0
   -0.9203   -1.5423   -4.1236 H   0  0  0  0  0  0  0  0  0  0  0  0
    0.6457   -0.4062    1.1507 C   0  0  0  0  0  0  0  0  0  0  0  0
    1.8176   -0.3947    1.5023 O   0  0  0  0  0  0  0  0  0  0  0  0
   -0.2975    0.2048    1.9581 N   0  0  0  0  0  0  0  0  0  0  0  0
   -1.2638    0.0608    1.6853 H   0  0  0  0  0  0  0  0  0  0  0  0
   -0.0156    0.5837    3.3372 C   0  0  0  0  0  0  0  0  0  0  0  0
    0.8047    1.3081    3.3769 H   0  0  0  0  0  0  0  0  0  0  0  0
   -0.8994    1.0402    3.7927 H   0  0  0  0  0  0  0  0  0  0  0  0
    0.2636   -0.2971    3.9253 H   0  0  0  0  0  0  0  0  0  0  0  0
  1  2  1  0  0  0  0
  2  3  1  0  0  0  0
  2  4  1  0  0  0  0
  2  5  1  0  0  0  0
  5  6  2  0  0  0  0
  5  7  1  0  0  0  0
  7  8  1  0  0  0  0
  7  9  1  0  0  0  0
  9 10  1  0  0  0  0
  9 11  1  0  0  0  0
  9 22  1  0  0  0  0
 11 12  1  0  0  0  0
 11 13  1  0  0  0  0
 11 14  1  0  0  0  0
 14 15  1  0  0  0  0
 14 16  1  0  0  0  0
 14 17  1  0  0  0  0
 17 18  2  0  0  0  0
 17 19  1  0  0  0  0
 19 20  1  0  0  0  0
 19 21  1  0  0  0  0
 22 23  2  0  0  0  0
 22 24  1  0  0  0  0
 24 25  1  0  0  0  0
 24 26  1  0  0  0  0
 26 27  1  0  0  0  0
 26 28  1  0  0  0  0
 26 29  1  0  0  0  0
M  END
$$$$

  -OEChem-02102214123D

 29 28  0     1  0  0  0  0  0999 V2000
   -2.6706   -4.3836    0.5866 H   0  0  0  0  0  0  0  0  0  0  0  0
   -2.6620   -3.4750   -0.0218 C   0  0  0  0  0  0  0  0  0  0  0  0
   -3.5734   -2.9070    0.1789 H   0  0  0  0  0  0  0  0  0  0  0  0
   -2.6430   -3.7577   -1.0777 H   0  0  0  0  0  0  0  0  0  0  0  0
   -1.4430   -2.6351    0.3075 C   0  0  0  0  0  0  0  0  0  0  0  0
   -0.6378   -3.0299    1.1329 O   0  0  0  0  0  0  0  0  0  0  0  0
   -1.2578   -1.4316   -0.3436 N   0  0  0  0  0  0  0  0  0  0  0  0
   -1.8561   -1.3279   -1.1644 H   0  0  0  0  0  0  0  0  0  0  0  0
    0.0500   -0.7545   -0.4269 C   0  0  1  0  0  0  0  0  0  0  0  0
    0.7716   -1.4204   -0.9113 H   0  0  0  0  0  0  0  0  0  0  0  0
   -0.1223    0.5456   -1.2446 C   0  0  0  0  0  0  0  0  0  0  0  0
   -0.9833    1.0991   -0.8540 H   0  0  0  0  0  0  0  0  0  0  0  0
    0.7596    1.1746   -1.0749 H   0  0  0  0  0  0  0  0  0  0  0  0
   -0.2790    0.3793   -2.7782 C   0  0  0  0  0  0  0  0  0  0  0  0
   -1.2294    0.8256   -3.0851 H   0  0  0  0  0  0  0  0  0  0  0  0
    0.5133    0.9432   -3.2784 H   0  0  0  0  0  0  0  0  0  0  0  0
   -0.2476   -1.0530   -3.3016 C   0  0  0  0  0  0  0  0  0  0  0  0
   -1.2484   -1.7478   -3.2673 O   0  0  0  0  0  0  0  0  0  0  0  0
    0.8996   -1.6437   -3.7479 N   0  0  0  0  0  0  0  0  0  0  0  0
    0.8646   -2.6509   -3.8787 H   0  0  0  0  0  0  0  0  0  0  0  0
    1.7884   -1.1845   -3.5746 H   0  0  0  0  0  0  0  0  0  0  0  0
    0.6680   -0.3849    0.9410 C   0  0  0  0  0  0  0  0  0  0  0  0
    1.8870   -0.3362    1.0483 O   0  0  0  0  0  0  0  0  0  0  0  0
   -0.1203    0.1925    1.9192 N   0  0  0  0  0  0  0  0  0  0  0  0
   -1.1160    0.0109    1.8347 H   0  0  0  0  0  0  0  0  0  0  0  0
    0.4059    0.5732    3.2237 C   0  0  0  0  0  0  0  0  0  0  0  0
    1.2114    1.3072    3.1146 H   0  0  0  0  0  0  0  0  0  0  0  0
   -0.3847    1.0197    3.8342 H   0  0  0  0  0  0  0  0  0  0  0  0
    0.7976   -0.3049    3.7480 H   0  0  0  0  0  0  0  0  0  0  0  0
  1  2  1  0  0  0  0
  2  3  1  0  0  0  0
  2  4  1  0  0  0  0
  2  5  1  0  0  0  0
  5  6  2  0  0  0  0
  5  7  1  0  0  0  0
  7  8  1  0  0  0  0
  7  9  1  0  0  0  0
  9 10  1  0  0  0  0
  9 11  1  0  0  0  0
  9 22  1  0  0  0  0
 11 12  1  0  0  0  0
 11 13  1  0  0  0  0
 11 14  1  0  0  0  0
 14 15  1  0  0  0  0
 14 16  1  0  0  0  0
 14 17  1  0  0  0  0
 17 18  2  0  0  0  0
 17 19  1  0  0  0  0
 19 20  1  0  0  0  0
 19 21  1  0  0  0  0
 22 23  2  0  0  0  0
 22 24  1  0  0  0  0
 24 25  1  0  0  0  0
 24 26  1  0  0  0  0
 26 27  1  0  0  0  0
 26 28  1  0  0  0  0
 26 29  1  0  0  0  0
M  END
$$$$

  -OEChem-02102214123D

 29 28  0     1  0  0  0  0  0999 V2000
   -2.6633   -4.3800    0.5243 H   0  0  0  0  0  0  0  0  0  0  0  0
   -2.6676   -3.4496   -0.0501 C   0  0  0  0  0  0  0  0  0  0  0  0
   -3.5595   -2.8762    0.2131 H   0  0  0  0  0  0  0  0  0  0  0  0
   -2.7011   -3.6920   -1.1154 H   0  0  0  0  0  0  0  0  0  0  0  0
   -1.4224   -2.6397    0.2555 C   0  0  0  0  0  0  0  0  0  0  0  0
   -0.5898   -3.0733    1.0327 O   0  0  0  0  0  0  0  0  0  0  0  0
   -1.2423   -1.4186   -0.3625 N   0  0  0  0  0  0  0  0  0  0  0  0
   -1.8708   -1.2659   -1.1550 H   0  0  0  0  0  0  0  0  0  0  0  0
    0.0561   -0.7207   -0.4250 C   0  0  1  0  0  0  0  0  0  0  0  0
    0.7846   -1.3692   -0.9231 H   0  0  0  0  0  0  0  0  0  0  0  0
   -0.1094    0.5886   -1.2289 C   0  0  0  0  0  0  0  0  0  0  0  0
   -0.9957    1.1103   -0.8515 H   0  0  0  0  0  0  0  0  0  0  0  0
    0.7498    1.2393   -1.0278 H   0  0  0  0  0  0  0  0  0  0  0  0
   -0.2361    0.4425   -2.7673 C   0  0  0  0  0  0  0  0  0  0  0  0
   -1.0145    1.1213   -3.1279 H   0  0  0  0  0  0  0  0  0  0  0  0
    0.7044    0.7644   -3.2233 H   0  0  0  0  0  0  0  0  0  0  0  0
   -0.5429   -0.9594   -3.2853 C   0  0  0  0  0  0  0  0  0  0  0  0
   -1.6655   -1.4273   -3.1989 O   0  0  0  0  0  0  0  0  0  0  0  0
    0.4276   -1.7834   -3.7793 N   0  0  0  0  0  0  0  0  0  0  0  0
    0.1698   -2.7563   -3.9191 H   0  0  0  0  0  0  0  0  0  0  0  0
    1.4028   -1.5246   -3.6653 H   0  0  0  0  0  0  0  0  0  0  0  0
    0.6618   -0.3769    0.9545 C   0  0  0  0  0  0  0  0  0  0  0  0
    1.8795   -0.3193    1.0715 O   0  0  0  0  0  0  0  0  0  0  0  0
   -0.1389    0.1643    1.9435 N   0  0  0  0  0  0  0  0  0  0  0  0
   -1.1334   -0.0176    1.8466 H   0  0  0  0  0  0  0  0  0  0  0  0
    0.3765    0.5273    3.2574 C   0  0  0  0  0  0  0  0  0  0  0  0
    1.1687    1.2778    3.1659 H   0  0  0  0  0  0  0  0  0  0  0  0
   -0.4238    0.9464    3.8744 H   0  0  0  0  0  0  0  0  0  0  0  0
    0.7831   -0.3538    3.7650 H   0  0  0  0  0  0  0  0  0  0  0  0
  1  2  1  0  0  0  0
  2  3  1  0  0  0  0
  2  4  1  0  0  0  0
  2  5  1  0  0  0  0
  5  6  2  0  0  0  0
  5  7  1  0  0  0  0
  7  8  1  0  0  0  0
  7  9  1  0  0  0  0
  9 10  1  0  0  0  0
  9 11  1  0  0  0  0
  9 22  1  0  0  0  0
 11 12  1  0  0  0  0
 11 13  1  0  0  0  0
 11 14  1  0  0  0  0
 14 15  1  0  0  0  0
 14 16  1  0  0  0  0
 14 17  1  0  0  0  0
 17 18  2  0  0  0  0
 17 19  1  0  0  0  0
 19 20  1  0  0  0  0
 19 21  1  0  0  0  0
 22 23  2  0  0  0  0
 22 24  1  0  0  0  0
 24 25  1  0  0  0  0
 24 26  1  0  0  0  0
 26 27  1  0  0  0  0
 26 28  1  0  0  0  0
 26 29  1  0  0  0  0
M  END
$$$$

  -OEChem-02102214123D

 29 28  0     1  0  0  0  0  0999 V2000
   -2.6892   -4.3599    0.4913 H   0  0  0  0  0  0  0  0  0  0  0  0
   -2.6839   -3.4169   -0.0625 C   0  0  0  0  0  0  0  0  0  0  0  0
   -3.5643   -2.8354    0.2211 H   0  0  0  0  0  0  0  0  0  0  0  0
   -2.7308   -3.6353   -1.1324 H   0  0  0  0  0  0  0  0  0  0  0  0
   -1.4226   -2.6337    0.2479 C   0  0  0  0  0  0  0  0  0  0  0  0
   -0.5931   -3.0932    1.0136 O   0  0  0  0  0  0  0  0  0  0  0  0
   -1.2230   -1.4083   -0.3546 N   0  0  0  0  0  0  0  0  0  0  0  0
   -1.8742   -1.2038   -1.1175 H   0  0  0  0  0  0  0  0  0  0  0  0
    0.0758   -0.7091   -0.3912 C   0  0  1  0  0  0  0  0  0  0  0  0
    0.8080   -1.3590   -0.8831 H   0  0  0  0  0  0  0  0  0  0  0  0
   -0.0544    0.6031   -1.1980 C   0  0  0  0  0  0  0  0  0  0  0  0
   -0.9519    1.1258   -0.8496 H   0  0  0  0  0  0  0  0  0  0  0  0
    0.7999    1.2515   -0.9711 H   0  0  0  0  0  0  0  0  0  0  0  0
   -0.1372    0.4543   -2.7376 C   0  0  0  0  0  0  0  0  0  0  0  0
   -0.6799    1.3079   -3.1535 H   0  0  0  0  0  0  0  0  0  0  0  0
    0.8803    0.4952   -3.1361 H   0  0  0  0  0  0  0  0  0  0  0  0
   -0.7802   -0.8301   -3.2520 C   0  0  0  0  0  0  0  0  0  0  0  0
   -1.9653   -1.0582   -3.0781 O   0  0  0  0  0  0  0  0  0  0  0  0
   -0.0544   -1.8197   -3.8508 N   0  0  0  0  0  0  0  0  0  0  0  0
   -0.5741   -2.5907   -4.2604 H   0  0  0  0  0  0  0  0  0  0  0  0
    0.9079   -1.6440   -4.1216 H   0  0  0  0  0  0  0  0  0  0  0  0
    0.6555   -0.3773    1.0019 C   0  0  0  0  0  0  0  0  0  0  0  0
    1.8701   -0.3226    1.1471 O   0  0  0  0  0  0  0  0  0  0  0  0
   -0.1669    0.1546    1.9778 N   0  0  0  0  0  0  0  0  0  0  0  0
   -1.1597   -0.0185    1.8535 H   0  0  0  0  0  0  0  0  0  0  0  0
    0.3176    0.5115    3.3048 C   0  0  0  0  0  0  0  0  0  0  0  0
    1.1086    1.2656    3.2352 H   0  0  0  0  0  0  0  0  0  0  0  0
   -0.4980    0.9242    3.9061 H   0  0  0  0  0  0  0  0  0  0  0  0
    0.7157   -0.3713    3.8160 H   0  0  0  0  0  0  0  0  0  0  0  0
  1  2  1  0  0  0  0
  2  3  1  0  0  0  0
  2  4  1  0  0  0  0
  2  5  1  0  0  0  0
  5  6  2  0  0  0  0
  5  7  1  0  0  0  0
  7  8  1  0  0  0  0
  7  9  1  0  0  0  0
  9 10  1  0  0  0  0
  9 11  1  0  0  0  0
  9 22  1  0  0  0  0
 11 12  1  0  0  0  0
 11 13  1  0  0  0  0
 11 14  1  0  0  0  0
 14 15  1  0  0  0  0
 14 16  1  0  0  0  0
 14 17  1  0  0  0  0
 17 18  2  0  0  0  0
 17 19  1  0  0  0  0
 19 20  1  0  0  0  0
 19 21  1  0  0  0  0
 22 23  2  0  0  0  0
 22 24  1  0  0  0  0
 24 25  1  0  0  0  0
 24 26  1  0  0  0  0
 26 27  1  0  0  0  0
 26 28  1  0  0  0  0
 26 29  1  0  0  0  0
M  END
$$$$

  -OEChem-02102214123D

 29 28  0     1  0  0  0  0  0999 V2000
   -2.6969   -4.3455    0.4313 H   0  0  0  0  0  0  0  0  0  0  0  0
   -2.6974   -3.3772   -0.0768 C   0  0  0  0  0  0  0  0  0  0  0  0
   -3.5502   -2.7930    0.2767 H   0  0  0  0  0  0  0  0  0  0  0  0
   -2.8009   -3.5429   -1.1520 H   0  0  0  0  0  0  0  0  0  0  0  0
   -1.4057   -2.6351    0.2083 C   0  0  0  0  0  0  0  0  0  0  0  0
   -0.5623   -3.1339    0.9328 O   0  0  0  0  0  0  0  0  0  0  0  0
   -1.1924   -1.4015   -0.3710 N   0  0  0  0  0  0  0  0  0  0  0  0
   -1.8780   -1.1282   -1.0806 H   0  0  0  0  0  0  0  0  0  0  0  0
    0.1004   -0.6924   -0.3773 C   0  0  1  0  0  0  0  0  0  0  0  0
    0.8438   -1.3358   -0.8608 H   0  0  0  0  0  0  0  0  0  0  0  0
   -0.0137    0.6217   -1.1822 C   0  0  0  0  0  0  0  0  0  0  0  0
   -0.9176    1.1482   -0.8573 H   0  0  0  0  0  0  0  0  0  0  0  0
    0.8392    1.2657   -0.9383 H   0  0  0  0  0  0  0  0  0  0  0  0
   -0.0549    0.4581   -2.7205 C   0  0  0  0  0  0  0  0  0  0  0  0
   -0.3538    1.4075   -3.1735 H   0  0  0  0  0  0  0  0  0  0  0  0
    0.9594    0.2377   -3.0649 H   0  0  0  0  0  0  0  0  0  0  0  0
   -0.9778   -0.6376   -3.2456 C   0  0  0  0  0  0  0  0  0  0  0  0
   -2.1574   -0.6829   -2.9405 O   0  0  0  0  0  0  0  0  0  0  0  0
   -0.5179   -1.6673   -4.0152 N   0  0  0  0  0  0  0  0  0  0  0  0
   -1.2164   -2.2813   -4.4242 H   0  0  0  0  0  0  0  0  0  0  0  0
    0.4174   -1.6192   -4.4068 H   0  0  0  0  0  0  0  0  0  0  0  0
    0.6513   -0.3755    1.0307 C   0  0  0  0  0  0  0  0  0  0  0  0
    1.8623   -0.3145    1.2018 O   0  0  0  0  0  0  0  0  0  0  0  0
   -0.1926    0.1368    1.9988 N   0  0  0  0  0  0  0  0  0  0  0  0
   -1.1838   -0.0247    1.8484 H   0  0  0  0  0  0  0  0  0  0  0  0
    0.2642    0.4810    3.3390 C   0  0  0  0  0  0  0  0  0  0  0  0
    1.0395    1.2529    3.2936 H   0  0  0  0  0  0  0  0  0  0  0  0
   -0.5688    0.8651    3.9351 H   0  0  0  0  0  0  0  0  0  0  0  0
    0.6743   -0.4015    3.8412 H   0  0  0  0  0  0  0  0  0  0  0  0
  1  2  1  0  0  0  0
  2  3  1  0  0  0  0
  2  4  1  0  0  0  0
  2  5  1  0  0  0  0
  5  6  2  0  0  0  0
  5  7  1  0  0  0  0
  7  8  1  0  0  0  0
  7  9  1  0  0  0  0
  9 10  1  0  0  0  0
  9 11  1  0  0  0  0
  9 22  1  0  0  0  0
 11 12  1  0  0  0  0
 11 13  1  0  0  0  0
 11 14  1  0  0  0  0
 14 15  1  0  0  0  0
 14 16  1  0  0  0  0
 14 17  1  0  0  0  0
 17 18  2  0  0  0  0
 17 19  1  0  0  0  0
 19 20  1  0  0  0  0
 19 21  1  0  0  0  0
 22 23  2  0  0  0  0
 22 24  1  0  0  0  0
 24 25  1  0  0  0  0
 24 26  1  0  0  0  0
 26 27  1  0  0  0  0
 26 28  1  0  0  0  0
 26 29  1  0  0  0  0
M  END
$$$$

  -OEChem-02102214123D

 29 28  0     1  0  0  0  0  0999 V2000
   -2.7177   -4.3192    0.4570 H   0  0  0  0  0  0  0  0  0  0  0  0
   -2.7066   -3.3489   -0.0472 C   0  0  0  0  0  0  0  0  0  0  0  0
   -3.5347   -2.7447    0.3307 H   0  0  0  0  0  0  0  0  0  0  0  0
   -2.8416   -3.5072   -1.1199 H   0  0  0  0  0  0  0  0  0  0  0  0
   -1.3897   -2.6414    0.2083 C   0  0  0  0  0  0  0  0  0  0  0  0
   -0.5445   -3.1615    0.9155 O   0  0  0  0  0  0  0  0  0  0  0  0
   -1.1565   -1.4118   -0.3718 N   0  0  0  0  0  0  0  0  0  0  0  0
   -1.8590   -1.0937   -1.0452 H   0  0  0  0  0  0  0  0  0  0  0  0
    0.1345   -0.7024   -0.3507 C   0  0  1  0  0  0  0  0  0  0  0  0
    0.8901   -1.3501   -0.8090 H   0  0  0  0  0  0  0  0  0  0  0  0
    0.0397    0.6043   -1.1691 C   0  0  0  0  0  0  0  0  0  0  0  0
   -0.8609    1.1523   -0.8713 H   0  0  0  0  0  0  0  0  0  0  0  0
    0.8992    1.2367   -0.9192 H   0  0  0  0  0  0  0  0  0  0  0  0
    0.0393    0.4012   -2.7019 C   0  0  0  0  0  0  0  0  0  0  0  0
    0.0004    1.3795   -3.1885 H   0  0  0  0  0  0  0  0  0  0  0  0
    0.9840   -0.0702   -2.9870 H   0  0  0  0  0  0  0  0  0  0  0  0
   -1.1071   -0.4442   -3.2537 C   0  0  0  0  0  0  0  0  0  0  0  0
   -2.2322   -0.4114   -2.7841 O   0  0  0  0  0  0  0  0  0  0  0  0
   -0.9264   -1.3041   -4.2985 N   0  0  0  0  0  0  0  0  0  0  0  0
   -1.7656   -1.7053   -4.7076 H   0  0  0  0  0  0  0  0  0  0  0  0
   -0.0653   -1.2603   -4.8341 H   0  0  0  0  0  0  0  0  0  0  0  0
    0.6455   -0.3777    1.0703 C   0  0  0  0  0  0  0  0  0  0  0  0
    1.8509   -0.3220    1.2783 O   0  0  0  0  0  0  0  0  0  0  0  0
   -0.2251    0.1389    2.0123 N   0  0  0  0  0  0  0  0  0  0  0  0
   -1.2125   -0.0133    1.8308 H   0  0  0  0  0  0  0  0  0  0  0  0
    0.1928    0.4852    3.3645 C   0  0  0  0  0  0  0  0  0  0  0  0
    0.9673    1.2591    3.3407 H   0  0  0  0  0  0  0  0  0  0  0  0
   -0.6576    0.8674    3.9370 H   0  0  0  0  0  0  0  0  0  0  0  0
    0.5906   -0.3962    3.8785 H   0  0  0  0  0  0  0  0  0  0  0  0
  1  2  1  0  0  0  0
  2  3  1  0  0  0  0
  2  4  1  0  0  0  0
  2  5  1  0  0  0  0
  5  6  2  0  0  0  0
  5  7  1  0  0  0  0
  7  8  1  0  0  0  0
  7  9  1  0  0  0  0
  9 10  1  0  0  0  0
  9 11  1  0  0  0  0
  9 22  1  0  0  0  0
 11 12  1  0  0  0  0
 11 13  1  0  0  0  0
 11 14  1  0  0  0  0
 14 15  1  0  0  0  0
 14 16  1  0  0  0  0
 14 17  1  0  0  0  0
 17 18  2  0  0  0  0
 17 19  1  0  0  0  0
 19 20  1  0  0  0  0
 19 21  1  0  0  0  0
 22 23  2  0  0  0  0
 22 24  1  0  0  0  0
 24 25  1  0  0  0  0
 24 26  1  0  0  0  0
 26 27  1  0  0  0  0
 26 28  1  0  0  0  0
 26 29  1  0  0  0  0
M  END
$$$$

  -OEChem-02102214123D

 29 28  0     1  0  0  0  0  0999 V2000
   -2.7373   -4.3087    0.4890 H   0  0  0  0  0  0  0  0  0  0  0  0
   -2.7104   -3.3402   -0.0181 C   0  0  0  0  0  0  0  0  0  0  0  0
   -3.5260   -2.7197    0.3607 H   0  0  0  0  0  0  0  0  0  0  0  0
   -2.8519   -3.4989   -1.0900 H   0  0  0  0  0  0  0  0  0  0  0  0
   -1.3801   -2.6557    0.2309 C   0  0  0  0  0  0  0  0  0  0  0  0
   -0.5476   -3.1811    0.9493 O   0  0  0  0  0  0  0  0  0  0  0  0
   -1.1212   -1.4392   -0.3652 N   0  0  0  0  0  0  0  0  0  0  0  0
   -1.8232   -1.1012   -1.0294 H   0  0  0  0  0  0  0  0  0  0  0  0
    0.1717   -0.7360   -0.3255 C   0  0  1  0  0  0  0  0  0  0  0  0
    0.9371   -1.3911   -0.7555 H   0  0  0  0  0  0  0  0  0  0  0  0
    0.0830    0.5553   -1.1656 C   0  0  0  0  0  0  0  0  0  0  0  0
   -0.8108    1.1252   -0.8881 H   0  0  0  0  0  0  0  0  0  0  0  0
    0.9500    1.1803   -0.9224 H   0  0  0  0  0  0  0  0  0  0  0  0
    0.1077    0.3014   -2.6898 C   0  0  0  0  0  0  0  0  0  0  0  0
    0.3190    1.2484   -3.1937 H   0  0  0  0  0  0  0  0  0  0  0  0
    0.9249   -0.3860   -2.9264 H   0  0  0  0  0  0  0  0  0  0  0  0
   -1.1892   -0.2529   -3.2810 C   0  0  0  0  0  0  0  0  0  0  0  0
   -2.2478   -0.2772   -2.6757 O   0  0  0  0  0  0  0  0  0  0  0  0
   -1.2290   -0.7544   -4.5497 N   0  0  0  0  0  0  0  0  0  0  0  0
   -2.1503   -0.9460   -4.9330 H   0  0  0  0  0  0  0  0  0  0  0  0
   -0.4378   -0.6041   -5.1675 H   0  0  0  0  0  0  0  0  0  0  0  0
    0.6475   -0.3862    1.1016 C   0  0  0  0  0  0  0  0  0  0  0  0
    1.8469   -0.3331    1.3418 O   0  0  0  0  0  0  0  0  0  0  0  0
   -0.2461    0.1526    2.0092 N   0  0  0  0  0  0  0  0  0  0  0  0
   -1.2293    0.0114    1.7985 H   0  0  0  0  0  0  0  0  0  0  0  0
    0.1335    0.5274    3.3652 C   0  0  0  0  0  0  0  0  0  0  0  0
    0.9279    1.2809    3.3473 H   0  0  0  0  0  0  0  0  0  0  0  0
   -0.7263    0.9472    3.8958 H   0  0  0  0  0  0  0  0  0  0  0  0
    0.4908   -0.3479    3.9176 H   0  0  0  0  0  0  0  0  0  0  0  0
  1  2  1  0  0  0  0
  2  3  1  0  0  0  0
  2  4  1  0  0  0  0
  2  5  1  0  0  0  0
  5  6  2  0  0  0  0
  5  7  1  0  0  0  0
  7  8  1  0  0  0  0
  7  9  1  0  0  0  0
  9 10  1  0  0  0  0
  9 11  1  0  0  0  0
  9 22  1  0  0  0  0
 11 12  1  0  0  0  0
 11 13  1  0  0  0  0
 11 14  1  0  0  0  0
 14 15  1  0  0  0  0
 14 16  1  0  0  0  0
 14 17  1  0  0  0  0
 17 18  2  0  0  0  0
 17 19  1  0  0  0  0
 19 20  1  0  0  0  0
 19 21  1  0  0  0  0
 22 23  2  0  0  0  0
 22 24  1  0  0  0  0
 24 25  1  0  0  0  0
 24 26  1  0  0  0  0
 26 27  1  0  0  0  0
 26 28  1  0  0  0  0
 26 29  1  0  0  0  0
M  END
$$$$

  -OEChem-02102214123D

 29 28  0     1  0  0  0  0  0999 V2000
   -2.7615   -4.2885    0.4865 H   0  0  0  0  0  0  0  0  0  0  0  0
   -2.7212   -3.3213   -0.0221 C   0  0  0  0  0  0  0  0  0  0  0  0
   -3.5347   -2.6928    0.3476 H   0  0  0  0  0  0  0  0  0  0  0  0
   -2.8539   -3.4811   -1.0949 H   0  0  0  0  0  0  0  0  0  0  0  0
   -1.3879   -2.6477    0.2392 C   0  0  0  0  0  0  0  0  0  0  0  0
   -0.5725   -3.1723    0.9775 O   0  0  0  0  0  0  0  0  0  0  0  0
   -1.1064   -1.4425   -0.3687 N   0  0  0  0  0  0  0  0  0  0  0  0
   -1.7929   -1.1053   -1.0498 H   0  0  0  0  0  0  0  0  0  0  0  0
    0.1922   -0.7516   -0.3147 C   0  0  1  0  0  0  0  0  0  0  0  0
    0.9617   -1.4145   -0.7253 H   0  0  0  0  0  0  0  0  0  0  0  0
    0.1014    0.5244   -1.1735 C   0  0  0  0  0  0  0  0  0  0  0  0
   -0.7869    1.1085   -0.9080 H   0  0  0  0  0  0  0  0  0  0  0  0
    0.9729    1.1470   -0.9405 H   0  0  0  0  0  0  0  0  0  0  0  0
    0.1378    0.2244   -2.6895 C   0  0  0  0  0  0  0  0  0  0  0  0
    0.5844    1.0858   -3.1938 H   0  0  0  0  0  0  0  0  0  0  0  0
    0.7776   -0.6392   -2.8902 H   0  0  0  0  0  0  0  0  0  0  0  0
   -1.2356   -0.0080   -3.3214 C   0  0  0  0  0  0  0  0  0  0  0  0
   -2.2438   -0.2323   -2.6723 O   0  0  0  0  0  0  0  0  0  0  0  0
   -1.3968   -0.0147   -4.6767 N   0  0  0  0  0  0  0  0  0  0  0  0
   -2.2955   -0.3339   -5.0272 H   0  0  0  0  0  0  0  0  0  0  0  0
   -0.5782   -0.0213   -5.2765 H   0  0  0  0  0  0  0  0  0  0  0  0
    0.6495   -0.3845    1.1138 C   0  0  0  0  0  0  0  0  0  0  0  0
    1.8455   -0.3451    1.3728 O   0  0  0  0  0  0  0  0  0  0  0  0
   -0.2512    0.1775    2.0002 N   0  0  0  0  0  0  0  0  0  0  0  0
   -1.2330    0.0465    1.7765 H   0  0  0  0  0  0  0  0  0  0  0  0
    0.1137    0.5600    3.3582 C   0  0  0  0  0  0  0  0  0  0  0  0
    0.9164    1.3048    3.3455 H   0  0  0  0  0  0  0  0  0  0  0  0
   -0.7486    0.9935    3.8735 H   0  0  0  0  0  0  0  0  0  0  0  0
    0.4535   -0.3147    3.9227 H   0  0  0  0  0  0  0  0  0  0  0  0
  1  2  1  0  0  0  0
  2  3  1  0  0  0  0
  2  4  1  0  0  0  0
  2  5  1  0  0  0  0
  5  6  2  0  0  0  0
  5  7  1  0  0  0  0
  7  8  1  0  0  0  0
  7  9  1  0  0  0  0
  9 10  1  0  0  0  0
  9 11  1  0  0  0  0
  9 22  1  0  0  0  0
 11 12  1  0  0  0  0
 11 13  1  0  0  0  0
 11 14  1  0  0  0  0
 14 15  1  0  0  0  0
 14 16  1  0  0  0  0
 14 17  1  0  0  0  0
 17 18  2  0  0  0  0
 17 19  1  0  0  0  0
 19 20  1  0  0  0  0
 19 21  1  0  0  0  0
 22 23  2  0  0  0  0
 22 24  1  0  0  0  0
 24 25  1  0  0  0  0
 24 26  1  0  0  0  0
 26 27  1  0  0  0  0
 26 28  1  0  0  0  0
 26 29  1  0  0  0  0
M  END
$$$$

  -OEChem-02102214123D

 29 28  0     1  0  0  0  0  0999 V2000
   -2.7922   -4.2904    0.5228 H   0  0  0  0  0  0  0  0  0  0  0  0
   -2.7308   -3.3393   -0.0135 C   0  0  0  0  0  0  0  0  0  0  0  0
   -3.5557   -2.6985    0.3069 H   0  0  0  0  0  0  0  0  0  0  0  0
   -2.8253   -3.5320   -1.0850 H   0  0  0  0  0  0  0  0  0  0  0  0
   -1.4051   -2.6606    0.2742 C   0  0  0  0  0  0  0  0  0  0  0  0
   -0.6281   -3.1527    1.0738 O   0  0  0  0  0  0  0  0  0  0  0  0
   -1.0892   -1.4852   -0.3745 N   0  0  0  0  0  0  0  0  0  0  0  0
   -1.7356   -1.1878   -1.1114 H   0  0  0  0  0  0  0  0  0  0  0  0
    0.2213   -0.8144   -0.3128 C   0  0  1  0  0  0  0  0  0  0  0  0
    0.9940   -1.4951   -0.6867 H   0  0  0  0  0  0  0  0  0  0  0  0
    0.1314    0.4282   -1.2133 C   0  0  0  0  0  0  0  0  0  0  0  0
   -0.7598    1.0194   -0.9731 H   0  0  0  0  0  0  0  0  0  0  0  0
    0.9996    1.0633   -1.0021 H   0  0  0  0  0  0  0  0  0  0  0  0
    0.1777    0.0480   -2.7093 C   0  0  0  0  0  0  0  0  0  0  0  0
    0.8511    0.7388   -3.2241 H   0  0  0  0  0  0  0  0  0  0  0  0
    0.5738   -0.9610   -2.8544 H   0  0  0  0  0  0  0  0  0  0  0  0
   -1.1994    0.1492   -3.3581 C   0  0  0  0  0  0  0  0  0  0  0  0
   -2.1928   -0.3075   -2.8165 O   0  0  0  0  0  0  0  0  0  0  0  0
   -1.3917    0.7492   -4.5692 N   0  0  0  0  0  0  0  0  0  0  0  0
   -2.3079    0.6322   -4.9929 H   0  0  0  0  0  0  0  0  0  0  0  0
   -0.5869    0.9808   -5.1425 H   0  0  0  0  0  0  0  0  0  0  0  0
    0.6533   -0.3963    1.1092 C   0  0  0  0  0  0  0  0  0  0  0  0
    1.8445   -0.3499    1.3882 O   0  0  0  0  0  0  0  0  0  0  0  0
   -0.2592    0.2173    1.9478 N   0  0  0  0  0  0  0  0  0  0  0  0
   -1.2372    0.0733    1.7160 H   0  0  0  0  0  0  0  0  0  0  0  0
    0.0835    0.6728    3.2885 C   0  0  0  0  0  0  0  0  0  0  0  0
    0.8868    1.4161    3.2473 H   0  0  0  0  0  0  0  0  0  0  0  0
   -0.7870    1.1335    3.7651 H   0  0  0  0  0  0  0  0  0  0  0  0
    0.4138   -0.1697    3.9054 H   0  0  0  0  0  0  0  0  0  0  0  0
  1  2  1  0  0  0  0
  2  3  1  0  0  0  0
  2  4  1  0  0  0  0
  2  5  1  0  0  0  0
  5  6  2  0  0  0  0
  5  7  1  0  0  0  0
  7  8  1  0  0  0  0
  7  9  1  0  0  0  0
  9 10  1  0  0  0  0
  9 11  1  0  0  0  0
  9 22  1  0  0  0  0
 11 12  1  0  0  0  0
 11 13  1  0  0  0  0
 11 14  1  0  0  0  0
 14 15  1  0  0  0  0
 14 16  1  0  0  0  0
 14 17  1  0  0  0  0
 17 18  2  0  0  0  0
 17 19  1  0  0  0  0
 19 20  1  0  0  0  0
 19 21  1  0  0  0  0
 22 23  2  0  0  0  0
 22 24  1  0  0  0  0
 24 25  1  0  0  0  0
 24 26  1  0  0  0  0
 26 27  1  0  0  0  0
 26 28  1  0  0  0  0
 26 29  1  0  0  0  0
M  END
$$$$

  -OEChem-02102214123D

 29 28  0     1  0  0  0  0  0999 V2000
   -2.8138   -4.2821    0.5567 H   0  0  0  0  0  0  0  0  0  0  0  0
   -2.7534   -3.3356    0.0122 C   0  0  0  0  0  0  0  0  0  0  0  0
   -3.5720   -2.6887    0.3364 H   0  0  0  0  0  0  0  0  0  0  0  0
   -2.8597   -3.5378   -1.0565 H   0  0  0  0  0  0  0  0  0  0  0  0
   -1.4216   -2.6612    0.2824 C   0  0  0  0  0  0  0  0  0  0  0  0
   -0.6447   -3.1461    1.0861 O   0  0  0  0  0  0  0  0  0  0  0  0
   -1.0989   -1.4974   -0.3848 N   0  0  0  0  0  0  0  0  0  0  0  0
   -1.7493   -1.1963   -1.1137 H   0  0  0  0  0  0  0  0  0  0  0  0
    0.2175   -0.8339   -0.3298 C   0  0  1  0  0  0  0  0  0  0  0  0
    0.9888   -1.5190   -0.6997 H   0  0  0  0  0  0  0  0  0  0  0  0
    0.1118    0.3885   -1.2496 C   0  0  0  0  0  0  0  0  0  0  0  0
   -0.7903    0.9648   -1.0117 H   0  0  0  0  0  0  0  0  0  0  0  0
    0.9673    1.0473   -1.0605 H   0  0  0  0  0  0  0  0  0  0  0  0
    0.1501   -0.0375   -2.7330 C   0  0  0  0  0  0  0  0  0  0  0  0
    1.0068    0.4336   -3.2224 H   0  0  0  0  0  0  0  0  0  0  0  0
    0.2687   -1.1197   -2.8404 H   0  0  0  0  0  0  0  0  0  0  0  0
   -1.1286    0.3858   -3.4403 C   0  0  0  0  0  0  0  0  0  0  0  0
   -2.2070   -0.0287   -3.0504 O   0  0  0  0  0  0  0  0  0  0  0  0
   -1.1393    1.2624   -4.4871 N   0  0  0  0  0  0  0  0  0  0  0  0
   -2.0230    1.3759   -4.9757 H   0  0  0  0  0  0  0  0  0  0  0  0
   -0.2654    1.5028   -4.9437 H   0  0  0  0  0  0  0  0  0  0  0  0
    0.6577   -0.3935    1.0833 C   0  0  0  0  0  0  0  0  0  0  0  0
    1.8502   -0.3555    1.3570 O   0  0  0  0  0  0  0  0  0  0  0  0
   -0.2448    0.2424    1.9162 N   0  0  0  0  0  0  0  0  0  0  0  0
   -1.2255    0.1055    1.6915 H   0  0  0  0  0  0  0  0  0  0  0  0
    0.1090    0.7131    3.2490 C   0  0  0  0  0  0  0  0  0  0  0  0
    0.9146    1.4529    3.1936 H   0  0  0  0  0  0  0  0  0  0  0  0
   -0.7566    1.1823    3.7260 H   0  0  0  0  0  0  0  0  0  0  0  0
    0.4407   -0.1227    3.8740 H   0  0  0  0  0  0  0  0  0  0  0  0
  1  2  1  0  0  0  0
  2  3  1  0  0  0  0
  2  4  1  0  0  0  0
  2  5  1  0  0  0  0
  5  6  2  0  0  0  0
  5  7  1  0  0  0  0
  7  8  1  0  0  0  0
  7  9  1  0  0  0  0
  9 10  1  0  0  0  0
  9 11  1  0  0  0  0
  9 22  1  0  0  0  0
 11 12  1  0  0  0  0
 11 13  1  0  0  0  0
 11 14  1  0  0  0  0
 14 15  1  0  0  0  0
 14 16  1  0  0  0  0
 14 17  1  0  0  0  0
 17 18  2  0  0  0  0
 17 19  1  0  0  0  0
 19 20  1  0  0  0  0
 19 21  1  0  0  0  0
 22 23  2  0  0  0  0
 22 24  1  0  0  0  0
 24 25  1  0  0  0  0
 24 26  1  0  0  0  0
 26 27  1  0  0  0  0
 26 28  1  0  0  0  0
 26 29  1  0  0  0  0
M  END
$$$$

  -OEChem-02102214123D

 29 28  0     1  0  0  0  0  0999 V2000
   -2.8310   -4.2721    0.6763 H   0  0  0  0  0  0  0  0  0  0  0  0
   -2.7826   -3.3403    0.1058 C   0  0  0  0  0  0  0  0  0  0  0  0
   -3.5768   -2.6741    0.4509 H   0  0  0  0  0  0  0  0  0  0  0  0
   -2.9399   -3.5673   -0.9515 H   0  0  0  0  0  0  0  0  0  0  0  0
   -1.4308   -2.6797    0.2986 C   0  0  0  0  0  0  0  0  0  0  0  0
   -0.6113   -3.1780    1.0495 O   0  0  0  0  0  0  0  0  0  0  0  0
   -1.1384   -1.5116   -0.3764 N   0  0  0  0  0  0  0  0  0  0  0  0
   -1.8314   -1.1860   -1.0494 H   0  0  0  0  0  0  0  0  0  0  0  0
    0.1758   -0.8413   -0.3603 C   0  0  1  0  0  0  0  0  0  0  0  0
    0.9357   -1.5283   -0.7495 H   0  0  0  0  0  0  0  0  0  0  0  0
    0.0709    0.3837   -1.2786 C   0  0  0  0  0  0  0  0  0  0  0  0
   -0.8372    0.9450   -1.0285 H   0  0  0  0  0  0  0  0  0  0  0  0
    0.9199    1.0533   -1.0985 H   0  0  0  0  0  0  0  0  0  0  0  0
    0.0833   -0.0330   -2.7645 C   0  0  0  0  0  0  0  0  0  0  0  0
    1.0673    0.1713   -3.1950 H   0  0  0  0  0  0  0  0  0  0  0  0
   -0.1033   -1.1054   -2.8736 H   0  0  0  0  0  0  0  0  0  0  0  0
   -0.9912    0.7067   -3.5469 C   0  0  0  0  0  0  0  0  0  0  0  0
   -2.1697    0.5159   -3.3072 O   0  0  0  0  0  0  0  0  0  0  0  0
   -0.6961    1.6389   -4.5001 N   0  0  0  0  0  0  0  0  0  0  0  0
   -1.4744    1.9800   -5.0573 H   0  0  0  0  0  0  0  0  0  0  0  0
    0.2555    1.7161   -4.8441 H   0  0  0  0  0  0  0  0  0  0  0  0
    0.6533   -0.4043    1.0419 C   0  0  0  0  0  0  0  0  0  0  0  0
    1.8525   -0.3629    1.2837 O   0  0  0  0  0  0  0  0  0  0  0  0
   -0.2288    0.2231    1.9027 N   0  0  0  0  0  0  0  0  0  0  0  0
   -1.2151    0.0944    1.7005 H   0  0  0  0  0  0  0  0  0  0  0  0
    0.1587    0.6950    3.2258 C   0  0  0  0  0  0  0  0  0  0  0  0
    0.9459    1.4522    3.1478 H   0  0  0  0  0  0  0  0  0  0  0  0
   -0.7004    1.1431    3.7340 H   0  0  0  0  0  0  0  0  0  0  0  0
    0.5283   -0.1369    3.8348 H   0  0  0  0  0  0  0  0  0  0  0  0
  1  2  1  0  0  0  0
  2  3  1  0  0  0  0
  2  4  1  0  0  0  0
  2  5  1  0  0  0  0
  5  6  2  0  0  0  0
  5  7  1  0  0  0  0
  7  8  1  0  0  0  0
  7  9  1  0  0  0  0
  9 10  1  0  0  0  0
  9 11  1  0  0  0  0
  9 22  1  0  0  0  0
 11 12  1  0  0  0  0
 11 13  1  0  0  0  0
 11 14  1  0  0  0  0
 14 15  1  0  0  0  0
 14 16  1  0  0  0  0
 14 17  1  0  0  0  0
 17 18  2  0  0  0  0
 17 19  1  0  0  0  0
 19 20  1  0  0  0  0
 19 21  1  0  0  0  0
 22 23  2  0  0  0  0
 22 24  1  0  0  0  0
 24 25  1  0  0  0  0
 24 26  1  0  0  0  0
 26 27  1  0  0  0  0
 26 28  1  0  0  0  0
 26 29  1  0  0  0  0
M  END
$$$$

  -OEChem-02102214123D

 29 28  0     1  0  0  0  0  0999 V2000
   -2.8316   -4.2866    0.7639 H   0  0  0  0  0  0  0  0  0  0  0  0
   -2.8030   -3.3654    0.1749 C   0  0  0  0  0  0  0  0  0  0  0  0
   -3.5876   -2.6941    0.5325 H   0  0  0  0  0  0  0  0  0  0  0  0
   -2.9935   -3.6126   -0.8723 H   0  0  0  0  0  0  0  0  0  0  0  0
   -1.4468   -2.6998    0.3140 C   0  0  0  0  0  0  0  0  0  0  0  0
   -0.6012   -3.1884    1.0417 O   0  0  0  0  0  0  0  0  0  0  0  0
   -1.1809   -1.5358   -0.3797 N   0  0  0  0  0  0  0  0  0  0  0  0
   -1.8974   -1.2154   -1.0278 H   0  0  0  0  0  0  0  0  0  0  0  0
    0.1305   -0.8598   -0.4051 C   0  0  1  0  0  0  0  0  0  0  0  0
    0.8794   -1.5533   -0.8042 H   0  0  0  0  0  0  0  0  0  0  0  0
    0.0236    0.3589   -1.3332 C   0  0  0  0  0  0  0  0  0  0  0  0
   -0.8854    0.9171   -1.0807 H   0  0  0  0  0  0  0  0  0  0  0  0
    0.8731    1.0320   -1.1678 H   0  0  0  0  0  0  0  0  0  0  0  0
    0.0106   -0.0624   -2.8152 C   0  0  0  0  0  0  0  0  0  0  0  0
    1.0350   -0.1360   -3.1910 H   0  0  0  0  0  0  0  0  0  0  0  0
   -0.4516   -1.0464   -2.9336 H   0  0  0  0  0  0  0  0  0  0  0  0
   -0.7898    0.9236   -3.6533 C   0  0  0  0  0  0  0  0  0  0  0  0
   -2.0009    0.9868   -3.5546 O   0  0  0  0  0  0  0  0  0  0  0  0
   -0.1922    1.8335   -4.4774 N   0  0  0  0  0  0  0  0  0  0  0  0
   -0.7877    2.5701   -4.8453 H   0  0  0  0  0  0  0  0  0  0  0  0
    0.8137    1.9596   -4.4326 H   0  0  0  0  0  0  0  0  0  0  0  0
    0.6441   -0.4088    0.9803 C   0  0  0  0  0  0  0  0  0  0  0  0
    1.8496   -0.3552    1.1851 O   0  0  0  0  0  0  0  0  0  0  0  0
   -0.2149    0.2225    1.8617 N   0  0  0  0  0  0  0  0  0  0  0  0
   -1.2068    0.0930    1.6899 H   0  0  0  0  0  0  0  0  0  0  0  0
    0.2131    0.7218    3.1624 C   0  0  0  0  0  0  0  0  0  0  0  0
    0.9595    1.5139    3.0419 H   0  0  0  0  0  0  0  0  0  0  0  0
   -0.6406    1.1330    3.7093 H   0  0  0  0  0  0  0  0  0  0  0  0
    0.6503   -0.0864    3.7582 H   0  0  0  0  0  0  0  0  0  0  0  0
  1  2  1  0  0  0  0
  2  3  1  0  0  0  0
  2  4  1  0  0  0  0
  2  5  1  0  0  0  0
  5  6  2  0  0  0  0
  5  7  1  0  0  0  0
  7  8  1  0  0  0  0
  7  9  1  0  0  0  0
  9 10  1  0  0  0  0
  9 11  1  0  0  0  0
  9 22  1  0  0  0  0
 11 12  1  0  0  0  0
 11 13  1  0  0  0  0
 11 14  1  0  0  0  0
 14 15  1  0  0  0  0
 14 16  1  0  0  0  0
 14 17  1  0  0  0  0
 17 18  2  0  0  0  0
 17 19  1  0  0  0  0
 19 20  1  0  0  0  0
 19 21  1  0  0  0  0
 22 23  2  0  0  0  0
 22 24  1  0  0  0  0
 24 25  1  0  0  0  0
 24 26  1  0  0  0  0
 26 27  1  0  0  0  0
 26 28  1  0  0  0  0
 26 29  1  0  0  0  0
M  END
$$$$

  -OEChem-02102214123D

 29 28  0     1  0  0  0  0  0999 V2000
   -2.8140   -4.2813    0.7999 H   0  0  0  0  0  0  0  0  0  0  0  0
   -2.8010   -3.3661    0.2008 C   0  0  0  0  0  0  0  0  0  0  0  0
   -3.5797   -2.6941    0.5693 H   0  0  0  0  0  0  0  0  0  0  0  0
   -3.0131   -3.6243   -0.8394 H   0  0  0  0  0  0  0  0  0  0  0  0
   -1.4439   -2.6958    0.3024 C   0  0  0  0  0  0  0  0  0  0  0  0
   -0.5705   -3.1933    0.9900 O   0  0  0  0  0  0  0  0  0  0  0  0
   -1.2070   -1.5202   -0.3828 N   0  0  0  0  0  0  0  0  0  0  0  0
   -1.9494   -1.1874   -0.9929 H   0  0  0  0  0  0  0  0  0  0  0  0
    0.0987   -0.8354   -0.4350 C   0  0  1  0  0  0  0  0  0  0  0  0
    0.8384   -1.5232   -0.8599 H   0  0  0  0  0  0  0  0  0  0  0  0
   -0.0263    0.3941   -1.3472 C   0  0  0  0  0  0  0  0  0  0  0  0
   -0.9289    0.9545   -1.0775 H   0  0  0  0  0  0  0  0  0  0  0  0
    0.8302    1.0604   -1.1914 H   0  0  0  0  0  0  0  0  0  0  0  0
   -0.0687   -0.0125   -2.8301 C   0  0  0  0  0  0  0  0  0  0  0  0
    0.9244   -0.3319   -3.1579 H   0  0  0  0  0  0  0  0  0  0  0  0
   -0.7515   -0.8538   -2.9778 H   0  0  0  0  0  0  0  0  0  0  0  0
   -0.5549    1.1429   -3.6922 C   0  0  0  0  0  0  0  0  0  0  0  0
   -1.7236    1.4797   -3.6867 O   0  0  0  0  0  0  0  0  0  0  0  0
    0.2996    1.9031   -4.4381 N   0  0  0  0  0  0  0  0  0  0  0  0
   -0.0807    2.7623   -4.8250 H   0  0  0  0  0  0  0  0  0  0  0  0
    1.3005    1.7966   -4.3092 H   0  0  0  0  0  0  0  0  0  0  0  0
    0.6473   -0.4006    0.9417 C   0  0  0  0  0  0  0  0  0  0  0  0
    1.8577   -0.3489    1.1159 O   0  0  0  0  0  0  0  0  0  0  0  0
   -0.1904    0.2126    1.8556 N   0  0  0  0  0  0  0  0  0  0  0  0
   -1.1859    0.0857    1.7053 H   0  0  0  0  0  0  0  0  0  0  0  0
    0.2682    0.6777    3.1585 C   0  0  0  0  0  0  0  0  0  0  0  0
    1.0506    1.4351    3.0420 H   0  0  0  0  0  0  0  0  0  0  0  0
   -0.5620    1.1234    3.7146 H   0  0  0  0  0  0  0  0  0  0  0  0
    0.6699   -0.1570    3.7427 H   0  0  0  0  0  0  0  0  0  0  0  0
  1  2  1  0  0  0  0
  2  3  1  0  0  0  0
  2  4  1  0  0  0  0
  2  5  1  0  0  0  0
  5  6  2  0  0  0  0
  5  7  1  0  0  0  0
  7  8  1  0  0  0  0
  7  9  1  0  0  0  0
  9 10  1  0  0  0  0
  9 11  1  0  0  0  0
  9 22  1  0  0  0  0
 11 12  1  0  0  0  0
 11 13  1  0  0  0  0
 11 14  1  0  0  0  0
 14 15  1  0  0  0  0
 14 16  1  0  0  0  0
 14 17  1  0  0  0  0
 17 18  2  0  0  0  0
 17 19  1  0  0  0  0
 19 20  1  0  0  0  0
 19 21  1  0  0  0  0
 22 23  2  0  0  0  0
 22 24  1  0  0  0  0
 24 25  1  0  0  0  0
 24 26  1  0  0  0  0
 26 27  1  0  0  0  0
 26 28  1  0  0  0  0
 26 29  1  0  0  0  0
M  END
$$$$

  -OEChem-02102214123D

 29 28  0     1  0  0  0  0  0999 V2000
   -2.7710   -4.3292    0.8154 H   0  0  0  0  0  0  0  0  0  0  0  0
   -2.8004   -3.3962    0.2451 C   0  0  0  0  0  0  0  0  0  0  0  0
   -3.5556   -2.7397    0.6842 H   0  0  0  0  0  0  0  0  0  0  0  0
   -3.0793   -3.6242   -0.7865 H   0  0  0  0  0  0  0  0  0  0  0  0
   -1.4421   -2.7213    0.2784 C   0  0  0  0  0  0  0  0  0  0  0  0
   -0.5227   -3.2346    0.8899 O   0  0  0  0  0  0  0  0  0  0  0  0
   -1.2567   -1.5210   -0.3792 N   0  0  0  0  0  0  0  0  0  0  0  0
   -2.0467   -1.1564   -0.9043 H   0  0  0  0  0  0  0  0  0  0  0  0
    0.0307   -0.8057   -0.4612 C   0  0  1  0  0  0  0  0  0  0  0  0
    0.7591   -1.4775   -0.9293 H   0  0  0  0  0  0  0  0  0  0  0  0
   -0.1203    0.4387   -1.3506 C   0  0  0  0  0  0  0  0  0  0  0  0
   -0.8547    1.1192   -0.9048 H   0  0  0  0  0  0  0  0  0  0  0  0
    0.8388    0.9687   -1.3856 H   0  0  0  0  0  0  0  0  0  0  0  0
   -0.5527    0.0840   -2.7843 C   0  0  0  0  0  0  0  0  0  0  0  0
    0.1846   -0.5810   -3.2430 H   0  0  0  0  0  0  0  0  0  0  0  0
   -1.5151   -0.4347   -2.7842 H   0  0  0  0  0  0  0  0  0  0  0  0
   -0.6895    1.3442   -3.6259 C   0  0  0  0  0  0  0  0  0  0  0  0
   -1.6886    2.0339   -3.5637 O   0  0  0  0  0  0  0  0  0  0  0  0
    0.3190    1.7969   -4.4274 N   0  0  0  0  0  0  0  0  0  0  0  0
    0.2112    2.7379   -4.7953 H   0  0  0  0  0  0  0  0  0  0  0  0
    1.2412    1.3818   -4.3447 H   0  0  0  0  0  0  0  0  0  0  0  0
    0.6299   -0.3961    0.9020 C   0  0  0  0  0  0  0  0  0  0  0  0
    1.8454   -0.3244    1.0249 O   0  0  0  0  0  0  0  0  0  0  0  0
   -0.1783    0.1736    1.8691 N   0  0  0  0  0  0  0  0  0  0  0  0
   -1.1775    0.0354    1.7597 H   0  0  0  0  0  0  0  0  0  0  0  0
    0.3304    0.6330    3.1553 C   0  0  0  0  0  0  0  0  0  0  0  0
    1.0662    1.4317    3.0137 H   0  0  0  0  0  0  0  0  0  0  0  0
   -0.4877    1.0234    3.7679 H   0  0  0  0  0  0  0  0  0  0  0  0
    0.8056   -0.1926    3.6957 H   0  0  0  0  0  0  0  0  0  0  0  0
  1  2  1  0  0  0  0
  2  3  1  0  0  0  0
  2  4  1  0  0  0  0
  2  5  1  0  0  0  0
  5  6  2  0  0  0  0
  5  7  1  0  0  0  0
  7  8  1  0  0  0  0
  7  9  1  0  0  0  0
  9 10  1  0  0  0  0
  9 11  1  0  0  0  0
  9 22  1  0  0  0  0
 11 12  1  0  0  0  0
 11 13  1  0  0  0  0
 11 14  1  0  0  0  0
 14 15  1  0  0  0  0
 14 16  1  0  0  0  0
 14 17  1  0  0  0  0
 17 18  2  0  0  0  0
 17 19  1  0  0  0  0
 19 20  1  0  0  0  0
 19 21  1  0  0  0  0
 22 23  2  0  0  0  0
 22 24  1  0  0  0  0
 24 25  1  0  0  0  0
 24 26  1  0  0  0  0
 26 27  1  0  0  0  0
 26 28  1  0  0  0  0
 26 29  1  0  0  0  0
M  END
$$$$

  -OEChem-02102214123D

 29 28  0     1  0  0  0  0  0999 V2000
   -2.7985   -4.3010    0.7678 H   0  0  0  0  0  0  0  0  0  0  0  0
   -2.8244   -3.3613    0.2086 C   0  0  0  0  0  0  0  0  0  0  0  0
   -3.5726   -2.7050    0.6595 H   0  0  0  0  0  0  0  0  0  0  0  0
   -3.1107   -3.5749   -0.8241 H   0  0  0  0  0  0  0  0  0  0  0  0
   -1.4611   -2.6966    0.2424 C   0  0  0  0  0  0  0  0  0  0  0  0
   -0.5407   -3.2262    0.8382 O   0  0  0  0  0  0  0  0  0  0  0  0
   -1.2729   -1.4863   -0.3958 N   0  0  0  0  0  0  0  0  0  0  0  0
   -2.0611   -1.1141   -0.9177 H   0  0  0  0  0  0  0  0  0  0  0  0
    0.0210   -0.7834   -0.4826 C   0  0  1  0  0  0  0  0  0  0  0  0
    0.7367   -1.4523   -0.9739 H   0  0  0  0  0  0  0  0  0  0  0  0
   -0.1386    0.4795   -1.3434 C   0  0  0  0  0  0  0  0  0  0  0  0
   -0.8504    1.1694   -0.8766 H   0  0  0  0  0  0  0  0  0  0  0  0
    0.8311    0.9897   -1.3862 H   0  0  0  0  0  0  0  0  0  0  0  0
   -0.6005    0.1492   -2.7735 C   0  0  0  0  0  0  0  0  0  0  0  0
   -0.0268   -0.6944   -3.1681 H   0  0  0  0  0  0  0  0  0  0  0  0
   -1.6570   -0.1330   -2.7797 H   0  0  0  0  0  0  0  0  0  0  0  0
   -0.3998    1.3449   -3.6931 C   0  0  0  0  0  0  0  0  0  0  0  0
   -1.2508    2.2063   -3.7974 O   0  0  0  0  0  0  0  0  0  0  0  0
    0.7579    1.5400   -4.3907 N   0  0  0  0  0  0  0  0  0  0  0  0
    0.8722    2.4533   -4.8214 H   0  0  0  0  0  0  0  0  0  0  0  0
    1.5704    0.9735   -4.1695 H   0  0  0  0  0  0  0  0  0  0  0  0
    0.6446   -0.4049    0.8783 C   0  0  0  0  0  0  0  0  0  0  0  0
    1.8625   -0.3489    0.9842 O   0  0  0  0  0  0  0  0  0  0  0  0
   -0.1438    0.1557    1.8666 N   0  0  0  0  0  0  0  0  0  0  0  0
   -1.1458    0.0301    1.7684 H   0  0  0  0  0  0  0  0  0  0  0  0
    0.3873    0.5753    3.1571 C   0  0  0  0  0  0  0  0  0  0  0  0
    1.1401    1.3595    3.0255 H   0  0  0  0  0  0  0  0  0  0  0  0
   -0.4157    0.9711    3.7861 H   0  0  0  0  0  0  0  0  0  0  0  0
    0.8484   -0.2726    3.6747 H   0  0  0  0  0  0  0  0  0  0  0  0
  1  2  1  0  0  0  0
  2  3  1  0  0  0  0
  2  4  1  0  0  0  0
  2  5  1  0  0  0  0
  5  6  2  0  0  0  0
  5  7  1  0  0  0  0
  7  8  1  0  0  0  0
  7  9  1  0  0  0  0
  9 10  1  0  0  0  0
  9 11  1  0  0  0  0
  9 22  1  0  0  0  0
 11 12  1  0  0  0  0
 11 13  1  0  0  0  0
 11 14  1  0  0  0  0
 14 15  1  0  0  0  0
 14 16  1  0  0  0  0
 14 17  1  0  0  0  0
 17 18  2  0  0  0  0
 17 19  1  0  0  0  0
 19 20  1  0  0  0  0
 19 21  1  0  0  0  0
 22 23  2  0  0  0  0
 22 24  1  0  0  0  0
 24 25  1  0  0  0  0
 24 26  1  0  0  0  0
 26 27  1  0  0  0  0
 26 28  1  0  0  0  0
 26 29  1  0  0  0  0
M  END
$$$$

  -OEChem-02102214123D

 29 28  0     1  0  0  0  0  0999 V2000
   -2.8314   -4.2637    0.7310 H   0  0  0  0  0  0  0  0  0  0  0  0
   -2.8512   -3.3256    0.1689 C   0  0  0  0  0  0  0  0  0  0  0  0
   -3.5911   -2.6616    0.6221 H   0  0  0  0  0  0  0  0  0  0  0  0
   -3.1446   -3.5396   -0.8616 H   0  0  0  0  0  0  0  0  0  0  0  0
   -1.4815   -2.6737    0.1945 C   0  0  0  0  0  0  0  0  0  0  0  0
   -0.5576   -3.2239    0.7656 O   0  0  0  0  0  0  0  0  0  0  0  0
   -1.2899   -1.4509   -0.4190 N   0  0  0  0  0  0  0  0  0  0  0  0
   -2.0782   -1.0643   -0.9303 H   0  0  0  0  0  0  0  0  0  0  0  0
    0.0107   -0.7599   -0.5046 C   0  0  1  0  0  0  0  0  0  0  0  0
    0.7142   -1.4258   -1.0174 H   0  0  0  0  0  0  0  0  0  0  0  0
   -0.1445    0.5225   -1.3370 C   0  0  0  0  0  0  0  0  0  0  0  0
   -0.8382    1.2163   -0.8494 H   0  0  0  0  0  0  0  0  0  0  0  0
    0.8339    1.0167   -1.3752 H   0  0  0  0  0  0  0  0  0  0  0  0
   -0.6259    0.2275   -2.7706 C   0  0  0  0  0  0  0  0  0  0  0  0
   -0.2643   -0.7514   -3.0983 H   0  0  0  0  0  0  0  0  0  0  0  0
   -1.7189    0.2073   -2.8056 H   0  0  0  0  0  0  0  0  0  0  0  0
   -0.1048    1.2695   -3.7508 C   0  0  0  0  0  0  0  0  0  0  0  0
   -0.7713    2.2401   -4.0513 O   0  0  0  0  0  0  0  0  0  0  0  0
    1.1417    1.1877   -4.3030 N   0  0  0  0  0  0  0  0  0  0  0  0
    1.4680    2.0153   -4.7941 H   0  0  0  0  0  0  0  0  0  0  0  0
    1.8083    0.5238   -3.9222 H   0  0  0  0  0  0  0  0  0  0  0  0
    0.6528   -0.4200    0.8583 C   0  0  0  0  0  0  0  0  0  0  0  0
    1.8723   -0.3799    0.9510 O   0  0  0  0  0  0  0  0  0  0  0  0
   -0.1176    0.1258    1.8690 N   0  0  0  0  0  0  0  0  0  0  0  0
   -1.1217    0.0091    1.7817 H   0  0  0  0  0  0  0  0  0  0  0  0
    0.4331    0.5058    3.1640 C   0  0  0  0  0  0  0  0  0  0  0  0
    1.1816    1.2965    3.0458 H   0  0  0  0  0  0  0  0  0  0  0  0
   -0.3611    0.8782    3.8180 H   0  0  0  0  0  0  0  0  0  0  0  0
    0.9047   -0.3566    3.6473 H   0  0  0  0  0  0  0  0  0  0  0  0
  1  2  1  0  0  0  0
  2  3  1  0  0  0  0
  2  4  1  0  0  0  0
  2  5  1  0  0  0  0
  5  6  2  0  0  0  0
  5  7  1  0  0  0  0
  7  8  1  0  0  0  0
  7  9  1  0  0  0  0
  9 10  1  0  0  0  0
  9 11  1  0  0  0  0
  9 22  1  0  0  0  0
 11 12  1  0  0  0  0
 11 13  1  0  0  0  0
 11 14  1  0  0  0  0
 14 15  1  0  0  0  0
 14 16  1  0  0  0  0
 14 17  1  0  0  0  0
 17 18  2  0  0  0  0
 17 19  1  0  0  0  0
 19 20  1  0  0  0  0
 19 21  1  0  0  0  0
 22 23  2  0  0  0  0
 22 24  1  0  0  0  0
 24 25  1  0  0  0  0
 24 26  1  0  0  0  0
 26 27  1  0  0  0  0
 26 28  1  0  0  0  0
 26 29  1  0  0  0  0
M  END
$$$$

  -OEChem-02102214123D

 29 28  0     1  0  0  0  0  0999 V2000
   -2.8748   -4.2495    0.6294 H   0  0  0  0  0  0  0  0  0  0  0  0
   -2.8820   -3.3022    0.0826 C   0  0  0  0  0  0  0  0  0  0  0  0
   -3.6329   -2.6457    0.5285 H   0  0  0  0  0  0  0  0  0  0  0  0
   -3.1504   -3.4995   -0.9580 H   0  0  0  0  0  0  0  0  0  0  0  0
   -1.5136   -2.6506    0.1511 C   0  0  0  0  0  0  0  0  0  0  0  0
   -0.6002   -3.2133    0.7268 O   0  0  0  0  0  0  0  0  0  0  0  0
   -1.3095   -1.4172   -0.4367 N   0  0  0  0  0  0  0  0  0  0  0  0
   -2.0868   -1.0255   -0.9609 H   0  0  0  0  0  0  0  0  0  0  0  0
    0.0003   -0.7422   -0.5154 C   0  0  1  0  0  0  0  0  0  0  0  0
    0.6900   -1.4071   -1.0476 H   0  0  0  0  0  0  0  0  0  0  0  0
   -0.1412    0.5595   -1.3205 C   0  0  0  0  0  0  0  0  0  0  0  0
   -0.8274    1.2465   -0.8135 H   0  0  0  0  0  0  0  0  0  0  0  0
    0.8394    1.0502   -1.3456 H   0  0  0  0  0  0  0  0  0  0  0  0
   -0.6342    0.3049   -2.7606 C   0  0  0  0  0  0  0  0  0  0  0  0
   -0.5291   -0.7520   -3.0223 H   0  0  0  0  0  0  0  0  0  0  0  0
   -1.6945    0.5621   -2.8432 H   0  0  0  0  0  0  0  0  0  0  0  0
    0.1646    1.1109   -3.7769 C   0  0  0  0  0  0  0  0  0  0  0  0
   -0.2954    2.1101   -4.2929 O   0  0  0  0  0  0  0  0  0  0  0  0
    1.4326    0.7608   -4.1446 N   0  0  0  0  0  0  0  0  0  0  0  0
    1.9442    1.4475   -4.6918 H   0  0  0  0  0  0  0  0  0  0  0  0
    1.9339    0.0708   -3.5943 H   0  0  0  0  0  0  0  0  0  0  0  0
    0.6610   -0.4383    0.8468 C   0  0  0  0  0  0  0  0  0  0  0  0
    1.8822   -0.4125    0.9220 O   0  0  0  0  0  0  0  0  0  0  0  0
   -0.0892    0.0976    1.8775 N   0  0  0  0  0  0  0  0  0  0  0  0
   -1.0950   -0.0161    1.8072 H   0  0  0  0  0  0  0  0  0  0  0  0
    0.4868    0.4521    3.1686 C   0  0  0  0  0  0  0  0  0  0  0  0
    1.2354    1.2425    3.0500 H   0  0  0  0  0  0  0  0  0  0  0  0
   -0.2933    0.8152    3.8445 H   0  0  0  0  0  0  0  0  0  0  0  0
    0.9646   -0.4205    3.6265 H   0  0  0  0  0  0  0  0  0  0  0  0
  1  2  1  0  0  0  0
  2  3  1  0  0  0  0
  2  4  1  0  0  0  0
  2  5  1  0  0  0  0
  5  6  2  0  0  0  0
  5  7  1  0  0  0  0
  7  8  1  0  0  0  0
  7  9  1  0  0  0  0
  9 10  1  0  0  0  0
  9 11  1  0  0  0  0
  9 22  1  0  0  0  0
 11 12  1  0  0  0  0
 11 13  1  0  0  0  0
 11 14  1  0  0  0  0
 14 15  1  0  0  0  0
 14 16  1  0  0  0  0
 14 17  1  0  0  0  0
 17 18  2  0  0  0  0
 17 19  1  0  0  0  0
 19 20  1  0  0  0  0
 19 21  1  0  0  0  0
 22 23  2  0  0  0  0
 22 24  1  0  0  0  0
 24 25  1  0  0  0  0
 24 26  1  0  0  0  0
 26 27  1  0  0  0  0
 26 28  1  0  0  0  0
 26 29  1  0  0  0  0
M  END
$$$$

  -OEChem-02102214123D

 29 28  0     1  0  0  0  0  0999 V2000
   -2.9060   -4.2355    0.5409 H   0  0  0  0  0  0  0  0  0  0  0  0
   -2.9059   -3.2774    0.0132 C   0  0  0  0  0  0  0  0  0  0  0  0
   -3.6529   -2.6247    0.4709 H   0  0  0  0  0  0  0  0  0  0  0  0
   -3.1744   -3.4522   -1.0315 H   0  0  0  0  0  0  0  0  0  0  0  0
   -1.5332   -2.6369    0.0964 C   0  0  0  0  0  0  0  0  0  0  0  0
   -0.6235   -3.2174    0.6601 O   0  0  0  0  0  0  0  0  0  0  0  0
   -1.3200   -1.3929   -0.4655 N   0  0  0  0  0  0  0  0  0  0  0  0
   -2.0939   -0.9857   -0.9830 H   0  0  0  0  0  0  0  0  0  0  0  0
   -0.0041   -0.7286   -0.5337 C   0  0  1  0  0  0  0  0  0  0  0  0
    0.6761   -1.3914   -1.0804 H   0  0  0  0  0  0  0  0  0  0  0  0
   -0.1246    0.5909   -1.3145 C   0  0  0  0  0  0  0  0  0  0  0  0
   -0.8189    1.2584   -0.7928 H   0  0  0  0  0  0  0  0  0  0  0  0
    0.8511    1.0919   -1.3163 H   0  0  0  0  0  0  0  0  0  0  0  0
   -0.6170    0.3797   -2.7631 C   0  0  0  0  0  0  0  0  0  0  0  0
   -0.8030   -0.6781   -2.9680 H   0  0  0  0  0  0  0  0  0  0  0  0
   -1.5601    0.9151   -2.9085 H   0  0  0  0  0  0  0  0  0  0  0  0
    0.3964    0.8832   -3.7843 C   0  0  0  0  0  0  0  0  0  0  0  0
    0.1369    1.8045   -4.5330 O   0  0  0  0  0  0  0  0  0  0  0  0
    1.6304    0.3133   -3.9226 N   0  0  0  0  0  0  0  0  0  0  0  0
    2.2891    0.8136   -4.5129 H   0  0  0  0  0  0  0  0  0  0  0  0
    1.9699   -0.3131   -3.1993 H   0  0  0  0  0  0  0  0  0  0  0  0
    0.6636   -0.4602    0.8320 C   0  0  0  0  0  0  0  0  0  0  0  0
    1.8852   -0.4441    0.9008 O   0  0  0  0  0  0  0  0  0  0  0  0
   -0.0785    0.0604    1.8764 N   0  0  0  0  0  0  0  0  0  0  0  0
   -1.0850   -0.0507    1.8102 H   0  0  0  0  0  0  0  0  0  0  0  0
    0.5059    0.3830    3.1722 C   0  0  0  0  0  0  0  0  0  0  0  0
    1.2757    1.1543    3.0641 H   0  0  0  0  0  0  0  0  0  0  0  0
   -0.2647    0.7588    3.8519 H   0  0  0  0  0  0  0  0  0  0  0  0
    0.9601   -0.5076    3.6196 H   0  0  0  0  0  0  0  0  0  0  0  0
  1  2  1  0  0  0  0
  2  3  1  0  0  0  0
  2  4  1  0  0  0  0
  2  5  1  0  0  0  0
  5  6  2  0  0  0  0
  5  7  1  0  0  0  0
  7  8  1  0  0  0  0
  7  9  1  0  0  0  0
  9 10  1  0  0  0  0
  9 11  1  0  0  0  0
  9 22  1  0  0  0  0
 11 12  1  0  0  0  0
 11 13  1  0  0  0  0
 11 14  1  0  0  0  0
 14 15  1  0  0  0  0
 14 16  1  0  0  0  0
 14 17  1  0  0  0  0
 17 18  2  0  0  0  0
 17 19  1  0  0  0  0
 19 20  1  0  0  0  0
 19 21  1  0  0  0  0
 22 23  2  0  0  0  0
 22 24  1  0  0  0  0
 24 25  1  0  0  0  0
 24 26  1  0  0  0  0
 26 27  1  0  0  0  0
 26 28  1  0  0  0  0
 26 29  1  0  0  0  0
M  END
$$$$

  -OEChem-02102214123D

 29 28  0     1  0  0  0  0  0999 V2000
   -2.9557   -4.2153    0.4462 H   0  0  0  0  0  0  0  0  0  0  0  0
   -2.9413   -3.2471   -0.0628 C   0  0  0  0  0  0  0  0  0  0  0  0
   -3.6861   -2.5960    0.4010 H   0  0  0  0  0  0  0  0  0  0  0  0
   -3.2019   -3.3989   -1.1130 H   0  0  0  0  0  0  0  0  0  0  0  0
   -1.5631   -2.6215    0.0442 C   0  0  0  0  0  0  0  0  0  0  0  0
   -0.6646   -3.2192    0.6078 O   0  0  0  0  0  0  0  0  0  0  0  0
   -1.3322   -1.3705   -0.4944 N   0  0  0  0  0  0  0  0  0  0  0  0
   -2.0973   -0.9489   -1.0131 H   0  0  0  0  0  0  0  0  0  0  0  0
   -0.0074   -0.7224   -0.5464 C   0  0  1  0  0  0  0  0  0  0  0  0
    0.6633   -1.3899   -1.0983 H   0  0  0  0  0  0  0  0  0  0  0  0
   -0.0938    0.6109   -1.3105 C   0  0  0  0  0  0  0  0  0  0  0  0
   -0.7957    1.2663   -0.7838 H   0  0  0  0  0  0  0  0  0  0  0  0
    0.8808    1.1139   -1.2897 H   0  0  0  0  0  0  0  0  0  0  0  0
   -0.5742    0.4398   -2.7684 C   0  0  0  0  0  0  0  0  0  0  0  0
   -1.0514   -0.5303   -2.9258 H   0  0  0  0  0  0  0  0  0  0  0  0
   -1.3175    1.2121   -2.9887 H   0  0  0  0  0  0  0  0  0  0  0  0
    0.5672    0.5855   -3.7701 C   0  0  0  0  0  0  0  0  0  0  0  0
    0.4634    1.3055   -4.7434 O   0  0  0  0  0  0  0  0  0  0  0  0
    1.7327   -0.1198   -3.6619 N   0  0  0  0  0  0  0  0  0  0  0  0
    2.4778    0.1527   -4.2970 H   0  0  0  0  0  0  0  0  0  0  0  0
    1.9562   -0.5768   -2.7832 H   0  0  0  0  0  0  0  0  0  0  0  0
    0.6596   -0.4875    0.8258 C   0  0  0  0  0  0  0  0  0  0  0  0
    1.8814   -0.4879    0.8951 O   0  0  0  0  0  0  0  0  0  0  0  0
   -0.0775    0.0238    1.8781 N   0  0  0  0  0  0  0  0  0  0  0  0
   -1.0848   -0.0782    1.8095 H   0  0  0  0  0  0  0  0  0  0  0  0
    0.5078    0.3109    3.1818 C   0  0  0  0  0  0  0  0  0  0  0  0
    1.3046    1.0566    3.0894 H   0  0  0  0  0  0  0  0  0  0  0  0
   -0.2549    0.7052    3.8600 H   0  0  0  0  0  0  0  0  0  0  0  0
    0.9269   -0.6003    3.6216 H   0  0  0  0  0  0  0  0  0  0  0  0
  1  2  1  0  0  0  0
  2  3  1  0  0  0  0
  2  4  1  0  0  0  0
  2  5  1  0  0  0  0
  5  6  2  0  0  0  0
  5  7  1  0  0  0  0
  7  8  1  0  0  0  0
  7  9  1  0  0  0  0
  9 10  1  0  0  0  0
  9 11  1  0  0  0  0
  9 22  1  0  0  0  0
 11 12  1  0  0  0  0
 11 13  1  0  0  0  0
 11 14  1  0  0  0  0
 14 15  1  0  0  0  0
 14 16  1  0  0  0  0
 14 17  1  0  0  0  0
 17 18  2  0  0  0  0
 17 19  1  0  0  0  0
 19 20  1  0  0  0  0
 19 21  1  0  0  0  0
 22 23  2  0  0  0  0
 22 24  1  0  0  0  0
 24 25  1  0  0  0  0
 24 26  1  0  0  0  0
 26 27  1  0  0  0  0
 26 28  1  0  0  0  0
 26 29  1  0  0  0  0
M  END
$$$$

  -OEChem-02102214123D

 29 28  0     1  0  0  0  0  0999 V2000
   -2.7359   -4.2907    0.5493 H   0  0  0  0  0  0  0  0  0  0  0  0
   -2.7140   -3.3362    0.0155 C   0  0  0  0  0  0  0  0  0  0  0  0
   -3.5148   -2.7004    0.4005 H   0  0  0  0  0  0  0  0  0  0  0  0
   -2.8843   -3.5251   -1.0470 H   0  0  0  0  0  0  0  0  0  0  0  0
   -1.3710   -2.6591    0.2144 C   0  0  0  0  0  0  0  0  0  0  0  0
   -0.5270   -3.1863    0.9148 O   0  0  0  0  0  0  0  0  0  0  0  0
   -1.1240   -1.4415   -0.3902 N   0  0  0  0  0  0  0  0  0  0  0  0
   -1.8497   -1.0782   -0.9992 H   0  0  0  0  0  0  0  0  0  0  0  0
    0.1715   -0.7331   -0.3424 C   0  0  1  0  0  0  0  0  0  0  0  0
    0.9409   -1.3873   -0.7692 H   0  0  0  0  0  0  0  0  0  0  0  0
    0.1025    0.5505   -1.1921 C   0  0  0  0  0  0  0  0  0  0  0  0
   -0.6805    1.1933   -0.7767 H   0  0  0  0  0  0  0  0  0  0  0  0
    1.0449    1.1039   -1.0998 H   0  0  0  0  0  0  0  0  0  0  0  0
   -0.2177    0.2833   -2.6843 C   0  0  0  0  0  0  0  0  0  0  0  0
   -0.8859   -0.5726   -2.7974 H   0  0  0  0  0  0  0  0  0  0  0  0
   -0.7388    1.1590   -3.0809 H   0  0  0  0  0  0  0  0  0  0  0  0
    1.0157    0.0642   -3.5616 C   0  0  0  0  0  0  0  0  0  0  0  0
    2.1559    0.1007   -3.1447 O   0  0  0  0  0  0  0  0  0  0  0  0
    0.8939   -0.2084   -4.8939 N   0  0  0  0  0  0  0  0  0  0  0  0
    1.7451   -0.5029   -5.3648 H   0  0  0  0  0  0  0  0  0  0  0  0
   -0.0136   -0.4552   -5.2722 H   0  0  0  0  0  0  0  0  0  0  0  0
    0.6366   -0.3769    1.0886 C   0  0  0  0  0  0  0  0  0  0  0  0
    1.8289   -0.3494    1.3592 O   0  0  0  0  0  0  0  0  0  0  0  0
   -0.2651    0.1638    1.9886 N   0  0  0  0  0  0  0  0  0  0  0  0
   -1.2465    0.0283    1.7722 H   0  0  0  0  0  0  0  0  0  0  0  0
    0.1071    0.5292    3.3497 C   0  0  0  0  0  0  0  0  0  0  0  0
    0.8991    1.2855    3.3408 H   0  0  0  0  0  0  0  0  0  0  0  0
   -0.7561    0.9415    3.8808 H   0  0  0  0  0  0  0  0  0  0  0  0
    0.4657   -0.3495    3.8963 H   0  0  0  0  0  0  0  0  0  0  0  0
  1  2  1  0  0  0  0
  2  3  1  0  0  0  0
  2  4  1  0  0  0  0
  2  5  1  0  0  0  0
  5  6  2  0  0  0  0
  5  7  1  0  0  0  0
  7  8  1  0  0  0  0
  7  9  1  0  0  0  0
  9 10  1  0  0  0  0
  9 11  1  0  0  0  0
  9 22  1  0  0  0  0
 11 12  1  0  0  0  0
 11 13  1  0  0  0  0
 11 14  1  0  0  0  0
 14 15  1  0  0  0  0
 14 16  1  0  0  0  0
 14 17  1  0  0  0  0
 17 18  2  0  0  0  0
 17 19  1  0  0  0  0
 19 20  1  0  0  0  0
 19 21  1  0  0  0  0
 22 23  2  0  0  0  0
 22 24  1  0  0  0  0
 24 25  1  0  0  0  0
 24 26  1  0  0  0  0
 26 27  1  0  0  0  0
 26 28  1  0  0  0  0
 26 29  1  0  0  0  0
M  END
$$$$

  -OEChem-02102214123D

 29 28  0     1  0  0  0  0  0999 V2000
   -2.7555   -4.2977    0.5261 H   0  0  0  0  0  0  0  0  0  0  0  0
   -2.7253   -3.3443   -0.0092 C   0  0  0  0  0  0  0  0  0  0  0  0
   -3.5438   -2.7145    0.3470 H   0  0  0  0  0  0  0  0  0  0  0  0
   -2.8587   -3.5374   -1.0762 H   0  0  0  0  0  0  0  0  0  0  0  0
   -1.3960   -2.6544    0.2320 C   0  0  0  0  0  0  0  0  0  0  0  0
   -0.5771   -3.1654    0.9730 O   0  0  0  0  0  0  0  0  0  0  0  0
   -1.1354   -1.4427   -0.3792 N   0  0  0  0  0  0  0  0  0  0  0  0
   -1.8351   -1.1046   -1.0313 H   0  0  0  0  0  0  0  0  0  0  0  0
    0.1684   -0.7495   -0.3321 C   0  0  1  0  0  0  0  0  0  0  0  0
    0.9301   -1.4161   -0.7531 H   0  0  0  0  0  0  0  0  0  0  0  0
    0.1122    0.5350   -1.1832 C   0  0  0  0  0  0  0  0  0  0  0  0
   -0.6518    1.1984   -0.7651 H   0  0  0  0  0  0  0  0  0  0  0  0
    1.0714    1.0616   -1.1052 H   0  0  0  0  0  0  0  0  0  0  0  0
   -0.2122    0.2767   -2.6737 C   0  0  0  0  0  0  0  0  0  0  0  0
   -1.0731   -0.3881   -2.7706 H   0  0  0  0  0  0  0  0  0  0  0  0
   -0.4817    1.2299   -3.1366 H   0  0  0  0  0  0  0  0  0  0  0  0
    0.9547   -0.3029   -3.4733 C   0  0  0  0  0  0  0  0  0  0  0  0
    2.0941   -0.3517   -3.0558 O   0  0  0  0  0  0  0  0  0  0  0  0
    0.7749   -0.7935   -4.7347 N   0  0  0  0  0  0  0  0  0  0  0  0
    1.6247   -1.0080   -5.2497 H   0  0  0  0  0  0  0  0  0  0  0  0
   -0.0864   -0.5908   -5.2294 H   0  0  0  0  0  0  0  0  0  0  0  0
    0.6386   -0.3896    1.0967 C   0  0  0  0  0  0  0  0  0  0  0  0
    1.8321   -0.3602    1.3629 O   0  0  0  0  0  0  0  0  0  0  0  0
   -0.2577    0.1678    1.9921 N   0  0  0  0  0  0  0  0  0  0  0  0
   -1.2397    0.0226    1.7843 H   0  0  0  0  0  0  0  0  0  0  0  0
    0.1208    0.5479    3.3474 C   0  0  0  0  0  0  0  0  0  0  0  0
    0.9177    1.2988    3.3271 H   0  0  0  0  0  0  0  0  0  0  0  0
   -0.7379    0.9731    3.8752 H   0  0  0  0  0  0  0  0  0  0  0  0
    0.4746   -0.3261    3.9045 H   0  0  0  0  0  0  0  0  0  0  0  0
  1  2  1  0  0  0  0
  2  3  1  0  0  0  0
  2  4  1  0  0  0  0
  2  5  1  0  0  0  0
  5  6  2  0  0  0  0
  5  7  1  0  0  0  0
  7  8  1  0  0  0  0
  7  9  1  0  0  0  0
  9 10  1  0  0  0  0
  9 11  1  0  0  0  0
  9 22  1  0  0  0  0
 11 12  1  0  0  0  0
 11 13  1  0  0  0  0
 11 14  1  0  0  0  0
 14 15  1  0  0  0  0
 14 16  1  0  0  0  0
 14 17  1  0  0  0  0
 17 18  2  0  0  0  0
 17 19  1  0  0  0  0
 19 20  1  0  0  0  0
 19 21  1  0  0  0  0
 22 23  2  0  0  0  0
 22 24  1  0  0  0  0
 24 25  1  0  0  0  0
 24 26  1  0  0  0  0
 26 27  1  0  0  0  0
 26 28  1  0  0  0  0
 26 29  1  0  0  0  0
M  END
$$$$

  -OEChem-02102214123D

 29 28  0     1  0  0  0  0  0999 V2000
   -2.7916   -4.2355    0.4805 H   0  0  0  0  0  0  0  0  0  0  0  0
   -2.7116   -3.3177   -0.1093 C   0  0  0  0  0  0  0  0  0  0  0  0
   -3.5396   -2.6566    0.1568 H   0  0  0  0  0  0  0  0  0  0  0  0
   -2.7821   -3.5740   -1.1690 H   0  0  0  0  0  0  0  0  0  0  0  0
   -1.3870   -2.6328    0.1702 C   0  0  0  0  0  0  0  0  0  0  0  0
   -0.5829   -3.1565    0.9186 O   0  0  0  0  0  0  0  0  0  0  0  0
   -1.1139   -1.4121   -0.4173 N   0  0  0  0  0  0  0  0  0  0  0  0
   -1.7990   -1.0667   -1.0809 H   0  0  0  0  0  0  0  0  0  0  0  0
    0.1923   -0.7267   -0.3431 C   0  0  1  0  0  0  0  0  0  0  0  0
    0.9579   -1.3875   -0.7657 H   0  0  0  0  0  0  0  0  0  0  0  0
    0.1365    0.5766   -1.1664 C   0  0  0  0  0  0  0  0  0  0  0  0
   -0.6131    1.2464   -0.7327 H   0  0  0  0  0  0  0  0  0  0  0  0
    1.1075    1.0806   -1.0845 H   0  0  0  0  0  0  0  0  0  0  0  0
   -0.1820    0.3630   -2.6633 C   0  0  0  0  0  0  0  0  0  0  0  0
   -1.1725   -0.0848   -2.7695 H   0  0  0  0  0  0  0  0  0  0  0  0
   -0.2077    1.3361   -3.1614 H   0  0  0  0  0  0  0  0  0  0  0  0
    0.8367   -0.5102   -3.3927 C   0  0  0  0  0  0  0  0  0  0  0  0
    2.0241   -0.4809   -3.1402 O   0  0  0  0  0  0  0  0  0  0  0  0
    0.4657   -1.3624   -4.3932 N   0  0  0  0  0  0  0  0  0  0  0  0
    1.2297   -1.7727   -4.9238 H   0  0  0  0  0  0  0  0  0  0  0  0
   -0.4498   -1.2598   -4.8161 H   0  0  0  0  0  0  0  0  0  0  0  0
    0.6473   -0.3938    1.0974 C   0  0  0  0  0  0  0  0  0  0  0  0
    1.8383   -0.3714    1.3749 O   0  0  0  0  0  0  0  0  0  0  0  0
   -0.2557    0.1523    1.9930 N   0  0  0  0  0  0  0  0  0  0  0  0
   -1.2360    0.0124    1.7739 H   0  0  0  0  0  0  0  0  0  0  0  0
    0.1105    0.5062    3.3590 C   0  0  0  0  0  0  0  0  0  0  0  0
    0.9061    1.2589    3.3603 H   0  0  0  0  0  0  0  0  0  0  0  0
   -0.7538    0.9191    3.8875 H   0  0  0  0  0  0  0  0  0  0  0  0
    0.4613   -0.3779    3.9019 H   0  0  0  0  0  0  0  0  0  0  0  0
  1  2  1  0  0  0  0
  2  3  1  0  0  0  0
  2  4  1  0  0  0  0
  2  5  1  0  0  0  0
  5  6  2  0  0  0  0
  5  7  1  0  0  0  0
  7  8  1  0  0  0  0
  7  9  1  0  0  0  0
  9 10  1  0  0  0  0
  9 11  1  0  0  0  0
  9 22  1  0  0  0  0
 11 12  1  0  0  0  0
 11 13  1  0  0  0  0
 11 14  1  0  0  0  0
 14 15  1  0  0  0  0
 14 16  1  0  0  0  0
 14 17  1  0  0  0  0
 17 18  2  0  0  0  0
 17 19  1  0  0  0  0
 19 20  1  0  0  0  0
 19 21  1  0  0  0  0
 22 23  2  0  0  0  0
 22 24  1  0  0  0  0
 24 25  1  0  0  0  0
 24 26  1  0  0  0  0
 26 27  1  0  0  0  0
 26 28  1  0  0  0  0
 26 29  1  0  0  0  0
M  END
$$$$

  -OEChem-02102214123D

 29 28  0     1  0  0  0  0  0999 V2000
   -2.7915   -4.2376    0.3902 H   0  0  0  0  0  0  0  0  0  0  0  0
   -2.6950   -3.3162   -0.1915 C   0  0  0  0  0  0  0  0  0  0  0  0
   -3.5426   -2.6659    0.0376 H   0  0  0  0  0  0  0  0  0  0  0  0
   -2.7129   -3.5692   -1.2543 H   0  0  0  0  0  0  0  0  0  0  0  0
   -1.3935   -2.6169    0.1525 C   0  0  0  0  0  0  0  0  0  0  0  0
   -0.6292   -3.1247    0.9518 O   0  0  0  0  0  0  0  0  0  0  0  0
   -1.0969   -1.4018   -0.4351 N   0  0  0  0  0  0  0  0  0  0  0  0
   -1.7401   -1.0827   -1.1513 H   0  0  0  0  0  0  0  0  0  0  0  0
    0.2161   -0.7333   -0.3368 C   0  0  1  0  0  0  0  0  0  0  0  0
    0.9836   -1.4036   -0.7402 H   0  0  0  0  0  0  0  0  0  0  0  0
    0.1816    0.5722   -1.1582 C   0  0  0  0  0  0  0  0  0  0  0  0
   -0.5502    1.2623   -0.7258 H   0  0  0  0  0  0  0  0  0  0  0  0
    1.1671    1.0455   -1.0677 H   0  0  0  0  0  0  0  0  0  0  0  0
   -0.1176    0.3885   -2.6635 C   0  0  0  0  0  0  0  0  0  0  0  0
   -1.1854    0.1950   -2.7908 H   0  0  0  0  0  0  0  0  0  0  0  0
    0.1107    1.3190   -3.1909 H   0  0  0  0  0  0  0  0  0  0  0  0
    0.6603   -0.7444   -3.3275 C   0  0  0  0  0  0  0  0  0  0  0  0
    1.8657   -0.8461   -3.2257 O   0  0  0  0  0  0  0  0  0  0  0  0
    0.0423   -1.7043   -4.0776 N   0  0  0  0  0  0  0  0  0  0  0  0
    0.6682   -2.3086   -4.6040 H   0  0  0  0  0  0  0  0  0  0  0  0
   -0.8947   -1.5280   -4.4210 H   0  0  0  0  0  0  0  0  0  0  0  0
    0.6485   -0.4003    1.1105 C   0  0  0  0  0  0  0  0  0  0  0  0
    1.8356   -0.3800    1.4050 O   0  0  0  0  0  0  0  0  0  0  0  0
   -0.2651    0.1612    1.9854 N   0  0  0  0  0  0  0  0  0  0  0  0
   -1.2420    0.0183    1.7532 H   0  0  0  0  0  0  0  0  0  0  0  0
    0.0794    0.5192    3.3557 C   0  0  0  0  0  0  0  0  0  0  0  0
    0.8787    1.2676    3.3677 H   0  0  0  0  0  0  0  0  0  0  0  0
   -0.7920    0.9387    3.8675 H   0  0  0  0  0  0  0  0  0  0  0  0
    0.4163   -0.3644    3.9082 H   0  0  0  0  0  0  0  0  0  0  0  0
  1  2  1  0  0  0  0
  2  3  1  0  0  0  0
  2  4  1  0  0  0  0
  2  5  1  0  0  0  0
  5  6  2  0  0  0  0
  5  7  1  0  0  0  0
  7  8  1  0  0  0  0
  7  9  1  0  0  0  0
  9 10  1  0  0  0  0
  9 11  1  0  0  0  0
  9 22  1  0  0  0  0
 11 12  1  0  0  0  0
 11 13  1  0  0  0  0
 11 14  1  0  0  0  0
 14 15  1  0  0  0  0
 14 16  1  0  0  0  0
 14 17  1  0  0  0  0
 17 18  2  0  0  0  0
 17 19  1  0  0  0  0
 19 20  1  0  0  0  0
 19 21  1  0  0  0  0
 22 23  2  0  0  0  0
 22 24  1  0  0  0  0
 24 25  1  0  0  0  0
 24 26  1  0  0  0  0
 26 27  1  0  0  0  0
 26 28  1  0  0  0  0
 26 29  1  0  0  0  0
M  END
$$$$

  -OEChem-02102214123D

 29 28  0     1  0  0  0  0  0999 V2000
   -2.7903   -4.2524    0.3436 H   0  0  0  0  0  0  0  0  0  0  0  0
   -2.6737   -3.3382   -0.2454 C   0  0  0  0  0  0  0  0  0  0  0  0
   -3.5505   -2.7054   -0.0896 H   0  0  0  0  0  0  0  0  0  0  0  0
   -2.6080   -3.6080   -1.3022 H   0  0  0  0  0  0  0  0  0  0  0  0
   -1.4168   -2.6024    0.1793 C   0  0  0  0  0  0  0  0  0  0  0  0
   -0.7134   -3.0674    1.0570 O   0  0  0  0  0  0  0  0  0  0  0  0
   -1.0939   -1.4040   -0.4285 N   0  0  0  0  0  0  0  0  0  0  0  0
   -1.6700   -1.1501   -1.2236 H   0  0  0  0  0  0  0  0  0  0  0  0
    0.2280   -0.7560   -0.3134 C   0  0  1  0  0  0  0  0  0  0  0  0
    0.9931   -1.4466   -0.6859 H   0  0  0  0  0  0  0  0  0  0  0  0
    0.2332    0.5359   -1.1586 C   0  0  0  0  0  0  0  0  0  0  0  0
   -0.4855    1.2521   -0.7470 H   0  0  0  0  0  0  0  0  0  0  0  0
    1.2290    0.9825   -1.0533 H   0  0  0  0  0  0  0  0  0  0  0  0
   -0.0356    0.3585   -2.6727 C   0  0  0  0  0  0  0  0  0  0  0  0
   -1.1114    0.4489   -2.8434 H   0  0  0  0  0  0  0  0  0  0  0  0
    0.4483    1.1714   -3.2218 H   0  0  0  0  0  0  0  0  0  0  0  0
    0.4243   -0.9692   -3.2681 C   0  0  0  0  0  0  0  0  0  0  0  0
    1.5862   -1.3195   -3.2490 O   0  0  0  0  0  0  0  0  0  0  0  0
   -0.4534   -1.8451   -3.8421 N   0  0  0  0  0  0  0  0  0  0  0  0
   -0.0139   -2.6126   -4.3446 H   0  0  0  0  0  0  0  0  0  0  0  0
   -1.3465   -1.4877   -4.1623 H   0  0  0  0  0  0  0  0  0  0  0  0
    0.6383   -0.3998    1.1349 C   0  0  0  0  0  0  0  0  0  0  0  0
    1.8216   -0.3834    1.4458 O   0  0  0  0  0  0  0  0  0  0  0  0
   -0.2810    0.1956    1.9805 N   0  0  0  0  0  0  0  0  0  0  0  0
   -1.2555    0.0499    1.7389 H   0  0  0  0  0  0  0  0  0  0  0  0
    0.0465    0.5720    3.3501 C   0  0  0  0  0  0  0  0  0  0  0  0
    0.8506    1.3154    3.3620 H   0  0  0  0  0  0  0  0  0  0  0  0
   -0.8290    1.0047    3.8434 H   0  0  0  0  0  0  0  0  0  0  0  0
    0.3695   -0.3052    3.9207 H   0  0  0  0  0  0  0  0  0  0  0  0
  1  2  1  0  0  0  0
  2  3  1  0  0  0  0
  2  4  1  0  0  0  0
  2  5  1  0  0  0  0
  5  6  2  0  0  0  0
  5  7  1  0  0  0  0
  7  8  1  0  0  0  0
  7  9  1  0  0  0  0
  9 10  1  0  0  0  0
  9 11  1  0  0  0  0
  9 22  1  0  0  0  0
 11 12  1  0  0  0  0
 11 13  1  0  0  0  0
 11 14  1  0  0  0  0
 14 15  1  0  0  0  0
 14 16  1  0  0  0  0
 14 17  1  0  0  0  0
 17 18  2  0  0  0  0
 17 19  1  0  0  0  0
 19 20  1  0  0  0  0
 19 21  1  0  0  0  0
 22 23  2  0  0  0  0
 22 24  1  0  0  0  0
 24 25  1  0  0  0  0
 24 26  1  0  0  0  0
 26 27  1  0  0  0  0
 26 28  1  0  0  0  0
 26 29  1  0  0  0  0
M  END
$$$$

  -OEChem-02102214123D

 29 28  0     1  0  0  0  0  0999 V2000
   -2.8192   -4.2459    0.4126 H   0  0  0  0  0  0  0  0  0  0  0  0
   -2.6575   -3.3780   -0.2332 C   0  0  0  0  0  0  0  0  0  0  0  0
   -3.5440   -2.7408   -0.1940 H   0  0  0  0  0  0  0  0  0  0  0  0
   -2.5097   -3.7259   -1.2585 H   0  0  0  0  0  0  0  0  0  0  0  0
   -1.4380   -2.6039    0.2304 C   0  0  0  0  0  0  0  0  0  0  0  0
   -0.7887   -3.0120    1.1759 O   0  0  0  0  0  0  0  0  0  0  0  0
   -1.0989   -1.4273   -0.4105 N   0  0  0  0  0  0  0  0  0  0  0  0
   -1.6148   -1.2512   -1.2665 H   0  0  0  0  0  0  0  0  0  0  0  0
    0.2299   -0.7920   -0.2919 C   0  0  1  0  0  0  0  0  0  0  0  0
    0.9906   -1.5026   -0.6352 H   0  0  0  0  0  0  0  0  0  0  0  0
    0.2805    0.4790   -1.1687 C   0  0  0  0  0  0  0  0  0  0  0  0
   -0.4346    1.2133   -0.7832 H   0  0  0  0  0  0  0  0  0  0  0  0
    1.2802    0.9120   -1.0436 H   0  0  0  0  0  0  0  0  0  0  0  0
    0.0453    0.3010   -2.6911 C   0  0  0  0  0  0  0  0  0  0  0  0
   -0.9509    0.6824   -2.9304 H   0  0  0  0  0  0  0  0  0  0  0  0
    0.7640    0.9196   -3.2369 H   0  0  0  0  0  0  0  0  0  0  0  0
    0.1409   -1.1243   -3.2274 C   0  0  0  0  0  0  0  0  0  0  0  0
    1.1824   -1.7463   -3.2458 O   0  0  0  0  0  0  0  0  0  0  0  0
   -0.9594   -1.7937   -3.6852 N   0  0  0  0  0  0  0  0  0  0  0  0
   -0.7413   -2.6600   -4.1721 H   0  0  0  0  0  0  0  0  0  0  0  0
   -1.7492   -1.2396   -3.9988 H   0  0  0  0  0  0  0  0  0  0  0  0
    0.6229   -0.3983    1.1517 C   0  0  0  0  0  0  0  0  0  0  0  0
    1.8036   -0.3771    1.4735 O   0  0  0  0  0  0  0  0  0  0  0  0
   -0.3013    0.2328    1.9653 N   0  0  0  0  0  0  0  0  0  0  0  0
   -1.2732    0.0706    1.7225 H   0  0  0  0  0  0  0  0  0  0  0  0
    0.0116    0.6378    3.3300 C   0  0  0  0  0  0  0  0  0  0  0  0
    0.8345    1.3602    3.3371 H   0  0  0  0  0  0  0  0  0  0  0  0
   -0.8611    1.1063    3.7949 H   0  0  0  0  0  0  0  0  0  0  0  0
    0.3011   -0.2318    3.9297 H   0  0  0  0  0  0  0  0  0  0  0  0
  1  2  1  0  0  0  0
  2  3  1  0  0  0  0
  2  4  1  0  0  0  0
  2  5  1  0  0  0  0
  5  6  2  0  0  0  0
  5  7  1  0  0  0  0
  7  8  1  0  0  0  0
  7  9  1  0  0  0  0
  9 10  1  0  0  0  0
  9 11  1  0  0  0  0
  9 22  1  0  0  0  0
 11 12  1  0  0  0  0
 11 13  1  0  0  0  0
 11 14  1  0  0  0  0
 14 15  1  0  0  0  0
 14 16  1  0  0  0  0
 14 17  1  0  0  0  0
 17 18  2  0  0  0  0
 17 19  1  0  0  0  0
 19 20  1  0  0  0  0
 19 21  1  0  0  0  0
 22 23  2  0  0  0  0
 22 24  1  0  0  0  0
 24 25  1  0  0  0  0
 24 26  1  0  0  0  0
 26 27  1  0  0  0  0
 26 28  1  0  0  0  0
 26 29  1  0  0  0  0
M  END
$$$$

  -OEChem-02102214123D

 29 28  0     1  0  0  0  0  0999 V2000
   -2.8061   -4.2852    0.4600 H   0  0  0  0  0  0  0  0  0  0  0  0
   -2.6509   -3.4230   -0.1947 C   0  0  0  0  0  0  0  0  0  0  0  0
   -3.5512   -2.8042   -0.1808 H   0  0  0  0  0  0  0  0  0  0  0  0
   -2.4767   -3.7816   -1.2122 H   0  0  0  0  0  0  0  0  0  0  0  0
   -1.4567   -2.6168    0.2797 C   0  0  0  0  0  0  0  0  0  0  0  0
   -0.8326   -2.9832    1.2591 O   0  0  0  0  0  0  0  0  0  0  0  0
   -1.1136   -1.4580   -0.3907 N   0  0  0  0  0  0  0  0  0  0  0  0
   -1.6011   -1.3337   -1.2735 H   0  0  0  0  0  0  0  0  0  0  0  0
    0.2177   -0.8251   -0.2774 C   0  0  1  0  0  0  0  0  0  0  0  0
    0.9720   -1.5543   -0.5961 H   0  0  0  0  0  0  0  0  0  0  0  0
    0.3151    0.4201   -1.1887 C   0  0  0  0  0  0  0  0  0  0  0  0
   -0.4142    1.1584   -0.8386 H   0  0  0  0  0  0  0  0  0  0  0  0
    1.3078    0.8617   -1.0395 H   0  0  0  0  0  0  0  0  0  0  0  0
    0.1167    0.2253   -2.7161 C   0  0  0  0  0  0  0  0  0  0  0  0
   -0.7027    0.8692   -3.0460 H   0  0  0  0  0  0  0  0  0  0  0  0
    1.0190    0.5719   -3.2287 H   0  0  0  0  0  0  0  0  0  0  0  0
   -0.1619   -1.1936   -3.2011 C   0  0  0  0  0  0  0  0  0  0  0  0
    0.6899   -2.0568   -3.2334 O   0  0  0  0  0  0  0  0  0  0  0  0
   -1.4207   -1.5919   -3.5551 N   0  0  0  0  0  0  0  0  0  0  0  0
   -1.4476   -2.4903   -4.0322 H   0  0  0  0  0  0  0  0  0  0  0  0
   -2.0756   -0.8690   -3.8365 H   0  0  0  0  0  0  0  0  0  0  0  0
    0.6020   -0.3967    1.1583 C   0  0  0  0  0  0  0  0  0  0  0  0
    1.7820   -0.3635    1.4824 O   0  0  0  0  0  0  0  0  0  0  0  0
   -0.3255    0.2588    1.9481 N   0  0  0  0  0  0  0  0  0  0  0  0
   -1.2958    0.0845    1.7071 H   0  0  0  0  0  0  0  0  0  0  0  0
   -0.0196    0.7037    3.3018 C   0  0  0  0  0  0  0  0  0  0  0  0
    0.8111    1.4173    3.2930 H   0  0  0  0  0  0  0  0  0  0  0  0
   -0.8908    1.1961    3.7441 H   0  0  0  0  0  0  0  0  0  0  0  0
    0.2553   -0.1497    3.9307 H   0  0  0  0  0  0  0  0  0  0  0  0
  1  2  1  0  0  0  0
  2  3  1  0  0  0  0
  2  4  1  0  0  0  0
  2  5  1  0  0  0  0
  5  6  2  0  0  0  0
  5  7  1  0  0  0  0
  7  8  1  0  0  0  0
  7  9  1  0  0  0  0
  9 10  1  0  0  0  0
  9 11  1  0  0  0  0
  9 22  1  0  0  0  0
 11 12  1  0  0  0  0
 11 13  1  0  0  0  0
 11 14  1  0  0  0  0
 14 15  1  0  0  0  0
 14 16  1  0  0  0  0
 14 17  1  0  0  0  0
 17 18  2  0  0  0  0
 17 19  1  0  0  0  0
 19 20  1  0  0  0  0
 19 21  1  0  0  0  0
 22 23  2  0  0  0  0
 22 24  1  0  0  0  0
 24 25  1  0  0  0  0
 24 26  1  0  0  0  0
 26 27  1  0  0  0  0
 26 28  1  0  0  0  0
 26 29  1  0  0  0  0
M  END
$$$$

  -OEChem-02102214123D

 29 28  0     1  0  0  0  0  0999 V2000
   -2.7762   -4.3337    0.5162 H   0  0  0  0  0  0  0  0  0  0  0  0
   -2.6651   -3.4504   -0.1191 C   0  0  0  0  0  0  0  0  0  0  0  0
   -3.5814   -2.8583   -0.0646 H   0  0  0  0  0  0  0  0  0  0  0  0
   -2.5093   -3.7781   -1.1499 H   0  0  0  0  0  0  0  0  0  0  0  0
   -1.4816   -2.6220    0.3426 C   0  0  0  0  0  0  0  0  0  0  0  0
   -0.8680   -2.9507    1.3422 O   0  0  0  0  0  0  0  0  0  0  0  0
   -1.1349   -1.4867   -0.3649 N   0  0  0  0  0  0  0  0  0  0  0  0
   -1.6196   -1.3962   -1.2542 H   0  0  0  0  0  0  0  0  0  0  0  0
    0.1993   -0.8562   -0.2723 C   0  0  1  0  0  0  0  0  0  0  0  0
    0.9433   -1.6078   -0.5623 H   0  0  0  0  0  0  0  0  0  0  0  0
    0.3420    0.3523   -1.2294 C   0  0  0  0  0  0  0  0  0  0  0  0
   -0.3992    1.0976   -0.9226 H   0  0  0  0  0  0  0  0  0  0  0  0
    1.3285    0.8030   -1.0685 H   0  0  0  0  0  0  0  0  0  0  0  0
    0.1728    0.1196   -2.7554 C   0  0  0  0  0  0  0  0  0  0  0  0
   -0.3945    0.9514   -3.1814 H   0  0  0  0  0  0  0  0  0  0  0  0
    1.1673    0.1476   -3.2110 H   0  0  0  0  0  0  0  0  0  0  0  0
   -0.4659   -1.1920   -3.1947 C   0  0  0  0  0  0  0  0  0  0  0  0
    0.1402   -2.2423   -3.2329 O   0  0  0  0  0  0  0  0  0  0  0  0
   -1.8057   -1.2792   -3.4505 N   0  0  0  0  0  0  0  0  0  0  0  0
   -2.0843   -2.1409   -3.9144 H   0  0  0  0  0  0  0  0  0  0  0  0
   -2.2927   -0.4188   -3.6825 H   0  0  0  0  0  0  0  0  0  0  0  0
    0.5828   -0.3847    1.1501 C   0  0  0  0  0  0  0  0  0  0  0  0
    1.7628   -0.3460    1.4743 O   0  0  0  0  0  0  0  0  0  0  0  0
   -0.3442    0.2986    1.9168 N   0  0  0  0  0  0  0  0  0  0  0  0
   -1.3143    0.1175    1.6791 H   0  0  0  0  0  0  0  0  0  0  0  0
   -0.0415    0.7740    3.2610 C   0  0  0  0  0  0  0  0  0  0  0  0
    0.7857    1.4913    3.2380 H   0  0  0  0  0  0  0  0  0  0  0  0
   -0.9155    1.2713    3.6919 H   0  0  0  0  0  0  0  0  0  0  0  0
    0.2368   -0.0643    3.9085 H   0  0  0  0  0  0  0  0  0  0  0  0
  1  2  1  0  0  0  0
  2  3  1  0  0  0  0
  2  4  1  0  0  0  0
  2  5  1  0  0  0  0
  5  6  2  0  0  0  0
  5  7  1  0  0  0  0
  7  8  1  0  0  0  0
  7  9  1  0  0  0  0
  9 10  1  0  0  0  0
  9 11  1  0  0  0  0
  9 22  1  0  0  0  0
 11 12  1  0  0  0  0
 11 13  1  0  0  0  0
 11 14  1  0  0  0  0
 14 15  1  0  0  0  0
 14 16  1  0  0  0  0
 14 17  1  0  0  0  0
 17 18  2  0  0  0  0
 17 19  1  0  0  0  0
 19 20  1  0  0  0  0
 19 21  1  0  0  0  0
 22 23  2  0  0  0  0
 22 24  1  0  0  0  0
 24 25  1  0  0  0  0
 24 26  1  0  0  0  0
 26 27  1  0  0  0  0
 26 28  1  0  0  0  0
 26 29  1  0  0  0  0
M  END
$$$$

  -OEChem-02102214123D

 29 28  0     1  0  0  0  0  0999 V2000
   -2.6699   -4.3757    0.6467 H   0  0  0  0  0  0  0  0  0  0  0  0
   -2.6927   -3.4347    0.0903 C   0  0  0  0  0  0  0  0  0  0  0  0
   -3.5280   -2.8306    0.4517 H   0  0  0  0  0  0  0  0  0  0  0  0
   -2.8445   -3.6535   -0.9695 H   0  0  0  0  0  0  0  0  0  0  0  0
   -1.3894   -2.6828    0.2788 C   0  0  0  0  0  0  0  0  0  0  0  0
   -0.4911   -3.1728    0.9406 O   0  0  0  0  0  0  0  0  0  0  0  0
   -1.2277   -1.4490   -0.3165 N   0  0  0  0  0  0  0  0  0  0  0  0
   -1.9782   -1.1627   -0.9507 H   0  0  0  0  0  0  0  0  0  0  0  0
    0.0435   -0.7044   -0.3736 C   0  0  1  0  0  0  0  0  0  0  0  0
    0.7784   -1.3517   -0.8649 H   0  0  0  0  0  0  0  0  0  0  0  0
   -0.0695    0.5946   -1.2077 C   0  0  0  0  0  0  0  0  0  0  0  0
   -0.8176    1.2261   -0.7162 H   0  0  0  0  0  0  0  0  0  0  0  0
    0.8850    1.1306   -1.1524 H   0  0  0  0  0  0  0  0  0  0  0  0
   -0.4694    0.4816   -2.7039 C   0  0  0  0  0  0  0  0  0  0  0  0
   -0.9498    1.4143   -3.0134 H   0  0  0  0  0  0  0  0  0  0  0  0
    0.4521    0.3895   -3.2851 H   0  0  0  0  0  0  0  0  0  0  0  0
   -1.3726   -0.6778   -3.1097 C   0  0  0  0  0  0  0  0  0  0  0  0
   -2.5298   -0.7448   -2.7325 O   0  0  0  0  0  0  0  0  0  0  0  0
   -0.9152   -1.7383   -3.8382 N   0  0  0  0  0  0  0  0  0  0  0  0
   -1.6102   -2.3997   -4.1721 H   0  0  0  0  0  0  0  0  0  0  0  0
   -0.0020   -1.6859   -4.2782 H   0  0  0  0  0  0  0  0  0  0  0  0
    0.6305   -0.3611    1.0132 C   0  0  0  0  0  0  0  0  0  0  0  0
    1.8441   -0.2682    1.1463 O   0  0  0  0  0  0  0  0  0  0  0  0
   -0.1959    0.1350    2.0048 N   0  0  0  0  0  0  0  0  0  0  0  0
   -1.1877   -0.0463    1.8842 H   0  0  0  0  0  0  0  0  0  0  0  0
    0.2929    0.4983    3.3285 C   0  0  0  0  0  0  0  0  0  0  0  0
    1.0353    1.2999    3.2569 H   0  0  0  0  0  0  0  0  0  0  0  0
   -0.5336    0.8500    3.9532 H   0  0  0  0  0  0  0  0  0  0  0  0
    0.7541   -0.3669    3.8163 H   0  0  0  0  0  0  0  0  0  0  0  0
  1  2  1  0  0  0  0
  2  3  1  0  0  0  0
  2  4  1  0  0  0  0
  2  5  1  0  0  0  0
  5  6  2  0  0  0  0
  5  7  1  0  0  0  0
  7  8  1  0  0  0  0
  7  9  1  0  0  0  0
  9 10  1  0  0  0  0
  9 11  1  0  0  0  0
  9 22  1  0  0  0  0
 11 12  1  0  0  0  0
 11 13  1  0  0  0  0
 11 14  1  0  0  0  0
 14 15  1  0  0  0  0
 14 16  1  0  0  0  0
 14 17  1  0  0  0  0
 17 18  2  0  0  0  0
 17 19  1  0  0  0  0
 19 20  1  0  0  0  0
 19 21  1  0  0  0  0
 22 23  2  0  0  0  0
 22 24  1  0  0  0  0
 24 25  1  0  0  0  0
 24 26  1  0  0  0  0
 26 27  1  0  0  0  0
 26 28  1  0  0  0  0
 26 29  1  0  0  0  0
M  END
$$$$

  -OEChem-02102214123D

 29 28  0     1  0  0  0  0  0999 V2000
   -2.7019   -4.3542    0.6032 H   0  0  0  0  0  0  0  0  0  0  0  0
   -2.7189   -3.3909    0.0860 C   0  0  0  0  0  0  0  0  0  0  0  0
   -3.5157   -2.7760    0.5110 H   0  0  0  0  0  0  0  0  0  0  0  0
   -2.9278   -3.5614   -0.9730 H   0  0  0  0  0  0  0  0  0  0  0  0
   -1.3829   -2.6900    0.2410 C   0  0  0  0  0  0  0  0  0  0  0  0
   -0.4812   -3.2221    0.8645 O   0  0  0  0  0  0  0  0  0  0  0  0
   -1.1962   -1.4515   -0.3362 N   0  0  0  0  0  0  0  0  0  0  0  0
   -1.9723   -1.0915   -0.8977 H   0  0  0  0  0  0  0  0  0  0  0  0
    0.0765   -0.7101   -0.3568 C   0  0  1  0  0  0  0  0  0  0  0  0
    0.8202   -1.3571   -0.8349 H   0  0  0  0  0  0  0  0  0  0  0  0
   -0.0079    0.5949   -1.1850 C   0  0  0  0  0  0  0  0  0  0  0  0
   -0.7588    1.2376   -0.7126 H   0  0  0  0  0  0  0  0  0  0  0  0
    0.9532    1.1163   -1.1105 H   0  0  0  0  0  0  0  0  0  0  0  0
   -0.3692    0.4729   -2.6882 C   0  0  0  0  0  0  0  0  0  0  0  0
   -0.5961    1.4691   -3.0783 H   0  0  0  0  0  0  0  0  0  0  0  0
    0.5209    0.1152   -3.2131 H   0  0  0  0  0  0  0  0  0  0  0  0
   -1.5236   -0.4529   -3.0581 C   0  0  0  0  0  0  0  0  0  0  0  0
   -2.6157   -0.3656   -2.5235 O   0  0  0  0  0  0  0  0  0  0  0  0
   -1.3809   -1.4698   -3.9581 N   0  0  0  0  0  0  0  0  0  0  0  0
   -2.2327   -1.9383   -4.2536 H   0  0  0  0  0  0  0  0  0  0  0  0
   -0.5504   -1.5032   -4.5407 H   0  0  0  0  0  0  0  0  0  0  0  0
    0.6302   -0.3819    1.0469 C   0  0  0  0  0  0  0  0  0  0  0  0
    1.8401   -0.2924    1.2113 O   0  0  0  0  0  0  0  0  0  0  0  0
   -0.2193    0.1066    2.0227 N   0  0  0  0  0  0  0  0  0  0  0  0
   -1.2097   -0.0602    1.8737 H   0  0  0  0  0  0  0  0  0  0  0  0
    0.2378    0.4717    3.3573 C   0  0  0  0  0  0  0  0  0  0  0  0
    0.9850    1.2704    3.3015 H   0  0  0  0  0  0  0  0  0  0  0  0
   -0.6026    0.8285    3.9603 H   0  0  0  0  0  0  0  0  0  0  0  0
    0.6835   -0.3940    3.8585 H   0  0  0  0  0  0  0  0  0  0  0  0
  1  2  1  0  0  0  0
  2  3  1  0  0  0  0
  2  4  1  0  0  0  0
  2  5  1  0  0  0  0
  5  6  2  0  0  0  0
  5  7  1  0  0  0  0
  7  8  1  0  0  0  0
  7  9  1  0  0  0  0
  9 10  1  0  0  0  0
  9 11  1  0  0  0  0
  9 22  1  0  0  0  0
 11 12  1  0  0  0  0
 11 13  1  0  0  0  0
 11 14  1  0  0  0  0
 14 15  1  0  0  0  0
 14 16  1  0  0  0  0
 14 17  1  0  0  0  0
 17 18  2  0  0  0  0
 17 19  1  0  0  0  0
 19 20  1  0  0  0  0
 19 21  1  0  0  0  0
 22 23  2  0  0  0  0
 22 24  1  0  0  0  0
 24 25  1  0  0  0  0
 24 26  1  0  0  0  0
 26 27  1  0  0  0  0
 26 28  1  0  0  0  0
 26 29  1  0  0  0  0
M  END
$$$$

  -OEChem-02102214123D

 29 28  0     1  0  0  0  0  0999 V2000
   -2.7170   -4.3312    0.6354 H   0  0  0  0  0  0  0  0  0  0  0  0
   -2.7211   -3.3703    0.1131 C   0  0  0  0  0  0  0  0  0  0  0  0
   -3.4898   -2.7315    0.5544 H   0  0  0  0  0  0  0  0  0  0  0  0
   -2.9611   -3.5419   -0.9391 H   0  0  0  0  0  0  0  0  0  0  0  0
   -1.3634   -2.7046    0.2315 C   0  0  0  0  0  0  0  0  0  0  0  0
   -0.4622   -3.2588    0.8361 O   0  0  0  0  0  0  0  0  0  0  0  0
   -1.1569   -1.4708   -0.3496 N   0  0  0  0  0  0  0  0  0  0  0  0
   -1.9451   -1.0660   -0.8615 H   0  0  0  0  0  0  0  0  0  0  0  0
    0.1170   -0.7325   -0.3403 C   0  0  1  0  0  0  0  0  0  0  0  0
    0.8741   -1.3808   -0.7955 H   0  0  0  0  0  0  0  0  0  0  0  0
    0.0488    0.5690   -1.1737 C   0  0  0  0  0  0  0  0  0  0  0  0
   -0.6987    1.2315   -0.7235 H   0  0  0  0  0  0  0  0  0  0  0  0
    1.0176    1.0756   -1.0946 H   0  0  0  0  0  0  0  0  0  0  0  0
   -0.2820    0.4076   -2.6777 C   0  0  0  0  0  0  0  0  0  0  0  0
   -0.2597    1.3945   -3.1481 H   0  0  0  0  0  0  0  0  0  0  0  0
    0.5112   -0.1914   -3.1340 H   0  0  0  0  0  0  0  0  0  0  0  0
   -1.6207   -0.2406   -3.0232 C   0  0  0  0  0  0  0  0  0  0  0  0
   -2.6156   -0.1100   -2.3303 O   0  0  0  0  0  0  0  0  0  0  0  0
   -1.7755   -1.0114   -4.1389 N   0  0  0  0  0  0  0  0  0  0  0  0
   -2.7299   -1.2512   -4.3923 H   0  0  0  0  0  0  0  0  0  0  0  0
   -1.0459   -1.0077   -4.8445 H   0  0  0  0  0  0  0  0  0  0  0  0
    0.6292   -0.3961    1.0772 C   0  0  0  0  0  0  0  0  0  0  0  0
    1.8337   -0.3163    1.2813 O   0  0  0  0  0  0  0  0  0  0  0  0
   -0.2478    0.1009    2.0243 N   0  0  0  0  0  0  0  0  0  0  0  0
   -1.2355   -0.0419    1.8381 H   0  0  0  0  0  0  0  0  0  0  0  0
    0.1676    0.4806    3.3685 C   0  0  0  0  0  0  0  0  0  0  0  0
    0.9352    1.2606    3.3274 H   0  0  0  0  0  0  0  0  0  0  0  0
   -0.6860    0.8682    3.9326 H   0  0  0  0  0  0  0  0  0  0  0  0
    0.5731   -0.3857    3.9019 H   0  0  0  0  0  0  0  0  0  0  0  0
  1  2  1  0  0  0  0
  2  3  1  0  0  0  0
  2  4  1  0  0  0  0
  2  5  1  0  0  0  0
  5  6  2  0  0  0  0
  5  7  1  0  0  0  0
  7  8  1  0  0  0  0
  7  9  1  0  0  0  0
  9 10  1  0  0  0  0
  9 11  1  0  0  0  0
  9 22  1  0  0  0  0
 11 12  1  0  0  0  0
 11 13  1  0  0  0  0
 11 14  1  0  0  0  0
 14 15  1  0  0  0  0
 14 16  1  0  0  0  0
 14 17  1  0  0  0  0
 17 18  2  0  0  0  0
 17 19  1  0  0  0  0
 19 20  1  0  0  0  0
 19 21  1  0  0  0  0
 22 23  2  0  0  0  0
 22 24  1  0  0  0  0
 24 25  1  0  0  0  0
 24 26  1  0  0  0  0
 26 27  1  0  0  0  0
 26 28  1  0  0  0  0
 26 29  1  0  0  0  0
M  END
$$$$

  -OEChem-02102214123D

 29 28  0     1  0  0  0  0  0999 V2000
   -2.7299   -4.3065    0.6278 H   0  0  0  0  0  0  0  0  0  0  0  0
   -2.7173   -3.3462    0.1045 C   0  0  0  0  0  0  0  0  0  0  0  0
   -3.4764   -2.6945    0.5437 H   0  0  0  0  0  0  0  0  0  0  0  0
   -2.9581   -3.5145   -0.9479 H   0  0  0  0  0  0  0  0  0  0  0  0
   -1.3491   -2.7024    0.2238 C   0  0  0  0  0  0  0  0  0  0  0  0
   -0.4575   -3.2679    0.8322 O   0  0  0  0  0  0  0  0  0  0  0  0
   -1.1221   -1.4751   -0.3627 N   0  0  0  0  0  0  0  0  0  0  0  0
   -1.9101   -1.0459   -0.8544 H   0  0  0  0  0  0  0  0  0  0  0  0
    0.1524   -0.7401   -0.3281 C   0  0  1  0  0  0  0  0  0  0  0  0
    0.9211   -1.3883   -0.7627 H   0  0  0  0  0  0  0  0  0  0  0  0
    0.0774    0.5480   -1.1770 C   0  0  0  0  0  0  0  0  0  0  0  0
   -0.6680    1.2272   -0.7487 H   0  0  0  0  0  0  0  0  0  0  0  0
    1.0483    1.0517   -1.1073 H   0  0  0  0  0  0  0  0  0  0  0  0
   -0.2341    0.3165   -2.6749 C   0  0  0  0  0  0  0  0  0  0  0  0
    0.0109    1.2313   -3.2212 H   0  0  0  0  0  0  0  0  0  0  0  0
    0.4177   -0.4767   -3.0520 H   0  0  0  0  0  0  0  0  0  0  0  0
   -1.6823   -0.0404   -3.0125 C   0  0  0  0  0  0  0  0  0  0  0  0
   -2.6005    0.0459   -2.2146 O   0  0  0  0  0  0  0  0  0  0  0  0
   -2.0283   -0.4885   -4.2542 N   0  0  0  0  0  0  0  0  0  0  0  0
   -3.0230   -0.5418   -4.4543 H   0  0  0  0  0  0  0  0  0  0  0  0
   -1.3573   -0.4136   -5.0120 H   0  0  0  0  0  0  0  0  0  0  0  0
    0.6334   -0.3888    1.0961 C   0  0  0  0  0  0  0  0  0  0  0  0
    1.8329   -0.3136    1.3286 O   0  0  0  0  0  0  0  0  0  0  0  0
   -0.2633    0.1210    2.0175 N   0  0  0  0  0  0  0  0  0  0  0  0
   -1.2471   -0.0148    1.8065 H   0  0  0  0  0  0  0  0  0  0  0  0
    0.1205    0.5007    3.3711 C   0  0  0  0  0  0  0  0  0  0  0  0
    0.8948    1.2750    3.3486 H   0  0  0  0  0  0  0  0  0  0  0  0
   -0.7444    0.8954    3.9126 H   0  0  0  0  0  0  0  0  0  0  0  0
    0.5058   -0.3677    3.9158 H   0  0  0  0  0  0  0  0  0  0  0  0
  1  2  1  0  0  0  0
  2  3  1  0  0  0  0
  2  4  1  0  0  0  0
  2  5  1  0  0  0  0
  5  6  2  0  0  0  0
  5  7  1  0  0  0  0
  7  8  1  0  0  0  0
  7  9  1  0  0  0  0
  9 10  1  0  0  0  0
  9 11  1  0  0  0  0
  9 22  1  0  0  0  0
 11 12  1  0  0  0  0
 11 13  1  0  0  0  0
 11 14  1  0  0  0  0
 14 15  1  0  0  0  0
 14 16  1  0  0  0  0
 14 17  1  0  0  0  0
 17 18  2  0  0  0  0
 17 19  1  0  0  0  0
 19 20  1  0  0  0  0
 19 21  1  0  0  0  0
 22 23  2  0  0  0  0
 22 24  1  0  0  0  0
 24 25  1  0  0  0  0
 24 26  1  0  0  0  0
 26 27  1  0  0  0  0
 26 28  1  0  0  0  0
 26 29  1  0  0  0  0
M  END
$$$$

  -OEChem-02102214123D

 29 28  0     1  0  0  0  0  0999 V2000
   -2.7323   -4.3172    0.6264 H   0  0  0  0  0  0  0  0  0  0  0  0
   -2.7123   -3.3563    0.1045 C   0  0  0  0  0  0  0  0  0  0  0  0
   -3.4817   -2.7071    0.5292 H   0  0  0  0  0  0  0  0  0  0  0  0
   -2.9314   -3.5245   -0.9528 H   0  0  0  0  0  0  0  0  0  0  0  0
   -1.3487   -2.7084    0.2523 C   0  0  0  0  0  0  0  0  0  0  0  0
   -0.4771   -3.2576    0.9035 O   0  0  0  0  0  0  0  0  0  0  0  0
   -1.1018   -1.4982   -0.3604 N   0  0  0  0  0  0  0  0  0  0  0  0
   -1.8714   -1.0835   -0.8926 H   0  0  0  0  0  0  0  0  0  0  0  0
    0.1770   -0.7709   -0.3174 C   0  0  1  0  0  0  0  0  0  0  0  0
    0.9530   -1.4272   -0.7266 H   0  0  0  0  0  0  0  0  0  0  0  0
    0.0926    0.4921   -1.1970 C   0  0  0  0  0  0  0  0  0  0  0  0
   -0.6521    1.1868   -0.7926 H   0  0  0  0  0  0  0  0  0  0  0  0
    1.0632    0.9980   -1.1442 H   0  0  0  0  0  0  0  0  0  0  0  0
   -0.2101    0.1855   -2.6826 C   0  0  0  0  0  0  0  0  0  0  0  0
    0.2495    0.9705   -3.2892 H   0  0  0  0  0  0  0  0  0  0  0  0
    0.2532   -0.7629   -2.9699 H   0  0  0  0  0  0  0  0  0  0  0  0
   -1.6966    0.1455   -3.0414 C   0  0  0  0  0  0  0  0  0  0  0  0
   -2.5845    0.0532   -2.2104 O   0  0  0  0  0  0  0  0  0  0  0  0
   -2.1120    0.1832   -4.3411 N   0  0  0  0  0  0  0  0  0  0  0  0
   -3.1092    0.3014   -4.4965 H   0  0  0  0  0  0  0  0  0  0  0  0
   -1.4466    0.4187   -5.0703 H   0  0  0  0  0  0  0  0  0  0  0  0
    0.6350   -0.3843    1.1050 C   0  0  0  0  0  0  0  0  0  0  0  0
    1.8307   -0.3110    1.3569 O   0  0  0  0  0  0  0  0  0  0  0  0
   -0.2746    0.1566    1.9955 N   0  0  0  0  0  0  0  0  0  0  0  0
   -1.2554    0.0229    1.7698 H   0  0  0  0  0  0  0  0  0  0  0  0
    0.0878    0.5691    3.3453 C   0  0  0  0  0  0  0  0  0  0  0  0
    0.8540    1.3509    3.3153 H   0  0  0  0  0  0  0  0  0  0  0  0
   -0.7881    0.9659    3.8673 H   0  0  0  0  0  0  0  0  0  0  0  0
    0.4754   -0.2829    3.9136 H   0  0  0  0  0  0  0  0  0  0  0  0
  1  2  1  0  0  0  0
  2  3  1  0  0  0  0
  2  4  1  0  0  0  0
  2  5  1  0  0  0  0
  5  6  2  0  0  0  0
  5  7  1  0  0  0  0
  7  8  1  0  0  0  0
  7  9  1  0  0  0  0
  9 10  1  0  0  0  0
  9 11  1  0  0  0  0
  9 22  1  0  0  0  0
 11 12  1  0  0  0  0
 11 13  1  0  0  0  0
 11 14  1  0  0  0  0
 14 15  1  0  0  0  0
 14 16  1  0  0  0  0
 14 17  1  0  0  0  0
 17 18  2  0  0  0  0
 17 19  1  0  0  0  0
 19 20  1  0  0  0  0
 19 21  1  0  0  0  0
 22 23  2  0  0  0  0
 22 24  1  0  0  0  0
 24 25  1  0  0  0  0
 24 26  1  0  0  0  0
 26 27  1  0  0  0  0
 26 28  1  0  0  0  0
 26 29  1  0  0  0  0
M  END
$$$$

  -OEChem-02102214123D

 29 28  0     1  0  0  0  0  0999 V2000
   -2.7517   -4.3244    0.6509 H   0  0  0  0  0  0  0  0  0  0  0  0
   -2.7199   -3.3764    0.1064 C   0  0  0  0  0  0  0  0  0  0  0  0
   -3.5076   -2.7225    0.4880 H   0  0  0  0  0  0  0  0  0  0  0  0
   -2.9019   -3.5717   -0.9533 H   0  0  0  0  0  0  0  0  0  0  0  0
   -1.3670   -2.7144    0.2860 C   0  0  0  0  0  0  0  0  0  0  0  0
   -0.5294   -3.2207    1.0122 O   0  0  0  0  0  0  0  0  0  0  0  0
   -1.0974   -1.5304   -0.3671 N   0  0  0  0  0  0  0  0  0  0  0  0
   -1.8256   -1.1738   -0.9926 H   0  0  0  0  0  0  0  0  0  0  0  0
    0.1899   -0.8140   -0.3268 C   0  0  1  0  0  0  0  0  0  0  0  0
    0.9692   -1.4840   -0.7071 H   0  0  0  0  0  0  0  0  0  0  0  0
    0.0943    0.4131   -1.2488 C   0  0  0  0  0  0  0  0  0  0  0  0
   -0.6609    1.1124   -0.8715 H   0  0  0  0  0  0  0  0  0  0  0  0
    1.0580    0.9340   -1.2185 H   0  0  0  0  0  0  0  0  0  0  0  0
   -0.2054    0.0202   -2.7127 C   0  0  0  0  0  0  0  0  0  0  0  0
    0.4454    0.6036   -3.3697 H   0  0  0  0  0  0  0  0  0  0  0  0
    0.0170   -1.0358   -2.8924 H   0  0  0  0  0  0  0  0  0  0  0  0
   -1.6529    0.3083   -3.0960 C   0  0  0  0  0  0  0  0  0  0  0  0
   -2.5791   -0.1384   -2.4406 O   0  0  0  0  0  0  0  0  0  0  0  0
   -1.9841    1.0884   -4.1665 N   0  0  0  0  0  0  0  0  0  0  0  0
   -2.9653    1.1044   -4.4306 H   0  0  0  0  0  0  0  0  0  0  0  0
   -1.2675    1.3392   -4.8399 H   0  0  0  0  0  0  0  0  0  0  0  0
    0.6332   -0.3760    1.0852 C   0  0  0  0  0  0  0  0  0  0  0  0
    1.8268   -0.2928    1.3440 O   0  0  0  0  0  0  0  0  0  0  0  0
   -0.2831    0.2092    1.9400 N   0  0  0  0  0  0  0  0  0  0  0  0
   -1.2613    0.0457    1.7215 H   0  0  0  0  0  0  0  0  0  0  0  0
    0.0694    0.6776    3.2741 C   0  0  0  0  0  0  0  0  0  0  0  0
    0.8420    1.4516    3.2180 H   0  0  0  0  0  0  0  0  0  0  0  0
   -0.8081    1.1037    3.7692 H   0  0  0  0  0  0  0  0  0  0  0  0
    0.4449   -0.1516    3.8829 H   0  0  0  0  0  0  0  0  0  0  0  0
  1  2  1  0  0  0  0
  2  3  1  0  0  0  0
  2  4  1  0  0  0  0
  2  5  1  0  0  0  0
  5  6  2  0  0  0  0
  5  7  1  0  0  0  0
  7  8  1  0  0  0  0
  7  9  1  0  0  0  0
  9 10  1  0  0  0  0
  9 11  1  0  0  0  0
  9 22  1  0  0  0  0
 11 12  1  0  0  0  0
 11 13  1  0  0  0  0
 11 14  1  0  0  0  0
 14 15  1  0  0  0  0
 14 16  1  0  0  0  0
 14 17  1  0  0  0  0
 17 18  2  0  0  0  0
 17 19  1  0  0  0  0
 19 20  1  0  0  0  0
 19 21  1  0  0  0  0
 22 23  2  0  0  0  0
 22 24  1  0  0  0  0
 24 25  1  0  0  0  0
 24 26  1  0  0  0  0
 26 27  1  0  0  0  0
 26 28  1  0  0  0  0
 26 29  1  0  0  0  0
M  END
$$$$

  -OEChem-02102214123D

 29 28  0     1  0  0  0  0  0999 V2000
   -2.7572   -4.3277    0.6632 H   0  0  0  0  0  0  0  0  0  0  0  0
   -2.7365   -3.3762    0.1246 C   0  0  0  0  0  0  0  0  0  0  0  0
   -3.5239   -2.7298    0.5198 H   0  0  0  0  0  0  0  0  0  0  0  0
   -2.9298   -3.5672   -0.9338 H   0  0  0  0  0  0  0  0  0  0  0  0
   -1.3843   -2.7091    0.2924 C   0  0  0  0  0  0  0  0  0  0  0  0
   -0.5430   -3.2076    1.0193 O   0  0  0  0  0  0  0  0  0  0  0  0
   -1.1150   -1.5329   -0.3765 N   0  0  0  0  0  0  0  0  0  0  0  0
   -1.8424   -1.1786   -1.0011 H   0  0  0  0  0  0  0  0  0  0  0  0
    0.1788   -0.8226   -0.3460 C   0  0  1  0  0  0  0  0  0  0  0  0
    0.9550   -1.4956   -0.7276 H   0  0  0  0  0  0  0  0  0  0  0  0
    0.0611    0.3872   -1.2820 C   0  0  0  0  0  0  0  0  0  0  0  0
   -0.7046    1.0733   -0.9012 H   0  0  0  0  0  0  0  0  0  0  0  0
    1.0117    0.9326   -1.2730 H   0  0  0  0  0  0  0  0  0  0  0  0
   -0.2534   -0.0467   -2.7317 C   0  0  0  0  0  0  0  0  0  0  0  0
    0.5453    0.3042   -3.3907 H   0  0  0  0  0  0  0  0  0  0  0  0
   -0.2941   -1.1353   -2.8333 H   0  0  0  0  0  0  0  0  0  0  0  0
   -1.5735    0.5474   -3.1950 C   0  0  0  0  0  0  0  0  0  0  0  0
   -2.6125    0.1897   -2.6680 O   0  0  0  0  0  0  0  0  0  0  0  0
   -1.6558    1.5220   -4.1478 N   0  0  0  0  0  0  0  0  0  0  0  0
   -2.5874    1.7621   -4.4749 H   0  0  0  0  0  0  0  0  0  0  0  0
   -0.8404    1.7399   -4.7113 H   0  0  0  0  0  0  0  0  0  0  0  0
    0.6358   -0.3683    1.0564 C   0  0  0  0  0  0  0  0  0  0  0  0
    1.8319   -0.2954    1.3064 O   0  0  0  0  0  0  0  0  0  0  0  0
   -0.2677    0.2352    1.9121 N   0  0  0  0  0  0  0  0  0  0  0  0
   -1.2494    0.0828    1.7026 H   0  0  0  0  0  0  0  0  0  0  0  0
    0.1003    0.7076    3.2406 C   0  0  0  0  0  0  0  0  0  0  0  0
    0.8786    1.4751    3.1735 H   0  0  0  0  0  0  0  0  0  0  0  0
   -0.7695    1.1424    3.7419 H   0  0  0  0  0  0  0  0  0  0  0  0
    0.4751   -0.1216    3.8500 H   0  0  0  0  0  0  0  0  0  0  0  0
  1  2  1  0  0  0  0
  2  3  1  0  0  0  0
  2  4  1  0  0  0  0
  2  5  1  0  0  0  0
  5  6  2  0  0  0  0
  5  7  1  0  0  0  0
  7  8  1  0  0  0  0
  7  9  1  0  0  0  0
  9 10  1  0  0  0  0
  9 11  1  0  0  0  0
  9 22  1  0  0  0  0
 11 12  1  0  0  0  0
 11 13  1  0  0  0  0
 11 14  1  0  0  0  0
 14 15  1  0  0  0  0
 14 16  1  0  0  0  0
 14 17  1  0  0  0  0
 17 18  2  0  0  0  0
 17 19  1  0  0  0  0
 19 20  1  0  0  0  0
 19 21  1  0  0  0  0
 22 23  2  0  0  0  0
 22 24  1  0  0  0  0
 24 25  1  0  0  0  0
 24 26  1  0  0  0  0
 26 27  1  0  0  0  0
 26 28  1  0  0  0  0
 26 29  1  0  0  0  0
M  END
$$$$

  -OEChem-02102214123D

 29 28  0     1  0  0  0  0  0999 V2000
   -2.7617   -4.3292    0.7877 H   0  0  0  0  0  0  0  0  0  0  0  0
   -2.7550   -3.3990    0.2124 C   0  0  0  0  0  0  0  0  0  0  0  0
   -3.5270   -2.7347    0.6084 H   0  0  0  0  0  0  0  0  0  0  0  0
   -2.9822   -3.6296   -0.8313 H   0  0  0  0  0  0  0  0  0  0  0  0
   -1.3955   -2.7334    0.3120 C   0  0  0  0  0  0  0  0  0  0  0  0
   -0.5188   -3.2376    0.9910 O   0  0  0  0  0  0  0  0  0  0  0  0
   -1.1595   -1.5531   -0.3639 N   0  0  0  0  0  0  0  0  0  0  0  0
   -1.9181   -1.1879   -0.9381 H   0  0  0  0  0  0  0  0  0  0  0  0
    0.1301   -0.8357   -0.3741 C   0  0  1  0  0  0  0  0  0  0  0  0
    0.8945   -1.5105   -0.7758 H   0  0  0  0  0  0  0  0  0  0  0  0
    0.0108    0.3780   -1.3076 C   0  0  0  0  0  0  0  0  0  0  0  0
   -0.7592    1.0480   -0.9073 H   0  0  0  0  0  0  0  0  0  0  0  0
    0.9542    0.9358   -1.3040 H   0  0  0  0  0  0  0  0  0  0  0  0
   -0.3311   -0.0258   -2.7599 C   0  0  0  0  0  0  0  0  0  0  0  0
    0.5673    0.0522   -3.3781 H   0  0  0  0  0  0  0  0  0  0  0  0
   -0.6702   -1.0631   -2.8235 H   0  0  0  0  0  0  0  0  0  0  0  0
   -1.4246    0.8637   -3.3300 C   0  0  0  0  0  0  0  0  0  0  0  0
   -2.5715    0.7524   -2.9380 O   0  0  0  0  0  0  0  0  0  0  0  0
   -1.1719    1.8484   -4.2416 N   0  0  0  0  0  0  0  0  0  0  0  0
   -1.9798    2.3069   -4.6534 H   0  0  0  0  0  0  0  0  0  0  0  0
   -0.2691    1.8820   -4.7036 H   0  0  0  0  0  0  0  0  0  0  0  0
    0.6277   -0.3838    1.0159 C   0  0  0  0  0  0  0  0  0  0  0  0
    1.8304   -0.3051    1.2285 O   0  0  0  0  0  0  0  0  0  0  0  0
   -0.2519    0.2110    1.9021 N   0  0  0  0  0  0  0  0  0  0  0  0
   -1.2397    0.0659    1.7190 H   0  0  0  0  0  0  0  0  0  0  0  0
    0.1553    0.6991    3.2136 C   0  0  0  0  0  0  0  0  0  0  0  0
    0.9275    1.4692    3.1142 H   0  0  0  0  0  0  0  0  0  0  0  0
   -0.7004    1.1362    3.7368 H   0  0  0  0  0  0  0  0  0  0  0  0
    0.5524   -0.1215    3.8202 H   0  0  0  0  0  0  0  0  0  0  0  0
  1  2  1  0  0  0  0
  2  3  1  0  0  0  0
  2  4  1  0  0  0  0
  2  5  1  0  0  0  0
  5  6  2  0  0  0  0
  5  7  1  0  0  0  0
  7  8  1  0  0  0  0
  7  9  1  0  0  0  0
  9 10  1  0  0  0  0
  9 11  1  0  0  0  0
  9 22  1  0  0  0  0
 11 12  1  0  0  0  0
 11 13  1  0  0  0  0
 11 14  1  0  0  0  0
 14 15  1  0  0  0  0
 14 16  1  0  0  0  0
 14 17  1  0  0  0  0
 17 18  2  0  0  0  0
 17 19  1  0  0  0  0
 19 20  1  0  0  0  0
 19 21  1  0  0  0  0
 22 23  2  0  0  0  0
 22 24  1  0  0  0  0
 24 25  1  0  0  0  0
 24 26  1  0  0  0  0
 26 27  1  0  0  0  0
 26 28  1  0  0  0  0
 26 29  1  0  0  0  0
M  END
$$$$

  -OEChem-02102214123D

 29 28  0     1  0  0  0  0  0999 V2000
   -2.7555   -4.3590    0.8345 H   0  0  0  0  0  0  0  0  0  0  0  0
   -2.7733   -3.4245    0.2665 C   0  0  0  0  0  0  0  0  0  0  0  0
   -3.5352   -2.7677    0.6929 H   0  0  0  0  0  0  0  0  0  0  0  0
   -3.0339   -3.6493   -0.7706 H   0  0  0  0  0  0  0  0  0  0  0  0
   -1.4154   -2.7506    0.3267 C   0  0  0  0  0  0  0  0  0  0  0  0
   -0.5193   -3.2437    0.9878 O   0  0  0  0  0  0  0  0  0  0  0  0
   -1.2043   -1.5728   -0.3622 N   0  0  0  0  0  0  0  0  0  0  0  0
   -1.9784   -1.2180   -0.9193 H   0  0  0  0  0  0  0  0  0  0  0  0
    0.0828   -0.8531   -0.4144 C   0  0  1  0  0  0  0  0  0  0  0  0
    0.8345   -1.5329   -0.8310 H   0  0  0  0  0  0  0  0  0  0  0  0
   -0.0429    0.3615   -1.3487 C   0  0  0  0  0  0  0  0  0  0  0  0
   -0.8080    1.0291   -0.9355 H   0  0  0  0  0  0  0  0  0  0  0  0
    0.9015    0.9178   -1.3596 H   0  0  0  0  0  0  0  0  0  0  0  0
   -0.4174   -0.0278   -2.7950 C   0  0  0  0  0  0  0  0  0  0  0  0
    0.4911   -0.2325   -3.3678 H   0  0  0  0  0  0  0  0  0  0  0  0
   -1.0244   -0.9359   -2.8214 H   0  0  0  0  0  0  0  0  0  0  0  0
   -1.2204    1.0772   -3.4645 C   0  0  0  0  0  0  0  0  0  0  0  0
   -2.3893    1.2554   -3.1787 O   0  0  0  0  0  0  0  0  0  0  0  0
   -0.6607    1.9580   -4.3449 N   0  0  0  0  0  0  0  0  0  0  0  0
   -1.2213    2.7689   -4.5913 H   0  0  0  0  0  0  0  0  0  0  0  0
    0.3474    1.9765   -4.4584 H   0  0  0  0  0  0  0  0  0  0  0  0
    0.6198   -0.3946    0.9590 C   0  0  0  0  0  0  0  0  0  0  0  0
    1.8280   -0.3017    1.1316 O   0  0  0  0  0  0  0  0  0  0  0  0
   -0.2355    0.2020    1.8676 N   0  0  0  0  0  0  0  0  0  0  0  0
   -1.2279    0.0519    1.7177 H   0  0  0  0  0  0  0  0  0  0  0  0
    0.2107    0.7202    3.1544 C   0  0  0  0  0  0  0  0  0  0  0  0
    0.9352    1.5288    3.0116 H   0  0  0  0  0  0  0  0  0  0  0  0
   -0.6397    1.1153    3.7180 H   0  0  0  0  0  0  0  0  0  0  0  0
    0.6801   -0.0739    3.7447 H   0  0  0  0  0  0  0  0  0  0  0  0
  1  2  1  0  0  0  0
  2  3  1  0  0  0  0
  2  4  1  0  0  0  0
  2  5  1  0  0  0  0
  5  6  2  0  0  0  0
  5  7  1  0  0  0  0
  7  8  1  0  0  0  0
  7  9  1  0  0  0  0
  9 10  1  0  0  0  0
  9 11  1  0  0  0  0
  9 22  1  0  0  0  0
 11 12  1  0  0  0  0
 11 13  1  0  0  0  0
 11 14  1  0  0  0  0
 14 15  1  0  0  0  0
 14 16  1  0  0  0  0
 14 17  1  0  0  0  0
 17 18  2  0  0  0  0
 17 19  1  0  0  0  0
 19 20  1  0  0  0  0
 19 21  1  0  0  0  0
 22 23  2  0  0  0  0
 22 24  1  0  0  0  0
 24 25  1  0  0  0  0
 24 26  1  0  0  0  0
 26 27  1  0  0  0  0
 26 28  1  0  0  0  0
 26 29  1  0  0  0  0
M  END
$$$$

  -OEChem-02102214123D

 29 28  0     1  0  0  0  0  0999 V2000
   -2.7586   -4.3479    0.8525 H   0  0  0  0  0  0  0  0  0  0  0  0
   -2.7863   -3.4174    0.2783 C   0  0  0  0  0  0  0  0  0  0  0  0
   -3.5421   -2.7585    0.7125 H   0  0  0  0  0  0  0  0  0  0  0  0
   -3.0633   -3.6492   -0.7530 H   0  0  0  0  0  0  0  0  0  0  0  0
   -1.4278   -2.7429    0.3119 C   0  0  0  0  0  0  0  0  0  0  0  0
   -0.5157   -3.2416    0.9462 O   0  0  0  0  0  0  0  0  0  0  0  0
   -1.2356   -1.5566   -0.3683 N   0  0  0  0  0  0  0  0  0  0  0  0
   -2.0211   -1.2017   -0.9075 H   0  0  0  0  0  0  0  0  0  0  0  0
    0.0502   -0.8369   -0.4453 C   0  0  1  0  0  0  0  0  0  0  0  0
    0.7892   -1.5147   -0.8878 H   0  0  0  0  0  0  0  0  0  0  0  0
   -0.0893    0.3890   -1.3626 C   0  0  0  0  0  0  0  0  0  0  0  0
   -0.8415    1.0614   -0.9337 H   0  0  0  0  0  0  0  0  0  0  0  0
    0.8603    0.9357   -1.3883 H   0  0  0  0  0  0  0  0  0  0  0  0
   -0.4962    0.0151   -2.8007 C   0  0  0  0  0  0  0  0  0  0  0  0
    0.3522   -0.4375   -3.3216 H   0  0  0  0  0  0  0  0  0  0  0  0
   -1.3102   -0.7138   -2.8051 H   0  0  0  0  0  0  0  0  0  0  0  0
   -0.9743    1.2456   -3.5568 C   0  0  0  0  0  0  0  0  0  0  0  0
   -2.1027    1.6726   -3.4050 O   0  0  0  0  0  0  0  0  0  0  0  0
   -0.1480    1.9685   -4.3687 N   0  0  0  0  0  0  0  0  0  0  0  0
   -0.4953    2.8737   -4.6731 H   0  0  0  0  0  0  0  0  0  0  0  0
    0.8489    1.7792   -4.3574 H   0  0  0  0  0  0  0  0  0  0  0  0
    0.6239   -0.3954    0.9186 C   0  0  0  0  0  0  0  0  0  0  0  0
    1.8365   -0.3076    1.0597 O   0  0  0  0  0  0  0  0  0  0  0  0
   -0.2055    0.1905    1.8575 N   0  0  0  0  0  0  0  0  0  0  0  0
   -1.2019    0.0441    1.7325 H   0  0  0  0  0  0  0  0  0  0  0  0
    0.2763    0.6869    3.1402 C   0  0  0  0  0  0  0  0  0  0  0  0
    1.0108    1.4853    2.9908 H   0  0  0  0  0  0  0  0  0  0  0  0
   -0.5553    1.0893    3.7263 H   0  0  0  0  0  0  0  0  0  0  0  0
    0.7451   -0.1212    3.7116 H   0  0  0  0  0  0  0  0  0  0  0  0
  1  2  1  0  0  0  0
  2  3  1  0  0  0  0
  2  4  1  0  0  0  0
  2  5  1  0  0  0  0
  5  6  2  0  0  0  0
  5  7  1  0  0  0  0
  7  8  1  0  0  0  0
  7  9  1  0  0  0  0
  9 10  1  0  0  0  0
  9 11  1  0  0  0  0
  9 22  1  0  0  0  0
 11 12  1  0  0  0  0
 11 13  1  0  0  0  0
 11 14  1  0  0  0  0
 14 15  1  0  0  0  0
 14 16  1  0  0  0  0
 14 17  1  0  0  0  0
 17 18  2  0  0  0  0
 17 19  1  0  0  0  0
 19 20  1  0  0  0  0
 19 21  1  0  0  0  0
 22 23  2  0  0  0  0
 22 24  1  0  0  0  0
 24 25  1  0  0  0  0
 24 26  1  0  0  0  0
 26 27  1  0  0  0  0
 26 28  1  0  0  0  0
 26 29  1  0  0  0  0
M  END
$$$$

  -OEChem-02102214123D

 29 28  0     1  0  0  0  0  0999 V2000
   -2.7022   -4.3944    0.8503 H   0  0  0  0  0  0  0  0  0  0  0  0
   -2.7772   -3.4457    0.3109 C   0  0  0  0  0  0  0  0  0  0  0  0
   -3.5138   -2.8138    0.8131 H   0  0  0  0  0  0  0  0  0  0  0  0
   -3.1137   -3.6477   -0.7089 H   0  0  0  0  0  0  0  0  0  0  0  0
   -1.4282   -2.7520    0.2846 C   0  0  0  0  0  0  0  0  0  0  0  0
   -0.4697   -3.2635    0.8346 O   0  0  0  0  0  0  0  0  0  0  0  0
   -1.2955   -1.5352   -0.3551 N   0  0  0  0  0  0  0  0  0  0  0  0
   -2.1232   -1.1600   -0.8091 H   0  0  0  0  0  0  0  0  0  0  0  0
   -0.0305   -0.7831   -0.4616 C   0  0  1  0  0  0  0  0  0  0  0  0
    0.6922   -1.4452   -0.9518 H   0  0  0  0  0  0  0  0  0  0  0  0
   -0.1913    0.4639   -1.3516 C   0  0  0  0  0  0  0  0  0  0  0  0
   -0.7267    1.2370   -0.7884 H   0  0  0  0  0  0  0  0  0  0  0  0
    0.8042    0.8603   -1.5832 H   0  0  0  0  0  0  0  0  0  0  0  0
   -0.9584    0.1937   -2.6596 C   0  0  0  0  0  0  0  0  0  0  0  0
   -0.4402   -0.5706   -3.2456 H   0  0  0  0  0  0  0  0  0  0  0  0
   -1.9691   -0.1679   -2.4548 H   0  0  0  0  0  0  0  0  0  0  0  0
   -1.0748    1.4697   -3.4802 C   0  0  0  0  0  0  0  0  0  0  0  0
   -2.0023    2.2380   -3.3167 O   0  0  0  0  0  0  0  0  0  0  0  0
   -0.1252    1.8387   -4.3894 N   0  0  0  0  0  0  0  0  0  0  0  0
   -0.1929    2.7869   -4.7487 H   0  0  0  0  0  0  0  0  0  0  0  0
    0.7615    1.3457   -4.4084 H   0  0  0  0  0  0  0  0  0  0  0  0
    0.6029   -0.3795    0.8874 C   0  0  0  0  0  0  0  0  0  0  0  0
    1.8193   -0.2747    0.9711 O   0  0  0  0  0  0  0  0  0  0  0  0
   -0.1881    0.1518    1.8898 N   0  0  0  0  0  0  0  0  0  0  0  0
   -1.1872   -0.0045    1.8078 H   0  0  0  0  0  0  0  0  0  0  0  0
    0.3495    0.6056    3.1660 C   0  0  0  0  0  0  0  0  0  0  0  0
    1.0545    1.4297    3.0138 H   0  0  0  0  0  0  0  0  0  0  0  0
   -0.4591    0.9592    3.8126 H   0  0  0  0  0  0  0  0  0  0  0  0
    0.8688   -0.2134    3.6748 H   0  0  0  0  0  0  0  0  0  0  0  0
  1  2  1  0  0  0  0
  2  3  1  0  0  0  0
  2  4  1  0  0  0  0
  2  5  1  0  0  0  0
  5  6  2  0  0  0  0
  5  7  1  0  0  0  0
  7  8  1  0  0  0  0
  7  9  1  0  0  0  0
  9 10  1  0  0  0  0
  9 11  1  0  0  0  0
  9 22  1  0  0  0  0
 11 12  1  0  0  0  0
 11 13  1  0  0  0  0
 11 14  1  0  0  0  0
 14 15  1  0  0  0  0
 14 16  1  0  0  0  0
 14 17  1  0  0  0  0
 17 18  2  0  0  0  0
 17 19  1  0  0  0  0
 19 20  1  0  0  0  0
 19 21  1  0  0  0  0
 22 23  2  0  0  0  0
 22 24  1  0  0  0  0
 24 25  1  0  0  0  0
 24 26  1  0  0  0  0
 26 27  1  0  0  0  0
 26 28  1  0  0  0  0
 26 29  1  0  0  0  0
M  END
$$$$

  -OEChem-02102214123D

 29 28  0     1  0  0  0  0  0999 V2000
   -2.7655   -4.3476    0.7815 H   0  0  0  0  0  0  0  0  0  0  0  0
   -2.8236   -3.3943    0.2483 C   0  0  0  0  0  0  0  0  0  0  0  0
   -3.5596   -2.7583    0.7460 H   0  0  0  0  0  0  0  0  0  0  0  0
   -3.1497   -3.5846   -0.7771 H   0  0  0  0  0  0  0  0  0  0  0  0
   -1.4672   -2.7148    0.2445 C   0  0  0  0  0  0  0  0  0  0  0  0
   -0.5177   -3.2471    0.7901 O   0  0  0  0  0  0  0  0  0  0  0  0
   -1.3171   -1.4874   -0.3709 N   0  0  0  0  0  0  0  0  0  0  0  0
   -2.1323   -1.1054   -0.8414 H   0  0  0  0  0  0  0  0  0  0  0  0
   -0.0384   -0.7580   -0.4736 C   0  0  1  0  0  0  0  0  0  0  0  0
    0.6670   -1.4212   -0.9874 H   0  0  0  0  0  0  0  0  0  0  0  0
   -0.1949    0.5095   -1.3332 C   0  0  0  0  0  0  0  0  0  0  0  0
   -0.6999    1.2921   -0.7556 H   0  0  0  0  0  0  0  0  0  0  0  0
    0.8076    0.8807   -1.5759 H   0  0  0  0  0  0  0  0  0  0  0  0
   -0.9869    0.2622   -2.6301 C   0  0  0  0  0  0  0  0  0  0  0  0
   -0.6381   -0.6560   -3.1117 H   0  0  0  0  0  0  0  0  0  0  0  0
   -2.0523    0.1459   -2.4134 H   0  0  0  0  0  0  0  0  0  0  0  0
   -0.8057    1.4181   -3.6032 C   0  0  0  0  0  0  0  0  0  0  0  0
   -1.5930    2.3431   -3.6345 O   0  0  0  0  0  0  0  0  0  0  0  0
    0.2604    1.4905   -4.4536 N   0  0  0  0  0  0  0  0  0  0  0  0
    0.3913    2.3767   -4.9334 H   0  0  0  0  0  0  0  0  0  0  0  0
    1.0447    0.8607   -4.3191 H   0  0  0  0  0  0  0  0  0  0  0  0
    0.6174   -0.3946    0.8762 C   0  0  0  0  0  0  0  0  0  0  0  0
    1.8365   -0.3153    0.9469 O   0  0  0  0  0  0  0  0  0  0  0  0
   -0.1514    0.1316    1.8986 N   0  0  0  0  0  0  0  0  0  0  0  0
   -1.1531   -0.0145    1.8300 H   0  0  0  0  0  0  0  0  0  0  0  0
    0.4110    0.5463    3.1778 C   0  0  0  0  0  0  0  0  0  0  0  0
    1.1364    1.3539    3.0339 H   0  0  0  0  0  0  0  0  0  0  0  0
   -0.3812    0.9092    3.8396 H   0  0  0  0  0  0  0  0  0  0  0  0
    0.9130   -0.2957    3.6659 H   0  0  0  0  0  0  0  0  0  0  0  0
  1  2  1  0  0  0  0
  2  3  1  0  0  0  0
  2  4  1  0  0  0  0
  2  5  1  0  0  0  0
  5  6  2  0  0  0  0
  5  7  1  0  0  0  0
  7  8  1  0  0  0  0
  7  9  1  0  0  0  0
  9 10  1  0  0  0  0
  9 11  1  0  0  0  0
  9 22  1  0  0  0  0
 11 12  1  0  0  0  0
 11 13  1  0  0  0  0
 11 14  1  0  0  0  0
 14 15  1  0  0  0  0
 14 16  1  0  0  0  0
 14 17  1  0  0  0  0
 17 18  2  0  0  0  0
 17 19  1  0  0  0  0
 19 20  1  0  0  0  0
 19 21  1  0  0  0  0
 22 23  2  0  0  0  0
 22 24  1  0  0  0  0
 24 25  1  0  0  0  0
 24 26  1  0  0  0  0
 26 27  1  0  0  0  0
 26 28  1  0  0  0  0
 26 29  1  0  0  0  0
M  END
$$$$

  -OEChem-02102214123D

 29 28  0     1  0  0  0  0  0999 V2000
   -2.8194   -4.3083    0.7036 H   0  0  0  0  0  0  0  0  0  0  0  0
   -2.8611   -3.3484    0.1806 C   0  0  0  0  0  0  0  0  0  0  0  0
   -3.5960   -2.7099    0.6767 H   0  0  0  0  0  0  0  0  0  0  0  0
   -3.1766   -3.5241   -0.8507 H   0  0  0  0  0  0  0  0  0  0  0  0
   -1.4977   -2.6838    0.2006 C   0  0  0  0  0  0  0  0  0  0  0  0
   -0.5577   -3.2379    0.7407 O   0  0  0  0  0  0  0  0  0  0  0  0
   -1.3296   -1.4466   -0.3899 N   0  0  0  0  0  0  0  0  0  0  0  0
   -2.1359   -1.0484   -0.8625 H   0  0  0  0  0  0  0  0  0  0  0  0
   -0.0387   -0.7367   -0.4812 C   0  0  1  0  0  0  0  0  0  0  0  0
    0.6548   -1.3990   -1.0118 H   0  0  0  0  0  0  0  0  0  0  0  0
   -0.1850    0.5508   -1.3128 C   0  0  0  0  0  0  0  0  0  0  0  0
   -0.6714    1.3321   -0.7185 H   0  0  0  0  0  0  0  0  0  0  0  0
    0.8235    0.9093   -1.5516 H   0  0  0  0  0  0  0  0  0  0  0  0
   -0.9892    0.3410   -2.6111 C   0  0  0  0  0  0  0  0  0  0  0  0
   -0.8446   -0.6772   -2.9840 H   0  0  0  0  0  0  0  0  0  0  0  0
   -2.0574    0.4816   -2.4217 H   0  0  0  0  0  0  0  0  0  0  0  0
   -0.5349    1.3008   -3.7025 C   0  0  0  0  0  0  0  0  0  0  0  0
   -1.1220    2.3444   -3.9080 O   0  0  0  0  0  0  0  0  0  0  0  0
    0.5592    1.0512   -4.4809 N   0  0  0  0  0  0  0  0  0  0  0  0
    0.8831    1.8233   -5.0569 H   0  0  0  0  0  0  0  0  0  0  0  0
    1.1989    0.3106   -4.2127 H   0  0  0  0  0  0  0  0  0  0  0  0
    0.6275   -0.4117    0.8736 C   0  0  0  0  0  0  0  0  0  0  0  0
    1.8481   -0.3586    0.9418 O   0  0  0  0  0  0  0  0  0  0  0  0
   -0.1283    0.1065    1.9096 N   0  0  0  0  0  0  0  0  0  0  0  0
   -1.1325   -0.0224    1.8428 H   0  0  0  0  0  0  0  0  0  0  0  0
    0.4459    0.4852    3.1948 C   0  0  0  0  0  0  0  0  0  0  0  0
    1.1874    1.2804    3.0642 H   0  0  0  0  0  0  0  0  0  0  0  0
   -0.3368    0.8519    3.8657 H   0  0  0  0  0  0  0  0  0  0  0  0
    0.9317   -0.3759    3.6656 H   0  0  0  0  0  0  0  0  0  0  0  0
  1  2  1  0  0  0  0
  2  3  1  0  0  0  0
  2  4  1  0  0  0  0
  2  5  1  0  0  0  0
  5  6  2  0  0  0  0
  5  7  1  0  0  0  0
  7  8  1  0  0  0  0
  7  9  1  0  0  0  0
  9 10  1  0  0  0  0
  9 11  1  0  0  0  0
  9 22  1  0  0  0  0
 11 12  1  0  0  0  0
 11 13  1  0  0  0  0
 11 14  1  0  0  0  0
 14 15  1  0  0  0  0
 14 16  1  0  0  0  0
 14 17  1  0  0  0  0
 17 18  2  0  0  0  0
 17 19  1  0  0  0  0
 19 20  1  0  0  0  0
 19 21  1  0  0  0  0
 22 23  2  0  0  0  0
 22 24  1  0  0  0  0
 24 25  1  0  0  0  0
 24 26  1  0  0  0  0
 26 27  1  0  0  0  0
 26 28  1  0  0  0  0
 26 29  1  0  0  0  0
M  END
$$$$

  -OEChem-02102214123D

 29 28  0     1  0  0  0  0  0999 V2000
   -2.8665   -4.2753    0.6504 H   0  0  0  0  0  0  0  0  0  0  0  0
   -2.8959   -3.3138    0.1296 C   0  0  0  0  0  0  0  0  0  0  0  0
   -3.6277   -2.6698    0.6232 H   0  0  0  0  0  0  0  0  0  0  0  0
   -3.2067   -3.4838   -0.9041 H   0  0  0  0  0  0  0  0  0  0  0  0
   -1.5257   -2.6632    0.1581 C   0  0  0  0  0  0  0  0  0  0  0  0
   -0.5896   -3.2377    0.6834 O   0  0  0  0  0  0  0  0  0  0  0  0
   -1.3445   -1.4181   -0.4118 N   0  0  0  0  0  0  0  0  0  0  0  0
   -2.1478   -1.0016   -0.8737 H   0  0  0  0  0  0  0  0  0  0  0  0
   -0.0451   -0.7223   -0.4964 C   0  0  1  0  0  0  0  0  0  0  0  0
    0.6379   -1.3854   -1.0396 H   0  0  0  0  0  0  0  0  0  0  0  0
   -0.1725    0.5809   -1.3078 C   0  0  0  0  0  0  0  0  0  0  0  0
   -0.6526    1.3520   -0.6953 H   0  0  0  0  0  0  0  0  0  0  0  0
    0.8400    0.9386   -1.5297 H   0  0  0  0  0  0  0  0  0  0  0  0
   -0.9800    0.4179   -2.6146 C   0  0  0  0  0  0  0  0  0  0  0  0
   -1.0806   -0.6379   -2.8803 H   0  0  0  0  0  0  0  0  0  0  0  0
   -1.9859    0.8283   -2.4856 H   0  0  0  0  0  0  0  0  0  0  0  0
   -0.2933    1.1083   -3.7859 C   0  0  0  0  0  0  0  0  0  0  0  0
   -0.7068    2.1602   -4.2312 O   0  0  0  0  0  0  0  0  0  0  0  0
    0.8117    0.5805   -4.3911 N   0  0  0  0  0  0  0  0  0  0  0  0
    1.2938    1.1882   -5.0477 H   0  0  0  0  0  0  0  0  0  0  0  0
    1.3107   -0.1769   -3.9356 H   0  0  0  0  0  0  0  0  0  0  0  0
    0.6303   -0.4289    0.8606 C   0  0  0  0  0  0  0  0  0  0  0  0
    1.8515   -0.3887    0.9234 O   0  0  0  0  0  0  0  0  0  0  0  0
   -0.1155    0.0805    1.9080 N   0  0  0  0  0  0  0  0  0  0  0  0
   -1.1209   -0.0397    1.8446 H   0  0  0  0  0  0  0  0  0  0  0  0
    0.4686    0.4261    3.1978 C   0  0  0  0  0  0  0  0  0  0  0  0
    1.2069    1.2266    3.0824 H   0  0  0  0  0  0  0  0  0  0  0  0
   -0.3093    0.7719    3.8853 H   0  0  0  0  0  0  0  0  0  0  0  0
    0.9608   -0.4464    3.6405 H   0  0  0  0  0  0  0  0  0  0  0  0
  1  2  1  0  0  0  0
  2  3  1  0  0  0  0
  2  4  1  0  0  0  0
  2  5  1  0  0  0  0
  5  6  2  0  0  0  0
  5  7  1  0  0  0  0
  7  8  1  0  0  0  0
  7  9  1  0  0  0  0
  9 10  1  0  0  0  0
  9 11  1  0  0  0  0
  9 22  1  0  0  0  0
 11 12  1  0  0  0  0
 11 13  1  0  0  0  0
 11 14  1  0  0  0  0
 14 15  1  0  0  0  0
 14 16  1  0  0  0  0
 14 17  1  0  0  0  0
 17 18  2  0  0  0  0
 17 19  1  0  0  0  0
 19 20  1  0  0  0  0
 19 21  1  0  0  0  0
 22 23  2  0  0  0  0
 22 24  1  0  0  0  0
 24 25  1  0  0  0  0
 24 26  1  0  0  0  0
 26 27  1  0  0  0  0
 26 28  1  0  0  0  0
 26 29  1  0  0  0  0
M  END
$$$$

  -OEChem-02102214123D

 29 28  0     1  0  0  0  0  0999 V2000
   -2.8994   -4.2651    0.5806 H   0  0  0  0  0  0  0  0  0  0  0  0
   -2.9276   -3.2899    0.0861 C   0  0  0  0  0  0  0  0  0  0  0  0
   -3.6437   -2.6518    0.6092 H   0  0  0  0  0  0  0  0  0  0  0  0
   -3.2582   -3.4290   -0.9459 H   0  0  0  0  0  0  0  0  0  0  0  0
   -1.5502   -2.6546    0.1088 C   0  0  0  0  0  0  0  0  0  0  0  0
   -0.6141   -3.2478    0.6129 O   0  0  0  0  0  0  0  0  0  0  0  0
   -1.3618   -1.4011   -0.4402 N   0  0  0  0  0  0  0  0  0  0  0  0
   -2.1664   -0.9655   -0.8820 H   0  0  0  0  0  0  0  0  0  0  0  0
   -0.0575   -0.7137   -0.5143 C   0  0  1  0  0  0  0  0  0  0  0  0
    0.6178   -1.3792   -1.0637 H   0  0  0  0  0  0  0  0  0  0  0  0
   -0.1559    0.6016   -1.3124 C   0  0  0  0  0  0  0  0  0  0  0  0
   -0.6462    1.3549   -0.6861 H   0  0  0  0  0  0  0  0  0  0  0  0
    0.8588    0.9704   -1.5048 H   0  0  0  0  0  0  0  0  0  0  0  0
   -0.9508    0.4890   -2.6353 C   0  0  0  0  0  0  0  0  0  0  0  0
   -1.3257   -0.5238   -2.7988 H   0  0  0  0  0  0  0  0  0  0  0  0
   -1.8140    1.1607   -2.6006 H   0  0  0  0  0  0  0  0  0  0  0  0
   -0.0904    0.8518   -3.8400 C   0  0  0  0  0  0  0  0  0  0  0  0
   -0.3551    1.8066   -4.5431 O   0  0  0  0  0  0  0  0  0  0  0  0
    0.9932    0.1059   -4.2085 N   0  0  0  0  0  0  0  0  0  0  0  0
    1.5870    0.5075   -4.9289 H   0  0  0  0  0  0  0  0  0  0  0  0
    1.3713   -0.5740   -3.5566 H   0  0  0  0  0  0  0  0  0  0  0  0
    0.6210   -0.4490    0.8471 C   0  0  0  0  0  0  0  0  0  0  0  0
    1.8426   -0.4208    0.9075 O   0  0  0  0  0  0  0  0  0  0  0  0
   -0.1188    0.0478    1.9049 N   0  0  0  0  0  0  0  0  0  0  0  0
   -1.1251   -0.0661    1.8433 H   0  0  0  0  0  0  0  0  0  0  0  0
    0.4718    0.3693    3.1981 C   0  0  0  0  0  0  0  0  0  0  0  0
    1.2475    1.1343    3.0860 H   0  0  0  0  0  0  0  0  0  0  0  0
   -0.2940    0.7535    3.8785 H   0  0  0  0  0  0  0  0  0  0  0  0
    0.9197   -0.5238    3.6468 H   0  0  0  0  0  0  0  0  0  0  0  0
  1  2  1  0  0  0  0
  2  3  1  0  0  0  0
  2  4  1  0  0  0  0
  2  5  1  0  0  0  0
  5  6  2  0  0  0  0
  5  7  1  0  0  0  0
  7  8  1  0  0  0  0
  7  9  1  0  0  0  0
  9 10  1  0  0  0  0
  9 11  1  0  0  0  0
  9 22  1  0  0  0  0
 11 12  1  0  0  0  0
 11 13  1  0  0  0  0
 11 14  1  0  0  0  0
 14 15  1  0  0  0  0
 14 16  1  0  0  0  0
 14 17  1  0  0  0  0
 17 18  2  0  0  0  0
 17 19  1  0  0  0  0
 19 20  1  0  0  0  0
 19 21  1  0  0  0  0
 22 23  2  0  0  0  0
 22 24  1  0  0  0  0
 24 25  1  0  0  0  0
 24 26  1  0  0  0  0
 26 27  1  0  0  0  0
 26 28  1  0  0  0  0
 26 29  1  0  0  0  0
M  END
$$$$

  -OEChem-02102214123D

 29 28  0     1  0  0  0  0  0999 V2000
   -2.7323   -4.3301    0.6039 H   0  0  0  0  0  0  0  0  0  0  0  0
   -2.7301   -3.3759    0.0691 C   0  0  0  0  0  0  0  0  0  0  0  0
   -3.5279   -2.7465    0.4704 H   0  0  0  0  0  0  0  0  0  0  0  0
   -2.9215   -3.5669   -0.9895 H   0  0  0  0  0  0  0  0  0  0  0  0
   -1.3884   -2.6879    0.2387 C   0  0  0  0  0  0  0  0  0  0  0  0
   -0.5209   -3.2116    0.9125 O   0  0  0  0  0  0  0  0  0  0  0  0
   -1.1660   -1.4643   -0.3631 N   0  0  0  0  0  0  0  0  0  0  0  0
   -1.9153   -1.0928   -0.9373 H   0  0  0  0  0  0  0  0  0  0  0  0
    0.1211   -0.7396   -0.3322 C   0  0  1  0  0  0  0  0  0  0  0  0
    0.8782   -1.4059   -0.7622 H   0  0  0  0  0  0  0  0  0  0  0  0
    0.0843    0.5335   -1.2058 C   0  0  0  0  0  0  0  0  0  0  0  0
   -0.5082    1.2833   -0.6711 H   0  0  0  0  0  0  0  0  0  0  0  0
    1.0979    0.9437   -1.2810 H   0  0  0  0  0  0  0  0  0  0  0  0
   -0.5544    0.3544   -2.6124 C   0  0  0  0  0  0  0  0  0  0  0  0
   -1.1646   -0.5479   -2.6682 H   0  0  0  0  0  0  0  0  0  0  0  0
   -1.2163    1.2054   -2.7957 H   0  0  0  0  0  0  0  0  0  0  0  0
    0.4508    0.3134   -3.7662 C   0  0  0  0  0  0  0  0  0  0  0  0
    1.6527    0.4246   -3.6279 O   0  0  0  0  0  0  0  0  0  0  0  0
    0.0357    0.1238   -5.0530 N   0  0  0  0  0  0  0  0  0  0  0  0
    0.7699   -0.0574   -5.7321 H   0  0  0  0  0  0  0  0  0  0  0  0
   -0.9145   -0.1806   -5.2315 H   0  0  0  0  0  0  0  0  0  0  0  0
    0.6150   -0.3793    1.0877 C   0  0  0  0  0  0  0  0  0  0  0  0
    1.8143   -0.3247    1.3220 O   0  0  0  0  0  0  0  0  0  0  0  0
   -0.2707    0.1494    2.0103 N   0  0  0  0  0  0  0  0  0  0  0  0
   -1.2555   -0.0034    1.8227 H   0  0  0  0  0  0  0  0  0  0  0  0
    0.1338    0.5396    3.3553 C   0  0  0  0  0  0  0  0  0  0  0  0
    0.9024    1.3188    3.3136 H   0  0  0  0  0  0  0  0  0  0  0  0
   -0.7237    0.9326    3.9096 H   0  0  0  0  0  0  0  0  0  0  0  0
    0.5349   -0.3222    3.8992 H   0  0  0  0  0  0  0  0  0  0  0  0
  1  2  1  0  0  0  0
  2  3  1  0  0  0  0
  2  4  1  0  0  0  0
  2  5  1  0  0  0  0
  5  6  2  0  0  0  0
  5  7  1  0  0  0  0
  7  8  1  0  0  0  0
  7  9  1  0  0  0  0
  9 10  1  0  0  0  0
  9 11  1  0  0  0  0
  9 22  1  0  0  0  0
 11 12  1  0  0  0  0
 11 13  1  0  0  0  0
 11 14  1  0  0  0  0
 14 15  1  0  0  0  0
 14 16  1  0  0  0  0
 14 17  1  0  0  0  0
 17 18  2  0  0  0  0
 17 19  1  0  0  0  0
 19 20  1  0  0  0  0
 19 21  1  0  0  0  0
 22 23  2  0  0  0  0
 22 24  1  0  0  0  0
 24 25  1  0  0  0  0
 24 26  1  0  0  0  0
 26 27  1  0  0  0  0
 26 28  1  0  0  0  0
 26 29  1  0  0  0  0
M  END
$$$$

  -OEChem-02102214123D

 29 28  0     1  0  0  0  0  0999 V2000
   -2.5832   -4.4808    0.9699 H   0  0  0  0  0  0  0  0  0  0  0  0
   -2.6438   -3.6241    0.2925 C   0  0  0  0  0  0  0  0  0  0  0  0
   -3.5414   -3.0492    0.5322 H   0  0  0  0  0  0  0  0  0  0  0  0
   -2.7173   -3.9926   -0.7338 H   0  0  0  0  0  0  0  0  0  0  0  0
   -1.4099   -2.7542    0.4420 C   0  0  0  0  0  0  0  0  0  0  0  0
   -0.5251   -3.0858    1.2104 O   0  0  0  0  0  0  0  0  0  0  0  0
   -1.3085   -1.5818   -0.2826 N   0  0  0  0  0  0  0  0  0  0  0  0
   -2.0283   -1.4425   -0.9847 H   0  0  0  0  0  0  0  0  0  0  0  0
   -0.0512   -0.8229   -0.4362 C   0  0  1  0  0  0  0  0  0  0  0  0
    0.6790   -1.5085   -0.8822 H   0  0  0  0  0  0  0  0  0  0  0  0
   -0.2016    0.3799   -1.3932 C   0  0  0  0  0  0  0  0  0  0  0  0
   -0.7600    1.1573   -0.8606 H   0  0  0  0  0  0  0  0  0  0  0  0
    0.7899    0.7938   -1.6098 H   0  0  0  0  0  0  0  0  0  0  0  0
   -0.9594    0.0859   -2.7069 C   0  0  0  0  0  0  0  0  0  0  0  0
   -1.7549   -0.6497   -2.5764 H   0  0  0  0  0  0  0  0  0  0  0  0
   -1.4360    1.0091   -3.0483 H   0  0  0  0  0  0  0  0  0  0  0  0
   -0.0179   -0.3730   -3.8127 C   0  0  0  0  0  0  0  0  0  0  0  0
   -0.0625   -1.5106   -4.2370 O   0  0  0  0  0  0  0  0  0  0  0  0
    0.8876    0.4632   -4.4018 N   0  0  0  0  0  0  0  0  0  0  0  0
    1.5699    0.0200   -5.0111 H   0  0  0  0  0  0  0  0  0  0  0  0
    1.1012    1.3505   -3.9591 H   0  0  0  0  0  0  0  0  0  0  0  0
    0.5728   -0.3233    0.8860 C   0  0  0  0  0  0  0  0  0  0  0  0
    1.7838   -0.1556    0.9483 O   0  0  0  0  0  0  0  0  0  0  0  0
   -0.2337    0.2619    1.8452 N   0  0  0  0  0  0  0  0  0  0  0  0
   -1.2139    0.0005    1.8090 H   0  0  0  0  0  0  0  0  0  0  0  0
    0.2964    0.7935    3.0946 C   0  0  0  0  0  0  0  0  0  0  0  0
    1.0063    1.6036    2.8967 H   0  0  0  0  0  0  0  0  0  0  0  0
   -0.5153    1.1912    3.7112 H   0  0  0  0  0  0  0  0  0  0  0  0
    0.8084    0.0064    3.6583 H   0  0  0  0  0  0  0  0  0  0  0  0
  1  2  1  0  0  0  0
  2  3  1  0  0  0  0
  2  4  1  0  0  0  0
  2  5  1  0  0  0  0
  5  6  2  0  0  0  0
  5  7  1  0  0  0  0
  7  8  1  0  0  0  0
  7  9  1  0  0  0  0
  9 10  1  0  0  0  0
  9 11  1  0  0  0  0
  9 22  1  0  0  0  0
 11 12  1  0  0  0  0
 11 13  1  0  0  0  0
 11 14  1  0  0  0  0
 14 15  1  0  0  0  0
 14 16  1  0  0  0  0
 14 17  1  0  0  0  0
 17 18  2  0  0  0  0
 17 19  1  0  0  0  0
 19 20  1  0  0  0  0
 19 21  1  0  0  0  0
 22 23  2  0  0  0  0
 22 24  1  0  0  0  0
 24 25  1  0  0  0  0
 24 26  1  0  0  0  0
 26 27  1  0  0  0  0
 26 28  1  0  0  0  0
 26 29  1  0  0  0  0
M  END
$$$$

  -OEChem-02102214123D

 29 28  0     1  0  0  0  0  0999 V2000
   -2.5751   -4.5016    0.8559 H   0  0  0  0  0  0  0  0  0  0  0  0
   -2.6559   -3.6084    0.2300 C   0  0  0  0  0  0  0  0  0  0  0  0
   -3.5583   -3.0612    0.5123 H   0  0  0  0  0  0  0  0  0  0  0  0
   -2.7367   -3.9184   -0.8149 H   0  0  0  0  0  0  0  0  0  0  0  0
   -1.4338   -2.7290    0.4159 C   0  0  0  0  0  0  0  0  0  0  0  0
   -0.5592   -3.0639    1.1949 O   0  0  0  0  0  0  0  0  0  0  0  0
   -1.3352   -1.5425   -0.2855 N   0  0  0  0  0  0  0  0  0  0  0  0
   -2.0324   -1.4236   -1.0143 H   0  0  0  0  0  0  0  0  0  0  0  0
   -0.0703   -0.7978   -0.4421 C   0  0  1  0  0  0  0  0  0  0  0  0
    0.6429   -1.4806   -0.9185 H   0  0  0  0  0  0  0  0  0  0  0  0
   -0.2322    0.4318   -1.3617 C   0  0  0  0  0  0  0  0  0  0  0  0
   -0.7628    1.2086   -0.8004 H   0  0  0  0  0  0  0  0  0  0  0  0
    0.7591    0.8318   -1.6037 H   0  0  0  0  0  0  0  0  0  0  0  0
   -1.0258    0.1661   -2.6565 C   0  0  0  0  0  0  0  0  0  0  0  0
   -1.9661   -0.3534   -2.4595 H   0  0  0  0  0  0  0  0  0  0  0  0
   -1.2860    1.1267   -3.1096 H   0  0  0  0  0  0  0  0  0  0  0  0
   -0.2052   -0.6143   -3.6736 C   0  0  0  0  0  0  0  0  0  0  0  0
   -0.4981   -1.7599   -3.9544 O   0  0  0  0  0  0  0  0  0  0  0  0
    0.8789   -0.0819   -4.3110 N   0  0  0  0  0  0  0  0  0  0  0  0
    1.4543   -0.7391   -4.8308 H   0  0  0  0  0  0  0  0  0  0  0  0
    1.2836    0.7790   -3.9587 H   0  0  0  0  0  0  0  0  0  0  0  0
    0.5865   -0.3341    0.8774 C   0  0  0  0  0  0  0  0  0  0  0  0
    1.8008   -0.1829    0.9158 O   0  0  0  0  0  0  0  0  0  0  0  0
   -0.1914    0.2427    1.8648 N   0  0  0  0  0  0  0  0  0  0  0  0
   -1.1747   -0.0096    1.8466 H   0  0  0  0  0  0  0  0  0  0  0  0
    0.3723    0.7445    3.1116 C   0  0  0  0  0  0  0  0  0  0  0  0
    1.0724    1.5631    2.9138 H   0  0  0  0  0  0  0  0  0  0  0  0
   -0.4229    1.1217    3.7616 H   0  0  0  0  0  0  0  0  0  0  0  0
    0.9038   -0.0543    3.6396 H   0  0  0  0  0  0  0  0  0  0  0  0
  1  2  1  0  0  0  0
  2  3  1  0  0  0  0
  2  4  1  0  0  0  0
  2  5  1  0  0  0  0
  5  6  2  0  0  0  0
  5  7  1  0  0  0  0
  7  8  1  0  0  0  0
  7  9  1  0  0  0  0
  9 10  1  0  0  0  0
  9 11  1  0  0  0  0
  9 22  1  0  0  0  0
 11 12  1  0  0  0  0
 11 13  1  0  0  0  0
 11 14  1  0  0  0  0
 14 15  1  0  0  0  0
 14 16  1  0  0  0  0
 14 17  1  0  0  0  0
 17 18  2  0  0  0  0
 17 19  1  0  0  0  0
 19 20  1  0  0  0  0
 19 21  1  0  0  0  0
 22 23  2  0  0  0  0
 22 24  1  0  0  0  0
 24 25  1  0  0  0  0
 24 26  1  0  0  0  0
 26 27  1  0  0  0  0
 26 28  1  0  0  0  0
 26 29  1  0  0  0  0
M  END
$$$$

  -OEChem-02102214123D

 29 28  0     1  0  0  0  0  0999 V2000
   -2.7492   -4.3358    0.4871 H   0  0  0  0  0  0  0  0  0  0  0  0
   -2.7199   -3.3827   -0.0491 C   0  0  0  0  0  0  0  0  0  0  0  0
   -3.5789   -2.7804    0.2560 H   0  0  0  0  0  0  0  0  0  0  0  0
   -2.7836   -3.5827   -1.1214 H   0  0  0  0  0  0  0  0  0  0  0  0
   -1.4311   -2.6471    0.2667 C   0  0  0  0  0  0  0  0  0  0  0  0
   -0.6555   -3.1127    1.0811 O   0  0  0  0  0  0  0  0  0  0  0  0
   -1.1667   -1.4405   -0.3529 N   0  0  0  0  0  0  0  0  0  0  0  0
   -1.8115   -1.1720   -1.0876 H   0  0  0  0  0  0  0  0  0  0  0  0
    0.1438   -0.7597   -0.3059 C   0  0  1  0  0  0  0  0  0  0  0  0
    0.8893   -1.4507   -0.7162 H   0  0  0  0  0  0  0  0  0  0  0  0
    0.1373    0.5190   -1.1739 C   0  0  0  0  0  0  0  0  0  0  0  0
   -0.4017    1.3073   -0.6382 H   0  0  0  0  0  0  0  0  0  0  0  0
    1.1733    0.8587   -1.2915 H   0  0  0  0  0  0  0  0  0  0  0  0
   -0.5036    0.3648   -2.5726 C   0  0  0  0  0  0  0  0  0  0  0  0
   -1.5607    0.1098   -2.4713 H   0  0  0  0  0  0  0  0  0  0  0  0
   -0.4514    1.3291   -3.0855 H   0  0  0  0  0  0  0  0  0  0  0  0
    0.1746   -0.6731   -3.4656 C   0  0  0  0  0  0  0  0  0  0  0  0
    1.3132   -1.0590   -3.2951 O   0  0  0  0  0  0  0  0  0  0  0  0
   -0.4781   -1.2254   -4.5301 N   0  0  0  0  0  0  0  0  0  0  0  0
    0.1071   -1.7649   -5.1628 H   0  0  0  0  0  0  0  0  0  0  0  0
   -1.3129   -0.7690   -4.8808 H   0  0  0  0  0  0  0  0  0  0  0  0
    0.6261   -0.3928    1.1168 C   0  0  0  0  0  0  0  0  0  0  0  0
    1.8240   -0.3427    1.3610 O   0  0  0  0  0  0  0  0  0  0  0  0
   -0.2599    0.1805    2.0121 N   0  0  0  0  0  0  0  0  0  0  0  0
   -1.2423    0.0104    1.8250 H   0  0  0  0  0  0  0  0  0  0  0  0
    0.1331    0.5747    3.3593 C   0  0  0  0  0  0  0  0  0  0  0  0
    0.9268    1.3286    3.3229 H   0  0  0  0  0  0  0  0  0  0  0  0
   -0.7212    1.0014    3.8932 H   0  0  0  0  0  0  0  0  0  0  0  0
    0.4964   -0.2929    3.9204 H   0  0  0  0  0  0  0  0  0  0  0  0
  1  2  1  0  0  0  0
  2  3  1  0  0  0  0
  2  4  1  0  0  0  0
  2  5  1  0  0  0  0
  5  6  2  0  0  0  0
  5  7  1  0  0  0  0
  7  8  1  0  0  0  0
  7  9  1  0  0  0  0
  9 10  1  0  0  0  0
  9 11  1  0  0  0  0
  9 22  1  0  0  0  0
 11 12  1  0  0  0  0
 11 13  1  0  0  0  0
 11 14  1  0  0  0  0
 14 15  1  0  0  0  0
 14 16  1  0  0  0  0
 14 17  1  0  0  0  0
 17 18  2  0  0  0  0
 17 19  1  0  0  0  0
 19 20  1  0  0  0  0
 19 21  1  0  0  0  0
 22 23  2  0  0  0  0
 22 24  1  0  0  0  0
 24 25  1  0  0  0  0
 24 26  1  0  0  0  0
 26 27  1  0  0  0  0
 26 28  1  0  0  0  0
 26 29  1  0  0  0  0
M  END
$$$$

  -OEChem-02102214123D

 29 28  0     1  0  0  0  0  0999 V2000
   -2.7953   -4.2752    0.4448 H   0  0  0  0  0  0  0  0  0  0  0  0
   -2.7000   -3.3673   -0.1578 C   0  0  0  0  0  0  0  0  0  0  0  0
   -3.5776   -2.7392    0.0120 H   0  0  0  0  0  0  0  0  0  0  0  0
   -2.6587   -3.6498   -1.2126 H   0  0  0  0  0  0  0  0  0  0  0  0
   -1.4389   -2.6170    0.2266 C   0  0  0  0  0  0  0  0  0  0  0  0
   -0.7046   -3.0718    1.0845 O   0  0  0  0  0  0  0  0  0  0  0  0
   -1.1526   -1.4115   -0.3854 N   0  0  0  0  0  0  0  0  0  0  0  0
   -1.7545   -1.1665   -1.1637 H   0  0  0  0  0  0  0  0  0  0  0  0
    0.1650   -0.7469   -0.3080 C   0  0  1  0  0  0  0  0  0  0  0  0
    0.9122   -1.4439   -0.7053 H   0  0  0  0  0  0  0  0  0  0  0  0
    0.1822    0.5348   -1.1708 C   0  0  0  0  0  0  0  0  0  0  0  0
   -0.3411    1.3376   -0.6406 H   0  0  0  0  0  0  0  0  0  0  0  0
    1.2285    0.8456   -1.2773 H   0  0  0  0  0  0  0  0  0  0  0  0
   -0.4339    0.4016   -2.5825 C   0  0  0  0  0  0  0  0  0  0  0  0
   -1.5230    0.3992   -2.4930 H   0  0  0  0  0  0  0  0  0  0  0  0
   -0.1582    1.2777   -3.1760 H   0  0  0  0  0  0  0  0  0  0  0  0
   -0.0073   -0.8502   -3.3458 C   0  0  0  0  0  0  0  0  0  0  0  0
    1.1331   -1.2659   -3.3412 O   0  0  0  0  0  0  0  0  0  0  0  0
   -0.9035   -1.5886   -4.0647 N   0  0  0  0  0  0  0  0  0  0  0  0
   -0.4847   -2.2950   -4.6648 H   0  0  0  0  0  0  0  0  0  0  0  0
   -1.7730   -1.1488   -4.3454 H   0  0  0  0  0  0  0  0  0  0  0  0
    0.6249   -0.3889    1.1241 C   0  0  0  0  0  0  0  0  0  0  0  0
    1.8195   -0.3538    1.3875 O   0  0  0  0  0  0  0  0  0  0  0  0
   -0.2693    0.1935    2.0051 N   0  0  0  0  0  0  0  0  0  0  0  0
   -1.2499    0.0309    1.8021 H   0  0  0  0  0  0  0  0  0  0  0  0
    0.1049    0.5640    3.3642 C   0  0  0  0  0  0  0  0  0  0  0  0
    0.9078    1.3086    3.3518 H   0  0  0  0  0  0  0  0  0  0  0  0
   -0.7536    0.9927    3.8900 H   0  0  0  0  0  0  0  0  0  0  0  0
    0.4491   -0.3155    3.9188 H   0  0  0  0  0  0  0  0  0  0  0  0
  1  2  1  0  0  0  0
  2  3  1  0  0  0  0
  2  4  1  0  0  0  0
  2  5  1  0  0  0  0
  5  6  2  0  0  0  0
  5  7  1  0  0  0  0
  7  8  1  0  0  0  0
  7  9  1  0  0  0  0
  9 10  1  0  0  0  0
  9 11  1  0  0  0  0
  9 22  1  0  0  0  0
 11 12  1  0  0  0  0
 11 13  1  0  0  0  0
 11 14  1  0  0  0  0
 14 15  1  0  0  0  0
 14 16  1  0  0  0  0
 14 17  1  0  0  0  0
 17 18  2  0  0  0  0
 17 19  1  0  0  0  0
 19 20  1  0  0  0  0
 19 21  1  0  0  0  0
 22 23  2  0  0  0  0
 22 24  1  0  0  0  0
 24 25  1  0  0  0  0
 24 26  1  0  0  0  0
 26 27  1  0  0  0  0
 26 28  1  0  0  0  0
 26 29  1  0  0  0  0
M  END
$$$$

  -OEChem-02102214123D

 29 28  0     1  0  0  0  0  0999 V2000
   -2.7876   -4.2987    0.4251 H   0  0  0  0  0  0  0  0  0  0  0  0
   -2.6753   -3.4006   -0.1890 C   0  0  0  0  0  0  0  0  0  0  0  0
   -3.5730   -2.7871   -0.0822 H   0  0  0  0  0  0  0  0  0  0  0  0
   -2.5671   -3.7014   -1.2339 H   0  0  0  0  0  0  0  0  0  0  0  0
   -1.4530   -2.6172    0.2511 C   0  0  0  0  0  0  0  0  0  0  0  0
   -0.7706   -3.0299    1.1712 O   0  0  0  0  0  0  0  0  0  0  0  0
   -1.1475   -1.4280   -0.3829 N   0  0  0  0  0  0  0  0  0  0  0  0
   -1.6930   -1.2445   -1.2185 H   0  0  0  0  0  0  0  0  0  0  0  0
    0.1762   -0.7770   -0.2920 C   0  0  1  0  0  0  0  0  0  0  0  0
    0.9219   -1.4901   -0.6629 H   0  0  0  0  0  0  0  0  0  0  0  0
    0.2309    0.4906   -1.1761 C   0  0  0  0  0  0  0  0  0  0  0  0
   -0.2788    1.3132   -0.6631 H   0  0  0  0  0  0  0  0  0  0  0  0
    1.2870    0.7722   -1.2613 H   0  0  0  0  0  0  0  0  0  0  0  0
   -0.3481    0.3799   -2.6082 C   0  0  0  0  0  0  0  0  0  0  0  0
   -1.4049    0.6566   -2.5695 H   0  0  0  0  0  0  0  0  0  0  0  0
    0.1530    1.1053   -3.2555 H   0  0  0  0  0  0  0  0  0  0  0  0
   -0.2486   -0.9990   -3.2554 C   0  0  0  0  0  0  0  0  0  0  0  0
    0.7976   -1.6074   -3.3415 O   0  0  0  0  0  0  0  0  0  0  0  0
   -1.3569   -1.6567   -3.7101 N   0  0  0  0  0  0  0  0  0  0  0  0
   -1.1489   -2.4856   -4.2624 H   0  0  0  0  0  0  0  0  0  0  0  0
   -2.1723   -1.1006   -3.9461 H   0  0  0  0  0  0  0  0  0  0  0  0
    0.6136   -0.3936    1.1405 C   0  0  0  0  0  0  0  0  0  0  0  0
    1.8042   -0.3607    1.4222 O   0  0  0  0  0  0  0  0  0  0  0  0
   -0.2910    0.2180    1.9900 N   0  0  0  0  0  0  0  0  0  0  0  0
   -1.2687    0.0530    1.7739 H   0  0  0  0  0  0  0  0  0  0  0  0
    0.0605    0.6207    3.3460 C   0  0  0  0  0  0  0  0  0  0  0  0
    0.8725    1.3554    3.3302 H   0  0  0  0  0  0  0  0  0  0  0  0
   -0.8032    1.0738    3.8418 H   0  0  0  0  0  0  0  0  0  0  0  0
    0.3823   -0.2476    3.9307 H   0  0  0  0  0  0  0  0  0  0  0  0
  1  2  1  0  0  0  0
  2  3  1  0  0  0  0
  2  4  1  0  0  0  0
  2  5  1  0  0  0  0
  5  6  2  0  0  0  0
  5  7  1  0  0  0  0
  7  8  1  0  0  0  0
  7  9  1  0  0  0  0
  9 10  1  0  0  0  0
  9 11  1  0  0  0  0
  9 22  1  0  0  0  0
 11 12  1  0  0  0  0
 11 13  1  0  0  0  0
 11 14  1  0  0  0  0
 14 15  1  0  0  0  0
 14 16  1  0  0  0  0
 14 17  1  0  0  0  0
 17 18  2  0  0  0  0
 17 19  1  0  0  0  0
 19 20  1  0  0  0  0
 19 21  1  0  0  0  0
 22 23  2  0  0  0  0
 22 24  1  0  0  0  0
 24 25  1  0  0  0  0
 24 26  1  0  0  0  0
 26 27  1  0  0  0  0
 26 28  1  0  0  0  0
 26 29  1  0  0  0  0
M  END
$$$$

  -OEChem-02102214123D

 29 28  0     1  0  0  0  0  0999 V2000
   -2.7471   -4.3636    0.4797 H   0  0  0  0  0  0  0  0  0  0  0  0
   -2.6487   -3.4716   -0.1457 C   0  0  0  0  0  0  0  0  0  0  0  0
   -3.5697   -2.8885   -0.0752 H   0  0  0  0  0  0  0  0  0  0  0  0
   -2.4995   -3.7849   -1.1820 H   0  0  0  0  0  0  0  0  0  0  0  0
   -1.4677   -2.6387    0.3158 C   0  0  0  0  0  0  0  0  0  0  0  0
   -0.8163   -2.9979    1.2799 O   0  0  0  0  0  0  0  0  0  0  0  0
   -1.1622   -1.4689   -0.3535 N   0  0  0  0  0  0  0  0  0  0  0  0
   -1.6751   -1.3478   -1.2219 H   0  0  0  0  0  0  0  0  0  0  0  0
    0.1624   -0.8166   -0.2700 C   0  0  1  0  0  0  0  0  0  0  0  0
    0.9039   -1.5499   -0.6094 H   0  0  0  0  0  0  0  0  0  0  0  0
    0.2655    0.4231   -1.1933 C   0  0  0  0  0  0  0  0  0  0  0  0
   -0.2444    1.2631   -0.7093 H   0  0  0  0  0  0  0  0  0  0  0  0
    1.3280    0.6878   -1.2451 H   0  0  0  0  0  0  0  0  0  0  0  0
   -0.2639    0.3252   -2.6491 C   0  0  0  0  0  0  0  0  0  0  0  0
   -1.2002    0.8869   -2.7075 H   0  0  0  0  0  0  0  0  0  0  0  0
    0.4470    0.8201   -3.3172 H   0  0  0  0  0  0  0  0  0  0  0  0
   -0.5268   -1.0744   -3.1944 C   0  0  0  0  0  0  0  0  0  0  0  0
    0.3452   -1.9107   -3.3030 O   0  0  0  0  0  0  0  0  0  0  0  0
   -1.7940   -1.5033   -3.4747 N   0  0  0  0  0  0  0  0  0  0  0  0
   -1.8279   -2.3840   -3.9834 H   0  0  0  0  0  0  0  0  0  0  0  0
   -2.4932   -0.7950   -3.6756 H   0  0  0  0  0  0  0  0  0  0  0  0
    0.5880   -0.3912    1.1545 C   0  0  0  0  0  0  0  0  0  0  0  0
    1.7774   -0.3443    1.4403 O   0  0  0  0  0  0  0  0  0  0  0  0
   -0.3225    0.2465    1.9780 N   0  0  0  0  0  0  0  0  0  0  0  0
   -1.2980    0.0617    1.7671 H   0  0  0  0  0  0  0  0  0  0  0  0
    0.0218    0.6954    3.3211 C   0  0  0  0  0  0  0  0  0  0  0  0
    0.8272    1.4365    3.2832 H   0  0  0  0  0  0  0  0  0  0  0  0
   -0.8472    1.1561    3.8002 H   0  0  0  0  0  0  0  0  0  0  0  0
    0.3499   -0.1507    3.9342 H   0  0  0  0  0  0  0  0  0  0  0  0
  1  2  1  0  0  0  0
  2  3  1  0  0  0  0
  2  4  1  0  0  0  0
  2  5  1  0  0  0  0
  5  6  2  0  0  0  0
  5  7  1  0  0  0  0
  7  8  1  0  0  0  0
  7  9  1  0  0  0  0
  9 10  1  0  0  0  0
  9 11  1  0  0  0  0
  9 22  1  0  0  0  0
 11 12  1  0  0  0  0
 11 13  1  0  0  0  0
 11 14  1  0  0  0  0
 14 15  1  0  0  0  0
 14 16  1  0  0  0  0
 14 17  1  0  0  0  0
 17 18  2  0  0  0  0
 17 19  1  0  0  0  0
 19 20  1  0  0  0  0
 19 21  1  0  0  0  0
 22 23  2  0  0  0  0
 22 24  1  0  0  0  0
 24 25  1  0  0  0  0
 24 26  1  0  0  0  0
 26 27  1  0  0  0  0
 26 28  1  0  0  0  0
 26 29  1  0  0  0  0
M  END
$$$$

  -OEChem-02102214123D

 29 28  0     1  0  0  0  0  0999 V2000
   -2.7518   -4.3723    0.6416 H   0  0  0  0  0  0  0  0  0  0  0  0
   -2.6301   -3.5294   -0.0448 C   0  0  0  0  0  0  0  0  0  0  0  0
   -3.5480   -2.9371   -0.0422 H   0  0  0  0  0  0  0  0  0  0  0  0
   -2.4560   -3.9178   -1.0514 H   0  0  0  0  0  0  0  0  0  0  0  0
   -1.4550   -2.6721    0.3847 C   0  0  0  0  0  0  0  0  0  0  0  0
   -0.7940   -2.9956    1.3555 O   0  0  0  0  0  0  0  0  0  0  0  0
   -1.1675   -1.5186   -0.3192 N   0  0  0  0  0  0  0  0  0  0  0  0
   -1.6903   -1.4290   -1.1863 H   0  0  0  0  0  0  0  0  0  0  0  0
    0.1486   -0.8473   -0.2623 C   0  0  1  0  0  0  0  0  0  0  0  0
    0.8912   -1.5909   -0.5745 H   0  0  0  0  0  0  0  0  0  0  0  0
    0.2777    0.3609   -1.2271 C   0  0  0  0  0  0  0  0  0  0  0  0
   -0.2570    1.2018   -0.7722 H   0  0  0  0  0  0  0  0  0  0  0  0
    1.3371    0.6420   -1.2518 H   0  0  0  0  0  0  0  0  0  0  0  0
   -0.2154    0.2530   -2.6982 C   0  0  0  0  0  0  0  0  0  0  0  0
   -0.9504    1.0432   -2.8734 H   0  0  0  0  0  0  0  0  0  0  0  0
    0.6324    0.4593   -3.3585 H   0  0  0  0  0  0  0  0  0  0  0  0
   -0.8226   -1.0677   -3.1537 C   0  0  0  0  0  0  0  0  0  0  0  0
   -0.1691   -2.0813   -3.2857 O   0  0  0  0  0  0  0  0  0  0  0  0
   -2.1740   -1.2223   -3.2861 N   0  0  0  0  0  0  0  0  0  0  0  0
   -2.4510   -2.0795   -3.7591 H   0  0  0  0  0  0  0  0  0  0  0  0
   -2.7278   -0.3830   -3.4285 H   0  0  0  0  0  0  0  0  0  0  0  0
    0.5676   -0.3788    1.1505 C   0  0  0  0  0  0  0  0  0  0  0  0
    1.7567   -0.3019    1.4316 O   0  0  0  0  0  0  0  0  0  0  0  0
   -0.3527    0.2673    1.9564 N   0  0  0  0  0  0  0  0  0  0  0  0
   -1.3245    0.0561    1.7525 H   0  0  0  0  0  0  0  0  0  0  0  0
   -0.0166    0.7482    3.2906 C   0  0  0  0  0  0  0  0  0  0  0  0
    0.7849    1.4928    3.2401 H   0  0  0  0  0  0  0  0  0  0  0  0
   -0.8901    1.2151    3.7556 H   0  0  0  0  0  0  0  0  0  0  0  0
    0.3130   -0.0822    3.9242 H   0  0  0  0  0  0  0  0  0  0  0  0
  1  2  1  0  0  0  0
  2  3  1  0  0  0  0
  2  4  1  0  0  0  0
  2  5  1  0  0  0  0
  5  6  2  0  0  0  0
  5  7  1  0  0  0  0
  7  8  1  0  0  0  0
  7  9  1  0  0  0  0
  9 10  1  0  0  0  0
  9 11  1  0  0  0  0
  9 22  1  0  0  0  0
 11 12  1  0  0  0  0
 11 13  1  0  0  0  0
 11 14  1  0  0  0  0
 14 15  1  0  0  0  0
 14 16  1  0  0  0  0
 14 17  1  0  0  0  0
 17 18  2  0  0  0  0
 17 19  1  0  0  0  0
 19 20  1  0  0  0  0
 19 21  1  0  0  0  0
 22 23  2  0  0  0  0
 22 24  1  0  0  0  0
 24 25  1  0  0  0  0
 24 26  1  0  0  0  0
 26 27  1  0  0  0  0
 26 28  1  0  0  0  0
 26 29  1  0  0  0  0
M  END
$$$$

  -OEChem-02102214123D

 29 28  0     1  0  0  0  0  0999 V2000
   -2.7066   -4.4275    0.7659 H   0  0  0  0  0  0  0  0  0  0  0  0
   -2.6051   -3.5988    0.0596 C   0  0  0  0  0  0  0  0  0  0  0  0
   -3.5393   -3.0331    0.0422 H   0  0  0  0  0  0  0  0  0  0  0  0
   -2.4141   -4.0067   -0.9364 H   0  0  0  0  0  0  0  0  0  0  0  0
   -1.4581   -2.6969    0.4732 C   0  0  0  0  0  0  0  0  0  0  0  0
   -0.8033   -2.9674    1.4646 O   0  0  0  0  0  0  0  0  0  0  0  0
   -1.1876   -1.5663   -0.2729 N   0  0  0  0  0  0  0  0  0  0  0  0
   -1.6868   -1.5534   -1.1586 H   0  0  0  0  0  0  0  0  0  0  0  0
    0.1263   -0.8901   -0.2535 C   0  0  1  0  0  0  0  0  0  0  0  0
    0.8651   -1.6447   -0.5468 H   0  0  0  0  0  0  0  0  0  0  0  0
    0.2655    0.2918   -1.2529 C   0  0  0  0  0  0  0  0  0  0  0  0
   -0.2863    1.1312   -0.8160 H   0  0  0  0  0  0  0  0  0  0  0  0
    1.3205    0.5894   -1.2728 H   0  0  0  0  0  0  0  0  0  0  0  0
   -0.2232    0.1728   -2.7255 C   0  0  0  0  0  0  0  0  0  0  0  0
   -0.6984    1.1145   -3.0132 H   0  0  0  0  0  0  0  0  0  0  0  0
    0.6635    0.0621   -3.3571 H   0  0  0  0  0  0  0  0  0  0  0  0
   -1.1513   -0.9744   -3.0999 C   0  0  0  0  0  0  0  0  0  0  0  0
   -0.7829   -2.1291   -3.1692 O   0  0  0  0  0  0  0  0  0  0  0  0
   -2.5020   -0.7968   -3.1924 N   0  0  0  0  0  0  0  0  0  0  0  0
   -3.0076   -1.5743   -3.6101 H   0  0  0  0  0  0  0  0  0  0  0  0
   -2.8462    0.1484   -3.3317 H   0  0  0  0  0  0  0  0  0  0  0  0
    0.5579   -0.3759    1.1399 C   0  0  0  0  0  0  0  0  0  0  0  0
    1.7500   -0.2872    1.4055 O   0  0  0  0  0  0  0  0  0  0  0  0
   -0.3569    0.2920    1.9338 N   0  0  0  0  0  0  0  0  0  0  0  0
   -1.3291    0.0652    1.7487 H   0  0  0  0  0  0  0  0  0  0  0  0
   -0.0097    0.8186    3.2477 C   0  0  0  0  0  0  0  0  0  0  0  0
    0.7917    1.5604    3.1652 H   0  0  0  0  0  0  0  0  0  0  0  0
   -0.8792    1.3020    3.7029 H   0  0  0  0  0  0  0  0  0  0  0  0
    0.3246    0.0102    3.9066 H   0  0  0  0  0  0  0  0  0  0  0  0
  1  2  1  0  0  0  0
  2  3  1  0  0  0  0
  2  4  1  0  0  0  0
  2  5  1  0  0  0  0
  5  6  2  0  0  0  0
  5  7  1  0  0  0  0
  7  8  1  0  0  0  0
  7  9  1  0  0  0  0
  9 10  1  0  0  0  0
  9 11  1  0  0  0  0
  9 22  1  0  0  0  0
 11 12  1  0  0  0  0
 11 13  1  0  0  0  0
 11 14  1  0  0  0  0
 14 15  1  0  0  0  0
 14 16  1  0  0  0  0
 14 17  1  0  0  0  0
 17 18  2  0  0  0  0
 17 19  1  0  0  0  0
 19 20  1  0  0  0  0
 19 21  1  0  0  0  0
 22 23  2  0  0  0  0
 22 24  1  0  0  0  0
 24 25  1  0  0  0  0
 24 26  1  0  0  0  0
 26 27  1  0  0  0  0
 26 28  1  0  0  0  0
 26 29  1  0  0  0  0
M  END
$$$$

  -OEChem-02102214123D

 29 28  0     1  0  0  0  0  0999 V2000
   -2.5373   -4.5432    0.8512 H   0  0  0  0  0  0  0  0  0  0  0  0
   -2.5524   -3.6676    0.1961 C   0  0  0  0  0  0  0  0  0  0  0  0
   -3.5136   -3.1599    0.3052 H   0  0  0  0  0  0  0  0  0  0  0  0
   -2.4399   -4.0011   -0.8389 H   0  0  0  0  0  0  0  0  0  0  0  0
   -1.4221   -2.7232    0.5585 C   0  0  0  0  0  0  0  0  0  0  0  0
   -0.7368   -2.9485    1.5407 O   0  0  0  0  0  0  0  0  0  0  0  0
   -1.1967   -1.6111   -0.2291 N   0  0  0  0  0  0  0  0  0  0  0  0
   -1.6948   -1.6722   -1.1158 H   0  0  0  0  0  0  0  0  0  0  0  0
    0.1070   -0.9190   -0.2771 C   0  0  1  0  0  0  0  0  0  0  0  0
    0.8440   -1.6720   -0.5777 H   0  0  0  0  0  0  0  0  0  0  0  0
    0.2012    0.2473   -1.3024 C   0  0  0  0  0  0  0  0  0  0  0  0
   -0.3480    1.0858   -0.8603 H   0  0  0  0  0  0  0  0  0  0  0  0
    1.2508    0.5574   -1.3629 H   0  0  0  0  0  0  0  0  0  0  0  0
   -0.3379    0.1078   -2.7545 C   0  0  0  0  0  0  0  0  0  0  0  0
   -0.5764    1.1046   -3.1355 H   0  0  0  0  0  0  0  0  0  0  0  0
    0.4811   -0.2774   -3.3693 H   0  0  0  0  0  0  0  0  0  0  0  0
   -1.5240   -0.8116   -3.0134 C   0  0  0  0  0  0  0  0  0  0  0  0
   -1.4324   -2.0236   -3.0405 O   0  0  0  0  0  0  0  0  0  0  0  0
   -2.7982   -0.3276   -3.0835 N   0  0  0  0  0  0  0  0  0  0  0  0
   -3.5000   -0.9831   -3.4171 H   0  0  0  0  0  0  0  0  0  0  0  0
   -2.9282    0.6675   -3.2374 H   0  0  0  0  0  0  0  0  0  0  0  0
    0.5808   -0.3617    1.0861 C   0  0  0  0  0  0  0  0  0  0  0  0
    1.7808   -0.2540    1.3060 O   0  0  0  0  0  0  0  0  0  0  0  0
   -0.3126    0.3163    1.8954 N   0  0  0  0  0  0  0  0  0  0  0  0
   -1.2885    0.0756    1.7502 H   0  0  0  0  0  0  0  0  0  0  0  0
    0.0750    0.8821    3.1812 C   0  0  0  0  0  0  0  0  0  0  0  0
    0.8592    1.6349    3.0487 H   0  0  0  0  0  0  0  0  0  0  0  0
   -0.7852    1.3619    3.6574 H   0  0  0  0  0  0  0  0  0  0  0  0
    0.4492    0.0970    3.8469 H   0  0  0  0  0  0  0  0  0  0  0  0
  1  2  1  0  0  0  0
  2  3  1  0  0  0  0
  2  4  1  0  0  0  0
  2  5  1  0  0  0  0
  5  6  2  0  0  0  0
  5  7  1  0  0  0  0
  7  8  1  0  0  0  0
  7  9  1  0  0  0  0
  9 10  1  0  0  0  0
  9 11  1  0  0  0  0
  9 22  1  0  0  0  0
 11 12  1  0  0  0  0
 11 13  1  0  0  0  0
 11 14  1  0  0  0  0
 14 15  1  0  0  0  0
 14 16  1  0  0  0  0
 14 17  1  0  0  0  0
 17 18  2  0  0  0  0
 17 19  1  0  0  0  0
 19 20  1  0  0  0  0
 19 21  1  0  0  0  0
 22 23  2  0  0  0  0
 22 24  1  0  0  0  0
 24 25  1  0  0  0  0
 24 26  1  0  0  0  0
 26 27  1  0  0  0  0
 26 28  1  0  0  0  0
 26 29  1  0  0  0  0
M  END
$$$$

  -OEChem-02102214123D

 29 28  0     1  0  0  0  0  0999 V2000
   -2.4436   -4.3932    1.0031 H   0  0  0  0  0  0  0  0  0  0  0  0
   -2.5577   -3.4596    0.4448 C   0  0  0  0  0  0  0  0  0  0  0  0
   -3.2905   -2.8305    0.9558 H   0  0  0  0  0  0  0  0  0  0  0  0
   -2.9238   -3.6903   -0.5586 H   0  0  0  0  0  0  0  0  0  0  0  0
   -1.2268   -2.7378    0.3547 C   0  0  0  0  0  0  0  0  0  0  0  0
   -0.2242   -3.2419    0.8296 O   0  0  0  0  0  0  0  0  0  0  0  0
   -1.1598   -1.5104   -0.2709 N   0  0  0  0  0  0  0  0  0  0  0  0
   -2.0420   -1.1229   -0.6140 H   0  0  0  0  0  0  0  0  0  0  0  0
    0.0555   -0.6890   -0.3934 C   0  0  1  0  0  0  0  0  0  0  0  0
    0.8045   -1.3212   -0.8835 H   0  0  0  0  0  0  0  0  0  0  0  0
   -0.1072    0.5746   -1.2795 C   0  0  0  0  0  0  0  0  0  0  0  0
   -0.6693    1.3069   -0.6891 H   0  0  0  0  0  0  0  0  0  0  0  0
    0.8877    1.0010   -1.4510 H   0  0  0  0  0  0  0  0  0  0  0  0
   -0.8316    0.4629   -2.6486 C   0  0  0  0  0  0  0  0  0  0  0  0
   -1.0291    1.4714   -3.0226 H   0  0  0  0  0  0  0  0  0  0  0  0
   -0.1346   -0.0097   -3.3462 H   0  0  0  0  0  0  0  0  0  0  0  0
   -2.1380   -0.3225   -2.7124 C   0  0  0  0  0  0  0  0  0  0  0  0
   -3.0283   -0.1663   -1.8943 O   0  0  0  0  0  0  0  0  0  0  0  0
   -2.3655   -1.2795   -3.6591 N   0  0  0  0  0  0  0  0  0  0  0  0
   -3.3169   -1.6294   -3.7285 H   0  0  0  0  0  0  0  0  0  0  0  0
   -1.7384   -1.3455   -4.4546 H   0  0  0  0  0  0  0  0  0  0  0  0
    0.6645   -0.2794    0.9651 C   0  0  0  0  0  0  0  0  0  0  0  0
    1.8739   -0.1192    1.0637 O   0  0  0  0  0  0  0  0  0  0  0  0
   -0.1595    0.1843    1.9747 N   0  0  0  0  0  0  0  0  0  0  0  0
   -1.1511   -0.0074    1.8711 H   0  0  0  0  0  0  0  0  0  0  0  0
    0.3422    0.6247    3.2700 C   0  0  0  0  0  0  0  0  0  0  0  0
    1.0329    1.4658    3.1486 H   0  0  0  0  0  0  0  0  0  0  0  0
   -0.4870    0.9492    3.9058 H   0  0  0  0  0  0  0  0  0  0  0  0
    0.8677   -0.1932    3.7743 H   0  0  0  0  0  0  0  0  0  0  0  0
  1  2  1  0  0  0  0
  2  3  1  0  0  0  0
  2  4  1  0  0  0  0
  2  5  1  0  0  0  0
  5  6  2  0  0  0  0
  5  7  1  0  0  0  0
  7  8  1  0  0  0  0
  7  9  1  0  0  0  0
  9 10  1  0  0  0  0
  9 11  1  0  0  0  0
  9 22  1  0  0  0  0
 11 12  1  0  0  0  0
 11 13  1  0  0  0  0
 11 14  1  0  0  0  0
 14 15  1  0  0  0  0
 14 16  1  0  0  0  0
 14 17  1  0  0  0  0
 17 18  2  0  0  0  0
 17 19  1  0  0  0  0
 19 20  1  0  0  0  0
 19 21  1  0  0  0  0
 22 23  2  0  0  0  0
 22 24  1  0  0  0  0
 24 25  1  0  0  0  0
 24 26  1  0  0  0  0
 26 27  1  0  0  0  0
 26 28  1  0  0  0  0
 26 29  1  0  0  0  0
M  END
$$$$

  -OEChem-02102214123D

 29 28  0     1  0  0  0  0  0999 V2000
   -2.6567   -4.3490    0.7836 H   0  0  0  0  0  0  0  0  0  0  0  0
   -2.6953   -3.3852    0.2680 C   0  0  0  0  0  0  0  0  0  0  0  0
   -3.4117   -2.7391    0.7808 H   0  0  0  0  0  0  0  0  0  0  0  0
   -3.0326   -3.5476   -0.7586 H   0  0  0  0  0  0  0  0  0  0  0  0
   -1.3234   -2.7385    0.2646 C   0  0  0  0  0  0  0  0  0  0  0  0
   -0.3783   -3.3080    0.7818 O   0  0  0  0  0  0  0  0  0  0  0  0
   -1.1537   -1.5046   -0.3281 N   0  0  0  0  0  0  0  0  0  0  0  0
   -1.9982   -1.0433   -0.6746 H   0  0  0  0  0  0  0  0  0  0  0  0
    0.0991   -0.7322   -0.3171 C   0  0  1  0  0  0  0  0  0  0  0  0
    0.8670   -1.3824   -0.7512 H   0  0  0  0  0  0  0  0  0  0  0  0
    0.0527    0.5488   -1.1880 C   0  0  0  0  0  0  0  0  0  0  0  0
   -0.5182    1.3090   -0.6429 H   0  0  0  0  0  0  0  0  0  0  0  0
    1.0767    0.9263   -1.2848 H   0  0  0  0  0  0  0  0  0  0  0  0
   -0.5608    0.4357   -2.6072 C   0  0  0  0  0  0  0  0  0  0  0  0
   -0.4799    1.4094   -3.0980 H   0  0  0  0  0  0  0  0  0  0  0  0
    0.0476   -0.2714   -3.1782 H   0  0  0  0  0  0  0  0  0  0  0  0
   -2.0178   -0.0117   -2.7094 C   0  0  0  0  0  0  0  0  0  0  0  0
   -2.8339    0.1807   -1.8241 O   0  0  0  0  0  0  0  0  0  0  0  0
   -2.4866   -0.6751   -3.8062 N   0  0  0  0  0  0  0  0  0  0  0  0
   -3.4954   -0.7764   -3.8745 H   0  0  0  0  0  0  0  0  0  0  0  0
   -1.9128   -0.7093   -4.6429 H   0  0  0  0  0  0  0  0  0  0  0  0
    0.5939   -0.3690    1.0994 C   0  0  0  0  0  0  0  0  0  0  0  0
    1.7945   -0.2698    1.3157 O   0  0  0  0  0  0  0  0  0  0  0  0
   -0.3006    0.1132    2.0379 N   0  0  0  0  0  0  0  0  0  0  0  0
   -1.2866   -0.0126    1.8312 H   0  0  0  0  0  0  0  0  0  0  0  0
    0.0950    0.5125    3.3824 C   0  0  0  0  0  0  0  0  0  0  0  0
    0.8271    1.3260    3.3418 H   0  0  0  0  0  0  0  0  0  0  0  0
   -0.7760    0.8613    3.9451 H   0  0  0  0  0  0  0  0  0  0  0  0
    0.5383   -0.3341    3.9170 H   0  0  0  0  0  0  0  0  0  0  0  0
  1  2  1  0  0  0  0
  2  3  1  0  0  0  0
  2  4  1  0  0  0  0
  2  5  1  0  0  0  0
  5  6  2  0  0  0  0
  5  7  1  0  0  0  0
  7  8  1  0  0  0  0
  7  9  1  0  0  0  0
  9 10  1  0  0  0  0
  9 11  1  0  0  0  0
  9 22  1  0  0  0  0
 11 12  1  0  0  0  0
 11 13  1  0  0  0  0
 11 14  1  0  0  0  0
 14 15  1  0  0  0  0
 14 16  1  0  0  0  0
 14 17  1  0  0  0  0
 17 18  2  0  0  0  0
 17 19  1  0  0  0  0
 19 20  1  0  0  0  0
 19 21  1  0  0  0  0
 22 23  2  0  0  0  0
 22 24  1  0  0  0  0
 24 25  1  0  0  0  0
 24 26  1  0  0  0  0
 26 27  1  0  0  0  0
 26 28  1  0  0  0  0
 26 29  1  0  0  0  0
M  END
$$$$

  -OEChem-02102214123D

 29 28  0     1  0  0  0  0  0999 V2000
   -2.6691   -4.3241    0.7711 H   0  0  0  0  0  0  0  0  0  0  0  0
   -2.6895   -3.3728    0.2320 C   0  0  0  0  0  0  0  0  0  0  0  0
   -3.4002   -2.7043    0.7236 H   0  0  0  0  0  0  0  0  0  0  0  0
   -3.0210   -3.5547   -0.7931 H   0  0  0  0  0  0  0  0  0  0  0  0
   -1.3079   -2.7473    0.2228 C   0  0  0  0  0  0  0  0  0  0  0  0
   -0.3669   -3.3363    0.7256 O   0  0  0  0  0  0  0  0  0  0  0  0
   -1.1246   -1.5108   -0.3599 N   0  0  0  0  0  0  0  0  0  0  0  0
   -1.9670   -1.0258   -0.6777 H   0  0  0  0  0  0  0  0  0  0  0  0
    0.1338   -0.7475   -0.3285 C   0  0  1  0  0  0  0  0  0  0  0  0
    0.9044   -1.3921   -0.7658 H   0  0  0  0  0  0  0  0  0  0  0  0
    0.0704    0.5366   -1.1881 C   0  0  0  0  0  0  0  0  0  0  0  0
   -0.4885    1.3065   -0.6444 H   0  0  0  0  0  0  0  0  0  0  0  0
    1.0946    0.9080   -1.3051 H   0  0  0  0  0  0  0  0  0  0  0  0
   -0.5561    0.3742   -2.5942 C   0  0  0  0  0  0  0  0  0  0  0  0
   -0.2894    1.2522   -3.1889 H   0  0  0  0  0  0  0  0  0  0  0  0
   -0.1108   -0.4995   -3.0783 H   0  0  0  0  0  0  0  0  0  0  0  0
   -2.0784    0.2359   -2.6477 C   0  0  0  0  0  0  0  0  0  0  0  0
   -2.7996    0.3342   -1.6692 O   0  0  0  0  0  0  0  0  0  0  0  0
   -2.7210   -0.0313   -3.8217 N   0  0  0  0  0  0  0  0  0  0  0  0
   -3.7329    0.0618   -3.8126 H   0  0  0  0  0  0  0  0  0  0  0  0
   -2.2085    0.0494   -4.6941 H   0  0  0  0  0  0  0  0  0  0  0  0
    0.6188   -0.3950    1.0934 C   0  0  0  0  0  0  0  0  0  0  0  0
    1.8180   -0.3107    1.3233 O   0  0  0  0  0  0  0  0  0  0  0  0
   -0.2808    0.0891    2.0257 N   0  0  0  0  0  0  0  0  0  0  0  0
   -1.2659   -0.0163    1.8033 H   0  0  0  0  0  0  0  0  0  0  0  0
    0.1029    0.4734    3.3779 C   0  0  0  0  0  0  0  0  0  0  0  0
    0.8539    1.2701    3.3527 H   0  0  0  0  0  0  0  0  0  0  0  0
   -0.7687    0.8396    3.9288 H   0  0  0  0  0  0  0  0  0  0  0  0
    0.5186   -0.3858    3.9149 H   0  0  0  0  0  0  0  0  0  0  0  0
  1  2  1  0  0  0  0
  2  3  1  0  0  0  0
  2  4  1  0  0  0  0
  2  5  1  0  0  0  0
  5  6  2  0  0  0  0
  5  7  1  0  0  0  0
  7  8  1  0  0  0  0
  7  9  1  0  0  0  0
  9 10  1  0  0  0  0
  9 11  1  0  0  0  0
  9 22  1  0  0  0  0
 11 12  1  0  0  0  0
 11 13  1  0  0  0  0
 11 14  1  0  0  0  0
 14 15  1  0  0  0  0
 14 16  1  0  0  0  0
 14 17  1  0  0  0  0
 17 18  2  0  0  0  0
 17 19  1  0  0  0  0
 19 20  1  0  0  0  0
 19 21  1  0  0  0  0
 22 23  2  0  0  0  0
 22 24  1  0  0  0  0
 24 25  1  0  0  0  0
 24 26  1  0  0  0  0
 26 27  1  0  0  0  0
 26 28  1  0  0  0  0
 26 29  1  0  0  0  0
M  END
$$$$

  -OEChem-02102214123D

 29 28  0     1  0  0  0  0  0999 V2000
   -2.6598   -4.3528    0.7727 H   0  0  0  0  0  0  0  0  0  0  0  0
   -2.6755   -3.3987    0.2387 C   0  0  0  0  0  0  0  0  0  0  0  0
   -3.3914   -2.7327    0.7264 H   0  0  0  0  0  0  0  0  0  0  0  0
   -2.9973   -3.5755   -0.7904 H   0  0  0  0  0  0  0  0  0  0  0  0
   -1.2945   -2.7716    0.2479 C   0  0  0  0  0  0  0  0  0  0  0  0
   -0.3676   -3.3404    0.7980 O   0  0  0  0  0  0  0  0  0  0  0  0
   -1.0983   -1.5515   -0.3641 N   0  0  0  0  0  0  0  0  0  0  0  0
   -1.9298   -1.0864   -0.7369 H   0  0  0  0  0  0  0  0  0  0  0  0
    0.1578   -0.7840   -0.3278 C   0  0  1  0  0  0  0  0  0  0  0  0
    0.9416   -1.4293   -0.7402 H   0  0  0  0  0  0  0  0  0  0  0  0
    0.0707    0.4749   -1.2176 C   0  0  0  0  0  0  0  0  0  0  0  0
   -0.4955    1.2570   -0.6992 H   0  0  0  0  0  0  0  0  0  0  0  0
    1.0900    0.8546   -1.3512 H   0  0  0  0  0  0  0  0  0  0  0  0
   -0.5528    0.2309   -2.6123 C   0  0  0  0  0  0  0  0  0  0  0  0
   -0.1137    0.9520   -3.3070 H   0  0  0  0  0  0  0  0  0  0  0  0
   -0.2894   -0.7685   -2.9705 H   0  0  0  0  0  0  0  0  0  0  0  0
   -2.0710    0.4048   -2.6753 C   0  0  0  0  0  0  0  0  0  0  0  0
   -2.7979    0.2697   -1.7055 O   0  0  0  0  0  0  0  0  0  0  0  0
   -2.7049    0.6930   -3.8493 N   0  0  0  0  0  0  0  0  0  0  0  0
   -3.6908    0.9318   -3.7877 H   0  0  0  0  0  0  0  0  0  0  0  0
   -2.1570    0.9747   -4.6558 H   0  0  0  0  0  0  0  0  0  0  0  0
    0.6166   -0.3880    1.0912 C   0  0  0  0  0  0  0  0  0  0  0  0
    1.8111   -0.2823    1.3365 O   0  0  0  0  0  0  0  0  0  0  0  0
   -0.3023    0.1211    1.9909 N   0  0  0  0  0  0  0  0  0  0  0  0
   -1.2826   -0.0072    1.7593 H   0  0  0  0  0  0  0  0  0  0  0  0
    0.0566    0.5636    3.3320 C   0  0  0  0  0  0  0  0  0  0  0  0
    0.7887    1.3765    3.2845 H   0  0  0  0  0  0  0  0  0  0  0  0
   -0.8297    0.9286    3.8596 H   0  0  0  0  0  0  0  0  0  0  0  0
    0.4862   -0.2647    3.9052 H   0  0  0  0  0  0  0  0  0  0  0  0
  1  2  1  0  0  0  0
  2  3  1  0  0  0  0
  2  4  1  0  0  0  0
  2  5  1  0  0  0  0
  5  6  2  0  0  0  0
  5  7  1  0  0  0  0
  7  8  1  0  0  0  0
  7  9  1  0  0  0  0
  9 10  1  0  0  0  0
  9 11  1  0  0  0  0
  9 22  1  0  0  0  0
 11 12  1  0  0  0  0
 11 13  1  0  0  0  0
 11 14  1  0  0  0  0
 14 15  1  0  0  0  0
 14 16  1  0  0  0  0
 14 17  1  0  0  0  0
 17 18  2  0  0  0  0
 17 19  1  0  0  0  0
 19 20  1  0  0  0  0
 19 21  1  0  0  0  0
 22 23  2  0  0  0  0
 22 24  1  0  0  0  0
 24 25  1  0  0  0  0
 24 26  1  0  0  0  0
 26 27  1  0  0  0  0
 26 28  1  0  0  0  0
 26 29  1  0  0  0  0
M  END
$$$$

  -OEChem-02102214123D

 29 28  0     1  0  0  0  0  0999 V2000
   -2.6600   -4.3976    0.7666 H   0  0  0  0  0  0  0  0  0  0  0  0
   -2.6780   -3.4451    0.2297 C   0  0  0  0  0  0  0  0  0  0  0  0
   -3.4365   -2.7998    0.6797 H   0  0  0  0  0  0  0  0  0  0  0  0
   -2.9438   -3.6337   -0.8133 H   0  0  0  0  0  0  0  0  0  0  0  0
   -1.3187   -2.7761    0.3046 C   0  0  0  0  0  0  0  0  0  0  0  0
   -0.4239   -3.2788    0.9617 O   0  0  0  0  0  0  0  0  0  0  0  0
   -1.1066   -1.5887   -0.3635 N   0  0  0  0  0  0  0  0  0  0  0  0
   -1.9022   -1.1994   -0.8770 H   0  0  0  0  0  0  0  0  0  0  0  0
    0.1547   -0.8233   -0.3498 C   0  0  1  0  0  0  0  0  0  0  0  0
    0.9431   -1.4827   -0.7302 H   0  0  0  0  0  0  0  0  0  0  0  0
    0.0436    0.3851   -1.2987 C   0  0  0  0  0  0  0  0  0  0  0  0
   -0.5345    1.1825   -0.8173 H   0  0  0  0  0  0  0  0  0  0  0  0
    1.0534    0.7776   -1.4628 H   0  0  0  0  0  0  0  0  0  0  0  0
   -0.5855    0.0273   -2.6640 C   0  0  0  0  0  0  0  0  0  0  0  0
   -0.0062    0.5129   -3.4540 H   0  0  0  0  0  0  0  0  0  0  0  0
   -0.5443   -1.0486   -2.8582 H   0  0  0  0  0  0  0  0  0  0  0  0
   -2.0227    0.5211   -2.7564 C   0  0  0  0  0  0  0  0  0  0  0  0
   -2.8905    0.0154   -2.0654 O   0  0  0  0  0  0  0  0  0  0  0  0
   -2.3926    1.5764   -3.5398 N   0  0  0  0  0  0  0  0  0  0  0  0
   -3.3891    1.7583   -3.6211 H   0  0  0  0  0  0  0  0  0  0  0  0
   -1.7446    1.9375   -4.2325 H   0  0  0  0  0  0  0  0  0  0  0  0
    0.6053   -0.3552    1.0496 C   0  0  0  0  0  0  0  0  0  0  0  0
    1.7986   -0.2227    1.2878 O   0  0  0  0  0  0  0  0  0  0  0  0
   -0.3186    0.2037    1.9140 N   0  0  0  0  0  0  0  0  0  0  0  0
   -1.2955    0.0220    1.7041 H   0  0  0  0  0  0  0  0  0  0  0  0
    0.0353    0.7088    3.2341 C   0  0  0  0  0  0  0  0  0  0  0  0
    0.7626    1.5231    3.1509 H   0  0  0  0  0  0  0  0  0  0  0  0
   -0.8543    1.0924    3.7425 H   0  0  0  0  0  0  0  0  0  0  0  0
    0.4685   -0.0898    3.8455 H   0  0  0  0  0  0  0  0  0  0  0  0
  1  2  1  0  0  0  0
  2  3  1  0  0  0  0
  2  4  1  0  0  0  0
  2  5  1  0  0  0  0
  5  6  2  0  0  0  0
  5  7  1  0  0  0  0
  7  8  1  0  0  0  0
  7  9  1  0  0  0  0
  9 10  1  0  0  0  0
  9 11  1  0  0  0  0
  9 22  1  0  0  0  0
 11 12  1  0  0  0  0
 11 13  1  0  0  0  0
 11 14  1  0  0  0  0
 14 15  1  0  0  0  0
 14 16  1  0  0  0  0
 14 17  1  0  0  0  0
 17 18  2  0  0  0  0
 17 19  1  0  0  0  0
 19 20  1  0  0  0  0
 19 21  1  0  0  0  0
 22 23  2  0  0  0  0
 22 24  1  0  0  0  0
 24 25  1  0  0  0  0
 24 26  1  0  0  0  0
 26 27  1  0  0  0  0
 26 28  1  0  0  0  0
 26 29  1  0  0  0  0
M  END
$$$$

  -OEChem-02102214123D

 29 28  0     1  0  0  0  0  0999 V2000
   -2.6550   -4.3977    0.8179 H   0  0  0  0  0  0  0  0  0  0  0  0
   -2.6876   -3.4522    0.2695 C   0  0  0  0  0  0  0  0  0  0  0  0
   -3.4380   -2.8039    0.7282 H   0  0  0  0  0  0  0  0  0  0  0  0
   -2.9748   -3.6547   -0.7650 H   0  0  0  0  0  0  0  0  0  0  0  0
   -1.3284   -2.7803    0.3075 C   0  0  0  0  0  0  0  0  0  0  0  0
   -0.4144   -3.2867    0.9341 O   0  0  0  0  0  0  0  0  0  0  0  0
   -1.1357   -1.5883   -0.3603 N   0  0  0  0  0  0  0  0  0  0  0  0
   -1.9420   -1.1896   -0.8430 H   0  0  0  0  0  0  0  0  0  0  0  0
    0.1259   -0.8219   -0.3637 C   0  0  1  0  0  0  0  0  0  0  0  0
    0.9075   -1.4789   -0.7615 H   0  0  0  0  0  0  0  0  0  0  0  0
   -0.0060    0.3869   -1.3075 C   0  0  0  0  0  0  0  0  0  0  0  0
   -0.5894    1.1668   -0.8038 H   0  0  0  0  0  0  0  0  0  0  0  0
    0.9935    0.8012   -1.4810 H   0  0  0  0  0  0  0  0  0  0  0  0
   -0.6563    0.0401   -2.6691 C   0  0  0  0  0  0  0  0  0  0  0  0
    0.0461    0.2967   -3.4669 H   0  0  0  0  0  0  0  0  0  0  0  0
   -0.8668   -1.0270   -2.7764 H   0  0  0  0  0  0  0  0  0  0  0  0
   -1.9351    0.8339   -2.8776 C   0  0  0  0  0  0  0  0  0  0  0  0
   -2.9246    0.5600   -2.2225 O   0  0  0  0  0  0  0  0  0  0  0  0
   -2.0208    1.8970   -3.7301 N   0  0  0  0  0  0  0  0  0  0  0  0
   -2.9475    2.2843   -3.8855 H   0  0  0  0  0  0  0  0  0  0  0  0
   -1.2723    2.0685   -4.3935 H   0  0  0  0  0  0  0  0  0  0  0  0
    0.6048   -0.3594    1.0285 C   0  0  0  0  0  0  0  0  0  0  0  0
    1.8031   -0.2397    1.2467 O   0  0  0  0  0  0  0  0  0  0  0  0
   -0.2994    0.1966    1.9154 N   0  0  0  0  0  0  0  0  0  0  0  0
   -1.2822    0.0353    1.7184 H   0  0  0  0  0  0  0  0  0  0  0  0
    0.0835    0.6953    3.2299 C   0  0  0  0  0  0  0  0  0  0  0  0
    0.8218    1.4986    3.1358 H   0  0  0  0  0  0  0  0  0  0  0  0
   -0.7916    1.0918    3.7536 H   0  0  0  0  0  0  0  0  0  0  0  0
    0.5145   -0.1108    3.8329 H   0  0  0  0  0  0  0  0  0  0  0  0
  1  2  1  0  0  0  0
  2  3  1  0  0  0  0
  2  4  1  0  0  0  0
  2  5  1  0  0  0  0
  5  6  2  0  0  0  0
  5  7  1  0  0  0  0
  7  8  1  0  0  0  0
  7  9  1  0  0  0  0
  9 10  1  0  0  0  0
  9 11  1  0  0  0  0
  9 22  1  0  0  0  0
 11 12  1  0  0  0  0
 11 13  1  0  0  0  0
 11 14  1  0  0  0  0
 14 15  1  0  0  0  0
 14 16  1  0  0  0  0
 14 17  1  0  0  0  0
 17 18  2  0  0  0  0
 17 19  1  0  0  0  0
 19 20  1  0  0  0  0
 19 21  1  0  0  0  0
 22 23  2  0  0  0  0
 22 24  1  0  0  0  0
 24 25  1  0  0  0  0
 24 26  1  0  0  0  0
 26 27  1  0  0  0  0
 26 28  1  0  0  0  0
 26 29  1  0  0  0  0
M  END
$$$$

  -OEChem-02102214123D

 29 28  0     1  0  0  0  0  0999 V2000
   -2.6423   -4.4265    0.8891 H   0  0  0  0  0  0  0  0  0  0  0  0
   -2.6990   -3.4890    0.3286 C   0  0  0  0  0  0  0  0  0  0  0  0
   -3.4552   -2.8485    0.7886 H   0  0  0  0  0  0  0  0  0  0  0  0
   -2.9954   -3.7116   -0.6992 H   0  0  0  0  0  0  0  0  0  0  0  0
   -1.3518   -2.7920    0.3403 C   0  0  0  0  0  0  0  0  0  0  0  0
   -0.4159   -3.2843    0.9448 O   0  0  0  0  0  0  0  0  0  0  0  0
   -1.1933   -1.5979   -0.3340 N   0  0  0  0  0  0  0  0  0  0  0  0
   -2.0119   -1.2197   -0.8069 H   0  0  0  0  0  0  0  0  0  0  0  0
    0.0631   -0.8253   -0.3850 C   0  0  1  0  0  0  0  0  0  0  0  0
    0.8300   -1.4873   -0.8035 H   0  0  0  0  0  0  0  0  0  0  0  0
   -0.0719    0.3838   -1.3311 C   0  0  0  0  0  0  0  0  0  0  0  0
   -0.6565    1.1499   -0.8080 H   0  0  0  0  0  0  0  0  0  0  0  0
    0.9210    0.8111   -1.5112 H   0  0  0  0  0  0  0  0  0  0  0  0
   -0.7491    0.0709   -2.6886 C   0  0  0  0  0  0  0  0  0  0  0  0
    0.0163    0.0337   -3.4684 H   0  0  0  0  0  0  0  0  0  0  0  0
   -1.2465   -0.9011   -2.6965 H   0  0  0  0  0  0  0  0  0  0  0  0
   -1.7810    1.1302   -3.0426 C   0  0  0  0  0  0  0  0  0  0  0  0
   -2.8748    1.1226   -2.5098 O   0  0  0  0  0  0  0  0  0  0  0  0
   -1.5181    2.1514   -3.9100 N   0  0  0  0  0  0  0  0  0  0  0  0
   -2.3028    2.7407   -4.1738 H   0  0  0  0  0  0  0  0  0  0  0  0
   -0.6800    2.1213   -4.4813 H   0  0  0  0  0  0  0  0  0  0  0  0
    0.5931   -0.3614    0.9889 C   0  0  0  0  0  0  0  0  0  0  0  0
    1.7986   -0.2384    1.1599 O   0  0  0  0  0  0  0  0  0  0  0  0
   -0.2763    0.1896    1.9128 N   0  0  0  0  0  0  0  0  0  0  0  0
   -1.2657    0.0256    1.7562 H   0  0  0  0  0  0  0  0  0  0  0  0
    0.1582    0.6835    3.2133 C   0  0  0  0  0  0  0  0  0  0  0  0
    0.8874    1.4915    3.0934 H   0  0  0  0  0  0  0  0  0  0  0  0
   -0.6965    1.0721    3.7750 H   0  0  0  0  0  0  0  0  0  0  0  0
    0.6181   -0.1231    3.7939 H   0  0  0  0  0  0  0  0  0  0  0  0
  1  2  1  0  0  0  0
  2  3  1  0  0  0  0
  2  4  1  0  0  0  0
  2  5  1  0  0  0  0
  5  6  2  0  0  0  0
  5  7  1  0  0  0  0
  7  8  1  0  0  0  0
  7  9  1  0  0  0  0
  9 10  1  0  0  0  0
  9 11  1  0  0  0  0
  9 22  1  0  0  0  0
 11 12  1  0  0  0  0
 11 13  1  0  0  0  0
 11 14  1  0  0  0  0
 14 15  1  0  0  0  0
 14 16  1  0  0  0  0
 14 17  1  0  0  0  0
 17 18  2  0  0  0  0
 17 19  1  0  0  0  0
 19 20  1  0  0  0  0
 19 21  1  0  0  0  0
 22 23  2  0  0  0  0
 22 24  1  0  0  0  0
 24 25  1  0  0  0  0
 24 26  1  0  0  0  0
 26 27  1  0  0  0  0
 26 28  1  0  0  0  0
 26 29  1  0  0  0  0
M  END
$$$$

  -OEChem-02102214123D

 29 28  0     1  0  0  0  0  0999 V2000
   -2.6282   -4.4580    0.9190 H   0  0  0  0  0  0  0  0  0  0  0  0
   -2.7139   -3.5142    0.3728 C   0  0  0  0  0  0  0  0  0  0  0  0
   -3.4567   -2.8858    0.8700 H   0  0  0  0  0  0  0  0  0  0  0  0
   -3.0485   -3.7273   -0.6453 H   0  0  0  0  0  0  0  0  0  0  0  0
   -1.3726   -2.8063    0.3420 C   0  0  0  0  0  0  0  0  0  0  0  0
   -0.4163   -3.2892    0.9213 O   0  0  0  0  0  0  0  0  0  0  0  0
   -1.2429   -1.6100   -0.3355 N   0  0  0  0  0  0  0  0  0  0  0  0
   -2.0740   -1.2439   -0.7930 H   0  0  0  0  0  0  0  0  0  0  0  0
    0.0091   -0.8341   -0.4254 C   0  0  1  0  0  0  0  0  0  0  0  0
    0.7623   -1.4980   -0.8648 H   0  0  0  0  0  0  0  0  0  0  0  0
   -0.1352    0.3803   -1.3648 C   0  0  0  0  0  0  0  0  0  0  0  0
   -0.7130    1.1412   -0.8266 H   0  0  0  0  0  0  0  0  0  0  0  0
    0.8548    0.8080   -1.5598 H   0  0  0  0  0  0  0  0  0  0  0  0
   -0.8432    0.0861   -2.7080 C   0  0  0  0  0  0  0  0  0  0  0  0
   -0.1061   -0.2380   -3.4477 H   0  0  0  0  0  0  0  0  0  0  0  0
   -1.5798   -0.7144   -2.6195 H   0  0  0  0  0  0  0  0  0  0  0  0
   -1.5815    1.3174   -3.2117 C   0  0  0  0  0  0  0  0  0  0  0  0
   -2.6728    1.6145   -2.7649 O   0  0  0  0  0  0  0  0  0  0  0  0
   -1.0331    2.1761   -4.1204 N   0  0  0  0  0  0  0  0  0  0  0  0
   -1.5133    3.0624   -4.2490 H   0  0  0  0  0  0  0  0  0  0  0  0
   -0.0510    2.0856   -4.3592 H   0  0  0  0  0  0  0  0  0  0  0  0
    0.5811   -0.3724    0.9327 C   0  0  0  0  0  0  0  0  0  0  0  0
    1.7903   -0.2325    1.0589 O   0  0  0  0  0  0  0  0  0  0  0  0
   -0.2599    0.1736    1.8855 N   0  0  0  0  0  0  0  0  0  0  0  0
   -1.2531    0.0026    1.7665 H   0  0  0  0  0  0  0  0  0  0  0  0
    0.2170    0.7021    3.1570 C   0  0  0  0  0  0  0  0  0  0  0  0
    0.9038    1.5386    2.9904 H   0  0  0  0  0  0  0  0  0  0  0  0
   -0.6244    1.0613    3.7569 H   0  0  0  0  0  0  0  0  0  0  0  0
    0.7396   -0.0765    3.7226 H   0  0  0  0  0  0  0  0  0  0  0  0
  1  2  1  0  0  0  0
  2  3  1  0  0  0  0
  2  4  1  0  0  0  0
  2  5  1  0  0  0  0
  5  6  2  0  0  0  0
  5  7  1  0  0  0  0
  7  8  1  0  0  0  0
  7  9  1  0  0  0  0
  9 10  1  0  0  0  0
  9 11  1  0  0  0  0
  9 22  1  0  0  0  0
 11 12  1  0  0  0  0
 11 13  1  0  0  0  0
 11 14  1  0  0  0  0
 14 15  1  0  0  0  0
 14 16  1  0  0  0  0
 14 17  1  0  0  0  0
 17 18  2  0  0  0  0
 17 19  1  0  0  0  0
 19 20  1  0  0  0  0
 19 21  1  0  0  0  0
 22 23  2  0  0  0  0
 22 24  1  0  0  0  0
 24 25  1  0  0  0  0
 24 26  1  0  0  0  0
 26 27  1  0  0  0  0
 26 28  1  0  0  0  0
 26 29  1  0  0  0  0
M  END
$$$$

  -OEChem-02102214123D

 29 28  0     1  0  0  0  0  0999 V2000
   -2.6520   -4.4352    0.9040 H   0  0  0  0  0  0  0  0  0  0  0  0
   -2.7393   -3.4893    0.3617 C   0  0  0  0  0  0  0  0  0  0  0  0
   -3.4749   -2.8603    0.8687 H   0  0  0  0  0  0  0  0  0  0  0  0
   -3.0847   -3.6977   -0.6537 H   0  0  0  0  0  0  0  0  0  0  0  0
   -1.3956   -2.7866    0.3188 C   0  0  0  0  0  0  0  0  0  0  0  0
   -0.4321   -3.2808    0.8760 O   0  0  0  0  0  0  0  0  0  0  0  0
   -1.2727   -1.5809   -0.3436 N   0  0  0  0  0  0  0  0  0  0  0  0
   -2.1069   -1.2126   -0.7922 H   0  0  0  0  0  0  0  0  0  0  0  0
   -0.0178   -0.8114   -0.4485 C   0  0  1  0  0  0  0  0  0  0  0  0
    0.7213   -1.4739   -0.9131 H   0  0  0  0  0  0  0  0  0  0  0  0
   -0.1738    0.4160   -1.3678 C   0  0  0  0  0  0  0  0  0  0  0  0
   -0.7358    1.1803   -0.8180 H   0  0  0  0  0  0  0  0  0  0  0  0
    0.8168    0.8336   -1.5813 H   0  0  0  0  0  0  0  0  0  0  0  0
   -0.9114    0.1317   -2.6928 C   0  0  0  0  0  0  0  0  0  0  0  0
   -0.2614   -0.4336   -3.3663 H   0  0  0  0  0  0  0  0  0  0  0  0
   -1.8144   -0.4608   -2.5325 H   0  0  0  0  0  0  0  0  0  0  0  0
   -1.3399    1.4334   -3.3540 C   0  0  0  0  0  0  0  0  0  0  0  0
   -2.3864    1.9736   -3.0522 O   0  0  0  0  0  0  0  0  0  0  0  0
   -0.5500    2.0862   -4.2565 N   0  0  0  0  0  0  0  0  0  0  0  0
   -0.8298    3.0334   -4.4959 H   0  0  0  0  0  0  0  0  0  0  0  0
    0.4130    1.7904   -4.3779 H   0  0  0  0  0  0  0  0  0  0  0  0
    0.5877   -0.3729    0.9026 C   0  0  0  0  0  0  0  0  0  0  0  0
    1.8007   -0.2455    1.0036 O   0  0  0  0  0  0  0  0  0  0  0  0
   -0.2272    0.1647    1.8823 N   0  0  0  0  0  0  0  0  0  0  0  0
   -1.2237   -0.0001    1.7846 H   0  0  0  0  0  0  0  0  0  0  0  0
    0.2834    0.6618    3.1533 C   0  0  0  0  0  0  0  0  0  0  0  0
    0.9697    1.4991    2.9887 H   0  0  0  0  0  0  0  0  0  0  0  0
   -0.5413    1.0105    3.7820 H   0  0  0  0  0  0  0  0  0  0  0  0
    0.8163   -0.1316    3.6881 H   0  0  0  0  0  0  0  0  0  0  0  0
  1  2  1  0  0  0  0
  2  3  1  0  0  0  0
  2  4  1  0  0  0  0
  2  5  1  0  0  0  0
  5  6  2  0  0  0  0
  5  7  1  0  0  0  0
  7  8  1  0  0  0  0
  7  9  1  0  0  0  0
  9 10  1  0  0  0  0
  9 11  1  0  0  0  0
  9 22  1  0  0  0  0
 11 12  1  0  0  0  0
 11 13  1  0  0  0  0
 11 14  1  0  0  0  0
 14 15  1  0  0  0  0
 14 16  1  0  0  0  0
 14 17  1  0  0  0  0
 17 18  2  0  0  0  0
 17 19  1  0  0  0  0
 19 20  1  0  0  0  0
 19 21  1  0  0  0  0
 22 23  2  0  0  0  0
 22 24  1  0  0  0  0
 24 25  1  0  0  0  0
 24 26  1  0  0  0  0
 26 27  1  0  0  0  0
 26 28  1  0  0  0  0
 26 29  1  0  0  0  0
M  END
$$$$

  -OEChem-02102214123D

 29 28  0     1  0  0  0  0  0999 V2000
   -2.6213   -4.4454    0.8651 H   0  0  0  0  0  0  0  0  0  0  0  0
   -2.7368   -3.4898    0.3456 C   0  0  0  0  0  0  0  0  0  0  0  0
   -3.4656   -2.8822    0.8870 H   0  0  0  0  0  0  0  0  0  0  0  0
   -3.1090   -3.6817   -0.6635 H   0  0  0  0  0  0  0  0  0  0  0  0
   -1.4040   -2.7680    0.2795 C   0  0  0  0  0  0  0  0  0  0  0  0
   -0.4123   -3.2755    0.7714 O   0  0  0  0  0  0  0  0  0  0  0  0
   -1.3225   -1.5311   -0.3301 N   0  0  0  0  0  0  0  0  0  0  0  0
   -2.1773   -1.1562   -0.7297 H   0  0  0  0  0  0  0  0  0  0  0  0
   -0.0804   -0.7427   -0.4493 C   0  0  1  0  0  0  0  0  0  0  0  0
    0.6402   -1.3890   -0.9634 H   0  0  0  0  0  0  0  0  0  0  0  0
   -0.2557    0.5153   -1.3283 C   0  0  0  0  0  0  0  0  0  0  0  0
   -0.5570    1.3533   -0.6884 H   0  0  0  0  0  0  0  0  0  0  0  0
    0.7167    0.7752   -1.7617 H   0  0  0  0  0  0  0  0  0  0  0  0
   -1.3075    0.3766   -2.4453 C   0  0  0  0  0  0  0  0  0  0  0  0
   -1.0422   -0.4507   -3.1097 H   0  0  0  0  0  0  0  0  0  0  0  0
   -2.2962    0.1733   -2.0258 H   0  0  0  0  0  0  0  0  0  0  0  0
   -1.4028    1.6639   -3.2512 C   0  0  0  0  0  0  0  0  0  0  0  0
   -2.1962    2.5352   -2.9546 O   0  0  0  0  0  0  0  0  0  0  0  0
   -0.5799    1.9188   -4.3108 N   0  0  0  0  0  0  0  0  0  0  0  0
   -0.5916    2.8700   -4.6682 H   0  0  0  0  0  0  0  0  0  0  0  0
    0.2271    1.3237   -4.4661 H   0  0  0  0  0  0  0  0  0  0  0  0
    0.5784   -0.3592    0.8936 C   0  0  0  0  0  0  0  0  0  0  0  0
    1.7939   -0.2314    0.9508 O   0  0  0  0  0  0  0  0  0  0  0  0
   -0.1986    0.1236    1.9310 N   0  0  0  0  0  0  0  0  0  0  0  0
   -1.1966   -0.0476    1.8672 H   0  0  0  0  0  0  0  0  0  0  0  0
    0.3611    0.5507    3.2070 C   0  0  0  0  0  0  0  0  0  0  0  0
    1.0640    1.3777    3.0606 H   0  0  0  0  0  0  0  0  0  0  0  0
   -0.4359    0.8910    3.8749 H   0  0  0  0  0  0  0  0  0  0  0  0
    0.8889   -0.2789    3.6892 H   0  0  0  0  0  0  0  0  0  0  0  0
  1  2  1  0  0  0  0
  2  3  1  0  0  0  0
  2  4  1  0  0  0  0
  2  5  1  0  0  0  0
  5  6  2  0  0  0  0
  5  7  1  0  0  0  0
  7  8  1  0  0  0  0
  7  9  1  0  0  0  0
  9 10  1  0  0  0  0
  9 11  1  0  0  0  0
  9 22  1  0  0  0  0
 11 12  1  0  0  0  0
 11 13  1  0  0  0  0
 11 14  1  0  0  0  0
 14 15  1  0  0  0  0
 14 16  1  0  0  0  0
 14 17  1  0  0  0  0
 17 18  2  0  0  0  0
 17 19  1  0  0  0  0
 19 20  1  0  0  0  0
 19 21  1  0  0  0  0
 22 23  2  0  0  0  0
 22 24  1  0  0  0  0
 24 25  1  0  0  0  0
 24 26  1  0  0  0  0
 26 27  1  0  0  0  0
 26 28  1  0  0  0  0
 26 29  1  0  0  0  0
M  END
$$$$

  -OEChem-02102214123D

 29 28  0     1  0  0  0  0  0999 V2000
   -2.7167   -4.3945    0.7857 H   0  0  0  0  0  0  0  0  0  0  0  0
   -2.8061   -3.4299    0.2775 C   0  0  0  0  0  0  0  0  0  0  0  0
   -3.5366   -2.8179    0.8120 H   0  0  0  0  0  0  0  0  0  0  0  0
   -3.1597   -3.6019   -0.7420 H   0  0  0  0  0  0  0  0  0  0  0  0
   -1.4610   -2.7288    0.2496 C   0  0  0  0  0  0  0  0  0  0  0  0
   -0.4877   -3.2590    0.7535 O   0  0  0  0  0  0  0  0  0  0  0  0
   -1.3473   -1.4857   -0.3416 N   0  0  0  0  0  0  0  0  0  0  0  0
   -2.1844   -1.0993   -0.7675 H   0  0  0  0  0  0  0  0  0  0  0  0
   -0.0840   -0.7298   -0.4553 C   0  0  1  0  0  0  0  0  0  0  0  0
    0.6164   -1.3841   -0.9871 H   0  0  0  0  0  0  0  0  0  0  0  0
   -0.2463    0.5467   -1.3091 C   0  0  0  0  0  0  0  0  0  0  0  0
   -0.5126    1.3899   -0.6614 H   0  0  0  0  0  0  0  0  0  0  0  0
    0.7273    0.7802   -1.7547 H   0  0  0  0  0  0  0  0  0  0  0  0
   -1.3182    0.4355   -2.4101 C   0  0  0  0  0  0  0  0  0  0  0  0
   -1.2153   -0.5172   -2.9378 H   0  0  0  0  0  0  0  0  0  0  0  0
   -2.3198    0.4772   -1.9726 H   0  0  0  0  0  0  0  0  0  0  0  0
   -1.1759    1.5605   -3.4260 C   0  0  0  0  0  0  0  0  0  0  0  0
   -1.8768    2.5513   -3.3705 O   0  0  0  0  0  0  0  0  0  0  0  0
   -0.2563    1.5191   -4.4349 N   0  0  0  0  0  0  0  0  0  0  0  0
   -0.1254    2.3814   -4.9568 H   0  0  0  0  0  0  0  0  0  0  0  0
    0.4779    0.8194   -4.4098 H   0  0  0  0  0  0  0  0  0  0  0  0
    0.5959   -0.3821    0.8870 C   0  0  0  0  0  0  0  0  0  0  0  0
    1.8146   -0.2834    0.9324 O   0  0  0  0  0  0  0  0  0  0  0  0
   -0.1585    0.1081    1.9375 N   0  0  0  0  0  0  0  0  0  0  0  0
   -1.1597   -0.0478    1.8863 H   0  0  0  0  0  0  0  0  0  0  0  0
    0.4256    0.5108    3.2107 C   0  0  0  0  0  0  0  0  0  0  0  0
    1.1435    1.3247    3.0635 H   0  0  0  0  0  0  0  0  0  0  0  0
   -0.3559    0.8608    3.8917 H   0  0  0  0  0  0  0  0  0  0  0  0
    0.9420   -0.3341    3.6787 H   0  0  0  0  0  0  0  0  0  0  0  0
  1  2  1  0  0  0  0
  2  3  1  0  0  0  0
  2  4  1  0  0  0  0
  2  5  1  0  0  0  0
  5  6  2  0  0  0  0
  5  7  1  0  0  0  0
  7  8  1  0  0  0  0
  7  9  1  0  0  0  0
  9 10  1  0  0  0  0
  9 11  1  0  0  0  0
  9 22  1  0  0  0  0
 11 12  1  0  0  0  0
 11 13  1  0  0  0  0
 11 14  1  0  0  0  0
 14 15  1  0  0  0  0
 14 16  1  0  0  0  0
 14 17  1  0  0  0  0
 17 18  2  0  0  0  0
 17 19  1  0  0  0  0
 19 20  1  0  0  0  0
 19 21  1  0  0  0  0
 22 23  2  0  0  0  0
 22 24  1  0  0  0  0
 24 25  1  0  0  0  0
 24 26  1  0  0  0  0
 26 27  1  0  0  0  0
 26 28  1  0  0  0  0
 26 29  1  0  0  0  0
M  END
$$$$

  -OEChem-02102214123D

 29 28  0     1  0  0  0  0  0999 V2000
   -2.7779   -4.3490    0.7333 H   0  0  0  0  0  0  0  0  0  0  0  0
   -2.8537   -3.3760    0.2393 C   0  0  0  0  0  0  0  0  0  0  0  0
   -3.5678   -2.7580    0.7887 H   0  0  0  0  0  0  0  0  0  0  0  0
   -3.2193   -3.5273   -0.7792 H   0  0  0  0  0  0  0  0  0  0  0  0
   -1.4959   -2.6997    0.2091 C   0  0  0  0  0  0  0  0  0  0  0  0
   -0.5280   -3.2569    0.6939 O   0  0  0  0  0  0  0  0  0  0  0  0
   -1.3637   -1.4485   -0.3610 N   0  0  0  0  0  0  0  0  0  0  0  0
   -2.1979   -1.0359   -0.7679 H   0  0  0  0  0  0  0  0  0  0  0  0
   -0.0882   -0.7115   -0.4652 C   0  0  1  0  0  0  0  0  0  0  0  0
    0.6002   -1.3679   -1.0095 H   0  0  0  0  0  0  0  0  0  0  0  0
   -0.2304    0.5812   -1.2980 C   0  0  0  0  0  0  0  0  0  0  0  0
   -0.4751    1.4225   -0.6395 H   0  0  0  0  0  0  0  0  0  0  0  0
    0.7500    0.7986   -1.7376 H   0  0  0  0  0  0  0  0  0  0  0  0
   -1.3050    0.5144   -2.4035 C   0  0  0  0  0  0  0  0  0  0  0  0
   -1.3898   -0.5049   -2.7906 H   0  0  0  0  0  0  0  0  0  0  0  0
   -2.2797    0.8087   -2.0034 H   0  0  0  0  0  0  0  0  0  0  0  0
   -0.9396    1.4080   -3.5814 C   0  0  0  0  0  0  0  0  0  0  0  0
   -1.4535    2.4989   -3.7284 O   0  0  0  0  0  0  0  0  0  0  0  0
   -0.0211    1.0345   -4.5209 N   0  0  0  0  0  0  0  0  0  0  0  0
    0.2758    1.7593   -5.1687 H   0  0  0  0  0  0  0  0  0  0  0  0
    0.5750    0.2332   -4.3411 H   0  0  0  0  0  0  0  0  0  0  0  0
    0.5995   -0.3991    0.8814 C   0  0  0  0  0  0  0  0  0  0  0  0
    1.8199   -0.3263    0.9275 O   0  0  0  0  0  0  0  0  0  0  0  0
   -0.1449    0.0847    1.9421 N   0  0  0  0  0  0  0  0  0  0  0  0
   -1.1485   -0.0545    1.8904 H   0  0  0  0  0  0  0  0  0  0  0  0
    0.4477    0.4488    3.2230 C   0  0  0  0  0  0  0  0  0  0  0  0
    1.1859    1.2469    3.0913 H   0  0  0  0  0  0  0  0  0  0  0  0
   -0.3254    0.8058    3.9100 H   0  0  0  0  0  0  0  0  0  0  0  0
    0.9418   -0.4176    3.6754 H   0  0  0  0  0  0  0  0  0  0  0  0
  1  2  1  0  0  0  0
  2  3  1  0  0  0  0
  2  4  1  0  0  0  0
  2  5  1  0  0  0  0
  5  6  2  0  0  0  0
  5  7  1  0  0  0  0
  7  8  1  0  0  0  0
  7  9  1  0  0  0  0
  9 10  1  0  0  0  0
  9 11  1  0  0  0  0
  9 22  1  0  0  0  0
 11 12  1  0  0  0  0
 11 13  1  0  0  0  0
 11 14  1  0  0  0  0
 14 15  1  0  0  0  0
 14 16  1  0  0  0  0
 14 17  1  0  0  0  0
 17 18  2  0  0  0  0
 17 19  1  0  0  0  0
 19 20  1  0  0  0  0
 19 21  1  0  0  0  0
 22 23  2  0  0  0  0
 22 24  1  0  0  0  0
 24 25  1  0  0  0  0
 24 26  1  0  0  0  0
 26 27  1  0  0  0  0
 26 28  1  0  0  0  0
 26 29  1  0  0  0  0
M  END
$$$$

  -OEChem-02102214123D

 29 28  0     1  0  0  0  0  0999 V2000
   -2.8464   -4.3187    0.6812 H   0  0  0  0  0  0  0  0  0  0  0  0
   -2.9093   -3.3370    0.2028 C   0  0  0  0  0  0  0  0  0  0  0  0
   -3.6080   -2.7156    0.7679 H   0  0  0  0  0  0  0  0  0  0  0  0
   -3.2862   -3.4658   -0.8146 H   0  0  0  0  0  0  0  0  0  0  0  0
   -1.5401   -2.6844    0.1706 C   0  0  0  0  0  0  0  0  0  0  0  0
   -0.5771   -3.2664    0.6355 O   0  0  0  0  0  0  0  0  0  0  0  0
   -1.3905   -1.4264   -0.3804 N   0  0  0  0  0  0  0  0  0  0  0  0
   -2.2226   -0.9888   -0.7652 H   0  0  0  0  0  0  0  0  0  0  0  0
   -0.1044   -0.7074   -0.4779 C   0  0  1  0  0  0  0  0  0  0  0  0
    0.5705   -1.3710   -1.0304 H   0  0  0  0  0  0  0  0  0  0  0  0
   -0.2146    0.5990   -1.2967 C   0  0  0  0  0  0  0  0  0  0  0  0
   -0.4489    1.4295   -0.6212 H   0  0  0  0  0  0  0  0  0  0  0  0
    0.7766    0.8107   -1.7148 H   0  0  0  0  0  0  0  0  0  0  0  0
   -1.2815    0.5934   -2.4176 C   0  0  0  0  0  0  0  0  0  0  0  0
   -1.5972   -0.4238   -2.6604 H   0  0  0  0  0  0  0  0  0  0  0  0
   -2.1653    1.1531   -2.0969 H   0  0  0  0  0  0  0  0  0  0  0  0
   -0.7353    1.1877   -3.7095 C   0  0  0  0  0  0  0  0  0  0  0  0
   -1.1210    2.2622   -4.1243 O   0  0  0  0  0  0  0  0  0  0  0  0
    0.1893    0.5356   -4.4747 N   0  0  0  0  0  0  0  0  0  0  0  0
    0.6034    1.0748   -5.2301 H   0  0  0  0  0  0  0  0  0  0  0  0
    0.6848   -0.2584   -4.0826 H   0  0  0  0  0  0  0  0  0  0  0  0
    0.5937   -0.4260    0.8704 C   0  0  0  0  0  0  0  0  0  0  0  0
    1.8151   -0.3677    0.9092 O   0  0  0  0  0  0  0  0  0  0  0  0
   -0.1373    0.0530    1.9426 N   0  0  0  0  0  0  0  0  0  0  0  0
   -1.1430   -0.0731    1.8974 H   0  0  0  0  0  0  0  0  0  0  0  0
    0.4703    0.3987    3.2218 C   0  0  0  0  0  0  0  0  0  0  0  0
    1.2233    1.1829    3.0896 H   0  0  0  0  0  0  0  0  0  0  0  0
   -0.2912    0.7676    3.9155 H   0  0  0  0  0  0  0  0  0  0  0  0
    0.9501   -0.4795    3.6664 H   0  0  0  0  0  0  0  0  0  0  0  0
  1  2  1  0  0  0  0
  2  3  1  0  0  0  0
  2  4  1  0  0  0  0
  2  5  1  0  0  0  0
  5  6  2  0  0  0  0
  5  7  1  0  0  0  0
  7  8  1  0  0  0  0
  7  9  1  0  0  0  0
  9 10  1  0  0  0  0
  9 11  1  0  0  0  0
  9 22  1  0  0  0  0
 11 12  1  0  0  0  0
 11 13  1  0  0  0  0
 11 14  1  0  0  0  0
 14 15  1  0  0  0  0
 14 16  1  0  0  0  0
 14 17  1  0  0  0  0
 17 18  2  0  0  0  0
 17 19  1  0  0  0  0
 19 20  1  0  0  0  0
 19 21  1  0  0  0  0
 22 23  2  0  0  0  0
 22 24  1  0  0  0  0
 24 25  1  0  0  0  0
 24 26  1  0  0  0  0
 26 27  1  0  0  0  0
 26 28  1  0  0  0  0
 26 29  1  0  0  0  0
M  END
$$$$

  -OEChem-02102214123D

 29 28  0     1  0  0  0  0  0999 V2000
   -2.9100   -4.2776    0.6325 H   0  0  0  0  0  0  0  0  0  0  0  0
   -2.9588   -3.2867    0.1717 C   0  0  0  0  0  0  0  0  0  0  0  0
   -3.6345   -2.6600    0.7585 H   0  0  0  0  0  0  0  0  0  0  0  0
   -3.3548   -3.3901   -0.8415 H   0  0  0  0  0  0  0  0  0  0  0  0
   -1.5764   -2.6634    0.1290 C   0  0  0  0  0  0  0  0  0  0  0  0
   -0.6197   -3.2719    0.5721 O   0  0  0  0  0  0  0  0  0  0  0  0
   -1.4073   -1.4005   -0.4049 N   0  0  0  0  0  0  0  0  0  0  0  0
   -2.2373   -0.9337   -0.7584 H   0  0  0  0  0  0  0  0  0  0  0  0
   -0.1109   -0.6996   -0.4898 C   0  0  1  0  0  0  0  0  0  0  0  0
    0.5554   -1.3718   -1.0423 H   0  0  0  0  0  0  0  0  0  0  0  0
   -0.1773    0.6165   -1.3013 C   0  0  0  0  0  0  0  0  0  0  0  0
   -0.4190    1.4314   -0.6094 H   0  0  0  0  0  0  0  0  0  0  0  0
    0.8260    0.8331   -1.6875 H   0  0  0  0  0  0  0  0  0  0  0  0
   -1.2223    0.6713   -2.4450 C   0  0  0  0  0  0  0  0  0  0  0  0
   -1.7963   -0.2516   -2.5344 H   0  0  0  0  0  0  0  0  0  0  0  0
   -1.9309    1.4822   -2.2506 H   0  0  0  0  0  0  0  0  0  0  0  0
   -0.5562    0.9120   -3.7942 C   0  0  0  0  0  0  0  0  0  0  0  0
   -0.7553    1.9288   -4.4285 O   0  0  0  0  0  0  0  0  0  0  0  0
    0.2656   -0.0144   -4.3705 N   0  0  0  0  0  0  0  0  0  0  0  0
    0.7831    0.2973   -5.1876 H   0  0  0  0  0  0  0  0  0  0  0  0
    0.6173   -0.7809   -3.8061 H   0  0  0  0  0  0  0  0  0  0  0  0
    0.5833   -0.4490    0.8668 C   0  0  0  0  0  0  0  0  0  0  0  0
    1.8051   -0.4092    0.9135 O   0  0  0  0  0  0  0  0  0  0  0  0
   -0.1462    0.0245    1.9424 N   0  0  0  0  0  0  0  0  0  0  0  0
   -1.1531   -0.0876    1.8912 H   0  0  0  0  0  0  0  0  0  0  0  0
    0.4600    0.3404    3.2299 C   0  0  0  0  0  0  0  0  0  0  0  0
    1.1920    1.1477    3.1210 H   0  0  0  0  0  0  0  0  0  0  0  0
   -0.3066    0.6642    3.9402 H   0  0  0  0  0  0  0  0  0  0  0  0
    0.9652   -0.5399    3.6414 H   0  0  0  0  0  0  0  0  0  0  0  0
  1  2  1  0  0  0  0
  2  3  1  0  0  0  0
  2  4  1  0  0  0  0
  2  5  1  0  0  0  0
  5  6  2  0  0  0  0
  5  7  1  0  0  0  0
  7  8  1  0  0  0  0
  7  9  1  0  0  0  0
  9 10  1  0  0  0  0
  9 11  1  0  0  0  0
  9 22  1  0  0  0  0
 11 12  1  0  0  0  0
 11 13  1  0  0  0  0
 11 14  1  0  0  0  0
 14 15  1  0  0  0  0
 14 16  1  0  0  0  0
 14 17  1  0  0  0  0
 17 18  2  0  0  0  0
 17 19  1  0  0  0  0
 19 20  1  0  0  0  0
 19 21  1  0  0  0  0
 22 23  2  0  0  0  0
 22 24  1  0  0  0  0
 24 25  1  0  0  0  0
 24 26  1  0  0  0  0
 26 27  1  0  0  0  0
 26 28  1  0  0  0  0
 26 29  1  0  0  0  0
M  END
$$$$

  -OEChem-02102214123D

 29 28  0     1  0  0  0  0  0999 V2000
   -2.4744   -4.5595    1.0284 H   0  0  0  0  0  0  0  0  0  0  0  0
   -2.5666   -3.7051    0.3518 C   0  0  0  0  0  0  0  0  0  0  0  0
   -3.4744   -3.1525    0.6052 H   0  0  0  0  0  0  0  0  0  0  0  0
   -2.6465   -4.0758   -0.6731 H   0  0  0  0  0  0  0  0  0  0  0  0
   -1.3536   -2.8032    0.4811 C   0  0  0  0  0  0  0  0  0  0  0  0
   -0.4440   -3.1136    1.2292 O   0  0  0  0  0  0  0  0  0  0  0  0
   -1.3005   -1.6253   -0.2394 N   0  0  0  0  0  0  0  0  0  0  0  0
   -2.0386   -1.5024   -0.9249 H   0  0  0  0  0  0  0  0  0  0  0  0
   -0.0756   -0.8153   -0.3986 C   0  0  1  0  0  0  0  0  0  0  0  0
    0.6741   -1.4849   -0.8360 H   0  0  0  0  0  0  0  0  0  0  0  0
   -0.2355    0.3755   -1.3773 C   0  0  0  0  0  0  0  0  0  0  0  0
   -0.5806    1.2346   -0.7914 H   0  0  0  0  0  0  0  0  0  0  0  0
    0.7550    0.6433   -1.7641 H   0  0  0  0  0  0  0  0  0  0  0  0
   -1.2436    0.2046   -2.5420 C   0  0  0  0  0  0  0  0  0  0  0  0
   -1.9624   -0.5978   -2.3755 H   0  0  0  0  0  0  0  0  0  0  0  0
   -1.8219    1.1274   -2.6415 H   0  0  0  0  0  0  0  0  0  0  0  0
   -0.5356   -0.0370   -3.8688 C   0  0  0  0  0  0  0  0  0  0  0  0
   -0.6340   -1.1020   -4.4454 O   0  0  0  0  0  0  0  0  0  0  0  0
    0.1919    0.9334   -4.4974 N   0  0  0  0  0  0  0  0  0  0  0  0
    0.5212    0.7276   -5.4365 H   0  0  0  0  0  0  0  0  0  0  0  0
    0.1937    1.8824   -4.1397 H   0  0  0  0  0  0  0  0  0  0  0  0
    0.5325   -0.2969    0.9247 C   0  0  0  0  0  0  0  0  0  0  0  0
    1.7372   -0.0903    0.9902 O   0  0  0  0  0  0  0  0  0  0  0  0
   -0.2937    0.2505    1.8897 N   0  0  0  0  0  0  0  0  0  0  0  0
   -1.2656   -0.0394    1.8470 H   0  0  0  0  0  0  0  0  0  0  0  0
    0.2176    0.7787    3.1484 C   0  0  0  0  0  0  0  0  0  0  0  0
    0.9268    1.5925    2.9638 H   0  0  0  0  0  0  0  0  0  0  0  0
   -0.6039    1.1703    3.7555 H   0  0  0  0  0  0  0  0  0  0  0  0
    0.7250   -0.0092    3.7152 H   0  0  0  0  0  0  0  0  0  0  0  0
  1  2  1  0  0  0  0
  2  3  1  0  0  0  0
  2  4  1  0  0  0  0
  2  5  1  0  0  0  0
  5  6  2  0  0  0  0
  5  7  1  0  0  0  0
  7  8  1  0  0  0  0
  7  9  1  0  0  0  0
  9 10  1  0  0  0  0
  9 11  1  0  0  0  0
  9 22  1  0  0  0  0
 11 12  1  0  0  0  0
 11 13  1  0  0  0  0
 11 14  1  0  0  0  0
 14 15  1  0  0  0  0
 14 16  1  0  0  0  0
 14 17  1  0  0  0  0
 17 18  2  0  0  0  0
 17 19  1  0  0  0  0
 19 20  1  0  0  0  0
 19 21  1  0  0  0  0
 22 23  2  0  0  0  0
 22 24  1  0  0  0  0
 24 25  1  0  0  0  0
 24 26  1  0  0  0  0
 26 27  1  0  0  0  0
 26 28  1  0  0  0  0
 26 29  1  0  0  0  0
M  END
$$$$

  -OEChem-02102214123D

 29 28  0     1  0  0  0  0  0999 V2000
   -2.4993   -4.5489    0.9746 H   0  0  0  0  0  0  0  0  0  0  0  0
   -2.5866   -3.6923    0.3002 C   0  0  0  0  0  0  0  0  0  0  0  0
   -3.5108   -3.1568    0.5299 H   0  0  0  0  0  0  0  0  0  0  0  0
   -2.6308   -4.0583   -0.7287 H   0  0  0  0  0  0  0  0  0  0  0  0
   -1.3932   -2.7712    0.4696 C   0  0  0  0  0  0  0  0  0  0  0  0
   -0.4956   -3.0780    1.2338 O   0  0  0  0  0  0  0  0  0  0  0  0
   -1.3452   -1.5813   -0.2316 N   0  0  0  0  0  0  0  0  0  0  0  0
   -2.0517   -1.4936   -0.9558 H   0  0  0  0  0  0  0  0  0  0  0  0
   -0.1079   -0.7937   -0.4065 C   0  0  1  0  0  0  0  0  0  0  0  0
    0.6150   -1.4670   -0.8816 H   0  0  0  0  0  0  0  0  0  0  0  0
   -0.2755    0.4253   -1.3480 C   0  0  0  0  0  0  0  0  0  0  0  0
   -0.5910    1.2743   -0.7311 H   0  0  0  0  0  0  0  0  0  0  0  0
    0.7023    0.6898   -1.7666 H   0  0  0  0  0  0  0  0  0  0  0  0
   -1.3262    0.2880   -2.4726 C   0  0  0  0  0  0  0  0  0  0  0  0
   -2.2023   -0.2893   -2.1746 H   0  0  0  0  0  0  0  0  0  0  0  0
   -1.6904    1.2878   -2.7248 H   0  0  0  0  0  0  0  0  0  0  0  0
   -0.7163   -0.2979   -3.7370 C   0  0  0  0  0  0  0  0  0  0  0  0
   -0.9372   -1.4509   -4.0510 O   0  0  0  0  0  0  0  0  0  0  0  0
    0.0923    0.4247   -4.5674 N   0  0  0  0  0  0  0  0  0  0  0  0
    0.5800   -0.1031   -5.2863 H   0  0  0  0  0  0  0  0  0  0  0  0
    0.4612    1.3143   -4.2485 H   0  0  0  0  0  0  0  0  0  0  0  0
    0.5493   -0.3119    0.9066 C   0  0  0  0  0  0  0  0  0  0  0  0
    1.7586   -0.1235    0.9336 O   0  0  0  0  0  0  0  0  0  0  0  0
   -0.2369    0.2350    1.9043 N   0  0  0  0  0  0  0  0  0  0  0  0
   -1.2109   -0.0518    1.8940 H   0  0  0  0  0  0  0  0  0  0  0  0
    0.3234    0.7378    3.1522 C   0  0  0  0  0  0  0  0  0  0  0  0
    1.0330    1.5486    2.9565 H   0  0  0  0  0  0  0  0  0  0  0  0
   -0.4724    1.1262    3.7948 H   0  0  0  0  0  0  0  0  0  0  0  0
    0.8435   -0.0639    3.6872 H   0  0  0  0  0  0  0  0  0  0  0  0
  1  2  1  0  0  0  0
  2  3  1  0  0  0  0
  2  4  1  0  0  0  0
  2  5  1  0  0  0  0
  5  6  2  0  0  0  0
  5  7  1  0  0  0  0
  7  8  1  0  0  0  0
  7  9  1  0  0  0  0
  9 10  1  0  0  0  0
  9 11  1  0  0  0  0
  9 22  1  0  0  0  0
 11 12  1  0  0  0  0
 11 13  1  0  0  0  0
 11 14  1  0  0  0  0
 14 15  1  0  0  0  0
 14 16  1  0  0  0  0
 14 17  1  0  0  0  0
 17 18  2  0  0  0  0
 17 19  1  0  0  0  0
 19 20  1  0  0  0  0
 19 21  1  0  0  0  0
 22 23  2  0  0  0  0
 22 24  1  0  0  0  0
 24 25  1  0  0  0  0
 24 26  1  0  0  0  0
 26 27  1  0  0  0  0
 26 28  1  0  0  0  0
 26 29  1  0  0  0  0
M  END
$$$$

  -OEChem-02102214123D

 29 28  0     1  0  0  0  0  0999 V2000
   -2.5186   -4.5494    0.8321 H   0  0  0  0  0  0  0  0  0  0  0  0
   -2.6047   -3.6599    0.2016 C   0  0  0  0  0  0  0  0  0  0  0  0
   -3.5447   -3.1536    0.4331 H   0  0  0  0  0  0  0  0  0  0  0  0
   -2.6143   -3.9710   -0.8463 H   0  0  0  0  0  0  0  0  0  0  0  0
   -1.4350   -2.7269    0.4510 C   0  0  0  0  0  0  0  0  0  0  0  0
   -0.5722   -3.0373    1.2536 O   0  0  0  0  0  0  0  0  0  0  0  0
   -1.3687   -1.5262   -0.2292 N   0  0  0  0  0  0  0  0  0  0  0  0
   -2.0254   -1.4672   -1.0038 H   0  0  0  0  0  0  0  0  0  0  0  0
   -0.1121   -0.7681   -0.3924 C   0  0  1  0  0  0  0  0  0  0  0  0
    0.5915   -1.4457   -0.8893 H   0  0  0  0  0  0  0  0  0  0  0  0
   -0.2754    0.4748   -1.3023 C   0  0  0  0  0  0  0  0  0  0  0  0
   -0.5585    1.3245   -0.6711 H   0  0  0  0  0  0  0  0  0  0  0  0
    0.6956    0.7193   -1.7477 H   0  0  0  0  0  0  0  0  0  0  0  0
   -1.3515    0.3537   -2.4000 C   0  0  0  0  0  0  0  0  0  0  0  0
   -2.3075    0.0044   -2.0038 H   0  0  0  0  0  0  0  0  0  0  0  0
   -1.5358    1.3483   -2.8159 H   0  0  0  0  0  0  0  0  0  0  0  0
   -0.8896   -0.5419   -3.5380 C   0  0  0  0  0  0  0  0  0  0  0  0
   -1.2566   -1.7005   -3.5845 O   0  0  0  0  0  0  0  0  0  0  0  0
   -0.0454   -0.1137   -4.5221 N   0  0  0  0  0  0  0  0  0  0  0  0
    0.3407   -0.8348   -5.1256 H   0  0  0  0  0  0  0  0  0  0  0  0
    0.4401    0.7698   -4.4079 H   0  0  0  0  0  0  0  0  0  0  0  0
    0.5683   -0.3247    0.9226 C   0  0  0  0  0  0  0  0  0  0  0  0
    1.7832   -0.1730    0.9419 O   0  0  0  0  0  0  0  0  0  0  0  0
   -0.1927    0.2268    1.9371 N   0  0  0  0  0  0  0  0  0  0  0  0
   -1.1749   -0.0317    1.9302 H   0  0  0  0  0  0  0  0  0  0  0  0
    0.3928    0.6880    3.1897 C   0  0  0  0  0  0  0  0  0  0  0  0
    1.1160    1.4890    3.0041 H   0  0  0  0  0  0  0  0  0  0  0  0
   -0.3875    1.0762    3.8512 H   0  0  0  0  0  0  0  0  0  0  0  0
    0.9031   -0.1362    3.6994 H   0  0  0  0  0  0  0  0  0  0  0  0
  1  2  1  0  0  0  0
  2  3  1  0  0  0  0
  2  4  1  0  0  0  0
  2  5  1  0  0  0  0
  5  6  2  0  0  0  0
  5  7  1  0  0  0  0
  7  8  1  0  0  0  0
  7  9  1  0  0  0  0
  9 10  1  0  0  0  0
  9 11  1  0  0  0  0
  9 22  1  0  0  0  0
 11 12  1  0  0  0  0
 11 13  1  0  0  0  0
 11 14  1  0  0  0  0
 14 15  1  0  0  0  0
 14 16  1  0  0  0  0
 14 17  1  0  0  0  0
 17 18  2  0  0  0  0
 17 19  1  0  0  0  0
 19 20  1  0  0  0  0
 19 21  1  0  0  0  0
 22 23  2  0  0  0  0
 22 24  1  0  0  0  0
 24 25  1  0  0  0  0
 24 26  1  0  0  0  0
 26 27  1  0  0  0  0
 26 28  1  0  0  0  0
 26 29  1  0  0  0  0
M  END
$$$$

  -OEChem-02102214123D

 29 28  0     1  0  0  0  0  0999 V2000
   -2.4952   -4.5641    0.6968 H   0  0  0  0  0  0  0  0  0  0  0  0
   -2.6114   -3.6307    0.1389 C   0  0  0  0  0  0  0  0  0  0  0  0
   -3.5480   -3.1543    0.4376 H   0  0  0  0  0  0  0  0  0  0  0  0
   -2.6528   -3.8621   -0.9287 H   0  0  0  0  0  0  0  0  0  0  0  0
   -1.4445   -2.7037    0.4201 C   0  0  0  0  0  0  0  0  0  0  0  0
   -0.5886   -3.0304    1.2240 O   0  0  0  0  0  0  0  0  0  0  0  0
   -1.3719   -1.4910   -0.2368 N   0  0  0  0  0  0  0  0  0  0  0  0
   -2.0137   -1.4357   -1.0275 H   0  0  0  0  0  0  0  0  0  0  0  0
   -0.1086   -0.7411   -0.3915 C   0  0  1  0  0  0  0  0  0  0  0  0
    0.5884   -1.4102   -0.9087 H   0  0  0  0  0  0  0  0  0  0  0  0
   -0.2834    0.5234   -1.2687 C   0  0  0  0  0  0  0  0  0  0  0  0
   -0.5408    1.3687   -0.6210 H   0  0  0  0  0  0  0  0  0  0  0  0
    0.6799    0.7590   -1.7343 H   0  0  0  0  0  0  0  0  0  0  0  0
   -1.3758    0.4282   -2.3519 C   0  0  0  0  0  0  0  0  0  0  0  0
   -2.3596    0.2957   -1.8930 H   0  0  0  0  0  0  0  0  0  0  0  0
   -1.4093    1.3701   -2.9063 H   0  0  0  0  0  0  0  0  0  0  0  0
   -1.1177   -0.7001   -3.3396 C   0  0  0  0  0  0  0  0  0  0  0  0
   -1.7118   -1.7565   -3.2231 O   0  0  0  0  0  0  0  0  0  0  0  0
   -0.2074   -0.6031   -4.3524 N   0  0  0  0  0  0  0  0  0  0  0  0
    0.0195   -1.4668   -4.8382 H   0  0  0  0  0  0  0  0  0  0  0  0
    0.4452    0.1739   -4.3597 H   0  0  0  0  0  0  0  0  0  0  0  0
    0.5825   -0.3299    0.9278 C   0  0  0  0  0  0  0  0  0  0  0  0
    1.7988   -0.1895    0.9426 O   0  0  0  0  0  0  0  0  0  0  0  0
   -0.1698    0.2082    1.9555 N   0  0  0  0  0  0  0  0  0  0  0  0
   -1.1523   -0.0494    1.9500 H   0  0  0  0  0  0  0  0  0  0  0  0
    0.4249    0.6405    3.2137 C   0  0  0  0  0  0  0  0  0  0  0  0
    1.1276    1.4630    3.0436 H   0  0  0  0  0  0  0  0  0  0  0  0
   -0.3533    0.9884    3.8996 H   0  0  0  0  0  0  0  0  0  0  0  0
    0.9607   -0.1886    3.6879 H   0  0  0  0  0  0  0  0  0  0  0  0
  1  2  1  0  0  0  0
  2  3  1  0  0  0  0
  2  4  1  0  0  0  0
  2  5  1  0  0  0  0
  5  6  2  0  0  0  0
  5  7  1  0  0  0  0
  7  8  1  0  0  0  0
  7  9  1  0  0  0  0
  9 10  1  0  0  0  0
  9 11  1  0  0  0  0
  9 22  1  0  0  0  0
 11 12  1  0  0  0  0
 11 13  1  0  0  0  0
 11 14  1  0  0  0  0
 14 15  1  0  0  0  0
 14 16  1  0  0  0  0
 14 17  1  0  0  0  0
 17 18  2  0  0  0  0
 17 19  1  0  0  0  0
 19 20  1  0  0  0  0
 19 21  1  0  0  0  0
 22 23  2  0  0  0  0
 22 24  1  0  0  0  0
 24 25  1  0  0  0  0
 24 26  1  0  0  0  0
 26 27  1  0  0  0  0
 26 28  1  0  0  0  0
 26 29  1  0  0  0  0
M  END
$$$$

  -OEChem-02102214123D

 29 28  0     1  0  0  0  0  0999 V2000
   -2.7390   -4.3656    0.5237 H   0  0  0  0  0  0  0  0  0  0  0  0
   -2.6722   -3.4594   -0.0852 C   0  0  0  0  0  0  0  0  0  0  0  0
   -3.5856   -2.8757    0.0510 H   0  0  0  0  0  0  0  0  0  0  0  0
   -2.5832   -3.7488   -1.1353 H   0  0  0  0  0  0  0  0  0  0  0  0
   -1.4639   -2.6408    0.3285 C   0  0  0  0  0  0  0  0  0  0  0  0
   -0.7549   -3.0299    1.2389 O   0  0  0  0  0  0  0  0  0  0  0  0
   -1.2022   -1.4466   -0.3156 N   0  0  0  0  0  0  0  0  0  0  0  0
   -1.7659   -1.2884   -1.1438 H   0  0  0  0  0  0  0  0  0  0  0  0
    0.1161   -0.7778   -0.2706 C   0  0  1  0  0  0  0  0  0  0  0  0
    0.8458   -1.4972   -0.6610 H   0  0  0  0  0  0  0  0  0  0  0  0
    0.1693    0.4788   -1.1766 C   0  0  0  0  0  0  0  0  0  0  0  0
   -0.1032    1.3592   -0.5846 H   0  0  0  0  0  0  0  0  0  0  0  0
    1.2127    0.6132   -1.4842 H   0  0  0  0  0  0  0  0  0  0  0  0
   -0.7197    0.4780   -2.4427 C   0  0  0  0  0  0  0  0  0  0  0  0
   -1.7525    0.6665   -2.1375 H   0  0  0  0  0  0  0  0  0  0  0  0
   -0.4149    1.3047   -3.0902 H   0  0  0  0  0  0  0  0  0  0  0  0
   -0.6922   -0.8101   -3.2636 C   0  0  0  0  0  0  0  0  0  0  0  0
    0.2684   -1.5503   -3.3121 O   0  0  0  0  0  0  0  0  0  0  0  0
   -1.8019   -1.2478   -3.9275 N   0  0  0  0  0  0  0  0  0  0  0  0
   -1.6337   -2.0187   -4.5693 H   0  0  0  0  0  0  0  0  0  0  0  0
   -2.5260   -0.5707   -4.1449 H   0  0  0  0  0  0  0  0  0  0  0  0
    0.6041   -0.3884    1.1439 C   0  0  0  0  0  0  0  0  0  0  0  0
    1.8048   -0.3340    1.3753 O   0  0  0  0  0  0  0  0  0  0  0  0
   -0.2742    0.2116    2.0286 N   0  0  0  0  0  0  0  0  0  0  0  0
   -1.2568    0.0252    1.8556 H   0  0  0  0  0  0  0  0  0  0  0  0
    0.1273    0.6239    3.3678 C   0  0  0  0  0  0  0  0  0  0  0  0
    0.9240    1.3735    3.3162 H   0  0  0  0  0  0  0  0  0  0  0  0
   -0.7225    1.0622    3.8993 H   0  0  0  0  0  0  0  0  0  0  0  0
    0.4896   -0.2368    3.9399 H   0  0  0  0  0  0  0  0  0  0  0  0
  1  2  1  0  0  0  0
  2  3  1  0  0  0  0
  2  4  1  0  0  0  0
  2  5  1  0  0  0  0
  5  6  2  0  0  0  0
  5  7  1  0  0  0  0
  7  8  1  0  0  0  0
  7  9  1  0  0  0  0
  9 10  1  0  0  0  0
  9 11  1  0  0  0  0
  9 22  1  0  0  0  0
 11 12  1  0  0  0  0
 11 13  1  0  0  0  0
 11 14  1  0  0  0  0
 14 15  1  0  0  0  0
 14 16  1  0  0  0  0
 14 17  1  0  0  0  0
 17 18  2  0  0  0  0
 17 19  1  0  0  0  0
 19 20  1  0  0  0  0
 19 21  1  0  0  0  0
 22 23  2  0  0  0  0
 22 24  1  0  0  0  0
 24 25  1  0  0  0  0
 24 26  1  0  0  0  0
 26 27  1  0  0  0  0
 26 28  1  0  0  0  0
 26 29  1  0  0  0  0
M  END
$$$$

  -OEChem-02102214123D

 29 28  0     1  0  0  0  0  0999 V2000
   -2.7444   -4.3722    0.5546 H   0  0  0  0  0  0  0  0  0  0  0  0
   -2.6556   -3.4895   -0.0850 C   0  0  0  0  0  0  0  0  0  0  0  0
   -3.5727   -2.9016   -0.0034 H   0  0  0  0  0  0  0  0  0  0  0  0
   -2.5295   -3.8168   -1.1200 H   0  0  0  0  0  0  0  0  0  0  0  0
   -1.4625   -2.6546    0.3399 C   0  0  0  0  0  0  0  0  0  0  0  0
   -0.7682   -3.0222    1.2706 O   0  0  0  0  0  0  0  0  0  0  0  0
   -1.1983   -1.4702   -0.3204 N   0  0  0  0  0  0  0  0  0  0  0  0
   -1.7473   -1.3402   -1.1646 H   0  0  0  0  0  0  0  0  0  0  0  0
    0.1162   -0.7942   -0.2693 C   0  0  1  0  0  0  0  0  0  0  0  0
    0.8491   -1.5255   -0.6309 H   0  0  0  0  0  0  0  0  0  0  0  0
    0.2110    0.4433   -1.2021 C   0  0  0  0  0  0  0  0  0  0  0  0
   -0.0552    1.3388   -0.6303 H   0  0  0  0  0  0  0  0  0  0  0  0
    1.2677    0.5477   -1.4738 H   0  0  0  0  0  0  0  0  0  0  0  0
   -0.6192    0.4715   -2.5113 C   0  0  0  0  0  0  0  0  0  0  0  0
   -1.5840    0.9339   -2.2856 H   0  0  0  0  0  0  0  0  0  0  0  0
   -0.1154    1.1128   -3.2402 H   0  0  0  0  0  0  0  0  0  0  0  0
   -0.8954   -0.8781   -3.1667 C   0  0  0  0  0  0  0  0  0  0  0  0
   -0.0267   -1.7015   -3.3645 O   0  0  0  0  0  0  0  0  0  0  0  0
   -2.1703   -1.2994   -3.4194 N   0  0  0  0  0  0  0  0  0  0  0  0
   -2.2238   -2.1416   -3.9881 H   0  0  0  0  0  0  0  0  0  0  0  0
   -2.8869   -0.5882   -3.5279 H   0  0  0  0  0  0  0  0  0  0  0  0
    0.5806   -0.3806    1.1463 C   0  0  0  0  0  0  0  0  0  0  0  0
    1.7779   -0.3152    1.3927 O   0  0  0  0  0  0  0  0  0  0  0  0
   -0.3131    0.2285    2.0090 N   0  0  0  0  0  0  0  0  0  0  0  0
   -1.2919    0.0326    1.8250 H   0  0  0  0  0  0  0  0  0  0  0  0
    0.0665    0.6550    3.3504 C   0  0  0  0  0  0  0  0  0  0  0  0
    0.8632    1.4049    3.3041 H   0  0  0  0  0  0  0  0  0  0  0  0
   -0.7924    1.0972    3.8640 H   0  0  0  0  0  0  0  0  0  0  0  0
    0.4207   -0.1996    3.9367 H   0  0  0  0  0  0  0  0  0  0  0  0
  1  2  1  0  0  0  0
  2  3  1  0  0  0  0
  2  4  1  0  0  0  0
  2  5  1  0  0  0  0
  5  6  2  0  0  0  0
  5  7  1  0  0  0  0
  7  8  1  0  0  0  0
  7  9  1  0  0  0  0
  9 10  1  0  0  0  0
  9 11  1  0  0  0  0
  9 22  1  0  0  0  0
 11 12  1  0  0  0  0
 11 13  1  0  0  0  0
 11 14  1  0  0  0  0
 14 15  1  0  0  0  0
 14 16  1  0  0  0  0
 14 17  1  0  0  0  0
 17 18  2  0  0  0  0
 17 19  1  0  0  0  0
 19 20  1  0  0  0  0
 19 21  1  0  0  0  0
 22 23  2  0  0  0  0
 22 24  1  0  0  0  0
 24 25  1  0  0  0  0
 24 26  1  0  0  0  0
 26 27  1  0  0  0  0
 26 28  1  0  0  0  0
 26 29  1  0  0  0  0
M  END
$$$$

  -OEChem-02102214123D

 29 28  0     1  0  0  0  0  0999 V2000
   -2.6634   -4.4570    0.6678 H   0  0  0  0  0  0  0  0  0  0  0  0
   -2.6032   -3.5849    0.0106 C   0  0  0  0  0  0  0  0  0  0  0  0
   -3.5428   -3.0311    0.0720 H   0  0  0  0  0  0  0  0  0  0  0  0
   -2.4551   -3.9283   -1.0163 H   0  0  0  0  0  0  0  0  0  0  0  0
   -1.4462   -2.6966    0.4268 C   0  0  0  0  0  0  0  0  0  0  0  0
   -0.7576   -3.0089    1.3820 O   0  0  0  0  0  0  0  0  0  0  0  0
   -1.2051   -1.5304   -0.2734 N   0  0  0  0  0  0  0  0  0  0  0  0
   -1.7446   -1.4585   -1.1311 H   0  0  0  0  0  0  0  0  0  0  0  0
    0.0992   -0.8341   -0.2487 C   0  0  1  0  0  0  0  0  0  0  0  0
    0.8359   -1.5758   -0.5794 H   0  0  0  0  0  0  0  0  0  0  0  0
    0.2182    0.3731   -1.2231 C   0  0  0  0  0  0  0  0  0  0  0  0
   -0.0548    1.2807   -0.6735 H   0  0  0  0  0  0  0  0  0  0  0  0
    1.2836    0.4673   -1.4629 H   0  0  0  0  0  0  0  0  0  0  0  0
   -0.5652    0.4154   -2.5657 C   0  0  0  0  0  0  0  0  0  0  0  0
   -1.3803    1.1352   -2.4514 H   0  0  0  0  0  0  0  0  0  0  0  0
    0.0967    0.8064   -3.3437 H   0  0  0  0  0  0  0  0  0  0  0  0
   -1.1743   -0.8816   -3.0832 C   0  0  0  0  0  0  0  0  0  0  0  0
   -0.5186   -1.8837   -3.2781 O   0  0  0  0  0  0  0  0  0  0  0  0
   -2.5271   -1.0510   -3.1691 N   0  0  0  0  0  0  0  0  0  0  0  0
   -2.8151   -1.8881   -3.6704 H   0  0  0  0  0  0  0  0  0  0  0  0
   -3.1021   -0.2164   -3.2347 H   0  0  0  0  0  0  0  0  0  0  0  0
    0.5569   -0.3704    1.1540 C   0  0  0  0  0  0  0  0  0  0  0  0
    1.7536   -0.2753    1.3949 O   0  0  0  0  0  0  0  0  0  0  0  0
   -0.3465    0.2507    1.9976 N   0  0  0  0  0  0  0  0  0  0  0  0
   -1.3208    0.0245    1.8240 H   0  0  0  0  0  0  0  0  0  0  0  0
    0.0268    0.7224    3.3252 C   0  0  0  0  0  0  0  0  0  0  0  0
    0.8106    1.4841    3.2561 H   0  0  0  0  0  0  0  0  0  0  0  0
   -0.8389    1.1649    3.8268 H   0  0  0  0  0  0  0  0  0  0  0  0
    0.3957   -0.1087    3.9356 H   0  0  0  0  0  0  0  0  0  0  0  0
  1  2  1  0  0  0  0
  2  3  1  0  0  0  0
  2  4  1  0  0  0  0
  2  5  1  0  0  0  0
  5  6  2  0  0  0  0
  5  7  1  0  0  0  0
  7  8  1  0  0  0  0
  7  9  1  0  0  0  0
  9 10  1  0  0  0  0
  9 11  1  0  0  0  0
  9 22  1  0  0  0  0
 11 12  1  0  0  0  0
 11 13  1  0  0  0  0
 11 14  1  0  0  0  0
 14 15  1  0  0  0  0
 14 16  1  0  0  0  0
 14 17  1  0  0  0  0
 17 18  2  0  0  0  0
 17 19  1  0  0  0  0
 19 20  1  0  0  0  0
 19 21  1  0  0  0  0
 22 23  2  0  0  0  0
 22 24  1  0  0  0  0
 24 25  1  0  0  0  0
 24 26  1  0  0  0  0
 26 27  1  0  0  0  0
 26 28  1  0  0  0  0
 26 29  1  0  0  0  0
M  END
$$$$

  -OEChem-02102214123D

 29 28  0     1  0  0  0  0  0999 V2000
   -2.5200   -4.5795    0.7875 H   0  0  0  0  0  0  0  0  0  0  0  0
   -2.5265   -3.6974    0.1412 C   0  0  0  0  0  0  0  0  0  0  0  0
   -3.4963   -3.2018    0.2281 H   0  0  0  0  0  0  0  0  0  0  0  0
   -2.3803   -4.0197   -0.8931 H   0  0  0  0  0  0  0  0  0  0  0  0
   -1.4181   -2.7441    0.5454 C   0  0  0  0  0  0  0  0  0  0  0  0
   -0.7409   -2.9864    1.5292 O   0  0  0  0  0  0  0  0  0  0  0  0
   -1.2093   -1.6020   -0.2029 N   0  0  0  0  0  0  0  0  0  0  0  0
   -1.6961   -1.6451   -1.0952 H   0  0  0  0  0  0  0  0  0  0  0  0
    0.0845   -0.8901   -0.2220 C   0  0  1  0  0  0  0  0  0  0  0  0
    0.8258   -1.6327   -0.5386 H   0  0  0  0  0  0  0  0  0  0  0  0
    0.1868    0.2971   -1.2273 C   0  0  0  0  0  0  0  0  0  0  0  0
   -0.1099    1.2000   -0.6818 H   0  0  0  0  0  0  0  0  0  0  0  0
    1.2511    0.4188   -1.4588 H   0  0  0  0  0  0  0  0  0  0  0  0
   -0.5958    0.3513   -2.5751 C   0  0  0  0  0  0  0  0  0  0  0  0
   -1.1888    1.2701   -2.5785 H   0  0  0  0  0  0  0  0  0  0  0  0
    0.1369    0.4496   -3.3814 H   0  0  0  0  0  0  0  0  0  0  0  0
   -1.5201   -0.7937   -2.9706 C   0  0  0  0  0  0  0  0  0  0  0  0
   -1.1510   -1.9484   -3.0506 O   0  0  0  0  0  0  0  0  0  0  0  0
   -2.8666   -0.6138   -3.1037 N   0  0  0  0  0  0  0  0  0  0  0  0
   -3.3690   -1.3898   -3.5270 H   0  0  0  0  0  0  0  0  0  0  0  0
   -3.2136    0.3321   -3.2285 H   0  0  0  0  0  0  0  0  0  0  0  0
    0.5522   -0.3718    1.1587 C   0  0  0  0  0  0  0  0  0  0  0  0
    1.7508   -0.2533    1.3794 O   0  0  0  0  0  0  0  0  0  0  0  0
   -0.3490    0.2669    1.9912 N   0  0  0  0  0  0  0  0  0  0  0  0
   -1.3217    0.0172    1.8401 H   0  0  0  0  0  0  0  0  0  0  0  0
    0.0336    0.7925    3.2956 C   0  0  0  0  0  0  0  0  0  0  0  0
    0.8114    1.5562    3.1895 H   0  0  0  0  0  0  0  0  0  0  0  0
   -0.8306    1.2486    3.7874 H   0  0  0  0  0  0  0  0  0  0  0  0
    0.4140   -0.0115    3.9346 H   0  0  0  0  0  0  0  0  0  0  0  0
  1  2  1  0  0  0  0
  2  3  1  0  0  0  0
  2  4  1  0  0  0  0
  2  5  1  0  0  0  0
  5  6  2  0  0  0  0
  5  7  1  0  0  0  0
  7  8  1  0  0  0  0
  7  9  1  0  0  0  0
  9 10  1  0  0  0  0
  9 11  1  0  0  0  0
  9 22  1  0  0  0  0
 11 12  1  0  0  0  0
 11 13  1  0  0  0  0
 11 14  1  0  0  0  0
 14 15  1  0  0  0  0
 14 16  1  0  0  0  0
 14 17  1  0  0  0  0
 17 18  2  0  0  0  0
 17 19  1  0  0  0  0
 19 20  1  0  0  0  0
 19 21  1  0  0  0  0
 22 23  2  0  0  0  0
 22 24  1  0  0  0  0
 24 25  1  0  0  0  0
 24 26  1  0  0  0  0
 26 27  1  0  0  0  0
 26 28  1  0  0  0  0
 26 29  1  0  0  0  0
M  END
$$$$

  -OEChem-02102214123D

 29 28  0     1  0  0  0  0  0999 V2000
   -2.4752   -4.6291    0.8237 H   0  0  0  0  0  0  0  0  0  0  0  0
   -2.5216   -3.7351    0.1956 C   0  0  0  0  0  0  0  0  0  0  0  0
   -3.4884   -3.2482    0.3424 H   0  0  0  0  0  0  0  0  0  0  0  0
   -2.4287   -4.0357   -0.8513 H   0  0  0  0  0  0  0  0  0  0  0  0
   -1.3999   -2.7817    0.5602 C   0  0  0  0  0  0  0  0  0  0  0  0
   -0.6936   -3.0199    1.5243 O   0  0  0  0  0  0  0  0  0  0  0  0
   -1.2095   -1.6442   -0.1999 N   0  0  0  0  0  0  0  0  0  0  0  0
   -1.7153   -1.6937   -1.0830 H   0  0  0  0  0  0  0  0  0  0  0  0
    0.0732   -0.9137   -0.2385 C   0  0  1  0  0  0  0  0  0  0  0  0
    0.8216   -1.6519   -0.5481 H   0  0  0  0  0  0  0  0  0  0  0  0
    0.1716    0.2668   -1.2545 C   0  0  0  0  0  0  0  0  0  0  0  0
   -0.1578    1.1595   -0.7109 H   0  0  0  0  0  0  0  0  0  0  0  0
    1.2347    0.4186   -1.4735 H   0  0  0  0  0  0  0  0  0  0  0  0
   -0.6052    0.3174   -2.6050 C   0  0  0  0  0  0  0  0  0  0  0  0
   -0.9557    1.3415   -2.7610 H   0  0  0  0  0  0  0  0  0  0  0  0
    0.1171    0.1111   -3.4006 H   0  0  0  0  0  0  0  0  0  0  0  0
   -1.7715   -0.6297   -2.8514 C   0  0  0  0  0  0  0  0  0  0  0  0
   -1.6310   -1.8275   -3.0065 O   0  0  0  0  0  0  0  0  0  0  0  0
   -3.0664   -0.2058   -2.7723 N   0  0  0  0  0  0  0  0  0  0  0  0
   -3.7655   -0.8618   -3.1104 H   0  0  0  0  0  0  0  0  0  0  0  0
   -3.2512    0.7914   -2.8168 H   0  0  0  0  0  0  0  0  0  0  0  0
    0.5392   -0.3774    1.1360 C   0  0  0  0  0  0  0  0  0  0  0  0
    1.7368   -0.2368    1.3498 O   0  0  0  0  0  0  0  0  0  0  0  0
   -0.3684    0.2537    1.9673 N   0  0  0  0  0  0  0  0  0  0  0  0
   -1.3382   -0.0096    1.8203 H   0  0  0  0  0  0  0  0  0  0  0  0
    0.0108    0.7954    3.2661 C   0  0  0  0  0  0  0  0  0  0  0  0
    0.7774    1.5689    3.1511 H   0  0  0  0  0  0  0  0  0  0  0  0
   -0.8584    1.2436    3.7569 H   0  0  0  0  0  0  0  0  0  0  0  0
    0.4047    0.0021    3.9103 H   0  0  0  0  0  0  0  0  0  0  0  0
  1  2  1  0  0  0  0
  2  3  1  0  0  0  0
  2  4  1  0  0  0  0
  2  5  1  0  0  0  0
  5  6  2  0  0  0  0
  5  7  1  0  0  0  0
  7  8  1  0  0  0  0
  7  9  1  0  0  0  0
  9 10  1  0  0  0  0
  9 11  1  0  0  0  0
  9 22  1  0  0  0  0
 11 12  1  0  0  0  0
 11 13  1  0  0  0  0
 11 14  1  0  0  0  0
 14 15  1  0  0  0  0
 14 16  1  0  0  0  0
 14 17  1  0  0  0  0
 17 18  2  0  0  0  0
 17 19  1  0  0  0  0
 19 20  1  0  0  0  0
 19 21  1  0  0  0  0
 22 23  2  0  0  0  0
 22 24  1  0  0  0  0
 24 25  1  0  0  0  0
 24 26  1  0  0  0  0
 26 27  1  0  0  0  0
 26 28  1  0  0  0  0
 26 29  1  0  0  0  0
M  END
$$$$

  -OEChem-02102214123D

 29 28  0     1  0  0  0  0  0999 V2000
   -2.1301   -4.7152    0.9849 H   0  0  0  0  0  0  0  0  0  0  0  0
   -2.2790   -3.8405    0.3456 C   0  0  0  0  0  0  0  0  0  0  0  0
   -3.2635   -3.4143    0.5520 H   0  0  0  0  0  0  0  0  0  0  0  0
   -2.2403   -4.1580   -0.6998 H   0  0  0  0  0  0  0  0  0  0  0  0
   -1.1998   -2.8082    0.6111 C   0  0  0  0  0  0  0  0  0  0  0  0
   -0.4091   -2.9782    1.5229 O   0  0  0  0  0  0  0  0  0  0  0  0
   -1.1384   -1.6792   -0.1820 N   0  0  0  0  0  0  0  0  0  0  0  0
   -1.7085   -1.7679   -1.0227 H   0  0  0  0  0  0  0  0  0  0  0  0
    0.0671   -0.8347   -0.2932 C   0  0  1  0  0  0  0  0  0  0  0  0
    0.8683   -1.5117   -0.6102 H   0  0  0  0  0  0  0  0  0  0  0  0
    0.0257    0.3145   -1.3478 C   0  0  0  0  0  0  0  0  0  0  0  0
   -0.3734    1.1894   -0.8226 H   0  0  0  0  0  0  0  0  0  0  0  0
    1.0608    0.5597   -1.6116 H   0  0  0  0  0  0  0  0  0  0  0  0
   -0.8000    0.2332   -2.6641 C   0  0  0  0  0  0  0  0  0  0  0  0
   -1.0289    1.2498   -2.9952 H   0  0  0  0  0  0  0  0  0  0  0  0
   -0.1494   -0.2069   -3.4259 H   0  0  0  0  0  0  0  0  0  0  0  0
   -2.0849   -0.5835   -2.6879 C   0  0  0  0  0  0  0  0  0  0  0  0
   -2.0976   -1.7892   -2.8516 O   0  0  0  0  0  0  0  0  0  0  0  0
   -3.2967   -0.0159   -2.4194 N   0  0  0  0  0  0  0  0  0  0  0  0
   -4.1103   -0.5904   -2.6224 H   0  0  0  0  0  0  0  0  0  0  0  0
   -3.3751    0.9960   -2.4452 H   0  0  0  0  0  0  0  0  0  0  0  0
    0.5315   -0.2194    1.0480 C   0  0  0  0  0  0  0  0  0  0  0  0
    1.7176    0.0389    1.2090 O   0  0  0  0  0  0  0  0  0  0  0  0
   -0.3993    0.3471    1.8999 N   0  0  0  0  0  0  0  0  0  0  0  0
   -1.3461   -0.0053    1.7961 H   0  0  0  0  0  0  0  0  0  0  0  0
   -0.0238    0.9583    3.1687 C   0  0  0  0  0  0  0  0  0  0  0  0
    0.6627    1.7954    3.0038 H   0  0  0  0  0  0  0  0  0  0  0  0
   -0.9116    1.3386    3.6829 H   0  0  0  0  0  0  0  0  0  0  0  0
    0.4660    0.2236    3.8165 H   0  0  0  0  0  0  0  0  0  0  0  0
  1  2  1  0  0  0  0
  2  3  1  0  0  0  0
  2  4  1  0  0  0  0
  2  5  1  0  0  0  0
  5  6  2  0  0  0  0
  5  7  1  0  0  0  0
  7  8  1  0  0  0  0
  7  9  1  0  0  0  0
  9 10  1  0  0  0  0
  9 11  1  0  0  0  0
  9 22  1  0  0  0  0
 11 12  1  0  0  0  0
 11 13  1  0  0  0  0
 11 14  1  0  0  0  0
 14 15  1  0  0  0  0
 14 16  1  0  0  0  0
 14 17  1  0  0  0  0
 17 18  2  0  0  0  0
 17 19  1  0  0  0  0
 19 20  1  0  0  0  0
 19 21  1  0  0  0  0
 22 23  2  0  0  0  0
 22 24  1  0  0  0  0
 24 25  1  0  0  0  0
 24 26  1  0  0  0  0
 26 27  1  0  0  0  0
 26 28  1  0  0  0  0
 26 29  1  0  0  0  0
M  END
$$$$

  -OEChem-02102214123D

 29 28  0     1  0  0  0  0  0999 V2000
   -2.2478   -4.5383    0.8383 H   0  0  0  0  0  0  0  0  0  0  0  0
   -2.4276   -3.5647    0.3740 C   0  0  0  0  0  0  0  0  0  0  0  0
   -3.0956   -2.9858    1.0165 H   0  0  0  0  0  0  0  0  0  0  0  0
   -2.9092   -3.7185   -0.5946 H   0  0  0  0  0  0  0  0  0  0  0  0
   -1.1171   -2.8244    0.1866 C   0  0  0  0  0  0  0  0  0  0  0  0
   -0.0643   -3.3578    0.4905 O   0  0  0  0  0  0  0  0  0  0  0  0
   -1.1291   -1.5441   -0.3268 N   0  0  0  0  0  0  0  0  0  0  0  0
   -2.0504   -1.1160   -0.4393 H   0  0  0  0  0  0  0  0  0  0  0  0
    0.0460   -0.6608   -0.3914 C   0  0  1  0  0  0  0  0  0  0  0  0
    0.8082   -1.2272   -0.9385 H   0  0  0  0  0  0  0  0  0  0  0  0
   -0.1502    0.6651   -1.1806 C   0  0  0  0  0  0  0  0  0  0  0  0
   -0.4999    1.4113   -0.4584 H   0  0  0  0  0  0  0  0  0  0  0  0
    0.8341    1.0007   -1.5254 H   0  0  0  0  0  0  0  0  0  0  0  0
   -1.1429    0.7425   -2.3733 C   0  0  0  0  0  0  0  0  0  0  0  0
   -1.2752    1.7926   -2.6481 H   0  0  0  0  0  0  0  0  0  0  0  0
   -0.6643    0.2436   -3.2204 H   0  0  0  0  0  0  0  0  0  0  0  0
   -2.5297    0.1247   -2.2155 C   0  0  0  0  0  0  0  0  0  0  0  0
   -3.1630    0.1917   -1.1758 O   0  0  0  0  0  0  0  0  0  0  0  0
   -3.1308   -0.5662   -3.2278 N   0  0  0  0  0  0  0  0  0  0  0  0
   -4.1155   -0.7832   -3.1019 H   0  0  0  0  0  0  0  0  0  0  0  0
   -2.7380   -0.5082   -4.1620 H   0  0  0  0  0  0  0  0  0  0  0  0
    0.6617   -0.3501    0.9900 C   0  0  0  0  0  0  0  0  0  0  0  0
    1.8652   -0.1515    1.0892 O   0  0  0  0  0  0  0  0  0  0  0  0
   -0.1639   -0.0184    2.0491 N   0  0  0  0  0  0  0  0  0  0  0  0
   -1.1577   -0.1863    1.9254 H   0  0  0  0  0  0  0  0  0  0  0  0
    0.3349    0.3584    3.3651 C   0  0  0  0  0  0  0  0  0  0  0  0
    0.9400    1.2686    3.2999 H   0  0  0  0  0  0  0  0  0  0  0  0
   -0.5007    0.5470    4.0459 H   0  0  0  0  0  0  0  0  0  0  0  0
    0.9499   -0.4447    3.7847 H   0  0  0  0  0  0  0  0  0  0  0  0
  1  2  1  0  0  0  0
  2  3  1  0  0  0  0
  2  4  1  0  0  0  0
  2  5  1  0  0  0  0
  5  6  2  0  0  0  0
  5  7  1  0  0  0  0
  7  8  1  0  0  0  0
  7  9  1  0  0  0  0
  9 10  1  0  0  0  0
  9 11  1  0  0  0  0
  9 22  1  0  0  0  0
 11 12  1  0  0  0  0
 11 13  1  0  0  0  0
 11 14  1  0  0  0  0
 14 15  1  0  0  0  0
 14 16  1  0  0  0  0
 14 17  1  0  0  0  0
 17 18  2  0  0  0  0
 17 19  1  0  0  0  0
 19 20  1  0  0  0  0
 19 21  1  0  0  0  0
 22 23  2  0  0  0  0
 22 24  1  0  0  0  0
 24 25  1  0  0  0  0
 24 26  1  0  0  0  0
 26 27  1  0  0  0  0
 26 28  1  0  0  0  0
 26 29  1  0  0  0  0
M  END
$$$$

  -OEChem-02102214123D

 29 28  0     1  0  0  0  0  0999 V2000
   -2.5694   -4.3821    0.8819 H   0  0  0  0  0  0  0  0  0  0  0  0
   -2.6431   -3.4240    0.3595 C   0  0  0  0  0  0  0  0  0  0  0  0
   -3.2967   -2.7602    0.9307 H   0  0  0  0  0  0  0  0  0  0  0  0
   -3.0800   -3.5926   -0.6278 H   0  0  0  0  0  0  0  0  0  0  0  0
   -1.2680   -2.8006    0.2151 C   0  0  0  0  0  0  0  0  0  0  0  0
   -0.2806   -3.4068    0.5926 O   0  0  0  0  0  0  0  0  0  0  0  0
   -1.1455   -1.5460   -0.3455 N   0  0  0  0  0  0  0  0  0  0  0  0
   -2.0202   -1.0401   -0.4971 H   0  0  0  0  0  0  0  0  0  0  0  0
    0.0958   -0.7549   -0.3308 C   0  0  1  0  0  0  0  0  0  0  0  0
    0.8609   -1.3903   -0.7915 H   0  0  0  0  0  0  0  0  0  0  0  0
    0.0446    0.5476   -1.1749 C   0  0  0  0  0  0  0  0  0  0  0  0
   -0.2919    1.3597   -0.5203 H   0  0  0  0  0  0  0  0  0  0  0  0
    1.0693    0.7902   -1.4765 H   0  0  0  0  0  0  0  0  0  0  0  0
   -0.8624    0.5854   -2.4313 C   0  0  0  0  0  0  0  0  0  0  0  0
   -0.7378    1.5568   -2.9174 H   0  0  0  0  0  0  0  0  0  0  0  0
   -0.5013   -0.1785   -3.1257 H   0  0  0  0  0  0  0  0  0  0  0  0
   -2.3604    0.3591   -2.2280 C   0  0  0  0  0  0  0  0  0  0  0  0
   -2.9149    0.4765   -1.1482 O   0  0  0  0  0  0  0  0  0  0  0  0
   -3.1698   -0.0070   -3.2639 N   0  0  0  0  0  0  0  0  0  0  0  0
   -4.1700    0.0450   -3.0921 H   0  0  0  0  0  0  0  0  0  0  0  0
   -2.8125    0.0585   -4.2119 H   0  0  0  0  0  0  0  0  0  0  0  0
    0.6086   -0.4303    1.0886 C   0  0  0  0  0  0  0  0  0  0  0  0
    1.8107   -0.3293    1.2950 O   0  0  0  0  0  0  0  0  0  0  0  0
   -0.2792    0.0076    2.0549 N   0  0  0  0  0  0  0  0  0  0  0  0
   -1.2685   -0.0502    1.8328 H   0  0  0  0  0  0  0  0  0  0  0  0
    0.1283    0.4156    3.3927 C   0  0  0  0  0  0  0  0  0  0  0  0
    0.8187    1.2641    3.3411 H   0  0  0  0  0  0  0  0  0  0  0  0
   -0.7451    0.7164    3.9791 H   0  0  0  0  0  0  0  0  0  0  0  0
    0.6244   -0.4128    3.9093 H   0  0  0  0  0  0  0  0  0  0  0  0
  1  2  1  0  0  0  0
  2  3  1  0  0  0  0
  2  4  1  0  0  0  0
  2  5  1  0  0  0  0
  5  6  2  0  0  0  0
  5  7  1  0  0  0  0
  7  8  1  0  0  0  0
  7  9  1  0  0  0  0
  9 10  1  0  0  0  0
  9 11  1  0  0  0  0
  9 22  1  0  0  0  0
 11 12  1  0  0  0  0
 11 13  1  0  0  0  0
 11 14  1  0  0  0  0
 14 15  1  0  0  0  0
 14 16  1  0  0  0  0
 14 17  1  0  0  0  0
 17 18  2  0  0  0  0
 17 19  1  0  0  0  0
 19 20  1  0  0  0  0
 19 21  1  0  0  0  0
 22 23  2  0  0  0  0
 22 24  1  0  0  0  0
 24 25  1  0  0  0  0
 24 26  1  0  0  0  0
 26 27  1  0  0  0  0
 26 28  1  0  0  0  0
 26 29  1  0  0  0  0
M  END
$$$$

  -OEChem-02102214123D

 29 28  0     1  0  0  0  0  0999 V2000
   -2.5705   -4.3730    0.8693 H   0  0  0  0  0  0  0  0  0  0  0  0
   -2.6306   -3.4193    0.3373 C   0  0  0  0  0  0  0  0  0  0  0  0
   -3.2858   -2.7456    0.8948 H   0  0  0  0  0  0  0  0  0  0  0  0
   -3.0573   -3.5940   -0.6532 H   0  0  0  0  0  0  0  0  0  0  0  0
   -1.2493   -2.8067    0.2043 C   0  0  0  0  0  0  0  0  0  0  0  0
   -0.2720   -3.4118    0.6092 O   0  0  0  0  0  0  0  0  0  0  0  0
   -1.1104   -1.5617   -0.3742 N   0  0  0  0  0  0  0  0  0  0  0  0
   -1.9795   -1.0510   -0.5423 H   0  0  0  0  0  0  0  0  0  0  0  0
    0.1321   -0.7718   -0.3362 C   0  0  1  0  0  0  0  0  0  0  0  0
    0.9127   -1.4043   -0.7745 H   0  0  0  0  0  0  0  0  0  0  0  0
    0.0649    0.5181   -1.1928 C   0  0  0  0  0  0  0  0  0  0  0  0
   -0.2734    1.3485   -0.5625 H   0  0  0  0  0  0  0  0  0  0  0  0
    1.0862    0.7575   -1.5086 H   0  0  0  0  0  0  0  0  0  0  0  0
   -0.8452    0.4739   -2.4438 C   0  0  0  0  0  0  0  0  0  0  0  0
   -0.5822    1.3209   -3.0830 H   0  0  0  0  0  0  0  0  0  0  0  0
   -0.6337   -0.4406   -3.0051 H   0  0  0  0  0  0  0  0  0  0  0  0
   -2.3506    0.5511   -2.1825 C   0  0  0  0  0  0  0  0  0  0  0  0
   -2.8432    0.5448   -1.0667 O   0  0  0  0  0  0  0  0  0  0  0  0
   -3.2419    0.6024   -3.2145 N   0  0  0  0  0  0  0  0  0  0  0  0
   -4.2030    0.8239   -2.9696 H   0  0  0  0  0  0  0  0  0  0  0  0
   -2.9001    0.7833   -4.1529 H   0  0  0  0  0  0  0  0  0  0  0  0
    0.6059   -0.4229    1.0903 C   0  0  0  0  0  0  0  0  0  0  0  0
    1.8017   -0.3240    1.3303 O   0  0  0  0  0  0  0  0  0  0  0  0
   -0.3084    0.0332    2.0226 N   0  0  0  0  0  0  0  0  0  0  0  0
   -1.2903   -0.0138    1.7668 H   0  0  0  0  0  0  0  0  0  0  0  0
    0.0602    0.4673    3.3636 C   0  0  0  0  0  0  0  0  0  0  0  0
    0.7585    1.3095    3.3155 H   0  0  0  0  0  0  0  0  0  0  0  0
   -0.8288    0.7866    3.9157 H   0  0  0  0  0  0  0  0  0  0  0  0
    0.5340   -0.3529    3.9133 H   0  0  0  0  0  0  0  0  0  0  0  0
  1  2  1  0  0  0  0
  2  3  1  0  0  0  0
  2  4  1  0  0  0  0
  2  5  1  0  0  0  0
  5  6  2  0  0  0  0
  5  7  1  0  0  0  0
  7  8  1  0  0  0  0
  7  9  1  0  0  0  0
  9 10  1  0  0  0  0
  9 11  1  0  0  0  0
  9 22  1  0  0  0  0
 11 12  1  0  0  0  0
 11 13  1  0  0  0  0
 11 14  1  0  0  0  0
 14 15  1  0  0  0  0
 14 16  1  0  0  0  0
 14 17  1  0  0  0  0
 17 18  2  0  0  0  0
 17 19  1  0  0  0  0
 19 20  1  0  0  0  0
 19 21  1  0  0  0  0
 22 23  2  0  0  0  0
 22 24  1  0  0  0  0
 24 25  1  0  0  0  0
 24 26  1  0  0  0  0
 26 27  1  0  0  0  0
 26 28  1  0  0  0  0
 26 29  1  0  0  0  0
M  END
$$$$

  -OEChem-02102214123D

 29 28  0     1  0  0  0  0  0999 V2000
   -2.5318   -4.4318    0.8780 H   0  0  0  0  0  0  0  0  0  0  0  0
   -2.6020   -3.4775    0.3484 C   0  0  0  0  0  0  0  0  0  0  0  0
   -3.2904   -2.8233    0.8892 H   0  0  0  0  0  0  0  0  0  0  0  0
   -2.9955   -3.6594   -0.6546 H   0  0  0  0  0  0  0  0  0  0  0  0
   -1.2339   -2.8287    0.2578 C   0  0  0  0  0  0  0  0  0  0  0  0
   -0.2615   -3.3861    0.7367 O   0  0  0  0  0  0  0  0  0  0  0  0
   -1.0992   -1.6046   -0.3639 N   0  0  0  0  0  0  0  0  0  0  0  0
   -1.9677   -1.1345   -0.6299 H   0  0  0  0  0  0  0  0  0  0  0  0
    0.1325   -0.7960   -0.3443 C   0  0  1  0  0  0  0  0  0  0  0  0
    0.9264   -1.4300   -0.7549 H   0  0  0  0  0  0  0  0  0  0  0  0
    0.0353    0.4568   -1.2483 C   0  0  0  0  0  0  0  0  0  0  0  0
   -0.3135    1.3103   -0.6554 H   0  0  0  0  0  0  0  0  0  0  0  0
    1.0506    0.6981   -1.5818 H   0  0  0  0  0  0  0  0  0  0  0  0
   -0.8777    0.3160   -2.4885 C   0  0  0  0  0  0  0  0  0  0  0  0
   -0.4870    0.9742   -3.2695 H   0  0  0  0  0  0  0  0  0  0  0  0
   -0.8395   -0.7048   -2.8799 H   0  0  0  0  0  0  0  0  0  0  0  0
   -2.3304    0.7157   -2.2299 C   0  0  0  0  0  0  0  0  0  0  0  0
   -2.9487    0.3359   -1.2500 O   0  0  0  0  0  0  0  0  0  0  0  0
   -3.0177    1.5243   -3.0886 N   0  0  0  0  0  0  0  0  0  0  0  0
   -4.0138    1.6320   -2.9188 H   0  0  0  0  0  0  0  0  0  0  0  0
   -2.6227    1.7425   -3.9976 H   0  0  0  0  0  0  0  0  0  0  0  0
    0.5906   -0.3847    1.0707 C   0  0  0  0  0  0  0  0  0  0  0  0
    1.7828   -0.2465    1.3104 O   0  0  0  0  0  0  0  0  0  0  0  0
   -0.3386    0.0944    1.9764 N   0  0  0  0  0  0  0  0  0  0  0  0
   -1.3179   -0.0221    1.7329 H   0  0  0  0  0  0  0  0  0  0  0  0
    0.0122    0.5690    3.3083 C   0  0  0  0  0  0  0  0  0  0  0  0
    0.6961    1.4217    3.2437 H   0  0  0  0  0  0  0  0  0  0  0  0
   -0.8866    0.8871    3.8452 H   0  0  0  0  0  0  0  0  0  0  0  0
    0.4957   -0.2284    3.8824 H   0  0  0  0  0  0  0  0  0  0  0  0
  1  2  1  0  0  0  0
  2  3  1  0  0  0  0
  2  4  1  0  0  0  0
  2  5  1  0  0  0  0
  5  6  2  0  0  0  0
  5  7  1  0  0  0  0
  7  8  1  0  0  0  0
  7  9  1  0  0  0  0
  9 10  1  0  0  0  0
  9 11  1  0  0  0  0
  9 22  1  0  0  0  0
 11 12  1  0  0  0  0
 11 13  1  0  0  0  0
 11 14  1  0  0  0  0
 14 15  1  0  0  0  0
 14 16  1  0  0  0  0
 14 17  1  0  0  0  0
 17 18  2  0  0  0  0
 17 19  1  0  0  0  0
 19 20  1  0  0  0  0
 19 21  1  0  0  0  0
 22 23  2  0  0  0  0
 22 24  1  0  0  0  0
 24 25  1  0  0  0  0
 24 26  1  0  0  0  0
 26 27  1  0  0  0  0
 26 28  1  0  0  0  0
 26 29  1  0  0  0  0
M  END
$$$$

  -OEChem-02102214123D

 29 28  0     1  0  0  0  0  0999 V2000
   -2.5368   -4.4438    0.8808 H   0  0  0  0  0  0  0  0  0  0  0  0
   -2.6074   -3.4953    0.3411 C   0  0  0  0  0  0  0  0  0  0  0  0
   -3.3195   -2.8473    0.8578 H   0  0  0  0  0  0  0  0  0  0  0  0
   -2.9721   -3.6916   -0.6700 H   0  0  0  0  0  0  0  0  0  0  0  0
   -1.2477   -2.8258    0.2803 C   0  0  0  0  0  0  0  0  0  0  0  0
   -0.2854   -3.3463    0.8172 O   0  0  0  0  0  0  0  0  0  0  0  0
   -1.1114   -1.6171   -0.3703 N   0  0  0  0  0  0  0  0  0  0  0  0
   -1.9709   -1.1812   -0.7127 H   0  0  0  0  0  0  0  0  0  0  0  0
    0.1182   -0.8000   -0.3670 C   0  0  1  0  0  0  0  0  0  0  0  0
    0.9180   -1.4335   -0.7670 H   0  0  0  0  0  0  0  0  0  0  0  0
   -0.0215    0.4182   -1.3070 C   0  0  0  0  0  0  0  0  0  0  0  0
   -0.3842    1.2814   -0.7363 H   0  0  0  0  0  0  0  0  0  0  0  0
    0.9807    0.6783   -1.6648 H   0  0  0  0  0  0  0  0  0  0  0  0
   -0.9481    0.1833   -2.5236 C   0  0  0  0  0  0  0  0  0  0  0  0
   -0.4711    0.6208   -3.4047 H   0  0  0  0  0  0  0  0  0  0  0  0
   -1.0893   -0.8774   -2.7484 H   0  0  0  0  0  0  0  0  0  0  0  0
   -2.2874    0.8759   -2.3304 C   0  0  0  0  0  0  0  0  0  0  0  0
   -3.0741    0.4389   -1.5082 O   0  0  0  0  0  0  0  0  0  0  0  0
   -2.6421    2.0131   -2.9980 N   0  0  0  0  0  0  0  0  0  0  0  0
   -3.6011    2.3302   -2.8858 H   0  0  0  0  0  0  0  0  0  0  0  0
   -2.0842    2.3264   -3.7857 H   0  0  0  0  0  0  0  0  0  0  0  0
    0.5789   -0.3441    1.0332 C   0  0  0  0  0  0  0  0  0  0  0  0
    1.7712   -0.1844    1.2576 O   0  0  0  0  0  0  0  0  0  0  0  0
   -0.3472    0.1578    1.9297 N   0  0  0  0  0  0  0  0  0  0  0  0
   -1.3257   -0.0079    1.7142 H   0  0  0  0  0  0  0  0  0  0  0  0
    0.0122    0.6518    3.2525 C   0  0  0  0  0  0  0  0  0  0  0  0
    0.7126    1.4897    3.1719 H   0  0  0  0  0  0  0  0  0  0  0  0
   -0.8802    0.9985    3.7821 H   0  0  0  0  0  0  0  0  0  0  0  0
    0.4797   -0.1434    3.8427 H   0  0  0  0  0  0  0  0  0  0  0  0
  1  2  1  0  0  0  0
  2  3  1  0  0  0  0
  2  4  1  0  0  0  0
  2  5  1  0  0  0  0
  5  6  2  0  0  0  0
  5  7  1  0  0  0  0
  7  8  1  0  0  0  0
  7  9  1  0  0  0  0
  9 10  1  0  0  0  0
  9 11  1  0  0  0  0
  9 22  1  0  0  0  0
 11 12  1  0  0  0  0
 11 13  1  0  0  0  0
 11 14  1  0  0  0  0
 14 15  1  0  0  0  0
 14 16  1  0  0  0  0
 14 17  1  0  0  0  0
 17 18  2  0  0  0  0
 17 19  1  0  0  0  0
 19 20  1  0  0  0  0
 19 21  1  0  0  0  0
 22 23  2  0  0  0  0
 22 24  1  0  0  0  0
 24 25  1  0  0  0  0
 24 26  1  0  0  0  0
 26 27  1  0  0  0  0
 26 28  1  0  0  0  0
 26 29  1  0  0  0  0
M  END
$$$$

  -OEChem-02102214123D

 29 28  0     1  0  0  0  0  0999 V2000
   -2.5181   -4.4957    0.9167 H   0  0  0  0  0  0  0  0  0  0  0  0
   -2.6202   -3.5389    0.3964 C   0  0  0  0  0  0  0  0  0  0  0  0
   -3.3322   -2.9153    0.9425 H   0  0  0  0  0  0  0  0  0  0  0  0
   -3.0052   -3.7247   -0.6092 H   0  0  0  0  0  0  0  0  0  0  0  0
   -1.2746   -2.8425    0.3166 C   0  0  0  0  0  0  0  0  0  0  0  0
   -0.2966   -3.3451    0.8411 O   0  0  0  0  0  0  0  0  0  0  0  0
   -1.1673   -1.6324   -0.3388 N   0  0  0  0  0  0  0  0  0  0  0  0
   -2.0311   -1.2192   -0.6873 H   0  0  0  0  0  0  0  0  0  0  0  0
    0.0585   -0.8113   -0.3796 C   0  0  1  0  0  0  0  0  0  0  0  0
    0.8438   -1.4492   -0.8008 H   0  0  0  0  0  0  0  0  0  0  0  0
   -0.0911    0.4049   -1.3221 C   0  0  0  0  0  0  0  0  0  0  0  0
   -0.4457    1.2578   -0.7307 H   0  0  0  0  0  0  0  0  0  0  0  0
    0.9052    0.6756   -1.6888 H   0  0  0  0  0  0  0  0  0  0  0  0
   -1.0406    0.2059   -2.5318 C   0  0  0  0  0  0  0  0  0  0  0  0
   -0.4697    0.3763   -3.4488 H   0  0  0  0  0  0  0  0  0  0  0  0
   -1.4375   -0.8078   -2.6110 H   0  0  0  0  0  0  0  0  0  0  0  0
   -2.1907    1.1990   -2.4954 C   0  0  0  0  0  0  0  0  0  0  0  0
   -3.1141    1.0236   -1.7220 O   0  0  0  0  0  0  0  0  0  0  0  0
   -2.2187    2.3320   -3.2574 N   0  0  0  0  0  0  0  0  0  0  0  0
   -3.0789    2.8730   -3.2424 H   0  0  0  0  0  0  0  0  0  0  0  0
   -1.5462    2.4510   -4.0080 H   0  0  0  0  0  0  0  0  0  0  0  0
    0.5699   -0.3532    1.0032 C   0  0  0  0  0  0  0  0  0  0  0  0
    1.7695   -0.1881    1.1802 O   0  0  0  0  0  0  0  0  0  0  0  0
   -0.3214    0.1464    1.9356 N   0  0  0  0  0  0  0  0  0  0  0  0
   -1.3073   -0.0196    1.7596 H   0  0  0  0  0  0  0  0  0  0  0  0
    0.0893    0.6557    3.2377 C   0  0  0  0  0  0  0  0  0  0  0  0
    0.7593    1.5137    3.1202 H   0  0  0  0  0  0  0  0  0  0  0  0
   -0.7853    0.9773    3.8111 H   0  0  0  0  0  0  0  0  0  0  0  0
    0.6097   -0.1228    3.8056 H   0  0  0  0  0  0  0  0  0  0  0  0
  1  2  1  0  0  0  0
  2  3  1  0  0  0  0
  2  4  1  0  0  0  0
  2  5  1  0  0  0  0
  5  6  2  0  0  0  0
  5  7  1  0  0  0  0
  7  8  1  0  0  0  0
  7  9  1  0  0  0  0
  9 10  1  0  0  0  0
  9 11  1  0  0  0  0
  9 22  1  0  0  0  0
 11 12  1  0  0  0  0
 11 13  1  0  0  0  0
 11 14  1  0  0  0  0
 14 15  1  0  0  0  0
 14 16  1  0  0  0  0
 14 17  1  0  0  0  0
 17 18  2  0  0  0  0
 17 19  1  0  0  0  0
 19 20  1  0  0  0  0
 19 21  1  0  0  0  0
 22 23  2  0  0  0  0
 22 24  1  0  0  0  0
 24 25  1  0  0  0  0
 24 26  1  0  0  0  0
 26 27  1  0  0  0  0
 26 28  1  0  0  0  0
 26 29  1  0  0  0  0
M  END
$$$$

  -OEChem-02102214123D

 29 28  0     1  0  0  0  0  0999 V2000
   -2.5021   -4.5372    0.9351 H   0  0  0  0  0  0  0  0  0  0  0  0
   -2.6293   -3.5769    0.4273 C   0  0  0  0  0  0  0  0  0  0  0  0
   -3.3427   -2.9720    0.9920 H   0  0  0  0  0  0  0  0  0  0  0  0
   -3.0278   -3.7592   -0.5737 H   0  0  0  0  0  0  0  0  0  0  0  0
   -1.2976   -2.8566    0.3328 C   0  0  0  0  0  0  0  0  0  0  0  0
   -0.3022   -3.3477    0.8345 O   0  0  0  0  0  0  0  0  0  0  0  0
   -1.2222   -1.6412   -0.3180 N   0  0  0  0  0  0  0  0  0  0  0  0
   -2.0940   -1.2501   -0.6669 H   0  0  0  0  0  0  0  0  0  0  0  0
   -0.0031   -0.8140   -0.3973 C   0  0  1  0  0  0  0  0  0  0  0  0
    0.7674   -1.4531   -0.8436 H   0  0  0  0  0  0  0  0  0  0  0  0
   -0.1620    0.4080   -1.3330 C   0  0  0  0  0  0  0  0  0  0  0  0
   -0.5210    1.2409   -0.7161 H   0  0  0  0  0  0  0  0  0  0  0  0
    0.8269    0.6998   -1.7041 H   0  0  0  0  0  0  0  0  0  0  0  0
   -1.1335    0.2459   -2.5313 C   0  0  0  0  0  0  0  0  0  0  0  0
   -0.5492    0.1153   -3.4462 H   0  0  0  0  0  0  0  0  0  0  0  0
   -1.7768   -0.6308   -2.4489 H   0  0  0  0  0  0  0  0  0  0  0  0
   -2.0333    1.4640   -2.6758 C   0  0  0  0  0  0  0  0  0  0  0  0
   -3.0450    1.5645   -2.0080 O   0  0  0  0  0  0  0  0  0  0  0  0
   -1.7313    2.5057   -3.5054 N   0  0  0  0  0  0  0  0  0  0  0  0
   -2.4448    3.2200   -3.6215 H   0  0  0  0  0  0  0  0  0  0  0  0
   -0.9791    2.4111   -4.1797 H   0  0  0  0  0  0  0  0  0  0  0  0
    0.5583   -0.3612    0.9683 C   0  0  0  0  0  0  0  0  0  0  0  0
    1.7627   -0.1891    1.0987 O   0  0  0  0  0  0  0  0  0  0  0  0
   -0.2980    0.1290    1.9379 N   0  0  0  0  0  0  0  0  0  0  0  0
   -1.2898   -0.0344    1.7991 H   0  0  0  0  0  0  0  0  0  0  0  0
    0.1608    0.6578    3.2160 C   0  0  0  0  0  0  0  0  0  0  0  0
    0.8020    1.5319    3.0615 H   0  0  0  0  0  0  0  0  0  0  0  0
   -0.6935    0.9613    3.8285 H   0  0  0  0  0  0  0  0  0  0  0  0
    0.7271   -0.1032    3.7631 H   0  0  0  0  0  0  0  0  0  0  0  0
  1  2  1  0  0  0  0
  2  3  1  0  0  0  0
  2  4  1  0  0  0  0
  2  5  1  0  0  0  0
  5  6  2  0  0  0  0
  5  7  1  0  0  0  0
  7  8  1  0  0  0  0
  7  9  1  0  0  0  0
  9 10  1  0  0  0  0
  9 11  1  0  0  0  0
  9 22  1  0  0  0  0
 11 12  1  0  0  0  0
 11 13  1  0  0  0  0
 11 14  1  0  0  0  0
 14 15  1  0  0  0  0
 14 16  1  0  0  0  0
 14 17  1  0  0  0  0
 17 18  2  0  0  0  0
 17 19  1  0  0  0  0
 19 20  1  0  0  0  0
 19 21  1  0  0  0  0
 22 23  2  0  0  0  0
 22 24  1  0  0  0  0
 24 25  1  0  0  0  0
 24 26  1  0  0  0  0
 26 27  1  0  0  0  0
 26 28  1  0  0  0  0
 26 29  1  0  0  0  0
M  END
$$$$

  -OEChem-02102214123D

 29 28  0     1  0  0  0  0  0999 V2000
   -2.4900   -4.5493    0.9485 H   0  0  0  0  0  0  0  0  0  0  0  0
   -2.6406   -3.5871    0.4506 C   0  0  0  0  0  0  0  0  0  0  0  0
   -3.3481   -2.9952    1.0361 H   0  0  0  0  0  0  0  0  0  0  0  0
   -3.0596   -3.7678   -0.5423 H   0  0  0  0  0  0  0  0  0  0  0  0
   -1.3197   -2.8505    0.3313 C   0  0  0  0  0  0  0  0  0  0  0  0
   -0.3104   -3.3293    0.8164 O   0  0  0  0  0  0  0  0  0  0  0  0
   -1.2688   -1.6324   -0.3177 N   0  0  0  0  0  0  0  0  0  0  0  0
   -2.1472   -1.2585   -0.6659 H   0  0  0  0  0  0  0  0  0  0  0  0
   -0.0544   -0.8021   -0.4334 C   0  0  1  0  0  0  0  0  0  0  0  0
    0.7019   -1.4418   -0.9025 H   0  0  0  0  0  0  0  0  0  0  0  0
   -0.2305    0.4224   -1.3630 C   0  0  0  0  0  0  0  0  0  0  0  0
   -0.5846    1.2499   -0.7361 H   0  0  0  0  0  0  0  0  0  0  0  0
    0.7487    0.7199   -1.7542 H   0  0  0  0  0  0  0  0  0  0  0  0
   -1.2312    0.2646   -2.5332 C   0  0  0  0  0  0  0  0  0  0  0  0
   -0.7166   -0.1520   -3.4035 H   0  0  0  0  0  0  0  0  0  0  0  0
   -2.0525   -0.4110   -2.2915 H   0  0  0  0  0  0  0  0  0  0  0  0
   -1.8620    1.6028   -2.8897 C   0  0  0  0  0  0  0  0  0  0  0  0
   -2.8605    1.9947   -2.3172 O   0  0  0  0  0  0  0  0  0  0  0  0
   -1.3106    2.4448   -3.8123 N   0  0  0  0  0  0  0  0  0  0  0  0
   -1.6930    3.3856   -3.8485 H   0  0  0  0  0  0  0  0  0  0  0  0
   -0.3753    2.2579   -4.1583 H   0  0  0  0  0  0  0  0  0  0  0  0
    0.5493   -0.3536    0.9154 C   0  0  0  0  0  0  0  0  0  0  0  0
    1.7560   -0.1704    1.0036 O   0  0  0  0  0  0  0  0  0  0  0  0
   -0.2776    0.1305    1.9131 N   0  0  0  0  0  0  0  0  0  0  0  0
   -1.2709   -0.0512    1.8134 H   0  0  0  0  0  0  0  0  0  0  0  0
    0.2217    0.6568    3.1768 C   0  0  0  0  0  0  0  0  0  0  0  0
    0.8530    1.5343    3.0026 H   0  0  0  0  0  0  0  0  0  0  0  0
   -0.6127    0.9541    3.8190 H   0  0  0  0  0  0  0  0  0  0  0  0
    0.8105   -0.1030    3.7015 H   0  0  0  0  0  0  0  0  0  0  0  0
  1  2  1  0  0  0  0
  2  3  1  0  0  0  0
  2  4  1  0  0  0  0
  2  5  1  0  0  0  0
  5  6  2  0  0  0  0
  5  7  1  0  0  0  0
  7  8  1  0  0  0  0
  7  9  1  0  0  0  0
  9 10  1  0  0  0  0
  9 11  1  0  0  0  0
  9 22  1  0  0  0  0
 11 12  1  0  0  0  0
 11 13  1  0  0  0  0
 11 14  1  0  0  0  0
 14 15  1  0  0  0  0
 14 16  1  0  0  0  0
 14 17  1  0  0  0  0
 17 18  2  0  0  0  0
 17 19  1  0  0  0  0
 19 20  1  0  0  0  0
 19 21  1  0  0  0  0
 22 23  2  0  0  0  0
 22 24  1  0  0  0  0
 24 25  1  0  0  0  0
 24 26  1  0  0  0  0
 26 27  1  0  0  0  0
 26 28  1  0  0  0  0
 26 29  1  0  0  0  0
M  END
$$$$

  -OEChem-02102214123D

 29 28  0     1  0  0  0  0  0999 V2000
   -2.5515   -4.5106    0.9089 H   0  0  0  0  0  0  0  0  0  0  0  0
   -2.6881   -3.5507    0.4024 C   0  0  0  0  0  0  0  0  0  0  0  0
   -3.4088   -2.9546    0.9671 H   0  0  0  0  0  0  0  0  0  0  0  0
   -3.0825   -3.7356   -0.5996 H   0  0  0  0  0  0  0  0  0  0  0  0
   -1.3639   -2.8158    0.3120 C   0  0  0  0  0  0  0  0  0  0  0  0
   -0.3618   -3.3048    0.8015 O   0  0  0  0  0  0  0  0  0  0  0  0
   -1.3027   -1.5883   -0.3184 N   0  0  0  0  0  0  0  0  0  0  0  0
   -2.1709   -1.2202   -0.6951 H   0  0  0  0  0  0  0  0  0  0  0  0
   -0.0764   -0.7764   -0.4434 C   0  0  1  0  0  0  0  0  0  0  0  0
    0.6603   -1.4201   -0.9378 H   0  0  0  0  0  0  0  0  0  0  0  0
   -0.2550    0.4638   -1.3500 C   0  0  0  0  0  0  0  0  0  0  0  0
   -0.5842    1.2959   -0.7160 H   0  0  0  0  0  0  0  0  0  0  0  0
    0.7191    0.7446   -1.7655 H   0  0  0  0  0  0  0  0  0  0  0  0
   -1.2849    0.3144   -2.4899 C   0  0  0  0  0  0  0  0  0  0  0  0
   -0.8852   -0.3359   -3.2728 H   0  0  0  0  0  0  0  0  0  0  0  0
   -2.2171   -0.1274   -2.1328 H   0  0  0  0  0  0  0  0  0  0  0  0
   -1.6406    1.6753   -3.0707 C   0  0  0  0  0  0  0  0  0  0  0  0
   -2.5767    2.3180   -2.6370 O   0  0  0  0  0  0  0  0  0  0  0  0
   -0.9058    2.2548   -4.0650 N   0  0  0  0  0  0  0  0  0  0  0  0
   -1.1077    3.2311   -4.2620 H   0  0  0  0  0  0  0  0  0  0  0  0
   -0.0056    1.8574   -4.3127 H   0  0  0  0  0  0  0  0  0  0  0  0
    0.5626   -0.3572    0.8987 C   0  0  0  0  0  0  0  0  0  0  0  0
    1.7738   -0.1946    0.9618 O   0  0  0  0  0  0  0  0  0  0  0  0
   -0.2338    0.1262    1.9210 N   0  0  0  0  0  0  0  0  0  0  0  0
   -1.2294   -0.0553    1.8481 H   0  0  0  0  0  0  0  0  0  0  0  0
    0.3029    0.6181    3.1836 C   0  0  0  0  0  0  0  0  0  0  0  0
    0.9337    1.4973    3.0151 H   0  0  0  0  0  0  0  0  0  0  0  0
   -0.5123    0.9021    3.8559 H   0  0  0  0  0  0  0  0  0  0  0  0
    0.9018   -0.1574    3.6730 H   0  0  0  0  0  0  0  0  0  0  0  0
  1  2  1  0  0  0  0
  2  3  1  0  0  0  0
  2  4  1  0  0  0  0
  2  5  1  0  0  0  0
  5  6  2  0  0  0  0
  5  7  1  0  0  0  0
  7  8  1  0  0  0  0
  7  9  1  0  0  0  0
  9 10  1  0  0  0  0
  9 11  1  0  0  0  0
  9 22  1  0  0  0  0
 11 12  1  0  0  0  0
 11 13  1  0  0  0  0
 11 14  1  0  0  0  0
 14 15  1  0  0  0  0
 14 16  1  0  0  0  0
 14 17  1  0  0  0  0
 17 18  2  0  0  0  0
 17 19  1  0  0  0  0
 19 20  1  0  0  0  0
 19 21  1  0  0  0  0
 22 23  2  0  0  0  0
 22 24  1  0  0  0  0
 24 25  1  0  0  0  0
 24 26  1  0  0  0  0
 26 27  1  0  0  0  0
 26 28  1  0  0  0  0
 26 29  1  0  0  0  0
M  END
$$$$

  -OEChem-02102214123D

 29 28  0     1  0  0  0  0  0999 V2000
   -2.5862   -4.4973    0.7942 H   0  0  0  0  0  0  0  0  0  0  0  0
   -2.7266   -3.5146    0.3345 C   0  0  0  0  0  0  0  0  0  0  0  0
   -3.4530   -2.9510    0.9250 H   0  0  0  0  0  0  0  0  0  0  0  0
   -3.1165   -3.6532   -0.6768 H   0  0  0  0  0  0  0  0  0  0  0  0
   -1.4062   -2.7689    0.2852 C   0  0  0  0  0  0  0  0  0  0  0  0
   -0.4071   -3.2681    0.7700 O   0  0  0  0  0  0  0  0  0  0  0  0
   -1.3454   -1.5207   -0.3032 N   0  0  0  0  0  0  0  0  0  0  0  0
   -2.2020   -1.1658   -0.7168 H   0  0  0  0  0  0  0  0  0  0  0  0
   -0.1108   -0.7210   -0.4367 C   0  0  1  0  0  0  0  0  0  0  0  0
    0.6023   -1.3571   -0.9740 H   0  0  0  0  0  0  0  0  0  0  0  0
   -0.3032    0.5543   -1.2950 C   0  0  0  0  0  0  0  0  0  0  0  0
   -0.3245    1.4290   -0.6333 H   0  0  0  0  0  0  0  0  0  0  0  0
    0.5727    0.6684   -1.9432 H   0  0  0  0  0  0  0  0  0  0  0  0
   -1.5893    0.5858   -2.1438 C   0  0  0  0  0  0  0  0  0  0  0  0
   -1.6073   -0.2641   -2.8319 H   0  0  0  0  0  0  0  0  0  0  0  0
   -2.4716    0.5278   -1.4998 H   0  0  0  0  0  0  0  0  0  0  0  0
   -1.6798    1.8769   -2.9459 C   0  0  0  0  0  0  0  0  0  0  0  0
   -2.4267    2.7753   -2.6127 O   0  0  0  0  0  0  0  0  0  0  0  0
   -0.9365    2.0871   -4.0721 N   0  0  0  0  0  0  0  0  0  0  0  0
   -0.9465    3.0323   -4.4457 H   0  0  0  0  0  0  0  0  0  0  0  0
   -0.1687    1.4595   -4.2862 H   0  0  0  0  0  0  0  0  0  0  0  0
    0.5745   -0.3585    0.8998 C   0  0  0  0  0  0  0  0  0  0  0  0
    1.7897   -0.2191    0.9311 O   0  0  0  0  0  0  0  0  0  0  0  0
   -0.1827    0.0991    1.9630 N   0  0  0  0  0  0  0  0  0  0  0  0
   -1.1807   -0.0781    1.9185 H   0  0  0  0  0  0  0  0  0  0  0  0
    0.4015    0.5197    3.2303 C   0  0  0  0  0  0  0  0  0  0  0  0
    1.0970    1.3513    3.0753 H   0  0  0  0  0  0  0  0  0  0  0  0
   -0.3829    0.8518    3.9170 H   0  0  0  0  0  0  0  0  0  0  0  0
    0.9427   -0.3106    3.6960 H   0  0  0  0  0  0  0  0  0  0  0  0
  1  2  1  0  0  0  0
  2  3  1  0  0  0  0
  2  4  1  0  0  0  0
  2  5  1  0  0  0  0
  5  6  2  0  0  0  0
  5  7  1  0  0  0  0
  7  8  1  0  0  0  0
  7  9  1  0  0  0  0
  9 10  1  0  0  0  0
  9 11  1  0  0  0  0
  9 22  1  0  0  0  0
 11 12  1  0  0  0  0
 11 13  1  0  0  0  0
 11 14  1  0  0  0  0
 14 15  1  0  0  0  0
 14 16  1  0  0  0  0
 14 17  1  0  0  0  0
 17 18  2  0  0  0  0
 17 19  1  0  0  0  0
 19 20  1  0  0  0  0
 19 21  1  0  0  0  0
 22 23  2  0  0  0  0
 22 24  1  0  0  0  0
 24 25  1  0  0  0  0
 24 26  1  0  0  0  0
 26 27  1  0  0  0  0
 26 28  1  0  0  0  0
 26 29  1  0  0  0  0
M  END
$$$$

  -OEChem-02102214123D

 29 28  0     1  0  0  0  0  0999 V2000
   -2.6906   -4.4200    0.7779 H   0  0  0  0  0  0  0  0  0  0  0  0
   -2.8007   -3.4381    0.3087 C   0  0  0  0  0  0  0  0  0  0  0  0
   -3.5064   -2.8455    0.8956 H   0  0  0  0  0  0  0  0  0  0  0  0
   -3.1982   -3.5742   -0.7000 H   0  0  0  0  0  0  0  0  0  0  0  0
   -1.4576   -2.7351    0.2477 C   0  0  0  0  0  0  0  0  0  0  0  0
   -0.4667   -3.2739    0.7061 O   0  0  0  0  0  0  0  0  0  0  0  0
   -1.3667   -1.4792   -0.3201 N   0  0  0  0  0  0  0  0  0  0  0  0
   -2.2207   -1.0825   -0.7003 H   0  0  0  0  0  0  0  0  0  0  0  0
   -0.1128   -0.7083   -0.4434 C   0  0  1  0  0  0  0  0  0  0  0  0
    0.5837   -1.3525   -0.9924 H   0  0  0  0  0  0  0  0  0  0  0  0
   -0.2817    0.5837   -1.2810 C   0  0  0  0  0  0  0  0  0  0  0  0
   -0.2704    1.4567   -0.6176 H   0  0  0  0  0  0  0  0  0  0  0  0
    0.5940    0.6727   -1.9337 H   0  0  0  0  0  0  0  0  0  0  0  0
   -1.5719    0.6521   -2.1230 C   0  0  0  0  0  0  0  0  0  0  0  0
   -1.7286   -0.2928   -2.6507 H   0  0  0  0  0  0  0  0  0  0  0  0
   -2.4355    0.8330   -1.4761 H   0  0  0  0  0  0  0  0  0  0  0  0
   -1.4883    1.7537   -3.1712 C   0  0  0  0  0  0  0  0  0  0  0  0
   -2.1175    2.7860   -3.0522 O   0  0  0  0  0  0  0  0  0  0  0  0
   -0.7251    1.6322   -4.2974 N   0  0  0  0  0  0  0  0  0  0  0  0
   -0.6135    2.4751   -4.8543 H   0  0  0  0  0  0  0  0  0  0  0  0
   -0.0402    0.8861   -4.3553 H   0  0  0  0  0  0  0  0  0  0  0  0
    0.5851   -0.3845    0.8964 C   0  0  0  0  0  0  0  0  0  0  0  0
    1.8033   -0.2760    0.9266 O   0  0  0  0  0  0  0  0  0  0  0  0
   -0.1578    0.0746    1.9690 N   0  0  0  0  0  0  0  0  0  0  0  0
   -1.1595   -0.0802    1.9261 H   0  0  0  0  0  0  0  0  0  0  0  0
    0.4397    0.4631    3.2405 C   0  0  0  0  0  0  0  0  0  0  0  0
    1.1497    1.2843    3.0963 H   0  0  0  0  0  0  0  0  0  0  0  0
   -0.3357    0.7976    3.9361 H   0  0  0  0  0  0  0  0  0  0  0  0
    0.9678   -0.3844    3.6900 H   0  0  0  0  0  0  0  0  0  0  0  0
  1  2  1  0  0  0  0
  2  3  1  0  0  0  0
  2  4  1  0  0  0  0
  2  5  1  0  0  0  0
  5  6  2  0  0  0  0
  5  7  1  0  0  0  0
  7  8  1  0  0  0  0
  7  9  1  0  0  0  0
  9 10  1  0  0  0  0
  9 11  1  0  0  0  0
  9 22  1  0  0  0  0
 11 12  1  0  0  0  0
 11 13  1  0  0  0  0
 11 14  1  0  0  0  0
 14 15  1  0  0  0  0
 14 16  1  0  0  0  0
 14 17  1  0  0  0  0
 17 18  2  0  0  0  0
 17 19  1  0  0  0  0
 19 20  1  0  0  0  0
 19 21  1  0  0  0  0
 22 23  2  0  0  0  0
 22 24  1  0  0  0  0
 24 25  1  0  0  0  0
 24 26  1  0  0  0  0
 26 27  1  0  0  0  0
 26 28  1  0  0  0  0
 26 29  1  0  0  0  0
M  END
$$$$

  -OEChem-02102214123D

 29 28  0     1  0  0  0  0  0999 V2000
   -2.7532   -4.3818    0.7456 H   0  0  0  0  0  0  0  0  0  0  0  0
   -2.8521   -3.3921    0.2903 C   0  0  0  0  0  0  0  0  0  0  0  0
   -3.5380   -2.7942    0.8952 H   0  0  0  0  0  0  0  0  0  0  0  0
   -3.2675   -3.5085   -0.7136 H   0  0  0  0  0  0  0  0  0  0  0  0
   -1.4970   -2.7139    0.2165 C   0  0  0  0  0  0  0  0  0  0  0  0
   -0.5084   -3.2808    0.6451 O   0  0  0  0  0  0  0  0  0  0  0  0
   -1.3906   -1.4508   -0.3329 N   0  0  0  0  0  0  0  0  0  0  0  0
   -2.2468   -1.0201   -0.6686 H   0  0  0  0  0  0  0  0  0  0  0  0
   -0.1261   -0.6965   -0.4488 C   0  0  1  0  0  0  0  0  0  0  0  0
    0.5584   -1.3468   -1.0060 H   0  0  0  0  0  0  0  0  0  0  0  0
   -0.2647    0.6092   -1.2723 C   0  0  0  0  0  0  0  0  0  0  0  0
   -0.2308    1.4753   -0.6010 H   0  0  0  0  0  0  0  0  0  0  0  0
    0.6209    0.6805   -1.9137 H   0  0  0  0  0  0  0  0  0  0  0  0
   -1.5451    0.7343   -2.1287 C   0  0  0  0  0  0  0  0  0  0  0  0
   -1.8691   -0.2455   -2.4875 H   0  0  0  0  0  0  0  0  0  0  0  0
   -2.3563    1.1664   -1.5351 H   0  0  0  0  0  0  0  0  0  0  0  0
   -1.3008    1.5786   -3.3733 C   0  0  0  0  0  0  0  0  0  0  0  0
   -1.7752    2.6913   -3.4834 O   0  0  0  0  0  0  0  0  0  0  0  0
   -0.5676    1.1228   -4.4320 N   0  0  0  0  0  0  0  0  0  0  0  0
   -0.3372    1.8100   -5.1444 H   0  0  0  0  0  0  0  0  0  0  0  0
    0.0016    0.2905   -4.3208 H   0  0  0  0  0  0  0  0  0  0  0  0
    0.5795   -0.4035    0.8936 C   0  0  0  0  0  0  0  0  0  0  0  0
    1.7993   -0.3144    0.9222 O   0  0  0  0  0  0  0  0  0  0  0  0
   -0.1533    0.0499    1.9756 N   0  0  0  0  0  0  0  0  0  0  0  0
   -1.1574   -0.0885    1.9344 H   0  0  0  0  0  0  0  0  0  0  0  0
    0.4558    0.4117    3.2495 C   0  0  0  0  0  0  0  0  0  0  0  0
    1.1704    1.2303    3.1139 H   0  0  0  0  0  0  0  0  0  0  0  0
   -0.3119    0.7394    3.9569 H   0  0  0  0  0  0  0  0  0  0  0  0
    0.9816   -0.4474    3.6794 H   0  0  0  0  0  0  0  0  0  0  0  0
  1  2  1  0  0  0  0
  2  3  1  0  0  0  0
  2  4  1  0  0  0  0
  2  5  1  0  0  0  0
  5  6  2  0  0  0  0
  5  7  1  0  0  0  0
  7  8  1  0  0  0  0
  7  9  1  0  0  0  0
  9 10  1  0  0  0  0
  9 11  1  0  0  0  0
  9 22  1  0  0  0  0
 11 12  1  0  0  0  0
 11 13  1  0  0  0  0
 11 14  1  0  0  0  0
 14 15  1  0  0  0  0
 14 16  1  0  0  0  0
 14 17  1  0  0  0  0
 17 18  2  0  0  0  0
 17 19  1  0  0  0  0
 19 20  1  0  0  0  0
 19 21  1  0  0  0  0
 22 23  2  0  0  0  0
 22 24  1  0  0  0  0
 24 25  1  0  0  0  0
 24 26  1  0  0  0  0
 26 27  1  0  0  0  0
 26 28  1  0  0  0  0
 26 29  1  0  0  0  0
M  END
$$$$

  -OEChem-02102214123D

 29 28  0     1  0  0  0  0  0999 V2000
   -2.7990   -4.3539    0.7059 H   0  0  0  0  0  0  0  0  0  0  0  0
   -2.8931   -3.3548    0.2703 C   0  0  0  0  0  0  0  0  0  0  0  0
   -3.5644   -2.7611    0.8953 H   0  0  0  0  0  0  0  0  0  0  0  0
   -3.3225   -3.4481   -0.7302 H   0  0  0  0  0  0  0  0  0  0  0  0
   -1.5312   -2.6909    0.1906 C   0  0  0  0  0  0  0  0  0  0  0  0
   -0.5450   -3.2751    0.6008 O   0  0  0  0  0  0  0  0  0  0  0  0
   -1.4140   -1.4225   -0.3448 N   0  0  0  0  0  0  0  0  0  0  0  0
   -2.2701   -0.9706   -0.6517 H   0  0  0  0  0  0  0  0  0  0  0  0
   -0.1420   -0.6799   -0.4541 C   0  0  1  0  0  0  0  0  0  0  0  0
    0.5336   -1.3383   -1.0121 H   0  0  0  0  0  0  0  0  0  0  0  0
   -0.2436    0.6334   -1.2741 C   0  0  0  0  0  0  0  0  0  0  0  0
   -0.2033    1.4885   -0.5895 H   0  0  0  0  0  0  0  0  0  0  0  0
    0.6600    0.6992   -1.8907 H   0  0  0  0  0  0  0  0  0  0  0  0
   -1.5030    0.8189   -2.1577 C   0  0  0  0  0  0  0  0  0  0  0  0
   -2.0286   -0.1222   -2.3257 H   0  0  0  0  0  0  0  0  0  0  0  0
   -2.1995    1.5099   -1.6729 H   0  0  0  0  0  0  0  0  0  0  0  0
   -1.1357    1.3407   -3.5416 C   0  0  0  0  0  0  0  0  0  0  0  0
   -1.4284    2.4659   -3.8931 O   0  0  0  0  0  0  0  0  0  0  0  0
   -0.4886    0.5648   -4.4611 N   0  0  0  0  0  0  0  0  0  0  0  0
   -0.1487    1.0462   -5.2893 H   0  0  0  0  0  0  0  0  0  0  0  0
   -0.0523   -0.2997   -4.1581 H   0  0  0  0  0  0  0  0  0  0  0  0
    0.5665   -0.4106    0.8919 C   0  0  0  0  0  0  0  0  0  0  0  0
    1.7874   -0.3394    0.9220 O   0  0  0  0  0  0  0  0  0  0  0  0
   -0.1606    0.0371    1.9801 N   0  0  0  0  0  0  0  0  0  0  0  0
   -1.1653   -0.0954    1.9392 H   0  0  0  0  0  0  0  0  0  0  0  0
    0.4535    0.3557    3.2631 C   0  0  0  0  0  0  0  0  0  0  0  0
    1.2084    1.1402    3.1441 H   0  0  0  0  0  0  0  0  0  0  0  0
   -0.3040    0.7124    3.9674 H   0  0  0  0  0  0  0  0  0  0  0  0
    0.9333   -0.5324    3.6877 H   0  0  0  0  0  0  0  0  0  0  0  0
  1  2  1  0  0  0  0
  2  3  1  0  0  0  0
  2  4  1  0  0  0  0
  2  5  1  0  0  0  0
  5  6  2  0  0  0  0
  5  7  1  0  0  0  0
  7  8  1  0  0  0  0
  7  9  1  0  0  0  0
  9 10  1  0  0  0  0
  9 11  1  0  0  0  0
  9 22  1  0  0  0  0
 11 12  1  0  0  0  0
 11 13  1  0  0  0  0
 11 14  1  0  0  0  0
 14 15  1  0  0  0  0
 14 16  1  0  0  0  0
 14 17  1  0  0  0  0
 17 18  2  0  0  0  0
 17 19  1  0  0  0  0
 19 20  1  0  0  0  0
 19 21  1  0  0  0  0
 22 23  2  0  0  0  0
 22 24  1  0  0  0  0
 24 25  1  0  0  0  0
 24 26  1  0  0  0  0
 26 27  1  0  0  0  0
 26 28  1  0  0  0  0
 26 29  1  0  0  0  0
M  END
$$$$

  -OEChem-02102214123D

 29 28  0     1  0  0  0  0  0999 V2000
   -2.3146   -4.6595    1.0096 H   0  0  0  0  0  0  0  0  0  0  0  0
   -2.4578   -3.7927    0.3584 C   0  0  0  0  0  0  0  0  0  0  0  0
   -3.3804   -3.2840    0.6477 H   0  0  0  0  0  0  0  0  0  0  0  0
   -2.5487   -4.1405   -0.6735 H   0  0  0  0  0  0  0  0  0  0  0  0
   -1.2801   -2.8447    0.4830 C   0  0  0  0  0  0  0  0  0  0  0  0
   -0.3488   -3.1279    1.2148 O   0  0  0  0  0  0  0  0  0  0  0  0
   -1.2836   -1.6572   -0.2238 N   0  0  0  0  0  0  0  0  0  0  0  0
   -2.0328   -1.5588   -0.9010 H   0  0  0  0  0  0  0  0  0  0  0  0
   -0.0967   -0.7913   -0.3817 C   0  0  1  0  0  0  0  0  0  0  0  0
    0.6792   -1.4293   -0.8209 H   0  0  0  0  0  0  0  0  0  0  0  0
   -0.2898    0.4051   -1.3555 C   0  0  0  0  0  0  0  0  0  0  0  0
   -0.3753    1.3217   -0.7609 H   0  0  0  0  0  0  0  0  0  0  0  0
    0.6362    0.5068   -1.9338 H   0  0  0  0  0  0  0  0  0  0  0  0
   -1.5106    0.3864   -2.3136 C   0  0  0  0  0  0  0  0  0  0  0  0
   -2.1461   -0.4883   -2.1830 H   0  0  0  0  0  0  0  0  0  0  0  0
   -2.1335    1.2630   -2.1158 H   0  0  0  0  0  0  0  0  0  0  0  0
   -1.0760    0.4231   -3.7731 C   0  0  0  0  0  0  0  0  0  0  0  0
   -1.2375   -0.5363   -4.5011 O   0  0  0  0  0  0  0  0  0  0  0  0
   -0.5282    1.5375   -4.3420 N   0  0  0  0  0  0  0  0  0  0  0  0
   -0.3982    1.5213   -5.3498 H   0  0  0  0  0  0  0  0  0  0  0  0
   -0.5099    2.4125   -3.8290 H   0  0  0  0  0  0  0  0  0  0  0  0
    0.4915   -0.2652    0.9475 C   0  0  0  0  0  0  0  0  0  0  0  0
    1.6861   -0.0070    1.0134 O   0  0  0  0  0  0  0  0  0  0  0  0
   -0.3561    0.2305    1.9216 N   0  0  0  0  0  0  0  0  0  0  0  0
   -1.3144   -0.1011    1.8757 H   0  0  0  0  0  0  0  0  0  0  0  0
    0.1339    0.7602    3.1879 C   0  0  0  0  0  0  0  0  0  0  0  0
    0.7957    1.6158    3.0169 H   0  0  0  0  0  0  0  0  0  0  0  0
   -0.7039    1.0928    3.8081 H   0  0  0  0  0  0  0  0  0  0  0  0
    0.6881   -0.0099    3.7348 H   0  0  0  0  0  0  0  0  0  0  0  0
  1  2  1  0  0  0  0
  2  3  1  0  0  0  0
  2  4  1  0  0  0  0
  2  5  1  0  0  0  0
  5  6  2  0  0  0  0
  5  7  1  0  0  0  0
  7  8  1  0  0  0  0
  7  9  1  0  0  0  0
  9 10  1  0  0  0  0
  9 11  1  0  0  0  0
  9 22  1  0  0  0  0
 11 12  1  0  0  0  0
 11 13  1  0  0  0  0
 11 14  1  0  0  0  0
 14 15  1  0  0  0  0
 14 16  1  0  0  0  0
 14 17  1  0  0  0  0
 17 18  2  0  0  0  0
 17 19  1  0  0  0  0
 19 20  1  0  0  0  0
 19 21  1  0  0  0  0
 22 23  2  0  0  0  0
 22 24  1  0  0  0  0
 24 25  1  0  0  0  0
 24 26  1  0  0  0  0
 26 27  1  0  0  0  0
 26 28  1  0  0  0  0
 26 29  1  0  0  0  0
M  END
$$$$

  -OEChem-02102214123D

 29 28  0     1  0  0  0  0  0999 V2000
   -2.3761   -4.6305    0.9864 H   0  0  0  0  0  0  0  0  0  0  0  0
   -2.4967   -3.7678    0.3250 C   0  0  0  0  0  0  0  0  0  0  0  0
   -3.4339   -3.2637    0.5722 H   0  0  0  0  0  0  0  0  0  0  0  0
   -2.5415   -4.1209   -0.7084 H   0  0  0  0  0  0  0  0  0  0  0  0
   -1.3299   -2.8131    0.4946 C   0  0  0  0  0  0  0  0  0  0  0  0
   -0.4180   -3.0997    1.2495 O   0  0  0  0  0  0  0  0  0  0  0  0
   -1.3217   -1.6182   -0.1998 N   0  0  0  0  0  0  0  0  0  0  0  0
   -2.0326   -1.5487   -0.9217 H   0  0  0  0  0  0  0  0  0  0  0  0
   -0.1132   -0.7855   -0.3701 C   0  0  1  0  0  0  0  0  0  0  0  0
    0.6346   -1.4367   -0.8373 H   0  0  0  0  0  0  0  0  0  0  0  0
   -0.3008    0.4306   -1.3207 C   0  0  0  0  0  0  0  0  0  0  0  0
   -0.3714    1.3291   -0.6971 H   0  0  0  0  0  0  0  0  0  0  0  0
    0.6118    0.5470   -1.9168 H   0  0  0  0  0  0  0  0  0  0  0  0
   -1.5486    0.4490   -2.2395 C   0  0  0  0  0  0  0  0  0  0  0  0
   -2.3532   -0.2039   -1.9027 H   0  0  0  0  0  0  0  0  0  0  0  0
   -1.9603    1.4621   -2.2348 H   0  0  0  0  0  0  0  0  0  0  0  0
   -1.1894    0.1199   -3.6812 C   0  0  0  0  0  0  0  0  0  0  0  0
   -1.4890   -0.9549   -4.1628 O   0  0  0  0  0  0  0  0  0  0  0  0
   -0.5442    1.0039   -4.4986 N   0  0  0  0  0  0  0  0  0  0  0  0
   -0.4571    0.7469   -5.4779 H   0  0  0  0  0  0  0  0  0  0  0  0
   -0.3903    1.9595   -4.1949 H   0  0  0  0  0  0  0  0  0  0  0  0
    0.5194   -0.2917    0.9519 C   0  0  0  0  0  0  0  0  0  0  0  0
    1.7225   -0.0693    0.9923 O   0  0  0  0  0  0  0  0  0  0  0  0
   -0.2903    0.2179    1.9507 N   0  0  0  0  0  0  0  0  0  0  0  0
   -1.2568   -0.0921    1.9263 H   0  0  0  0  0  0  0  0  0  0  0  0
    0.2455    0.7175    3.2108 C   0  0  0  0  0  0  0  0  0  0  0  0
    0.9271    1.5560    3.0337 H   0  0  0  0  0  0  0  0  0  0  0  0
   -0.5668    1.0658    3.8558 H   0  0  0  0  0  0  0  0  0  0  0  0
    0.7908   -0.0750    3.7345 H   0  0  0  0  0  0  0  0  0  0  0  0
  1  2  1  0  0  0  0
  2  3  1  0  0  0  0
  2  4  1  0  0  0  0
  2  5  1  0  0  0  0
  5  6  2  0  0  0  0
  5  7  1  0  0  0  0
  7  8  1  0  0  0  0
  7  9  1  0  0  0  0
  9 10  1  0  0  0  0
  9 11  1  0  0  0  0
  9 22  1  0  0  0  0
 11 12  1  0  0  0  0
 11 13  1  0  0  0  0
 11 14  1  0  0  0  0
 14 15  1  0  0  0  0
 14 16  1  0  0  0  0
 14 17  1  0  0  0  0
 17 18  2  0  0  0  0
 17 19  1  0  0  0  0
 19 20  1  0  0  0  0
 19 21  1  0  0  0  0
 22 23  2  0  0  0  0
 22 24  1  0  0  0  0
 24 25  1  0  0  0  0
 24 26  1  0  0  0  0
 26 27  1  0  0  0  0
 26 28  1  0  0  0  0
 26 29  1  0  0  0  0
M  END
$$$$

  -OEChem-02102214123D

 29 28  0     1  0  0  0  0  0999 V2000
   -2.4077   -4.6159    0.8668 H   0  0  0  0  0  0  0  0  0  0  0  0
   -2.5243   -3.7217    0.2480 C   0  0  0  0  0  0  0  0  0  0  0  0
   -3.4659   -3.2328    0.5088 H   0  0  0  0  0  0  0  0  0  0  0  0
   -2.5566   -4.0228   -0.8022 H   0  0  0  0  0  0  0  0  0  0  0  0
   -1.3642   -2.7718    0.4779 C   0  0  0  0  0  0  0  0  0  0  0  0
   -0.4814   -3.0719    1.2620 O   0  0  0  0  0  0  0  0  0  0  0  0
   -1.3321   -1.5664   -0.1962 N   0  0  0  0  0  0  0  0  0  0  0  0
   -2.0027   -1.5103   -0.9595 H   0  0  0  0  0  0  0  0  0  0  0  0
   -0.1030   -0.7632   -0.3566 C   0  0  1  0  0  0  0  0  0  0  0  0
    0.6265   -1.4188   -0.8456 H   0  0  0  0  0  0  0  0  0  0  0  0
   -0.2892    0.4745   -1.2771 C   0  0  0  0  0  0  0  0  0  0  0  0
   -0.3387    1.3639   -0.6385 H   0  0  0  0  0  0  0  0  0  0  0  0
    0.6052    0.5917   -1.8997 H   0  0  0  0  0  0  0  0  0  0  0  0
   -1.5610    0.4993   -2.1544 C   0  0  0  0  0  0  0  0  0  0  0  0
   -2.4355    0.0722   -1.6600 H   0  0  0  0  0  0  0  0  0  0  0  0
   -1.8124    1.5444   -2.3555 H   0  0  0  0  0  0  0  0  0  0  0  0
   -1.3191   -0.1655   -3.4990 C   0  0  0  0  0  0  0  0  0  0  0  0
   -1.6809   -1.3122   -3.6794 O   0  0  0  0  0  0  0  0  0  0  0  0
   -0.6908    0.4629   -4.5359 N   0  0  0  0  0  0  0  0  0  0  0  0
   -0.6773   -0.0229   -5.4285 H   0  0  0  0  0  0  0  0  0  0  0  0
   -0.4901    1.4558   -4.4812 H   0  0  0  0  0  0  0  0  0  0  0  0
    0.5509   -0.3070    0.9679 C   0  0  0  0  0  0  0  0  0  0  0  0
    1.7596   -0.1157    1.0029 O   0  0  0  0  0  0  0  0  0  0  0  0
   -0.2396    0.2076    1.9791 N   0  0  0  0  0  0  0  0  0  0  0  0
   -1.2113   -0.0864    1.9581 H   0  0  0  0  0  0  0  0  0  0  0  0
    0.3164    0.6677    3.2450 C   0  0  0  0  0  0  0  0  0  0  0  0
    1.0173    1.4927    3.0797 H   0  0  0  0  0  0  0  0  0  0  0  0
   -0.4831    1.0223    3.9022 H   0  0  0  0  0  0  0  0  0  0  0  0
    0.8452   -0.1486    3.7485 H   0  0  0  0  0  0  0  0  0  0  0  0
  1  2  1  0  0  0  0
  2  3  1  0  0  0  0
  2  4  1  0  0  0  0
  2  5  1  0  0  0  0
  5  6  2  0  0  0  0
  5  7  1  0  0  0  0
  7  8  1  0  0  0  0
  7  9  1  0  0  0  0
  9 10  1  0  0  0  0
  9 11  1  0  0  0  0
  9 22  1  0  0  0  0
 11 12  1  0  0  0  0
 11 13  1  0  0  0  0
 11 14  1  0  0  0  0
 14 15  1  0  0  0  0
 14 16  1  0  0  0  0
 14 17  1  0  0  0  0
 17 18  2  0  0  0  0
 17 19  1  0  0  0  0
 19 20  1  0  0  0  0
 19 21  1  0  0  0  0
 22 23  2  0  0  0  0
 22 24  1  0  0  0  0
 24 25  1  0  0  0  0
 24 26  1  0  0  0  0
 26 27  1  0  0  0  0
 26 28  1  0  0  0  0
 26 29  1  0  0  0  0
M  END
$$$$

  -OEChem-02102214123D

 29 28  0     1  0  0  0  0  0999 V2000
   -2.4375   -4.6029    0.7497 H   0  0  0  0  0  0  0  0  0  0  0  0
   -2.5564   -3.6776    0.1789 C   0  0  0  0  0  0  0  0  0  0  0  0
   -3.4991   -3.2049    0.4644 H   0  0  0  0  0  0  0  0  0  0  0  0
   -2.5880   -3.9228   -0.8859 H   0  0  0  0  0  0  0  0  0  0  0  0
   -1.3990   -2.7374    0.4572 C   0  0  0  0  0  0  0  0  0  0  0  0
   -0.5373   -3.0548    1.2585 O   0  0  0  0  0  0  0  0  0  0  0  0
   -1.3453   -1.5224   -0.1969 N   0  0  0  0  0  0  0  0  0  0  0  0
   -1.9894   -1.4725   -0.9872 H   0  0  0  0  0  0  0  0  0  0  0  0
   -0.0982   -0.7441   -0.3483 C   0  0  1  0  0  0  0  0  0  0  0  0
    0.6150   -1.4024   -0.8577 H   0  0  0  0  0  0  0  0  0  0  0  0
   -0.2807    0.5163   -1.2380 C   0  0  0  0  0  0  0  0  0  0  0  0
   -0.2996    1.3995   -0.5893 H   0  0  0  0  0  0  0  0  0  0  0  0
    0.5971    0.6221   -1.8854 H   0  0  0  0  0  0  0  0  0  0  0  0
   -1.5695    0.5588   -2.0844 C   0  0  0  0  0  0  0  0  0  0  0  0
   -2.4572    0.3458   -1.4825 H   0  0  0  0  0  0  0  0  0  0  0  0
   -1.6960    1.5730   -2.4728 H   0  0  0  0  0  0  0  0  0  0  0  0
   -1.4895   -0.3846   -3.2734 C   0  0  0  0  0  0  0  0  0  0  0  0
   -1.9778   -1.4967   -3.1902 O   0  0  0  0  0  0  0  0  0  0  0  0
   -0.8619   -0.0583   -4.4414 N   0  0  0  0  0  0  0  0  0  0  0  0
   -0.9471   -0.7158   -5.2117 H   0  0  0  0  0  0  0  0  0  0  0  0
   -0.5511    0.8940   -4.6027 H   0  0  0  0  0  0  0  0  0  0  0  0
    0.5748   -0.3231    0.9779 C   0  0  0  0  0  0  0  0  0  0  0  0
    1.7876   -0.1570    1.0055 O   0  0  0  0  0  0  0  0  0  0  0  0
   -0.1978    0.1938    2.0014 N   0  0  0  0  0  0  0  0  0  0  0  0
   -1.1746   -0.0835    1.9843 H   0  0  0  0  0  0  0  0  0  0  0  0
    0.3758    0.6309    3.2677 C   0  0  0  0  0  0  0  0  0  0  0  0
    1.0908    1.4442    3.1054 H   0  0  0  0  0  0  0  0  0  0  0  0
   -0.4123    0.9938    3.9341 H   0  0  0  0  0  0  0  0  0  0  0  0
    0.8928   -0.2000    3.7594 H   0  0  0  0  0  0  0  0  0  0  0  0
  1  2  1  0  0  0  0
  2  3  1  0  0  0  0
  2  4  1  0  0  0  0
  2  5  1  0  0  0  0
  5  6  2  0  0  0  0
  5  7  1  0  0  0  0
  7  8  1  0  0  0  0
  7  9  1  0  0  0  0
  9 10  1  0  0  0  0
  9 11  1  0  0  0  0
  9 22  1  0  0  0  0
 11 12  1  0  0  0  0
 11 13  1  0  0  0  0
 11 14  1  0  0  0  0
 14 15  1  0  0  0  0
 14 16  1  0  0  0  0
 14 17  1  0  0  0  0
 17 18  2  0  0  0  0
 17 19  1  0  0  0  0
 19 20  1  0  0  0  0
 19 21  1  0  0  0  0
 22 23  2  0  0  0  0
 22 24  1  0  0  0  0
 24 25  1  0  0  0  0
 24 26  1  0  0  0  0
 26 27  1  0  0  0  0
 26 28  1  0  0  0  0
 26 29  1  0  0  0  0
M  END
$$$$

  -OEChem-02102214123D

 29 28  0     1  0  0  0  0  0999 V2000
   -2.3778   -4.6266    0.6843 H   0  0  0  0  0  0  0  0  0  0  0  0
   -2.5455   -3.6674    0.1865 C   0  0  0  0  0  0  0  0  0  0  0  0
   -3.4548   -3.2143    0.5880 H   0  0  0  0  0  0  0  0  0  0  0  0
   -2.6788   -3.8448   -0.8838 H   0  0  0  0  0  0  0  0  0  0  0  0
   -1.3630   -2.7451    0.4136 C   0  0  0  0  0  0  0  0  0  0  0  0
   -0.4474   -3.0959    1.1378 O   0  0  0  0  0  0  0  0  0  0  0  0
   -1.3412   -1.5103   -0.2033 N   0  0  0  0  0  0  0  0  0  0  0  0
   -2.0468   -1.4150   -0.9365 H   0  0  0  0  0  0  0  0  0  0  0  0
   -0.1140   -0.7012   -0.3576 C   0  0  1  0  0  0  0  0  0  0  0  0
    0.6016   -1.3361   -0.8924 H   0  0  0  0  0  0  0  0  0  0  0  0
   -0.3241    0.5756   -1.2176 C   0  0  0  0  0  0  0  0  0  0  0  0
   -0.3346    1.4492   -0.5558 H   0  0  0  0  0  0  0  0  0  0  0  0
    0.5455    0.6903   -1.8739 H   0  0  0  0  0  0  0  0  0  0  0  0
   -1.6134    0.6381   -2.0626 C   0  0  0  0  0  0  0  0  0  0  0  0
   -2.4887    0.6200   -1.4062 H   0  0  0  0  0  0  0  0  0  0  0  0
   -1.6385    1.5870   -2.6049 H   0  0  0  0  0  0  0  0  0  0  0  0
   -1.7179   -0.4972   -3.0733 C   0  0  0  0  0  0  0  0  0  0  0  0
   -2.4655   -1.4368   -2.8697 O   0  0  0  0  0  0  0  0  0  0  0  0
   -0.9731   -0.5343   -4.2168 N   0  0  0  0  0  0  0  0  0  0  0  0
   -1.1873   -1.2702   -4.8844 H   0  0  0  0  0  0  0  0  0  0  0  0
   -0.4312    0.2772   -4.4954 H   0  0  0  0  0  0  0  0  0  0  0  0
    0.5745   -0.3070    0.9685 C   0  0  0  0  0  0  0  0  0  0  0  0
    1.7844   -0.1190    0.9798 O   0  0  0  0  0  0  0  0  0  0  0  0
   -0.1889    0.1616    2.0218 N   0  0  0  0  0  0  0  0  0  0  0  0
   -1.1639   -0.1225    2.0102 H   0  0  0  0  0  0  0  0  0  0  0  0
    0.3989    0.5729    3.2899 C   0  0  0  0  0  0  0  0  0  0  0  0
    1.0811    1.4165    3.1412 H   0  0  0  0  0  0  0  0  0  0  0  0
   -0.3851    0.8834    3.9868 H   0  0  0  0  0  0  0  0  0  0  0  0
    0.9560   -0.2559    3.7395 H   0  0  0  0  0  0  0  0  0  0  0  0
  1  2  1  0  0  0  0
  2  3  1  0  0  0  0
  2  4  1  0  0  0  0
  2  5  1  0  0  0  0
  5  6  2  0  0  0  0
  5  7  1  0  0  0  0
  7  8  1  0  0  0  0
  7  9  1  0  0  0  0
  9 10  1  0  0  0  0
  9 11  1  0  0  0  0
  9 22  1  0  0  0  0
 11 12  1  0  0  0  0
 11 13  1  0  0  0  0
 11 14  1  0  0  0  0
 14 15  1  0  0  0  0
 14 16  1  0  0  0  0
 14 17  1  0  0  0  0
 17 18  2  0  0  0  0
 17 19  1  0  0  0  0
 19 20  1  0  0  0  0
 19 21  1  0  0  0  0
 22 23  2  0  0  0  0
 22 24  1  0  0  0  0
 24 25  1  0  0  0  0
 24 26  1  0  0  0  0
 26 27  1  0  0  0  0
 26 28  1  0  0  0  0
 26 29  1  0  0  0  0
M  END
$$$$

  -OEChem-02102214123D

 29 28  0     1  0  0  0  0  0999 V2000
   -2.4851   -4.5895    0.7818 H   0  0  0  0  0  0  0  0  0  0  0  0
   -2.5163   -3.6927    0.1569 C   0  0  0  0  0  0  0  0  0  0  0  0
   -3.4905   -3.2128    0.2748 H   0  0  0  0  0  0  0  0  0  0  0  0
   -2.3869   -3.9873   -0.8879 H   0  0  0  0  0  0  0  0  0  0  0  0
   -1.4128   -2.7339    0.5618 C   0  0  0  0  0  0  0  0  0  0  0  0
   -0.7055   -2.9962    1.5192 O   0  0  0  0  0  0  0  0  0  0  0  0
   -1.2469   -1.5617   -0.1494 N   0  0  0  0  0  0  0  0  0  0  0  0
   -1.7433   -1.5940   -1.0386 H   0  0  0  0  0  0  0  0  0  0  0  0
    0.0437   -0.8488   -0.2089 C   0  0  1  0  0  0  0  0  0  0  0  0
    0.7712   -1.5654   -0.6069 H   0  0  0  0  0  0  0  0  0  0  0  0
    0.0327    0.3813   -1.1640 C   0  0  0  0  0  0  0  0  0  0  0  0
    0.0563    1.2947   -0.5589 H   0  0  0  0  0  0  0  0  0  0  0  0
    0.9814    0.3517   -1.7110 H   0  0  0  0  0  0  0  0  0  0  0  0
   -1.0999    0.5822   -2.2088 C   0  0  0  0  0  0  0  0  0  0  0  0
   -1.9820    0.9369   -1.6685 H   0  0  0  0  0  0  0  0  0  0  0  0
   -0.7899    1.3838   -2.8847 H   0  0  0  0  0  0  0  0  0  0  0  0
   -1.5636   -0.5962   -3.0690 C   0  0  0  0  0  0  0  0  0  0  0  0
   -1.2126   -1.7495   -2.9155 O   0  0  0  0  0  0  0  0  0  0  0  0
   -2.4613   -0.4075   -4.0790 N   0  0  0  0  0  0  0  0  0  0  0  0
   -2.5815   -1.1919   -4.7142 H   0  0  0  0  0  0  0  0  0  0  0  0
   -2.6413    0.5373   -4.4028 H   0  0  0  0  0  0  0  0  0  0  0  0
    0.5915   -0.3858    1.1614 C   0  0  0  0  0  0  0  0  0  0  0  0
    1.8013   -0.2754    1.3174 O   0  0  0  0  0  0  0  0  0  0  0  0
   -0.2602    0.2183    2.0681 N   0  0  0  0  0  0  0  0  0  0  0  0
   -1.2395   -0.0288    1.9610 H   0  0  0  0  0  0  0  0  0  0  0  0
    0.1954    0.6830    3.3718 C   0  0  0  0  0  0  0  0  0  0  0  0
    0.9677    1.4508    3.2583 H   0  0  0  0  0  0  0  0  0  0  0  0
   -0.6395    1.1154    3.9312 H   0  0  0  0  0  0  0  0  0  0  0  0
    0.6092   -0.1496    3.9506 H   0  0  0  0  0  0  0  0  0  0  0  0
  1  2  1  0  0  0  0
  2  3  1  0  0  0  0
  2  4  1  0  0  0  0
  2  5  1  0  0  0  0
  5  6  2  0  0  0  0
  5  7  1  0  0  0  0
  7  8  1  0  0  0  0
  7  9  1  0  0  0  0
  9 10  1  0  0  0  0
  9 11  1  0  0  0  0
  9 22  1  0  0  0  0
 11 12  1  0  0  0  0
 11 13  1  0  0  0  0
 11 14  1  0  0  0  0
 14 15  1  0  0  0  0
 14 16  1  0  0  0  0
 14 17  1  0  0  0  0
 17 18  2  0  0  0  0
 17 19  1  0  0  0  0
 19 20  1  0  0  0  0
 19 21  1  0  0  0  0
 22 23  2  0  0  0  0
 22 24  1  0  0  0  0
 24 25  1  0  0  0  0
 24 26  1  0  0  0  0
 26 27  1  0  0  0  0
 26 28  1  0  0  0  0
 26 29  1  0  0  0  0
M  END
$$$$

  -OEChem-02102214123D

 29 28  0     1  0  0  0  0  0999 V2000
   -2.5105   -4.5747    0.8296 H   0  0  0  0  0  0  0  0  0  0  0  0
   -2.4886   -3.7163    0.1522 C   0  0  0  0  0  0  0  0  0  0  0  0
   -3.4570   -3.2118    0.1898 H   0  0  0  0  0  0  0  0  0  0  0  0
   -2.3116   -4.0751   -0.8651 H   0  0  0  0  0  0  0  0  0  0  0  0
   -1.3870   -2.7558    0.5582 C   0  0  0  0  0  0  0  0  0  0  0  0
   -0.6898   -3.0091    1.5252 O   0  0  0  0  0  0  0  0  0  0  0  0
   -1.2132   -1.5913   -0.1642 N   0  0  0  0  0  0  0  0  0  0  0  0
   -1.6988   -1.6362   -1.0579 H   0  0  0  0  0  0  0  0  0  0  0  0
    0.0723   -0.8674   -0.2054 C   0  0  1  0  0  0  0  0  0  0  0  0
    0.8128   -1.5878   -0.5715 H   0  0  0  0  0  0  0  0  0  0  0  0
    0.1016    0.3547   -1.1756 C   0  0  0  0  0  0  0  0  0  0  0  0
    0.1281    1.2742   -0.5795 H   0  0  0  0  0  0  0  0  0  0  0  0
    1.0685    0.2989   -1.6876 H   0  0  0  0  0  0  0  0  0  0  0  0
   -0.9765    0.5836   -2.2751 C   0  0  0  0  0  0  0  0  0  0  0  0
   -1.7649    1.1877   -1.8173 H   0  0  0  0  0  0  0  0  0  0  0  0
   -0.5307    1.1870   -3.0707 H   0  0  0  0  0  0  0  0  0  0  0  0
   -1.6812   -0.6025   -2.9313 C   0  0  0  0  0  0  0  0  0  0  0  0
   -1.2311   -1.7312   -2.9614 O   0  0  0  0  0  0  0  0  0  0  0  0
   -2.9139   -0.4640   -3.4996 N   0  0  0  0  0  0  0  0  0  0  0  0
   -3.2222   -1.2445   -4.0735 H   0  0  0  0  0  0  0  0  0  0  0  0
   -3.2530    0.4717   -3.6994 H   0  0  0  0  0  0  0  0  0  0  0  0
    0.5799   -0.3844    1.1740 C   0  0  0  0  0  0  0  0  0  0  0  0
    1.7842   -0.2620    1.3604 O   0  0  0  0  0  0  0  0  0  0  0  0
   -0.3003    0.2215    2.0521 N   0  0  0  0  0  0  0  0  0  0  0  0
   -1.2747   -0.0339    1.9224 H   0  0  0  0  0  0  0  0  0  0  0  0
    0.1176    0.7093    3.3601 C   0  0  0  0  0  0  0  0  0  0  0  0
    0.8937    1.4748    3.2551 H   0  0  0  0  0  0  0  0  0  0  0  0
   -0.7321    1.1525    3.8877 H   0  0  0  0  0  0  0  0  0  0  0  0
    0.5134   -0.1131    3.9653 H   0  0  0  0  0  0  0  0  0  0  0  0
  1  2  1  0  0  0  0
  2  3  1  0  0  0  0
  2  4  1  0  0  0  0
  2  5  1  0  0  0  0
  5  6  2  0  0  0  0
  5  7  1  0  0  0  0
  7  8  1  0  0  0  0
  7  9  1  0  0  0  0
  9 10  1  0  0  0  0
  9 11  1  0  0  0  0
  9 22  1  0  0  0  0
 11 12  1  0  0  0  0
 11 13  1  0  0  0  0
 11 14  1  0  0  0  0
 14 15  1  0  0  0  0
 14 16  1  0  0  0  0
 14 17  1  0  0  0  0
 17 18  2  0  0  0  0
 17 19  1  0  0  0  0
 19 20  1  0  0  0  0
 19 21  1  0  0  0  0
 22 23  2  0  0  0  0
 22 24  1  0  0  0  0
 24 25  1  0  0  0  0
 24 26  1  0  0  0  0
 26 27  1  0  0  0  0
 26 28  1  0  0  0  0
 26 29  1  0  0  0  0
M  END
$$$$

  -OEChem-02102214123D

 29 28  0     1  0  0  0  0  0999 V2000
   -2.4197   -4.6402    0.8203 H   0  0  0  0  0  0  0  0  0  0  0  0
   -2.4654   -3.7476    0.1900 C   0  0  0  0  0  0  0  0  0  0  0  0
   -3.4416   -3.2739    0.3173 H   0  0  0  0  0  0  0  0  0  0  0  0
   -2.3471   -4.0487   -0.8542 H   0  0  0  0  0  0  0  0  0  0  0  0
   -1.3643   -2.7776    0.5736 C   0  0  0  0  0  0  0  0  0  0  0  0
   -0.6544   -3.0183    1.5344 O   0  0  0  0  0  0  0  0  0  0  0  0
   -1.1980   -1.6252   -0.1694 N   0  0  0  0  0  0  0  0  0  0  0  0
   -1.6951   -1.6824   -1.0565 H   0  0  0  0  0  0  0  0  0  0  0  0
    0.0777   -0.8843   -0.2178 C   0  0  1  0  0  0  0  0  0  0  0  0
    0.8287   -1.6078   -0.5553 H   0  0  0  0  0  0  0  0  0  0  0  0
    0.1327    0.3204   -1.2129 C   0  0  0  0  0  0  0  0  0  0  0  0
    0.1482    1.2467   -0.6271 H   0  0  0  0  0  0  0  0  0  0  0  0
    1.1162    0.2562   -1.6918 H   0  0  0  0  0  0  0  0  0  0  0  0
   -0.9044    0.5595   -2.3532 C   0  0  0  0  0  0  0  0  0  0  0  0
   -1.5329    1.3966   -2.0366 H   0  0  0  0  0  0  0  0  0  0  0  0
   -0.3615    0.8925   -3.2424 H   0  0  0  0  0  0  0  0  0  0  0  0
   -1.8531   -0.5506   -2.7929 C   0  0  0  0  0  0  0  0  0  0  0  0
   -1.4969   -1.6985   -2.9758 O   0  0  0  0  0  0  0  0  0  0  0  0
   -3.1967   -0.3404   -2.9092 N   0  0  0  0  0  0  0  0  0  0  0  0
   -3.7190   -1.0804   -3.3709 H   0  0  0  0  0  0  0  0  0  0  0  0
   -3.5337    0.6160   -2.9561 H   0  0  0  0  0  0  0  0  0  0  0  0
    0.5599   -0.3719    1.1602 C   0  0  0  0  0  0  0  0  0  0  0  0
    1.7595   -0.2324    1.3635 O   0  0  0  0  0  0  0  0  0  0  0  0
   -0.3423    0.2341    2.0154 N   0  0  0  0  0  0  0  0  0  0  0  0
   -1.3120   -0.0300    1.8693 H   0  0  0  0  0  0  0  0  0  0  0  0
    0.0464    0.7361    3.3269 C   0  0  0  0  0  0  0  0  0  0  0  0
    0.8056    1.5193    3.2295 H   0  0  0  0  0  0  0  0  0  0  0  0
   -0.8210    1.1599    3.8416 H   0  0  0  0  0  0  0  0  0  0  0  0
    0.4535   -0.0748    3.9401 H   0  0  0  0  0  0  0  0  0  0  0  0
  1  2  1  0  0  0  0
  2  3  1  0  0  0  0
  2  4  1  0  0  0  0
  2  5  1  0  0  0  0
  5  6  2  0  0  0  0
  5  7  1  0  0  0  0
  7  8  1  0  0  0  0
  7  9  1  0  0  0  0
  9 10  1  0  0  0  0
  9 11  1  0  0  0  0
  9 22  1  0  0  0  0
 11 12  1  0  0  0  0
 11 13  1  0  0  0  0
 11 14  1  0  0  0  0
 14 15  1  0  0  0  0
 14 16  1  0  0  0  0
 14 17  1  0  0  0  0
 17 18  2  0  0  0  0
 17 19  1  0  0  0  0
 19 20  1  0  0  0  0
 19 21  1  0  0  0  0
 22 23  2  0  0  0  0
 22 24  1  0  0  0  0
 24 25  1  0  0  0  0
 24 26  1  0  0  0  0
 26 27  1  0  0  0  0
 26 28  1  0  0  0  0
 26 29  1  0  0  0  0
M  END
$$$$

  -OEChem-02102214123D

 29 28  0     1  0  0  0  0  0999 V2000
   -2.4521   -4.6505    0.8680 H   0  0  0  0  0  0  0  0  0  0  0  0
   -2.5255   -3.7443    0.2602 C   0  0  0  0  0  0  0  0  0  0  0  0
   -3.4799   -3.2548    0.4676 H   0  0  0  0  0  0  0  0  0  0  0  0
   -2.4903   -4.0256   -0.7955 H   0  0  0  0  0  0  0  0  0  0  0  0
   -1.3800   -2.8038    0.5823 C   0  0  0  0  0  0  0  0  0  0  0  0
   -0.6260   -3.0626    1.5040 O   0  0  0  0  0  0  0  0  0  0  0  0
   -1.2205   -1.6562   -0.1698 N   0  0  0  0  0  0  0  0  0  0  0  0
   -1.7673   -1.6896   -1.0295 H   0  0  0  0  0  0  0  0  0  0  0  0
    0.0570   -0.9221   -0.2538 C   0  0  1  0  0  0  0  0  0  0  0  0
    0.7933   -1.6593   -0.5941 H   0  0  0  0  0  0  0  0  0  0  0  0
    0.1246    0.2681   -1.2683 C   0  0  0  0  0  0  0  0  0  0  0  0
    0.1252    1.1923   -0.6789 H   0  0  0  0  0  0  0  0  0  0  0  0
    1.1153    0.2151   -1.7332 H   0  0  0  0  0  0  0  0  0  0  0  0
   -0.9076    0.5225   -2.4115 C   0  0  0  0  0  0  0  0  0  0  0  0
   -1.3066    1.5319   -2.2788 H   0  0  0  0  0  0  0  0  0  0  0  0
   -0.3569    0.5289   -3.3568 H   0  0  0  0  0  0  0  0  0  0  0  0
   -2.0931   -0.4115   -2.6155 C   0  0  0  0  0  0  0  0  0  0  0  0
   -1.9651   -1.5854   -2.9070 O   0  0  0  0  0  0  0  0  0  0  0  0
   -3.3738   -0.0124   -2.3623 N   0  0  0  0  0  0  0  0  0  0  0  0
   -4.1046   -0.6410   -2.6848 H   0  0  0  0  0  0  0  0  0  0  0  0
   -3.5641    0.9816   -2.2841 H   0  0  0  0  0  0  0  0  0  0  0  0
    0.5725   -0.4050    1.1108 C   0  0  0  0  0  0  0  0  0  0  0  0
    1.7769   -0.2652    1.2825 O   0  0  0  0  0  0  0  0  0  0  0  0
   -0.3056    0.2098    1.9848 N   0  0  0  0  0  0  0  0  0  0  0  0
   -1.2798   -0.0518    1.8677 H   0  0  0  0  0  0  0  0  0  0  0  0
    0.1198    0.7317    3.2771 C   0  0  0  0  0  0  0  0  0  0  0  0
    0.8814    1.5077    3.1467 H   0  0  0  0  0  0  0  0  0  0  0  0
   -0.7312    1.1712    3.8057 H   0  0  0  0  0  0  0  0  0  0  0  0
    0.5370   -0.0711    3.8943 H   0  0  0  0  0  0  0  0  0  0  0  0
  1  2  1  0  0  0  0
  2  3  1  0  0  0  0
  2  4  1  0  0  0  0
  2  5  1  0  0  0  0
  5  6  2  0  0  0  0
  5  7  1  0  0  0  0
  7  8  1  0  0  0  0
  7  9  1  0  0  0  0
  9 10  1  0  0  0  0
  9 11  1  0  0  0  0
  9 22  1  0  0  0  0
 11 12  1  0  0  0  0
 11 13  1  0  0  0  0
 11 14  1  0  0  0  0
 14 15  1  0  0  0  0
 14 16  1  0  0  0  0
 14 17  1  0  0  0  0
 17 18  2  0  0  0  0
 17 19  1  0  0  0  0
 19 20  1  0  0  0  0
 19 21  1  0  0  0  0
 22 23  2  0  0  0  0
 22 24  1  0  0  0  0
 24 25  1  0  0  0  0
 24 26  1  0  0  0  0
 26 27  1  0  0  0  0
 26 28  1  0  0  0  0
 26 29  1  0  0  0  0
M  END
$$$$

  -OEChem-02102214123D

 29 28  0     1  0  0  0  0  0999 V2000
   -1.7782   -4.7425    1.2115 H   0  0  0  0  0  0  0  0  0  0  0  0
   -1.9954   -3.9268    0.5162 C   0  0  0  0  0  0  0  0  0  0  0  0
   -3.0029   -3.5529    0.7128 H   0  0  0  0  0  0  0  0  0  0  0  0
   -1.9516   -4.3130   -0.5054 H   0  0  0  0  0  0  0  0  0  0  0  0
   -0.9849   -2.8089    0.6885 C   0  0  0  0  0  0  0  0  0  0  0  0
   -0.1227   -2.8977    1.5450 O   0  0  0  0  0  0  0  0  0  0  0  0
   -1.0667   -1.6964   -0.1257 N   0  0  0  0  0  0  0  0  0  0  0  0
   -1.6838   -1.8451   -0.9243 H   0  0  0  0  0  0  0  0  0  0  0  0
    0.0506   -0.7533   -0.3260 C   0  0  1  0  0  0  0  0  0  0  0  0
    0.8890   -1.3707   -0.6685 H   0  0  0  0  0  0  0  0  0  0  0  0
   -0.1364    0.3625   -1.4082 C   0  0  0  0  0  0  0  0  0  0  0  0
   -0.3036    1.2967   -0.8599 H   0  0  0  0  0  0  0  0  0  0  0  0
    0.8288    0.4830   -1.9125 H   0  0  0  0  0  0  0  0  0  0  0  0
   -1.2457    0.3558   -2.5046 C   0  0  0  0  0  0  0  0  0  0  0  0
   -1.6211    1.3764   -2.6211 H   0  0  0  0  0  0  0  0  0  0  0  0
   -0.7613    0.0937   -3.4503 H   0  0  0  0  0  0  0  0  0  0  0  0
   -2.4414   -0.5779   -2.3802 C   0  0  0  0  0  0  0  0  0  0  0  0
   -2.3774   -1.7638   -2.6458 O   0  0  0  0  0  0  0  0  0  0  0  0
   -3.6308   -0.1559   -1.8602 N   0  0  0  0  0  0  0  0  0  0  0  0
   -4.4148   -0.7934   -1.9701 H   0  0  0  0  0  0  0  0  0  0  0  0
   -3.7993    0.8420   -1.7801 H   0  0  0  0  0  0  0  0  0  0  0  0
    0.5317   -0.0743    0.9785 C   0  0  0  0  0  0  0  0  0  0  0  0
    1.6973    0.2895    1.0702 O   0  0  0  0  0  0  0  0  0  0  0  0
   -0.3982    0.4236    1.8727 N   0  0  0  0  0  0  0  0  0  0  0  0
   -1.3160   -0.0086    1.8226 H   0  0  0  0  0  0  0  0  0  0  0  0
   -0.0103    1.0832    3.1130 C   0  0  0  0  0  0  0  0  0  0  0  0
    0.5871    1.9765    2.9026 H   0  0  0  0  0  0  0  0  0  0  0  0
   -0.8991    1.3885    3.6732 H   0  0  0  0  0  0  0  0  0  0  0  0
    0.5794    0.4044    3.7382 H   0  0  0  0  0  0  0  0  0  0  0  0
  1  2  1  0  0  0  0
  2  3  1  0  0  0  0
  2  4  1  0  0  0  0
  2  5  1  0  0  0  0
  5  6  2  0  0  0  0
  5  7  1  0  0  0  0
  7  8  1  0  0  0  0
  7  9  1  0  0  0  0
  9 10  1  0  0  0  0
  9 11  1  0  0  0  0
  9 22  1  0  0  0  0
 11 12  1  0  0  0  0
 11 13  1  0  0  0  0
 11 14  1  0  0  0  0
 14 15  1  0  0  0  0
 14 16  1  0  0  0  0
 14 17  1  0  0  0  0
 17 18  2  0  0  0  0
 17 19  1  0  0  0  0
 19 20  1  0  0  0  0
 19 21  1  0  0  0  0
 22 23  2  0  0  0  0
 22 24  1  0  0  0  0
 24 25  1  0  0  0  0
 24 26  1  0  0  0  0
 26 27  1  0  0  0  0
 26 28  1  0  0  0  0
 26 29  1  0  0  0  0
M  END
$$$$

  -OEChem-02102214123D

 29 28  0     1  0  0  0  0  0999 V2000
   -2.0685   -4.6447    0.6873 H   0  0  0  0  0  0  0  0  0  0  0  0
   -2.3162   -3.6435    0.3233 C   0  0  0  0  0  0  0  0  0  0  0  0
   -2.9261   -3.1361    1.0748 H   0  0  0  0  0  0  0  0  0  0  0  0
   -2.8918   -3.7360   -0.6008 H   0  0  0  0  0  0  0  0  0  0  0  0
   -1.0479   -2.8530    0.0644 C   0  0  0  0  0  0  0  0  0  0  0  0
    0.0407   -3.3762    0.2273 O   0  0  0  0  0  0  0  0  0  0  0  0
   -1.1380   -1.5411   -0.3545 N   0  0  0  0  0  0  0  0  0  0  0  0
   -2.0731   -1.1319   -0.3129 H   0  0  0  0  0  0  0  0  0  0  0  0
    0.0057   -0.6156   -0.4102 C   0  0  1  0  0  0  0  0  0  0  0  0
    0.7581   -1.1270   -1.0215 H   0  0  0  0  0  0  0  0  0  0  0  0
   -0.2334    0.7600   -1.1076 C   0  0  0  0  0  0  0  0  0  0  0  0
   -0.3073    1.5005   -0.3028 H   0  0  0  0  0  0  0  0  0  0  0  0
    0.6735    1.0109   -1.6685 H   0  0  0  0  0  0  0  0  0  0  0  0
   -1.4641    1.0459   -2.0171 C   0  0  0  0  0  0  0  0  0  0  0  0
   -1.6598    2.1220   -2.0105 H   0  0  0  0  0  0  0  0  0  0  0  0
   -1.1681    0.7820   -3.0362 H   0  0  0  0  0  0  0  0  0  0  0  0
   -2.7836    0.3296   -1.7492 C   0  0  0  0  0  0  0  0  0  0  0  0
   -3.2741    0.2656   -0.6349 O   0  0  0  0  0  0  0  0  0  0  0  0
   -3.4609   -0.3363   -2.7299 N   0  0  0  0  0  0  0  0  0  0  0  0
   -4.4052   -0.6348   -2.5026 H   0  0  0  0  0  0  0  0  0  0  0  0
   -3.1931   -0.1891   -3.6980 H   0  0  0  0  0  0  0  0  0  0  0  0
    0.6716   -0.3927    0.9657 C   0  0  0  0  0  0  0  0  0  0  0  0
    1.8731   -0.1701    1.0334 O   0  0  0  0  0  0  0  0  0  0  0  0
   -0.1177   -0.1706    2.0798 N   0  0  0  0  0  0  0  0  0  0  0  0
   -1.1172   -0.3172    1.9741 H   0  0  0  0  0  0  0  0  0  0  0  0
    0.4219    0.1420    3.3965 C   0  0  0  0  0  0  0  0  0  0  0  0
    0.9724    1.0881    3.3705 H   0  0  0  0  0  0  0  0  0  0  0  0
   -0.3890    0.2335    4.1253 H   0  0  0  0  0  0  0  0  0  0  0  0
    1.0992   -0.6513    3.7298 H   0  0  0  0  0  0  0  0  0  0  0  0
  1  2  1  0  0  0  0
  2  3  1  0  0  0  0
  2  4  1  0  0  0  0
  2  5  1  0  0  0  0
  5  6  2  0  0  0  0
  5  7  1  0  0  0  0
  7  8  1  0  0  0  0
  7  9  1  0  0  0  0
  9 10  1  0  0  0  0
  9 11  1  0  0  0  0
  9 22  1  0  0  0  0
 11 12  1  0  0  0  0
 11 13  1  0  0  0  0
 11 14  1  0  0  0  0
 14 15  1  0  0  0  0
 14 16  1  0  0  0  0
 14 17  1  0  0  0  0
 17 18  2  0  0  0  0
 17 19  1  0  0  0  0
 19 20  1  0  0  0  0
 19 21  1  0  0  0  0
 22 23  2  0  0  0  0
 22 24  1  0  0  0  0
 24 25  1  0  0  0  0
 24 26  1  0  0  0  0
 26 27  1  0  0  0  0
 26 28  1  0  0  0  0
 26 29  1  0  0  0  0
M  END
$$$$

  -OEChem-02102214123D

 29 28  0     1  0  0  0  0  0999 V2000
   -2.4621   -4.4318    0.9525 H   0  0  0  0  0  0  0  0  0  0  0  0
   -2.5793   -3.4686    0.4481 C   0  0  0  0  0  0  0  0  0  0  0  0
   -3.1827   -2.8122    1.0796 H   0  0  0  0  0  0  0  0  0  0  0  0
   -3.0971   -3.6270   -0.5009 H   0  0  0  0  0  0  0  0  0  0  0  0
   -1.2210   -2.8422    0.1973 C   0  0  0  0  0  0  0  0  0  0  0  0
   -0.2055   -3.4575    0.4719 O   0  0  0  0  0  0  0  0  0  0  0  0
   -1.1483   -1.5730   -0.3396 N   0  0  0  0  0  0  0  0  0  0  0  0
   -2.0340   -1.0661   -0.3625 H   0  0  0  0  0  0  0  0  0  0  0  0
    0.0806   -0.7617   -0.3385 C   0  0  1  0  0  0  0  0  0  0  0  0
    0.8439   -1.3807   -0.8240 H   0  0  0  0  0  0  0  0  0  0  0  0
    0.0215    0.5657   -1.1537 C   0  0  0  0  0  0  0  0  0  0  0  0
   -0.0499    1.3850   -0.4291 H   0  0  0  0  0  0  0  0  0  0  0  0
    0.9843    0.6873   -1.6617 H   0  0  0  0  0  0  0  0  0  0  0  0
   -1.1119    0.8286   -2.1831 C   0  0  0  0  0  0  0  0  0  0  0  0
   -1.0735    1.8796   -2.4826 H   0  0  0  0  0  0  0  0  0  0  0  0
   -0.8860    0.2285   -3.0689 H   0  0  0  0  0  0  0  0  0  0  0  0
   -2.5510    0.5084   -1.7835 C   0  0  0  0  0  0  0  0  0  0  0  0
   -2.9442    0.5523   -0.6298 O   0  0  0  0  0  0  0  0  0  0  0  0
   -3.4812    0.1223   -2.7049 N   0  0  0  0  0  0  0  0  0  0  0  0
   -4.4469    0.1071   -2.3887 H   0  0  0  0  0  0  0  0  0  0  0  0
   -3.2722    0.2418   -3.6911 H   0  0  0  0  0  0  0  0  0  0  0  0
    0.6111   -0.4721    1.0829 C   0  0  0  0  0  0  0  0  0  0  0  0
    1.8145   -0.3660    1.2781 O   0  0  0  0  0  0  0  0  0  0  0  0
   -0.2706   -0.0782    2.0736 N   0  0  0  0  0  0  0  0  0  0  0  0
   -1.2598   -0.0794    1.8404 H   0  0  0  0  0  0  0  0  0  0  0  0
    0.1495    0.3447    3.4029 C   0  0  0  0  0  0  0  0  0  0  0  0
    0.7791    1.2385    3.3399 H   0  0  0  0  0  0  0  0  0  0  0  0
   -0.7239    0.5792    4.0187 H   0  0  0  0  0  0  0  0  0  0  0  0
    0.7168   -0.4520    3.8955 H   0  0  0  0  0  0  0  0  0  0  0  0
  1  2  1  0  0  0  0
  2  3  1  0  0  0  0
  2  4  1  0  0  0  0
  2  5  1  0  0  0  0
  5  6  2  0  0  0  0
  5  7  1  0  0  0  0
  7  8  1  0  0  0  0
  7  9  1  0  0  0  0
  9 10  1  0  0  0  0
  9 11  1  0  0  0  0
  9 22  1  0  0  0  0
 11 12  1  0  0  0  0
 11 13  1  0  0  0  0
 11 14  1  0  0  0  0
 14 15  1  0  0  0  0
 14 16  1  0  0  0  0
 14 17  1  0  0  0  0
 17 18  2  0  0  0  0
 17 19  1  0  0  0  0
 19 20  1  0  0  0  0
 19 21  1  0  0  0  0
 22 23  2  0  0  0  0
 22 24  1  0  0  0  0
 24 25  1  0  0  0  0
 24 26  1  0  0  0  0
 26 27  1  0  0  0  0
 26 28  1  0  0  0  0
 26 29  1  0  0  0  0
M  END
$$$$

  -OEChem-02102214123D

 29 28  0     1  0  0  0  0  0999 V2000
   -2.4728   -4.4137    0.9297 H   0  0  0  0  0  0  0  0  0  0  0  0
   -2.5734   -3.4507    0.4212 C   0  0  0  0  0  0  0  0  0  0  0  0
   -3.1642   -2.7808    1.0508 H   0  0  0  0  0  0  0  0  0  0  0  0
   -3.0951   -3.6050   -0.5262 H   0  0  0  0  0  0  0  0  0  0  0  0
   -1.2045   -2.8495    0.1655 C   0  0  0  0  0  0  0  0  0  0  0  0
   -0.2004   -3.4787    0.4508 O   0  0  0  0  0  0  0  0  0  0  0  0
   -1.1089   -1.5905   -0.3926 N   0  0  0  0  0  0  0  0  0  0  0  0
   -1.9856   -1.0691   -0.4127 H   0  0  0  0  0  0  0  0  0  0  0  0
    0.1281   -0.7900   -0.3556 C   0  0  1  0  0  0  0  0  0  0  0  0
    0.9091   -1.4078   -0.8136 H   0  0  0  0  0  0  0  0  0  0  0  0
    0.0709    0.5352   -1.1692 C   0  0  0  0  0  0  0  0  0  0  0  0
    0.0037    1.3718   -0.4640 H   0  0  0  0  0  0  0  0  0  0  0  0
    1.0284    0.6444   -1.6892 H   0  0  0  0  0  0  0  0  0  0  0  0
   -1.0706    0.7339   -2.1971 C   0  0  0  0  0  0  0  0  0  0  0  0
   -0.9241    1.6972   -2.6926 H   0  0  0  0  0  0  0  0  0  0  0  0
   -0.9810   -0.0461   -2.9584 H   0  0  0  0  0  0  0  0  0  0  0  0
   -2.5011    0.7006   -1.6562 C   0  0  0  0  0  0  0  0  0  0  0  0
   -2.7707    0.6600   -0.4670 O   0  0  0  0  0  0  0  0  0  0  0  0
   -3.5743    0.6872   -2.4986 N   0  0  0  0  0  0  0  0  0  0  0  0
   -4.4824    0.8461   -2.0706 H   0  0  0  0  0  0  0  0  0  0  0  0
   -3.4299    0.9066   -3.4793 H   0  0  0  0  0  0  0  0  0  0  0  0
    0.5995   -0.4843    1.0823 C   0  0  0  0  0  0  0  0  0  0  0  0
    1.7939   -0.3993    1.3347 O   0  0  0  0  0  0  0  0  0  0  0  0
   -0.3252   -0.0670    2.0231 N   0  0  0  0  0  0  0  0  0  0  0  0
   -1.2922    0.0089    1.7156 H   0  0  0  0  0  0  0  0  0  0  0  0
    0.0388    0.4024    3.3532 C   0  0  0  0  0  0  0  0  0  0  0  0
    0.6532    1.3062    3.2862 H   0  0  0  0  0  0  0  0  0  0  0  0
   -0.8602    0.6357    3.9312 H   0  0  0  0  0  0  0  0  0  0  0  0
    0.6031   -0.3684    3.8888 H   0  0  0  0  0  0  0  0  0  0  0  0
  1  2  1  0  0  0  0
  2  3  1  0  0  0  0
  2  4  1  0  0  0  0
  2  5  1  0  0  0  0
  5  6  2  0  0  0  0
  5  7  1  0  0  0  0
  7  8  1  0  0  0  0
  7  9  1  0  0  0  0
  9 10  1  0  0  0  0
  9 11  1  0  0  0  0
  9 22  1  0  0  0  0
 11 12  1  0  0  0  0
 11 13  1  0  0  0  0
 11 14  1  0  0  0  0
 14 15  1  0  0  0  0
 14 16  1  0  0  0  0
 14 17  1  0  0  0  0
 17 18  2  0  0  0  0
 17 19  1  0  0  0  0
 19 20  1  0  0  0  0
 19 21  1  0  0  0  0
 22 23  2  0  0  0  0
 22 24  1  0  0  0  0
 24 25  1  0  0  0  0
 24 26  1  0  0  0  0
 26 27  1  0  0  0  0
 26 28  1  0  0  0  0
 26 29  1  0  0  0  0
M  END
$$$$

  -OEChem-02102214123D

 29 28  0     1  0  0  0  0  0999 V2000
   -2.4615   -4.4304    0.9018 H   0  0  0  0  0  0  0  0  0  0  0  0
   -2.5524   -3.4674    0.3917 C   0  0  0  0  0  0  0  0  0  0  0  0
   -3.1583   -2.7986    1.0078 H   0  0  0  0  0  0  0  0  0  0  0  0
   -3.0526   -3.6215   -0.5674 H   0  0  0  0  0  0  0  0  0  0  0  0
   -1.1793   -2.8635    0.1671 C   0  0  0  0  0  0  0  0  0  0  0  0
   -0.1810   -3.4787    0.4995 O   0  0  0  0  0  0  0  0  0  0  0  0
   -1.0726   -1.6194   -0.4210 N   0  0  0  0  0  0  0  0  0  0  0  0
   -1.9493   -1.1006   -0.4794 H   0  0  0  0  0  0  0  0  0  0  0  0
    0.1603   -0.8116   -0.3704 C   0  0  1  0  0  0  0  0  0  0  0  0
    0.9608   -1.4233   -0.8018 H   0  0  0  0  0  0  0  0  0  0  0  0
    0.0762    0.4983   -1.2014 C   0  0  0  0  0  0  0  0  0  0  0  0
    0.0061    1.3581   -0.5247 H   0  0  0  0  0  0  0  0  0  0  0  0
    1.0244    0.6037   -1.7395 H   0  0  0  0  0  0  0  0  0  0  0  0
   -1.0811    0.6067   -2.2214 C   0  0  0  0  0  0  0  0  0  0  0  0
   -0.8571    1.4332   -2.9013 H   0  0  0  0  0  0  0  0  0  0  0  0
   -1.1300   -0.3064   -2.8215 H   0  0  0  0  0  0  0  0  0  0  0  0
   -2.4552    0.8746   -1.6025 C   0  0  0  0  0  0  0  0  0  0  0  0
   -2.7134    0.6659   -0.4281 O   0  0  0  0  0  0  0  0  0  0  0  0
   -3.4953    1.3315   -2.3581 N   0  0  0  0  0  0  0  0  0  0  0  0
   -4.3224    1.6345   -1.8512 H   0  0  0  0  0  0  0  0  0  0  0  0
   -3.3101    1.6859   -3.2911 H   0  0  0  0  0  0  0  0  0  0  0  0
    0.5872   -0.4670    1.0721 C   0  0  0  0  0  0  0  0  0  0  0  0
    1.7723   -0.3651    1.3594 O   0  0  0  0  0  0  0  0  0  0  0  0
   -0.3715   -0.0309    1.9694 N   0  0  0  0  0  0  0  0  0  0  0  0
   -1.3256    0.0412    1.6211 H   0  0  0  0  0  0  0  0  0  0  0  0
   -0.0570    0.4836    3.2949 C   0  0  0  0  0  0  0  0  0  0  0  0
    0.5478    1.3932    3.2197 H   0  0  0  0  0  0  0  0  0  0  0  0
   -0.9779    0.7221    3.8354 H   0  0  0  0  0  0  0  0  0  0  0  0
    0.4984   -0.2632    3.8720 H   0  0  0  0  0  0  0  0  0  0  0  0
  1  2  1  0  0  0  0
  2  3  1  0  0  0  0
  2  4  1  0  0  0  0
  2  5  1  0  0  0  0
  5  6  2  0  0  0  0
  5  7  1  0  0  0  0
  7  8  1  0  0  0  0
  7  9  1  0  0  0  0
  9 10  1  0  0  0  0
  9 11  1  0  0  0  0
  9 22  1  0  0  0  0
 11 12  1  0  0  0  0
 11 13  1  0  0  0  0
 11 14  1  0  0  0  0
 14 15  1  0  0  0  0
 14 16  1  0  0  0  0
 14 17  1  0  0  0  0
 17 18  2  0  0  0  0
 17 19  1  0  0  0  0
 19 20  1  0  0  0  0
 19 21  1  0  0  0  0
 22 23  2  0  0  0  0
 22 24  1  0  0  0  0
 24 25  1  0  0  0  0
 24 26  1  0  0  0  0
 26 27  1  0  0  0  0
 26 28  1  0  0  0  0
 26 29  1  0  0  0  0
M  END
$$$$

  -OEChem-02102214123D

 29 28  0     1  0  0  0  0  0999 V2000
   -2.3899   -4.5157    0.9080 H   0  0  0  0  0  0  0  0  0  0  0  0
   -2.5045   -3.5606    0.3876 C   0  0  0  0  0  0  0  0  0  0  0  0
   -3.1858   -2.9266    0.9601 H   0  0  0  0  0  0  0  0  0  0  0  0
   -2.9345   -3.7458   -0.5997 H   0  0  0  0  0  0  0  0  0  0  0  0
   -1.1577   -2.8771    0.2460 C   0  0  0  0  0  0  0  0  0  0  0  0
   -0.1558   -3.4017    0.7004 O   0  0  0  0  0  0  0  0  0  0  0  0
   -1.0780   -1.6573   -0.3936 N   0  0  0  0  0  0  0  0  0  0  0  0
   -1.9724   -1.2079   -0.6028 H   0  0  0  0  0  0  0  0  0  0  0  0
    0.1217   -0.7984   -0.3846 C   0  0  1  0  0  0  0  0  0  0  0  0
    0.9441   -1.4022   -0.7851 H   0  0  0  0  0  0  0  0  0  0  0  0
   -0.0261    0.4474   -1.2979 C   0  0  0  0  0  0  0  0  0  0  0  0
   -0.1317    1.3501   -0.6843 H   0  0  0  0  0  0  0  0  0  0  0  0
    0.9136    0.5567   -1.8502 H   0  0  0  0  0  0  0  0  0  0  0  0
   -1.1903    0.4002   -2.3130 C   0  0  0  0  0  0  0  0  0  0  0  0
   -0.9172    1.0119   -3.1772 H   0  0  0  0  0  0  0  0  0  0  0  0
   -1.3611   -0.6123   -2.6892 H   0  0  0  0  0  0  0  0  0  0  0  0
   -2.4706    0.9765   -1.7202 C   0  0  0  0  0  0  0  0  0  0  0  0
   -3.0785    0.3739   -0.8519 O   0  0  0  0  0  0  0  0  0  0  0  0
   -2.9632    2.1984   -2.0788 N   0  0  0  0  0  0  0  0  0  0  0  0
   -3.8810    2.4463   -1.7193 H   0  0  0  0  0  0  0  0  0  0  0  0
   -2.5804    2.6760   -2.8883 H   0  0  0  0  0  0  0  0  0  0  0  0
    0.5502   -0.3580    1.0311 C   0  0  0  0  0  0  0  0  0  0  0  0
    1.7322   -0.1631    1.2805 O   0  0  0  0  0  0  0  0  0  0  0  0
   -0.4094    0.0889    1.9217 N   0  0  0  0  0  0  0  0  0  0  0  0
   -1.3816   -0.0476    1.6581 H   0  0  0  0  0  0  0  0  0  0  0  0
   -0.0962    0.6133    3.2442 C   0  0  0  0  0  0  0  0  0  0  0  0
    0.5272    1.5100    3.1631 H   0  0  0  0  0  0  0  0  0  0  0  0
   -1.0165    0.8788    3.7732 H   0  0  0  0  0  0  0  0  0  0  0  0
    0.4393   -0.1368    3.8355 H   0  0  0  0  0  0  0  0  0  0  0  0
  1  2  1  0  0  0  0
  2  3  1  0  0  0  0
  2  4  1  0  0  0  0
  2  5  1  0  0  0  0
  5  6  2  0  0  0  0
  5  7  1  0  0  0  0
  7  8  1  0  0  0  0
  7  9  1  0  0  0  0
  9 10  1  0  0  0  0
  9 11  1  0  0  0  0
  9 22  1  0  0  0  0
 11 12  1  0  0  0  0
 11 13  1  0  0  0  0
 11 14  1  0  0  0  0
 14 15  1  0  0  0  0
 14 16  1  0  0  0  0
 14 17  1  0  0  0  0
 17 18  2  0  0  0  0
 17 19  1  0  0  0  0
 19 20  1  0  0  0  0
 19 21  1  0  0  0  0
 22 23  2  0  0  0  0
 22 24  1  0  0  0  0
 24 25  1  0  0  0  0
 24 26  1  0  0  0  0
 26 27  1  0  0  0  0
 26 28  1  0  0  0  0
 26 29  1  0  0  0  0
M  END
$$$$

  -OEChem-02102214123D

 29 28  0     1  0  0  0  0  0999 V2000
   -2.3928   -4.5251    0.9340 H   0  0  0  0  0  0  0  0  0  0  0  0
   -2.5190   -3.5732    0.4103 C   0  0  0  0  0  0  0  0  0  0  0  0
   -3.1966   -2.9401    0.9881 H   0  0  0  0  0  0  0  0  0  0  0  0
   -2.9596   -3.7664   -0.5707 H   0  0  0  0  0  0  0  0  0  0  0  0
   -1.1775   -2.8840    0.2484 C   0  0  0  0  0  0  0  0  0  0  0  0
   -0.1665   -3.4069    0.6836 O   0  0  0  0  0  0  0  0  0  0  0  0
   -1.1122   -1.6600   -0.3861 N   0  0  0  0  0  0  0  0  0  0  0  0
   -2.0059   -1.2164   -0.5970 H   0  0  0  0  0  0  0  0  0  0  0  0
    0.0880   -0.8010   -0.3927 C   0  0  1  0  0  0  0  0  0  0  0  0
    0.9024   -1.4022   -0.8131 H   0  0  0  0  0  0  0  0  0  0  0  0
   -0.0807    0.4457   -1.2986 C   0  0  0  0  0  0  0  0  0  0  0  0
   -0.1728    1.3443   -0.6766 H   0  0  0  0  0  0  0  0  0  0  0  0
    0.8500    0.5614   -1.8645 H   0  0  0  0  0  0  0  0  0  0  0  0
   -1.2623    0.4017   -2.2988 C   0  0  0  0  0  0  0  0  0  0  0  0
   -0.9116    0.8066   -3.2520 H   0  0  0  0  0  0  0  0  0  0  0  0
   -1.6174   -0.6077   -2.5172 H   0  0  0  0  0  0  0  0  0  0  0  0
   -2.4014    1.2847   -1.8187 C   0  0  0  0  0  0  0  0  0  0  0  0
   -3.0820    0.9171   -0.8774 O   0  0  0  0  0  0  0  0  0  0  0  0
   -2.6706    2.5132   -2.3506 N   0  0  0  0  0  0  0  0  0  0  0  0
   -3.5136    2.9805   -2.0287 H   0  0  0  0  0  0  0  0  0  0  0  0
   -2.2144    2.8018   -3.2100 H   0  0  0  0  0  0  0  0  0  0  0  0
    0.5481   -0.3653    1.0151 C   0  0  0  0  0  0  0  0  0  0  0  0
    1.7371   -0.1835    1.2399 O   0  0  0  0  0  0  0  0  0  0  0  0
   -0.3872    0.0802    1.9318 N   0  0  0  0  0  0  0  0  0  0  0  0
   -1.3666   -0.0105    1.6765 H   0  0  0  0  0  0  0  0  0  0  0  0
   -0.0379    0.6218    3.2383 C   0  0  0  0  0  0  0  0  0  0  0  0
    0.5817    1.5178    3.1282 H   0  0  0  0  0  0  0  0  0  0  0  0
   -0.9433    0.8930    3.7894 H   0  0  0  0  0  0  0  0  0  0  0  0
    0.5154   -0.1199    3.8240 H   0  0  0  0  0  0  0  0  0  0  0  0
  1  2  1  0  0  0  0
  2  3  1  0  0  0  0
  2  4  1  0  0  0  0
  2  5  1  0  0  0  0
  5  6  2  0  0  0  0
  5  7  1  0  0  0  0
  7  8  1  0  0  0  0
  7  9  1  0  0  0  0
  9 10  1  0  0  0  0
  9 11  1  0  0  0  0
  9 22  1  0  0  0  0
 11 12  1  0  0  0  0
 11 13  1  0  0  0  0
 11 14  1  0  0  0  0
 14 15  1  0  0  0  0
 14 16  1  0  0  0  0
 14 17  1  0  0  0  0
 17 18  2  0  0  0  0
 17 19  1  0  0  0  0
 19 20  1  0  0  0  0
 19 21  1  0  0  0  0
 22 23  2  0  0  0  0
 22 24  1  0  0  0  0
 24 25  1  0  0  0  0
 24 26  1  0  0  0  0
 26 27  1  0  0  0  0
 26 28  1  0  0  0  0
 26 29  1  0  0  0  0
M  END
$$$$

  -OEChem-02102214123D

 29 28  0     1  0  0  0  0  0999 V2000
   -2.3553   -4.5962    0.9426 H   0  0  0  0  0  0  0  0  0  0  0  0
   -2.5217   -3.6316    0.4545 C   0  0  0  0  0  0  0  0  0  0  0  0
   -3.2074   -3.0412    1.0668 H   0  0  0  0  0  0  0  0  0  0  0  0
   -2.9750   -3.8065   -0.5242 H   0  0  0  0  0  0  0  0  0  0  0  0
   -1.2054   -2.8953    0.2929 C   0  0  0  0  0  0  0  0  0  0  0  0
   -0.1769   -3.3858    0.7237 O   0  0  0  0  0  0  0  0  0  0  0  0
   -1.1814   -1.6668   -0.3372 N   0  0  0  0  0  0  0  0  0  0  0  0
   -2.0832   -1.2621   -0.5778 H   0  0  0  0  0  0  0  0  0  0  0  0
    0.0067   -0.7938   -0.3981 C   0  0  1  0  0  0  0  0  0  0  0  0
    0.8029   -1.3988   -0.8474 H   0  0  0  0  0  0  0  0  0  0  0  0
   -0.1775    0.4459   -1.3132 C   0  0  0  0  0  0  0  0  0  0  0  0
   -0.2656    1.3343   -0.6757 H   0  0  0  0  0  0  0  0  0  0  0  0
    0.7473    0.5760   -1.8855 H   0  0  0  0  0  0  0  0  0  0  0  0
   -1.3745    0.4320   -2.3014 C   0  0  0  0  0  0  0  0  0  0  0  0
   -0.9831    0.5412   -3.3166 H   0  0  0  0  0  0  0  0  0  0  0  0
   -1.9408   -0.4995   -2.2994 H   0  0  0  0  0  0  0  0  0  0  0  0
   -2.3224    1.5894   -2.0289 C   0  0  0  0  0  0  0  0  0  0  0  0
   -3.1534    1.4989   -1.1450 O   0  0  0  0  0  0  0  0  0  0  0  0
   -2.2501    2.7773   -2.6986 N   0  0  0  0  0  0  0  0  0  0  0  0
   -2.9820    3.4576   -2.5134 H   0  0  0  0  0  0  0  0  0  0  0  0
   -1.6523    2.8653   -3.5138 H   0  0  0  0  0  0  0  0  0  0  0  0
    0.5369   -0.3544    0.9845 C   0  0  0  0  0  0  0  0  0  0  0  0
    1.7341   -0.1549    1.1401 O   0  0  0  0  0  0  0  0  0  0  0  0
   -0.3486    0.0799    1.9545 N   0  0  0  0  0  0  0  0  0  0  0  0
   -1.3387   -0.0455    1.7685 H   0  0  0  0  0  0  0  0  0  0  0  0
    0.0710    0.6152    3.2430 C   0  0  0  0  0  0  0  0  0  0  0  0
    0.6598    1.5281    3.1052 H   0  0  0  0  0  0  0  0  0  0  0  0
   -0.8032    0.8567    3.8550 H   0  0  0  0  0  0  0  0  0  0  0  0
    0.6785   -0.1193    3.7821 H   0  0  0  0  0  0  0  0  0  0  0  0
  1  2  1  0  0  0  0
  2  3  1  0  0  0  0
  2  4  1  0  0  0  0
  2  5  1  0  0  0  0
  5  6  2  0  0  0  0
  5  7  1  0  0  0  0
  7  8  1  0  0  0  0
  7  9  1  0  0  0  0
  9 10  1  0  0  0  0
  9 11  1  0  0  0  0
  9 22  1  0  0  0  0
 11 12  1  0  0  0  0
 11 13  1  0  0  0  0
 11 14  1  0  0  0  0
 14 15  1  0  0  0  0
 14 16  1  0  0  0  0
 14 17  1  0  0  0  0
 17 18  2  0  0  0  0
 17 19  1  0  0  0  0
 19 20  1  0  0  0  0
 19 21  1  0  0  0  0
 22 23  2  0  0  0  0
 22 24  1  0  0  0  0
 24 25  1  0  0  0  0
 24 26  1  0  0  0  0
 26 27  1  0  0  0  0
 26 28  1  0  0  0  0
 26 29  1  0  0  0  0
M  END
$$$$

  -OEChem-02102214123D

 29 28  0     1  0  0  0  0  0999 V2000
   -2.3645   -4.6143    0.9529 H   0  0  0  0  0  0  0  0  0  0  0  0
   -2.5457   -3.6579    0.4538 C   0  0  0  0  0  0  0  0  0  0  0  0
   -3.2626   -3.0828    1.0445 H   0  0  0  0  0  0  0  0  0  0  0  0
   -2.9698   -3.8528   -0.5342 H   0  0  0  0  0  0  0  0  0  0  0  0
   -1.2465   -2.8864    0.3181 C   0  0  0  0  0  0  0  0  0  0  0  0
   -0.2118   -3.3559    0.7567 O   0  0  0  0  0  0  0  0  0  0  0  0
   -1.2440   -1.6529   -0.3035 N   0  0  0  0  0  0  0  0  0  0  0  0
   -2.1470   -1.2794   -0.5810 H   0  0  0  0  0  0  0  0  0  0  0  0
   -0.0593   -0.7787   -0.4064 C   0  0  1  0  0  0  0  0  0  0  0  0
    0.7163   -1.3891   -0.8834 H   0  0  0  0  0  0  0  0  0  0  0  0
   -0.2556    0.4617   -1.3201 C   0  0  0  0  0  0  0  0  0  0  0  0
   -0.3478    1.3351   -0.6628 H   0  0  0  0  0  0  0  0  0  0  0  0
    0.6603    0.6145   -1.9012 H   0  0  0  0  0  0  0  0  0  0  0  0
   -1.4724    0.4712   -2.2831 C   0  0  0  0  0  0  0  0  0  0  0  0
   -1.1279    0.2648   -3.3000 H   0  0  0  0  0  0  0  0  0  0  0  0
   -2.2163   -0.2884   -2.0456 H   0  0  0  0  0  0  0  0  0  0  0  0
   -2.1857    1.8154   -2.2496 C   0  0  0  0  0  0  0  0  0  0  0  0
   -3.1028    2.0122   -1.4757 O   0  0  0  0  0  0  0  0  0  0  0  0
   -1.8070    2.8630   -3.0396 N   0  0  0  0  0  0  0  0  0  0  0  0
   -2.4002    3.6881   -3.0258 H   0  0  0  0  0  0  0  0  0  0  0  0
   -1.1359    2.7176   -3.7868 H   0  0  0  0  0  0  0  0  0  0  0  0
    0.5316   -0.3439    0.9537 C   0  0  0  0  0  0  0  0  0  0  0  0
    1.7341   -0.1398    1.0521 O   0  0  0  0  0  0  0  0  0  0  0  0
   -0.3071    0.0867    1.9658 N   0  0  0  0  0  0  0  0  0  0  0  0
   -1.3010   -0.0786    1.8442 H   0  0  0  0  0  0  0  0  0  0  0  0
    0.1759    0.6034    3.2398 C   0  0  0  0  0  0  0  0  0  0  0  0
    0.7949    1.4932    3.0836 H   0  0  0  0  0  0  0  0  0  0  0  0
   -0.6672    0.8784    3.8806 H   0  0  0  0  0  0  0  0  0  0  0  0
    0.7728   -0.1547    3.7578 H   0  0  0  0  0  0  0  0  0  0  0  0
  1  2  1  0  0  0  0
  2  3  1  0  0  0  0
  2  4  1  0  0  0  0
  2  5  1  0  0  0  0
  5  6  2  0  0  0  0
  5  7  1  0  0  0  0
  7  8  1  0  0  0  0
  7  9  1  0  0  0  0
  9 10  1  0  0  0  0
  9 11  1  0  0  0  0
  9 22  1  0  0  0  0
 11 12  1  0  0  0  0
 11 13  1  0  0  0  0
 11 14  1  0  0  0  0
 14 15  1  0  0  0  0
 14 16  1  0  0  0  0
 14 17  1  0  0  0  0
 17 18  2  0  0  0  0
 17 19  1  0  0  0  0
 19 20  1  0  0  0  0
 19 21  1  0  0  0  0
 22 23  2  0  0  0  0
 22 24  1  0  0  0  0
 24 25  1  0  0  0  0
 24 26  1  0  0  0  0
 26 27  1  0  0  0  0
 26 28  1  0  0  0  0
 26 29  1  0  0  0  0
M  END
$$$$

  -OEChem-02102214123D

 29 28  0     1  0  0  0  0  0999 V2000
   -2.3874   -4.6039    0.9298 H   0  0  0  0  0  0  0  0  0  0  0  0
   -2.5764   -3.6398    0.4489 C   0  0  0  0  0  0  0  0  0  0  0  0
   -3.2858   -3.0759    1.0592 H   0  0  0  0  0  0  0  0  0  0  0  0
   -3.0140   -3.8188   -0.5362 H   0  0  0  0  0  0  0  0  0  0  0  0
   -1.2799   -2.8647    0.3085 C   0  0  0  0  0  0  0  0  0  0  0  0
   -0.2428   -3.3310    0.7446 O   0  0  0  0  0  0  0  0  0  0  0  0
   -1.2841   -1.6265   -0.3038 N   0  0  0  0  0  0  0  0  0  0  0  0
   -2.1838   -1.2699   -0.6102 H   0  0  0  0  0  0  0  0  0  0  0  0
   -0.0967   -0.7587   -0.4307 C   0  0  1  0  0  0  0  0  0  0  0  0
    0.6619   -1.3718   -0.9310 H   0  0  0  0  0  0  0  0  0  0  0  0
   -0.3067    0.4881   -1.3311 C   0  0  0  0  0  0  0  0  0  0  0  0
   -0.3950    1.3547   -0.6642 H   0  0  0  0  0  0  0  0  0  0  0  0
    0.5954    0.6490   -1.9312 H   0  0  0  0  0  0  0  0  0  0  0  0
   -1.5486    0.4966   -2.2546 C   0  0  0  0  0  0  0  0  0  0  0  0
   -1.3079    0.0158   -3.2066 H   0  0  0  0  0  0  0  0  0  0  0  0
   -2.3902   -0.0423   -1.8183 H   0  0  0  0  0  0  0  0  0  0  0  0
   -2.0390    1.9183   -2.4903 C   0  0  0  0  0  0  0  0  0  0  0  0
   -2.8990    2.4096   -1.7857 O   0  0  0  0  0  0  0  0  0  0  0  0
   -1.5116    2.7173   -3.4638 N   0  0  0  0  0  0  0  0  0  0  0  0
   -1.7708    3.6993   -3.4272 H   0  0  0  0  0  0  0  0  0  0  0  0
   -0.6602    2.4297   -3.9346 H   0  0  0  0  0  0  0  0  0  0  0  0
    0.5322   -0.3376    0.9163 C   0  0  0  0  0  0  0  0  0  0  0  0
    1.7358   -0.1259    0.9782 O   0  0  0  0  0  0  0  0  0  0  0  0
   -0.2781    0.0902    1.9524 N   0  0  0  0  0  0  0  0  0  0  0  0
   -1.2712   -0.1000    1.8681 H   0  0  0  0  0  0  0  0  0  0  0  0
    0.2417    0.5918    3.2180 C   0  0  0  0  0  0  0  0  0  0  0  0
    0.8219    1.5066    3.0579 H   0  0  0  0  0  0  0  0  0  0  0  0
   -0.5817    0.8203    3.9013 H   0  0  0  0  0  0  0  0  0  0  0  0
    0.8865   -0.1569    3.6903 H   0  0  0  0  0  0  0  0  0  0  0  0
  1  2  1  0  0  0  0
  2  3  1  0  0  0  0
  2  4  1  0  0  0  0
  2  5  1  0  0  0  0
  5  6  2  0  0  0  0
  5  7  1  0  0  0  0
  7  8  1  0  0  0  0
  7  9  1  0  0  0  0
  9 10  1  0  0  0  0
  9 11  1  0  0  0  0
  9 22  1  0  0  0  0
 11 12  1  0  0  0  0
 11 13  1  0  0  0  0
 11 14  1  0  0  0  0
 14 15  1  0  0  0  0
 14 16  1  0  0  0  0
 14 17  1  0  0  0  0
 17 18  2  0  0  0  0
 17 19  1  0  0  0  0
 19 20  1  0  0  0  0
 19 21  1  0  0  0  0
 22 23  2  0  0  0  0
 22 24  1  0  0  0  0
 24 25  1  0  0  0  0
 24 26  1  0  0  0  0
 26 27  1  0  0  0  0
 26 28  1  0  0  0  0
 26 29  1  0  0  0  0
M  END
$$$$

  -OEChem-02102214123D

 29 28  0     1  0  0  0  0  0999 V2000
   -2.4805   -4.5357    0.9152 H   0  0  0  0  0  0  0  0  0  0  0  0
   -2.6425   -3.5856    0.3982 C   0  0  0  0  0  0  0  0  0  0  0  0
   -3.3848   -3.0065    0.9528 H   0  0  0  0  0  0  0  0  0  0  0  0
   -3.0237   -3.7923   -0.6046 H   0  0  0  0  0  0  0  0  0  0  0  0
   -1.3404   -2.8123    0.3098 C   0  0  0  0  0  0  0  0  0  0  0  0
   -0.3216   -3.2816    0.7841 O   0  0  0  0  0  0  0  0  0  0  0  0
   -1.3192   -1.5712   -0.2967 N   0  0  0  0  0  0  0  0  0  0  0  0
   -2.1939   -1.2353   -0.6870 H   0  0  0  0  0  0  0  0  0  0  0  0
   -0.1104   -0.7348   -0.4366 C   0  0  1  0  0  0  0  0  0  0  0  0
    0.6247   -1.3602   -0.9564 H   0  0  0  0  0  0  0  0  0  0  0  0
   -0.3188    0.5229   -1.3196 C   0  0  0  0  0  0  0  0  0  0  0  0
   -0.3749    1.3948   -0.6563 H   0  0  0  0  0  0  0  0  0  0  0  0
    0.5668    0.6626   -1.9489 H   0  0  0  0  0  0  0  0  0  0  0  0
   -1.5878    0.5370   -2.1981 C   0  0  0  0  0  0  0  0  0  0  0  0
   -1.4762   -0.1598   -3.0335 H   0  0  0  0  0  0  0  0  0  0  0  0
   -2.4672    0.2403   -1.6221 H   0  0  0  0  0  0  0  0  0  0  0  0
   -1.8662    1.9395   -2.7222 C   0  0  0  0  0  0  0  0  0  0  0  0
   -2.6954    2.6557   -2.1966 O   0  0  0  0  0  0  0  0  0  0  0  0
   -1.1932    2.4630   -3.7887 N   0  0  0  0  0  0  0  0  0  0  0  0
   -1.3251    3.4563   -3.9580 H   0  0  0  0  0  0  0  0  0  0  0  0
   -0.3646    1.9903   -4.1336 H   0  0  0  0  0  0  0  0  0  0  0  0
    0.5521   -0.3355    0.9008 C   0  0  0  0  0  0  0  0  0  0  0  0
    1.7628   -0.1634    0.9429 O   0  0  0  0  0  0  0  0  0  0  0  0
   -0.2276    0.1102    1.9526 N   0  0  0  0  0  0  0  0  0  0  0  0
   -1.2216   -0.0852    1.8961 H   0  0  0  0  0  0  0  0  0  0  0  0
    0.3318    0.5512    3.2242 C   0  0  0  0  0  0  0  0  0  0  0  0
    1.0059    1.4010    3.0734 H   0  0  0  0  0  0  0  0  0  0  0  0
   -0.4685    0.8633    3.9018 H   0  0  0  0  0  0  0  0  0  0  0  0
    0.8906   -0.2629    3.6980 H   0  0  0  0  0  0  0  0  0  0  0  0
  1  2  1  0  0  0  0
  2  3  1  0  0  0  0
  2  4  1  0  0  0  0
  2  5  1  0  0  0  0
  5  6  2  0  0  0  0
  5  7  1  0  0  0  0
  7  8  1  0  0  0  0
  7  9  1  0  0  0  0
  9 10  1  0  0  0  0
  9 11  1  0  0  0  0
  9 22  1  0  0  0  0
 11 12  1  0  0  0  0
 11 13  1  0  0  0  0
 11 14  1  0  0  0  0
 14 15  1  0  0  0  0
 14 16  1  0  0  0  0
 14 17  1  0  0  0  0
 17 18  2  0  0  0  0
 17 19  1  0  0  0  0
 19 20  1  0  0  0  0
 19 21  1  0  0  0  0
 22 23  2  0  0  0  0
 22 24  1  0  0  0  0
 24 25  1  0  0  0  0
 24 26  1  0  0  0  0
 26 27  1  0  0  0  0
 26 28  1  0  0  0  0
 26 29  1  0  0  0  0
M  END
$$$$

  -OEChem-02102214123D

 29 28  0     1  0  0  0  0  0999 V2000
   -2.5977   -4.4485    0.6224 H   0  0  0  0  0  0  0  0  0  0  0  0
   -2.6435   -3.4923    0.0928 C   0  0  0  0  0  0  0  0  0  0  0  0
   -3.4815   -2.9124    0.4865 H   0  0  0  0  0  0  0  0  0  0  0  0
   -2.8095   -3.6879   -0.9693 H   0  0  0  0  0  0  0  0  0  0  0  0
   -1.3467   -2.7283    0.2845 C   0  0  0  0  0  0  0  0  0  0  0  0
   -0.4619   -3.2037    0.9720 O   0  0  0  0  0  0  0  0  0  0  0  0
   -1.1825   -1.4956   -0.3186 N   0  0  0  0  0  0  0  0  0  0  0  0
   -1.9206   -1.1979   -0.9471 H   0  0  0  0  0  0  0  0  0  0  0  0
    0.0820   -0.7293   -0.3123 C   0  0  1  0  0  0  0  0  0  0  0  0
    0.8481   -1.3844   -0.7430 H   0  0  0  0  0  0  0  0  0  0  0  0
    0.0218    0.5449   -1.1980 C   0  0  0  0  0  0  0  0  0  0  0  0
    0.2469    1.4256   -0.5839 H   0  0  0  0  0  0  0  0  0  0  0  0
    0.8205    0.4765   -1.9454 H   0  0  0  0  0  0  0  0  0  0  0  0
   -1.3200    0.7946   -1.9240 C   0  0  0  0  0  0  0  0  0  0  0  0
   -1.5440   -0.0508   -2.5803 H   0  0  0  0  0  0  0  0  0  0  0  0
   -2.1228    0.8904   -1.1878 H   0  0  0  0  0  0  0  0  0  0  0  0
   -1.3043    2.0646   -2.7753 C   0  0  0  0  0  0  0  0  0  0  0  0
   -0.3351    2.7917   -2.8715 O   0  0  0  0  0  0  0  0  0  0  0  0
   -2.3999    2.4532   -3.4918 N   0  0  0  0  0  0  0  0  0  0  0  0
   -2.2551    3.2186   -4.1451 H   0  0  0  0  0  0  0  0  0  0  0  0
   -3.1698    1.8065   -3.6214 H   0  0  0  0  0  0  0  0  0  0  0  0
    0.5911   -0.3608    1.1007 C   0  0  0  0  0  0  0  0  0  0  0  0
    1.7941   -0.2860    1.3101 O   0  0  0  0  0  0  0  0  0  0  0  0
   -0.2891    0.1346    2.0460 N   0  0  0  0  0  0  0  0  0  0  0  0
   -1.2749   -0.0235    1.8680 H   0  0  0  0  0  0  0  0  0  0  0  0
    0.1297    0.5197    3.3881 C   0  0  0  0  0  0  0  0  0  0  0  0
    0.8864    1.3100    3.3426 H   0  0  0  0  0  0  0  0  0  0  0  0
   -0.7251    0.8954    3.9582 H   0  0  0  0  0  0  0  0  0  0  0  0
    0.5510   -0.3409    3.9184 H   0  0  0  0  0  0  0  0  0  0  0  0
  1  2  1  0  0  0  0
  2  3  1  0  0  0  0
  2  4  1  0  0  0  0
  2  5  1  0  0  0  0
  5  6  2  0  0  0  0
  5  7  1  0  0  0  0
  7  8  1  0  0  0  0
  7  9  1  0  0  0  0
  9 10  1  0  0  0  0
  9 11  1  0  0  0  0
  9 22  1  0  0  0  0
 11 12  1  0  0  0  0
 11 13  1  0  0  0  0
 11 14  1  0  0  0  0
 14 15  1  0  0  0  0
 14 16  1  0  0  0  0
 14 17  1  0  0  0  0
 17 18  2  0  0  0  0
 17 19  1  0  0  0  0
 19 20  1  0  0  0  0
 19 21  1  0  0  0  0
 22 23  2  0  0  0  0
 22 24  1  0  0  0  0
 24 25  1  0  0  0  0
 24 26  1  0  0  0  0
 26 27  1  0  0  0  0
 26 28  1  0  0  0  0
 26 29  1  0  0  0  0
M  END
$$$$

  -OEChem-02102214123D

 29 28  0     1  0  0  0  0  0999 V2000
   -2.6147   -4.4377    0.6501 H   0  0  0  0  0  0  0  0  0  0  0  0
   -2.6597   -3.4830    0.1180 C   0  0  0  0  0  0  0  0  0  0  0  0
   -3.4856   -2.8937    0.5232 H   0  0  0  0  0  0  0  0  0  0  0  0
   -2.8449   -3.6808   -0.9406 H   0  0  0  0  0  0  0  0  0  0  0  0
   -1.3521   -2.7319    0.2850 C   0  0  0  0  0  0  0  0  0  0  0  0
   -0.4543   -3.2208    0.9455 O   0  0  0  0  0  0  0  0  0  0  0  0
   -1.1911   -1.4968   -0.3134 N   0  0  0  0  0  0  0  0  0  0  0  0
   -1.9527   -1.1725   -0.8989 H   0  0  0  0  0  0  0  0  0  0  0  0
    0.0732   -0.7307   -0.3168 C   0  0  1  0  0  0  0  0  0  0  0  0
    0.8351   -1.3856   -0.7558 H   0  0  0  0  0  0  0  0  0  0  0  0
    0.0122    0.5491   -1.1951 C   0  0  0  0  0  0  0  0  0  0  0  0
    0.2616    1.4313   -0.5933 H   0  0  0  0  0  0  0  0  0  0  0  0
    0.8037    0.4563   -1.9480 H   0  0  0  0  0  0  0  0  0  0  0  0
   -1.3302    0.8191   -1.9167 C   0  0  0  0  0  0  0  0  0  0  0  0
   -1.6816   -0.0970   -2.3971 H   0  0  0  0  0  0  0  0  0  0  0  0
   -2.0807    1.1443   -1.1912 H   0  0  0  0  0  0  0  0  0  0  0  0
   -1.2124    1.8668   -3.0240 C   0  0  0  0  0  0  0  0  0  0  0  0
   -0.1984    2.5016   -3.2393 O   0  0  0  0  0  0  0  0  0  0  0  0
   -2.2682    2.1562   -3.8402 N   0  0  0  0  0  0  0  0  0  0  0  0
   -2.0690    2.7596   -4.6336 H   0  0  0  0  0  0  0  0  0  0  0  0
   -3.0851    1.5557   -3.8415 H   0  0  0  0  0  0  0  0  0  0  0  0
    0.5937   -0.3697    1.0939 C   0  0  0  0  0  0  0  0  0  0  0  0
    1.7979   -0.2869    1.2932 O   0  0  0  0  0  0  0  0  0  0  0  0
   -0.2809    0.1203    2.0473 N   0  0  0  0  0  0  0  0  0  0  0  0
   -1.2671   -0.0453    1.8792 H   0  0  0  0  0  0  0  0  0  0  0  0
    0.1473    0.5153    3.3833 C   0  0  0  0  0  0  0  0  0  0  0  0
    0.8866    1.3210    3.3264 H   0  0  0  0  0  0  0  0  0  0  0  0
   -0.7076    0.8738    3.9644 H   0  0  0  0  0  0  0  0  0  0  0  0
    0.5933   -0.3356    3.9089 H   0  0  0  0  0  0  0  0  0  0  0  0
  1  2  1  0  0  0  0
  2  3  1  0  0  0  0
  2  4  1  0  0  0  0
  2  5  1  0  0  0  0
  5  6  2  0  0  0  0
  5  7  1  0  0  0  0
  7  8  1  0  0  0  0
  7  9  1  0  0  0  0
  9 10  1  0  0  0  0
  9 11  1  0  0  0  0
  9 22  1  0  0  0  0
 11 12  1  0  0  0  0
 11 13  1  0  0  0  0
 11 14  1  0  0  0  0
 14 15  1  0  0  0  0
 14 16  1  0  0  0  0
 14 17  1  0  0  0  0
 17 18  2  0  0  0  0
 17 19  1  0  0  0  0
 19 20  1  0  0  0  0
 19 21  1  0  0  0  0
 22 23  2  0  0  0  0
 22 24  1  0  0  0  0
 24 25  1  0  0  0  0
 24 26  1  0  0  0  0
 26 27  1  0  0  0  0
 26 28  1  0  0  0  0
 26 29  1  0  0  0  0
M  END
$$$$

  -OEChem-02102214123D

 29 28  0     1  0  0  0  0  0999 V2000
   -2.7097   -4.3936    0.7519 H   0  0  0  0  0  0  0  0  0  0  0  0
   -2.8272   -3.3908    0.3310 C   0  0  0  0  0  0  0  0  0  0  0  0
   -3.4811   -2.8097    0.9855 H   0  0  0  0  0  0  0  0  0  0  0  0
   -3.2910   -3.4767   -0.6546 H   0  0  0  0  0  0  0  0  0  0  0  0
   -1.4745   -2.7140    0.2123 C   0  0  0  0  0  0  0  0  0  0  0  0
   -0.4704   -3.2905    0.5882 O   0  0  0  0  0  0  0  0  0  0  0  0
   -1.3874   -1.4419   -0.3199 N   0  0  0  0  0  0  0  0  0  0  0  0
   -2.2591   -0.9944   -0.5851 H   0  0  0  0  0  0  0  0  0  0  0  0
   -0.1314   -0.6733   -0.4374 C   0  0  1  0  0  0  0  0  0  0  0  0
    0.5611   -1.3087   -1.0020 H   0  0  0  0  0  0  0  0  0  0  0  0
   -0.2717    0.6511   -1.2375 C   0  0  0  0  0  0  0  0  0  0  0  0
    0.0539    1.4977   -0.6212 H   0  0  0  0  0  0  0  0  0  0  0  0
    0.4406    0.5896   -2.0675 H   0  0  0  0  0  0  0  0  0  0  0  0
   -1.6746    0.9853   -1.7984 C   0  0  0  0  0  0  0  0  0  0  0  0
   -2.2215    0.0811   -2.0711 H   0  0  0  0  0  0  0  0  0  0  0  0
   -2.2591    1.5244   -1.0470 H   0  0  0  0  0  0  0  0  0  0  0  0
   -1.5817    1.8054   -3.0793 C   0  0  0  0  0  0  0  0  0  0  0  0
   -1.9476    2.9627   -3.1171 O   0  0  0  0  0  0  0  0  0  0  0  0
   -1.1305    1.2735   -4.2539 N   0  0  0  0  0  0  0  0  0  0  0  0
   -0.9694    1.9349   -5.0088 H   0  0  0  0  0  0  0  0  0  0  0  0
   -0.6406    0.3854   -4.2397 H   0  0  0  0  0  0  0  0  0  0  0  0
    0.5702   -0.4024    0.9126 C   0  0  0  0  0  0  0  0  0  0  0  0
    1.7896   -0.3102    0.9477 O   0  0  0  0  0  0  0  0  0  0  0  0
   -0.1680    0.0218    2.0028 N   0  0  0  0  0  0  0  0  0  0  0  0
   -1.1720   -0.1128    1.9533 H   0  0  0  0  0  0  0  0  0  0  0  0
    0.4347    0.3563    3.2870 C   0  0  0  0  0  0  0  0  0  0  0  0
    1.1616    1.1672    3.1705 H   0  0  0  0  0  0  0  0  0  0  0  0
   -0.3352    0.6839    3.9919 H   0  0  0  0  0  0  0  0  0  0  0  0
    0.9445   -0.5163    3.7089 H   0  0  0  0  0  0  0  0  0  0  0  0
  1  2  1  0  0  0  0
  2  3  1  0  0  0  0
  2  4  1  0  0  0  0
  2  5  1  0  0  0  0
  5  6  2  0  0  0  0
  5  7  1  0  0  0  0
  7  8  1  0  0  0  0
  7  9  1  0  0  0  0
  9 10  1  0  0  0  0
  9 11  1  0  0  0  0
  9 22  1  0  0  0  0
 11 12  1  0  0  0  0
 11 13  1  0  0  0  0
 11 14  1  0  0  0  0
 14 15  1  0  0  0  0
 14 16  1  0  0  0  0
 14 17  1  0  0  0  0
 17 18  2  0  0  0  0
 17 19  1  0  0  0  0
 19 20  1  0  0  0  0
 19 21  1  0  0  0  0
 22 23  2  0  0  0  0
 22 24  1  0  0  0  0
 24 25  1  0  0  0  0
 24 26  1  0  0  0  0
 26 27  1  0  0  0  0
 26 28  1  0  0  0  0
 26 29  1  0  0  0  0
M  END
$$$$

  -OEChem-02102214123D

 29 28  0     1  0  0  0  0  0999 V2000
   -2.6065   -4.4611    0.7500 H   0  0  0  0  0  0  0  0  0  0  0  0
   -2.6655   -3.5153    0.2034 C   0  0  0  0  0  0  0  0  0  0  0  0
   -3.4946   -2.9284    0.6058 H   0  0  0  0  0  0  0  0  0  0  0  0
   -2.8561   -3.7312   -0.8506 H   0  0  0  0  0  0  0  0  0  0  0  0
   -1.3652   -2.7474    0.3496 C   0  0  0  0  0  0  0  0  0  0  0  0
   -0.4651   -3.2082    1.0270 O   0  0  0  0  0  0  0  0  0  0  0  0
   -1.2198   -1.5239   -0.2769 N   0  0  0  0  0  0  0  0  0  0  0  0
   -1.9729   -1.2467   -0.8953 H   0  0  0  0  0  0  0  0  0  0  0  0
    0.0436   -0.7574   -0.3198 C   0  0  1  0  0  0  0  0  0  0  0  0
    0.7953   -1.4288   -0.7513 H   0  0  0  0  0  0  0  0  0  0  0  0
    0.0097    0.5160   -1.2166 C   0  0  0  0  0  0  0  0  0  0  0  0
    0.2952    1.3948   -0.6269 H   0  0  0  0  0  0  0  0  0  0  0  0
    0.8151    0.3775   -1.9463 H   0  0  0  0  0  0  0  0  0  0  0  0
   -1.3079    0.8654   -1.9705 C   0  0  0  0  0  0  0  0  0  0  0  0
   -1.9890    0.0172   -2.0013 H   0  0  0  0  0  0  0  0  0  0  0  0
   -1.8169    1.6762   -1.4423 H   0  0  0  0  0  0  0  0  0  0  0  0
   -1.1032    1.2737   -3.4314 C   0  0  0  0  0  0  0  0  0  0  0  0
   -0.0395    1.6443   -3.8877 O   0  0  0  0  0  0  0  0  0  0  0  0
   -2.1462    1.2889   -4.3127 N   0  0  0  0  0  0  0  0  0  0  0  0
   -1.9610    1.7468   -5.2014 H   0  0  0  0  0  0  0  0  0  0  0  0
   -3.0941    1.2341   -3.9572 H   0  0  0  0  0  0  0  0  0  0  0  0
    0.5799   -0.3754    1.0800 C   0  0  0  0  0  0  0  0  0  0  0  0
    1.7860   -0.2798    1.2627 O   0  0  0  0  0  0  0  0  0  0  0  0
   -0.2861    0.1272    2.0348 N   0  0  0  0  0  0  0  0  0  0  0  0
   -1.2712   -0.0602    1.8827 H   0  0  0  0  0  0  0  0  0  0  0  0
    0.1543    0.5102    3.3704 C   0  0  0  0  0  0  0  0  0  0  0  0
    0.9105    1.3003    3.3139 H   0  0  0  0  0  0  0  0  0  0  0  0
   -0.6912    0.8849    3.9549 H   0  0  0  0  0  0  0  0  0  0  0  0
    0.5836   -0.3516    3.8921 H   0  0  0  0  0  0  0  0  0  0  0  0
  1  2  1  0  0  0  0
  2  3  1  0  0  0  0
  2  4  1  0  0  0  0
  2  5  1  0  0  0  0
  5  6  2  0  0  0  0
  5  7  1  0  0  0  0
  7  8  1  0  0  0  0
  7  9  1  0  0  0  0
  9 10  1  0  0  0  0
  9 11  1  0  0  0  0
  9 22  1  0  0  0  0
 11 12  1  0  0  0  0
 11 13  1  0  0  0  0
 11 14  1  0  0  0  0
 14 15  1  0  0  0  0
 14 16  1  0  0  0  0
 14 17  1  0  0  0  0
 17 18  2  0  0  0  0
 17 19  1  0  0  0  0
 19 20  1  0  0  0  0
 19 21  1  0  0  0  0
 22 23  2  0  0  0  0
 22 24  1  0  0  0  0
 24 25  1  0  0  0  0
 24 26  1  0  0  0  0
 26 27  1  0  0  0  0
 26 28  1  0  0  0  0
 26 29  1  0  0  0  0
M  END
$$$$

  -OEChem-02102214123D

 29 28  0     1  0  0  0  0  0999 V2000
   -2.2038   -4.7083    0.9339 H   0  0  0  0  0  0  0  0  0  0  0  0
   -2.3650   -3.8397    0.2889 C   0  0  0  0  0  0  0  0  0  0  0  0
   -3.3137   -3.3712    0.5607 H   0  0  0  0  0  0  0  0  0  0  0  0
   -2.4172   -4.1780   -0.7489 H   0  0  0  0  0  0  0  0  0  0  0  0
   -1.2281   -2.8489    0.4541 C   0  0  0  0  0  0  0  0  0  0  0  0
   -0.2922   -3.1192    1.1851 O   0  0  0  0  0  0  0  0  0  0  0  0
   -1.2715   -1.6429   -0.2194 N   0  0  0  0  0  0  0  0  0  0  0  0
   -1.9928   -1.5827   -0.9324 H   0  0  0  0  0  0  0  0  0  0  0  0
   -0.1051   -0.7486   -0.3708 C   0  0  1  0  0  0  0  0  0  0  0  0
    0.6836   -1.3463   -0.8427 H   0  0  0  0  0  0  0  0  0  0  0  0
   -0.3558    0.4851   -1.2884 C   0  0  0  0  0  0  0  0  0  0  0  0
   -0.1500    1.3989   -0.7187 H   0  0  0  0  0  0  0  0  0  0  0  0
    0.4027    0.4519   -2.0788 H   0  0  0  0  0  0  0  0  0  0  0  0
   -1.7568    0.6587   -1.9346 C   0  0  0  0  0  0  0  0  0  0  0  0
   -2.4781   -0.0999   -1.6343 H   0  0  0  0  0  0  0  0  0  0  0  0
   -2.1728    1.6176   -1.6130 H   0  0  0  0  0  0  0  0  0  0  0  0
   -1.6740    0.6646   -3.4543 C   0  0  0  0  0  0  0  0  0  0  0  0
   -1.9305   -0.3363   -4.0942 O   0  0  0  0  0  0  0  0  0  0  0  0
   -1.2909    1.7681   -4.1615 N   0  0  0  0  0  0  0  0  0  0  0  0
   -1.1031    1.6245   -5.1500 H   0  0  0  0  0  0  0  0  0  0  0  0
   -0.8761    2.5529   -3.6700 H   0  0  0  0  0  0  0  0  0  0  0  0
    0.4843   -0.2556    0.9719 C   0  0  0  0  0  0  0  0  0  0  0  0
    1.6756    0.0185    1.0388 O   0  0  0  0  0  0  0  0  0  0  0  0
   -0.3637    0.1892    1.9699 N   0  0  0  0  0  0  0  0  0  0  0  0
   -1.3172   -0.1550    1.9162 H   0  0  0  0  0  0  0  0  0  0  0  0
    0.1260    0.6790    3.2522 C   0  0  0  0  0  0  0  0  0  0  0  0
    0.7590    1.5613    3.1106 H   0  0  0  0  0  0  0  0  0  0  0  0
   -0.7138    0.9581    3.8954 H   0  0  0  0  0  0  0  0  0  0  0  0
    0.7101   -0.0960    3.7597 H   0  0  0  0  0  0  0  0  0  0  0  0
  1  2  1  0  0  0  0
  2  3  1  0  0  0  0
  2  4  1  0  0  0  0
  2  5  1  0  0  0  0
  5  6  2  0  0  0  0
  5  7  1  0  0  0  0
  7  8  1  0  0  0  0
  7  9  1  0  0  0  0
  9 10  1  0  0  0  0
  9 11  1  0  0  0  0
  9 22  1  0  0  0  0
 11 12  1  0  0  0  0
 11 13  1  0  0  0  0
 11 14  1  0  0  0  0
 14 15  1  0  0  0  0
 14 16  1  0  0  0  0
 14 17  1  0  0  0  0
 17 18  2  0  0  0  0
 17 19  1  0  0  0  0
 19 20  1  0  0  0  0
 19 21  1  0  0  0  0
 22 23  2  0  0  0  0
 22 24  1  0  0  0  0
 24 25  1  0  0  0  0
 24 26  1  0  0  0  0
 26 27  1  0  0  0  0
 26 28  1  0  0  0  0
 26 29  1  0  0  0  0
M  END
$$$$

  -OEChem-02102214123D

 29 28  0     1  0  0  0  0  0999 V2000
   -2.3039   -4.6679    0.8619 H   0  0  0  0  0  0  0  0  0  0  0  0
   -2.4361   -3.7763    0.2425 C   0  0  0  0  0  0  0  0  0  0  0  0
   -3.3789   -3.2957    0.5146 H   0  0  0  0  0  0  0  0  0  0  0  0
   -2.4794   -4.0798   -0.8066 H   0  0  0  0  0  0  0  0  0  0  0  0
   -1.2816   -2.8154    0.4555 C   0  0  0  0  0  0  0  0  0  0  0  0
   -0.3742   -3.1159    1.2106 O   0  0  0  0  0  0  0  0  0  0  0  0
   -1.2798   -1.6012   -0.2037 N   0  0  0  0  0  0  0  0  0  0  0  0
   -1.9716   -1.5314   -0.9472 H   0  0  0  0  0  0  0  0  0  0  0  0
   -0.0802   -0.7507   -0.3474 C   0  0  1  0  0  0  0  0  0  0  0  0
    0.6837   -1.3677   -0.8343 H   0  0  0  0  0  0  0  0  0  0  0  0
   -0.3095    0.4974   -1.2496 C   0  0  0  0  0  0  0  0  0  0  0  0
   -0.0964    1.3950   -0.6578 H   0  0  0  0  0  0  0  0  0  0  0  0
    0.4398    0.4825   -2.0494 H   0  0  0  0  0  0  0  0  0  0  0  0
   -1.7208    0.6889   -1.8603 C   0  0  0  0  0  0  0  0  0  0  0  0
   -2.5096    0.1553   -1.3287 H   0  0  0  0  0  0  0  0  0  0  0  0
   -1.9792    1.7486   -1.7830 H   0  0  0  0  0  0  0  0  0  0  0  0
   -1.7429    0.3327   -3.3378 C   0  0  0  0  0  0  0  0  0  0  0  0
   -2.1043   -0.7734   -3.6903 O   0  0  0  0  0  0  0  0  0  0  0  0
   -1.3485    1.2018   -4.3148 N   0  0  0  0  0  0  0  0  0  0  0  0
   -1.5083    0.9150   -5.2766 H   0  0  0  0  0  0  0  0  0  0  0  0
   -1.1689    2.1739   -4.0861 H   0  0  0  0  0  0  0  0  0  0  0  0
    0.5355   -0.2928    0.9957 C   0  0  0  0  0  0  0  0  0  0  0  0
    1.7369   -0.0648    1.0567 O   0  0  0  0  0  0  0  0  0  0  0  0
   -0.2880    0.1753    2.0035 N   0  0  0  0  0  0  0  0  0  0  0  0
   -1.2517   -0.1403    1.9574 H   0  0  0  0  0  0  0  0  0  0  0  0
    0.2309    0.6338    3.2859 C   0  0  0  0  0  0  0  0  0  0  0  0
    0.9088    1.4823    3.1451 H   0  0  0  0  0  0  0  0  0  0  0  0
   -0.5903    0.9543    3.9341 H   0  0  0  0  0  0  0  0  0  0  0  0
    0.7757   -0.1732    3.7874 H   0  0  0  0  0  0  0  0  0  0  0  0
  1  2  1  0  0  0  0
  2  3  1  0  0  0  0
  2  4  1  0  0  0  0
  2  5  1  0  0  0  0
  5  6  2  0  0  0  0
  5  7  1  0  0  0  0
  7  8  1  0  0  0  0
  7  9  1  0  0  0  0
  9 10  1  0  0  0  0
  9 11  1  0  0  0  0
  9 22  1  0  0  0  0
 11 12  1  0  0  0  0
 11 13  1  0  0  0  0
 11 14  1  0  0  0  0
 14 15  1  0  0  0  0
 14 16  1  0  0  0  0
 14 17  1  0  0  0  0
 17 18  2  0  0  0  0
 17 19  1  0  0  0  0
 19 20  1  0  0  0  0
 19 21  1  0  0  0  0
 22 23  2  0  0  0  0
 22 24  1  0  0  0  0
 24 25  1  0  0  0  0
 24 26  1  0  0  0  0
 26 27  1  0  0  0  0
 26 28  1  0  0  0  0
 26 29  1  0  0  0  0
M  END
$$$$

  -OEChem-02102214123D

 29 28  0     1  0  0  0  0  0999 V2000
   -2.3898   -4.6075    0.8022 H   0  0  0  0  0  0  0  0  0  0  0  0
   -2.4849   -3.7122    0.1814 C   0  0  0  0  0  0  0  0  0  0  0  0
   -3.4313   -3.2192    0.4159 H   0  0  0  0  0  0  0  0  0  0  0  0
   -2.4889   -4.0112   -0.8699 H   0  0  0  0  0  0  0  0  0  0  0  0
   -1.3273   -2.7676    0.4433 C   0  0  0  0  0  0  0  0  0  0  0  0
   -0.4466   -3.0883    1.2219 O   0  0  0  0  0  0  0  0  0  0  0  0
   -1.2924   -1.5465   -0.2007 N   0  0  0  0  0  0  0  0  0  0  0  0
   -1.9560   -1.4772   -0.9738 H   0  0  0  0  0  0  0  0  0  0  0  0
   -0.0660   -0.7329   -0.3383 C   0  0  1  0  0  0  0  0  0  0  0  0
    0.6764   -1.3613   -0.8432 H   0  0  0  0  0  0  0  0  0  0  0  0
   -0.2832    0.5336   -1.2162 C   0  0  0  0  0  0  0  0  0  0  0  0
   -0.0478    1.4196   -0.6154 H   0  0  0  0  0  0  0  0  0  0  0  0
    0.4420    0.5203   -2.0376 H   0  0  0  0  0  0  0  0  0  0  0  0
   -1.7078    0.7333   -1.7807 C   0  0  0  0  0  0  0  0  0  0  0  0
   -2.4888    0.4159   -1.0854 H   0  0  0  0  0  0  0  0  0  0  0  0
   -1.8633    1.8043   -1.9374 H   0  0  0  0  0  0  0  0  0  0  0  0
   -1.8685    0.0560   -3.1302 C   0  0  0  0  0  0  0  0  0  0  0  0
   -2.2618   -1.0951   -3.1743 O   0  0  0  0  0  0  0  0  0  0  0  0
   -1.5556    0.6636   -4.3123 N   0  0  0  0  0  0  0  0  0  0  0  0
   -1.7962    0.1661   -5.1653 H   0  0  0  0  0  0  0  0  0  0  0  0
   -1.3427    1.6556   -4.3319 H   0  0  0  0  0  0  0  0  0  0  0  0
    0.5712   -0.3112    1.0061 C   0  0  0  0  0  0  0  0  0  0  0  0
    1.7798   -0.1236    1.0641 O   0  0  0  0  0  0  0  0  0  0  0  0
   -0.2338    0.1706    2.0220 N   0  0  0  0  0  0  0  0  0  0  0  0
   -1.2052   -0.1218    1.9762 H   0  0  0  0  0  0  0  0  0  0  0  0
    0.3033    0.5878    3.3108 C   0  0  0  0  0  0  0  0  0  0  0  0
    1.0052    1.4189    3.1845 H   0  0  0  0  0  0  0  0  0  0  0  0
   -0.5060    0.9186    3.9685 H   0  0  0  0  0  0  0  0  0  0  0  0
    0.8259   -0.2450    3.7933 H   0  0  0  0  0  0  0  0  0  0  0  0
  1  2  1  0  0  0  0
  2  3  1  0  0  0  0
  2  4  1  0  0  0  0
  2  5  1  0  0  0  0
  5  6  2  0  0  0  0
  5  7  1  0  0  0  0
  7  8  1  0  0  0  0
  7  9  1  0  0  0  0
  9 10  1  0  0  0  0
  9 11  1  0  0  0  0
  9 22  1  0  0  0  0
 11 12  1  0  0  0  0
 11 13  1  0  0  0  0
 11 14  1  0  0  0  0
 14 15  1  0  0  0  0
 14 16  1  0  0  0  0
 14 17  1  0  0  0  0
 17 18  2  0  0  0  0
 17 19  1  0  0  0  0
 19 20  1  0  0  0  0
 19 21  1  0  0  0  0
 22 23  2  0  0  0  0
 22 24  1  0  0  0  0
 24 25  1  0  0  0  0
 24 26  1  0  0  0  0
 26 27  1  0  0  0  0
 26 28  1  0  0  0  0
 26 29  1  0  0  0  0
M  END
$$$$

  -OEChem-02102214123D

 29 28  0     1  0  0  0  0  0999 V2000
   -2.3476   -4.6387    0.7010 H   0  0  0  0  0  0  0  0  0  0  0  0
   -2.5041   -3.6865    0.1867 C   0  0  0  0  0  0  0  0  0  0  0  0
   -3.4152   -3.2220    0.5712 H   0  0  0  0  0  0  0  0  0  0  0  0
   -2.6266   -3.8792   -0.8823 H   0  0  0  0  0  0  0  0  0  0  0  0
   -1.3185   -2.7678    0.4128 C   0  0  0  0  0  0  0  0  0  0  0  0
   -0.4029   -3.1213    1.1353 O   0  0  0  0  0  0  0  0  0  0  0  0
   -1.2974   -1.5307   -0.1992 N   0  0  0  0  0  0  0  0  0  0  0  0
   -2.0072   -1.4245   -0.9277 H   0  0  0  0  0  0  0  0  0  0  0  0
   -0.0794   -0.7051   -0.3392 C   0  0  1  0  0  0  0  0  0  0  0  0
    0.6572   -1.3205   -0.8680 H   0  0  0  0  0  0  0  0  0  0  0  0
   -0.3074    0.5801   -1.1871 C   0  0  0  0  0  0  0  0  0  0  0  0
   -0.0615    1.4555   -0.5750 H   0  0  0  0  0  0  0  0  0  0  0  0
    0.4052    0.5760   -2.0191 H   0  0  0  0  0  0  0  0  0  0  0  0
   -1.7323    0.7970   -1.7391 C   0  0  0  0  0  0  0  0  0  0  0  0
   -2.4784    0.6647   -0.9499 H   0  0  0  0  0  0  0  0  0  0  0  0
   -1.8204    1.8298   -2.0872 H   0  0  0  0  0  0  0  0  0  0  0  0
   -2.0436   -0.1201   -2.9144 C   0  0  0  0  0  0  0  0  0  0  0  0
   -2.6493   -1.1620   -2.7389 O   0  0  0  0  0  0  0  0  0  0  0  0
   -1.6433    0.1579   -4.1898 N   0  0  0  0  0  0  0  0  0  0  0  0
   -1.9984   -0.4471   -4.9253 H   0  0  0  0  0  0  0  0  0  0  0  0
   -1.2635    1.0727   -4.4109 H   0  0  0  0  0  0  0  0  0  0  0  0
    0.5792   -0.3130    1.0035 C   0  0  0  0  0  0  0  0  0  0  0  0
    1.7864   -0.1117    1.0415 O   0  0  0  0  0  0  0  0  0  0  0  0
   -0.2099    0.1373    2.0459 N   0  0  0  0  0  0  0  0  0  0  0  0
   -1.1808   -0.1584    2.0128 H   0  0  0  0  0  0  0  0  0  0  0  0
    0.3480    0.5478    3.3280 C   0  0  0  0  0  0  0  0  0  0  0  0
    1.0305    1.3938    3.1962 H   0  0  0  0  0  0  0  0  0  0  0  0
   -0.4523    0.8547    4.0079 H   0  0  0  0  0  0  0  0  0  0  0  0
    0.8977   -0.2800    3.7883 H   0  0  0  0  0  0  0  0  0  0  0  0
  1  2  1  0  0  0  0
  2  3  1  0  0  0  0
  2  4  1  0  0  0  0
  2  5  1  0  0  0  0
  5  6  2  0  0  0  0
  5  7  1  0  0  0  0
  7  8  1  0  0  0  0
  7  9  1  0  0  0  0
  9 10  1  0  0  0  0
  9 11  1  0  0  0  0
  9 22  1  0  0  0  0
 11 12  1  0  0  0  0
 11 13  1  0  0  0  0
 11 14  1  0  0  0  0
 14 15  1  0  0  0  0
 14 16  1  0  0  0  0
 14 17  1  0  0  0  0
 17 18  2  0  0  0  0
 17 19  1  0  0  0  0
 19 20  1  0  0  0  0
 19 21  1  0  0  0  0
 22 23  2  0  0  0  0
 22 24  1  0  0  0  0
 24 25  1  0  0  0  0
 24 26  1  0  0  0  0
 26 27  1  0  0  0  0
 26 28  1  0  0  0  0
 26 29  1  0  0  0  0
M  END
$$$$

  -OEChem-02102214123D

 29 28  0     1  0  0  0  0  0999 V2000
   -2.4640   -4.5916    0.7747 H   0  0  0  0  0  0  0  0  0  0  0  0
   -2.4971   -3.6954    0.1487 C   0  0  0  0  0  0  0  0  0  0  0  0
   -3.4607   -3.2005    0.2905 H   0  0  0  0  0  0  0  0  0  0  0  0
   -2.3990   -3.9936   -0.8983 H   0  0  0  0  0  0  0  0  0  0  0  0
   -1.3692   -2.7533    0.5235 C   0  0  0  0  0  0  0  0  0  0  0  0
   -0.6215   -3.0417    1.4415 O   0  0  0  0  0  0  0  0  0  0  0  0
   -1.2230   -1.5690   -0.1720 N   0  0  0  0  0  0  0  0  0  0  0  0
   -1.7533   -1.5711   -1.0437 H   0  0  0  0  0  0  0  0  0  0  0  0
    0.0546   -0.8343   -0.2414 C   0  0  1  0  0  0  0  0  0  0  0  0
    0.7966   -1.5253   -0.6573 H   0  0  0  0  0  0  0  0  0  0  0  0
    0.0027    0.4188   -1.1682 C   0  0  0  0  0  0  0  0  0  0  0  0
    0.2959    1.3027   -0.5900 H   0  0  0  0  0  0  0  0  0  0  0  0
    0.7793    0.2813   -1.9284 H   0  0  0  0  0  0  0  0  0  0  0  0
   -1.3124    0.7820   -1.9070 C   0  0  0  0  0  0  0  0  0  0  0  0
   -2.0778    0.9979   -1.1564 H   0  0  0  0  0  0  0  0  0  0  0  0
   -1.1340    1.7058   -2.4641 H   0  0  0  0  0  0  0  0  0  0  0  0
   -1.9008   -0.2359   -2.8862 C   0  0  0  0  0  0  0  0  0  0  0  0
   -1.5816   -1.4086   -2.9306 O   0  0  0  0  0  0  0  0  0  0  0  0
   -2.8838    0.1248   -3.7613 N   0  0  0  0  0  0  0  0  0  0  0  0
   -3.1064   -0.5535   -4.4849 H   0  0  0  0  0  0  0  0  0  0  0  0
   -3.0677    1.1110   -3.9153 H   0  0  0  0  0  0  0  0  0  0  0  0
    0.5990   -0.3882    1.1364 C   0  0  0  0  0  0  0  0  0  0  0  0
    1.8071   -0.2652    1.2952 O   0  0  0  0  0  0  0  0  0  0  0  0
   -0.2619    0.1831    2.0557 N   0  0  0  0  0  0  0  0  0  0  0  0
   -1.2378   -0.0731    1.9411 H   0  0  0  0  0  0  0  0  0  0  0  0
    0.1850    0.6329    3.3676 C   0  0  0  0  0  0  0  0  0  0  0  0
    0.9583    1.4017    3.2677 H   0  0  0  0  0  0  0  0  0  0  0  0
   -0.6530    1.0602    3.9262 H   0  0  0  0  0  0  0  0  0  0  0  0
    0.5942   -0.2062    3.9399 H   0  0  0  0  0  0  0  0  0  0  0  0
  1  2  1  0  0  0  0
  2  3  1  0  0  0  0
  2  4  1  0  0  0  0
  2  5  1  0  0  0  0
  5  6  2  0  0  0  0
  5  7  1  0  0  0  0
  7  8  1  0  0  0  0
  7  9  1  0  0  0  0
  9 10  1  0  0  0  0
  9 11  1  0  0  0  0
  9 22  1  0  0  0  0
 11 12  1  0  0  0  0
 11 13  1  0  0  0  0
 11 14  1  0  0  0  0
 14 15  1  0  0  0  0
 14 16  1  0  0  0  0
 14 17  1  0  0  0  0
 17 18  2  0  0  0  0
 17 19  1  0  0  0  0
 19 20  1  0  0  0  0
 19 21  1  0  0  0  0
 22 23  2  0  0  0  0
 22 24  1  0  0  0  0
 24 25  1  0  0  0  0
 24 26  1  0  0  0  0
 26 27  1  0  0  0  0
 26 28  1  0  0  0  0
 26 29  1  0  0  0  0
M  END
$$$$

  -OEChem-02102214123D

 29 28  0     1  0  0  0  0  0999 V2000
   -2.4317   -4.6235    0.7625 H   0  0  0  0  0  0  0  0  0  0  0  0
   -2.4747   -3.7209    0.1467 C   0  0  0  0  0  0  0  0  0  0  0  0
   -3.4435   -3.2382    0.2941 H   0  0  0  0  0  0  0  0  0  0  0  0
   -2.3742   -4.0068   -0.9036 H   0  0  0  0  0  0  0  0  0  0  0  0
   -1.3566   -2.7708    0.5317 C   0  0  0  0  0  0  0  0  0  0  0  0
   -0.6289   -3.0443    1.4701 O   0  0  0  0  0  0  0  0  0  0  0  0
   -1.1965   -1.5973   -0.1794 N   0  0  0  0  0  0  0  0  0  0  0  0
   -1.7052   -1.6206   -1.0626 H   0  0  0  0  0  0  0  0  0  0  0  0
    0.0805   -0.8590   -0.2306 C   0  0  1  0  0  0  0  0  0  0  0  0
    0.8336   -1.5580   -0.6114 H   0  0  0  0  0  0  0  0  0  0  0  0
    0.0743    0.3862   -1.1748 C   0  0  0  0  0  0  0  0  0  0  0  0
    0.3858    1.2712   -0.6077 H   0  0  0  0  0  0  0  0  0  0  0  0
    0.8666    0.2051   -1.9093 H   0  0  0  0  0  0  0  0  0  0  0  0
   -1.1895    0.7923   -1.9828 C   0  0  0  0  0  0  0  0  0  0  0  0
   -1.8812    1.2610   -1.2773 H   0  0  0  0  0  0  0  0  0  0  0  0
   -0.8974    1.5561   -2.7087 H   0  0  0  0  0  0  0  0  0  0  0  0
   -1.9862   -0.2750   -2.7317 C   0  0  0  0  0  0  0  0  0  0  0  0
   -1.5818   -1.4019   -2.9450 O   0  0  0  0  0  0  0  0  0  0  0  0
   -3.2471   -0.0204   -3.1866 N   0  0  0  0  0  0  0  0  0  0  0  0
   -3.6304   -0.7062   -3.8316 H   0  0  0  0  0  0  0  0  0  0  0  0
   -3.5640    0.9430   -3.2275 H   0  0  0  0  0  0  0  0  0  0  0  0
    0.5857   -0.3907    1.1552 C   0  0  0  0  0  0  0  0  0  0  0  0
    1.7888   -0.2620    1.3443 O   0  0  0  0  0  0  0  0  0  0  0  0
   -0.2999    0.1910    2.0441 N   0  0  0  0  0  0  0  0  0  0  0  0
   -1.2723   -0.0687    1.9093 H   0  0  0  0  0  0  0  0  0  0  0  0
    0.1132    0.6630    3.3594 C   0  0  0  0  0  0  0  0  0  0  0  0
    0.8844    1.4349    3.2664 H   0  0  0  0  0  0  0  0  0  0  0  0
   -0.7404    1.0933    3.8917 H   0  0  0  0  0  0  0  0  0  0  0  0
    0.5133   -0.1653    3.9535 H   0  0  0  0  0  0  0  0  0  0  0  0
  1  2  1  0  0  0  0
  2  3  1  0  0  0  0
  2  4  1  0  0  0  0
  2  5  1  0  0  0  0
  5  6  2  0  0  0  0
  5  7  1  0  0  0  0
  7  8  1  0  0  0  0
  7  9  1  0  0  0  0
  9 10  1  0  0  0  0
  9 11  1  0  0  0  0
  9 22  1  0  0  0  0
 11 12  1  0  0  0  0
 11 13  1  0  0  0  0
 11 14  1  0  0  0  0
 14 15  1  0  0  0  0
 14 16  1  0  0  0  0
 14 17  1  0  0  0  0
 17 18  2  0  0  0  0
 17 19  1  0  0  0  0
 19 20  1  0  0  0  0
 19 21  1  0  0  0  0
 22 23  2  0  0  0  0
 22 24  1  0  0  0  0
 24 25  1  0  0  0  0
 24 26  1  0  0  0  0
 26 27  1  0  0  0  0
 26 28  1  0  0  0  0
 26 29  1  0  0  0  0
M  END
$$$$

  -OEChem-02102214123D

 29 28  0     1  0  0  0  0  0999 V2000
   -2.3788   -4.6654    0.7893 H   0  0  0  0  0  0  0  0  0  0  0  0
   -2.4386   -3.7618    0.1762 C   0  0  0  0  0  0  0  0  0  0  0  0
   -3.4091   -3.2873    0.3384 H   0  0  0  0  0  0  0  0  0  0  0  0
   -2.3511   -4.0447   -0.8759 H   0  0  0  0  0  0  0  0  0  0  0  0
   -1.3237   -2.8023    0.5466 C   0  0  0  0  0  0  0  0  0  0  0  0
   -0.5861   -3.0639    1.4806 O   0  0  0  0  0  0  0  0  0  0  0  0
   -1.1754   -1.6352   -0.1768 N   0  0  0  0  0  0  0  0  0  0  0  0
   -1.6945   -1.6664   -1.0540 H   0  0  0  0  0  0  0  0  0  0  0  0
    0.0869   -0.8731   -0.2283 C   0  0  1  0  0  0  0  0  0  0  0  0
    0.8547   -1.5696   -0.5842 H   0  0  0  0  0  0  0  0  0  0  0  0
    0.0948    0.3596   -1.1929 C   0  0  0  0  0  0  0  0  0  0  0  0
    0.4103    1.2499   -0.6364 H   0  0  0  0  0  0  0  0  0  0  0  0
    0.9021    0.1540   -1.9043 H   0  0  0  0  0  0  0  0  0  0  0  0
   -1.1301    0.7847   -2.0562 C   0  0  0  0  0  0  0  0  0  0  0  0
   -1.7052    1.4887   -1.4486 H   0  0  0  0  0  0  0  0  0  0  0  0
   -0.7625    1.3382   -2.9246 H   0  0  0  0  0  0  0  0  0  0  0  0
   -2.1273   -0.2546   -2.5603 C   0  0  0  0  0  0  0  0  0  0  0  0
   -1.8075   -1.3783   -2.8995 O   0  0  0  0  0  0  0  0  0  0  0  0
   -3.4653    0.0083   -2.6198 N   0  0  0  0  0  0  0  0  0  0  0  0
   -4.0228   -0.6612   -3.1436 H   0  0  0  0  0  0  0  0  0  0  0  0
   -3.7726    0.9732   -2.5500 H   0  0  0  0  0  0  0  0  0  0  0  0
    0.5666   -0.3800    1.1581 C   0  0  0  0  0  0  0  0  0  0  0  0
    1.7648   -0.2265    1.3597 O   0  0  0  0  0  0  0  0  0  0  0  0
   -0.3396    0.1935    2.0315 N   0  0  0  0  0  0  0  0  0  0  0  0
   -1.3053   -0.0862    1.8898 H   0  0  0  0  0  0  0  0  0  0  0  0
    0.0516    0.6882    3.3453 C   0  0  0  0  0  0  0  0  0  0  0  0
    0.7997    1.4823    3.2497 H   0  0  0  0  0  0  0  0  0  0  0  0
   -0.8173    1.0967    3.8698 H   0  0  0  0  0  0  0  0  0  0  0  0
    0.4739   -0.1226    3.9483 H   0  0  0  0  0  0  0  0  0  0  0  0
  1  2  1  0  0  0  0
  2  3  1  0  0  0  0
  2  4  1  0  0  0  0
  2  5  1  0  0  0  0
  5  6  2  0  0  0  0
  5  7  1  0  0  0  0
  7  8  1  0  0  0  0
  7  9  1  0  0  0  0
  9 10  1  0  0  0  0
  9 11  1  0  0  0  0
  9 22  1  0  0  0  0
 11 12  1  0  0  0  0
 11 13  1  0  0  0  0
 11 14  1  0  0  0  0
 14 15  1  0  0  0  0
 14 16  1  0  0  0  0
 14 17  1  0  0  0  0
 17 18  2  0  0  0  0
 17 19  1  0  0  0  0
 19 20  1  0  0  0  0
 19 21  1  0  0  0  0
 22 23  2  0  0  0  0
 22 24  1  0  0  0  0
 24 25  1  0  0  0  0
 24 26  1  0  0  0  0
 26 27  1  0  0  0  0
 26 28  1  0  0  0  0
 26 29  1  0  0  0  0
M  END
$$$$

  -OEChem-02102214123D

 29 28  0     1  0  0  0  0  0999 V2000
   -2.3528   -4.6724    0.9051 H   0  0  0  0  0  0  0  0  0  0  0  0
   -2.4343   -3.7757    0.2845 C   0  0  0  0  0  0  0  0  0  0  0  0
   -3.3995   -3.3005    0.4736 H   0  0  0  0  0  0  0  0  0  0  0  0
   -2.3811   -4.0703   -0.7668 H   0  0  0  0  0  0  0  0  0  0  0  0
   -1.3103   -2.8104    0.6088 C   0  0  0  0  0  0  0  0  0  0  0  0
   -0.5663   -3.0414    1.5458 O   0  0  0  0  0  0  0  0  0  0  0  0
   -1.1597   -1.6721   -0.1588 N   0  0  0  0  0  0  0  0  0  0  0  0
   -1.6905   -1.7217   -1.0289 H   0  0  0  0  0  0  0  0  0  0  0  0
    0.0907   -0.8910   -0.2174 C   0  0  1  0  0  0  0  0  0  0  0  0
    0.8764   -1.5936   -0.5184 H   0  0  0  0  0  0  0  0  0  0  0  0
    0.1260    0.3007   -1.2345 C   0  0  0  0  0  0  0  0  0  0  0  0
    0.4239    1.2114   -0.7020 H   0  0  0  0  0  0  0  0  0  0  0  0
    0.9621    0.0688   -1.9032 H   0  0  0  0  0  0  0  0  0  0  0  0
   -1.0573    0.7043   -2.1684 C   0  0  0  0  0  0  0  0  0  0  0  0
   -1.4826    1.6237   -1.7565 H   0  0  0  0  0  0  0  0  0  0  0  0
   -0.6452    0.9625   -3.1482 H   0  0  0  0  0  0  0  0  0  0  0  0
   -2.2275   -0.2426   -2.4062 C   0  0  0  0  0  0  0  0  0  0  0  0
   -2.0794   -1.3783   -2.8172 O   0  0  0  0  0  0  0  0  0  0  0  0
   -3.5108    0.0980   -2.0876 N   0  0  0  0  0  0  0  0  0  0  0  0
   -4.2337   -0.5202   -2.4460 H   0  0  0  0  0  0  0  0  0  0  0  0
   -3.7247    1.0754   -1.9156 H   0  0  0  0  0  0  0  0  0  0  0  0
    0.5231   -0.3355    1.1610 C   0  0  0  0  0  0  0  0  0  0  0  0
    1.7122   -0.1516    1.3891 O   0  0  0  0  0  0  0  0  0  0  0  0
   -0.4180    0.2543    1.9852 N   0  0  0  0  0  0  0  0  0  0  0  0
   -1.3753   -0.0433    1.8232 H   0  0  0  0  0  0  0  0  0  0  0  0
   -0.0750    0.8014    3.2916 C   0  0  0  0  0  0  0  0  0  0  0  0
    0.6617    1.6053    3.1904 H   0  0  0  0  0  0  0  0  0  0  0  0
   -0.9664    1.2109    3.7759 H   0  0  0  0  0  0  0  0  0  0  0  0
    0.3429    0.0196    3.9345 H   0  0  0  0  0  0  0  0  0  0  0  0
  1  2  1  0  0  0  0
  2  3  1  0  0  0  0
  2  4  1  0  0  0  0
  2  5  1  0  0  0  0
  5  6  2  0  0  0  0
  5  7  1  0  0  0  0
  7  8  1  0  0  0  0
  7  9  1  0  0  0  0
  9 10  1  0  0  0  0
  9 11  1  0  0  0  0
  9 22  1  0  0  0  0
 11 12  1  0  0  0  0
 11 13  1  0  0  0  0
 11 14  1  0  0  0  0
 14 15  1  0  0  0  0
 14 16  1  0  0  0  0
 14 17  1  0  0  0  0
 17 18  2  0  0  0  0
 17 19  1  0  0  0  0
 19 20  1  0  0  0  0
 19 21  1  0  0  0  0
 22 23  2  0  0  0  0
 22 24  1  0  0  0  0
 24 25  1  0  0  0  0
 24 26  1  0  0  0  0
 26 27  1  0  0  0  0
 26 28  1  0  0  0  0
 26 29  1  0  0  0  0
M  END
$$$$

  -OEChem-02102214123D

 29 28  0     1  0  0  0  0  0999 V2000
   -1.9349   -4.7267    1.1380 H   0  0  0  0  0  0  0  0  0  0  0  0
   -2.1048   -3.8918    0.4524 C   0  0  0  0  0  0  0  0  0  0  0  0
   -3.0942   -3.4707    0.6458 H   0  0  0  0  0  0  0  0  0  0  0  0
   -2.0720   -4.2660   -0.5741 H   0  0  0  0  0  0  0  0  0  0  0  0
   -1.0416   -2.8279    0.6484 C   0  0  0  0  0  0  0  0  0  0  0  0
   -0.1871   -2.9748    1.5046 O   0  0  0  0  0  0  0  0  0  0  0  0
   -1.0664   -1.6982   -0.1454 N   0  0  0  0  0  0  0  0  0  0  0  0
   -1.6867   -1.7941   -0.9508 H   0  0  0  0  0  0  0  0  0  0  0  0
    0.0790   -0.7823   -0.3036 C   0  0  1  0  0  0  0  0  0  0  0  0
    0.9175   -1.4040   -0.6374 H   0  0  0  0  0  0  0  0  0  0  0  0
   -0.0720    0.3720   -1.3542 C   0  0  0  0  0  0  0  0  0  0  0  0
    0.1220    1.3214   -0.8412 H   0  0  0  0  0  0  0  0  0  0  0  0
    0.7642    0.2448   -2.0505 H   0  0  0  0  0  0  0  0  0  0  0  0
   -1.3381    0.6195   -2.2342 C   0  0  0  0  0  0  0  0  0  0  0  0
   -1.6754    1.6429   -2.0473 H   0  0  0  0  0  0  0  0  0  0  0  0
   -1.0258    0.5838   -3.2823 H   0  0  0  0  0  0  0  0  0  0  0  0
   -2.5579   -0.2845   -2.1184 C   0  0  0  0  0  0  0  0  0  0  0  0
   -2.5653   -1.4264   -2.5401 O   0  0  0  0  0  0  0  0  0  0  0  0
   -3.6834    0.1051   -1.4506 N   0  0  0  0  0  0  0  0  0  0  0  0
   -4.5004   -0.4869   -1.5737 H   0  0  0  0  0  0  0  0  0  0  0  0
   -3.8016    1.0891   -1.2310 H   0  0  0  0  0  0  0  0  0  0  0  0
    0.5309   -0.1490    1.0346 C   0  0  0  0  0  0  0  0  0  0  0  0
    1.7031    0.1730    1.1823 O   0  0  0  0  0  0  0  0  0  0  0  0
   -0.4177    0.3488    1.9096 N   0  0  0  0  0  0  0  0  0  0  0  0
   -1.3451   -0.0529    1.8108 H   0  0  0  0  0  0  0  0  0  0  0  0
   -0.0592    0.9576    3.1845 C   0  0  0  0  0  0  0  0  0  0  0  0
    0.5821    1.8313    3.0272 H   0  0  0  0  0  0  0  0  0  0  0  0
   -0.9592    1.2836    3.7142 H   0  0  0  0  0  0  0  0  0  0  0  0
    0.4743    0.2383    3.8147 H   0  0  0  0  0  0  0  0  0  0  0  0
  1  2  1  0  0  0  0
  2  3  1  0  0  0  0
  2  4  1  0  0  0  0
  2  5  1  0  0  0  0
  5  6  2  0  0  0  0
  5  7  1  0  0  0  0
  7  8  1  0  0  0  0
  7  9  1  0  0  0  0
  9 10  1  0  0  0  0
  9 11  1  0  0  0  0
  9 22  1  0  0  0  0
 11 12  1  0  0  0  0
 11 13  1  0  0  0  0
 11 14  1  0  0  0  0
 14 15  1  0  0  0  0
 14 16  1  0  0  0  0
 14 17  1  0  0  0  0
 17 18  2  0  0  0  0
 17 19  1  0  0  0  0
 19 20  1  0  0  0  0
 19 21  1  0  0  0  0
 22 23  2  0  0  0  0
 22 24  1  0  0  0  0
 24 25  1  0  0  0  0
 24 26  1  0  0  0  0
 26 27  1  0  0  0  0
 26 28  1  0  0  0  0
 26 29  1  0  0  0  0
M  END
$$$$

  -OEChem-02102214123D

 29 28  0     1  0  0  0  0  0999 V2000
   -2.0400   -4.6368    0.6702 H   0  0  0  0  0  0  0  0  0  0  0  0
   -2.3041   -3.6407    0.3042 C   0  0  0  0  0  0  0  0  0  0  0  0
   -2.8700   -3.1195    1.0802 H   0  0  0  0  0  0  0  0  0  0  0  0
   -2.9302   -3.7451   -0.5851 H   0  0  0  0  0  0  0  0  0  0  0  0
   -1.0494   -2.8601   -0.0368 C   0  0  0  0  0  0  0  0  0  0  0  0
    0.0393   -3.4060    0.0103 O   0  0  0  0  0  0  0  0  0  0  0  0
   -1.1542   -1.5328   -0.4010 N   0  0  0  0  0  0  0  0  0  0  0  0
   -2.0721   -1.1196   -0.2342 H   0  0  0  0  0  0  0  0  0  0  0  0
   -0.0030   -0.6155   -0.4617 C   0  0  1  0  0  0  0  0  0  0  0  0
    0.7301   -1.0991   -1.1177 H   0  0  0  0  0  0  0  0  0  0  0  0
   -0.2514    0.8057   -1.0677 C   0  0  0  0  0  0  0  0  0  0  0  0
    0.0332    1.5332   -0.2987 H   0  0  0  0  0  0  0  0  0  0  0  0
    0.4756    0.9350   -1.8768 H   0  0  0  0  0  0  0  0  0  0  0  0
   -1.6304    1.2996   -1.6033 C   0  0  0  0  0  0  0  0  0  0  0  0
   -1.7710    2.3372   -1.2867 H   0  0  0  0  0  0  0  0  0  0  0  0
   -1.5624    1.3111   -2.6946 H   0  0  0  0  0  0  0  0  0  0  0  0
   -2.9050    0.5418   -1.2530 C   0  0  0  0  0  0  0  0  0  0  0  0
   -3.2367    0.3342   -0.0982 O   0  0  0  0  0  0  0  0  0  0  0  0
   -3.7006   -0.0258   -2.2064 N   0  0  0  0  0  0  0  0  0  0  0  0
   -4.6067   -0.3637   -1.8945 H   0  0  0  0  0  0  0  0  0  0  0  0
   -3.5629    0.2347   -3.1780 H   0  0  0  0  0  0  0  0  0  0  0  0
    0.6954   -0.4723    0.9099 C   0  0  0  0  0  0  0  0  0  0  0  0
    1.9030   -0.2819    0.9662 O   0  0  0  0  0  0  0  0  0  0  0  0
   -0.0691   -0.2974    2.0496 N   0  0  0  0  0  0  0  0  0  0  0  0
   -1.0782   -0.3581    1.9445 H   0  0  0  0  0  0  0  0  0  0  0  0
    0.4967   -0.0279    3.3647 C   0  0  0  0  0  0  0  0  0  0  0  0
    1.0603    0.9108    3.3544 H   0  0  0  0  0  0  0  0  0  0  0  0
   -0.3007    0.0552    4.1094 H   0  0  0  0  0  0  0  0  0  0  0  0
    1.1679   -0.8393    3.6653 H   0  0  0  0  0  0  0  0  0  0  0  0
  1  2  1  0  0  0  0
  2  3  1  0  0  0  0
  2  4  1  0  0  0  0
  2  5  1  0  0  0  0
  5  6  2  0  0  0  0
  5  7  1  0  0  0  0
  7  8  1  0  0  0  0
  7  9  1  0  0  0  0
  9 10  1  0  0  0  0
  9 11  1  0  0  0  0
  9 22  1  0  0  0  0
 11 12  1  0  0  0  0
 11 13  1  0  0  0  0
 11 14  1  0  0  0  0
 14 15  1  0  0  0  0
 14 16  1  0  0  0  0
 14 17  1  0  0  0  0
 17 18  2  0  0  0  0
 17 19  1  0  0  0  0
 19 20  1  0  0  0  0
 19 21  1  0  0  0  0
 22 23  2  0  0  0  0
 22 24  1  0  0  0  0
 24 25  1  0  0  0  0
 24 26  1  0  0  0  0
 26 27  1  0  0  0  0
 26 28  1  0  0  0  0
 26 29  1  0  0  0  0
M  END
$$$$

  -OEChem-02102214123D

 29 28  0     1  0  0  0  0  0999 V2000
   -2.3575   -4.4776    0.9614 H   0  0  0  0  0  0  0  0  0  0  0  0
   -2.5068   -3.4957    0.5038 C   0  0  0  0  0  0  0  0  0  0  0  0
   -3.0485   -2.8585    1.2071 H   0  0  0  0  0  0  0  0  0  0  0  0
   -3.1037   -3.6161   -0.4033 H   0  0  0  0  0  0  0  0  0  0  0  0
   -1.1684   -2.8692    0.1624 C   0  0  0  0  0  0  0  0  0  0  0  0
   -0.1387   -3.4937    0.3508 O   0  0  0  0  0  0  0  0  0  0  0  0
   -1.1305   -1.5933   -0.3649 N   0  0  0  0  0  0  0  0  0  0  0  0
   -2.0135   -1.0901   -0.2880 H   0  0  0  0  0  0  0  0  0  0  0  0
    0.0949   -0.7733   -0.3720 C   0  0  1  0  0  0  0  0  0  0  0  0
    0.8656   -1.3698   -0.8736 H   0  0  0  0  0  0  0  0  0  0  0  0
    0.0221    0.5900   -1.1342 C   0  0  0  0  0  0  0  0  0  0  0  0
    0.2704    1.3779   -0.4136 H   0  0  0  0  0  0  0  0  0  0  0  0
    0.8339    0.5936   -1.8695 H   0  0  0  0  0  0  0  0  0  0  0  0
   -1.2654    1.0841   -1.8546 C   0  0  0  0  0  0  0  0  0  0  0  0
   -1.2407    2.1760   -1.9100 H   0  0  0  0  0  0  0  0  0  0  0  0
   -1.2152    0.7096   -2.8808 H   0  0  0  0  0  0  0  0  0  0  0  0
   -2.6281    0.6699   -1.3072 C   0  0  0  0  0  0  0  0  0  0  0  0
   -2.8571    0.5926   -0.1113 O   0  0  0  0  0  0  0  0  0  0  0  0
   -3.6584    0.3093   -2.1267 N   0  0  0  0  0  0  0  0  0  0  0  0
   -4.5722    0.2306   -1.6886 H   0  0  0  0  0  0  0  0  0  0  0  0
   -3.5895    0.5187   -3.1179 H   0  0  0  0  0  0  0  0  0  0  0  0
    0.6116   -0.5198    1.0623 C   0  0  0  0  0  0  0  0  0  0  0  0
    1.8122   -0.4265    1.2797 O   0  0  0  0  0  0  0  0  0  0  0  0
   -0.2885   -0.1566    2.0487 N   0  0  0  0  0  0  0  0  0  0  0  0
   -1.2626   -0.0616    1.7681 H   0  0  0  0  0  0  0  0  0  0  0  0
    0.1115    0.2727    3.3818 C   0  0  0  0  0  0  0  0  0  0  0  0
    0.6673    1.2144    3.3300 H   0  0  0  0  0  0  0  0  0  0  0  0
   -0.7707    0.4227    4.0114 H   0  0  0  0  0  0  0  0  0  0  0  0
    0.7453   -0.4860    3.8531 H   0  0  0  0  0  0  0  0  0  0  0  0
  1  2  1  0  0  0  0
  2  3  1  0  0  0  0
  2  4  1  0  0  0  0
  2  5  1  0  0  0  0
  5  6  2  0  0  0  0
  5  7  1  0  0  0  0
  7  8  1  0  0  0  0
  7  9  1  0  0  0  0
  9 10  1  0  0  0  0
  9 11  1  0  0  0  0
  9 22  1  0  0  0  0
 11 12  1  0  0  0  0
 11 13  1  0  0  0  0
 11 14  1  0  0  0  0
 14 15  1  0  0  0  0
 14 16  1  0  0  0  0
 14 17  1  0  0  0  0
 17 18  2  0  0  0  0
 17 19  1  0  0  0  0
 19 20  1  0  0  0  0
 19 21  1  0  0  0  0
 22 23  2  0  0  0  0
 22 24  1  0  0  0  0
 24 25  1  0  0  0  0
 24 26  1  0  0  0  0
 26 27  1  0  0  0  0
 26 28  1  0  0  0  0
 26 29  1  0  0  0  0
M  END
$$$$

  -OEChem-02102214123D

 29 28  0     1  0  0  0  0  0999 V2000
   -2.3954   -4.4412    0.9362 H   0  0  0  0  0  0  0  0  0  0  0  0
   -2.5228   -3.4619    0.4660 C   0  0  0  0  0  0  0  0  0  0  0  0
   -3.0566   -2.8062    1.1583 H   0  0  0  0  0  0  0  0  0  0  0  0
   -3.1155   -3.5814   -0.4438 H   0  0  0  0  0  0  0  0  0  0  0  0
   -1.1697   -2.8665    0.1263 C   0  0  0  0  0  0  0  0  0  0  0  0
   -0.1548   -3.5115    0.3261 O   0  0  0  0  0  0  0  0  0  0  0  0
   -1.1016   -1.5977   -0.4153 N   0  0  0  0  0  0  0  0  0  0  0  0
   -1.9731   -1.0765   -0.3359 H   0  0  0  0  0  0  0  0  0  0  0  0
    0.1363   -0.7958   -0.3790 C   0  0  1  0  0  0  0  0  0  0  0  0
    0.9215   -1.3971   -0.8518 H   0  0  0  0  0  0  0  0  0  0  0  0
    0.0759    0.5612   -1.1469 C   0  0  0  0  0  0  0  0  0  0  0  0
    0.3118    1.3634   -0.4376 H   0  0  0  0  0  0  0  0  0  0  0  0
    0.8890    0.5572   -1.8803 H   0  0  0  0  0  0  0  0  0  0  0  0
   -1.2190    0.9998   -1.8809 C   0  0  0  0  0  0  0  0  0  0  0  0
   -1.1166    2.0484   -2.1738 H   0  0  0  0  0  0  0  0  0  0  0  0
   -1.2897    0.4085   -2.7983 H   0  0  0  0  0  0  0  0  0  0  0  0
   -2.5479    0.8402   -1.1421 C   0  0  0  0  0  0  0  0  0  0  0  0
   -2.6303    0.6987    0.0672 O   0  0  0  0  0  0  0  0  0  0  0  0
   -3.7347    0.8083   -1.8143 N   0  0  0  0  0  0  0  0  0  0  0  0
   -4.5731    0.8875   -1.2450 H   0  0  0  0  0  0  0  0  0  0  0  0
   -3.7534    1.1045   -2.7853 H   0  0  0  0  0  0  0  0  0  0  0  0
    0.6015   -0.5312    1.0706 C   0  0  0  0  0  0  0  0  0  0  0  0
    1.7942   -0.4672    1.3371 O   0  0  0  0  0  0  0  0  0  0  0  0
   -0.3321   -0.1412    2.0146 N   0  0  0  0  0  0  0  0  0  0  0  0
   -1.2775    0.0291    1.6702 H   0  0  0  0  0  0  0  0  0  0  0  0
    0.0274    0.3297    3.3449 C   0  0  0  0  0  0  0  0  0  0  0  0
    0.5963    1.2629    3.2801 H   0  0  0  0  0  0  0  0  0  0  0  0
   -0.8746    0.5116    3.9367 H   0  0  0  0  0  0  0  0  0  0  0  0
    0.6349   -0.4189    3.8646 H   0  0  0  0  0  0  0  0  0  0  0  0
  1  2  1  0  0  0  0
  2  3  1  0  0  0  0
  2  4  1  0  0  0  0
  2  5  1  0  0  0  0
  5  6  2  0  0  0  0
  5  7  1  0  0  0  0
  7  8  1  0  0  0  0
  7  9  1  0  0  0  0
  9 10  1  0  0  0  0
  9 11  1  0  0  0  0
  9 22  1  0  0  0  0
 11 12  1  0  0  0  0
 11 13  1  0  0  0  0
 11 14  1  0  0  0  0
 14 15  1  0  0  0  0
 14 16  1  0  0  0  0
 14 17  1  0  0  0  0
 17 18  2  0  0  0  0
 17 19  1  0  0  0  0
 19 20  1  0  0  0  0
 19 21  1  0  0  0  0
 22 23  2  0  0  0  0
 22 24  1  0  0  0  0
 24 25  1  0  0  0  0
 24 26  1  0  0  0  0
 26 27  1  0  0  0  0
 26 28  1  0  0  0  0
 26 29  1  0  0  0  0
M  END
$$$$

  -OEChem-02102214123D

 29 28  0     1  0  0  0  0  0999 V2000
   -2.4120   -4.4294    0.9040 H   0  0  0  0  0  0  0  0  0  0  0  0
   -2.5256   -3.4582    0.4143 C   0  0  0  0  0  0  0  0  0  0  0  0
   -3.0854   -2.7938    1.0769 H   0  0  0  0  0  0  0  0  0  0  0  0
   -3.0853   -3.5936   -0.5140 H   0  0  0  0  0  0  0  0  0  0  0  0
   -1.1632   -2.8629    0.1148 C   0  0  0  0  0  0  0  0  0  0  0  0
   -0.1538   -3.5021    0.3567 O   0  0  0  0  0  0  0  0  0  0  0  0
   -1.0799   -1.5999   -0.4372 N   0  0  0  0  0  0  0  0  0  0  0  0
   -1.9517   -1.0751   -0.3901 H   0  0  0  0  0  0  0  0  0  0  0  0
    0.1552   -0.7960   -0.3691 C   0  0  1  0  0  0  0  0  0  0  0  0
    0.9559   -1.3966   -0.8161 H   0  0  0  0  0  0  0  0  0  0  0  0
    0.0823    0.5388   -1.1661 C   0  0  0  0  0  0  0  0  0  0  0  0
    0.2925    1.3714   -0.4846 H   0  0  0  0  0  0  0  0  0  0  0  0
    0.8981    0.5257   -1.8964 H   0  0  0  0  0  0  0  0  0  0  0  0
   -1.2260    0.8818   -1.9218 C   0  0  0  0  0  0  0  0  0  0  0  0
   -1.0784    1.8307   -2.4445 H   0  0  0  0  0  0  0  0  0  0  0  0
   -1.3998    0.1130   -2.6800 H   0  0  0  0  0  0  0  0  0  0  0  0
   -2.4957    1.0064   -1.0756 C   0  0  0  0  0  0  0  0  0  0  0  0
   -2.5494    0.7365    0.1128 O   0  0  0  0  0  0  0  0  0  0  0  0
   -3.6790    1.3895   -1.6363 N   0  0  0  0  0  0  0  0  0  0  0  0
   -4.4342    1.6057   -0.9913 H   0  0  0  0  0  0  0  0  0  0  0  0
   -3.6755    1.7915   -2.5685 H   0  0  0  0  0  0  0  0  0  0  0  0
    0.5908   -0.5049    1.0846 C   0  0  0  0  0  0  0  0  0  0  0  0
    1.7787   -0.4404    1.3718 O   0  0  0  0  0  0  0  0  0  0  0  0
   -0.3567   -0.0995    2.0075 N   0  0  0  0  0  0  0  0  0  0  0  0
   -1.2940    0.0756    1.6415 H   0  0  0  0  0  0  0  0  0  0  0  0
   -0.0165    0.3910    3.3359 C   0  0  0  0  0  0  0  0  0  0  0  0
    0.5694    1.3133    3.2658 H   0  0  0  0  0  0  0  0  0  0  0  0
   -0.9267    0.5979    3.9065 H   0  0  0  0  0  0  0  0  0  0  0  0
    0.5684   -0.3574    3.8808 H   0  0  0  0  0  0  0  0  0  0  0  0
  1  2  1  0  0  0  0
  2  3  1  0  0  0  0
  2  4  1  0  0  0  0
  2  5  1  0  0  0  0
  5  6  2  0  0  0  0
  5  7  1  0  0  0  0
  7  8  1  0  0  0  0
  7  9  1  0  0  0  0
  9 10  1  0  0  0  0
  9 11  1  0  0  0  0
  9 22  1  0  0  0  0
 11 12  1  0  0  0  0
 11 13  1  0  0  0  0
 11 14  1  0  0  0  0
 14 15  1  0  0  0  0
 14 16  1  0  0  0  0
 14 17  1  0  0  0  0
 17 18  2  0  0  0  0
 17 19  1  0  0  0  0
 19 20  1  0  0  0  0
 19 21  1  0  0  0  0
 22 23  2  0  0  0  0
 22 24  1  0  0  0  0
 24 25  1  0  0  0  0
 24 26  1  0  0  0  0
 26 27  1  0  0  0  0
 26 28  1  0  0  0  0
 26 29  1  0  0  0  0
M  END
$$$$

  -OEChem-02102214123D

 29 28  0     1  0  0  0  0  0999 V2000
   -2.3018   -4.5235    0.9352 H   0  0  0  0  0  0  0  0  0  0  0  0
   -2.4395   -3.5588    0.4385 C   0  0  0  0  0  0  0  0  0  0  0  0
   -3.0437   -2.9139    1.0813 H   0  0  0  0  0  0  0  0  0  0  0  0
   -2.9676   -3.7192   -0.5044 H   0  0  0  0  0  0  0  0  0  0  0  0
   -1.0939   -2.9109    0.1743 C   0  0  0  0  0  0  0  0  0  0  0  0
   -0.0680   -3.4770    0.5107 O   0  0  0  0  0  0  0  0  0  0  0  0
   -1.0429   -1.6804   -0.4490 N   0  0  0  0  0  0  0  0  0  0  0  0
   -1.9431   -1.2026   -0.5079 H   0  0  0  0  0  0  0  0  0  0  0  0
    0.1534   -0.8181   -0.4151 C   0  0  1  0  0  0  0  0  0  0  0  0
    0.9915   -1.3954   -0.8226 H   0  0  0  0  0  0  0  0  0  0  0  0
    0.0102    0.4787   -1.2620 C   0  0  0  0  0  0  0  0  0  0  0  0
    0.2031    1.3576   -0.6356 H   0  0  0  0  0  0  0  0  0  0  0  0
    0.8072    0.4561   -2.0125 H   0  0  0  0  0  0  0  0  0  0  0  0
   -1.3269    0.6957   -2.0062 C   0  0  0  0  0  0  0  0  0  0  0  0
   -1.1818    1.4843   -2.7495 H   0  0  0  0  0  0  0  0  0  0  0  0
   -1.6147   -0.2076   -2.5513 H   0  0  0  0  0  0  0  0  0  0  0  0
   -2.4654    1.1190   -1.0760 C   0  0  0  0  0  0  0  0  0  0  0  0
   -2.8305    0.4379   -0.1321 O   0  0  0  0  0  0  0  0  0  0  0  0
   -3.1055    2.3156   -1.2223 N   0  0  0  0  0  0  0  0  0  0  0  0
   -3.9121    2.4869   -0.6283 H   0  0  0  0  0  0  0  0  0  0  0  0
   -2.9375    2.8842   -2.0460 H   0  0  0  0  0  0  0  0  0  0  0  0
    0.5361   -0.4297    1.0299 C   0  0  0  0  0  0  0  0  0  0  0  0
    1.7086   -0.2546    1.3336 O   0  0  0  0  0  0  0  0  0  0  0  0
   -0.4600   -0.0218    1.8997 N   0  0  0  0  0  0  0  0  0  0  0  0
   -1.4132   -0.0180    1.5366 H   0  0  0  0  0  0  0  0  0  0  0  0
   -0.1988    0.5372    3.2186 C   0  0  0  0  0  0  0  0  0  0  0  0
    0.3384    1.4871    3.1322 H   0  0  0  0  0  0  0  0  0  0  0  0
   -1.1407    0.7163    3.7458 H   0  0  0  0  0  0  0  0  0  0  0  0
    0.4037   -0.1562    3.8149 H   0  0  0  0  0  0  0  0  0  0  0  0
  1  2  1  0  0  0  0
  2  3  1  0  0  0  0
  2  4  1  0  0  0  0
  2  5  1  0  0  0  0
  5  6  2  0  0  0  0
  5  7  1  0  0  0  0
  7  8  1  0  0  0  0
  7  9  1  0  0  0  0
  9 10  1  0  0  0  0
  9 11  1  0  0  0  0
  9 22  1  0  0  0  0
 11 12  1  0  0  0  0
 11 13  1  0  0  0  0
 11 14  1  0  0  0  0
 14 15  1  0  0  0  0
 14 16  1  0  0  0  0
 14 17  1  0  0  0  0
 17 18  2  0  0  0  0
 17 19  1  0  0  0  0
 19 20  1  0  0  0  0
 19 21  1  0  0  0  0
 22 23  2  0  0  0  0
 22 24  1  0  0  0  0
 24 25  1  0  0  0  0
 24 26  1  0  0  0  0
 26 27  1  0  0  0  0
 26 28  1  0  0  0  0
 26 29  1  0  0  0  0
M  END
$$$$

  -OEChem-02102214123D

 29 28  0     1  0  0  0  0  0999 V2000
   -2.3012   -4.5221    0.9220 H   0  0  0  0  0  0  0  0  0  0  0  0
   -2.4444   -3.5625    0.4172 C   0  0  0  0  0  0  0  0  0  0  0  0
   -3.0607   -2.9199    1.0507 H   0  0  0  0  0  0  0  0  0  0  0  0
   -2.9626   -3.7358   -0.5289 H   0  0  0  0  0  0  0  0  0  0  0  0
   -1.1026   -2.9034    0.1603 C   0  0  0  0  0  0  0  0  0  0  0  0
   -0.0747   -3.4612    0.5037 O   0  0  0  0  0  0  0  0  0  0  0  0
   -1.0563   -1.6744   -0.4673 N   0  0  0  0  0  0  0  0  0  0  0  0
   -1.9564   -1.2019   -0.5423 H   0  0  0  0  0  0  0  0  0  0  0  0
    0.1364   -0.8053   -0.4306 C   0  0  1  0  0  0  0  0  0  0  0  0
    0.9798   -1.3732   -0.8400 H   0  0  0  0  0  0  0  0  0  0  0  0
   -0.0324    0.4888   -1.2739 C   0  0  0  0  0  0  0  0  0  0  0  0
    0.1621    1.3772   -0.6608 H   0  0  0  0  0  0  0  0  0  0  0  0
    0.7514    0.4692   -2.0385 H   0  0  0  0  0  0  0  0  0  0  0  0
   -1.3882    0.6483   -1.9980 C   0  0  0  0  0  0  0  0  0  0  0  0
   -1.2302    1.2730   -2.8814 H   0  0  0  0  0  0  0  0  0  0  0  0
   -1.7959   -0.2973   -2.3635 H   0  0  0  0  0  0  0  0  0  0  0  0
   -2.3805    1.3667   -1.0954 C   0  0  0  0  0  0  0  0  0  0  0  0
   -2.7940    0.8082   -0.0923 O   0  0  0  0  0  0  0  0  0  0  0  0
   -2.8007    2.6467   -1.3169 N   0  0  0  0  0  0  0  0  0  0  0  0
   -3.5400    3.0018   -0.7167 H   0  0  0  0  0  0  0  0  0  0  0  0
   -2.5803    3.1072   -2.1942 H   0  0  0  0  0  0  0  0  0  0  0  0
    0.5171   -0.4058    1.0122 C   0  0  0  0  0  0  0  0  0  0  0  0
    1.6907   -0.2454    1.3192 O   0  0  0  0  0  0  0  0  0  0  0  0
   -0.4779    0.0043    1.8826 N   0  0  0  0  0  0  0  0  0  0  0  0
   -1.4213    0.0708    1.4996 H   0  0  0  0  0  0  0  0  0  0  0  0
   -0.2074    0.5786    3.1931 C   0  0  0  0  0  0  0  0  0  0  0  0
    0.3306    1.5267    3.0929 H   0  0  0  0  0  0  0  0  0  0  0  0
   -1.1458    0.7647    3.7239 H   0  0  0  0  0  0  0  0  0  0  0  0
    0.3975   -0.1087    3.7937 H   0  0  0  0  0  0  0  0  0  0  0  0
  1  2  1  0  0  0  0
  2  3  1  0  0  0  0
  2  4  1  0  0  0  0
  2  5  1  0  0  0  0
  5  6  2  0  0  0  0
  5  7  1  0  0  0  0
  7  8  1  0  0  0  0
  7  9  1  0  0  0  0
  9 10  1  0  0  0  0
  9 11  1  0  0  0  0
  9 22  1  0  0  0  0
 11 12  1  0  0  0  0
 11 13  1  0  0  0  0
 11 14  1  0  0  0  0
 14 15  1  0  0  0  0
 14 16  1  0  0  0  0
 14 17  1  0  0  0  0
 17 18  2  0  0  0  0
 17 19  1  0  0  0  0
 19 20  1  0  0  0  0
 19 21  1  0  0  0  0
 22 23  2  0  0  0  0
 22 24  1  0  0  0  0
 24 25  1  0  0  0  0
 24 26  1  0  0  0  0
 26 27  1  0  0  0  0
 26 28  1  0  0  0  0
 26 29  1  0  0  0  0
M  END
$$$$

  -OEChem-02102214123D

 29 28  0     1  0  0  0  0  0999 V2000
   -2.2733   -4.5768    0.9319 H   0  0  0  0  0  0  0  0  0  0  0  0
   -2.4389   -3.6191    0.4303 C   0  0  0  0  0  0  0  0  0  0  0  0
   -3.0761   -2.9968    1.0634 H   0  0  0  0  0  0  0  0  0  0  0  0
   -2.9457   -3.8021   -0.5200 H   0  0  0  0  0  0  0  0  0  0  0  0
   -1.1138   -2.9235    0.1847 C   0  0  0  0  0  0  0  0  0  0  0  0
   -0.0744   -3.4557    0.5327 O   0  0  0  0  0  0  0  0  0  0  0  0
   -1.0955   -1.6898   -0.4364 N   0  0  0  0  0  0  0  0  0  0  0  0
   -2.0038   -1.2487   -0.5542 H   0  0  0  0  0  0  0  0  0  0  0  0
    0.0864   -0.8062   -0.4297 C   0  0  1  0  0  0  0  0  0  0  0  0
    0.9225   -1.3672   -0.8629 H   0  0  0  0  0  0  0  0  0  0  0  0
   -0.1051    0.4895   -1.2655 C   0  0  0  0  0  0  0  0  0  0  0  0
    0.1125    1.3733   -0.6526 H   0  0  0  0  0  0  0  0  0  0  0  0
    0.6664    0.4707   -2.0428 H   0  0  0  0  0  0  0  0  0  0  0  0
   -1.4699    0.6728   -1.9754 C   0  0  0  0  0  0  0  0  0  0  0  0
   -1.2787    1.0715   -2.9753 H   0  0  0  0  0  0  0  0  0  0  0  0
   -2.0304   -0.2505   -2.1263 H   0  0  0  0  0  0  0  0  0  0  0  0
   -2.3099    1.6949   -1.2273 C   0  0  0  0  0  0  0  0  0  0  0  0
   -2.7690    1.4033   -0.1369 O   0  0  0  0  0  0  0  0  0  0  0  0
   -2.5330    2.9612   -1.6874 N   0  0  0  0  0  0  0  0  0  0  0  0
   -3.1794    3.5401   -1.1582 H   0  0  0  0  0  0  0  0  0  0  0  0
   -2.2632    3.2139   -2.6325 H   0  0  0  0  0  0  0  0  0  0  0  0
    0.5112   -0.4034    1.0006 C   0  0  0  0  0  0  0  0  0  0  0  0
    1.6948   -0.2439    1.2676 O   0  0  0  0  0  0  0  0  0  0  0  0
   -0.4525   -0.0046    1.9109 N   0  0  0  0  0  0  0  0  0  0  0  0
   -1.4025    0.0894    1.5566 H   0  0  0  0  0  0  0  0  0  0  0  0
   -0.1293    0.5827    3.2041 C   0  0  0  0  0  0  0  0  0  0  0  0
    0.3909    1.5370    3.0727 H   0  0  0  0  0  0  0  0  0  0  0  0
   -1.0445    0.7607    3.7765 H   0  0  0  0  0  0  0  0  0  0  0  0
    0.5117   -0.0921    3.7814 H   0  0  0  0  0  0  0  0  0  0  0  0
  1  2  1  0  0  0  0
  2  3  1  0  0  0  0
  2  4  1  0  0  0  0
  2  5  1  0  0  0  0
  5  6  2  0  0  0  0
  5  7  1  0  0  0  0
  7  8  1  0  0  0  0
  7  9  1  0  0  0  0
  9 10  1  0  0  0  0
  9 11  1  0  0  0  0
  9 22  1  0  0  0  0
 11 12  1  0  0  0  0
 11 13  1  0  0  0  0
 11 14  1  0  0  0  0
 14 15  1  0  0  0  0
 14 16  1  0  0  0  0
 14 17  1  0  0  0  0
 17 18  2  0  0  0  0
 17 19  1  0  0  0  0
 19 20  1  0  0  0  0
 19 21  1  0  0  0  0
 22 23  2  0  0  0  0
 22 24  1  0  0  0  0
 24 25  1  0  0  0  0
 24 26  1  0  0  0  0
 26 27  1  0  0  0  0
 26 28  1  0  0  0  0
 26 29  1  0  0  0  0
M  END
$$$$

  -OEChem-02102214123D

 29 28  0     1  0  0  0  0  0999 V2000
   -2.2476   -4.6508    0.8956 H   0  0  0  0  0  0  0  0  0  0  0  0
   -2.4474   -3.6804    0.4320 C   0  0  0  0  0  0  0  0  0  0  0  0
   -3.1141   -3.1104    1.0835 H   0  0  0  0  0  0  0  0  0  0  0  0
   -2.9396   -3.8451   -0.5296 H   0  0  0  0  0  0  0  0  0  0  0  0
   -1.1489   -2.9230    0.2281 C   0  0  0  0  0  0  0  0  0  0  0  0
   -0.0953   -3.4144    0.5917 O   0  0  0  0  0  0  0  0  0  0  0  0
   -1.1709   -1.6769   -0.3680 N   0  0  0  0  0  0  0  0  0  0  0  0
   -2.0899   -1.2805   -0.5396 H   0  0  0  0  0  0  0  0  0  0  0  0
   -0.0044   -0.7738   -0.4145 C   0  0  1  0  0  0  0  0  0  0  0  0
    0.8083   -1.3388   -0.8856 H   0  0  0  0  0  0  0  0  0  0  0  0
   -0.2173    0.5084   -1.2691 C   0  0  0  0  0  0  0  0  0  0  0  0
   -0.0088    1.3881   -0.6472 H   0  0  0  0  0  0  0  0  0  0  0  0
    0.5547    0.5074   -2.0461 H   0  0  0  0  0  0  0  0  0  0  0  0
   -1.5896    0.7036   -1.9686 C   0  0  0  0  0  0  0  0  0  0  0  0
   -1.4221    0.7881   -3.0458 H   0  0  0  0  0  0  0  0  0  0  0  0
   -2.2825   -0.1257   -1.8342 H   0  0  0  0  0  0  0  0  0  0  0  0
   -2.2656    1.9778   -1.4856 C   0  0  0  0  0  0  0  0  0  0  0  0
   -2.9009    1.9745   -0.4482 O   0  0  0  0  0  0  0  0  0  0  0  0
   -2.1545    3.1686   -2.1450 N   0  0  0  0  0  0  0  0  0  0  0  0
   -2.7198    3.9400   -1.8011 H   0  0  0  0  0  0  0  0  0  0  0  0
   -1.7431    3.1990   -3.0720 H   0  0  0  0  0  0  0  0  0  0  0  0
    0.5139   -0.3744    0.9861 C   0  0  0  0  0  0  0  0  0  0  0  0
    1.7090   -0.1737    1.1565 O   0  0  0  0  0  0  0  0  0  0  0  0
   -0.3804    0.0024    1.9724 N   0  0  0  0  0  0  0  0  0  0  0  0
   -1.3681   -0.0207    1.7373 H   0  0  0  0  0  0  0  0  0  0  0  0
    0.0287    0.5640    3.2531 C   0  0  0  0  0  0  0  0  0  0  0  0
    0.5275    1.5277    3.1069 H   0  0  0  0  0  0  0  0  0  0  0  0
   -0.8444    0.7180    3.8942 H   0  0  0  0  0  0  0  0  0  0  0  0
    0.7173   -0.1154    3.7666 H   0  0  0  0  0  0  0  0  0  0  0  0
  1  2  1  0  0  0  0
  2  3  1  0  0  0  0
  2  4  1  0  0  0  0
  2  5  1  0  0  0  0
  5  6  2  0  0  0  0
  5  7  1  0  0  0  0
  7  8  1  0  0  0  0
  7  9  1  0  0  0  0
  9 10  1  0  0  0  0
  9 11  1  0  0  0  0
  9 22  1  0  0  0  0
 11 12  1  0  0  0  0
 11 13  1  0  0  0  0
 11 14  1  0  0  0  0
 14 15  1  0  0  0  0
 14 16  1  0  0  0  0
 14 17  1  0  0  0  0
 17 18  2  0  0  0  0
 17 19  1  0  0  0  0
 19 20  1  0  0  0  0
 19 21  1  0  0  0  0
 22 23  2  0  0  0  0
 22 24  1  0  0  0  0
 24 25  1  0  0  0  0
 24 26  1  0  0  0  0
 26 27  1  0  0  0  0
 26 28  1  0  0  0  0
 26 29  1  0  0  0  0
M  END
$$$$

  -OEChem-02102214123D

 29 28  0     1  0  0  0  0  0999 V2000
   -2.2479   -4.6592    0.9186 H   0  0  0  0  0  0  0  0  0  0  0  0
   -2.4560   -3.7235    0.3914 C   0  0  0  0  0  0  0  0  0  0  0  0
   -3.2172   -3.1700    0.9465 H   0  0  0  0  0  0  0  0  0  0  0  0
   -2.8388   -3.9586   -0.6047 H   0  0  0  0  0  0  0  0  0  0  0  0
   -1.1894   -2.8964    0.2779 C   0  0  0  0  0  0  0  0  0  0  0  0
   -0.1380   -3.3332    0.7101 O   0  0  0  0  0  0  0  0  0  0  0  0
   -1.2360   -1.6509   -0.3180 N   0  0  0  0  0  0  0  0  0  0  0  0
   -2.1449   -1.3305   -0.6351 H   0  0  0  0  0  0  0  0  0  0  0  0
   -0.0796   -0.7390   -0.4282 C   0  0  1  0  0  0  0  0  0  0  0  0
    0.7098   -1.3082   -0.9328 H   0  0  0  0  0  0  0  0  0  0  0  0
   -0.3321    0.5320   -1.2908 C   0  0  0  0  0  0  0  0  0  0  0  0
   -0.1300    1.4088   -0.6629 H   0  0  0  0  0  0  0  0  0  0  0  0
    0.4191    0.5554   -2.0875 H   0  0  0  0  0  0  0  0  0  0  0  0
   -1.7309    0.7169   -1.9356 C   0  0  0  0  0  0  0  0  0  0  0  0
   -1.6801    0.4744   -3.0006 H   0  0  0  0  0  0  0  0  0  0  0  0
   -2.4890    0.0709   -1.4949 H   0  0  0  0  0  0  0  0  0  0  0  0
   -2.2342    2.1428   -1.7552 C   0  0  0  0  0  0  0  0  0  0  0  0
   -2.9829    2.4297   -0.8416 O   0  0  0  0  0  0  0  0  0  0  0  0
   -1.8458    3.1627   -2.5757 N   0  0  0  0  0  0  0  0  0  0  0  0
   -2.0895    4.1006   -2.2692 H   0  0  0  0  0  0  0  0  0  0  0  0
   -1.0685    3.0187   -3.2117 H   0  0  0  0  0  0  0  0  0  0  0  0
    0.5144   -0.3251    0.9378 C   0  0  0  0  0  0  0  0  0  0  0  0
    1.7108   -0.0835    1.0266 O   0  0  0  0  0  0  0  0  0  0  0  0
   -0.3258    0.0517    1.9698 N   0  0  0  0  0  0  0  0  0  0  0  0
   -1.3182   -0.1204    1.8457 H   0  0  0  0  0  0  0  0  0  0  0  0
    0.1504    0.5780    3.2422 C   0  0  0  0  0  0  0  0  0  0  0  0
    0.7153    1.5033    3.0875 H   0  0  0  0  0  0  0  0  0  0  0  0
   -0.6958    0.7961    3.9007 H   0  0  0  0  0  0  0  0  0  0  0  0
    0.7978   -0.1519    3.7394 H   0  0  0  0  0  0  0  0  0  0  0  0
  1  2  1  0  0  0  0
  2  3  1  0  0  0  0
  2  4  1  0  0  0  0
  2  5  1  0  0  0  0
  5  6  2  0  0  0  0
  5  7  1  0  0  0  0
  7  8  1  0  0  0  0
  7  9  1  0  0  0  0
  9 10  1  0  0  0  0
  9 11  1  0  0  0  0
  9 22  1  0  0  0  0
 11 12  1  0  0  0  0
 11 13  1  0  0  0  0
 11 14  1  0  0  0  0
 14 15  1  0  0  0  0
 14 16  1  0  0  0  0
 14 17  1  0  0  0  0
 17 18  2  0  0  0  0
 17 19  1  0  0  0  0
 19 20  1  0  0  0  0
 19 21  1  0  0  0  0
 22 23  2  0  0  0  0
 22 24  1  0  0  0  0
 24 25  1  0  0  0  0
 24 26  1  0  0  0  0
 26 27  1  0  0  0  0
 26 28  1  0  0  0  0
 26 29  1  0  0  0  0
M  END
$$$$

  -OEChem-02102214123D

 29 28  0     1  0  0  0  0  0999 V2000
   -2.5598   -4.4920    0.6061 H   0  0  0  0  0  0  0  0  0  0  0  0
   -2.6137   -3.5346    0.0797 C   0  0  0  0  0  0  0  0  0  0  0  0
   -3.4692   -2.9720    0.4609 H   0  0  0  0  0  0  0  0  0  0  0  0
   -2.7569   -3.7292   -0.9858 H   0  0  0  0  0  0  0  0  0  0  0  0
   -1.3355   -2.7469    0.2979 C   0  0  0  0  0  0  0  0  0  0  0  0
   -0.4581   -3.2041    1.0067 O   0  0  0  0  0  0  0  0  0  0  0  0
   -1.1821   -1.5140   -0.3074 N   0  0  0  0  0  0  0  0  0  0  0  0
   -1.8980   -1.2544   -0.9769 H   0  0  0  0  0  0  0  0  0  0  0  0
    0.0757   -0.7377   -0.3003 C   0  0  1  0  0  0  0  0  0  0  0  0
    0.8463   -1.3934   -0.7218 H   0  0  0  0  0  0  0  0  0  0  0  0
    0.0315    0.5346   -1.1970 C   0  0  0  0  0  0  0  0  0  0  0  0
    0.2444    1.3950   -0.5513 H   0  0  0  0  0  0  0  0  0  0  0  0
    0.8537    0.4893   -1.9193 H   0  0  0  0  0  0  0  0  0  0  0  0
   -1.2889    0.8215   -1.9638 C   0  0  0  0  0  0  0  0  0  0  0  0
   -1.2831    0.2857   -2.9169 H   0  0  0  0  0  0  0  0  0  0  0  0
   -2.1473    0.4801   -1.3834 H   0  0  0  0  0  0  0  0  0  0  0  0
   -1.5513    2.3090   -2.2092 C   0  0  0  0  0  0  0  0  0  0  0  0
   -0.7313    3.1825   -2.0057 O   0  0  0  0  0  0  0  0  0  0  0  0
   -2.7420    2.7393   -2.7207 N   0  0  0  0  0  0  0  0  0  0  0  0
   -2.7649    3.7106   -3.0200 H   0  0  0  0  0  0  0  0  0  0  0  0
   -3.3753    2.0644   -3.1346 H   0  0  0  0  0  0  0  0  0  0  0  0
    0.5770   -0.3644    1.1152 C   0  0  0  0  0  0  0  0  0  0  0  0
    1.7793   -0.2926    1.3307 O   0  0  0  0  0  0  0  0  0  0  0  0
   -0.3085    0.1243    2.0587 N   0  0  0  0  0  0  0  0  0  0  0  0
   -1.2943   -0.0227    1.8715 H   0  0  0  0  0  0  0  0  0  0  0  0
    0.1033    0.5094    3.4026 C   0  0  0  0  0  0  0  0  0  0  0  0
    0.8522    1.3075    3.3608 H   0  0  0  0  0  0  0  0  0  0  0  0
   -0.7564    0.8745    3.9724 H   0  0  0  0  0  0  0  0  0  0  0  0
    0.5321   -0.3490    3.9304 H   0  0  0  0  0  0  0  0  0  0  0  0
  1  2  1  0  0  0  0
  2  3  1  0  0  0  0
  2  4  1  0  0  0  0
  2  5  1  0  0  0  0
  5  6  2  0  0  0  0
  5  7  1  0  0  0  0
  7  8  1  0  0  0  0
  7  9  1  0  0  0  0
  9 10  1  0  0  0  0
  9 11  1  0  0  0  0
  9 22  1  0  0  0  0
 11 12  1  0  0  0  0
 11 13  1  0  0  0  0
 11 14  1  0  0  0  0
 14 15  1  0  0  0  0
 14 16  1  0  0  0  0
 14 17  1  0  0  0  0
 17 18  2  0  0  0  0
 17 19  1  0  0  0  0
 19 20  1  0  0  0  0
 19 21  1  0  0  0  0
 22 23  2  0  0  0  0
 22 24  1  0  0  0  0
 24 25  1  0  0  0  0
 24 26  1  0  0  0  0
 26 27  1  0  0  0  0
 26 28  1  0  0  0  0
 26 29  1  0  0  0  0
M  END
$$$$

  -OEChem-02102214123D

 29 28  0     1  0  0  0  0  0999 V2000
   -2.5824   -4.4663    0.6016 H   0  0  0  0  0  0  0  0  0  0  0  0
   -2.6290   -3.5087    0.0750 C   0  0  0  0  0  0  0  0  0  0  0  0
   -3.4799   -2.9393    0.4565 H   0  0  0  0  0  0  0  0  0  0  0  0
   -2.7742   -3.7022   -0.9905 H   0  0  0  0  0  0  0  0  0  0  0  0
   -1.3441   -2.7315    0.2920 C   0  0  0  0  0  0  0  0  0  0  0  0
   -0.4698   -3.1954    1.0004 O   0  0  0  0  0  0  0  0  0  0  0  0
   -1.1798   -1.5003   -0.3139 N   0  0  0  0  0  0  0  0  0  0  0  0
   -1.8983   -1.2277   -0.9757 H   0  0  0  0  0  0  0  0  0  0  0  0
    0.0835   -0.7326   -0.3054 C   0  0  1  0  0  0  0  0  0  0  0  0
    0.8515   -1.3890   -0.7303 H   0  0  0  0  0  0  0  0  0  0  0  0
    0.0291    0.5382   -1.1986 C   0  0  0  0  0  0  0  0  0  0  0  0
    0.2413    1.4109   -0.5687 H   0  0  0  0  0  0  0  0  0  0  0  0
    0.8381    0.4869   -1.9356 H   0  0  0  0  0  0  0  0  0  0  0  0
   -1.3061    0.7956   -1.9391 C   0  0  0  0  0  0  0  0  0  0  0  0
   -1.4201    0.0763   -2.7547 H   0  0  0  0  0  0  0  0  0  0  0  0
   -2.1419    0.6736   -1.2455 H   0  0  0  0  0  0  0  0  0  0  0  0
   -1.4184    2.2149   -2.4971 C   0  0  0  0  0  0  0  0  0  0  0  0
   -0.5120    3.0236   -2.4586 O   0  0  0  0  0  0  0  0  0  0  0  0
   -2.5613    2.6486   -3.1052 N   0  0  0  0  0  0  0  0  0  0  0  0
   -2.4903    3.5367   -3.5947 H   0  0  0  0  0  0  0  0  0  0  0  0
   -3.2695    1.9740   -3.3721 H   0  0  0  0  0  0  0  0  0  0  0  0
    0.5871   -0.3599    1.1086 C   0  0  0  0  0  0  0  0  0  0  0  0
    1.7896   -0.2883    1.3232 O   0  0  0  0  0  0  0  0  0  0  0  0
   -0.2973    0.1365    2.0492 N   0  0  0  0  0  0  0  0  0  0  0  0
   -1.2825   -0.0190    1.8656 H   0  0  0  0  0  0  0  0  0  0  0  0
    0.1153    0.5209    3.3931 C   0  0  0  0  0  0  0  0  0  0  0  0
    0.8695    1.3140    3.3513 H   0  0  0  0  0  0  0  0  0  0  0  0
   -0.7429    0.8922    3.9610 H   0  0  0  0  0  0  0  0  0  0  0  0
    0.5379   -0.3392    3.9231 H   0  0  0  0  0  0  0  0  0  0  0  0
  1  2  1  0  0  0  0
  2  3  1  0  0  0  0
  2  4  1  0  0  0  0
  2  5  1  0  0  0  0
  5  6  2  0  0  0  0
  5  7  1  0  0  0  0
  7  8  1  0  0  0  0
  7  9  1  0  0  0  0
  9 10  1  0  0  0  0
  9 11  1  0  0  0  0
  9 22  1  0  0  0  0
 11 12  1  0  0  0  0
 11 13  1  0  0  0  0
 11 14  1  0  0  0  0
 14 15  1  0  0  0  0
 14 16  1  0  0  0  0
 14 17  1  0  0  0  0
 17 18  2  0  0  0  0
 17 19  1  0  0  0  0
 19 20  1  0  0  0  0
 19 21  1  0  0  0  0
 22 23  2  0  0  0  0
 22 24  1  0  0  0  0
 24 25  1  0  0  0  0
 24 26  1  0  0  0  0
 26 27  1  0  0  0  0
 26 28  1  0  0  0  0
 26 29  1  0  0  0  0
M  END
$$$$

  -OEChem-02102214123D

 29 28  0     1  0  0  0  0  0999 V2000
   -2.5827   -4.4500    0.6776 H   0  0  0  0  0  0  0  0  0  0  0  0
   -2.5877   -3.5464    0.0611 C   0  0  0  0  0  0  0  0  0  0  0  0
   -3.4678   -2.9519    0.3169 H   0  0  0  0  0  0  0  0  0  0  0  0
   -2.6453   -3.8393   -0.9900 H   0  0  0  0  0  0  0  0  0  0  0  0
   -1.3259   -2.7408    0.3073 C   0  0  0  0  0  0  0  0  0  0  0  0
   -0.4833   -3.1598    1.0793 O   0  0  0  0  0  0  0  0  0  0  0  0
   -1.1525   -1.5301   -0.3366 N   0  0  0  0  0  0  0  0  0  0  0  0
   -1.8353   -1.3082   -1.0532 H   0  0  0  0  0  0  0  0  0  0  0  0
    0.1092   -0.7586   -0.3270 C   0  0  1  0  0  0  0  0  0  0  0  0
    0.8988   -1.4084   -0.7214 H   0  0  0  0  0  0  0  0  0  0  0  0
    0.0432    0.5038   -1.2278 C   0  0  0  0  0  0  0  0  0  0  0  0
    0.5346    1.3467   -0.7262 H   0  0  0  0  0  0  0  0  0  0  0  0
    0.6307    0.2962   -2.1296 H   0  0  0  0  0  0  0  0  0  0  0  0
   -1.3739    0.9366   -1.6672 C   0  0  0  0  0  0  0  0  0  0  0  0
   -1.8531    0.1386   -2.2397 H   0  0  0  0  0  0  0  0  0  0  0  0
   -1.9789    1.1420   -0.7796 H   0  0  0  0  0  0  0  0  0  0  0  0
   -1.3542    2.1844   -2.5483 C   0  0  0  0  0  0  0  0  0  0  0  0
   -0.3940    2.5010   -3.2231 O   0  0  0  0  0  0  0  0  0  0  0  0
   -2.4415    3.0046   -2.6467 N   0  0  0  0  0  0  0  0  0  0  0  0
   -2.3976    3.7332   -3.3540 H   0  0  0  0  0  0  0  0  0  0  0  0
   -3.3292    2.7226   -2.2462 H   0  0  0  0  0  0  0  0  0  0  0  0
    0.5695   -0.3442    1.0905 C   0  0  0  0  0  0  0  0  0  0  0  0
    1.7643   -0.2400    1.3329 O   0  0  0  0  0  0  0  0  0  0  0  0
   -0.3460    0.1749    1.9884 N   0  0  0  0  0  0  0  0  0  0  0  0
   -1.3187   -0.0404    1.7991 H   0  0  0  0  0  0  0  0  0  0  0  0
    0.0266    0.5863    3.3362 C   0  0  0  0  0  0  0  0  0  0  0  0
    0.7755    1.3846    3.3013 H   0  0  0  0  0  0  0  0  0  0  0  0
   -0.8498    0.9608    3.8735 H   0  0  0  0  0  0  0  0  0  0  0  0
    0.4409   -0.2609    3.8927 H   0  0  0  0  0  0  0  0  0  0  0  0
  1  2  1  0  0  0  0
  2  3  1  0  0  0  0
  2  4  1  0  0  0  0
  2  5  1  0  0  0  0
  5  6  2  0  0  0  0
  5  7  1  0  0  0  0
  7  8  1  0  0  0  0
  7  9  1  0  0  0  0
  9 10  1  0  0  0  0
  9 11  1  0  0  0  0
  9 22  1  0  0  0  0
 11 12  1  0  0  0  0
 11 13  1  0  0  0  0
 11 14  1  0  0  0  0
 14 15  1  0  0  0  0
 14 16  1  0  0  0  0
 14 17  1  0  0  0  0
 17 18  2  0  0  0  0
 17 19  1  0  0  0  0
 19 20  1  0  0  0  0
 19 21  1  0  0  0  0
 22 23  2  0  0  0  0
 22 24  1  0  0  0  0
 24 25  1  0  0  0  0
 24 26  1  0  0  0  0
 26 27  1  0  0  0  0
 26 28  1  0  0  0  0
 26 29  1  0  0  0  0
M  END
$$$$

  -OEChem-02102214123D

 29 28  0     1  0  0  0  0  0999 V2000
   -2.1973   -4.6852    0.7830 H   0  0  0  0  0  0  0  0  0  0  0  0
   -2.3257   -3.8095    0.1402 C   0  0  0  0  0  0  0  0  0  0  0  0
   -3.2745   -3.3278    0.3884 H   0  0  0  0  0  0  0  0  0  0  0  0
   -2.3530   -4.1395   -0.9012 H   0  0  0  0  0  0  0  0  0  0  0  0
   -1.1780   -2.8389    0.3462 C   0  0  0  0  0  0  0  0  0  0  0  0
   -0.2740   -3.1235    1.1106 O   0  0  0  0  0  0  0  0  0  0  0  0
   -1.1720   -1.6337   -0.3301 N   0  0  0  0  0  0  0  0  0  0  0  0
   -1.8904   -1.5244   -1.0392 H   0  0  0  0  0  0  0  0  0  0  0  0
   -0.0128   -0.7175   -0.3787 C   0  0  1  0  0  0  0  0  0  0  0  0
    0.8360   -1.2808   -0.7833 H   0  0  0  0  0  0  0  0  0  0  0  0
   -0.2419    0.5160   -1.2939 C   0  0  0  0  0  0  0  0  0  0  0  0
    0.1841    1.4148   -0.8330 H   0  0  0  0  0  0  0  0  0  0  0  0
    0.3323    0.3364   -2.2103 H   0  0  0  0  0  0  0  0  0  0  0  0
   -1.7008    0.8015   -1.7084 C   0  0  0  0  0  0  0  0  0  0  0  0
   -2.1985   -0.1086   -2.0500 H   0  0  0  0  0  0  0  0  0  0  0  0
   -2.2631    1.1997   -0.8593 H   0  0  0  0  0  0  0  0  0  0  0  0
   -1.7476    1.7849   -2.8702 C   0  0  0  0  0  0  0  0  0  0  0  0
   -1.9480    1.4098   -4.0084 O   0  0  0  0  0  0  0  0  0  0  0  0
   -1.5567    3.1253   -2.6929 N   0  0  0  0  0  0  0  0  0  0  0  0
   -1.4383    3.6756   -3.5391 H   0  0  0  0  0  0  0  0  0  0  0  0
   -1.1905    3.4616   -1.8084 H   0  0  0  0  0  0  0  0  0  0  0  0
    0.4321   -0.2178    1.0158 C   0  0  0  0  0  0  0  0  0  0  0  0
    1.6048    0.0797    1.2014 O   0  0  0  0  0  0  0  0  0  0  0  0
   -0.5188    0.2076    1.9260 N   0  0  0  0  0  0  0  0  0  0  0  0
   -1.4552   -0.1564    1.7817 H   0  0  0  0  0  0  0  0  0  0  0  0
   -0.1665    0.7111    3.2476 C   0  0  0  0  0  0  0  0  0  0  0  0
    0.4449    1.6157    3.1635 H   0  0  0  0  0  0  0  0  0  0  0  0
   -1.0710    0.9584    3.8110 H   0  0  0  0  0  0  0  0  0  0  0  0
    0.3960   -0.0437    3.8073 H   0  0  0  0  0  0  0  0  0  0  0  0
  1  2  1  0  0  0  0
  2  3  1  0  0  0  0
  2  4  1  0  0  0  0
  2  5  1  0  0  0  0
  5  6  2  0  0  0  0
  5  7  1  0  0  0  0
  7  8  1  0  0  0  0
  7  9  1  0  0  0  0
  9 10  1  0  0  0  0
  9 11  1  0  0  0  0
  9 22  1  0  0  0  0
 11 12  1  0  0  0  0
 11 13  1  0  0  0  0
 11 14  1  0  0  0  0
 14 15  1  0  0  0  0
 14 16  1  0  0  0  0
 14 17  1  0  0  0  0
 17 18  2  0  0  0  0
 17 19  1  0  0  0  0
 19 20  1  0  0  0  0
 19 21  1  0  0  0  0
 22 23  2  0  0  0  0
 22 24  1  0  0  0  0
 24 25  1  0  0  0  0
 24 26  1  0  0  0  0
 26 27  1  0  0  0  0
 26 28  1  0  0  0  0
 26 29  1  0  0  0  0
M  END
$$$$

  -OEChem-02102214123D

 29 28  0     1  0  0  0  0  0999 V2000
   -2.1557   -4.7208    0.8205 H   0  0  0  0  0  0  0  0  0  0  0  0
   -2.3128   -3.8398    0.1915 C   0  0  0  0  0  0  0  0  0  0  0  0
   -3.2605   -3.3732    0.4705 H   0  0  0  0  0  0  0  0  0  0  0  0
   -2.3641   -4.1591   -0.8523 H   0  0  0  0  0  0  0  0  0  0  0  0
   -1.1734   -2.8556    0.3781 C   0  0  0  0  0  0  0  0  0  0  0  0
   -0.2505   -3.1327    1.1227 O   0  0  0  0  0  0  0  0  0  0  0  0
   -1.1984   -1.6473   -0.2927 N   0  0  0  0  0  0  0  0  0  0  0  0
   -1.9230   -1.5578   -0.9988 H   0  0  0  0  0  0  0  0  0  0  0  0
   -0.0452   -0.7270   -0.3793 C   0  0  1  0  0  0  0  0  0  0  0  0
    0.7903   -1.2869   -0.8150 H   0  0  0  0  0  0  0  0  0  0  0  0
   -0.3010    0.5180   -1.2746 C   0  0  0  0  0  0  0  0  0  0  0  0
    0.1565    1.4099   -0.8303 H   0  0  0  0  0  0  0  0  0  0  0  0
    0.2447    0.3274   -2.2063 H   0  0  0  0  0  0  0  0  0  0  0  0
   -1.7667    0.8402   -1.6539 C   0  0  0  0  0  0  0  0  0  0  0  0
   -2.3768   -0.0593   -1.7428 H   0  0  0  0  0  0  0  0  0  0  0  0
   -2.2200    1.4710   -0.8845 H   0  0  0  0  0  0  0  0  0  0  0  0
   -1.8380    1.5314   -3.0089 C   0  0  0  0  0  0  0  0  0  0  0  0
   -2.1063    0.9121   -4.0195 O   0  0  0  0  0  0  0  0  0  0  0  0
   -1.5843    2.8651   -3.1558 N   0  0  0  0  0  0  0  0  0  0  0  0
   -1.4906    3.2024   -4.1099 H   0  0  0  0  0  0  0  0  0  0  0  0
   -1.1679    3.3799   -2.3869 H   0  0  0  0  0  0  0  0  0  0  0  0
    0.4474   -0.2336    1.0015 C   0  0  0  0  0  0  0  0  0  0  0  0
    1.6257    0.0645    1.1472 O   0  0  0  0  0  0  0  0  0  0  0  0
   -0.4708    0.1833    1.9483 N   0  0  0  0  0  0  0  0  0  0  0  0
   -1.4104   -0.1836    1.8357 H   0  0  0  0  0  0  0  0  0  0  0  0
   -0.0719    0.6807    3.2589 C   0  0  0  0  0  0  0  0  0  0  0  0
    0.5501    1.5762    3.1574 H   0  0  0  0  0  0  0  0  0  0  0  0
   -0.9552    0.9410    3.8497 H   0  0  0  0  0  0  0  0  0  0  0  0
    0.4962   -0.0831    3.8004 H   0  0  0  0  0  0  0  0  0  0  0  0
  1  2  1  0  0  0  0
  2  3  1  0  0  0  0
  2  4  1  0  0  0  0
  2  5  1  0  0  0  0
  5  6  2  0  0  0  0
  5  7  1  0  0  0  0
  7  8  1  0  0  0  0
  7  9  1  0  0  0  0
  9 10  1  0  0  0  0
  9 11  1  0  0  0  0
  9 22  1  0  0  0  0
 11 12  1  0  0  0  0
 11 13  1  0  0  0  0
 11 14  1  0  0  0  0
 14 15  1  0  0  0  0
 14 16  1  0  0  0  0
 14 17  1  0  0  0  0
 17 18  2  0  0  0  0
 17 19  1  0  0  0  0
 19 20  1  0  0  0  0
 19 21  1  0  0  0  0
 22 23  2  0  0  0  0
 22 24  1  0  0  0  0
 24 25  1  0  0  0  0
 24 26  1  0  0  0  0
 26 27  1  0  0  0  0
 26 28  1  0  0  0  0
 26 29  1  0  0  0  0
M  END
$$$$

  -OEChem-02102214123D

 29 28  0     1  0  0  0  0  0999 V2000
   -2.1626   -4.7201    0.8461 H   0  0  0  0  0  0  0  0  0  0  0  0
   -2.3146   -3.8457    0.2068 C   0  0  0  0  0  0  0  0  0  0  0  0
   -3.2666   -3.3794    0.4709 H   0  0  0  0  0  0  0  0  0  0  0  0
   -2.3532   -4.1741   -0.8349 H   0  0  0  0  0  0  0  0  0  0  0  0
   -1.1797   -2.8569    0.3961 C   0  0  0  0  0  0  0  0  0  0  0  0
   -0.2481   -3.1388    1.1280 O   0  0  0  0  0  0  0  0  0  0  0  0
   -1.2169   -1.6422   -0.2625 N   0  0  0  0  0  0  0  0  0  0  0  0
   -1.9405   -1.5598   -0.9715 H   0  0  0  0  0  0  0  0  0  0  0  0
   -0.0609   -0.7283   -0.3717 C   0  0  1  0  0  0  0  0  0  0  0  0
    0.7585   -1.2882   -0.8368 H   0  0  0  0  0  0  0  0  0  0  0  0
   -0.3341    0.5293   -1.2456 C   0  0  0  0  0  0  0  0  0  0  0  0
    0.1419    1.4105   -0.7991 H   0  0  0  0  0  0  0  0  0  0  0  0
    0.1946    0.3495   -2.1890 H   0  0  0  0  0  0  0  0  0  0  0  0
   -1.8065    0.8807   -1.5878 C   0  0  0  0  0  0  0  0  0  0  0  0
   -2.5013    0.0658   -1.3882 H   0  0  0  0  0  0  0  0  0  0  0  0
   -2.1270    1.7237   -0.9694 H   0  0  0  0  0  0  0  0  0  0  0  0
   -1.9621    1.2430   -3.0581 C   0  0  0  0  0  0  0  0  0  0  0  0
   -2.3033    0.4089   -3.8737 O   0  0  0  0  0  0  0  0  0  0  0  0
   -1.6936    2.4950   -3.5322 N   0  0  0  0  0  0  0  0  0  0  0  0
   -1.6575    2.5945   -4.5430 H   0  0  0  0  0  0  0  0  0  0  0  0
   -1.2139    3.1597   -2.9343 H   0  0  0  0  0  0  0  0  0  0  0  0
    0.4725   -0.2512    0.9997 C   0  0  0  0  0  0  0  0  0  0  0  0
    1.6570    0.0354    1.1163 O   0  0  0  0  0  0  0  0  0  0  0  0
   -0.4166    0.1622    1.9754 N   0  0  0  0  0  0  0  0  0  0  0  0
   -1.3639   -0.1904    1.8811 H   0  0  0  0  0  0  0  0  0  0  0  0
    0.0214    0.6375    3.2817 C   0  0  0  0  0  0  0  0  0  0  0  0
    0.6578    1.5222    3.1748 H   0  0  0  0  0  0  0  0  0  0  0  0
   -0.8431    0.9077    3.8954 H   0  0  0  0  0  0  0  0  0  0  0  0
    0.5875   -0.1428    3.8012 H   0  0  0  0  0  0  0  0  0  0  0  0
  1  2  1  0  0  0  0
  2  3  1  0  0  0  0
  2  4  1  0  0  0  0
  2  5  1  0  0  0  0
  5  6  2  0  0  0  0
  5  7  1  0  0  0  0
  7  8  1  0  0  0  0
  7  9  1  0  0  0  0
  9 10  1  0  0  0  0
  9 11  1  0  0  0  0
  9 22  1  0  0  0  0
 11 12  1  0  0  0  0
 11 13  1  0  0  0  0
 11 14  1  0  0  0  0
 14 15  1  0  0  0  0
 14 16  1  0  0  0  0
 14 17  1  0  0  0  0
 17 18  2  0  0  0  0
 17 19  1  0  0  0  0
 19 20  1  0  0  0  0
 19 21  1  0  0  0  0
 22 23  2  0  0  0  0
 22 24  1  0  0  0  0
 24 25  1  0  0  0  0
 24 26  1  0  0  0  0
 26 27  1  0  0  0  0
 26 28  1  0  0  0  0
 26 29  1  0  0  0  0
M  END
$$$$

  -OEChem-02102214123D

 29 28  0     1  0  0  0  0  0999 V2000
   -2.2133   -4.7046    0.7886 H   0  0  0  0  0  0  0  0  0  0  0  0
   -2.3623   -3.8020    0.1891 C   0  0  0  0  0  0  0  0  0  0  0  0
   -3.3015   -3.3308    0.4892 H   0  0  0  0  0  0  0  0  0  0  0  0
   -2.4248   -4.0863   -0.8642 H   0  0  0  0  0  0  0  0  0  0  0  0
   -1.2082   -2.8398    0.3974 C   0  0  0  0  0  0  0  0  0  0  0  0
   -0.2880   -3.1480    1.1334 O   0  0  0  0  0  0  0  0  0  0  0  0
   -1.2186   -1.6166   -0.2451 N   0  0  0  0  0  0  0  0  0  0  0  0
   -1.9320   -1.5175   -0.9645 H   0  0  0  0  0  0  0  0  0  0  0  0
   -0.0400   -0.7326   -0.3538 C   0  0  1  0  0  0  0  0  0  0  0  0
    0.7593   -1.3065   -0.8363 H   0  0  0  0  0  0  0  0  0  0  0  0
   -0.3032    0.5350   -1.2157 C   0  0  0  0  0  0  0  0  0  0  0  0
    0.1746    1.4024   -0.7452 H   0  0  0  0  0  0  0  0  0  0  0  0
    0.2258    0.3841   -2.1638 H   0  0  0  0  0  0  0  0  0  0  0  0
   -1.7787    0.9033   -1.5273 C   0  0  0  0  0  0  0  0  0  0  0  0
   -2.5076    0.2557   -1.0396 H   0  0  0  0  0  0  0  0  0  0  0  0
   -1.9699    1.9091   -1.1428 H   0  0  0  0  0  0  0  0  0  0  0  0
   -2.0476    0.9115   -3.0241 C   0  0  0  0  0  0  0  0  0  0  0  0
   -2.4791   -0.0831   -3.5742 O   0  0  0  0  0  0  0  0  0  0  0  0
   -1.7907    1.9969   -3.8121 N   0  0  0  0  0  0  0  0  0  0  0  0
   -2.1077    1.9494   -4.7765 H   0  0  0  0  0  0  0  0  0  0  0  0
   -1.5581    2.8877   -3.3857 H   0  0  0  0  0  0  0  0  0  0  0  0
    0.5216   -0.2853    1.0162 C   0  0  0  0  0  0  0  0  0  0  0  0
    1.7144   -0.0310    1.1226 O   0  0  0  0  0  0  0  0  0  0  0  0
   -0.3454    0.1403    2.0062 N   0  0  0  0  0  0  0  0  0  0  0  0
   -1.2997   -0.1946    1.9211 H   0  0  0  0  0  0  0  0  0  0  0  0
    0.1187    0.5892    3.3127 C   0  0  0  0  0  0  0  0  0  0  0  0
    0.7790    1.4566    3.2088 H   0  0  0  0  0  0  0  0  0  0  0  0
   -0.7318    0.8781    3.9375 H   0  0  0  0  0  0  0  0  0  0  0  0
    0.6669   -0.2123    3.8192 H   0  0  0  0  0  0  0  0  0  0  0  0
  1  2  1  0  0  0  0
  2  3  1  0  0  0  0
  2  4  1  0  0  0  0
  2  5  1  0  0  0  0
  5  6  2  0  0  0  0
  5  7  1  0  0  0  0
  7  8  1  0  0  0  0
  7  9  1  0  0  0  0
  9 10  1  0  0  0  0
  9 11  1  0  0  0  0
  9 22  1  0  0  0  0
 11 12  1  0  0  0  0
 11 13  1  0  0  0  0
 11 14  1  0  0  0  0
 14 15  1  0  0  0  0
 14 16  1  0  0  0  0
 14 17  1  0  0  0  0
 17 18  2  0  0  0  0
 17 19  1  0  0  0  0
 19 20  1  0  0  0  0
 19 21  1  0  0  0  0
 22 23  2  0  0  0  0
 22 24  1  0  0  0  0
 24 25  1  0  0  0  0
 24 26  1  0  0  0  0
 26 27  1  0  0  0  0
 26 28  1  0  0  0  0
 26 29  1  0  0  0  0
M  END
$$$$

  -OEChem-02102214123D

 29 28  0     1  0  0  0  0  0999 V2000
   -2.3359   -4.6203    0.7628 H   0  0  0  0  0  0  0  0  0  0  0  0
   -2.4267   -3.7259    0.1401 C   0  0  0  0  0  0  0  0  0  0  0  0
   -3.3629   -3.2193    0.3862 H   0  0  0  0  0  0  0  0  0  0  0  0
   -2.4501   -4.0281   -0.9100 H   0  0  0  0  0  0  0  0  0  0  0  0
   -1.2527   -2.7967    0.3836 C   0  0  0  0  0  0  0  0  0  0  0  0
   -0.3558   -3.1356    1.1352 O   0  0  0  0  0  0  0  0  0  0  0  0
   -1.2227   -1.5657   -0.2413 N   0  0  0  0  0  0  0  0  0  0  0  0
   -1.9150   -1.4519   -0.9827 H   0  0  0  0  0  0  0  0  0  0  0  0
   -0.0152   -0.7191   -0.3418 C   0  0  1  0  0  0  0  0  0  0  0  0
    0.7630   -1.3060   -0.8425 H   0  0  0  0  0  0  0  0  0  0  0  0
   -0.2703    0.5604   -1.1861 C   0  0  0  0  0  0  0  0  0  0  0  0
    0.2071    1.4144   -0.6911 H   0  0  0  0  0  0  0  0  0  0  0  0
    0.2471    0.4420   -2.1450 H   0  0  0  0  0  0  0  0  0  0  0  0
   -1.7536    0.9230   -1.4485 C   0  0  0  0  0  0  0  0  0  0  0  0
   -2.4452    0.4765   -0.7309 H   0  0  0  0  0  0  0  0  0  0  0  0
   -1.8617    2.0044   -1.3280 H   0  0  0  0  0  0  0  0  0  0  0  0
   -2.1640    0.5865   -2.8714 C   0  0  0  0  0  0  0  0  0  0  0  0
   -2.5618   -0.5347   -3.1269 O   0  0  0  0  0  0  0  0  0  0  0  0
   -2.0627    1.4713   -3.9066 N   0  0  0  0  0  0  0  0  0  0  0  0
   -2.4595    1.1847   -4.7972 H   0  0  0  0  0  0  0  0  0  0  0  0
   -1.8610    2.4479   -3.7192 H   0  0  0  0  0  0  0  0  0  0  0  0
    0.5698   -0.3064    1.0288 C   0  0  0  0  0  0  0  0  0  0  0  0
    1.7717   -0.0963    1.1304 O   0  0  0  0  0  0  0  0  0  0  0  0
   -0.2768    0.1361    2.0288 N   0  0  0  0  0  0  0  0  0  0  0  0
   -1.2412   -0.1698    1.9457 H   0  0  0  0  0  0  0  0  0  0  0  0
    0.2101    0.5453    3.3400 C   0  0  0  0  0  0  0  0  0  0  0  0
    0.8959    1.3941    3.2476 H   0  0  0  0  0  0  0  0  0  0  0  0
   -0.6269    0.8473    3.9765 H   0  0  0  0  0  0  0  0  0  0  0  0
    0.7368   -0.2823    3.8269 H   0  0  0  0  0  0  0  0  0  0  0  0
  1  2  1  0  0  0  0
  2  3  1  0  0  0  0
  2  4  1  0  0  0  0
  2  5  1  0  0  0  0
  5  6  2  0  0  0  0
  5  7  1  0  0  0  0
  7  8  1  0  0  0  0
  7  9  1  0  0  0  0
  9 10  1  0  0  0  0
  9 11  1  0  0  0  0
  9 22  1  0  0  0  0
 11 12  1  0  0  0  0
 11 13  1  0  0  0  0
 11 14  1  0  0  0  0
 14 15  1  0  0  0  0
 14 16  1  0  0  0  0
 14 17  1  0  0  0  0
 17 18  2  0  0  0  0
 17 19  1  0  0  0  0
 19 20  1  0  0  0  0
 19 21  1  0  0  0  0
 22 23  2  0  0  0  0
 22 24  1  0  0  0  0
 24 25  1  0  0  0  0
 24 26  1  0  0  0  0
 26 27  1  0  0  0  0
 26 28  1  0  0  0  0
 26 29  1  0  0  0  0
M  END
$$$$

  -OEChem-02102214123D

 29 28  0     1  0  0  0  0  0999 V2000
   -2.3584   -4.6020    0.7085 H   0  0  0  0  0  0  0  0  0  0  0  0
   -2.4622   -3.6804    0.1292 C   0  0  0  0  0  0  0  0  0  0  0  0
   -3.3843   -3.1767    0.4290 H   0  0  0  0  0  0  0  0  0  0  0  0
   -2.5249   -3.9351   -0.9318 H   0  0  0  0  0  0  0  0  0  0  0  0
   -1.2717   -2.7724    0.3715 C   0  0  0  0  0  0  0  0  0  0  0  0
   -0.3642   -3.1392    1.0975 O   0  0  0  0  0  0  0  0  0  0  0  0
   -1.2353   -1.5314   -0.2312 N   0  0  0  0  0  0  0  0  0  0  0  0
   -1.9457   -1.3966   -0.9555 H   0  0  0  0  0  0  0  0  0  0  0  0
   -0.0198   -0.6965   -0.3357 C   0  0  1  0  0  0  0  0  0  0  0  0
    0.7437   -1.2863   -0.8553 H   0  0  0  0  0  0  0  0  0  0  0  0
   -0.2672    0.5982   -1.1598 C   0  0  0  0  0  0  0  0  0  0  0  0
    0.2198    1.4403   -0.6545 H   0  0  0  0  0  0  0  0  0  0  0  0
    0.2338    0.4927   -2.1286 H   0  0  0  0  0  0  0  0  0  0  0  0
   -1.7485    0.9705   -1.3953 C   0  0  0  0  0  0  0  0  0  0  0  0
   -2.3746    0.7106   -0.5372 H   0  0  0  0  0  0  0  0  0  0  0  0
   -1.8170    2.0557   -1.5096 H   0  0  0  0  0  0  0  0  0  0  0  0
   -2.2926    0.3407   -2.6688 C   0  0  0  0  0  0  0  0  0  0  0  0
   -2.7606   -0.7833   -2.6383 O   0  0  0  0  0  0  0  0  0  0  0  0
   -2.2383    0.9621   -3.8834 N   0  0  0  0  0  0  0  0  0  0  0  0
   -2.7244    0.5102   -4.6533 H   0  0  0  0  0  0  0  0  0  0  0  0
   -1.9835    1.9430   -3.9367 H   0  0  0  0  0  0  0  0  0  0  0  0
    0.5899   -0.3153    1.0330 C   0  0  0  0  0  0  0  0  0  0  0  0
    1.7953   -0.1180    1.1200 O   0  0  0  0  0  0  0  0  0  0  0  0
   -0.2377    0.1182    2.0525 N   0  0  0  0  0  0  0  0  0  0  0  0
   -1.2062   -0.1774    1.9779 H   0  0  0  0  0  0  0  0  0  0  0  0
    0.2720    0.5001    3.3631 C   0  0  0  0  0  0  0  0  0  0  0  0
    0.9722    1.3373    3.2738 H   0  0  0  0  0  0  0  0  0  0  0  0
   -0.5516    0.8088    4.0139 H   0  0  0  0  0  0  0  0  0  0  0  0
    0.7897   -0.3434    3.8321 H   0  0  0  0  0  0  0  0  0  0  0  0
  1  2  1  0  0  0  0
  2  3  1  0  0  0  0
  2  4  1  0  0  0  0
  2  5  1  0  0  0  0
  5  6  2  0  0  0  0
  5  7  1  0  0  0  0
  7  8  1  0  0  0  0
  7  9  1  0  0  0  0
  9 10  1  0  0  0  0
  9 11  1  0  0  0  0
  9 22  1  0  0  0  0
 11 12  1  0  0  0  0
 11 13  1  0  0  0  0
 11 14  1  0  0  0  0
 14 15  1  0  0  0  0
 14 16  1  0  0  0  0
 14 17  1  0  0  0  0
 17 18  2  0  0  0  0
 17 19  1  0  0  0  0
 19 20  1  0  0  0  0
 19 21  1  0  0  0  0
 22 23  2  0  0  0  0
 22 24  1  0  0  0  0
 24 25  1  0  0  0  0
 24 26  1  0  0  0  0
 26 27  1  0  0  0  0
 26 28  1  0  0  0  0
 26 29  1  0  0  0  0
M  END
$$$$

  -OEChem-02102214123D

 29 28  0     1  0  0  0  0  0999 V2000
   -2.4230   -4.6009    0.7482 H   0  0  0  0  0  0  0  0  0  0  0  0
   -2.4778   -3.6911    0.1438 C   0  0  0  0  0  0  0  0  0  0  0  0
   -3.4178   -3.1784    0.3612 H   0  0  0  0  0  0  0  0  0  0  0  0
   -2.4596   -3.9684   -0.9133 H   0  0  0  0  0  0  0  0  0  0  0  0
   -1.3055   -2.7811    0.4584 C   0  0  0  0  0  0  0  0  0  0  0  0
   -0.4879   -3.1145    1.2985 O   0  0  0  0  0  0  0  0  0  0  0  0
   -1.1949   -1.5732   -0.2007 N   0  0  0  0  0  0  0  0  0  0  0  0
   -1.8012   -1.5077   -1.0206 H   0  0  0  0  0  0  0  0  0  0  0  0
    0.0556   -0.7952   -0.2794 C   0  0  1  0  0  0  0  0  0  0  0  0
    0.8183   -1.4396   -0.7306 H   0  0  0  0  0  0  0  0  0  0  0  0
   -0.0717    0.4841   -1.1595 C   0  0  0  0  0  0  0  0  0  0  0  0
    0.4558    1.3088   -0.6662 H   0  0  0  0  0  0  0  0  0  0  0  0
    0.4675    0.2932   -2.0935 H   0  0  0  0  0  0  0  0  0  0  0  0
   -1.4897    0.9858   -1.5319 C   0  0  0  0  0  0  0  0  0  0  0  0
   -2.1078    1.0213   -0.6306 H   0  0  0  0  0  0  0  0  0  0  0  0
   -1.3895    2.0124   -1.8945 H   0  0  0  0  0  0  0  0  0  0  0  0
   -2.2398    0.1958   -2.6071 C   0  0  0  0  0  0  0  0  0  0  0  0
   -2.1370   -1.0072   -2.7596 O   0  0  0  0  0  0  0  0  0  0  0  0
   -3.1099    0.8130   -3.4585 N   0  0  0  0  0  0  0  0  0  0  0  0
   -3.4478    0.2549   -4.2379 H   0  0  0  0  0  0  0  0  0  0  0  0
   -3.1121    1.8262   -3.5168 H   0  0  0  0  0  0  0  0  0  0  0  0
    0.6066   -0.3762    1.1042 C   0  0  0  0  0  0  0  0  0  0  0  0
    1.8128   -0.2221    1.2507 O   0  0  0  0  0  0  0  0  0  0  0  0
   -0.2566    0.1359    2.0557 N   0  0  0  0  0  0  0  0  0  0  0  0
   -1.2273   -0.1403    1.9452 H   0  0  0  0  0  0  0  0  0  0  0  0
    0.1973    0.5566    3.3750 C   0  0  0  0  0  0  0  0  0  0  0  0
    0.9358    1.3606    3.2895 H   0  0  0  0  0  0  0  0  0  0  0  0
   -0.6468    0.9270    3.9642 H   0  0  0  0  0  0  0  0  0  0  0  0
    0.6526   -0.2846    3.9085 H   0  0  0  0  0  0  0  0  0  0  0  0
  1  2  1  0  0  0  0
  2  3  1  0  0  0  0
  2  4  1  0  0  0  0
  2  5  1  0  0  0  0
  5  6  2  0  0  0  0
  5  7  1  0  0  0  0
  7  8  1  0  0  0  0
  7  9  1  0  0  0  0
  9 10  1  0  0  0  0
  9 11  1  0  0  0  0
  9 22  1  0  0  0  0
 11 12  1  0  0  0  0
 11 13  1  0  0  0  0
 11 14  1  0  0  0  0
 14 15  1  0  0  0  0
 14 16  1  0  0  0  0
 14 17  1  0  0  0  0
 17 18  2  0  0  0  0
 17 19  1  0  0  0  0
 19 20  1  0  0  0  0
 19 21  1  0  0  0  0
 22 23  2  0  0  0  0
 22 24  1  0  0  0  0
 24 25  1  0  0  0  0
 24 26  1  0  0  0  0
 26 27  1  0  0  0  0
 26 28  1  0  0  0  0
 26 29  1  0  0  0  0
M  END
$$$$

  -OEChem-02102214123D

 29 28  0     1  0  0  0  0  0999 V2000
   -2.4368   -4.6055    0.6896 H   0  0  0  0  0  0  0  0  0  0  0  0
   -2.4869   -3.6823    0.1056 C   0  0  0  0  0  0  0  0  0  0  0  0
   -3.4370   -3.1845    0.3123 H   0  0  0  0  0  0  0  0  0  0  0  0
   -2.4399   -3.9350   -0.9569 H   0  0  0  0  0  0  0  0  0  0  0  0
   -1.3330   -2.7684    0.4708 C   0  0  0  0  0  0  0  0  0  0  0  0
   -0.5754   -3.0812    1.3725 O   0  0  0  0  0  0  0  0  0  0  0  0
   -1.1722   -1.5818   -0.2166 N   0  0  0  0  0  0  0  0  0  0  0  0
   -1.7187   -1.5520   -1.0787 H   0  0  0  0  0  0  0  0  0  0  0  0
    0.0989   -0.8342   -0.2630 C   0  0  1  0  0  0  0  0  0  0  0  0
    0.8647   -1.5080   -0.6636 H   0  0  0  0  0  0  0  0  0  0  0  0
    0.0532    0.4334   -1.1713 C   0  0  0  0  0  0  0  0  0  0  0  0
    0.6071    1.2462   -0.6868 H   0  0  0  0  0  0  0  0  0  0  0  0
    0.6133    0.1844   -2.0792 H   0  0  0  0  0  0  0  0  0  0  0  0
   -1.3147    1.0011   -1.6345 C   0  0  0  0  0  0  0  0  0  0  0  0
   -1.8698    1.3040   -0.7423 H   0  0  0  0  0  0  0  0  0  0  0  0
   -1.1222    1.9030   -2.2219 H   0  0  0  0  0  0  0  0  0  0  0  0
   -2.2317    0.1044   -2.4667 C   0  0  0  0  0  0  0  0  0  0  0  0
   -1.9263   -1.0081   -2.8542 O   0  0  0  0  0  0  0  0  0  0  0  0
   -3.4921    0.5064   -2.7999 N   0  0  0  0  0  0  0  0  0  0  0  0
   -3.9684   -0.0597   -3.4967 H   0  0  0  0  0  0  0  0  0  0  0  0
   -3.7370    1.4850   -2.6895 H   0  0  0  0  0  0  0  0  0  0  0  0
    0.5975   -0.3922    1.1338 C   0  0  0  0  0  0  0  0  0  0  0  0
    1.7993   -0.2636    1.3314 O   0  0  0  0  0  0  0  0  0  0  0  0
   -0.2944    0.1634    2.0334 N   0  0  0  0  0  0  0  0  0  0  0  0
   -1.2643   -0.1007    1.8907 H   0  0  0  0  0  0  0  0  0  0  0  0
    0.1126    0.6063    3.3606 C   0  0  0  0  0  0  0  0  0  0  0  0
    0.8781    1.3859    3.2874 H   0  0  0  0  0  0  0  0  0  0  0  0
   -0.7450    1.0171    3.9018 H   0  0  0  0  0  0  0  0  0  0  0  0
    0.5183   -0.2331    3.9353 H   0  0  0  0  0  0  0  0  0  0  0  0
  1  2  1  0  0  0  0
  2  3  1  0  0  0  0
  2  4  1  0  0  0  0
  2  5  1  0  0  0  0
  5  6  2  0  0  0  0
  5  7  1  0  0  0  0
  7  8  1  0  0  0  0
  7  9  1  0  0  0  0
  9 10  1  0  0  0  0
  9 11  1  0  0  0  0
  9 22  1  0  0  0  0
 11 12  1  0  0  0  0
 11 13  1  0  0  0  0
 11 14  1  0  0  0  0
 14 15  1  0  0  0  0
 14 16  1  0  0  0  0
 14 17  1  0  0  0  0
 17 18  2  0  0  0  0
 17 19  1  0  0  0  0
 19 20  1  0  0  0  0
 19 21  1  0  0  0  0
 22 23  2  0  0  0  0
 22 24  1  0  0  0  0
 24 25  1  0  0  0  0
 24 26  1  0  0  0  0
 26 27  1  0  0  0  0
 26 28  1  0  0  0  0
 26 29  1  0  0  0  0
M  END
$$$$

  -OEChem-02102214123D

 29 28  0     1  0  0  0  0  0999 V2000
   -2.4004   -4.6368    0.7243 H   0  0  0  0  0  0  0  0  0  0  0  0
   -2.4571   -3.7191    0.1321 C   0  0  0  0  0  0  0  0  0  0  0  0
   -3.4074   -3.2220    0.3399 H   0  0  0  0  0  0  0  0  0  0  0  0
   -2.4158   -3.9813   -0.9283 H   0  0  0  0  0  0  0  0  0  0  0  0
   -1.3040   -2.7982    0.4827 C   0  0  0  0  0  0  0  0  0  0  0  0
   -0.5407   -3.0999    1.3832 O   0  0  0  0  0  0  0  0  0  0  0  0
   -1.1505   -1.6181   -0.2178 N   0  0  0  0  0  0  0  0  0  0  0  0
   -1.7024   -1.5970   -1.0766 H   0  0  0  0  0  0  0  0  0  0  0  0
    0.1089   -0.8518   -0.2612 C   0  0  1  0  0  0  0  0  0  0  0  0
    0.8882   -1.5248   -0.6366 H   0  0  0  0  0  0  0  0  0  0  0  0
    0.0841    0.4084   -1.1847 C   0  0  0  0  0  0  0  0  0  0  0  0
    0.6537    1.2176   -0.7126 H   0  0  0  0  0  0  0  0  0  0  0  0
    0.6520    0.1227   -2.0767 H   0  0  0  0  0  0  0  0  0  0  0  0
   -1.2471    1.0129   -1.7136 C   0  0  0  0  0  0  0  0  0  0  0  0
   -1.7006    1.5562   -0.8800 H   0  0  0  0  0  0  0  0  0  0  0  0
   -1.0050    1.7477   -2.4864 H   0  0  0  0  0  0  0  0  0  0  0  0
   -2.3252    0.0911   -2.2790 C   0  0  0  0  0  0  0  0  0  0  0  0
   -2.0841   -0.9881   -2.7878 O   0  0  0  0  0  0  0  0  0  0  0  0
   -3.6480    0.4223   -2.2202 N   0  0  0  0  0  0  0  0  0  0  0  0
   -4.2719   -0.1483   -2.7845 H   0  0  0  0  0  0  0  0  0  0  0  0
   -3.8993    1.3818   -2.0045 H   0  0  0  0  0  0  0  0  0  0  0  0
    0.5795   -0.3870    1.1381 C   0  0  0  0  0  0  0  0  0  0  0  0
    1.7761   -0.2393    1.3534 O   0  0  0  0  0  0  0  0  0  0  0  0
   -0.3342    0.1638    2.0186 N   0  0  0  0  0  0  0  0  0  0  0  0
   -1.2985   -0.1124    1.8620 H   0  0  0  0  0  0  0  0  0  0  0  0
    0.0459    0.6248    3.3478 C   0  0  0  0  0  0  0  0  0  0  0  0
    0.7941    1.4214    3.2792 H   0  0  0  0  0  0  0  0  0  0  0  0
   -0.8277    1.0186    3.8756 H   0  0  0  0  0  0  0  0  0  0  0  0
    0.4631   -0.2012    3.9335 H   0  0  0  0  0  0  0  0  0  0  0  0
  1  2  1  0  0  0  0
  2  3  1  0  0  0  0
  2  4  1  0  0  0  0
  2  5  1  0  0  0  0
  5  6  2  0  0  0  0
  5  7  1  0  0  0  0
  7  8  1  0  0  0  0
  7  9  1  0  0  0  0
  9 10  1  0  0  0  0
  9 11  1  0  0  0  0
  9 22  1  0  0  0  0
 11 12  1  0  0  0  0
 11 13  1  0  0  0  0
 11 14  1  0  0  0  0
 14 15  1  0  0  0  0
 14 16  1  0  0  0  0
 14 17  1  0  0  0  0
 17 18  2  0  0  0  0
 17 19  1  0  0  0  0
 19 20  1  0  0  0  0
 19 21  1  0  0  0  0
 22 23  2  0  0  0  0
 22 24  1  0  0  0  0
 24 25  1  0  0  0  0
 24 26  1  0  0  0  0
 26 27  1  0  0  0  0
 26 28  1  0  0  0  0
 26 29  1  0  0  0  0
M  END
$$$$

  -OEChem-02102214123D

 29 28  0     1  0  0  0  0  0999 V2000
   -2.3802   -4.6409    0.8728 H   0  0  0  0  0  0  0  0  0  0  0  0
   -2.4556   -3.7340    0.2663 C   0  0  0  0  0  0  0  0  0  0  0  0
   -3.3991   -3.2327    0.4946 H   0  0  0  0  0  0  0  0  0  0  0  0
   -2.4481   -4.0158   -0.7898 H   0  0  0  0  0  0  0  0  0  0  0  0
   -1.2914   -2.8078    0.5624 C   0  0  0  0  0  0  0  0  0  0  0  0
   -0.5165   -3.0778    1.4631 O   0  0  0  0  0  0  0  0  0  0  0  0
   -1.1374   -1.6603   -0.1903 N   0  0  0  0  0  0  0  0  0  0  0  0
   -1.7102   -1.6586   -1.0363 H   0  0  0  0  0  0  0  0  0  0  0  0
    0.1135   -0.8828   -0.2606 C   0  0  1  0  0  0  0  0  0  0  0  0
    0.9029   -1.5673   -0.5904 H   0  0  0  0  0  0  0  0  0  0  0  0
    0.1040    0.3366   -1.2401 C   0  0  0  0  0  0  0  0  0  0  0  0
    0.6874    1.1577   -0.8069 H   0  0  0  0  0  0  0  0  0  0  0  0
    0.6776   -0.0076   -2.1074 H   0  0  0  0  0  0  0  0  0  0  0  0
   -1.1983    0.9469   -1.8392 C   0  0  0  0  0  0  0  0  0  0  0  0
   -1.5171    1.7334   -1.1494 H   0  0  0  0  0  0  0  0  0  0  0  0
   -0.9460    1.4361   -2.7844 H   0  0  0  0  0  0  0  0  0  0  0  0
   -2.4207    0.0700   -2.0884 C   0  0  0  0  0  0  0  0  0  0  0  0
   -2.3518   -1.0090   -2.6481 O   0  0  0  0  0  0  0  0  0  0  0  0
   -3.6624    0.4187   -1.6402 N   0  0  0  0  0  0  0  0  0  0  0  0
   -4.4355   -0.1299   -2.0068 H   0  0  0  0  0  0  0  0  0  0  0  0
   -3.8201    1.3773   -1.3458 H   0  0  0  0  0  0  0  0  0  0  0  0
    0.5580   -0.3506    1.1228 C   0  0  0  0  0  0  0  0  0  0  0  0
    1.7496   -0.1819    1.3503 O   0  0  0  0  0  0  0  0  0  0  0  0
   -0.3753    0.2270    1.9645 N   0  0  0  0  0  0  0  0  0  0  0  0
   -1.3347   -0.0631    1.8026 H   0  0  0  0  0  0  0  0  0  0  0  0
   -0.0210    0.7443    3.2801 C   0  0  0  0  0  0  0  0  0  0  0  0
    0.7179    1.5476    3.1908 H   0  0  0  0  0  0  0  0  0  0  0  0
   -0.9072    1.1466    3.7798 H   0  0  0  0  0  0  0  0  0  0  0  0
    0.3988   -0.0528    3.9028 H   0  0  0  0  0  0  0  0  0  0  0  0
  1  2  1  0  0  0  0
  2  3  1  0  0  0  0
  2  4  1  0  0  0  0
  2  5  1  0  0  0  0
  5  6  2  0  0  0  0
  5  7  1  0  0  0  0
  7  8  1  0  0  0  0
  7  9  1  0  0  0  0
  9 10  1  0  0  0  0
  9 11  1  0  0  0  0
  9 22  1  0  0  0  0
 11 12  1  0  0  0  0
 11 13  1  0  0  0  0
 11 14  1  0  0  0  0
 14 15  1  0  0  0  0
 14 16  1  0  0  0  0
 14 17  1  0  0  0  0
 17 18  2  0  0  0  0
 17 19  1  0  0  0  0
 19 20  1  0  0  0  0
 19 21  1  0  0  0  0
 22 23  2  0  0  0  0
 22 24  1  0  0  0  0
 24 25  1  0  0  0  0
 24 26  1  0  0  0  0
 26 27  1  0  0  0  0
 26 28  1  0  0  0  0
 26 29  1  0  0  0  0
M  END
$$$$

  -OEChem-02102214123D

 29 28  0     1  0  0  0  0  0999 V2000
   -1.8860   -4.7220    1.0928 H   0  0  0  0  0  0  0  0  0  0  0  0
   -2.0729   -3.8705    0.4324 C   0  0  0  0  0  0  0  0  0  0  0  0
   -3.0481   -3.4418    0.6750 H   0  0  0  0  0  0  0  0  0  0  0  0
   -2.0863   -4.2229   -0.6020 H   0  0  0  0  0  0  0  0  0  0  0  0
   -0.9891   -2.8238    0.6076 C   0  0  0  0  0  0  0  0  0  0  0  0
   -0.1176   -2.9866    1.4434 O   0  0  0  0  0  0  0  0  0  0  0  0
   -1.0152   -1.6890   -0.1786 N   0  0  0  0  0  0  0  0  0  0  0  0
   -1.6675   -1.7486   -0.9633 H   0  0  0  0  0  0  0  0  0  0  0  0
    0.1163   -0.7560   -0.3296 C   0  0  1  0  0  0  0  0  0  0  0  0
    0.9752   -1.3439   -0.6731 H   0  0  0  0  0  0  0  0  0  0  0  0
   -0.0843    0.4208   -1.3416 C   0  0  0  0  0  0  0  0  0  0  0  0
    0.4109    1.3184   -0.9528 H   0  0  0  0  0  0  0  0  0  0  0  0
    0.5013    0.1233   -2.2183 H   0  0  0  0  0  0  0  0  0  0  0  0
   -1.4671    0.8600   -1.9158 C   0  0  0  0  0  0  0  0  0  0  0  0
   -1.7282    1.8006   -1.4231 H   0  0  0  0  0  0  0  0  0  0  0  0
   -1.3404    1.0892   -2.9781 H   0  0  0  0  0  0  0  0  0  0  0  0
   -2.6855   -0.0460   -1.7900 C   0  0  0  0  0  0  0  0  0  0  0  0
   -2.7481   -1.1297   -2.3417 O   0  0  0  0  0  0  0  0  0  0  0  0
   -3.7424    0.2691   -0.9847 N   0  0  0  0  0  0  0  0  0  0  0  0
   -4.5744   -0.3026   -1.1024 H   0  0  0  0  0  0  0  0  0  0  0  0
   -3.8305    1.2245   -0.6531 H   0  0  0  0  0  0  0  0  0  0  0  0
    0.5408   -0.1302    1.0205 C   0  0  0  0  0  0  0  0  0  0  0  0
    1.7066    0.2035    1.1920 O   0  0  0  0  0  0  0  0  0  0  0  0
   -0.4274    0.3419    1.8884 N   0  0  0  0  0  0  0  0  0  0  0  0
   -1.3465   -0.0734    1.7714 H   0  0  0  0  0  0  0  0  0  0  0  0
   -0.0939    0.9338    3.1778 C   0  0  0  0  0  0  0  0  0  0  0  0
    0.5366    1.8188    3.0429 H   0  0  0  0  0  0  0  0  0  0  0  0
   -1.0047    1.2376    3.7021 H   0  0  0  0  0  0  0  0  0  0  0  0
    0.4427    0.2109    3.8015 H   0  0  0  0  0  0  0  0  0  0  0  0
  1  2  1  0  0  0  0
  2  3  1  0  0  0  0
  2  4  1  0  0  0  0
  2  5  1  0  0  0  0
  5  6  2  0  0  0  0
  5  7  1  0  0  0  0
  7  8  1  0  0  0  0
  7  9  1  0  0  0  0
  9 10  1  0  0  0  0
  9 11  1  0  0  0  0
  9 22  1  0  0  0  0
 11 12  1  0  0  0  0
 11 13  1  0  0  0  0
 11 14  1  0  0  0  0
 14 15  1  0  0  0  0
 14 16  1  0  0  0  0
 14 17  1  0  0  0  0
 17 18  2  0  0  0  0
 17 19  1  0  0  0  0
 19 20  1  0  0  0  0
 19 21  1  0  0  0  0
 22 23  2  0  0  0  0
 22 24  1  0  0  0  0
 24 25  1  0  0  0  0
 24 26  1  0  0  0  0
 26 27  1  0  0  0  0
 26 28  1  0  0  0  0
 26 29  1  0  0  0  0
M  END
$$$$

  -OEChem-02102214123D

 29 28  0     1  0  0  0  0  0999 V2000
   -1.8317   -4.6731    0.5109 H   0  0  0  0  0  0  0  0  0  0  0  0
   -2.1443   -3.6666    0.2198 C   0  0  0  0  0  0  0  0  0  0  0  0
   -2.6569   -3.1991    1.0640 H   0  0  0  0  0  0  0  0  0  0  0  0
   -2.8365   -3.7410   -0.6221 H   0  0  0  0  0  0  0  0  0  0  0  0
   -0.9370   -2.8384   -0.1757 C   0  0  0  0  0  0  0  0  0  0  0  0
    0.1686   -3.3504   -0.2132 O   0  0  0  0  0  0  0  0  0  0  0  0
   -1.1061   -1.5059   -0.4956 N   0  0  0  0  0  0  0  0  0  0  0  0
   -2.0233   -1.1397   -0.2448 H   0  0  0  0  0  0  0  0  0  0  0  0
    0.0127   -0.5457   -0.5308 C   0  0  1  0  0  0  0  0  0  0  0  0
    0.7690   -0.9511   -1.2130 H   0  0  0  0  0  0  0  0  0  0  0  0
   -0.3056    0.9091   -1.0097 C   0  0  0  0  0  0  0  0  0  0  0  0
    0.2825    1.6083   -0.4032 H   0  0  0  0  0  0  0  0  0  0  0  0
    0.1176    0.9743   -2.0176 H   0  0  0  0  0  0  0  0  0  0  0  0
   -1.7448    1.5014   -1.1199 C   0  0  0  0  0  0  0  0  0  0  0  0
   -1.7868    2.3926   -0.4866 H   0  0  0  0  0  0  0  0  0  0  0  0
   -1.8872    1.8436   -2.1488 H   0  0  0  0  0  0  0  0  0  0  0  0
   -2.9517    0.6519   -0.7477 C   0  0  0  0  0  0  0  0  0  0  0  0
   -3.1227    0.2441    0.3888 O   0  0  0  0  0  0  0  0  0  0  0  0
   -3.8399    0.1984   -1.6797 N   0  0  0  0  0  0  0  0  0  0  0  0
   -4.6908   -0.2280   -1.3230 H   0  0  0  0  0  0  0  0  0  0  0  0
   -3.8298    0.6103   -2.6078 H   0  0  0  0  0  0  0  0  0  0  0  0
    0.6880   -0.4509    0.8566 C   0  0  0  0  0  0  0  0  0  0  0  0
    1.8904   -0.2412    0.9460 O   0  0  0  0  0  0  0  0  0  0  0  0
   -0.1038   -0.3545    1.9877 N   0  0  0  0  0  0  0  0  0  0  0  0
   -1.1121   -0.3720    1.8479 H   0  0  0  0  0  0  0  0  0  0  0  0
    0.4249   -0.0902    3.3187 C   0  0  0  0  0  0  0  0  0  0  0  0
    0.9046    0.8933    3.3520 H   0  0  0  0  0  0  0  0  0  0  0  0
   -0.3831   -0.1082    4.0564 H   0  0  0  0  0  0  0  0  0  0  0  0
    1.1617   -0.8515    3.5955 H   0  0  0  0  0  0  0  0  0  0  0  0
  1  2  1  0  0  0  0
  2  3  1  0  0  0  0
  2  4  1  0  0  0  0
  2  5  1  0  0  0  0
  5  6  2  0  0  0  0
  5  7  1  0  0  0  0
  7  8  1  0  0  0  0
  7  9  1  0  0  0  0
  9 10  1  0  0  0  0
  9 11  1  0  0  0  0
  9 22  1  0  0  0  0
 11 12  1  0  0  0  0
 11 13  1  0  0  0  0
 11 14  1  0  0  0  0
 14 15  1  0  0  0  0
 14 16  1  0  0  0  0
 14 17  1  0  0  0  0
 17 18  2  0  0  0  0
 17 19  1  0  0  0  0
 19 20  1  0  0  0  0
 19 21  1  0  0  0  0
 22 23  2  0  0  0  0
 22 24  1  0  0  0  0
 24 25  1  0  0  0  0
 24 26  1  0  0  0  0
 26 27  1  0  0  0  0
 26 28  1  0  0  0  0
 26 29  1  0  0  0  0
M  END
$$$$

  -OEChem-02102214123D

 29 28  0     1  0  0  0  0  0999 V2000
   -2.2932   -4.4858    0.9219 H   0  0  0  0  0  0  0  0  0  0  0  0
   -2.4567   -3.4946    0.4899 C   0  0  0  0  0  0  0  0  0  0  0  0
   -2.9703   -2.8708    1.2255 H   0  0  0  0  0  0  0  0  0  0  0  0
   -3.0866   -3.5954   -0.3970 H   0  0  0  0  0  0  0  0  0  0  0  0
   -1.1298   -2.8642    0.1129 C   0  0  0  0  0  0  0  0  0  0  0  0
   -0.0953   -3.4934    0.2533 O   0  0  0  0  0  0  0  0  0  0  0  0
   -1.1097   -1.5806   -0.3963 N   0  0  0  0  0  0  0  0  0  0  0  0
   -1.9913   -1.0873   -0.2711 H   0  0  0  0  0  0  0  0  0  0  0  0
    0.1121   -0.7531   -0.3927 C   0  0  1  0  0  0  0  0  0  0  0  0
    0.8956   -1.3220   -0.9069 H   0  0  0  0  0  0  0  0  0  0  0  0
    0.0121    0.6359   -1.1024 C   0  0  0  0  0  0  0  0  0  0  0  0
    0.5610    1.3617   -0.4906 H   0  0  0  0  0  0  0  0  0  0  0  0
    0.5845    0.5456   -2.0316 H   0  0  0  0  0  0  0  0  0  0  0  0
   -1.3411    1.3118   -1.4818 C   0  0  0  0  0  0  0  0  0  0  0  0
   -1.2678    2.3803   -1.2601 H   0  0  0  0  0  0  0  0  0  0  0  0
   -1.4514    1.2207   -2.5662 H   0  0  0  0  0  0  0  0  0  0  0  0
   -2.6394    0.8036   -0.8641 C   0  0  0  0  0  0  0  0  0  0  0  0
   -2.7491    0.5834    0.3305 O   0  0  0  0  0  0  0  0  0  0  0  0
   -3.7232    0.4678   -1.6227 N   0  0  0  0  0  0  0  0  0  0  0  0
   -4.5895    0.3047   -1.1166 H   0  0  0  0  0  0  0  0  0  0  0  0
   -3.7557    0.7781   -2.5890 H   0  0  0  0  0  0  0  0  0  0  0  0
    0.6189   -0.5278    1.0509 C   0  0  0  0  0  0  0  0  0  0  0  0
    1.8187   -0.4488    1.2804 O   0  0  0  0  0  0  0  0  0  0  0  0
   -0.2875   -0.1895    2.0405 N   0  0  0  0  0  0  0  0  0  0  0  0
   -1.2540   -0.0481    1.7439 H   0  0  0  0  0  0  0  0  0  0  0  0
    0.1079    0.2276    3.3788 C   0  0  0  0  0  0  0  0  0  0  0  0
    0.6567    1.1741    3.3383 H   0  0  0  0  0  0  0  0  0  0  0  0
   -0.7766    0.3637    4.0084 H   0  0  0  0  0  0  0  0  0  0  0  0
    0.7471   -0.5309    3.8431 H   0  0  0  0  0  0  0  0  0  0  0  0
  1  2  1  0  0  0  0
  2  3  1  0  0  0  0
  2  4  1  0  0  0  0
  2  5  1  0  0  0  0
  5  6  2  0  0  0  0
  5  7  1  0  0  0  0
  7  8  1  0  0  0  0
  7  9  1  0  0  0  0
  9 10  1  0  0  0  0
  9 11  1  0  0  0  0
  9 22  1  0  0  0  0
 11 12  1  0  0  0  0
 11 13  1  0  0  0  0
 11 14  1  0  0  0  0
 14 15  1  0  0  0  0
 14 16  1  0  0  0  0
 14 17  1  0  0  0  0
 17 18  2  0  0  0  0
 17 19  1  0  0  0  0
 19 20  1  0  0  0  0
 19 21  1  0  0  0  0
 22 23  2  0  0  0  0
 22 24  1  0  0  0  0
 24 25  1  0  0  0  0
 24 26  1  0  0  0  0
 26 27  1  0  0  0  0
 26 28  1  0  0  0  0
 26 29  1  0  0  0  0
M  END
$$$$

  -OEChem-02102214123D

 29 28  0     1  0  0  0  0  0999 V2000
   -2.3569   -4.4694    0.8487 H   0  0  0  0  0  0  0  0  0  0  0  0
   -2.4957   -3.4634    0.4428 C   0  0  0  0  0  0  0  0  0  0  0  0
   -2.9957   -2.8471    1.1940 H   0  0  0  0  0  0  0  0  0  0  0  0
   -3.1261   -3.5255   -0.4471 H   0  0  0  0  0  0  0  0  0  0  0  0
   -1.1535   -2.8545    0.0853 C   0  0  0  0  0  0  0  0  0  0  0  0
   -0.1320   -3.5029    0.2341 O   0  0  0  0  0  0  0  0  0  0  0  0
   -1.1055   -1.5659   -0.4086 N   0  0  0  0  0  0  0  0  0  0  0  0
   -1.9761   -1.0556   -0.2770 H   0  0  0  0  0  0  0  0  0  0  0  0
    0.1279   -0.7588   -0.3606 C   0  0  1  0  0  0  0  0  0  0  0  0
    0.9117   -1.3432   -0.8568 H   0  0  0  0  0  0  0  0  0  0  0  0
    0.0477    0.6046   -1.1113 C   0  0  0  0  0  0  0  0  0  0  0  0
    0.5477    1.3537   -0.4863 H   0  0  0  0  0  0  0  0  0  0  0  0
    0.6615    0.5100   -2.0134 H   0  0  0  0  0  0  0  0  0  0  0  0
   -1.3102    1.2272   -1.5492 C   0  0  0  0  0  0  0  0  0  0  0  0
   -1.1843    2.3107   -1.6281 H   0  0  0  0  0  0  0  0  0  0  0  0
   -1.5155    0.8525   -2.5562 H   0  0  0  0  0  0  0  0  0  0  0  0
   -2.5719    0.9589   -0.7287 C   0  0  0  0  0  0  0  0  0  0  0  0
   -2.5608    0.6800    0.4577 O   0  0  0  0  0  0  0  0  0  0  0  0
   -3.8086    0.9690   -1.3050 N   0  0  0  0  0  0  0  0  0  0  0  0
   -4.5989    0.9637   -0.6654 H   0  0  0  0  0  0  0  0  0  0  0  0
   -3.9115    1.3720   -2.2314 H   0  0  0  0  0  0  0  0  0  0  0  0
    0.6300   -0.5372    1.0858 C   0  0  0  0  0  0  0  0  0  0  0  0
    1.8310   -0.4801    1.3160 O   0  0  0  0  0  0  0  0  0  0  0  0
   -0.2671   -0.1842    2.0776 N   0  0  0  0  0  0  0  0  0  0  0  0
   -1.2246    0.0011    1.7730 H   0  0  0  0  0  0  0  0  0  0  0  0
    0.1400    0.2419    3.4092 C   0  0  0  0  0  0  0  0  0  0  0  0
    0.6892    1.1875    3.3569 H   0  0  0  0  0  0  0  0  0  0  0  0
   -0.7394    0.3830    4.0447 H   0  0  0  0  0  0  0  0  0  0  0  0
    0.7819   -0.5143    3.8739 H   0  0  0  0  0  0  0  0  0  0  0  0
  1  2  1  0  0  0  0
  2  3  1  0  0  0  0
  2  4  1  0  0  0  0
  2  5  1  0  0  0  0
  5  6  2  0  0  0  0
  5  7  1  0  0  0  0
  7  8  1  0  0  0  0
  7  9  1  0  0  0  0
  9 10  1  0  0  0  0
  9 11  1  0  0  0  0
  9 22  1  0  0  0  0
 11 12  1  0  0  0  0
 11 13  1  0  0  0  0
 11 14  1  0  0  0  0
 14 15  1  0  0  0  0
 14 16  1  0  0  0  0
 14 17  1  0  0  0  0
 17 18  2  0  0  0  0
 17 19  1  0  0  0  0
 19 20  1  0  0  0  0
 19 21  1  0  0  0  0
 22 23  2  0  0  0  0
 22 24  1  0  0  0  0
 24 25  1  0  0  0  0
 24 26  1  0  0  0  0
 26 27  1  0  0  0  0
 26 28  1  0  0  0  0
 26 29  1  0  0  0  0
M  END
$$$$

  -OEChem-02102214123D

 29 28  0     1  0  0  0  0  0999 V2000
   -2.3431   -4.4962    0.7395 H   0  0  0  0  0  0  0  0  0  0  0  0
   -2.4779   -3.4909    0.3306 C   0  0  0  0  0  0  0  0  0  0  0  0
   -3.0294   -2.8872    1.0554 H   0  0  0  0  0  0  0  0  0  0  0  0
   -3.0572   -3.5598   -0.5931 H   0  0  0  0  0  0  0  0  0  0  0  0
   -1.1294   -2.8566    0.0486 C   0  0  0  0  0  0  0  0  0  0  0  0
   -0.1068   -3.4924    0.2382 O   0  0  0  0  0  0  0  0  0  0  0  0
   -1.0766   -1.5615   -0.4272 N   0  0  0  0  0  0  0  0  0  0  0  0
   -1.9557   -1.0576   -0.3260 H   0  0  0  0  0  0  0  0  0  0  0  0
    0.1439   -0.7412   -0.3268 C   0  0  1  0  0  0  0  0  0  0  0  0
    0.9478   -1.3166   -0.8009 H   0  0  0  0  0  0  0  0  0  0  0  0
    0.0547    0.6026   -1.1040 C   0  0  0  0  0  0  0  0  0  0  0  0
    0.5047    1.3823   -0.4787 H   0  0  0  0  0  0  0  0  0  0  0  0
    0.6975    0.5098   -1.9858 H   0  0  0  0  0  0  0  0  0  0  0  0
   -1.3181    1.1432   -1.5936 C   0  0  0  0  0  0  0  0  0  0  0  0
   -1.1729    2.1741   -1.9280 H   0  0  0  0  0  0  0  0  0  0  0  0
   -1.6032    0.5553   -2.4707 H   0  0  0  0  0  0  0  0  0  0  0  0
   -2.5232    1.1259   -0.6497 C   0  0  0  0  0  0  0  0  0  0  0  0
   -2.5136    0.6717    0.4803 O   0  0  0  0  0  0  0  0  0  0  0  0
   -3.7345    1.6000   -1.0613 N   0  0  0  0  0  0  0  0  0  0  0  0
   -4.4418    1.7122   -0.3399 H   0  0  0  0  0  0  0  0  0  0  0  0
   -3.7844    2.1512   -1.9123 H   0  0  0  0  0  0  0  0  0  0  0  0
    0.6195   -0.5129    1.1276 C   0  0  0  0  0  0  0  0  0  0  0  0
    1.8170   -0.4415    1.3720 O   0  0  0  0  0  0  0  0  0  0  0  0
   -0.2889   -0.1721    2.1123 N   0  0  0  0  0  0  0  0  0  0  0  0
   -1.2473   -0.0028    1.8009 H   0  0  0  0  0  0  0  0  0  0  0  0
    0.0996    0.2465    3.4520 C   0  0  0  0  0  0  0  0  0  0  0  0
    0.6420    1.1967    3.4141 H   0  0  0  0  0  0  0  0  0  0  0  0
   -0.7881    0.3757    4.0783 H   0  0  0  0  0  0  0  0  0  0  0  0
    0.7417   -0.5087    3.9179 H   0  0  0  0  0  0  0  0  0  0  0  0
  1  2  1  0  0  0  0
  2  3  1  0  0  0  0
  2  4  1  0  0  0  0
  2  5  1  0  0  0  0
  5  6  2  0  0  0  0
  5  7  1  0  0  0  0
  7  8  1  0  0  0  0
  7  9  1  0  0  0  0
  9 10  1  0  0  0  0
  9 11  1  0  0  0  0
  9 22  1  0  0  0  0
 11 12  1  0  0  0  0
 11 13  1  0  0  0  0
 11 14  1  0  0  0  0
 14 15  1  0  0  0  0
 14 16  1  0  0  0  0
 14 17  1  0  0  0  0
 17 18  2  0  0  0  0
 17 19  1  0  0  0  0
 19 20  1  0  0  0  0
 19 21  1  0  0  0  0
 22 23  2  0  0  0  0
 22 24  1  0  0  0  0
 24 25  1  0  0  0  0
 24 26  1  0  0  0  0
 26 27  1  0  0  0  0
 26 28  1  0  0  0  0
 26 29  1  0  0  0  0
M  END
$$$$

  -OEChem-02102214123D

 29 28  0     1  0  0  0  0  0999 V2000
   -2.2189   -4.5430    0.9470 H   0  0  0  0  0  0  0  0  0  0  0  0
   -2.3761   -3.6135    0.3927 C   0  0  0  0  0  0  0  0  0  0  0  0
   -3.0784   -2.9861    0.9471 H   0  0  0  0  0  0  0  0  0  0  0  0
   -2.8046   -3.8523   -0.5836 H   0  0  0  0  0  0  0  0  0  0  0  0
   -1.0598   -2.8825    0.2128 C   0  0  0  0  0  0  0  0  0  0  0  0
   -0.0269   -3.3699    0.6390 O   0  0  0  0  0  0  0  0  0  0  0  0
   -1.0430   -1.6648   -0.4365 N   0  0  0  0  0  0  0  0  0  0  0  0
   -1.9642   -1.2511   -0.5898 H   0  0  0  0  0  0  0  0  0  0  0  0
    0.1188   -0.7552   -0.4260 C   0  0  1  0  0  0  0  0  0  0  0  0
    0.9823   -1.3105   -0.8099 H   0  0  0  0  0  0  0  0  0  0  0  0
   -0.0681    0.5028   -1.3199 C   0  0  0  0  0  0  0  0  0  0  0  0
    0.3465    1.3784   -0.8069 H   0  0  0  0  0  0  0  0  0  0  0  0
    0.5422    0.3532   -2.2167 H   0  0  0  0  0  0  0  0  0  0  0  0
   -1.5007    0.8371   -1.7923 C   0  0  0  0  0  0  0  0  0  0  0  0
   -1.4705    1.7276   -2.4261 H   0  0  0  0  0  0  0  0  0  0  0  0
   -1.8885    0.0179   -2.4052 H   0  0  0  0  0  0  0  0  0  0  0  0
   -2.4636    1.0902   -0.6350 C   0  0  0  0  0  0  0  0  0  0  0  0
   -3.1193    0.1953   -0.1306 O   0  0  0  0  0  0  0  0  0  0  0  0
   -2.5815    2.3187   -0.0527 N   0  0  0  0  0  0  0  0  0  0  0  0
   -3.3253    2.4373    0.6294 H   0  0  0  0  0  0  0  0  0  0  0  0
   -2.1528    3.1266   -0.4931 H   0  0  0  0  0  0  0  0  0  0  0  0
    0.4892   -0.3136    1.0079 C   0  0  0  0  0  0  0  0  0  0  0  0
    1.6513   -0.0501    1.2863 O   0  0  0  0  0  0  0  0  0  0  0  0
   -0.5142    0.0782    1.8769 N   0  0  0  0  0  0  0  0  0  0  0  0
   -1.4733   -0.1106    1.5906 H   0  0  0  0  0  0  0  0  0  0  0  0
   -0.2608    0.6163    3.2063 C   0  0  0  0  0  0  0  0  0  0  0  0
    0.3275    1.5375    3.1409 H   0  0  0  0  0  0  0  0  0  0  0  0
   -1.2058    0.8447    3.7079 H   0  0  0  0  0  0  0  0  0  0  0  0
    0.2883   -0.1103    3.8144 H   0  0  0  0  0  0  0  0  0  0  0  0
  1  2  1  0  0  0  0
  2  3  1  0  0  0  0
  2  4  1  0  0  0  0
  2  5  1  0  0  0  0
  5  6  2  0  0  0  0
  5  7  1  0  0  0  0
  7  8  1  0  0  0  0
  7  9  1  0  0  0  0
  9 10  1  0  0  0  0
  9 11  1  0  0  0  0
  9 22  1  0  0  0  0
 11 12  1  0  0  0  0
 11 13  1  0  0  0  0
 11 14  1  0  0  0  0
 14 15  1  0  0  0  0
 14 16  1  0  0  0  0
 14 17  1  0  0  0  0
 17 18  2  0  0  0  0
 17 19  1  0  0  0  0
 19 20  1  0  0  0  0
 19 21  1  0  0  0  0
 22 23  2  0  0  0  0
 22 24  1  0  0  0  0
 24 25  1  0  0  0  0
 24 26  1  0  0  0  0
 26 27  1  0  0  0  0
 26 28  1  0  0  0  0
 26 29  1  0  0  0  0
M  END
$$$$

  -OEChem-02102214123D

 29 28  0     1  0  0  0  0  0999 V2000
   -2.2272   -4.5564    0.8586 H   0  0  0  0  0  0  0  0  0  0  0  0
   -2.4004   -3.5746    0.4088 C   0  0  0  0  0  0  0  0  0  0  0  0
   -2.9979   -2.9716    1.0971 H   0  0  0  0  0  0  0  0  0  0  0  0
   -2.9536   -3.7068   -0.5239 H   0  0  0  0  0  0  0  0  0  0  0  0
   -1.0773   -2.8861    0.1342 C   0  0  0  0  0  0  0  0  0  0  0  0
   -0.0322   -3.4253    0.4552 O   0  0  0  0  0  0  0  0  0  0  0  0
   -1.0676   -1.6464   -0.4736 N   0  0  0  0  0  0  0  0  0  0  0  0
   -1.9805   -1.1936   -0.5147 H   0  0  0  0  0  0  0  0  0  0  0  0
    0.1051   -0.7515   -0.4276 C   0  0  1  0  0  0  0  0  0  0  0  0
    0.9607   -1.3036   -0.8338 H   0  0  0  0  0  0  0  0  0  0  0  0
   -0.0739    0.5290   -1.2876 C   0  0  0  0  0  0  0  0  0  0  0  0
    0.3447    1.3967   -0.7640 H   0  0  0  0  0  0  0  0  0  0  0  0
    0.5283    0.3917   -2.1918 H   0  0  0  0  0  0  0  0  0  0  0  0
   -1.5161    0.8431   -1.7404 C   0  0  0  0  0  0  0  0  0  0  0  0
   -1.4777    1.6078   -2.5210 H   0  0  0  0  0  0  0  0  0  0  0  0
   -2.0001   -0.0308   -2.1848 H   0  0  0  0  0  0  0  0  0  0  0  0
   -2.3504    1.3857   -0.5889 C   0  0  0  0  0  0  0  0  0  0  0  0
   -2.8634    0.6194    0.2095 O   0  0  0  0  0  0  0  0  0  0  0  0
   -2.4944    2.7214   -0.3466 N   0  0  0  0  0  0  0  0  0  0  0  0
   -3.1396    2.9938    0.3899 H   0  0  0  0  0  0  0  0  0  0  0  0
   -2.1760    3.3980   -1.0330 H   0  0  0  0  0  0  0  0  0  0  0  0
    0.4949   -0.3611    1.0168 C   0  0  0  0  0  0  0  0  0  0  0  0
    1.6683   -0.1586    1.2996 O   0  0  0  0  0  0  0  0  0  0  0  0
   -0.4879    0.0168    1.9146 N   0  0  0  0  0  0  0  0  0  0  0  0
   -1.4511    0.0107    1.5752 H   0  0  0  0  0  0  0  0  0  0  0  0
   -0.2063    0.5747    3.2299 C   0  0  0  0  0  0  0  0  0  0  0  0
    0.3199    1.5303    3.1367 H   0  0  0  0  0  0  0  0  0  0  0  0
   -1.1399    0.7431    3.7749 H   0  0  0  0  0  0  0  0  0  0  0  0
    0.4136   -0.1146    3.8128 H   0  0  0  0  0  0  0  0  0  0  0  0
  1  2  1  0  0  0  0
  2  3  1  0  0  0  0
  2  4  1  0  0  0  0
  2  5  1  0  0  0  0
  5  6  2  0  0  0  0
  5  7  1  0  0  0  0
  7  8  1  0  0  0  0
  7  9  1  0  0  0  0
  9 10  1  0  0  0  0
  9 11  1  0  0  0  0
  9 22  1  0  0  0  0
 11 12  1  0  0  0  0
 11 13  1  0  0  0  0
 11 14  1  0  0  0  0
 14 15  1  0  0  0  0
 14 16  1  0  0  0  0
 14 17  1  0  0  0  0
 17 18  2  0  0  0  0
 17 19  1  0  0  0  0
 19 20  1  0  0  0  0
 19 21  1  0  0  0  0
 22 23  2  0  0  0  0
 22 24  1  0  0  0  0
 24 25  1  0  0  0  0
 24 26  1  0  0  0  0
 26 27  1  0  0  0  0
 26 28  1  0  0  0  0
 26 29  1  0  0  0  0
M  END
$$$$

  -OEChem-02102214123D

 29 28  0     1  0  0  0  0  0999 V2000
   -2.2232   -4.5773    0.8488 H   0  0  0  0  0  0  0  0  0  0  0  0
   -2.4033   -3.6025    0.3872 C   0  0  0  0  0  0  0  0  0  0  0  0
   -3.0177   -3.0021    1.0627 H   0  0  0  0  0  0  0  0  0  0  0  0
   -2.9421   -3.7507   -0.5516 H   0  0  0  0  0  0  0  0  0  0  0  0
   -1.0851   -2.9000    0.1240 C   0  0  0  0  0  0  0  0  0  0  0  0
   -0.0366   -3.4366    0.4369 O   0  0  0  0  0  0  0  0  0  0  0  0
   -1.0851   -1.6530   -0.4699 N   0  0  0  0  0  0  0  0  0  0  0  0
   -1.9994   -1.2132   -0.5342 H   0  0  0  0  0  0  0  0  0  0  0  0
    0.0848   -0.7549   -0.4276 C   0  0  1  0  0  0  0  0  0  0  0  0
    0.9375   -1.2954   -0.8550 H   0  0  0  0  0  0  0  0  0  0  0  0
   -0.1103    0.5443   -1.2548 C   0  0  0  0  0  0  0  0  0  0  0  0
    0.3337    1.4011   -0.7335 H   0  0  0  0  0  0  0  0  0  0  0  0
    0.4697    0.4123   -2.1742 H   0  0  0  0  0  0  0  0  0  0  0  0
   -1.5595    0.8747   -1.6807 C   0  0  0  0  0  0  0  0  0  0  0  0
   -1.5146    1.4730   -2.5946 H   0  0  0  0  0  0  0  0  0  0  0  0
   -2.1539   -0.0064   -1.9291 H   0  0  0  0  0  0  0  0  0  0  0  0
   -2.2506    1.7160   -0.6211 C   0  0  0  0  0  0  0  0  0  0  0  0
   -2.7088    1.1709    0.3678 O   0  0  0  0  0  0  0  0  0  0  0  0
   -2.3386    3.0770   -0.6872 N   0  0  0  0  0  0  0  0  0  0  0  0
   -2.8949    3.5423    0.0249 H   0  0  0  0  0  0  0  0  0  0  0  0
   -2.0685    3.5637   -1.5358 H   0  0  0  0  0  0  0  0  0  0  0  0
    0.4933   -0.3770    1.0152 C   0  0  0  0  0  0  0  0  0  0  0  0
    1.6751   -0.2186    1.2914 O   0  0  0  0  0  0  0  0  0  0  0  0
   -0.4722   -0.0084    1.9356 N   0  0  0  0  0  0  0  0  0  0  0  0
   -1.4193    0.1190    1.5751 H   0  0  0  0  0  0  0  0  0  0  0  0
   -0.1502    0.5482    3.2424 C   0  0  0  0  0  0  0  0  0  0  0  0
    0.3612    1.5102    3.1341 H   0  0  0  0  0  0  0  0  0  0  0  0
   -1.0655    0.7024    3.8217 H   0  0  0  0  0  0  0  0  0  0  0  0
    0.4983   -0.1357    3.7999 H   0  0  0  0  0  0  0  0  0  0  0  0
  1  2  1  0  0  0  0
  2  3  1  0  0  0  0
  2  4  1  0  0  0  0
  2  5  1  0  0  0  0
  5  6  2  0  0  0  0
  5  7  1  0  0  0  0
  7  8  1  0  0  0  0
  7  9  1  0  0  0  0
  9 10  1  0  0  0  0
  9 11  1  0  0  0  0
  9 22  1  0  0  0  0
 11 12  1  0  0  0  0
 11 13  1  0  0  0  0
 11 14  1  0  0  0  0
 14 15  1  0  0  0  0
 14 16  1  0  0  0  0
 14 17  1  0  0  0  0
 17 18  2  0  0  0  0
 17 19  1  0  0  0  0
 19 20  1  0  0  0  0
 19 21  1  0  0  0  0
 22 23  2  0  0  0  0
 22 24  1  0  0  0  0
 24 25  1  0  0  0  0
 24 26  1  0  0  0  0
 26 27  1  0  0  0  0
 26 28  1  0  0  0  0
 26 29  1  0  0  0  0
M  END
$$$$

  -OEChem-02102214123D

 29 28  0     1  0  0  0  0  0999 V2000
   -2.1880   -4.6290    0.8606 H   0  0  0  0  0  0  0  0  0  0  0  0
   -2.3883   -3.6764    0.3617 C   0  0  0  0  0  0  0  0  0  0  0  0
   -3.0606   -3.0866    0.9892 H   0  0  0  0  0  0  0  0  0  0  0  0
   -2.8738   -3.8759   -0.5966 H   0  0  0  0  0  0  0  0  0  0  0  0
   -1.0911   -2.9220    0.1391 C   0  0  0  0  0  0  0  0  0  0  0  0
   -0.0322   -3.4245    0.4716 O   0  0  0  0  0  0  0  0  0  0  0  0
   -1.1183   -1.6741   -0.4539 N   0  0  0  0  0  0  0  0  0  0  0  0
   -2.0413   -1.2709   -0.5763 H   0  0  0  0  0  0  0  0  0  0  0  0
    0.0381   -0.7570   -0.4407 C   0  0  1  0  0  0  0  0  0  0  0  0
    0.8874   -1.2820   -0.8934 H   0  0  0  0  0  0  0  0  0  0  0  0
   -0.1907    0.5564   -1.2374 C   0  0  0  0  0  0  0  0  0  0  0  0
    0.2797    1.4022   -0.7204 H   0  0  0  0  0  0  0  0  0  0  0  0
    0.3613    0.4367   -2.1755 H   0  0  0  0  0  0  0  0  0  0  0  0
   -1.6491    0.9097   -1.6238 C   0  0  0  0  0  0  0  0  0  0  0  0
   -1.6483    1.2845   -2.6514 H   0  0  0  0  0  0  0  0  0  0  0  0
   -2.3387    0.0662   -1.6144 H   0  0  0  0  0  0  0  0  0  0  0  0
   -2.1759    2.0213   -0.7312 C   0  0  0  0  0  0  0  0  0  0  0  0
   -2.5439    1.7555    0.3988 O   0  0  0  0  0  0  0  0  0  0  0  0
   -2.1995    3.3334   -1.1086 N   0  0  0  0  0  0  0  0  0  0  0  0
   -2.3937    4.0108   -0.3759 H   0  0  0  0  0  0  0  0  0  0  0  0
   -1.7113    3.6177   -1.9517 H   0  0  0  0  0  0  0  0  0  0  0  0
    0.4759   -0.3704    0.9918 C   0  0  0  0  0  0  0  0  0  0  0  0
    1.6633   -0.2029    1.2380 O   0  0  0  0  0  0  0  0  0  0  0  0
   -0.4710   -0.0144    1.9372 N   0  0  0  0  0  0  0  0  0  0  0  0
   -1.4144    0.1509    1.5885 H   0  0  0  0  0  0  0  0  0  0  0  0
   -0.1117    0.5632    3.2257 C   0  0  0  0  0  0  0  0  0  0  0  0
    0.3587    1.5423    3.0885 H   0  0  0  0  0  0  0  0  0  0  0  0
   -1.0051    0.6892    3.8446 H   0  0  0  0  0  0  0  0  0  0  0  0
    0.5854   -0.0920    3.7589 H   0  0  0  0  0  0  0  0  0  0  0  0
  1  2  1  0  0  0  0
  2  3  1  0  0  0  0
  2  4  1  0  0  0  0
  2  5  1  0  0  0  0
  5  6  2  0  0  0  0
  5  7  1  0  0  0  0
  7  8  1  0  0  0  0
  7  9  1  0  0  0  0
  9 10  1  0  0  0  0
  9 11  1  0  0  0  0
  9 22  1  0  0  0  0
 11 12  1  0  0  0  0
 11 13  1  0  0  0  0
 11 14  1  0  0  0  0
 14 15  1  0  0  0  0
 14 16  1  0  0  0  0
 14 17  1  0  0  0  0
 17 18  2  0  0  0  0
 17 19  1  0  0  0  0
 19 20  1  0  0  0  0
 19 21  1  0  0  0  0
 22 23  2  0  0  0  0
 22 24  1  0  0  0  0
 24 25  1  0  0  0  0
 24 26  1  0  0  0  0
 26 27  1  0  0  0  0
 26 28  1  0  0  0  0
 26 29  1  0  0  0  0
M  END
$$$$

  -OEChem-02102214123D

 29 28  0     1  0  0  0  0  0999 V2000
   -2.2216   -4.6678    0.8232 H   0  0  0  0  0  0  0  0  0  0  0  0
   -2.4136   -3.7301    0.2939 C   0  0  0  0  0  0  0  0  0  0  0  0
   -3.1727   -3.1672    0.8425 H   0  0  0  0  0  0  0  0  0  0  0  0
   -2.7899   -3.9608   -0.7056 H   0  0  0  0  0  0  0  0  0  0  0  0
   -1.1364   -2.9177    0.1921 C   0  0  0  0  0  0  0  0  0  0  0  0
   -0.0890   -3.3781    0.6093 O   0  0  0  0  0  0  0  0  0  0  0  0
   -1.1686   -1.6647   -0.3888 N   0  0  0  0  0  0  0  0  0  0  0  0
   -2.0745   -1.3315   -0.6983 H   0  0  0  0  0  0  0  0  0  0  0  0
   -0.0131   -0.7466   -0.4365 C   0  0  1  0  0  0  0  0  0  0  0  0
    0.8095   -1.2739   -0.9336 H   0  0  0  0  0  0  0  0  0  0  0  0
   -0.2785    0.5693   -1.2215 C   0  0  0  0  0  0  0  0  0  0  0  0
    0.2129    1.4054   -0.7078 H   0  0  0  0  0  0  0  0  0  0  0  0
    0.2398    0.4685   -2.1810 H   0  0  0  0  0  0  0  0  0  0  0  0
   -1.7505    0.9443   -1.5409 C   0  0  0  0  0  0  0  0  0  0  0  0
   -1.8752    1.0175   -2.6250 H   0  0  0  0  0  0  0  0  0  0  0  0
   -2.4779    0.2141   -1.1899 H   0  0  0  0  0  0  0  0  0  0  0  0
   -2.1114    2.2828   -0.9137 C   0  0  0  0  0  0  0  0  0  0  0  0
   -2.5302    2.3308    0.2269 O   0  0  0  0  0  0  0  0  0  0  0  0
   -1.9416    3.4713   -1.5639 N   0  0  0  0  0  0  0  0  0  0  0  0
   -2.0363    4.3097   -0.9971 H   0  0  0  0  0  0  0  0  0  0  0  0
   -1.4020    3.4936   -2.4226 H   0  0  0  0  0  0  0  0  0  0  0  0
    0.5049   -0.3616    0.9697 C   0  0  0  0  0  0  0  0  0  0  0  0
    1.6998   -0.1547    1.1373 O   0  0  0  0  0  0  0  0  0  0  0  0
   -0.3891   -0.0091    1.9652 N   0  0  0  0  0  0  0  0  0  0  0  0
   -1.3719    0.0202    1.7098 H   0  0  0  0  0  0  0  0  0  0  0  0
    0.0218    0.5932    3.2264 C   0  0  0  0  0  0  0  0  0  0  0  0
    0.5085    1.5580    3.0497 H   0  0  0  0  0  0  0  0  0  0  0  0
   -0.8494    0.7560    3.8680 H   0  0  0  0  0  0  0  0  0  0  0  0
    0.7210   -0.0638    3.7544 H   0  0  0  0  0  0  0  0  0  0  0  0
  1  2  1  0  0  0  0
  2  3  1  0  0  0  0
  2  4  1  0  0  0  0
  2  5  1  0  0  0  0
  5  6  2  0  0  0  0
  5  7  1  0  0  0  0
  7  8  1  0  0  0  0
  7  9  1  0  0  0  0
  9 10  1  0  0  0  0
  9 11  1  0  0  0  0
  9 22  1  0  0  0  0
 11 12  1  0  0  0  0
 11 13  1  0  0  0  0
 11 14  1  0  0  0  0
 14 15  1  0  0  0  0
 14 16  1  0  0  0  0
 14 17  1  0  0  0  0
 17 18  2  0  0  0  0
 17 19  1  0  0  0  0
 19 20  1  0  0  0  0
 19 21  1  0  0  0  0
 22 23  2  0  0  0  0
 22 24  1  0  0  0  0
 24 25  1  0  0  0  0
 24 26  1  0  0  0  0
 26 27  1  0  0  0  0
 26 28  1  0  0  0  0
 26 29  1  0  0  0  0
M  END
$$$$

  -OEChem-02102214123D

 29 28  0     1  0  0  0  0  0999 V2000
   -2.4833   -4.5343    0.6253 H   0  0  0  0  0  0  0  0  0  0  0  0
   -2.4818   -3.6723   -0.0482 C   0  0  0  0  0  0  0  0  0  0  0  0
   -3.4236   -3.1317    0.0716 H   0  0  0  0  0  0  0  0  0  0  0  0
   -2.4031   -4.0314   -1.0772 H   0  0  0  0  0  0  0  0  0  0  0  0
   -1.3126   -2.7606    0.2735 C   0  0  0  0  0  0  0  0  0  0  0  0
   -0.5264   -3.0686    1.1504 O   0  0  0  0  0  0  0  0  0  0  0  0
   -1.1554   -1.5784   -0.4253 N   0  0  0  0  0  0  0  0  0  0  0  0
   -1.7722   -1.4553   -1.2232 H   0  0  0  0  0  0  0  0  0  0  0  0
    0.0553   -0.7320   -0.3625 C   0  0  1  0  0  0  0  0  0  0  0  0
    0.9136   -1.3435   -0.6633 H   0  0  0  0  0  0  0  0  0  0  0  0
   -0.0103    0.5084   -1.2973 C   0  0  0  0  0  0  0  0  0  0  0  0
    0.4423    1.3681   -0.7885 H   0  0  0  0  0  0  0  0  0  0  0  0
    0.6379    0.3065   -2.1569 H   0  0  0  0  0  0  0  0  0  0  0  0
   -1.4025    0.8948   -1.8592 C   0  0  0  0  0  0  0  0  0  0  0  0
   -1.4849    0.5743   -2.9023 H   0  0  0  0  0  0  0  0  0  0  0  0
   -2.2156    0.4310   -1.2996 H   0  0  0  0  0  0  0  0  0  0  0  0
   -1.6427    2.3964   -1.7590 C   0  0  0  0  0  0  0  0  0  0  0  0
   -1.8963    3.0664   -2.7398 O   0  0  0  0  0  0  0  0  0  0  0  0
   -1.6588    3.0445   -0.5558 N   0  0  0  0  0  0  0  0  0  0  0  0
   -1.6807    4.0596   -0.6027 H   0  0  0  0  0  0  0  0  0  0  0  0
   -1.2500    2.5836    0.2520 H   0  0  0  0  0  0  0  0  0  0  0  0
    0.3569   -0.2238    1.0674 C   0  0  0  0  0  0  0  0  0  0  0  0
    1.5102    0.0334    1.3843 O   0  0  0  0  0  0  0  0  0  0  0  0
   -0.6766    0.2760    1.8409 N   0  0  0  0  0  0  0  0  0  0  0  0
   -1.5970   -0.0874    1.6127 H   0  0  0  0  0  0  0  0  0  0  0  0
   -0.4578    0.7908    3.1875 C   0  0  0  0  0  0  0  0  0  0  0  0
    0.2436    1.6317    3.1696 H   0  0  0  0  0  0  0  0  0  0  0  0
   -1.4016    1.1405    3.6167 H   0  0  0  0  0  0  0  0  0  0  0  0
   -0.0503    0.0068    3.8347 H   0  0  0  0  0  0  0  0  0  0  0  0
  1  2  1  0  0  0  0
  2  3  1  0  0  0  0
  2  4  1  0  0  0  0
  2  5  1  0  0  0  0
  5  6  2  0  0  0  0
  5  7  1  0  0  0  0
  7  8  1  0  0  0  0
  7  9  1  0  0  0  0
  9 10  1  0  0  0  0
  9 11  1  0  0  0  0
  9 22  1  0  0  0  0
 11 12  1  0  0  0  0
 11 13  1  0  0  0  0
 11 14  1  0  0  0  0
 14 15  1  0  0  0  0
 14 16  1  0  0  0  0
 14 17  1  0  0  0  0
 17 18  2  0  0  0  0
 17 19  1  0  0  0  0
 19 20  1  0  0  0  0
 19 21  1  0  0  0  0
 22 23  2  0  0  0  0
 22 24  1  0  0  0  0
 24 25  1  0  0  0  0
 24 26  1  0  0  0  0
 26 27  1  0  0  0  0
 26 28  1  0  0  0  0
 26 29  1  0  0  0  0
M  END
$$$$

  -OEChem-02102214123D

 29 28  0     1  0  0  0  0  0999 V2000
   -2.3915   -4.5840    0.6205 H   0  0  0  0  0  0  0  0  0  0  0  0
   -2.4372   -3.6990   -0.0207 C   0  0  0  0  0  0  0  0  0  0  0  0
   -3.3812   -3.1805    0.1633 H   0  0  0  0  0  0  0  0  0  0  0  0
   -2.4019   -4.0203   -1.0645 H   0  0  0  0  0  0  0  0  0  0  0  0
   -1.2697   -2.7773    0.2784 C   0  0  0  0  0  0  0  0  0  0  0  0
   -0.4585   -3.0848    1.1325 O   0  0  0  0  0  0  0  0  0  0  0  0
   -1.1438   -1.5857   -0.4105 N   0  0  0  0  0  0  0  0  0  0  0  0
   -1.7816   -1.4583   -1.1909 H   0  0  0  0  0  0  0  0  0  0  0  0
    0.0555   -0.7219   -0.3605 C   0  0  1  0  0  0  0  0  0  0  0  0
    0.9149   -1.3217   -0.6812 H   0  0  0  0  0  0  0  0  0  0  0  0
   -0.0505    0.5067   -1.3047 C   0  0  0  0  0  0  0  0  0  0  0  0
    0.3600    1.3845   -0.7915 H   0  0  0  0  0  0  0  0  0  0  0  0
    0.5995    0.3335   -2.1691 H   0  0  0  0  0  0  0  0  0  0  0  0
   -1.4658    0.8311   -1.8358 C   0  0  0  0  0  0  0  0  0  0  0  0
   -1.6646    0.2650   -2.7508 H   0  0  0  0  0  0  0  0  0  0  0  0
   -2.2279    0.5682   -1.0983 H   0  0  0  0  0  0  0  0  0  0  0  0
   -1.6333    2.3229   -2.0971 C   0  0  0  0  0  0  0  0  0  0  0  0
   -1.7865    2.7552   -3.2218 O   0  0  0  0  0  0  0  0  0  0  0  0
   -1.6636    3.2381   -1.0830 N   0  0  0  0  0  0  0  0  0  0  0  0
   -1.6224    4.2130   -1.3666 H   0  0  0  0  0  0  0  0  0  0  0  0
   -1.3365    2.9630   -0.1623 H   0  0  0  0  0  0  0  0  0  0  0  0
    0.3869   -0.2175    1.0637 C   0  0  0  0  0  0  0  0  0  0  0  0
    1.5461    0.0470    1.3521 O   0  0  0  0  0  0  0  0  0  0  0  0
   -0.6299    0.2644    1.8691 N   0  0  0  0  0  0  0  0  0  0  0  0
   -1.5557   -0.0942    1.6570 H   0  0  0  0  0  0  0  0  0  0  0  0
   -0.3821    0.7826    3.2091 C   0  0  0  0  0  0  0  0  0  0  0  0
    0.3351    1.6097    3.1763 H   0  0  0  0  0  0  0  0  0  0  0  0
   -1.3125    1.1535    3.6495 H   0  0  0  0  0  0  0  0  0  0  0  0
    0.0196   -0.0055    3.8547 H   0  0  0  0  0  0  0  0  0  0  0  0
  1  2  1  0  0  0  0
  2  3  1  0  0  0  0
  2  4  1  0  0  0  0
  2  5  1  0  0  0  0
  5  6  2  0  0  0  0
  5  7  1  0  0  0  0
  7  8  1  0  0  0  0
  7  9  1  0  0  0  0
  9 10  1  0  0  0  0
  9 11  1  0  0  0  0
  9 22  1  0  0  0  0
 11 12  1  0  0  0  0
 11 13  1  0  0  0  0
 11 14  1  0  0  0  0
 14 15  1  0  0  0  0
 14 16  1  0  0  0  0
 14 17  1  0  0  0  0
 17 18  2  0  0  0  0
 17 19  1  0  0  0  0
 19 20  1  0  0  0  0
 19 21  1  0  0  0  0
 22 23  2  0  0  0  0
 22 24  1  0  0  0  0
 24 25  1  0  0  0  0
 24 26  1  0  0  0  0
 26 27  1  0  0  0  0
 26 28  1  0  0  0  0
 26 29  1  0  0  0  0
M  END
$$$$

  -OEChem-02102214123D

 29 28  0     1  0  0  0  0  0999 V2000
   -2.5801   -4.4512    0.6544 H   0  0  0  0  0  0  0  0  0  0  0  0
   -2.5722   -3.5576    0.0234 C   0  0  0  0  0  0  0  0  0  0  0  0
   -3.4661   -2.9677    0.2393 H   0  0  0  0  0  0  0  0  0  0  0  0
   -2.5902   -3.8676   -1.0242 H   0  0  0  0  0  0  0  0  0  0  0  0
   -1.3271   -2.7361    0.2992 C   0  0  0  0  0  0  0  0  0  0  0  0
   -0.5019   -3.1396    1.0977 O   0  0  0  0  0  0  0  0  0  0  0  0
   -1.1471   -1.5307   -0.3525 N   0  0  0  0  0  0  0  0  0  0  0  0
   -1.8084   -1.3274   -1.0948 H   0  0  0  0  0  0  0  0  0  0  0  0
    0.1125   -0.7564   -0.3277 C   0  0  1  0  0  0  0  0  0  0  0  0
    0.9100   -1.4077   -0.7034 H   0  0  0  0  0  0  0  0  0  0  0  0
    0.0526    0.4926   -1.2476 C   0  0  0  0  0  0  0  0  0  0  0  0
    0.5217    1.3409   -0.7337 H   0  0  0  0  0  0  0  0  0  0  0  0
    0.6625    0.2974   -2.1368 H   0  0  0  0  0  0  0  0  0  0  0  0
   -1.3605    0.9087   -1.7146 C   0  0  0  0  0  0  0  0  0  0  0  0
   -1.7341    0.2102   -2.4681 H   0  0  0  0  0  0  0  0  0  0  0  0
   -2.0430    0.8977   -0.8604 H   0  0  0  0  0  0  0  0  0  0  0  0
   -1.3709    2.3205   -2.2957 C   0  0  0  0  0  0  0  0  0  0  0  0
   -0.4693    2.7394   -2.9947 O   0  0  0  0  0  0  0  0  0  0  0  0
   -2.4067    3.1840   -2.0796 N   0  0  0  0  0  0  0  0  0  0  0  0
   -2.3955    4.0466   -2.6172 H   0  0  0  0  0  0  0  0  0  0  0  0
   -3.2637    2.8514   -1.6521 H   0  0  0  0  0  0  0  0  0  0  0  0
    0.5491   -0.3280    1.0934 C   0  0  0  0  0  0  0  0  0  0  0  0
    1.7400   -0.2202    1.3529 O   0  0  0  0  0  0  0  0  0  0  0  0
   -0.3819    0.1973    1.9717 N   0  0  0  0  0  0  0  0  0  0  0  0
   -1.3504   -0.0277    1.7719 H   0  0  0  0  0  0  0  0  0  0  0  0
   -0.0305    0.6216    3.3212 C   0  0  0  0  0  0  0  0  0  0  0  0
    0.7217    1.4168    3.2898 H   0  0  0  0  0  0  0  0  0  0  0  0
   -0.9142    1.0048    3.8398 H   0  0  0  0  0  0  0  0  0  0  0  0
    0.3713   -0.2209    3.8941 H   0  0  0  0  0  0  0  0  0  0  0  0
  1  2  1  0  0  0  0
  2  3  1  0  0  0  0
  2  4  1  0  0  0  0
  2  5  1  0  0  0  0
  5  6  2  0  0  0  0
  5  7  1  0  0  0  0
  7  8  1  0  0  0  0
  7  9  1  0  0  0  0
  9 10  1  0  0  0  0
  9 11  1  0  0  0  0
  9 22  1  0  0  0  0
 11 12  1  0  0  0  0
 11 13  1  0  0  0  0
 11 14  1  0  0  0  0
 14 15  1  0  0  0  0
 14 16  1  0  0  0  0
 14 17  1  0  0  0  0
 17 18  2  0  0  0  0
 17 19  1  0  0  0  0
 19 20  1  0  0  0  0
 19 21  1  0  0  0  0
 22 23  2  0  0  0  0
 22 24  1  0  0  0  0
 24 25  1  0  0  0  0
 24 26  1  0  0  0  0
 26 27  1  0  0  0  0
 26 28  1  0  0  0  0
 26 29  1  0  0  0  0
M  END
$$$$

  -OEChem-02102214123D

 29 28  0     1  0  0  0  0  0999 V2000
   -2.2691   -4.6286    0.6526 H   0  0  0  0  0  0  0  0  0  0  0  0
   -2.3489   -3.7469    0.0100 C   0  0  0  0  0  0  0  0  0  0  0  0
   -3.3015   -3.2510    0.2108 H   0  0  0  0  0  0  0  0  0  0  0  0
   -2.3265   -4.0698   -1.0337 H   0  0  0  0  0  0  0  0  0  0  0  0
   -1.1981   -2.7967    0.2829 C   0  0  0  0  0  0  0  0  0  0  0  0
   -0.3292   -3.1090    1.0765 O   0  0  0  0  0  0  0  0  0  0  0  0
   -1.1481   -1.5790   -0.3683 N   0  0  0  0  0  0  0  0  0  0  0  0
   -1.8375   -1.4424   -1.1019 H   0  0  0  0  0  0  0  0  0  0  0  0
    0.0233   -0.6785   -0.3545 C   0  0  1  0  0  0  0  0  0  0  0  0
    0.8830   -1.2343   -0.7457 H   0  0  0  0  0  0  0  0  0  0  0  0
   -0.1898    0.5651   -1.2504 C   0  0  0  0  0  0  0  0  0  0  0  0
    0.4358    1.3901   -0.8890 H   0  0  0  0  0  0  0  0  0  0  0  0
    0.1672    0.3164   -2.2561 H   0  0  0  0  0  0  0  0  0  0  0  0
   -1.6528    1.0343   -1.3749 C   0  0  0  0  0  0  0  0  0  0  0  0
   -2.2779    0.2493   -1.8086 H   0  0  0  0  0  0  0  0  0  0  0  0
   -2.0529    1.2817   -0.3879 H   0  0  0  0  0  0  0  0  0  0  0  0
   -1.7495    2.2587   -2.2737 C   0  0  0  0  0  0  0  0  0  0  0  0
   -2.1138    2.1654   -3.4291 O   0  0  0  0  0  0  0  0  0  0  0  0
   -1.4210    3.5090   -1.8337 N   0  0  0  0  0  0  0  0  0  0  0  0
   -1.3548    4.2311   -2.5456 H   0  0  0  0  0  0  0  0  0  0  0  0
   -0.9259    3.6106   -0.9537 H   0  0  0  0  0  0  0  0  0  0  0  0
    0.4263   -0.2070    1.0625 C   0  0  0  0  0  0  0  0  0  0  0  0
    1.5949    0.0778    1.2888 O   0  0  0  0  0  0  0  0  0  0  0  0
   -0.5472    0.2178    1.9491 N   0  0  0  0  0  0  0  0  0  0  0  0
   -1.4793   -0.1453    1.7776 H   0  0  0  0  0  0  0  0  0  0  0  0
   -0.2279    0.6979    3.2880 C   0  0  0  0  0  0  0  0  0  0  0  0
    0.4168    1.5814    3.2361 H   0  0  0  0  0  0  0  0  0  0  0  0
   -1.1435    0.9723    3.8202 H   0  0  0  0  0  0  0  0  0  0  0  0
    0.2876   -0.0807    3.8602 H   0  0  0  0  0  0  0  0  0  0  0  0
  1  2  1  0  0  0  0
  2  3  1  0  0  0  0
  2  4  1  0  0  0  0
  2  5  1  0  0  0  0
  5  6  2  0  0  0  0
  5  7  1  0  0  0  0
  7  8  1  0  0  0  0
  7  9  1  0  0  0  0
  9 10  1  0  0  0  0
  9 11  1  0  0  0  0
  9 22  1  0  0  0  0
 11 12  1  0  0  0  0
 11 13  1  0  0  0  0
 11 14  1  0  0  0  0
 14 15  1  0  0  0  0
 14 16  1  0  0  0  0
 14 17  1  0  0  0  0
 17 18  2  0  0  0  0
 17 19  1  0  0  0  0
 19 20  1  0  0  0  0
 19 21  1  0  0  0  0
 22 23  2  0  0  0  0
 22 24  1  0  0  0  0
 24 25  1  0  0  0  0
 24 26  1  0  0  0  0
 26 27  1  0  0  0  0
 26 28  1  0  0  0  0
 26 29  1  0  0  0  0
M  END
$$$$

  -OEChem-02102214123D

 29 28  0     1  0  0  0  0  0999 V2000
   -2.1861   -4.6876    0.6624 H   0  0  0  0  0  0  0  0  0  0  0  0
   -2.3257   -3.7806    0.0672 C   0  0  0  0  0  0  0  0  0  0  0  0
   -3.2712   -3.3140    0.3542 H   0  0  0  0  0  0  0  0  0  0  0  0
   -2.3688   -4.0576   -0.9889 H   0  0  0  0  0  0  0  0  0  0  0  0
   -1.1764   -2.8188    0.3043 C   0  0  0  0  0  0  0  0  0  0  0  0
   -0.2778   -3.1255    1.0666 O   0  0  0  0  0  0  0  0  0  0  0  0
   -1.1636   -1.5967   -0.3410 N   0  0  0  0  0  0  0  0  0  0  0  0
   -1.8714   -1.4717   -1.0593 H   0  0  0  0  0  0  0  0  0  0  0  0
   -0.0016   -0.6842   -0.3621 C   0  0  1  0  0  0  0  0  0  0  0  0
    0.8498   -1.2294   -0.7855 H   0  0  0  0  0  0  0  0  0  0  0  0
   -0.2469    0.5728   -1.2334 C   0  0  0  0  0  0  0  0  0  0  0  0
    0.3975    1.3941   -0.8986 H   0  0  0  0  0  0  0  0  0  0  0  0
    0.0747    0.3174   -2.2496 H   0  0  0  0  0  0  0  0  0  0  0  0
   -1.7087    1.0622   -1.3191 C   0  0  0  0  0  0  0  0  0  0  0  0
   -2.3982    0.2371   -1.5091 H   0  0  0  0  0  0  0  0  0  0  0  0
   -2.0015    1.5337   -0.3769 H   0  0  0  0  0  0  0  0  0  0  0  0
   -1.8747    2.0490   -2.4663 C   0  0  0  0  0  0  0  0  0  0  0  0
   -2.2666    1.6856   -3.5577 O   0  0  0  0  0  0  0  0  0  0  0  0
   -1.5594    3.3714   -2.3379 N   0  0  0  0  0  0  0  0  0  0  0  0
   -1.5320    3.9109   -3.1986 H   0  0  0  0  0  0  0  0  0  0  0  0
   -1.0372    3.6791   -1.5241 H   0  0  0  0  0  0  0  0  0  0  0  0
    0.4415   -0.2207    1.0453 C   0  0  0  0  0  0  0  0  0  0  0  0
    1.6155    0.0649    1.2415 O   0  0  0  0  0  0  0  0  0  0  0  0
   -0.5078    0.1861    1.9657 N   0  0  0  0  0  0  0  0  0  0  0  0
   -1.4453   -0.1709    1.8115 H   0  0  0  0  0  0  0  0  0  0  0  0
   -0.1525    0.6460    3.3025 C   0  0  0  0  0  0  0  0  0  0  0  0
    0.4842    1.5352    3.2463 H   0  0  0  0  0  0  0  0  0  0  0  0
   -1.0541    0.9040    3.8662 H   0  0  0  0  0  0  0  0  0  0  0  0
    0.3852   -0.1382    3.8460 H   0  0  0  0  0  0  0  0  0  0  0  0
  1  2  1  0  0  0  0
  2  3  1  0  0  0  0
  2  4  1  0  0  0  0
  2  5  1  0  0  0  0
  5  6  2  0  0  0  0
  5  7  1  0  0  0  0
  7  8  1  0  0  0  0
  7  9  1  0  0  0  0
  9 10  1  0  0  0  0
  9 11  1  0  0  0  0
  9 22  1  0  0  0  0
 11 12  1  0  0  0  0
 11 13  1  0  0  0  0
 11 14  1  0  0  0  0
 14 15  1  0  0  0  0
 14 16  1  0  0  0  0
 14 17  1  0  0  0  0
 17 18  2  0  0  0  0
 17 19  1  0  0  0  0
 19 20  1  0  0  0  0
 19 21  1  0  0  0  0
 22 23  2  0  0  0  0
 22 24  1  0  0  0  0
 24 25  1  0  0  0  0
 24 26  1  0  0  0  0
 26 27  1  0  0  0  0
 26 28  1  0  0  0  0
 26 29  1  0  0  0  0
M  END
$$$$

  -OEChem-02102214123D

 29 28  0     1  0  0  0  0  0999 V2000
   -2.1596   -4.7093    0.6776 H   0  0  0  0  0  0  0  0  0  0  0  0
   -2.3156   -3.7978    0.0934 C   0  0  0  0  0  0  0  0  0  0  0  0
   -3.2564   -3.3377    0.4046 H   0  0  0  0  0  0  0  0  0  0  0  0
   -2.3804   -4.0657   -0.9639 H   0  0  0  0  0  0  0  0  0  0  0  0
   -1.1664   -2.8326    0.3145 C   0  0  0  0  0  0  0  0  0  0  0  0
   -0.2494   -3.1424    1.0533 O   0  0  0  0  0  0  0  0  0  0  0  0
   -1.1761   -1.6028   -0.3159 N   0  0  0  0  0  0  0  0  0  0  0  0
   -1.8958   -1.4798   -1.0236 H   0  0  0  0  0  0  0  0  0  0  0  0
   -0.0180   -0.6863   -0.3598 C   0  0  1  0  0  0  0  0  0  0  0  0
    0.8215   -1.2248   -0.8142 H   0  0  0  0  0  0  0  0  0  0  0  0
   -0.2872    0.5843   -1.2053 C   0  0  0  0  0  0  0  0  0  0  0  0
    0.3748    1.3991   -0.8893 H   0  0  0  0  0  0  0  0  0  0  0  0
    0.0072    0.3273   -2.2293 H   0  0  0  0  0  0  0  0  0  0  0  0
   -1.7478    1.0947   -1.2558 C   0  0  0  0  0  0  0  0  0  0  0  0
   -2.4747    0.2859   -1.1722 H   0  0  0  0  0  0  0  0  0  0  0  0
   -1.9275    1.7787   -0.4218 H   0  0  0  0  0  0  0  0  0  0  0  0
   -2.0295    1.7962   -2.5765 C   0  0  0  0  0  0  0  0  0  0  0  0
   -2.4656    1.1826   -3.5308 O   0  0  0  0  0  0  0  0  0  0  0  0
   -1.7575    3.1203   -2.7684 N   0  0  0  0  0  0  0  0  0  0  0  0
   -1.8024    3.4536   -3.7275 H   0  0  0  0  0  0  0  0  0  0  0  0
   -1.2043    3.6179   -2.0784 H   0  0  0  0  0  0  0  0  0  0  0  0
    0.4644   -0.2387    1.0394 C   0  0  0  0  0  0  0  0  0  0  0  0
    1.6438    0.0443    1.2055 O   0  0  0  0  0  0  0  0  0  0  0  0
   -0.4588    0.1535    1.9920 N   0  0  0  0  0  0  0  0  0  0  0  0
   -1.4002   -0.2016    1.8584 H   0  0  0  0  0  0  0  0  0  0  0  0
   -0.0657    0.5950    3.3243 C   0  0  0  0  0  0  0  0  0  0  0  0
    0.5699    1.4846    3.2623 H   0  0  0  0  0  0  0  0  0  0  0  0
   -0.9509    0.8457    3.9163 H   0  0  0  0  0  0  0  0  0  0  0  0
    0.4865   -0.1967    3.8418 H   0  0  0  0  0  0  0  0  0  0  0  0
  1  2  1  0  0  0  0
  2  3  1  0  0  0  0
  2  4  1  0  0  0  0
  2  5  1  0  0  0  0
  5  6  2  0  0  0  0
  5  7  1  0  0  0  0
  7  8  1  0  0  0  0
  7  9  1  0  0  0  0
  9 10  1  0  0  0  0
  9 11  1  0  0  0  0
  9 22  1  0  0  0  0
 11 12  1  0  0  0  0
 11 13  1  0  0  0  0
 11 14  1  0  0  0  0
 14 15  1  0  0  0  0
 14 16  1  0  0  0  0
 14 17  1  0  0  0  0
 17 18  2  0  0  0  0
 17 19  1  0  0  0  0
 19 20  1  0  0  0  0
 19 21  1  0  0  0  0
 22 23  2  0  0  0  0
 22 24  1  0  0  0  0
 24 25  1  0  0  0  0
 24 26  1  0  0  0  0
 26 27  1  0  0  0  0
 26 28  1  0  0  0  0
 26 29  1  0  0  0  0
M  END
$$$$

  -OEChem-02102214123D

 29 28  0     1  0  0  0  0  0999 V2000
   -2.2049   -4.6903    0.6787 H   0  0  0  0  0  0  0  0  0  0  0  0
   -2.3433   -3.7759    0.0947 C   0  0  0  0  0  0  0  0  0  0  0  0
   -3.2763   -3.2989    0.4038 H   0  0  0  0  0  0  0  0  0  0  0  0
   -2.4104   -4.0420   -0.9633 H   0  0  0  0  0  0  0  0  0  0  0  0
   -1.1775   -2.8313    0.3188 C   0  0  0  0  0  0  0  0  0  0  0  0
   -0.2592   -3.1634    1.0467 O   0  0  0  0  0  0  0  0  0  0  0  0
   -1.1733   -1.5954   -0.2987 N   0  0  0  0  0  0  0  0  0  0  0  0
   -1.8971   -1.4541   -1.0002 H   0  0  0  0  0  0  0  0  0  0  0  0
   -0.0012   -0.6977   -0.3505 C   0  0  1  0  0  0  0  0  0  0  0  0
    0.8231   -1.2423   -0.8250 H   0  0  0  0  0  0  0  0  0  0  0  0
   -0.2741    0.5830   -1.1788 C   0  0  0  0  0  0  0  0  0  0  0  0
    0.4006    1.3871   -0.8623 H   0  0  0  0  0  0  0  0  0  0  0  0
    0.0086    0.3367   -2.2090 H   0  0  0  0  0  0  0  0  0  0  0  0
   -1.7313    1.1144   -1.1979 C   0  0  0  0  0  0  0  0  0  0  0  0
   -2.4555    0.3934   -0.8174 H   0  0  0  0  0  0  0  0  0  0  0  0
   -1.7981    1.9925   -0.5498 H   0  0  0  0  0  0  0  0  0  0  0  0
   -2.1592    1.4947   -2.6073 C   0  0  0  0  0  0  0  0  0  0  0  0
   -2.7097    0.6838   -3.3267 O   0  0  0  0  0  0  0  0  0  0  0  0
   -1.9091    2.7270   -3.1397 N   0  0  0  0  0  0  0  0  0  0  0  0
   -2.3247    2.9292   -4.0448 H   0  0  0  0  0  0  0  0  0  0  0  0
   -1.5754    3.4765   -2.5428 H   0  0  0  0  0  0  0  0  0  0  0  0
    0.5103   -0.2702    1.0447 C   0  0  0  0  0  0  0  0  0  0  0  0
    1.6975   -0.0137    1.1977 O   0  0  0  0  0  0  0  0  0  0  0  0
   -0.3919    0.1289    2.0144 N   0  0  0  0  0  0  0  0  0  0  0  0
   -1.3420   -0.2051    1.8890 H   0  0  0  0  0  0  0  0  0  0  0  0
    0.0267    0.5460    3.3467 C   0  0  0  0  0  0  0  0  0  0  0  0
    0.6916    1.4140    3.2865 H   0  0  0  0  0  0  0  0  0  0  0  0
   -0.8446    0.8219    3.9481 H   0  0  0  0  0  0  0  0  0  0  0  0
    0.5554   -0.2685    3.8530 H   0  0  0  0  0  0  0  0  0  0  0  0
  1  2  1  0  0  0  0
  2  3  1  0  0  0  0
  2  4  1  0  0  0  0
  2  5  1  0  0  0  0
  5  6  2  0  0  0  0
  5  7  1  0  0  0  0
  7  8  1  0  0  0  0
  7  9  1  0  0  0  0
  9 10  1  0  0  0  0
  9 11  1  0  0  0  0
  9 22  1  0  0  0  0
 11 12  1  0  0  0  0
 11 13  1  0  0  0  0
 11 14  1  0  0  0  0
 14 15  1  0  0  0  0
 14 16  1  0  0  0  0
 14 17  1  0  0  0  0
 17 18  2  0  0  0  0
 17 19  1  0  0  0  0
 19 20  1  0  0  0  0
 19 21  1  0  0  0  0
 22 23  2  0  0  0  0
 22 24  1  0  0  0  0
 24 25  1  0  0  0  0
 24 26  1  0  0  0  0
 26 27  1  0  0  0  0
 26 28  1  0  0  0  0
 26 29  1  0  0  0  0
M  END
$$$$

  -OEChem-02102214123D

 29 28  0     1  0  0  0  0  0999 V2000
   -2.3234   -4.6085    0.6929 H   0  0  0  0  0  0  0  0  0  0  0  0
   -2.4061   -3.7092    0.0760 C   0  0  0  0  0  0  0  0  0  0  0  0
   -3.3309   -3.1883    0.3354 H   0  0  0  0  0  0  0  0  0  0  0  0
   -2.4456   -4.0057   -0.9750 H   0  0  0  0  0  0  0  0  0  0  0  0
   -1.2137   -2.8016    0.3122 C   0  0  0  0  0  0  0  0  0  0  0  0
   -0.3087   -3.1658    1.0417 O   0  0  0  0  0  0  0  0  0  0  0  0
   -1.1740   -1.5600   -0.2911 N   0  0  0  0  0  0  0  0  0  0  0  0
   -1.8902   -1.3951   -0.9980 H   0  0  0  0  0  0  0  0  0  0  0  0
    0.0254   -0.6986   -0.3441 C   0  0  1  0  0  0  0  0  0  0  0  0
    0.8290   -1.2571   -0.8376 H   0  0  0  0  0  0  0  0  0  0  0  0
   -0.2427    0.5909   -1.1585 C   0  0  0  0  0  0  0  0  0  0  0  0
    0.4370    1.3827   -0.8226 H   0  0  0  0  0  0  0  0  0  0  0  0
    0.0324    0.3760   -2.1974 H   0  0  0  0  0  0  0  0  0  0  0  0
   -1.6987    1.1247   -1.1287 C   0  0  0  0  0  0  0  0  0  0  0  0
   -2.3554    0.5556   -0.4685 H   0  0  0  0  0  0  0  0  0  0  0  0
   -1.6837    2.1429   -0.7305 H   0  0  0  0  0  0  0  0  0  0  0  0
   -2.3023    1.1680   -2.5224 C   0  0  0  0  0  0  0  0  0  0  0  0
   -2.8049    0.1656   -2.9941 O   0  0  0  0  0  0  0  0  0  0  0  0
   -2.2634    2.2813   -3.3121 N   0  0  0  0  0  0  0  0  0  0  0  0
   -2.7887    2.2458   -4.1814 H   0  0  0  0  0  0  0  0  0  0  0  0
   -1.9754    3.1704   -2.9167 H   0  0  0  0  0  0  0  0  0  0  0  0
    0.5638   -0.3018    1.0500 C   0  0  0  0  0  0  0  0  0  0  0  0
    1.7601   -0.0844    1.1936 O   0  0  0  0  0  0  0  0  0  0  0  0
   -0.3165    0.1149    2.0323 N   0  0  0  0  0  0  0  0  0  0  0  0
   -1.2756   -0.1959    1.9149 H   0  0  0  0  0  0  0  0  0  0  0  0
    0.1276    0.5046    3.3646 C   0  0  0  0  0  0  0  0  0  0  0  0
    0.8088    1.3601    3.3079 H   0  0  0  0  0  0  0  0  0  0  0  0
   -0.7303    0.7888    3.9812 H   0  0  0  0  0  0  0  0  0  0  0  0
    0.6468   -0.3273    3.8522 H   0  0  0  0  0  0  0  0  0  0  0  0
  1  2  1  0  0  0  0
  2  3  1  0  0  0  0
  2  4  1  0  0  0  0
  2  5  1  0  0  0  0
  5  6  2  0  0  0  0
  5  7  1  0  0  0  0
  7  8  1  0  0  0  0
  7  9  1  0  0  0  0
  9 10  1  0  0  0  0
  9 11  1  0  0  0  0
  9 22  1  0  0  0  0
 11 12  1  0  0  0  0
 11 13  1  0  0  0  0
 11 14  1  0  0  0  0
 14 15  1  0  0  0  0
 14 16  1  0  0  0  0
 14 17  1  0  0  0  0
 17 18  2  0  0  0  0
 17 19  1  0  0  0  0
 19 20  1  0  0  0  0
 19 21  1  0  0  0  0
 22 23  2  0  0  0  0
 22 24  1  0  0  0  0
 24 25  1  0  0  0  0
 24 26  1  0  0  0  0
 26 27  1  0  0  0  0
 26 28  1  0  0  0  0
 26 29  1  0  0  0  0
M  END
$$$$

  -OEChem-02102214123D

 29 28  0     1  0  0  0  0  0999 V2000
   -2.3982   -4.5564    0.6366 H   0  0  0  0  0  0  0  0  0  0  0  0
   -2.4613   -3.6414    0.0412 C   0  0  0  0  0  0  0  0  0  0  0  0
   -3.3721   -3.1041    0.3157 H   0  0  0  0  0  0  0  0  0  0  0  0
   -2.5115   -3.9111   -1.0167 H   0  0  0  0  0  0  0  0  0  0  0  0
   -1.2471   -2.7680    0.2943 C   0  0  0  0  0  0  0  0  0  0  0  0
   -0.3519   -3.1651    1.0195 O   0  0  0  0  0  0  0  0  0  0  0  0
   -1.1758   -1.5192   -0.2888 N   0  0  0  0  0  0  0  0  0  0  0  0
   -1.8904   -1.3274   -0.9958 H   0  0  0  0  0  0  0  0  0  0  0  0
    0.0457   -0.6876   -0.3340 C   0  0  1  0  0  0  0  0  0  0  0  0
    0.8322   -1.2561   -0.8429 H   0  0  0  0  0  0  0  0  0  0  0  0
   -0.2116    0.6131   -1.1328 C   0  0  0  0  0  0  0  0  0  0  0  0
    0.4686    1.3933   -0.7717 H   0  0  0  0  0  0  0  0  0  0  0  0
    0.0578    0.4311   -2.1791 H   0  0  0  0  0  0  0  0  0  0  0  0
   -1.6654    1.1398   -1.0640 C   0  0  0  0  0  0  0  0  0  0  0  0
   -2.2173    0.7437   -0.2077 H   0  0  0  0  0  0  0  0  0  0  0  0
   -1.6308    2.2243   -0.9290 H   0  0  0  0  0  0  0  0  0  0  0  0
   -2.4138    0.8573   -2.3557 C   0  0  0  0  0  0  0  0  0  0  0  0
   -2.8458   -0.2632   -2.5603 O   0  0  0  0  0  0  0  0  0  0  0  0
   -2.5798    1.7880   -3.3412 N   0  0  0  0  0  0  0  0  0  0  0  0
   -3.1869    1.5337   -4.1156 H   0  0  0  0  0  0  0  0  0  0  0  0
   -2.3542    2.7605   -3.1586 H   0  0  0  0  0  0  0  0  0  0  0  0
    0.6031   -0.3242    1.0612 C   0  0  0  0  0  0  0  0  0  0  0  0
    1.8045   -0.1313    1.1970 O   0  0  0  0  0  0  0  0  0  0  0  0
   -0.2612    0.1007    2.0538 N   0  0  0  0  0  0  0  0  0  0  0  0
   -1.2260   -0.1947    1.9427 H   0  0  0  0  0  0  0  0  0  0  0  0
    0.2000    0.4783    3.3835 C   0  0  0  0  0  0  0  0  0  0  0  0
    0.9025    1.3161    3.3230 H   0  0  0  0  0  0  0  0  0  0  0  0
   -0.6470    0.7844    4.0046 H   0  0  0  0  0  0  0  0  0  0  0  0
    0.7003   -0.3668    3.8681 H   0  0  0  0  0  0  0  0  0  0  0  0
  1  2  1  0  0  0  0
  2  3  1  0  0  0  0
  2  4  1  0  0  0  0
  2  5  1  0  0  0  0
  5  6  2  0  0  0  0
  5  7  1  0  0  0  0
  7  8  1  0  0  0  0
  7  9  1  0  0  0  0
  9 10  1  0  0  0  0
  9 11  1  0  0  0  0
  9 22  1  0  0  0  0
 11 12  1  0  0  0  0
 11 13  1  0  0  0  0
 11 14  1  0  0  0  0
 14 15  1  0  0  0  0
 14 16  1  0  0  0  0
 14 17  1  0  0  0  0
 17 18  2  0  0  0  0
 17 19  1  0  0  0  0
 19 20  1  0  0  0  0
 19 21  1  0  0  0  0
 22 23  2  0  0  0  0
 22 24  1  0  0  0  0
 24 25  1  0  0  0  0
 24 26  1  0  0  0  0
 26 27  1  0  0  0  0
 26 28  1  0  0  0  0
 26 29  1  0  0  0  0
M  END
$$$$

  -OEChem-02102214123D

 29 28  0     1  0  0  0  0  0999 V2000
   -2.3825   -4.5555    0.6513 H   0  0  0  0  0  0  0  0  0  0  0  0
   -2.4776   -3.6207    0.0918 C   0  0  0  0  0  0  0  0  0  0  0  0
   -3.3577   -3.0820    0.4511 H   0  0  0  0  0  0  0  0  0  0  0  0
   -2.6122   -3.8544   -0.9673 H   0  0  0  0  0  0  0  0  0  0  0  0
   -1.2361   -2.7696    0.2785 C   0  0  0  0  0  0  0  0  0  0  0  0
   -0.2894   -3.2008    0.9132 O   0  0  0  0  0  0  0  0  0  0  0  0
   -1.1933   -1.5043   -0.2694 N   0  0  0  0  0  0  0  0  0  0  0  0
   -1.9820   -1.2632   -0.8748 H   0  0  0  0  0  0  0  0  0  0  0  0
    0.0127   -0.6549   -0.3352 C   0  0  1  0  0  0  0  0  0  0  0  0
    0.7876   -1.2139   -0.8720 H   0  0  0  0  0  0  0  0  0  0  0  0
   -0.2435    0.6643   -1.1086 C   0  0  0  0  0  0  0  0  0  0  0  0
    0.4463    1.4303   -0.7352 H   0  0  0  0  0  0  0  0  0  0  0  0
    0.0148    0.5031   -2.1610 H   0  0  0  0  0  0  0  0  0  0  0  0
   -1.6856    1.2137   -1.0285 C   0  0  0  0  0  0  0  0  0  0  0  0
   -2.1327    0.9931   -0.0549 H   0  0  0  0  0  0  0  0  0  0  0  0
   -1.6506    2.3025   -1.1223 H   0  0  0  0  0  0  0  0  0  0  0  0
   -2.5743    0.6775   -2.1449 C   0  0  0  0  0  0  0  0  0  0  0  0
   -3.1735   -0.3753   -2.0184 O   0  0  0  0  0  0  0  0  0  0  0  0
   -2.6978    1.3104   -3.3483 N   0  0  0  0  0  0  0  0  0  0  0  0
   -3.4016    0.9474   -3.9854 H   0  0  0  0  0  0  0  0  0  0  0  0
   -2.3425    2.2548   -3.4567 H   0  0  0  0  0  0  0  0  0  0  0  0
    0.6091   -0.3260    1.0527 C   0  0  0  0  0  0  0  0  0  0  0  0
    1.8118   -0.1207    1.1568 O   0  0  0  0  0  0  0  0  0  0  0  0
   -0.2272    0.0563    2.0859 N   0  0  0  0  0  0  0  0  0  0  0  0
   -1.1946   -0.2374    1.9931 H   0  0  0  0  0  0  0  0  0  0  0  0
    0.2722    0.3951    3.4125 C   0  0  0  0  0  0  0  0  0  0  0  0
    0.9473    1.2559    3.3604 H   0  0  0  0  0  0  0  0  0  0  0  0
   -0.5596    0.6501    4.0759 H   0  0  0  0  0  0  0  0  0  0  0  0
    0.8149   -0.4525    3.8445 H   0  0  0  0  0  0  0  0  0  0  0  0
  1  2  1  0  0  0  0
  2  3  1  0  0  0  0
  2  4  1  0  0  0  0
  2  5  1  0  0  0  0
  5  6  2  0  0  0  0
  5  7  1  0  0  0  0
  7  8  1  0  0  0  0
  7  9  1  0  0  0  0
  9 10  1  0  0  0  0
  9 11  1  0  0  0  0
  9 22  1  0  0  0  0
 11 12  1  0  0  0  0
 11 13  1  0  0  0  0
 11 14  1  0  0  0  0
 14 15  1  0  0  0  0
 14 16  1  0  0  0  0
 14 17  1  0  0  0  0
 17 18  2  0  0  0  0
 17 19  1  0  0  0  0
 19 20  1  0  0  0  0
 19 21  1  0  0  0  0
 22 23  2  0  0  0  0
 22 24  1  0  0  0  0
 24 25  1  0  0  0  0
 24 26  1  0  0  0  0
 26 27  1  0  0  0  0
 26 28  1  0  0  0  0
 26 29  1  0  0  0  0
M  END
$$$$

  -OEChem-02102214123D

 29 28  0     1  0  0  0  0  0999 V2000
   -2.4846   -4.5587    0.6106 H   0  0  0  0  0  0  0  0  0  0  0  0
   -2.5222   -3.6209    0.0493 C   0  0  0  0  0  0  0  0  0  0  0  0
   -3.4454   -3.0939    0.3012 H   0  0  0  0  0  0  0  0  0  0  0  0
   -2.5227   -3.8499   -1.0193 H   0  0  0  0  0  0  0  0  0  0  0  0
   -1.3233   -2.7572    0.3914 C   0  0  0  0  0  0  0  0  0  0  0  0
   -0.5326   -3.1255    1.2423 O   0  0  0  0  0  0  0  0  0  0  0  0
   -1.1562   -1.5500   -0.2565 N   0  0  0  0  0  0  0  0  0  0  0  0
   -1.7549   -1.4365   -1.0776 H   0  0  0  0  0  0  0  0  0  0  0  0
    0.1109   -0.7969   -0.2844 C   0  0  1  0  0  0  0  0  0  0  0  0
    0.8817   -1.4478   -0.7118 H   0  0  0  0  0  0  0  0  0  0  0  0
    0.0246    0.4854   -1.1580 C   0  0  0  0  0  0  0  0  0  0  0  0
    0.7608    1.2111   -0.7935 H   0  0  0  0  0  0  0  0  0  0  0  0
    0.3352    0.2156   -2.1734 H   0  0  0  0  0  0  0  0  0  0  0  0
   -1.3522    1.1906   -1.2608 C   0  0  0  0  0  0  0  0  0  0  0  0
   -1.7675    1.3074   -0.2562 H   0  0  0  0  0  0  0  0  0  0  0  0
   -1.1820    2.1935   -1.6618 H   0  0  0  0  0  0  0  0  0  0  0  0
   -2.4070    0.5265   -2.1476 C   0  0  0  0  0  0  0  0  0  0  0  0
   -2.2805   -0.5800   -2.6405 O   0  0  0  0  0  0  0  0  0  0  0  0
   -3.5925    1.1474   -2.4140 N   0  0  0  0  0  0  0  0  0  0  0  0
   -4.1625    0.7266   -3.1427 H   0  0  0  0  0  0  0  0  0  0  0  0
   -3.6893    2.1346   -2.1999 H   0  0  0  0  0  0  0  0  0  0  0  0
    0.6162   -0.3917    1.1202 C   0  0  0  0  0  0  0  0  0  0  0  0
    1.8187   -0.2636    1.3139 O   0  0  0  0  0  0  0  0  0  0  0  0
   -0.2714    0.1354    2.0410 N   0  0  0  0  0  0  0  0  0  0  0  0
   -1.2423   -0.1242    1.8968 H   0  0  0  0  0  0  0  0  0  0  0  0
    0.1438    0.5492    3.3751 C   0  0  0  0  0  0  0  0  0  0  0  0
    0.9037    1.3354    3.3141 H   0  0  0  0  0  0  0  0  0  0  0  0
   -0.7119    0.9414    3.9325 H   0  0  0  0  0  0  0  0  0  0  0  0
    0.5596   -0.3008    3.9266 H   0  0  0  0  0  0  0  0  0  0  0  0
  1  2  1  0  0  0  0
  2  3  1  0  0  0  0
  2  4  1  0  0  0  0
  2  5  1  0  0  0  0
  5  6  2  0  0  0  0
  5  7  1  0  0  0  0
  7  8  1  0  0  0  0
  7  9  1  0  0  0  0
  9 10  1  0  0  0  0
  9 11  1  0  0  0  0
  9 22  1  0  0  0  0
 11 12  1  0  0  0  0
 11 13  1  0  0  0  0
 11 14  1  0  0  0  0
 14 15  1  0  0  0  0
 14 16  1  0  0  0  0
 14 17  1  0  0  0  0
 17 18  2  0  0  0  0
 17 19  1  0  0  0  0
 19 20  1  0  0  0  0
 19 21  1  0  0  0  0
 22 23  2  0  0  0  0
 22 24  1  0  0  0  0
 24 25  1  0  0  0  0
 24 26  1  0  0  0  0
 26 27  1  0  0  0  0
 26 28  1  0  0  0  0
 26 29  1  0  0  0  0
M  END
$$$$

  -OEChem-02102214123D

 29 28  0     1  0  0  0  0  0999 V2000
   -2.4770   -4.5733    0.6358 H   0  0  0  0  0  0  0  0  0  0  0  0
   -2.5135   -3.6403    0.0663 C   0  0  0  0  0  0  0  0  0  0  0  0
   -3.4382   -3.1123    0.3110 H   0  0  0  0  0  0  0  0  0  0  0  0
   -2.5106   -3.8783   -1.0003 H   0  0  0  0  0  0  0  0  0  0  0  0
   -1.3162   -2.7730    0.4048 C   0  0  0  0  0  0  0  0  0  0  0  0
   -0.5339   -3.1292    1.2684 O   0  0  0  0  0  0  0  0  0  0  0  0
   -1.1409   -1.5769   -0.2617 N   0  0  0  0  0  0  0  0  0  0  0  0
   -1.7313   -1.4785   -1.0904 H   0  0  0  0  0  0  0  0  0  0  0  0
    0.1240   -0.8199   -0.2839 C   0  0  1  0  0  0  0  0  0  0  0  0
    0.9026   -1.4801   -0.6822 H   0  0  0  0  0  0  0  0  0  0  0  0
    0.0777    0.4569   -1.1734 C   0  0  0  0  0  0  0  0  0  0  0  0
    0.8316    1.1682   -0.8163 H   0  0  0  0  0  0  0  0  0  0  0  0
    0.3960    0.1502   -2.1755 H   0  0  0  0  0  0  0  0  0  0  0  0
   -1.2656    1.2144   -1.3479 C   0  0  0  0  0  0  0  0  0  0  0  0
   -1.5775    1.5694   -0.3618 H   0  0  0  0  0  0  0  0  0  0  0  0
   -1.0800    2.0952   -1.9686 H   0  0  0  0  0  0  0  0  0  0  0  0
   -2.4456    0.4650   -1.9651 C   0  0  0  0  0  0  0  0  0  0  0  0
   -2.3305   -0.5705   -2.5959 O   0  0  0  0  0  0  0  0  0  0  0  0
   -3.7242    0.9206   -1.8239 N   0  0  0  0  0  0  0  0  0  0  0  0
   -4.4197    0.4782   -2.4186 H   0  0  0  0  0  0  0  0  0  0  0  0
   -3.8692    1.8708   -1.4979 H   0  0  0  0  0  0  0  0  0  0  0  0
    0.5980   -0.3922    1.1250 C   0  0  0  0  0  0  0  0  0  0  0  0
    1.7955   -0.2573    1.3430 O   0  0  0  0  0  0  0  0  0  0  0  0
   -0.3110    0.1447    2.0188 N   0  0  0  0  0  0  0  0  0  0  0  0
   -1.2769   -0.1241    1.8589 H   0  0  0  0  0  0  0  0  0  0  0  0
    0.0747    0.5752    3.3567 C   0  0  0  0  0  0  0  0  0  0  0  0
    0.8299    1.3666    3.3032 H   0  0  0  0  0  0  0  0  0  0  0  0
   -0.7949    0.9662    3.8932 H   0  0  0  0  0  0  0  0  0  0  0  0
    0.4858   -0.2662    3.9247 H   0  0  0  0  0  0  0  0  0  0  0  0
  1  2  1  0  0  0  0
  2  3  1  0  0  0  0
  2  4  1  0  0  0  0
  2  5  1  0  0  0  0
  5  6  2  0  0  0  0
  5  7  1  0  0  0  0
  7  8  1  0  0  0  0
  7  9  1  0  0  0  0
  9 10  1  0  0  0  0
  9 11  1  0  0  0  0
  9 22  1  0  0  0  0
 11 12  1  0  0  0  0
 11 13  1  0  0  0  0
 11 14  1  0  0  0  0
 14 15  1  0  0  0  0
 14 16  1  0  0  0  0
 14 17  1  0  0  0  0
 17 18  2  0  0  0  0
 17 19  1  0  0  0  0
 19 20  1  0  0  0  0
 19 21  1  0  0  0  0
 22 23  2  0  0  0  0
 22 24  1  0  0  0  0
 24 25  1  0  0  0  0
 24 26  1  0  0  0  0
 26 27  1  0  0  0  0
 26 28  1  0  0  0  0
 26 29  1  0  0  0  0
M  END
$$$$

  -OEChem-02102214123D

 29 28  0     1  0  0  0  0  0999 V2000
   -2.4175   -4.6124    0.6763 H   0  0  0  0  0  0  0  0  0  0  0  0
   -2.4859   -3.6713    0.1234 C   0  0  0  0  0  0  0  0  0  0  0  0
   -3.4019   -3.1534    0.4171 H   0  0  0  0  0  0  0  0  0  0  0  0
   -2.5297   -3.8938   -0.9458 H   0  0  0  0  0  0  0  0  0  0  0  0
   -1.2807   -2.8000    0.4224 C   0  0  0  0  0  0  0  0  0  0  0  0
   -0.4797   -3.1438    1.2738 O   0  0  0  0  0  0  0  0  0  0  0  0
   -1.1172   -1.6148   -0.2664 N   0  0  0  0  0  0  0  0  0  0  0  0
   -1.7322   -1.5160   -1.0775 H   0  0  0  0  0  0  0  0  0  0  0  0
    0.1340   -0.8359   -0.2970 C   0  0  1  0  0  0  0  0  0  0  0  0
    0.9268   -1.4929   -0.6722 H   0  0  0  0  0  0  0  0  0  0  0  0
    0.0938    0.4313   -1.2031 C   0  0  0  0  0  0  0  0  0  0  0  0
    0.8596    1.1397   -0.8662 H   0  0  0  0  0  0  0  0  0  0  0  0
    0.4104    0.0890   -2.1942 H   0  0  0  0  0  0  0  0  0  0  0  0
   -1.2284    1.2157   -1.4334 C   0  0  0  0  0  0  0  0  0  0  0  0
   -1.4140    1.7975   -0.5265 H   0  0  0  0  0  0  0  0  0  0  0  0
   -1.0686    1.9287   -2.2470 H   0  0  0  0  0  0  0  0  0  0  0  0
   -2.5098    0.4467   -1.7414 C   0  0  0  0  0  0  0  0  0  0  0  0
   -2.5308   -0.5438   -2.4498 O   0  0  0  0  0  0  0  0  0  0  0  0
   -3.7104    0.8085   -1.2016 N   0  0  0  0  0  0  0  0  0  0  0  0
   -4.5291    0.3640   -1.6082 H   0  0  0  0  0  0  0  0  0  0  0  0
   -3.7939    1.7278   -0.7794 H   0  0  0  0  0  0  0  0  0  0  0  0
    0.5807   -0.3759    1.1108 C   0  0  0  0  0  0  0  0  0  0  0  0
    1.7717   -0.2145    1.3453 O   0  0  0  0  0  0  0  0  0  0  0  0
   -0.3535    0.1584    1.9801 N   0  0  0  0  0  0  0  0  0  0  0  0
   -1.3121   -0.1265    1.8058 H   0  0  0  0  0  0  0  0  0  0  0  0
   -0.0018    0.6247    3.3151 C   0  0  0  0  0  0  0  0  0  0  0  0
    0.7493    1.4198    3.2598 H   0  0  0  0  0  0  0  0  0  0  0  0
   -0.8862    1.0230    3.8211 H   0  0  0  0  0  0  0  0  0  0  0  0
    0.4006   -0.1994    3.9135 H   0  0  0  0  0  0  0  0  0  0  0  0
  1  2  1  0  0  0  0
  2  3  1  0  0  0  0
  2  4  1  0  0  0  0
  2  5  1  0  0  0  0
  5  6  2  0  0  0  0
  5  7  1  0  0  0  0
  7  8  1  0  0  0  0
  7  9  1  0  0  0  0
  9 10  1  0  0  0  0
  9 11  1  0  0  0  0
  9 22  1  0  0  0  0
 11 12  1  0  0  0  0
 11 13  1  0  0  0  0
 11 14  1  0  0  0  0
 14 15  1  0  0  0  0
 14 16  1  0  0  0  0
 14 17  1  0  0  0  0
 17 18  2  0  0  0  0
 17 19  1  0  0  0  0
 19 20  1  0  0  0  0
 19 21  1  0  0  0  0
 22 23  2  0  0  0  0
 22 24  1  0  0  0  0
 24 25  1  0  0  0  0
 24 26  1  0  0  0  0
 26 27  1  0  0  0  0
 26 28  1  0  0  0  0
 26 29  1  0  0  0  0
M  END
$$$$

  -OEChem-02102214123D

 29 28  0     1  0  0  0  0  0999 V2000
   -1.9003   -4.7332    0.7583 H   0  0  0  0  0  0  0  0  0  0  0  0
   -2.0709   -3.8245    0.1745 C   0  0  0  0  0  0  0  0  0  0  0  0
   -3.0374   -3.3992    0.4551 H   0  0  0  0  0  0  0  0  0  0  0  0
   -2.0919   -4.0864   -0.8864 H   0  0  0  0  0  0  0  0  0  0  0  0
   -0.9671   -2.8180    0.4374 C   0  0  0  0  0  0  0  0  0  0  0  0
   -0.1148   -3.0540    1.2757 O   0  0  0  0  0  0  0  0  0  0  0  0
   -0.9538   -1.6322   -0.2686 N   0  0  0  0  0  0  0  0  0  0  0  0
   -1.6113   -1.5949   -1.0513 H   0  0  0  0  0  0  0  0  0  0  0  0
    0.1733   -0.6830   -0.2955 C   0  0  1  0  0  0  0  0  0  0  0  0
    1.0587   -1.2277   -0.6421 H   0  0  0  0  0  0  0  0  0  0  0  0
   -0.0188    0.5553   -1.2233 C   0  0  0  0  0  0  0  0  0  0  0  0
    0.6530    1.3582   -0.8974 H   0  0  0  0  0  0  0  0  0  0  0  0
    0.3549    0.2282   -2.1994 H   0  0  0  0  0  0  0  0  0  0  0  0
   -1.4168    1.1765   -1.5139 C   0  0  0  0  0  0  0  0  0  0  0  0
   -1.5805    1.9490   -0.7574 H   0  0  0  0  0  0  0  0  0  0  0  0
   -1.3752    1.6846   -2.4816 H   0  0  0  0  0  0  0  0  0  0  0  0
   -2.6577    0.2915   -1.5090 C   0  0  0  0  0  0  0  0  0  0  0  0
   -2.7586   -0.6899   -2.2231 O   0  0  0  0  0  0  0  0  0  0  0  0
   -3.6918    0.5015   -0.6419 N   0  0  0  0  0  0  0  0  0  0  0  0
   -4.5404   -0.0247   -0.8318 H   0  0  0  0  0  0  0  0  0  0  0  0
   -3.7512    1.3983   -0.1697 H   0  0  0  0  0  0  0  0  0  0  0  0
    0.5162   -0.1456    1.1133 C   0  0  0  0  0  0  0  0  0  0  0  0
    1.6652    0.1892    1.3717 O   0  0  0  0  0  0  0  0  0  0  0  0
   -0.5066    0.2592    1.9525 N   0  0  0  0  0  0  0  0  0  0  0  0
   -1.4106   -0.1606    1.7588 H   0  0  0  0  0  0  0  0  0  0  0  0
   -0.2579    0.7827    3.2896 C   0  0  0  0  0  0  0  0  0  0  0  0
    0.3701    1.6785    3.2408 H   0  0  0  0  0  0  0  0  0  0  0  0
   -1.2024    1.0517    3.7719 H   0  0  0  0  0  0  0  0  0  0  0  0
    0.2471    0.0313    3.9059 H   0  0  0  0  0  0  0  0  0  0  0  0
  1  2  1  0  0  0  0
  2  3  1  0  0  0  0
  2  4  1  0  0  0  0
  2  5  1  0  0  0  0
  5  6  2  0  0  0  0
  5  7  1  0  0  0  0
  7  8  1  0  0  0  0
  7  9  1  0  0  0  0
  9 10  1  0  0  0  0
  9 11  1  0  0  0  0
  9 22  1  0  0  0  0
 11 12  1  0  0  0  0
 11 13  1  0  0  0  0
 11 14  1  0  0  0  0
 14 15  1  0  0  0  0
 14 16  1  0  0  0  0
 14 17  1  0  0  0  0
 17 18  2  0  0  0  0
 17 19  1  0  0  0  0
 19 20  1  0  0  0  0
 19 21  1  0  0  0  0
 22 23  2  0  0  0  0
 22 24  1  0  0  0  0
 24 25  1  0  0  0  0
 24 26  1  0  0  0  0
 26 27  1  0  0  0  0
 26 28  1  0  0  0  0
 26 29  1  0  0  0  0
M  END
$$$$

  -OEChem-02102214123D

 29 28  0     1  0  0  0  0  0999 V2000
   -2.0295   -4.5690    0.6865 H   0  0  0  0  0  0  0  0  0  0  0  0
   -2.2830   -3.5726    0.3140 C   0  0  0  0  0  0  0  0  0  0  0  0
   -2.8117   -3.0276    1.0999 H   0  0  0  0  0  0  0  0  0  0  0  0
   -2.9388   -3.6758   -0.5536 H   0  0  0  0  0  0  0  0  0  0  0  0
   -1.0227   -2.8248   -0.0771 C   0  0  0  0  0  0  0  0  0  0  0  0
    0.0565   -3.3905   -0.0441 O   0  0  0  0  0  0  0  0  0  0  0  0
   -1.1128   -1.5054   -0.4748 N   0  0  0  0  0  0  0  0  0  0  0  0
   -2.0187   -1.0857   -0.2751 H   0  0  0  0  0  0  0  0  0  0  0  0
    0.0561   -0.6045   -0.4922 C   0  0  1  0  0  0  0  0  0  0  0  0
    0.8286   -1.0689   -1.1161 H   0  0  0  0  0  0  0  0  0  0  0  0
   -0.1758    0.8400   -1.0315 C   0  0  0  0  0  0  0  0  0  0  0  0
    0.6151    1.4935   -0.6440 H   0  0  0  0  0  0  0  0  0  0  0  0
    0.0045    0.7610   -2.1087 H   0  0  0  0  0  0  0  0  0  0  0  0
   -1.5328    1.5943   -0.8994 C   0  0  0  0  0  0  0  0  0  0  0  0
   -1.4095    2.3482   -0.1159 H   0  0  0  0  0  0  0  0  0  0  0  0
   -1.7171    2.1381   -1.8300 H   0  0  0  0  0  0  0  0  0  0  0  0
   -2.7920    0.8211   -0.5385 C   0  0  0  0  0  0  0  0  0  0  0  0
   -2.9581    0.3499    0.5737 O   0  0  0  0  0  0  0  0  0  0  0  0
   -3.7320    0.4896   -1.4706 N   0  0  0  0  0  0  0  0  0  0  0  0
   -4.6051    0.1103   -1.1141 H   0  0  0  0  0  0  0  0  0  0  0  0
   -3.7166    0.9639   -2.3684 H   0  0  0  0  0  0  0  0  0  0  0  0
    0.6560   -0.4699    0.9261 C   0  0  0  0  0  0  0  0  0  0  0  0
    1.8617   -0.3222    1.0764 O   0  0  0  0  0  0  0  0  0  0  0  0
   -0.1919   -0.2741    2.0027 N   0  0  0  0  0  0  0  0  0  0  0  0
   -1.1914   -0.2331    1.8026 H   0  0  0  0  0  0  0  0  0  0  0  0
    0.2750    0.0233    3.3498 C   0  0  0  0  0  0  0  0  0  0  0  0
    0.7970    0.9855    3.3710 H   0  0  0  0  0  0  0  0  0  0  0  0
   -0.5722    0.0716    4.0404 H   0  0  0  0  0  0  0  0  0  0  0  0
    0.9592   -0.7576    3.6983 H   0  0  0  0  0  0  0  0  0  0  0  0
  1  2  1  0  0  0  0
  2  3  1  0  0  0  0
  2  4  1  0  0  0  0
  2  5  1  0  0  0  0
  5  6  2  0  0  0  0
  5  7  1  0  0  0  0
  7  8  1  0  0  0  0
  7  9  1  0  0  0  0
  9 10  1  0  0  0  0
  9 11  1  0  0  0  0
  9 22  1  0  0  0  0
 11 12  1  0  0  0  0
 11 13  1  0  0  0  0
 11 14  1  0  0  0  0
 14 15  1  0  0  0  0
 14 16  1  0  0  0  0
 14 17  1  0  0  0  0
 17 18  2  0  0  0  0
 17 19  1  0  0  0  0
 19 20  1  0  0  0  0
 19 21  1  0  0  0  0
 22 23  2  0  0  0  0
 22 24  1  0  0  0  0
 24 25  1  0  0  0  0
 24 26  1  0  0  0  0
 26 27  1  0  0  0  0
 26 28  1  0  0  0  0
 26 29  1  0  0  0  0
M  END
$$$$

  -OEChem-02102214123D

 29 28  0     1  0  0  0  0  0999 V2000
   -2.3203   -4.4646    0.8234 H   0  0  0  0  0  0  0  0  0  0  0  0
   -2.4810   -3.4654    0.4089 C   0  0  0  0  0  0  0  0  0  0  0  0
   -2.9992   -2.8551    1.1529 H   0  0  0  0  0  0  0  0  0  0  0  0
   -3.1053   -3.5500   -0.4836 H   0  0  0  0  0  0  0  0  0  0  0  0
   -1.1517   -2.8282    0.0519 C   0  0  0  0  0  0  0  0  0  0  0  0
   -0.1199   -3.4667    0.1685 O   0  0  0  0  0  0  0  0  0  0  0  0
   -1.1265   -1.5263   -0.4080 N   0  0  0  0  0  0  0  0  0  0  0  0
   -2.0055   -1.0346   -0.2636 H   0  0  0  0  0  0  0  0  0  0  0  0
    0.1015   -0.7087   -0.3728 C   0  0  1  0  0  0  0  0  0  0  0  0
    0.8787   -1.2665   -0.9086 H   0  0  0  0  0  0  0  0  0  0  0  0
    0.0022    0.6883   -1.0533 C   0  0  0  0  0  0  0  0  0  0  0  0
    0.7741    1.3345   -0.6189 H   0  0  0  0  0  0  0  0  0  0  0  0
    0.3043    0.5237   -2.0929 H   0  0  0  0  0  0  0  0  0  0  0  0
   -1.3208    1.5118   -1.1218 C   0  0  0  0  0  0  0  0  0  0  0  0
   -1.1377    2.4762   -0.6385 H   0  0  0  0  0  0  0  0  0  0  0  0
   -1.5267    1.7240   -2.1745 H   0  0  0  0  0  0  0  0  0  0  0  0
   -2.5985    0.9556   -0.5037 C   0  0  0  0  0  0  0  0  0  0  0  0
   -2.6720    0.6154    0.6637 O   0  0  0  0  0  0  0  0  0  0  0  0
   -3.6961    0.6653   -1.2607 N   0  0  0  0  0  0  0  0  0  0  0  0
   -4.5474    0.4531   -0.7470 H   0  0  0  0  0  0  0  0  0  0  0  0
   -3.7584    1.0600   -2.1944 H   0  0  0  0  0  0  0  0  0  0  0  0
    0.6359   -0.5254    1.0674 C   0  0  0  0  0  0  0  0  0  0  0  0
    1.8416   -0.4593    1.2686 O   0  0  0  0  0  0  0  0  0  0  0  0
   -0.2372   -0.2097    2.0929 N   0  0  0  0  0  0  0  0  0  0  0  0
   -1.2126   -0.0550    1.8307 H   0  0  0  0  0  0  0  0  0  0  0  0
    0.2000    0.1732    3.4281 C   0  0  0  0  0  0  0  0  0  0  0  0
    0.7724    1.1059    3.3910 H   0  0  0  0  0  0  0  0  0  0  0  0
   -0.6661    0.3213    4.0800 H   0  0  0  0  0  0  0  0  0  0  0  0
    0.8290   -0.6102    3.8638 H   0  0  0  0  0  0  0  0  0  0  0  0
  1  2  1  0  0  0  0
  2  3  1  0  0  0  0
  2  4  1  0  0  0  0
  2  5  1  0  0  0  0
  5  6  2  0  0  0  0
  5  7  1  0  0  0  0
  7  8  1  0  0  0  0
  7  9  1  0  0  0  0
  9 10  1  0  0  0  0
  9 11  1  0  0  0  0
  9 22  1  0  0  0  0
 11 12  1  0  0  0  0
 11 13  1  0  0  0  0
 11 14  1  0  0  0  0
 14 15  1  0  0  0  0
 14 16  1  0  0  0  0
 14 17  1  0  0  0  0
 17 18  2  0  0  0  0
 17 19  1  0  0  0  0
 19 20  1  0  0  0  0
 19 21  1  0  0  0  0
 22 23  2  0  0  0  0
 22 24  1  0  0  0  0
 24 25  1  0  0  0  0
 24 26  1  0  0  0  0
 26 27  1  0  0  0  0
 26 28  1  0  0  0  0
 26 29  1  0  0  0  0
M  END
$$$$

  -OEChem-02102214123D

 29 28  0     1  0  0  0  0  0999 V2000
   -2.3352   -4.5064    0.7192 H   0  0  0  0  0  0  0  0  0  0  0  0
   -2.4831   -3.4873    0.3509 C   0  0  0  0  0  0  0  0  0  0  0  0
   -3.0049   -2.9082    1.1168 H   0  0  0  0  0  0  0  0  0  0  0  0
   -3.0975   -3.5240   -0.5518 H   0  0  0  0  0  0  0  0  0  0  0  0
   -1.1445   -2.8455    0.0400 C   0  0  0  0  0  0  0  0  0  0  0  0
   -0.1169   -3.4884    0.1700 O   0  0  0  0  0  0  0  0  0  0  0  0
   -1.1074   -1.5358   -0.3953 N   0  0  0  0  0  0  0  0  0  0  0  0
   -1.9810   -1.0373   -0.2398 H   0  0  0  0  0  0  0  0  0  0  0  0
    0.1198   -0.7233   -0.3205 C   0  0  1  0  0  0  0  0  0  0  0  0
    0.9005   -1.2925   -0.8392 H   0  0  0  0  0  0  0  0  0  0  0  0
    0.0234    0.6374   -1.0640 C   0  0  0  0  0  0  0  0  0  0  0  0
    0.7400    1.3166   -0.5878 H   0  0  0  0  0  0  0  0  0  0  0  0
    0.4036    0.4642   -2.0762 H   0  0  0  0  0  0  0  0  0  0  0  0
   -1.3166    1.4210   -1.2246 C   0  0  0  0  0  0  0  0  0  0  0  0
   -1.1044    2.4836   -1.0764 H   0  0  0  0  0  0  0  0  0  0  0  0
   -1.6220    1.3016   -2.2682 H   0  0  0  0  0  0  0  0  0  0  0  0
   -2.5498    1.0865   -0.3838 C   0  0  0  0  0  0  0  0  0  0  0  0
   -2.5151    0.6164    0.7381 O   0  0  0  0  0  0  0  0  0  0  0  0
   -3.8078    1.2709   -0.8787 N   0  0  0  0  0  0  0  0  0  0  0  0
   -4.5657    1.2033   -0.2046 H   0  0  0  0  0  0  0  0  0  0  0  0
   -3.9247    1.8354   -1.7145 H   0  0  0  0  0  0  0  0  0  0  0  0
    0.6666   -0.5386    1.1161 C   0  0  0  0  0  0  0  0  0  0  0  0
    1.8756   -0.4748    1.2993 O   0  0  0  0  0  0  0  0  0  0  0  0
   -0.1837   -0.2243    2.1594 N   0  0  0  0  0  0  0  0  0  0  0  0
   -1.1610   -0.0595    1.9111 H   0  0  0  0  0  0  0  0  0  0  0  0
    0.2783    0.1578    3.4866 C   0  0  0  0  0  0  0  0  0  0  0  0
    0.8386    1.0972    3.4414 H   0  0  0  0  0  0  0  0  0  0  0  0
   -0.5752    0.2929    4.1577 H   0  0  0  0  0  0  0  0  0  0  0  0
    0.9256   -0.6202    3.9053 H   0  0  0  0  0  0  0  0  0  0  0  0
  1  2  1  0  0  0  0
  2  3  1  0  0  0  0
  2  4  1  0  0  0  0
  2  5  1  0  0  0  0
  5  6  2  0  0  0  0
  5  7  1  0  0  0  0
  7  8  1  0  0  0  0
  7  9  1  0  0  0  0
  9 10  1  0  0  0  0
  9 11  1  0  0  0  0
  9 22  1  0  0  0  0
 11 12  1  0  0  0  0
 11 13  1  0  0  0  0
 11 14  1  0  0  0  0
 14 15  1  0  0  0  0
 14 16  1  0  0  0  0
 14 17  1  0  0  0  0
 17 18  2  0  0  0  0
 17 19  1  0  0  0  0
 19 20  1  0  0  0  0
 19 21  1  0  0  0  0
 22 23  2  0  0  0  0
 22 24  1  0  0  0  0
 24 25  1  0  0  0  0
 24 26  1  0  0  0  0
 26 27  1  0  0  0  0
 26 28  1  0  0  0  0
 26 29  1  0  0  0  0
M  END
$$$$

  -OEChem-02102214123D

 29 28  0     1  0  0  0  0  0999 V2000
   -2.1616   -4.3653    1.2367 H   0  0  0  0  0  0  0  0  0  0  0  0
   -2.3176   -3.4620    0.6405 C   0  0  0  0  0  0  0  0  0  0  0  0
   -3.0399   -2.8207    1.1519 H   0  0  0  0  0  0  0  0  0  0  0  0
   -2.7220   -3.7467   -0.3338 H   0  0  0  0  0  0  0  0  0  0  0  0
   -1.0067   -2.7217    0.4586 C   0  0  0  0  0  0  0  0  0  0  0  0
    0.0259   -3.1803    0.9183 O   0  0  0  0  0  0  0  0  0  0  0  0
   -0.9985   -1.5031   -0.1863 N   0  0  0  0  0  0  0  0  0  0  0  0
   -1.9155   -1.1140   -0.4156 H   0  0  0  0  0  0  0  0  0  0  0  0
    0.1822   -0.6287   -0.2927 C   0  0  1  0  0  0  0  0  0  0  0  0
    0.9721   -1.2598   -0.7164 H   0  0  0  0  0  0  0  0  0  0  0  0
    0.0015    0.5374   -1.3061 C   0  0  0  0  0  0  0  0  0  0  0  0
    0.6624    1.3546   -0.9961 H   0  0  0  0  0  0  0  0  0  0  0  0
    0.3816    0.1900   -2.2727 H   0  0  0  0  0  0  0  0  0  0  0  0
   -1.3995    1.1474   -1.5659 C   0  0  0  0  0  0  0  0  0  0  0  0
   -1.2793    2.1789   -1.9086 H   0  0  0  0  0  0  0  0  0  0  0  0
   -1.8593    0.5907   -2.3881 H   0  0  0  0  0  0  0  0  0  0  0  0
   -2.3933    1.1281   -0.4118 C   0  0  0  0  0  0  0  0  0  0  0  0
   -3.2331    0.2508   -0.3058 O   0  0  0  0  0  0  0  0  0  0  0  0
   -2.4183    2.1139    0.5321 N   0  0  0  0  0  0  0  0  0  0  0  0
   -3.1959    2.1186    1.1853 H   0  0  0  0  0  0  0  0  0  0  0  0
   -1.8079    2.9200    0.4408 H   0  0  0  0  0  0  0  0  0  0  0  0
    0.7991   -0.1322    1.0456 C   0  0  0  0  0  0  0  0  0  0  0  0
    1.9587    0.2517    1.0435 O   0  0  0  0  0  0  0  0  0  0  0  0
    0.1186    0.3614    2.1391 N   0  0  0  0  0  0  0  0  0  0  0  0
    0.7616    0.7702    2.8124 H   0  0  0  0  0  0  0  0  0  0  0  0
   -1.0870   -0.2463    2.6850 C   0  0  0  0  0  0  0  0  0  0  0  0
   -1.4119    0.3081    3.5706 H   0  0  0  0  0  0  0  0  0  0  0  0
   -1.9070   -0.2345    1.9651 H   0  0  0  0  0  0  0  0  0  0  0  0
   -0.8909   -1.2818    2.9818 H   0  0  0  0  0  0  0  0  0  0  0  0
  1  2  1  0  0  0  0
  2  3  1  0  0  0  0
  2  4  1  0  0  0  0
  2  5  1  0  0  0  0
  5  6  2  0  0  0  0
  5  7  1  0  0  0  0
  7  8  1  0  0  0  0
  7  9  1  0  0  0  0
  9 10  1  0  0  0  0
  9 11  1  0  0  0  0
  9 22  1  0  0  0  0
 11 12  1  0  0  0  0
 11 13  1  0  0  0  0
 11 14  1  0  0  0  0
 14 15  1  0  0  0  0
 14 16  1  0  0  0  0
 14 17  1  0  0  0  0
 17 18  2  0  0  0  0
 17 19  1  0  0  0  0
 19 20  1  0  0  0  0
 19 21  1  0  0  0  0
 22 23  2  0  0  0  0
 22 24  1  0  0  0  0
 24 25  1  0  0  0  0
 24 26  1  0  0  0  0
 26 27  1  0  0  0  0
 26 28  1  0  0  0  0
 26 29  1  0  0  0  0
M  END
$$$$

  -OEChem-02102214123D

 29 28  0     1  0  0  0  0  0999 V2000
   -2.7432   -4.2161    0.7369 H   0  0  0  0  0  0  0  0  0  0  0  0
   -2.7682   -3.2285    0.2673 C   0  0  0  0  0  0  0  0  0  0  0  0
   -3.3759   -2.5625    0.8844 H   0  0  0  0  0  0  0  0  0  0  0  0
   -3.2250   -3.3199   -0.7208 H   0  0  0  0  0  0  0  0  0  0  0  0
   -1.3608   -2.6773    0.1382 C   0  0  0  0  0  0  0  0  0  0  0  0
   -0.4090   -3.3669    0.4580 O   0  0  0  0  0  0  0  0  0  0  0  0
   -1.1741   -1.4010   -0.3564 N   0  0  0  0  0  0  0  0  0  0  0  0
   -2.0193   -0.8482   -0.4569 H   0  0  0  0  0  0  0  0  0  0  0  0
    0.1122   -0.6844   -0.2533 C   0  0  1  0  0  0  0  0  0  0  0  0
    0.8611   -1.3576   -0.6876 H   0  0  0  0  0  0  0  0  0  0  0  0
    0.1448    0.5825   -1.1465 C   0  0  0  0  0  0  0  0  0  0  0  0
    0.8412    1.2983   -0.6936 H   0  0  0  0  0  0  0  0  0  0  0  0
    0.5705    0.3023   -2.1157 H   0  0  0  0  0  0  0  0  0  0  0  0
   -1.1945    1.3135   -1.4155 C   0  0  0  0  0  0  0  0  0  0  0  0
   -0.9779    2.2898   -1.8581 H   0  0  0  0  0  0  0  0  0  0  0  0
   -1.7483    0.7377   -2.1623 H   0  0  0  0  0  0  0  0  0  0  0  0
   -2.1072    1.5331   -0.2160 C   0  0  0  0  0  0  0  0  0  0  0  0
   -1.7203    1.9755    0.8448 O   0  0  0  0  0  0  0  0  0  0  0  0
   -3.3975    1.0858   -0.2225 N   0  0  0  0  0  0  0  0  0  0  0  0
   -3.9592    1.4118    0.5609 H   0  0  0  0  0  0  0  0  0  0  0  0
   -3.8454    0.9582   -1.1251 H   0  0  0  0  0  0  0  0  0  0  0  0
    0.6416   -0.4372    1.1827 C   0  0  0  0  0  0  0  0  0  0  0  0
    1.8422   -0.5467    1.3971 O   0  0  0  0  0  0  0  0  0  0  0  0
   -0.1792    0.0183    2.1979 N   0  0  0  0  0  0  0  0  0  0  0  0
   -1.0418    0.4658    1.8888 H   0  0  0  0  0  0  0  0  0  0  0  0
    0.3437    0.4139    3.4994 C   0  0  0  0  0  0  0  0  0  0  0  0
    1.0115    1.2757    3.3977 H   0  0  0  0  0  0  0  0  0  0  0  0
   -0.4786    0.6873    4.1671 H   0  0  0  0  0  0  0  0  0  0  0  0
    0.8988   -0.4113    3.9581 H   0  0  0  0  0  0  0  0  0  0  0  0
  1  2  1  0  0  0  0
  2  3  1  0  0  0  0
  2  4  1  0  0  0  0
  2  5  1  0  0  0  0
  5  6  2  0  0  0  0
  5  7  1  0  0  0  0
  7  8  1  0  0  0  0
  7  9  1  0  0  0  0
  9 10  1  0  0  0  0
  9 11  1  0  0  0  0
  9 22  1  0  0  0  0
 11 12  1  0  0  0  0
 11 13  1  0  0  0  0
 11 14  1  0  0  0  0
 14 15  1  0  0  0  0
 14 16  1  0  0  0  0
 14 17  1  0  0  0  0
 17 18  2  0  0  0  0
 17 19  1  0  0  0  0
 19 20  1  0  0  0  0
 19 21  1  0  0  0  0
 22 23  2  0  0  0  0
 22 24  1  0  0  0  0
 24 25  1  0  0  0  0
 24 26  1  0  0  0  0
 26 27  1  0  0  0  0
 26 28  1  0  0  0  0
 26 29  1  0  0  0  0
M  END
$$$$

  -OEChem-02102214123D

 29 28  0     1  0  0  0  0  0999 V2000
   -2.2082   -4.5305    0.8334 H   0  0  0  0  0  0  0  0  0  0  0  0
   -2.3907   -3.5633    0.3565 C   0  0  0  0  0  0  0  0  0  0  0  0
   -3.0400   -2.9685    1.0037 H   0  0  0  0  0  0  0  0  0  0  0  0
   -2.8938   -3.7305   -0.5987 H   0  0  0  0  0  0  0  0  0  0  0  0
   -1.0787   -2.8365    0.1309 C   0  0  0  0  0  0  0  0  0  0  0  0
   -0.0291   -3.3528    0.4741 O   0  0  0  0  0  0  0  0  0  0  0  0
   -1.0849   -1.5842   -0.4502 N   0  0  0  0  0  0  0  0  0  0  0  0
   -2.0057   -1.1494   -0.5055 H   0  0  0  0  0  0  0  0  0  0  0  0
    0.0735   -0.6739   -0.3897 C   0  0  1  0  0  0  0  0  0  0  0  0
    0.9334   -1.2231   -0.7914 H   0  0  0  0  0  0  0  0  0  0  0  0
   -0.1111    0.5716   -1.2931 C   0  0  0  0  0  0  0  0  0  0  0  0
    0.4924    1.3956   -0.8957 H   0  0  0  0  0  0  0  0  0  0  0  0
    0.2993    0.3272   -2.2784 H   0  0  0  0  0  0  0  0  0  0  0  0
   -1.5629    1.0546   -1.5050 C   0  0  0  0  0  0  0  0  0  0  0  0
   -1.5530    1.9257   -2.1659 H   0  0  0  0  0  0  0  0  0  0  0  0
   -2.1461    0.2798   -2.0112 H   0  0  0  0  0  0  0  0  0  0  0  0
   -2.2654    1.4406   -0.2121 C   0  0  0  0  0  0  0  0  0  0  0  0
   -2.8899    0.6082    0.4241 O   0  0  0  0  0  0  0  0  0  0  0  0
   -2.1587    2.6863    0.3351 N   0  0  0  0  0  0  0  0  0  0  0  0
   -2.4917    2.7945    1.2890 H   0  0  0  0  0  0  0  0  0  0  0  0
   -1.4724    3.3330   -0.0408 H   0  0  0  0  0  0  0  0  0  0  0  0
    0.4883   -0.2878    1.0500 C   0  0  0  0  0  0  0  0  0  0  0  0
    1.6631   -0.0499    1.2959 O   0  0  0  0  0  0  0  0  0  0  0  0
   -0.4668    0.0710    1.9836 N   0  0  0  0  0  0  0  0  0  0  0  0
   -1.4454   -0.0280    1.7090 H   0  0  0  0  0  0  0  0  0  0  0  0
   -0.1500    0.5534    3.3207 C   0  0  0  0  0  0  0  0  0  0  0  0
    0.4018    1.4975    3.2671 H   0  0  0  0  0  0  0  0  0  0  0  0
   -1.0699    0.7204    3.8891 H   0  0  0  0  0  0  0  0  0  0  0  0
    0.4592   -0.1816    3.8575 H   0  0  0  0  0  0  0  0  0  0  0  0
  1  2  1  0  0  0  0
  2  3  1  0  0  0  0
  2  4  1  0  0  0  0
  2  5  1  0  0  0  0
  5  6  2  0  0  0  0
  5  7  1  0  0  0  0
  7  8  1  0  0  0  0
  7  9  1  0  0  0  0
  9 10  1  0  0  0  0
  9 11  1  0  0  0  0
  9 22  1  0  0  0  0
 11 12  1  0  0  0  0
 11 13  1  0  0  0  0
 11 14  1  0  0  0  0
 14 15  1  0  0  0  0
 14 16  1  0  0  0  0
 14 17  1  0  0  0  0
 17 18  2  0  0  0  0
 17 19  1  0  0  0  0
 19 20  1  0  0  0  0
 19 21  1  0  0  0  0
 22 23  2  0  0  0  0
 22 24  1  0  0  0  0
 24 25  1  0  0  0  0
 24 26  1  0  0  0  0
 26 27  1  0  0  0  0
 26 28  1  0  0  0  0
 26 29  1  0  0  0  0
M  END
$$$$

  -OEChem-02102214123D

 29 28  0     1  0  0  0  0  0999 V2000
   -2.1821   -4.5835    0.7729 H   0  0  0  0  0  0  0  0  0  0  0  0
   -2.3835   -3.6069    0.3236 C   0  0  0  0  0  0  0  0  0  0  0  0
   -3.0348   -3.0396    0.9931 H   0  0  0  0  0  0  0  0  0  0  0  0
   -2.8935   -3.7569   -0.6309 H   0  0  0  0  0  0  0  0  0  0  0  0
   -1.0840   -2.8551    0.1059 C   0  0  0  0  0  0  0  0  0  0  0  0
   -0.0250   -3.3645    0.4290 O   0  0  0  0  0  0  0  0  0  0  0  0
   -1.1106   -1.5926   -0.4537 N   0  0  0  0  0  0  0  0  0  0  0  0
   -2.0353   -1.1760   -0.5297 H   0  0  0  0  0  0  0  0  0  0  0  0
    0.0410   -0.6727   -0.3988 C   0  0  1  0  0  0  0  0  0  0  0  0
    0.8968   -1.2067   -0.8286 H   0  0  0  0  0  0  0  0  0  0  0  0
   -0.1657    0.5953   -1.2645 C   0  0  0  0  0  0  0  0  0  0  0  0
    0.4527    1.4135   -0.8771 H   0  0  0  0  0  0  0  0  0  0  0  0
    0.2123    0.3632   -2.2655 H   0  0  0  0  0  0  0  0  0  0  0  0
   -1.6267    1.0678   -1.4285 C   0  0  0  0  0  0  0  0  0  0  0  0
   -1.6615    1.8045   -2.2358 H   0  0  0  0  0  0  0  0  0  0  0  0
   -2.2857    0.2501   -1.7300 H   0  0  0  0  0  0  0  0  0  0  0  0
   -2.1625    1.7367   -0.1740 C   0  0  0  0  0  0  0  0  0  0  0  0
   -2.7867    1.0798    0.6406 O   0  0  0  0  0  0  0  0  0  0  0  0
   -1.9200    3.0452    0.1300 N   0  0  0  0  0  0  0  0  0  0  0  0
   -2.1580    3.3442    1.0717 H   0  0  0  0  0  0  0  0  0  0  0  0
   -1.2312    3.5596   -0.4095 H   0  0  0  0  0  0  0  0  0  0  0  0
    0.4834   -0.3035    1.0373 C   0  0  0  0  0  0  0  0  0  0  0  0
    1.6661   -0.0819    1.2616 O   0  0  0  0  0  0  0  0  0  0  0  0
   -0.4485    0.0354    2.0013 N   0  0  0  0  0  0  0  0  0  0  0  0
   -1.4271    0.0649    1.7102 H   0  0  0  0  0  0  0  0  0  0  0  0
   -0.0926    0.5718    3.3078 C   0  0  0  0  0  0  0  0  0  0  0  0
    0.4080    1.5396    3.2020 H   0  0  0  0  0  0  0  0  0  0  0  0
   -0.9919    0.7091    3.9157 H   0  0  0  0  0  0  0  0  0  0  0  0
    0.5772   -0.1164    3.8341 H   0  0  0  0  0  0  0  0  0  0  0  0
  1  2  1  0  0  0  0
  2  3  1  0  0  0  0
  2  4  1  0  0  0  0
  2  5  1  0  0  0  0
  5  6  2  0  0  0  0
  5  7  1  0  0  0  0
  7  8  1  0  0  0  0
  7  9  1  0  0  0  0
  9 10  1  0  0  0  0
  9 11  1  0  0  0  0
  9 22  1  0  0  0  0
 11 12  1  0  0  0  0
 11 13  1  0  0  0  0
 11 14  1  0  0  0  0
 14 15  1  0  0  0  0
 14 16  1  0  0  0  0
 14 17  1  0  0  0  0
 17 18  2  0  0  0  0
 17 19  1  0  0  0  0
 19 20  1  0  0  0  0
 19 21  1  0  0  0  0
 22 23  2  0  0  0  0
 22 24  1  0  0  0  0
 24 25  1  0  0  0  0
 24 26  1  0  0  0  0
 26 27  1  0  0  0  0
 26 28  1  0  0  0  0
 26 29  1  0  0  0  0
M  END
$$$$

  -OEChem-02102214123D

 29 28  0     1  0  0  0  0  0999 V2000
   -2.1622   -4.6409    0.6924 H   0  0  0  0  0  0  0  0  0  0  0  0
   -2.3764   -3.6494    0.2835 C   0  0  0  0  0  0  0  0  0  0  0  0
   -3.0389   -3.1204    0.9727 H   0  0  0  0  0  0  0  0  0  0  0  0
   -2.8800   -3.7675   -0.6788 H   0  0  0  0  0  0  0  0  0  0  0  0
   -1.0875   -2.8700    0.1034 C   0  0  0  0  0  0  0  0  0  0  0  0
   -0.0258   -3.3644    0.4396 O   0  0  0  0  0  0  0  0  0  0  0  0
   -1.1264   -1.6045   -0.4493 N   0  0  0  0  0  0  0  0  0  0  0  0
   -2.0531   -1.2120   -0.5797 H   0  0  0  0  0  0  0  0  0  0  0  0
    0.0200   -0.6768   -0.4135 C   0  0  1  0  0  0  0  0  0  0  0  0
    0.8709   -1.1940   -0.8724 H   0  0  0  0  0  0  0  0  0  0  0  0
   -0.2189    0.6172   -1.2317 C   0  0  0  0  0  0  0  0  0  0  0  0
    0.4269    1.4217   -0.8599 H   0  0  0  0  0  0  0  0  0  0  0  0
    0.1146    0.3999   -2.2518 H   0  0  0  0  0  0  0  0  0  0  0  0
   -1.6825    1.1059   -1.3362 C   0  0  0  0  0  0  0  0  0  0  0  0
   -1.7874    1.6699   -2.2674 H   0  0  0  0  0  0  0  0  0  0  0  0
   -2.4062    0.2916   -1.3933 H   0  0  0  0  0  0  0  0  0  0  0  0
   -2.0414    2.0474   -0.1988 C   0  0  0  0  0  0  0  0  0  0  0  0
   -2.5908    1.6098    0.7955 O   0  0  0  0  0  0  0  0  0  0  0  0
   -1.7311    3.3769   -0.2104 N   0  0  0  0  0  0  0  0  0  0  0  0
   -1.8445    3.8743    0.6687 H   0  0  0  0  0  0  0  0  0  0  0  0
   -1.0975    3.7321   -0.9191 H   0  0  0  0  0  0  0  0  0  0  0  0
    0.4817   -0.3140    1.0183 C   0  0  0  0  0  0  0  0  0  0  0  0
    1.6719   -0.1264    1.2343 O   0  0  0  0  0  0  0  0  0  0  0  0
   -0.4367    0.0140    1.9999 N   0  0  0  0  0  0  0  0  0  0  0  0
   -1.4013    0.1515    1.6966 H   0  0  0  0  0  0  0  0  0  0  0  0
   -0.0495    0.5418    3.3013 C   0  0  0  0  0  0  0  0  0  0  0  0
    0.4435    1.5132    3.1908 H   0  0  0  0  0  0  0  0  0  0  0  0
   -0.9337    0.6696    3.9332 H   0  0  0  0  0  0  0  0  0  0  0  0
    0.6367   -0.1472    3.8050 H   0  0  0  0  0  0  0  0  0  0  0  0
  1  2  1  0  0  0  0
  2  3  1  0  0  0  0
  2  4  1  0  0  0  0
  2  5  1  0  0  0  0
  5  6  2  0  0  0  0
  5  7  1  0  0  0  0
  7  8  1  0  0  0  0
  7  9  1  0  0  0  0
  9 10  1  0  0  0  0
  9 11  1  0  0  0  0
  9 22  1  0  0  0  0
 11 12  1  0  0  0  0
 11 13  1  0  0  0  0
 11 14  1  0  0  0  0
 14 15  1  0  0  0  0
 14 16  1  0  0  0  0
 14 17  1  0  0  0  0
 17 18  2  0  0  0  0
 17 19  1  0  0  0  0
 19 20  1  0  0  0  0
 19 21  1  0  0  0  0
 22 23  2  0  0  0  0
 22 24  1  0  0  0  0
 24 25  1  0  0  0  0
 24 26  1  0  0  0  0
 26 27  1  0  0  0  0
 26 28  1  0  0  0  0
 26 29  1  0  0  0  0
M  END
$$$$

  -OEChem-02102214123D

 29 28  0     1  0  0  0  0  0999 V2000
   -2.2030   -4.6535    0.6958 H   0  0  0  0  0  0  0  0  0  0  0  0
   -2.3959   -3.6987    0.1983 C   0  0  0  0  0  0  0  0  0  0  0  0
   -3.1575   -3.1567    0.7640 H   0  0  0  0  0  0  0  0  0  0  0  0
   -2.7694   -3.8963   -0.8093 H   0  0  0  0  0  0  0  0  0  0  0  0
   -1.1200   -2.8808    0.1277 C   0  0  0  0  0  0  0  0  0  0  0  0
   -0.0753   -3.3493    0.5433 O   0  0  0  0  0  0  0  0  0  0  0  0
   -1.1478   -1.6154   -0.4263 N   0  0  0  0  0  0  0  0  0  0  0  0
   -2.0509   -1.2743   -0.7365 H   0  0  0  0  0  0  0  0  0  0  0  0
    0.0037   -0.6922   -0.4242 C   0  0  1  0  0  0  0  0  0  0  0  0
    0.8408   -1.2004   -0.9168 H   0  0  0  0  0  0  0  0  0  0  0  0
   -0.2679    0.6277   -1.1897 C   0  0  0  0  0  0  0  0  0  0  0  0
    0.4101    1.4135   -0.8341 H   0  0  0  0  0  0  0  0  0  0  0  0
    0.0104    0.4360   -2.2316 H   0  0  0  0  0  0  0  0  0  0  0  0
   -1.7309    1.1387   -1.2066 C   0  0  0  0  0  0  0  0  0  0  0  0
   -1.9673    1.4853   -2.2166 H   0  0  0  0  0  0  0  0  0  0  0  0
   -2.4669    0.3733   -0.9616 H   0  0  0  0  0  0  0  0  0  0  0  0
   -1.9122    2.3170   -0.2624 C   0  0  0  0  0  0  0  0  0  0  0  0
   -2.3475    2.1346    0.8587 O   0  0  0  0  0  0  0  0  0  0  0  0
   -1.5767    3.5963   -0.6020 N   0  0  0  0  0  0  0  0  0  0  0  0
   -1.5654    4.2722    0.1571 H   0  0  0  0  0  0  0  0  0  0  0  0
   -1.0227    3.7580   -1.4365 H   0  0  0  0  0  0  0  0  0  0  0  0
    0.4973   -0.3275    0.9964 C   0  0  0  0  0  0  0  0  0  0  0  0
    1.6923   -0.1385    1.1847 O   0  0  0  0  0  0  0  0  0  0  0  0
   -0.4041    0.0070    1.9916 N   0  0  0  0  0  0  0  0  0  0  0  0
   -1.3705    0.1404    1.7020 H   0  0  0  0  0  0  0  0  0  0  0  0
    0.0067    0.5772    3.2676 C   0  0  0  0  0  0  0  0  0  0  0  0
    0.4768    1.5543    3.1172 H   0  0  0  0  0  0  0  0  0  0  0  0
   -0.8632    0.7063    3.9188 H   0  0  0  0  0  0  0  0  0  0  0  0
    0.7192   -0.0844    3.7716 H   0  0  0  0  0  0  0  0  0  0  0  0
  1  2  1  0  0  0  0
  2  3  1  0  0  0  0
  2  4  1  0  0  0  0
  2  5  1  0  0  0  0
  5  6  2  0  0  0  0
  5  7  1  0  0  0  0
  7  8  1  0  0  0  0
  7  9  1  0  0  0  0
  9 10  1  0  0  0  0
  9 11  1  0  0  0  0
  9 22  1  0  0  0  0
 11 12  1  0  0  0  0
 11 13  1  0  0  0  0
 11 14  1  0  0  0  0
 14 15  1  0  0  0  0
 14 16  1  0  0  0  0
 14 17  1  0  0  0  0
 17 18  2  0  0  0  0
 17 19  1  0  0  0  0
 19 20  1  0  0  0  0
 19 21  1  0  0  0  0
 22 23  2  0  0  0  0
 22 24  1  0  0  0  0
 24 25  1  0  0  0  0
 24 26  1  0  0  0  0
 26 27  1  0  0  0  0
 26 28  1  0  0  0  0
 26 29  1  0  0  0  0
M  END
$$$$

  -OEChem-02102214123D

 29 28  0     1  0  0  0  0  0999 V2000
   -2.2600   -4.6519    0.6518 H   0  0  0  0  0  0  0  0  0  0  0  0
   -2.4339   -3.7020    0.1382 C   0  0  0  0  0  0  0  0  0  0  0  0
   -3.2451   -3.1733    0.6444 H   0  0  0  0  0  0  0  0  0  0  0  0
   -2.7283   -3.9087   -0.8934 H   0  0  0  0  0  0  0  0  0  0  0  0
   -1.1718   -2.8607    0.1593 C   0  0  0  0  0  0  0  0  0  0  0  0
   -0.1509   -3.3112    0.6468 O   0  0  0  0  0  0  0  0  0  0  0  0
   -1.1848   -1.5935   -0.3914 N   0  0  0  0  0  0  0  0  0  0  0  0
   -2.0464   -1.2948   -0.8368 H   0  0  0  0  0  0  0  0  0  0  0  0
   -0.0169   -0.6910   -0.4243 C   0  0  1  0  0  0  0  0  0  0  0  0
    0.7958   -1.2052   -0.9502 H   0  0  0  0  0  0  0  0  0  0  0  0
   -0.3086    0.6380   -1.1651 C   0  0  0  0  0  0  0  0  0  0  0  0
    0.3862    1.4099   -0.8110 H   0  0  0  0  0  0  0  0  0  0  0  0
   -0.0661    0.4736   -2.2201 H   0  0  0  0  0  0  0  0  0  0  0  0
   -1.7685    1.1580   -1.1066 C   0  0  0  0  0  0  0  0  0  0  0  0
   -2.1709    1.2307   -2.1209 H   0  0  0  0  0  0  0  0  0  0  0  0
   -2.4304    0.4995   -0.5421 H   0  0  0  0  0  0  0  0  0  0  0  0
   -1.8369    2.5316   -0.4533 C   0  0  0  0  0  0  0  0  0  0  0  0
   -2.2236    2.6530    0.6927 O   0  0  0  0  0  0  0  0  0  0  0  0
   -1.4645    3.6737   -1.1028 N   0  0  0  0  0  0  0  0  0  0  0  0
   -1.3776    4.5052   -0.5246 H   0  0  0  0  0  0  0  0  0  0  0  0
   -0.9477    3.6020   -1.9727 H   0  0  0  0  0  0  0  0  0  0  0  0
    0.5272   -0.3359    0.9798 C   0  0  0  0  0  0  0  0  0  0  0  0
    1.7257   -0.1314    1.1234 O   0  0  0  0  0  0  0  0  0  0  0  0
   -0.3431    0.0124    1.9970 N   0  0  0  0  0  0  0  0  0  0  0  0
   -1.3333    0.0232    1.7736 H   0  0  0  0  0  0  0  0  0  0  0  0
    0.0943    0.5984    3.2568 C   0  0  0  0  0  0  0  0  0  0  0  0
    0.5706    1.5689    3.0829 H   0  0  0  0  0  0  0  0  0  0  0  0
   -0.7623    0.7462    3.9214 H   0  0  0  0  0  0  0  0  0  0  0  0
    0.8098   -0.0618    3.7583 H   0  0  0  0  0  0  0  0  0  0  0  0
  1  2  1  0  0  0  0
  2  3  1  0  0  0  0
  2  4  1  0  0  0  0
  2  5  1  0  0  0  0
  5  6  2  0  0  0  0
  5  7  1  0  0  0  0
  7  8  1  0  0  0  0
  7  9  1  0  0  0  0
  9 10  1  0  0  0  0
  9 11  1  0  0  0  0
  9 22  1  0  0  0  0
 11 12  1  0  0  0  0
 11 13  1  0  0  0  0
 11 14  1  0  0  0  0
 14 15  1  0  0  0  0
 14 16  1  0  0  0  0
 14 17  1  0  0  0  0
 17 18  2  0  0  0  0
 17 19  1  0  0  0  0
 19 20  1  0  0  0  0
 19 21  1  0  0  0  0
 22 23  2  0  0  0  0
 22 24  1  0  0  0  0
 24 25  1  0  0  0  0
 24 26  1  0  0  0  0
 26 27  1  0  0  0  0
 26 28  1  0  0  0  0
 26 29  1  0  0  0  0
M  END
$$$$

  -OEChem-02102214123D

 29 28  0     1  0  0  0  0  0999 V2000
   -2.5453   -4.4601    0.6131 H   0  0  0  0  0  0  0  0  0  0  0  0
   -2.4995   -3.6172   -0.0825 C   0  0  0  0  0  0  0  0  0  0  0  0
   -3.4309   -3.0508   -0.0095 H   0  0  0  0  0  0  0  0  0  0  0  0
   -2.3951   -4.0059   -1.0985 H   0  0  0  0  0  0  0  0  0  0  0  0
   -1.3193   -2.7257    0.2551 C   0  0  0  0  0  0  0  0  0  0  0  0
   -0.5441   -3.0519    1.1352 O   0  0  0  0  0  0  0  0  0  0  0  0
   -1.1399   -1.5391   -0.4299 N   0  0  0  0  0  0  0  0  0  0  0  0
   -1.7587   -1.3854   -1.2211 H   0  0  0  0  0  0  0  0  0  0  0  0
    0.0758   -0.7031   -0.3394 C   0  0  1  0  0  0  0  0  0  0  0  0
    0.9380   -1.3080   -0.6425 H   0  0  0  0  0  0  0  0  0  0  0  0
   -0.0031    0.5379   -1.2617 C   0  0  0  0  0  0  0  0  0  0  0  0
    0.6567    1.3207   -0.8678 H   0  0  0  0  0  0  0  0  0  0  0  0
    0.4110    0.2610   -2.2369 H   0  0  0  0  0  0  0  0  0  0  0  0
   -1.4265    1.0963   -1.5038 C   0  0  0  0  0  0  0  0  0  0  0  0
   -1.7818    0.7998   -2.4954 H   0  0  0  0  0  0  0  0  0  0  0  0
   -2.1370    0.7196   -0.7650 H   0  0  0  0  0  0  0  0  0  0  0  0
   -1.4488    2.6140   -1.3807 C   0  0  0  0  0  0  0  0  0  0  0  0
   -1.7165    3.3261   -2.3277 O   0  0  0  0  0  0  0  0  0  0  0  0
   -1.2133    3.2372   -0.1877 N   0  0  0  0  0  0  0  0  0  0  0  0
   -1.0862    4.2444   -0.2322 H   0  0  0  0  0  0  0  0  0  0  0  0
   -0.7850    2.7043    0.5646 H   0  0  0  0  0  0  0  0  0  0  0  0
    0.3684   -0.2028    1.0950 C   0  0  0  0  0  0  0  0  0  0  0  0
    1.5207    0.0490    1.4200 O   0  0  0  0  0  0  0  0  0  0  0  0
   -0.6645    0.3045    1.8643 N   0  0  0  0  0  0  0  0  0  0  0  0
   -1.5880   -0.0464    1.6289 H   0  0  0  0  0  0  0  0  0  0  0  0
   -0.4491    0.8172    3.2123 C   0  0  0  0  0  0  0  0  0  0  0  0
    0.2474    1.6622    3.1963 H   0  0  0  0  0  0  0  0  0  0  0  0
   -1.3950    1.1601    3.6423 H   0  0  0  0  0  0  0  0  0  0  0  0
   -0.0369    0.0340    3.8577 H   0  0  0  0  0  0  0  0  0  0  0  0
  1  2  1  0  0  0  0
  2  3  1  0  0  0  0
  2  4  1  0  0  0  0
  2  5  1  0  0  0  0
  5  6  2  0  0  0  0
  5  7  1  0  0  0  0
  7  8  1  0  0  0  0
  7  9  1  0  0  0  0
  9 10  1  0  0  0  0
  9 11  1  0  0  0  0
  9 22  1  0  0  0  0
 11 12  1  0  0  0  0
 11 13  1  0  0  0  0
 11 14  1  0  0  0  0
 14 15  1  0  0  0  0
 14 16  1  0  0  0  0
 14 17  1  0  0  0  0
 17 18  2  0  0  0  0
 17 19  1  0  0  0  0
 19 20  1  0  0  0  0
 19 21  1  0  0  0  0
 22 23  2  0  0  0  0
 22 24  1  0  0  0  0
 24 25  1  0  0  0  0
 24 26  1  0  0  0  0
 26 27  1  0  0  0  0
 26 28  1  0  0  0  0
 26 29  1  0  0  0  0
M  END
$$$$

  -OEChem-02102214123D

 29 28  0     1  0  0  0  0  0999 V2000
   -2.4458   -4.5108    0.6349 H   0  0  0  0  0  0  0  0  0  0  0  0
   -2.4412   -3.6582   -0.0503 C   0  0  0  0  0  0  0  0  0  0  0  0
   -3.3782   -3.1091    0.0676 H   0  0  0  0  0  0  0  0  0  0  0  0
   -2.3711   -4.0315   -1.0747 H   0  0  0  0  0  0  0  0  0  0  0  0
   -1.2630   -2.7516    0.2527 C   0  0  0  0  0  0  0  0  0  0  0  0
   -0.4490   -3.0779    1.0974 O   0  0  0  0  0  0  0  0  0  0  0  0
   -1.1297   -1.5516   -0.4199 N   0  0  0  0  0  0  0  0  0  0  0  0
   -1.7770   -1.3971   -1.1877 H   0  0  0  0  0  0  0  0  0  0  0  0
    0.0695   -0.6901   -0.3487 C   0  0  1  0  0  0  0  0  0  0  0  0
    0.9345   -1.2769   -0.6780 H   0  0  0  0  0  0  0  0  0  0  0  0
   -0.0583    0.5463   -1.2701 C   0  0  0  0  0  0  0  0  0  0  0  0
    0.5720    1.3508   -0.8719 H   0  0  0  0  0  0  0  0  0  0  0  0
    0.3517    0.2948   -2.2541 H   0  0  0  0  0  0  0  0  0  0  0  0
   -1.5036    1.0505   -1.4728 C   0  0  0  0  0  0  0  0  0  0  0  0
   -1.9717    0.5292   -2.3131 H   0  0  0  0  0  0  0  0  0  0  0  0
   -2.1047    0.8620   -0.5794 H   0  0  0  0  0  0  0  0  0  0  0  0
   -1.5339    2.5534   -1.7169 C   0  0  0  0  0  0  0  0  0  0  0  0
   -1.8159    3.0144   -2.8049 O   0  0  0  0  0  0  0  0  0  0  0  0
   -1.2706    3.4493   -0.7198 N   0  0  0  0  0  0  0  0  0  0  0  0
   -1.1547    4.4164   -1.0094 H   0  0  0  0  0  0  0  0  0  0  0  0
   -0.8344    3.1179    0.1354 H   0  0  0  0  0  0  0  0  0  0  0  0
    0.3944   -0.2008    1.0825 C   0  0  0  0  0  0  0  0  0  0  0  0
    1.5522    0.0629    1.3775 O   0  0  0  0  0  0  0  0  0  0  0  0
   -0.6230    0.2752    1.8910 N   0  0  0  0  0  0  0  0  0  0  0  0
   -1.5491   -0.0796    1.6744 H   0  0  0  0  0  0  0  0  0  0  0  0
   -0.3776    0.7809    3.2364 C   0  0  0  0  0  0  0  0  0  0  0  0
    0.3040    1.6376    3.2077 H   0  0  0  0  0  0  0  0  0  0  0  0
   -1.3165    1.1046    3.6957 H   0  0  0  0  0  0  0  0  0  0  0  0
    0.0655   -0.0004    3.8630 H   0  0  0  0  0  0  0  0  0  0  0  0
  1  2  1  0  0  0  0
  2  3  1  0  0  0  0
  2  4  1  0  0  0  0
  2  5  1  0  0  0  0
  5  6  2  0  0  0  0
  5  7  1  0  0  0  0
  7  8  1  0  0  0  0
  7  9  1  0  0  0  0
  9 10  1  0  0  0  0
  9 11  1  0  0  0  0
  9 22  1  0  0  0  0
 11 12  1  0  0  0  0
 11 13  1  0  0  0  0
 11 14  1  0  0  0  0
 14 15  1  0  0  0  0
 14 16  1  0  0  0  0
 14 17  1  0  0  0  0
 17 18  2  0  0  0  0
 17 19  1  0  0  0  0
 19 20  1  0  0  0  0
 19 21  1  0  0  0  0
 22 23  2  0  0  0  0
 22 24  1  0  0  0  0
 24 25  1  0  0  0  0
 24 26  1  0  0  0  0
 26 27  1  0  0  0  0
 26 28  1  0  0  0  0
 26 29  1  0  0  0  0
M  END
$$$$

  -OEChem-02102214123D

 29 28  0     1  0  0  0  0  0999 V2000
   -2.3432   -4.5814    0.6146 H   0  0  0  0  0  0  0  0  0  0  0  0
   -2.3963   -3.6950   -0.0241 C   0  0  0  0  0  0  0  0  0  0  0  0
   -3.3392   -3.1782    0.1698 H   0  0  0  0  0  0  0  0  0  0  0  0
   -2.3705   -4.0136   -1.0690 H   0  0  0  0  0  0  0  0  0  0  0  0
   -1.2273   -2.7724    0.2656 C   0  0  0  0  0  0  0  0  0  0  0  0
   -0.3894   -3.0935    1.0885 O   0  0  0  0  0  0  0  0  0  0  0  0
   -1.1310   -1.5633   -0.3962 N   0  0  0  0  0  0  0  0  0  0  0  0
   -1.7977   -1.4151   -1.1483 H   0  0  0  0  0  0  0  0  0  0  0  0
    0.0557   -0.6837   -0.3502 C   0  0  1  0  0  0  0  0  0  0  0  0
    0.9195   -1.2554   -0.7084 H   0  0  0  0  0  0  0  0  0  0  0  0
   -0.1171    0.5505   -1.2666 C   0  0  0  0  0  0  0  0  0  0  0  0
    0.5019    1.3708   -0.8841 H   0  0  0  0  0  0  0  0  0  0  0  0
    0.2717    0.3032   -2.2605 H   0  0  0  0  0  0  0  0  0  0  0  0
   -1.5752    1.0234   -1.4310 C   0  0  0  0  0  0  0  0  0  0  0  0
   -2.1270    0.3380   -2.0808 H   0  0  0  0  0  0  0  0  0  0  0  0
   -2.0757    1.0488   -0.4594 H   0  0  0  0  0  0  0  0  0  0  0  0
   -1.6291    2.4230   -2.0266 C   0  0  0  0  0  0  0  0  0  0  0  0
   -1.8986    2.6016   -3.1976 O   0  0  0  0  0  0  0  0  0  0  0  0
   -1.3775    3.5374   -1.2783 N   0  0  0  0  0  0  0  0  0  0  0  0
   -1.2704    4.4063   -1.7945 H   0  0  0  0  0  0  0  0  0  0  0  0
   -0.9513    3.4314   -0.3632 H   0  0  0  0  0  0  0  0  0  0  0  0
    0.4189   -0.2017    1.0742 C   0  0  0  0  0  0  0  0  0  0  0  0
    1.5835    0.0678    1.3361 O   0  0  0  0  0  0  0  0  0  0  0  0
   -0.5763    0.2518    1.9217 N   0  0  0  0  0  0  0  0  0  0  0  0
   -1.5068   -0.1038    1.7272 H   0  0  0  0  0  0  0  0  0  0  0  0
   -0.2923    0.7445    3.2642 C   0  0  0  0  0  0  0  0  0  0  0  0
    0.3731    1.6133    3.2225 H   0  0  0  0  0  0  0  0  0  0  0  0
   -1.2196    1.0458    3.7607 H   0  0  0  0  0  0  0  0  0  0  0  0
    0.1861   -0.0366    3.8645 H   0  0  0  0  0  0  0  0  0  0  0  0
  1  2  1  0  0  0  0
  2  3  1  0  0  0  0
  2  4  1  0  0  0  0
  2  5  1  0  0  0  0
  5  6  2  0  0  0  0
  5  7  1  0  0  0  0
  7  8  1  0  0  0  0
  7  9  1  0  0  0  0
  9 10  1  0  0  0  0
  9 11  1  0  0  0  0
  9 22  1  0  0  0  0
 11 12  1  0  0  0  0
 11 13  1  0  0  0  0
 11 14  1  0  0  0  0
 14 15  1  0  0  0  0
 14 16  1  0  0  0  0
 14 17  1  0  0  0  0
 17 18  2  0  0  0  0
 17 19  1  0  0  0  0
 19 20  1  0  0  0  0
 19 21  1  0  0  0  0
 22 23  2  0  0  0  0
 22 24  1  0  0  0  0
 24 25  1  0  0  0  0
 24 26  1  0  0  0  0
 26 27  1  0  0  0  0
 26 28  1  0  0  0  0
 26 29  1  0  0  0  0
M  END
$$$$

  -OEChem-02102214123D

 29 28  0     1  0  0  0  0  0999 V2000
   -2.2769   -4.6128    0.5409 H   0  0  0  0  0  0  0  0  0  0  0  0
   -2.3725   -3.6961   -0.0483 C   0  0  0  0  0  0  0  0  0  0  0  0
   -3.3143   -3.2076    0.2124 H   0  0  0  0  0  0  0  0  0  0  0  0
   -2.3877   -3.9611   -1.1083 H   0  0  0  0  0  0  0  0  0  0  0  0
   -1.2069   -2.7681    0.2386 C   0  0  0  0  0  0  0  0  0  0  0  0
   -0.3308   -3.1158    1.0095 O   0  0  0  0  0  0  0  0  0  0  0  0
   -1.1524   -1.5272   -0.3668 N   0  0  0  0  0  0  0  0  0  0  0  0
   -1.8536   -1.3483   -1.0803 H   0  0  0  0  0  0  0  0  0  0  0  0
    0.0242   -0.6363   -0.3226 C   0  0  1  0  0  0  0  0  0  0  0  0
    0.8758   -1.1887   -0.7355 H   0  0  0  0  0  0  0  0  0  0  0  0
   -0.1909    0.6133   -1.2016 C   0  0  0  0  0  0  0  0  0  0  0  0
    0.6001    1.3418   -0.9885 H   0  0  0  0  0  0  0  0  0  0  0  0
   -0.0774    0.3153   -2.2501 H   0  0  0  0  0  0  0  0  0  0  0  0
   -1.5707    1.2808   -1.0377 C   0  0  0  0  0  0  0  0  0  0  0  0
   -2.3735    0.5863   -1.2983 H   0  0  0  0  0  0  0  0  0  0  0  0
   -1.7204    1.5952   -0.0018 H   0  0  0  0  0  0  0  0  0  0  0  0
   -1.6818    2.4981   -1.9434 C   0  0  0  0  0  0  0  0  0  0  0  0
   -2.1532    2.4116   -3.0603 O   0  0  0  0  0  0  0  0  0  0  0  0
   -1.2177    3.7253   -1.5651 N   0  0  0  0  0  0  0  0  0  0  0  0
   -1.1623    4.4286   -2.2963 H   0  0  0  0  0  0  0  0  0  0  0  0
   -0.6337    3.7992   -0.7383 H   0  0  0  0  0  0  0  0  0  0  0  0
    0.4492   -0.2109    1.1026 C   0  0  0  0  0  0  0  0  0  0  0  0
    1.6230    0.0606    1.3186 O   0  0  0  0  0  0  0  0  0  0  0  0
   -0.5056    0.1942    2.0183 N   0  0  0  0  0  0  0  0  0  0  0  0
   -1.4447   -0.1521    1.8491 H   0  0  0  0  0  0  0  0  0  0  0  0
   -0.1617    0.6309    3.3660 C   0  0  0  0  0  0  0  0  0  0  0  0
    0.4895    1.5106    3.3313 H   0  0  0  0  0  0  0  0  0  0  0  0
   -1.0671    0.8960    3.9200 H   0  0  0  0  0  0  0  0  0  0  0  0
    0.3555   -0.1689    3.9064 H   0  0  0  0  0  0  0  0  0  0  0  0
  1  2  1  0  0  0  0
  2  3  1  0  0  0  0
  2  4  1  0  0  0  0
  2  5  1  0  0  0  0
  5  6  2  0  0  0  0
  5  7  1  0  0  0  0
  7  8  1  0  0  0  0
  7  9  1  0  0  0  0
  9 10  1  0  0  0  0
  9 11  1  0  0  0  0
  9 22  1  0  0  0  0
 11 12  1  0  0  0  0
 11 13  1  0  0  0  0
 11 14  1  0  0  0  0
 14 15  1  0  0  0  0
 14 16  1  0  0  0  0
 14 17  1  0  0  0  0
 17 18  2  0  0  0  0
 17 19  1  0  0  0  0
 19 20  1  0  0  0  0
 19 21  1  0  0  0  0
 22 23  2  0  0  0  0
 22 24  1  0  0  0  0
 24 25  1  0  0  0  0
 24 26  1  0  0  0  0
 26 27  1  0  0  0  0
 26 28  1  0  0  0  0
 26 29  1  0  0  0  0
M  END
$$$$

  -OEChem-02102214123D

 29 28  0     1  0  0  0  0  0999 V2000
   -2.2388   -4.6446    0.5365 H   0  0  0  0  0  0  0  0  0  0  0  0
   -2.3633   -3.7119   -0.0212 C   0  0  0  0  0  0  0  0  0  0  0  0
   -3.2963   -3.2376    0.2923 H   0  0  0  0  0  0  0  0  0  0  0  0
   -2.4198   -3.9450   -1.0873 H   0  0  0  0  0  0  0  0  0  0  0  0
   -1.1926   -2.7843    0.2451 C   0  0  0  0  0  0  0  0  0  0  0  0
   -0.2988   -3.1357    0.9939 O   0  0  0  0  0  0  0  0  0  0  0  0
   -1.1575   -1.5382   -0.3509 N   0  0  0  0  0  0  0  0  0  0  0  0
   -1.8713   -1.3613   -1.0529 H   0  0  0  0  0  0  0  0  0  0  0  0
    0.0166   -0.6431   -0.3300 C   0  0  1  0  0  0  0  0  0  0  0  0
    0.8594   -1.1857   -0.7730 H   0  0  0  0  0  0  0  0  0  0  0  0
   -0.2264    0.6245   -1.1771 C   0  0  0  0  0  0  0  0  0  0  0  0
    0.5740    1.3505   -0.9917 H   0  0  0  0  0  0  0  0  0  0  0  0
   -0.1511    0.3292   -2.2298 H   0  0  0  0  0  0  0  0  0  0  0  0
   -1.5985    1.2994   -0.9649 C   0  0  0  0  0  0  0  0  0  0  0  0
   -2.4094    0.5677   -0.9662 H   0  0  0  0  0  0  0  0  0  0  0  0
   -1.6175    1.8144   -0.0008 H   0  0  0  0  0  0  0  0  0  0  0  0
   -1.8820    2.2927   -2.0821 C   0  0  0  0  0  0  0  0  0  0  0  0
   -2.4246    1.9408   -3.1114 O   0  0  0  0  0  0  0  0  0  0  0  0
   -1.4922    3.5992   -2.0083 N   0  0  0  0  0  0  0  0  0  0  0  0
   -1.5539    4.1355   -2.8693 H   0  0  0  0  0  0  0  0  0  0  0  0
   -0.8566    3.8855   -1.2709 H   0  0  0  0  0  0  0  0  0  0  0  0
    0.4729   -0.2310    1.0885 C   0  0  0  0  0  0  0  0  0  0  0  0
    1.6523    0.0314    1.2847 O   0  0  0  0  0  0  0  0  0  0  0  0
   -0.4628    0.1607    2.0292 N   0  0  0  0  0  0  0  0  0  0  0  0
   -1.4067   -0.1778    1.8714 H   0  0  0  0  0  0  0  0  0  0  0  0
   -0.0900    0.5712    3.3773 C   0  0  0  0  0  0  0  0  0  0  0  0
    0.5671    1.4466    3.3451 H   0  0  0  0  0  0  0  0  0  0  0  0
   -0.9825    0.8328    3.9536 H   0  0  0  0  0  0  0  0  0  0  0  0
    0.4319   -0.2417    3.8933 H   0  0  0  0  0  0  0  0  0  0  0  0
  1  2  1  0  0  0  0
  2  3  1  0  0  0  0
  2  4  1  0  0  0  0
  2  5  1  0  0  0  0
  5  6  2  0  0  0  0
  5  7  1  0  0  0  0
  7  8  1  0  0  0  0
  7  9  1  0  0  0  0
  9 10  1  0  0  0  0
  9 11  1  0  0  0  0
  9 22  1  0  0  0  0
 11 12  1  0  0  0  0
 11 13  1  0  0  0  0
 11 14  1  0  0  0  0
 14 15  1  0  0  0  0
 14 16  1  0  0  0  0
 14 17  1  0  0  0  0
 17 18  2  0  0  0  0
 17 19  1  0  0  0  0
 19 20  1  0  0  0  0
 19 21  1  0  0  0  0
 22 23  2  0  0  0  0
 22 24  1  0  0  0  0
 24 25  1  0  0  0  0
 24 26  1  0  0  0  0
 26 27  1  0  0  0  0
 26 28  1  0  0  0  0
 26 29  1  0  0  0  0
M  END
$$$$

  -OEChem-02102214123D

 29 28  0     1  0  0  0  0  0999 V2000
   -2.2171   -4.6711    0.4830 H   0  0  0  0  0  0  0  0  0  0  0  0
   -2.3739   -3.7060   -0.0072 C   0  0  0  0  0  0  0  0  0  0  0  0
   -3.2832   -3.2513    0.3930 H   0  0  0  0  0  0  0  0  0  0  0  0
   -2.4993   -3.8745   -1.0796 H   0  0  0  0  0  0  0  0  0  0  0  0
   -1.1862   -2.7954    0.2404 C   0  0  0  0  0  0  0  0  0  0  0  0
   -0.2775   -3.1649    0.9620 O   0  0  0  0  0  0  0  0  0  0  0  0
   -1.1525   -1.5434   -0.3421 N   0  0  0  0  0  0  0  0  0  0  0  0
   -1.8807   -1.3507   -1.0258 H   0  0  0  0  0  0  0  0  0  0  0  0
    0.0262   -0.6541   -0.3318 C   0  0  1  0  0  0  0  0  0  0  0  0
    0.8592   -1.1910   -0.7996 H   0  0  0  0  0  0  0  0  0  0  0  0
   -0.2336    0.6298   -1.1487 C   0  0  0  0  0  0  0  0  0  0  0  0
    0.5756    1.3499   -0.9806 H   0  0  0  0  0  0  0  0  0  0  0  0
   -0.1848    0.3410   -2.2051 H   0  0  0  0  0  0  0  0  0  0  0  0
   -1.5983    1.3129   -0.8943 C   0  0  0  0  0  0  0  0  0  0  0  0
   -2.3732    0.5943   -0.6215 H   0  0  0  0  0  0  0  0  0  0  0  0
   -1.5065    2.0177   -0.0632 H   0  0  0  0  0  0  0  0  0  0  0  0
   -2.0822    2.0405   -2.1394 C   0  0  0  0  0  0  0  0  0  0  0  0
   -2.6689    1.4438   -3.0215 O   0  0  0  0  0  0  0  0  0  0  0  0
   -1.8316    3.3654   -2.3528 N   0  0  0  0  0  0  0  0  0  0  0  0
   -2.0292    3.7169   -3.2854 H   0  0  0  0  0  0  0  0  0  0  0  0
   -1.1745    3.8498   -1.7503 H   0  0  0  0  0  0  0  0  0  0  0  0
    0.5063   -0.2603    1.0838 C   0  0  0  0  0  0  0  0  0  0  0  0
    1.6901   -0.0090    1.2669 O   0  0  0  0  0  0  0  0  0  0  0  0
   -0.4147    0.1251    2.0416 N   0  0  0  0  0  0  0  0  0  0  0  0
   -1.3637   -0.2021    1.8916 H   0  0  0  0  0  0  0  0  0  0  0  0
   -0.0237    0.5286    3.3867 C   0  0  0  0  0  0  0  0  0  0  0  0
    0.6474    1.3931    3.3491 H   0  0  0  0  0  0  0  0  0  0  0  0
   -0.9070    0.8048    3.9704 H   0  0  0  0  0  0  0  0  0  0  0  0
    0.4891   -0.2929    3.8980 H   0  0  0  0  0  0  0  0  0  0  0  0
  1  2  1  0  0  0  0
  2  3  1  0  0  0  0
  2  4  1  0  0  0  0
  2  5  1  0  0  0  0
  5  6  2  0  0  0  0
  5  7  1  0  0  0  0
  7  8  1  0  0  0  0
  7  9  1  0  0  0  0
  9 10  1  0  0  0  0
  9 11  1  0  0  0  0
  9 22  1  0  0  0  0
 11 12  1  0  0  0  0
 11 13  1  0  0  0  0
 11 14  1  0  0  0  0
 14 15  1  0  0  0  0
 14 16  1  0  0  0  0
 14 17  1  0  0  0  0
 17 18  2  0  0  0  0
 17 19  1  0  0  0  0
 19 20  1  0  0  0  0
 19 21  1  0  0  0  0
 22 23  2  0  0  0  0
 22 24  1  0  0  0  0
 24 25  1  0  0  0  0
 24 26  1  0  0  0  0
 26 27  1  0  0  0  0
 26 28  1  0  0  0  0
 26 29  1  0  0  0  0
M  END
$$$$

  -OEChem-02102214123D

 29 28  0     1  0  0  0  0  0999 V2000
   -2.3378   -4.5943    0.5568 H   0  0  0  0  0  0  0  0  0  0  0  0
   -2.4188   -3.6685   -0.0200 C   0  0  0  0  0  0  0  0  0  0  0  0
   -3.3354   -3.1508    0.2728 H   0  0  0  0  0  0  0  0  0  0  0  0
   -2.4735   -3.9192   -1.0822 H   0  0  0  0  0  0  0  0  0  0  0  0
   -1.2144   -2.7834    0.2406 C   0  0  0  0  0  0  0  0  0  0  0  0
   -0.3108   -3.1808    0.9541 O   0  0  0  0  0  0  0  0  0  0  0  0
   -1.1562   -1.5256   -0.3265 N   0  0  0  0  0  0  0  0  0  0  0  0
   -1.8889   -1.3053   -0.9989 H   0  0  0  0  0  0  0  0  0  0  0  0
    0.0436   -0.6644   -0.3227 C   0  0  1  0  0  0  0  0  0  0  0  0
    0.8567   -1.2142   -0.8102 H   0  0  0  0  0  0  0  0  0  0  0  0
   -0.2119    0.6262   -1.1283 C   0  0  0  0  0  0  0  0  0  0  0  0
    0.6081    1.3348   -0.9629 H   0  0  0  0  0  0  0  0  0  0  0  0
   -0.1751    0.3473   -2.1878 H   0  0  0  0  0  0  0  0  0  0  0  0
   -1.5646    1.3248   -0.8432 C   0  0  0  0  0  0  0  0  0  0  0  0
   -2.2568    0.6859   -0.2915 H   0  0  0  0  0  0  0  0  0  0  0  0
   -1.3883    2.2051   -0.2189 H   0  0  0  0  0  0  0  0  0  0  0  0
   -2.2467    1.7455   -2.1355 C   0  0  0  0  0  0  0  0  0  0  0  0
   -2.9021    0.9429   -2.7725 O   0  0  0  0  0  0  0  0  0  0  0  0
   -2.1133    2.9976   -2.6637 N   0  0  0  0  0  0  0  0  0  0  0  0
   -2.6924    3.2190   -3.4690 H   0  0  0  0  0  0  0  0  0  0  0  0
   -1.6945    3.7364   -2.1083 H   0  0  0  0  0  0  0  0  0  0  0  0
    0.5573   -0.2961    1.0878 C   0  0  0  0  0  0  0  0  0  0  0  0
    1.7501   -0.0765    1.2530 O   0  0  0  0  0  0  0  0  0  0  0  0
   -0.3369    0.1015    2.0657 N   0  0  0  0  0  0  0  0  0  0  0  0
   -1.2948   -0.2061    1.9308 H   0  0  0  0  0  0  0  0  0  0  0  0
    0.0881    0.4808    3.4074 C   0  0  0  0  0  0  0  0  0  0  0  0
    0.7666    1.3394    3.3668 H   0  0  0  0  0  0  0  0  0  0  0  0
   -0.7791    0.7561    4.0149 H   0  0  0  0  0  0  0  0  0  0  0  0
    0.6042   -0.3532    3.8950 H   0  0  0  0  0  0  0  0  0  0  0  0
  1  2  1  0  0  0  0
  2  3  1  0  0  0  0
  2  4  1  0  0  0  0
  2  5  1  0  0  0  0
  5  6  2  0  0  0  0
  5  7  1  0  0  0  0
  7  8  1  0  0  0  0
  7  9  1  0  0  0  0
  9 10  1  0  0  0  0
  9 11  1  0  0  0  0
  9 22  1  0  0  0  0
 11 12  1  0  0  0  0
 11 13  1  0  0  0  0
 11 14  1  0  0  0  0
 14 15  1  0  0  0  0
 14 16  1  0  0  0  0
 14 17  1  0  0  0  0
 17 18  2  0  0  0  0
 17 19  1  0  0  0  0
 19 20  1  0  0  0  0
 19 21  1  0  0  0  0
 22 23  2  0  0  0  0
 22 24  1  0  0  0  0
 24 25  1  0  0  0  0
 24 26  1  0  0  0  0
 26 27  1  0  0  0  0
 26 28  1  0  0  0  0
 26 29  1  0  0  0  0
M  END
$$$$

  -OEChem-02102214123D

 29 28  0     1  0  0  0  0  0999 V2000
   -2.4343   -4.5245    0.5299 H   0  0  0  0  0  0  0  0  0  0  0  0
   -2.4836   -3.5930   -0.0411 C   0  0  0  0  0  0  0  0  0  0  0  0
   -3.3835   -3.0473    0.2524 H   0  0  0  0  0  0  0  0  0  0  0  0
   -2.5437   -3.8346   -1.1052 H   0  0  0  0  0  0  0  0  0  0  0  0
   -1.2518   -2.7496    0.2280 C   0  0  0  0  0  0  0  0  0  0  0  0
   -0.3611   -3.1822    0.9378 O   0  0  0  0  0  0  0  0  0  0  0  0
   -1.1545   -1.4879   -0.3228 N   0  0  0  0  0  0  0  0  0  0  0  0
   -1.8847   -1.2323   -0.9894 H   0  0  0  0  0  0  0  0  0  0  0  0
    0.0711   -0.6633   -0.3121 C   0  0  1  0  0  0  0  0  0  0  0  0
    0.8665   -1.2267   -0.8126 H   0  0  0  0  0  0  0  0  0  0  0  0
   -0.1773    0.6316   -1.1100 C   0  0  0  0  0  0  0  0  0  0  0  0
    0.6457    1.3312   -0.9236 H   0  0  0  0  0  0  0  0  0  0  0  0
   -0.1374    0.3810   -2.1762 H   0  0  0  0  0  0  0  0  0  0  0  0
   -1.5239    1.3264   -0.7895 C   0  0  0  0  0  0  0  0  0  0  0  0
   -2.0818    0.8177   -0.0002 H   0  0  0  0  0  0  0  0  0  0  0  0
   -1.3197    2.3360   -0.4227 H   0  0  0  0  0  0  0  0  0  0  0  0
   -2.3959    1.4241   -2.0296 C   0  0  0  0  0  0  0  0  0  0  0  0
   -2.9714    0.4318   -2.4376 O   0  0  0  0  0  0  0  0  0  0  0  0
   -2.5264    2.5713   -2.7584 N   0  0  0  0  0  0  0  0  0  0  0  0
   -3.2222    2.5661   -3.4991 H   0  0  0  0  0  0  0  0  0  0  0  0
   -2.1804    3.4475   -2.3811 H   0  0  0  0  0  0  0  0  0  0  0  0
    0.6055   -0.3242    1.0980 C   0  0  0  0  0  0  0  0  0  0  0  0
    1.8054   -0.1392    1.2553 O   0  0  0  0  0  0  0  0  0  0  0  0
   -0.2694    0.0907    2.0860 N   0  0  0  0  0  0  0  0  0  0  0  0
   -1.2350   -0.1952    1.9585 H   0  0  0  0  0  0  0  0  0  0  0  0
    0.1766    0.4480    3.4265 C   0  0  0  0  0  0  0  0  0  0  0  0
    0.8755    1.2901    3.3871 H   0  0  0  0  0  0  0  0  0  0  0  0
   -0.6780    0.7396    4.0441 H   0  0  0  0  0  0  0  0  0  0  0  0
    0.6762   -0.4025    3.9022 H   0  0  0  0  0  0  0  0  0  0  0  0
  1  2  1  0  0  0  0
  2  3  1  0  0  0  0
  2  4  1  0  0  0  0
  2  5  1  0  0  0  0
  5  6  2  0  0  0  0
  5  7  1  0  0  0  0
  7  8  1  0  0  0  0
  7  9  1  0  0  0  0
  9 10  1  0  0  0  0
  9 11  1  0  0  0  0
  9 22  1  0  0  0  0
 11 12  1  0  0  0  0
 11 13  1  0  0  0  0
 11 14  1  0  0  0  0
 14 15  1  0  0  0  0
 14 16  1  0  0  0  0
 14 17  1  0  0  0  0
 17 18  2  0  0  0  0
 17 19  1  0  0  0  0
 19 20  1  0  0  0  0
 19 21  1  0  0  0  0
 22 23  2  0  0  0  0
 22 24  1  0  0  0  0
 24 25  1  0  0  0  0
 24 26  1  0  0  0  0
 26 27  1  0  0  0  0
 26 28  1  0  0  0  0
 26 29  1  0  0  0  0
M  END
$$$$

  -OEChem-02102214123D

 29 28  0     1  0  0  0  0  0999 V2000
   -2.4946   -4.4747    0.5187 H   0  0  0  0  0  0  0  0  0  0  0  0
   -2.5364   -3.5272   -0.0255 C   0  0  0  0  0  0  0  0  0  0  0  0
   -3.4069   -2.9618    0.3159 H   0  0  0  0  0  0  0  0  0  0  0  0
   -2.6446   -3.7370   -1.0924 H   0  0  0  0  0  0  0  0  0  0  0  0
   -1.2708   -2.7278    0.2176 C   0  0  0  0  0  0  0  0  0  0  0  0
   -0.3694   -3.1979    0.8896 O   0  0  0  0  0  0  0  0  0  0  0  0
   -1.1590   -1.4582   -0.3091 N   0  0  0  0  0  0  0  0  0  0  0  0
   -1.9148   -1.1638   -0.9342 H   0  0  0  0  0  0  0  0  0  0  0  0
    0.0754   -0.6495   -0.3032 C   0  0  1  0  0  0  0  0  0  0  0  0
    0.8554   -1.2212   -0.8188 H   0  0  0  0  0  0  0  0  0  0  0  0
   -0.1603    0.6520   -1.0970 C   0  0  0  0  0  0  0  0  0  0  0  0
    0.6679    1.3395   -0.8895 H   0  0  0  0  0  0  0  0  0  0  0  0
   -0.1178    0.4243   -2.1681 H   0  0  0  0  0  0  0  0  0  0  0  0
   -1.4973    1.3558   -0.7650 C   0  0  0  0  0  0  0  0  0  0  0  0
   -1.9131    1.0146    0.1863 H   0  0  0  0  0  0  0  0  0  0  0  0
   -1.3124    2.4286   -0.6627 H   0  0  0  0  0  0  0  0  0  0  0  0
   -2.5196    1.1499   -1.8736 C   0  0  0  0  0  0  0  0  0  0  0  0
   -3.0273    0.0543   -2.0385 O   0  0  0  0  0  0  0  0  0  0  0  0
   -2.8667    2.1349   -2.7531 N   0  0  0  0  0  0  0  0  0  0  0  0
   -3.6386    1.9358   -3.3837 H   0  0  0  0  0  0  0  0  0  0  0  0
   -2.5794    3.0917   -2.5745 H   0  0  0  0  0  0  0  0  0  0  0  0
    0.6367   -0.3422    1.1040 C   0  0  0  0  0  0  0  0  0  0  0  0
    1.8414   -0.1745    1.2433 O   0  0  0  0  0  0  0  0  0  0  0  0
   -0.2137    0.0650    2.1162 N   0  0  0  0  0  0  0  0  0  0  0  0
   -1.1842   -0.2108    2.0038 H   0  0  0  0  0  0  0  0  0  0  0  0
    0.2630    0.3942    3.4534 C   0  0  0  0  0  0  0  0  0  0  0  0
    0.9688    1.2304    3.4146 H   0  0  0  0  0  0  0  0  0  0  0  0
   -0.5759    0.6824    4.0936 H   0  0  0  0  0  0  0  0  0  0  0  0
    0.7639   -0.4693    3.9035 H   0  0  0  0  0  0  0  0  0  0  0  0
  1  2  1  0  0  0  0
  2  3  1  0  0  0  0
  2  4  1  0  0  0  0
  2  5  1  0  0  0  0
  5  6  2  0  0  0  0
  5  7  1  0  0  0  0
  7  8  1  0  0  0  0
  7  9  1  0  0  0  0
  9 10  1  0  0  0  0
  9 11  1  0  0  0  0
  9 22  1  0  0  0  0
 11 12  1  0  0  0  0
 11 13  1  0  0  0  0
 11 14  1  0  0  0  0
 14 15  1  0  0  0  0
 14 16  1  0  0  0  0
 14 17  1  0  0  0  0
 17 18  2  0  0  0  0
 17 19  1  0  0  0  0
 19 20  1  0  0  0  0
 19 21  1  0  0  0  0
 22 23  2  0  0  0  0
 22 24  1  0  0  0  0
 24 25  1  0  0  0  0
 24 26  1  0  0  0  0
 26 27  1  0  0  0  0
 26 28  1  0  0  0  0
 26 29  1  0  0  0  0
M  END
$$$$

  -OEChem-02102214123D

 29 28  0     1  0  0  0  0  0999 V2000
   -2.5344   -4.4953    0.5536 H   0  0  0  0  0  0  0  0  0  0  0  0
   -2.5578   -3.5475    0.0084 C   0  0  0  0  0  0  0  0  0  0  0  0
   -3.4403   -2.9830    0.3186 H   0  0  0  0  0  0  0  0  0  0  0  0
   -2.6279   -3.7576   -1.0619 H   0  0  0  0  0  0  0  0  0  0  0  0
   -1.3022   -2.7463    0.2956 C   0  0  0  0  0  0  0  0  0  0  0  0
   -0.4507   -3.1932    1.0442 O   0  0  0  0  0  0  0  0  0  0  0  0
   -1.1466   -1.5029   -0.2807 N   0  0  0  0  0  0  0  0  0  0  0  0
   -1.8413   -1.2602   -0.9920 H   0  0  0  0  0  0  0  0  0  0  0  0
    0.1060   -0.7283   -0.2821 C   0  0  1  0  0  0  0  0  0  0  0  0
    0.8787   -1.3511   -0.7468 H   0  0  0  0  0  0  0  0  0  0  0  0
   -0.0281    0.5577   -1.1333 C   0  0  0  0  0  0  0  0  0  0  0  0
    0.8341    1.1986   -0.9165 H   0  0  0  0  0  0  0  0  0  0  0  0
    0.0440    0.2848   -2.1918 H   0  0  0  0  0  0  0  0  0  0  0  0
   -1.3222    1.3820   -0.9200 C   0  0  0  0  0  0  0  0  0  0  0  0
   -1.6471    1.3198    0.1212 H   0  0  0  0  0  0  0  0  0  0  0  0
   -1.0837    2.4301   -1.1209 H   0  0  0  0  0  0  0  0  0  0  0  0
   -2.4898    0.9984   -1.8302 C   0  0  0  0  0  0  0  0  0  0  0  0
   -2.7170   -0.1474   -2.1764 O   0  0  0  0  0  0  0  0  0  0  0  0
   -3.3722    1.9341   -2.2875 N   0  0  0  0  0  0  0  0  0  0  0  0
   -4.1913    1.5948   -2.7841 H   0  0  0  0  0  0  0  0  0  0  0  0
   -3.3353    2.8839   -1.9319 H   0  0  0  0  0  0  0  0  0  0  0  0
    0.6377   -0.3830    1.1283 C   0  0  0  0  0  0  0  0  0  0  0  0
    1.8421   -0.2395    1.2962 O   0  0  0  0  0  0  0  0  0  0  0  0
   -0.2306    0.0835    2.0989 N   0  0  0  0  0  0  0  0  0  0  0  0
   -1.2019   -0.1821    1.9699 H   0  0  0  0  0  0  0  0  0  0  0  0
    0.2158    0.4485    3.4373 C   0  0  0  0  0  0  0  0  0  0  0  0
    0.9453    1.2638    3.3897 H   0  0  0  0  0  0  0  0  0  0  0  0
   -0.6333    0.7825    4.0410 H   0  0  0  0  0  0  0  0  0  0  0  0
    0.6794   -0.4105    3.9336 H   0  0  0  0  0  0  0  0  0  0  0  0
  1  2  1  0  0  0  0
  2  3  1  0  0  0  0
  2  4  1  0  0  0  0
  2  5  1  0  0  0  0
  5  6  2  0  0  0  0
  5  7  1  0  0  0  0
  7  8  1  0  0  0  0
  7  9  1  0  0  0  0
  9 10  1  0  0  0  0
  9 11  1  0  0  0  0
  9 22  1  0  0  0  0
 11 12  1  0  0  0  0
 11 13  1  0  0  0  0
 11 14  1  0  0  0  0
 14 15  1  0  0  0  0
 14 16  1  0  0  0  0
 14 17  1  0  0  0  0
 17 18  2  0  0  0  0
 17 19  1  0  0  0  0
 19 20  1  0  0  0  0
 19 21  1  0  0  0  0
 22 23  2  0  0  0  0
 22 24  1  0  0  0  0
 24 25  1  0  0  0  0
 24 26  1  0  0  0  0
 26 27  1  0  0  0  0
 26 28  1  0  0  0  0
 26 29  1  0  0  0  0
M  END
$$$$

  -OEChem-02102214123D

 29 28  0     1  0  0  0  0  0999 V2000
   -2.5588   -4.4920    0.5607 H   0  0  0  0  0  0  0  0  0  0  0  0
   -2.5751   -3.5444    0.0148 C   0  0  0  0  0  0  0  0  0  0  0  0
   -3.4659   -2.9831    0.3067 H   0  0  0  0  0  0  0  0  0  0  0  0
   -2.6217   -3.7556   -1.0565 H   0  0  0  0  0  0  0  0  0  0  0  0
   -1.3296   -2.7378    0.3288 C   0  0  0  0  0  0  0  0  0  0  0  0
   -0.5187   -3.1592    1.1349 O   0  0  0  0  0  0  0  0  0  0  0  0
   -1.1415   -1.5164   -0.2848 N   0  0  0  0  0  0  0  0  0  0  0  0
   -1.7884   -1.3137   -1.0513 H   0  0  0  0  0  0  0  0  0  0  0  0
    0.1269   -0.7676   -0.2809 C   0  0  1  0  0  0  0  0  0  0  0  0
    0.8971   -1.4194   -0.7075 H   0  0  0  0  0  0  0  0  0  0  0  0
    0.0543    0.5062   -1.1610 C   0  0  0  0  0  0  0  0  0  0  0  0
    0.9363    1.1201   -0.9454 H   0  0  0  0  0  0  0  0  0  0  0  0
    0.1353    0.1997   -2.2094 H   0  0  0  0  0  0  0  0  0  0  0  0
   -1.2090    1.3927   -1.0144 C   0  0  0  0  0  0  0  0  0  0  0  0
   -1.4012    1.5728    0.0460 H   0  0  0  0  0  0  0  0  0  0  0  0
   -0.9912    2.3611   -1.4728 H   0  0  0  0  0  0  0  0  0  0  0  0
   -2.4937    0.8720   -1.6600 C   0  0  0  0  0  0  0  0  0  0  0  0
   -2.5594   -0.1627   -2.3000 O   0  0  0  0  0  0  0  0  0  0  0  0
   -3.6705    1.5504   -1.5284 N   0  0  0  0  0  0  0  0  0  0  0  0
   -4.4330    1.2414   -2.1253 H   0  0  0  0  0  0  0  0  0  0  0  0
   -3.6506    2.5041   -1.1817 H   0  0  0  0  0  0  0  0  0  0  0  0
    0.6257   -0.3928    1.1340 C   0  0  0  0  0  0  0  0  0  0  0  0
    1.8275   -0.2702    1.3344 O   0  0  0  0  0  0  0  0  0  0  0  0
   -0.2617    0.1184    2.0640 N   0  0  0  0  0  0  0  0  0  0  0  0
   -1.2332   -0.1351    1.9135 H   0  0  0  0  0  0  0  0  0  0  0  0
    0.1525    0.5052    3.4067 C   0  0  0  0  0  0  0  0  0  0  0  0
    0.9064    1.2981    3.3623 H   0  0  0  0  0  0  0  0  0  0  0  0
   -0.7051    0.8781    3.9742 H   0  0  0  0  0  0  0  0  0  0  0  0
    0.5753   -0.3537    3.9385 H   0  0  0  0  0  0  0  0  0  0  0  0
  1  2  1  0  0  0  0
  2  3  1  0  0  0  0
  2  4  1  0  0  0  0
  2  5  1  0  0  0  0
  5  6  2  0  0  0  0
  5  7  1  0  0  0  0
  7  8  1  0  0  0  0
  7  9  1  0  0  0  0
  9 10  1  0  0  0  0
  9 11  1  0  0  0  0
  9 22  1  0  0  0  0
 11 12  1  0  0  0  0
 11 13  1  0  0  0  0
 11 14  1  0  0  0  0
 14 15  1  0  0  0  0
 14 16  1  0  0  0  0
 14 17  1  0  0  0  0
 17 18  2  0  0  0  0
 17 19  1  0  0  0  0
 19 20  1  0  0  0  0
 19 21  1  0  0  0  0
 22 23  2  0  0  0  0
 22 24  1  0  0  0  0
 24 25  1  0  0  0  0
 24 26  1  0  0  0  0
 26 27  1  0  0  0  0
 26 28  1  0  0  0  0
 26 29  1  0  0  0  0
M  END
$$$$

  -OEChem-02102214123D

 29 28  0     1  0  0  0  0  0999 V2000
   -2.5438   -4.5145    0.5525 H   0  0  0  0  0  0  0  0  0  0  0  0
   -2.5721   -3.5571    0.0250 C   0  0  0  0  0  0  0  0  0  0  0  0
   -3.4607   -3.0055    0.3407 H   0  0  0  0  0  0  0  0  0  0  0  0
   -2.6349   -3.7489   -1.0492 H   0  0  0  0  0  0  0  0  0  0  0  0
   -1.3246   -2.7517    0.3347 C   0  0  0  0  0  0  0  0  0  0  0  0
   -0.5186   -3.1654    1.1496 O   0  0  0  0  0  0  0  0  0  0  0  0
   -1.1263   -1.5424   -0.2994 N   0  0  0  0  0  0  0  0  0  0  0  0
   -1.7752   -1.3438   -1.0654 H   0  0  0  0  0  0  0  0  0  0  0  0
    0.1392   -0.7888   -0.2920 C   0  0  1  0  0  0  0  0  0  0  0  0
    0.9174   -1.4473   -0.6935 H   0  0  0  0  0  0  0  0  0  0  0  0
    0.0961    0.4827   -1.1814 C   0  0  0  0  0  0  0  0  0  0  0  0
    0.9911    1.0810   -0.9749 H   0  0  0  0  0  0  0  0  0  0  0  0
    0.1746    0.1500   -2.2220 H   0  0  0  0  0  0  0  0  0  0  0  0
   -1.1454    1.4091   -1.0894 C   0  0  0  0  0  0  0  0  0  0  0  0
   -1.2009    1.8007   -0.0703 H   0  0  0  0  0  0  0  0  0  0  0  0
   -0.9850    2.2611   -1.7556 H   0  0  0  0  0  0  0  0  0  0  0  0
   -2.5057    0.8095   -1.4395 C   0  0  0  0  0  0  0  0  0  0  0  0
   -2.6437   -0.1340   -2.1980 O   0  0  0  0  0  0  0  0  0  0  0  0
   -3.6572    1.2915   -0.8876 N   0  0  0  0  0  0  0  0  0  0  0  0
   -4.5220    0.9644   -1.3097 H   0  0  0  0  0  0  0  0  0  0  0  0
   -3.6317    2.1923   -0.4203 H   0  0  0  0  0  0  0  0  0  0  0  0
    0.6069   -0.3873    1.1260 C   0  0  0  0  0  0  0  0  0  0  0  0
    1.8031   -0.2531    1.3502 O   0  0  0  0  0  0  0  0  0  0  0  0
   -0.3051    0.1363    2.0252 N   0  0  0  0  0  0  0  0  0  0  0  0
   -1.2713   -0.1267    1.8575 H   0  0  0  0  0  0  0  0  0  0  0  0
    0.0749    0.5543    3.3687 C   0  0  0  0  0  0  0  0  0  0  0  0
    0.8378    1.3388    3.3261 H   0  0  0  0  0  0  0  0  0  0  0  0
   -0.7947    0.9502    3.9016 H   0  0  0  0  0  0  0  0  0  0  0  0
    0.4738   -0.2946    3.9340 H   0  0  0  0  0  0  0  0  0  0  0  0
  1  2  1  0  0  0  0
  2  3  1  0  0  0  0
  2  4  1  0  0  0  0
  2  5  1  0  0  0  0
  5  6  2  0  0  0  0
  5  7  1  0  0  0  0
  7  8  1  0  0  0  0
  7  9  1  0  0  0  0
  9 10  1  0  0  0  0
  9 11  1  0  0  0  0
  9 22  1  0  0  0  0
 11 12  1  0  0  0  0
 11 13  1  0  0  0  0
 11 14  1  0  0  0  0
 14 15  1  0  0  0  0
 14 16  1  0  0  0  0
 14 17  1  0  0  0  0
 17 18  2  0  0  0  0
 17 19  1  0  0  0  0
 19 20  1  0  0  0  0
 19 21  1  0  0  0  0
 22 23  2  0  0  0  0
 22 24  1  0  0  0  0
 24 25  1  0  0  0  0
 24 26  1  0  0  0  0
 26 27  1  0  0  0  0
 26 28  1  0  0  0  0
 26 29  1  0  0  0  0
M  END
$$$$

  -OEChem-02102214123D

 29 28  0     1  0  0  0  0  0999 V2000
   -2.2538   -4.5830    0.7137 H   0  0  0  0  0  0  0  0  0  0  0  0
   -2.3389   -3.6602    0.1331 C   0  0  0  0  0  0  0  0  0  0  0  0
   -3.2489   -3.1355    0.4336 H   0  0  0  0  0  0  0  0  0  0  0  0
   -2.4093   -3.9159   -0.9269 H   0  0  0  0  0  0  0  0  0  0  0  0
   -1.1289   -2.7775    0.3728 C   0  0  0  0  0  0  0  0  0  0  0  0
   -0.2730   -3.1184    1.1703 O   0  0  0  0  0  0  0  0  0  0  0  0
   -1.0230   -1.5778   -0.3003 N   0  0  0  0  0  0  0  0  0  0  0  0
   -1.7230   -1.4188   -1.0296 H   0  0  0  0  0  0  0  0  0  0  0  0
    0.1723   -0.7164   -0.3109 C   0  0  1  0  0  0  0  0  0  0  0  0
    1.0097   -1.3173   -0.6825 H   0  0  0  0  0  0  0  0  0  0  0  0
    0.0441    0.5316   -1.2267 C   0  0  0  0  0  0  0  0  0  0  0  0
    0.9020    1.1896   -1.0466 H   0  0  0  0  0  0  0  0  0  0  0  0
    0.1430    0.1645   -2.2539 H   0  0  0  0  0  0  0  0  0  0  0  0
   -1.2502    1.3901   -1.1916 C   0  0  0  0  0  0  0  0  0  0  0  0
   -1.2121    1.9988   -0.2839 H   0  0  0  0  0  0  0  0  0  0  0  0
   -1.2329    2.0784   -2.0411 H   0  0  0  0  0  0  0  0  0  0  0  0
   -2.5960    0.6730   -1.2045 C   0  0  0  0  0  0  0  0  0  0  0  0
   -2.8450   -0.2348   -1.9778 O   0  0  0  0  0  0  0  0  0  0  0  0
   -3.5722    0.9575   -0.2930 N   0  0  0  0  0  0  0  0  0  0  0  0
   -4.4870    0.5612   -0.4911 H   0  0  0  0  0  0  0  0  0  0  0  0
   -3.5029    1.8234    0.2325 H   0  0  0  0  0  0  0  0  0  0  0  0
    0.5749   -0.2348    1.1014 C   0  0  0  0  0  0  0  0  0  0  0  0
    1.7490    0.0135    1.3443 O   0  0  0  0  0  0  0  0  0  0  0  0
   -0.4009    0.2308    1.9652 N   0  0  0  0  0  0  0  0  0  0  0  0
   -1.3365   -0.1193    1.7828 H   0  0  0  0  0  0  0  0  0  0  0  0
   -0.0898    0.7094    3.3062 C   0  0  0  0  0  0  0  0  0  0  0  0
    0.5875    1.5687    3.2603 H   0  0  0  0  0  0  0  0  0  0  0  0
   -1.0051    1.0204    3.8186 H   0  0  0  0  0  0  0  0  0  0  0  0
    0.3861   -0.0830    3.8935 H   0  0  0  0  0  0  0  0  0  0  0  0
  1  2  1  0  0  0  0
  2  3  1  0  0  0  0
  2  4  1  0  0  0  0
  2  5  1  0  0  0  0
  5  6  2  0  0  0  0
  5  7  1  0  0  0  0
  7  8  1  0  0  0  0
  7  9  1  0  0  0  0
  9 10  1  0  0  0  0
  9 11  1  0  0  0  0
  9 22  1  0  0  0  0
 11 12  1  0  0  0  0
 11 13  1  0  0  0  0
 11 14  1  0  0  0  0
 14 15  1  0  0  0  0
 14 16  1  0  0  0  0
 14 17  1  0  0  0  0
 17 18  2  0  0  0  0
 17 19  1  0  0  0  0
 19 20  1  0  0  0  0
 19 21  1  0  0  0  0
 22 23  2  0  0  0  0
 22 24  1  0  0  0  0
 24 25  1  0  0  0  0
 24 26  1  0  0  0  0
 26 27  1  0  0  0  0
 26 28  1  0  0  0  0
 26 29  1  0  0  0  0
M  END
$$$$

  -OEChem-02102214123D

 29 28  0     1  0  0  0  0  0999 V2000
   -2.1246   -4.5091    0.6135 H   0  0  0  0  0  0  0  0  0  0  0  0
   -2.3412   -3.5025    0.2449 C   0  0  0  0  0  0  0  0  0  0  0  0
   -2.8995   -2.9594    1.0116 H   0  0  0  0  0  0  0  0  0  0  0  0
   -2.9537   -3.5803   -0.6563 H   0  0  0  0  0  0  0  0  0  0  0  0
   -1.0495   -2.7730   -0.0705 C   0  0  0  0  0  0  0  0  0  0  0  0
    0.0165   -3.3583    0.0146 O   0  0  0  0  0  0  0  0  0  0  0  0
   -1.0956   -1.4504   -0.4654 N   0  0  0  0  0  0  0  0  0  0  0  0
   -2.0003   -1.0116   -0.3050 H   0  0  0  0  0  0  0  0  0  0  0  0
    0.0917   -0.5752   -0.4234 C   0  0  1  0  0  0  0  0  0  0  0  0
    0.8772   -1.0556   -1.0183 H   0  0  0  0  0  0  0  0  0  0  0  0
   -0.1092    0.8538   -0.9982 C   0  0  0  0  0  0  0  0  0  0  0  0
    0.7853    1.4476   -0.7770 H   0  0  0  0  0  0  0  0  0  0  0  0
   -0.1335    0.7254   -2.0854 H   0  0  0  0  0  0  0  0  0  0  0  0
   -1.3610    1.7039   -0.6378 C   0  0  0  0  0  0  0  0  0  0  0  0
   -1.1146    2.2844    0.2568 H   0  0  0  0  0  0  0  0  0  0  0  0
   -1.5373    2.4238   -1.4417 H   0  0  0  0  0  0  0  0  0  0  0  0
   -2.6679    0.9862   -0.3314 C   0  0  0  0  0  0  0  0  0  0  0  0
   -2.8591    0.4173    0.7294 O   0  0  0  0  0  0  0  0  0  0  0  0
   -3.6364    0.8136   -1.2771 N   0  0  0  0  0  0  0  0  0  0  0  0
   -4.5289    0.4580   -0.9451 H   0  0  0  0  0  0  0  0  0  0  0  0
   -3.6014    1.3799   -2.1193 H   0  0  0  0  0  0  0  0  0  0  0  0
    0.6507   -0.4409    1.0111 C   0  0  0  0  0  0  0  0  0  0  0  0
    1.8542   -0.3100    1.1914 O   0  0  0  0  0  0  0  0  0  0  0  0
   -0.2185   -0.2224    2.0657 N   0  0  0  0  0  0  0  0  0  0  0  0
   -1.2141   -0.1735    1.8438 H   0  0  0  0  0  0  0  0  0  0  0  0
    0.2207    0.0771    3.4213 C   0  0  0  0  0  0  0  0  0  0  0  0
    0.7669    1.0257    3.4464 H   0  0  0  0  0  0  0  0  0  0  0  0
   -0.6426    0.1556    4.0887 H   0  0  0  0  0  0  0  0  0  0  0  0
    0.8748   -0.7179    3.7950 H   0  0  0  0  0  0  0  0  0  0  0  0
  1  2  1  0  0  0  0
  2  3  1  0  0  0  0
  2  4  1  0  0  0  0
  2  5  1  0  0  0  0
  5  6  2  0  0  0  0
  5  7  1  0  0  0  0
  7  8  1  0  0  0  0
  7  9  1  0  0  0  0
  9 10  1  0  0  0  0
  9 11  1  0  0  0  0
  9 22  1  0  0  0  0
 11 12  1  0  0  0  0
 11 13  1  0  0  0  0
 11 14  1  0  0  0  0
 14 15  1  0  0  0  0
 14 16  1  0  0  0  0
 14 17  1  0  0  0  0
 17 18  2  0  0  0  0
 17 19  1  0  0  0  0
 19 20  1  0  0  0  0
 19 21  1  0  0  0  0
 22 23  2  0  0  0  0
 22 24  1  0  0  0  0
 24 25  1  0  0  0  0
 24 26  1  0  0  0  0
 26 27  1  0  0  0  0
 26 28  1  0  0  0  0
 26 29  1  0  0  0  0
M  END
$$$$

  -OEChem-02102214123D

 29 28  0     1  0  0  0  0  0999 V2000
   -2.4492   -4.4242    0.5891 H   0  0  0  0  0  0  0  0  0  0  0  0
   -2.5778   -3.3894    0.2592 C   0  0  0  0  0  0  0  0  0  0  0  0
   -3.0859   -2.8291    1.0480 H   0  0  0  0  0  0  0  0  0  0  0  0
   -3.1955   -3.3805   -0.6419 H   0  0  0  0  0  0  0  0  0  0  0  0
   -1.2277   -2.7634   -0.0329 C   0  0  0  0  0  0  0  0  0  0  0  0
   -0.2126   -3.4308    0.0672 O   0  0  0  0  0  0  0  0  0  0  0  0
   -1.1644   -1.4386   -0.4164 N   0  0  0  0  0  0  0  0  0  0  0  0
   -2.0328   -0.9304   -0.2658 H   0  0  0  0  0  0  0  0  0  0  0  0
    0.0851   -0.6597   -0.3342 C   0  0  1  0  0  0  0  0  0  0  0  0
    0.8386   -1.2223   -0.8979 H   0  0  0  0  0  0  0  0  0  0  0  0
    0.0170    0.7413   -0.9964 C   0  0  0  0  0  0  0  0  0  0  0  0
    0.9356    1.2849   -0.7461 H   0  0  0  0  0  0  0  0  0  0  0  0
    0.0591    0.5509   -2.0739 H   0  0  0  0  0  0  0  0  0  0  0  0
   -1.1904    1.7009   -0.7776 C   0  0  0  0  0  0  0  0  0  0  0  0
   -0.8609    2.4868   -0.0912 H   0  0  0  0  0  0  0  0  0  0  0  0
   -1.4183    2.1902   -1.7285 H   0  0  0  0  0  0  0  0  0  0  0  0
   -2.4872    1.1522   -0.1919 C   0  0  0  0  0  0  0  0  0  0  0  0
   -2.5746    0.7060    0.9368 O   0  0  0  0  0  0  0  0  0  0  0  0
   -3.5994    0.9784   -0.9633 N   0  0  0  0  0  0  0  0  0  0  0  0
   -4.4569    0.7632   -0.4613 H   0  0  0  0  0  0  0  0  0  0  0  0
   -3.6492    1.4638   -1.8539 H   0  0  0  0  0  0  0  0  0  0  0  0
    0.6622   -0.5474    1.0968 C   0  0  0  0  0  0  0  0  0  0  0  0
    1.8755   -0.5135    1.2576 O   0  0  0  0  0  0  0  0  0  0  0  0
   -0.1614   -0.2550    2.1679 N   0  0  0  0  0  0  0  0  0  0  0  0
   -1.1443   -0.0760    1.9536 H   0  0  0  0  0  0  0  0  0  0  0  0
    0.3336    0.0586    3.5010 C   0  0  0  0  0  0  0  0  0  0  0  0
    0.9236    0.9806    3.4831 H   0  0  0  0  0  0  0  0  0  0  0  0
   -0.5049    0.1948    4.1906 H   0  0  0  0  0  0  0  0  0  0  0  0
    0.9611   -0.7558    3.8783 H   0  0  0  0  0  0  0  0  0  0  0  0
  1  2  1  0  0  0  0
  2  3  1  0  0  0  0
  2  4  1  0  0  0  0
  2  5  1  0  0  0  0
  5  6  2  0  0  0  0
  5  7  1  0  0  0  0
  7  8  1  0  0  0  0
  7  9  1  0  0  0  0
  9 10  1  0  0  0  0
  9 11  1  0  0  0  0
  9 22  1  0  0  0  0
 11 12  1  0  0  0  0
 11 13  1  0  0  0  0
 11 14  1  0  0  0  0
 14 15  1  0  0  0  0
 14 16  1  0  0  0  0
 14 17  1  0  0  0  0
 17 18  2  0  0  0  0
 17 19  1  0  0  0  0
 19 20  1  0  0  0  0
 19 21  1  0  0  0  0
 22 23  2  0  0  0  0
 22 24  1  0  0  0  0
 24 25  1  0  0  0  0
 24 26  1  0  0  0  0
 26 27  1  0  0  0  0
 26 28  1  0  0  0  0
 26 29  1  0  0  0  0
M  END
$$$$

  -OEChem-02102214123D

 29 28  0     1  0  0  0  0  0999 V2000
   -2.2931   -4.5603    0.6248 H   0  0  0  0  0  0  0  0  0  0  0  0
   -2.4476   -3.5375    0.2698 C   0  0  0  0  0  0  0  0  0  0  0  0
   -2.9905   -2.9774    1.0352 H   0  0  0  0  0  0  0  0  0  0  0  0
   -3.0455   -3.5676   -0.6440 H   0  0  0  0  0  0  0  0  0  0  0  0
   -1.1123   -2.8737   -0.0073 C   0  0  0  0  0  0  0  0  0  0  0  0
   -0.0791   -3.5062    0.1315 O   0  0  0  0  0  0  0  0  0  0  0  0
   -1.0814   -1.5547   -0.4135 N   0  0  0  0  0  0  0  0  0  0  0  0
   -1.9629   -1.0642   -0.2683 H   0  0  0  0  0  0  0  0  0  0  0  0
    0.1348   -0.7330   -0.3038 C   0  0  1  0  0  0  0  0  0  0  0  0
    0.9245   -1.2880   -0.8243 H   0  0  0  0  0  0  0  0  0  0  0  0
    0.0287    0.6247   -1.0403 C   0  0  0  0  0  0  0  0  0  0  0  0
    0.9074    1.2154   -0.7561 H   0  0  0  0  0  0  0  0  0  0  0  0
    0.1549    0.3901   -2.1026 H   0  0  0  0  0  0  0  0  0  0  0  0
   -1.2169    1.5646   -0.9519 C   0  0  0  0  0  0  0  0  0  0  0  0
   -0.8597    2.5301   -0.5829 H   0  0  0  0  0  0  0  0  0  0  0  0
   -1.5599    1.7274   -1.9777 H   0  0  0  0  0  0  0  0  0  0  0  0
   -2.4673    1.2408   -0.1269 C   0  0  0  0  0  0  0  0  0  0  0  0
   -2.5341    0.4475    0.7932 O   0  0  0  0  0  0  0  0  0  0  0  0
   -3.6473    1.8710   -0.3970 N   0  0  0  0  0  0  0  0  0  0  0  0
   -4.3869    1.7538    0.2901 H   0  0  0  0  0  0  0  0  0  0  0  0
   -3.6432    2.6835   -1.0056 H   0  0  0  0  0  0  0  0  0  0  0  0
    0.6780   -0.5603    1.1352 C   0  0  0  0  0  0  0  0  0  0  0  0
    1.8855   -0.4640    1.3147 O   0  0  0  0  0  0  0  0  0  0  0  0
   -0.1715   -0.2703    2.1856 N   0  0  0  0  0  0  0  0  0  0  0  0
   -1.1627   -0.1769    1.9567 H   0  0  0  0  0  0  0  0  0  0  0  0
    0.2848    0.0900    3.5208 C   0  0  0  0  0  0  0  0  0  0  0  0
    0.8383    1.0343    3.4947 H   0  0  0  0  0  0  0  0  0  0  0  0
   -0.5712    0.2066    4.1921 H   0  0  0  0  0  0  0  0  0  0  0  0
    0.9370   -0.6910    3.9258 H   0  0  0  0  0  0  0  0  0  0  0  0
  1  2  1  0  0  0  0
  2  3  1  0  0  0  0
  2  4  1  0  0  0  0
  2  5  1  0  0  0  0
  5  6  2  0  0  0  0
  5  7  1  0  0  0  0
  7  8  1  0  0  0  0
  7  9  1  0  0  0  0
  9 10  1  0  0  0  0
  9 11  1  0  0  0  0
  9 22  1  0  0  0  0
 11 12  1  0  0  0  0
 11 13  1  0  0  0  0
 11 14  1  0  0  0  0
 14 15  1  0  0  0  0
 14 16  1  0  0  0  0
 14 17  1  0  0  0  0
 17 18  2  0  0  0  0
 17 19  1  0  0  0  0
 19 20  1  0  0  0  0
 19 21  1  0  0  0  0
 22 23  2  0  0  0  0
 22 24  1  0  0  0  0
 24 25  1  0  0  0  0
 24 26  1  0  0  0  0
 26 27  1  0  0  0  0
 26 28  1  0  0  0  0
 26 29  1  0  0  0  0
M  END
$$$$

  -OEChem-02102214123D

 29 28  0     1  0  0  0  0  0999 V2000
   -1.9789   -4.3686    1.2951 H   0  0  0  0  0  0  0  0  0  0  0  0
   -2.1627   -3.4837    0.6797 C   0  0  0  0  0  0  0  0  0  0  0  0
   -2.9331   -2.8739    1.1579 H   0  0  0  0  0  0  0  0  0  0  0  0
   -2.5210   -3.8038   -0.3016 H   0  0  0  0  0  0  0  0  0  0  0  0
   -0.8866   -2.6790    0.5251 C   0  0  0  0  0  0  0  0  0  0  0  0
    0.1526   -3.0734    1.0277 O   0  0  0  0  0  0  0  0  0  0  0  0
   -0.9188   -1.4734   -0.1432 N   0  0  0  0  0  0  0  0  0  0  0  0
   -1.8485   -1.1206   -0.3829 H   0  0  0  0  0  0  0  0  0  0  0  0
    0.2161   -0.5392   -0.2202 C   0  0  1  0  0  0  0  0  0  0  0  0
    1.0542   -1.1388   -0.5939 H   0  0  0  0  0  0  0  0  0  0  0  0
    0.0090    0.5653   -1.2894 C   0  0  0  0  0  0  0  0  0  0  0  0
    0.7943    1.3159   -1.1457 H   0  0  0  0  0  0  0  0  0  0  0  0
    0.2024    0.1065   -2.2648 H   0  0  0  0  0  0  0  0  0  0  0  0
   -1.3443    1.3150   -1.4052 C   0  0  0  0  0  0  0  0  0  0  0  0
   -1.1432    2.3747   -1.5854 H   0  0  0  0  0  0  0  0  0  0  0  0
   -1.8621    0.9380   -2.2925 H   0  0  0  0  0  0  0  0  0  0  0  0
   -2.3269    1.2026   -0.2479 C   0  0  0  0  0  0  0  0  0  0  0  0
   -3.1386    0.2949   -0.1839 O   0  0  0  0  0  0  0  0  0  0  0  0
   -2.3737    2.1380    0.7448 N   0  0  0  0  0  0  0  0  0  0  0  0
   -2.9507    1.9070    1.5475 H   0  0  0  0  0  0  0  0  0  0  0  0
   -1.5750    2.7546    0.8597 H   0  0  0  0  0  0  0  0  0  0  0  0
    0.7611    0.0209    1.1236 C   0  0  0  0  0  0  0  0  0  0  0  0
    1.8798    0.5105    1.1344 O   0  0  0  0  0  0  0  0  0  0  0  0
    0.0165    0.5011    2.1802 N   0  0  0  0  0  0  0  0  0  0  0  0
    0.6159    0.9922    2.8392 H   0  0  0  0  0  0  0  0  0  0  0  0
   -1.0871   -0.2488    2.7660 C   0  0  0  0  0  0  0  0  0  0  0  0
   -1.4600    0.2736    3.6522 H   0  0  0  0  0  0  0  0  0  0  0  0
   -1.9183   -0.3574    2.0668 H   0  0  0  0  0  0  0  0  0  0  0  0
   -0.7512   -1.2450    3.0724 H   0  0  0  0  0  0  0  0  0  0  0  0
  1  2  1  0  0  0  0
  2  3  1  0  0  0  0
  2  4  1  0  0  0  0
  2  5  1  0  0  0  0
  5  6  2  0  0  0  0
  5  7  1  0  0  0  0
  7  8  1  0  0  0  0
  7  9  1  0  0  0  0
  9 10  1  0  0  0  0
  9 11  1  0  0  0  0
  9 22  1  0  0  0  0
 11 12  1  0  0  0  0
 11 13  1  0  0  0  0
 11 14  1  0  0  0  0
 14 15  1  0  0  0  0
 14 16  1  0  0  0  0
 14 17  1  0  0  0  0
 17 18  2  0  0  0  0
 17 19  1  0  0  0  0
 19 20  1  0  0  0  0
 19 21  1  0  0  0  0
 22 23  2  0  0  0  0
 22 24  1  0  0  0  0
 24 25  1  0  0  0  0
 24 26  1  0  0  0  0
 26 27  1  0  0  0  0
 26 28  1  0  0  0  0
 26 29  1  0  0  0  0
M  END
$$$$

  -OEChem-02102214123D

 29 28  0     1  0  0  0  0  0999 V2000
   -2.9162   -4.3317    0.4500 H   0  0  0  0  0  0  0  0  0  0  0  0
   -2.8232   -3.3849   -0.0898 C   0  0  0  0  0  0  0  0  0  0  0  0
   -3.6701   -2.7457    0.1717 H   0  0  0  0  0  0  0  0  0  0  0  0
   -2.8470   -3.5901   -1.1628 H   0  0  0  0  0  0  0  0  0  0  0  0
   -1.5213   -2.6995    0.2794 C   0  0  0  0  0  0  0  0  0  0  0  0
   -0.7856   -3.1973    1.1122 O   0  0  0  0  0  0  0  0  0  0  0  0
   -1.1883   -1.4957   -0.3117 N   0  0  0  0  0  0  0  0  0  0  0  0
   -1.8013   -1.1860   -1.0609 H   0  0  0  0  0  0  0  0  0  0  0  0
    0.1315   -0.8432   -0.1797 C   0  0  1  0  0  0  0  0  0  0  0  0
    0.8746   -1.5847   -0.4958 H   0  0  0  0  0  0  0  0  0  0  0  0
    0.3219    0.3829   -1.1162 C   0  0  0  0  0  0  0  0  0  0  0  0
    1.2726    0.8737   -0.8618 H   0  0  0  0  0  0  0  0  0  0  0  0
    0.4665   -0.0197   -2.1248 H   0  0  0  0  0  0  0  0  0  0  0  0
   -0.8291    1.4287   -1.2326 C   0  0  0  0  0  0  0  0  0  0  0  0
   -0.3280    1.8810   -0.3725 H   0  0  0  0  0  0  0  0  0  0  0  0
   -1.5537    0.6415   -1.4373 H   0  0  0  0  0  0  0  0  0  0  0  0
   -2.0010    2.0956   -0.5028 C   0  0  0  0  0  0  0  0  0  0  0  0
   -2.8037    2.7714   -1.1148 O   0  0  0  0  0  0  0  0  0  0  0  0
   -2.2852    1.9469    0.8286 N   0  0  0  0  0  0  0  0  0  0  0  0
   -1.5165    1.6749    1.4374 H   0  0  0  0  0  0  0  0  0  0  0  0
   -2.9879    2.5925    1.1797 H   0  0  0  0  0  0  0  0  0  0  0  0
    0.5182   -0.5017    1.2778 C   0  0  0  0  0  0  0  0  0  0  0  0
    1.7023   -0.4157    1.5723 O   0  0  0  0  0  0  0  0  0  0  0  0
   -0.4148    0.0772    2.1194 N   0  0  0  0  0  0  0  0  0  0  0  0
   -1.3725   -0.2097    1.9303 H   0  0  0  0  0  0  0  0  0  0  0  0
   -0.0817    0.4596    3.4875 C   0  0  0  0  0  0  0  0  0  0  0  0
    0.7023    1.2243    3.4935 H   0  0  0  0  0  0  0  0  0  0  0  0
   -0.9630    0.8674    3.9918 H   0  0  0  0  0  0  0  0  0  0  0  0
    0.2713   -0.4097    4.0529 H   0  0  0  0  0  0  0  0  0  0  0  0
  1  2  1  0  0  0  0
  2  3  1  0  0  0  0
  2  4  1  0  0  0  0
  2  5  1  0  0  0  0
  5  6  2  0  0  0  0
  5  7  1  0  0  0  0
  7  8  1  0  0  0  0
  7  9  1  0  0  0  0
  9 10  1  0  0  0  0
  9 11  1  0  0  0  0
  9 22  1  0  0  0  0
 11 12  1  0  0  0  0
 11 13  1  0  0  0  0
 11 14  1  0  0  0  0
 14 15  1  0  0  0  0
 14 16  1  0  0  0  0
 14 17  1  0  0  0  0
 17 18  2  0  0  0  0
 17 19  1  0  0  0  0
 19 20  1  0  0  0  0
 19 21  1  0  0  0  0
 22 23  2  0  0  0  0
 22 24  1  0  0  0  0
 24 25  1  0  0  0  0
 24 26  1  0  0  0  0
 26 27  1  0  0  0  0
 26 28  1  0  0  0  0
 26 29  1  0  0  0  0
M  END
$$$$

  -OEChem-02102214123D

 29 28  0     1  0  0  0  0  0999 V2000
   -2.8892   -4.2108    0.3213 H   0  0  0  0  0  0  0  0  0  0  0  0
   -2.8543   -3.1954   -0.0842 C   0  0  0  0  0  0  0  0  0  0  0  0
   -3.5928   -2.5836    0.4390 H   0  0  0  0  0  0  0  0  0  0  0  0
   -3.1057   -3.2335   -1.1467 H   0  0  0  0  0  0  0  0  0  0  0  0
   -1.4676   -2.6082    0.1020 C   0  0  0  0  0  0  0  0  0  0  0  0
   -0.5982   -3.2702    0.6382 O   0  0  0  0  0  0  0  0  0  0  0  0
   -1.1999   -1.3298   -0.3491 N   0  0  0  0  0  0  0  0  0  0  0  0
   -1.9438   -0.8514   -0.8429 H   0  0  0  0  0  0  0  0  0  0  0  0
    0.1141   -0.6713   -0.2352 C   0  0  1  0  0  0  0  0  0  0  0  0
    0.8338   -1.3613   -0.6917 H   0  0  0  0  0  0  0  0  0  0  0  0
    0.1678    0.6055   -1.1086 C   0  0  0  0  0  0  0  0  0  0  0  0
    1.0618    1.1684   -0.8147 H   0  0  0  0  0  0  0  0  0  0  0  0
    0.3163    0.2996   -2.1495 H   0  0  0  0  0  0  0  0  0  0  0  0
   -1.0411    1.5730   -1.0687 C   0  0  0  0  0  0  0  0  0  0  0  0
   -0.7513    2.5144   -1.5452 H   0  0  0  0  0  0  0  0  0  0  0  0
   -1.8496    1.1470   -1.6680 H   0  0  0  0  0  0  0  0  0  0  0  0
   -1.5947    1.8956    0.3123 C   0  0  0  0  0  0  0  0  0  0  0  0
   -1.0178    2.6330    1.0828 O   0  0  0  0  0  0  0  0  0  0  0  0
   -2.7701    1.3740    0.7749 N   0  0  0  0  0  0  0  0  0  0  0  0
   -3.1247    1.8325    1.6114 H   0  0  0  0  0  0  0  0  0  0  0  0
   -3.4336    1.0285    0.0904 H   0  0  0  0  0  0  0  0  0  0  0  0
    0.6632   -0.4866    1.2029 C   0  0  0  0  0  0  0  0  0  0  0  0
    1.8706   -0.5764    1.3850 O   0  0  0  0  0  0  0  0  0  0  0  0
   -0.1343   -0.0284    2.2353 N   0  0  0  0  0  0  0  0  0  0  0  0
   -1.0778    0.2542    1.9894 H   0  0  0  0  0  0  0  0  0  0  0  0
    0.4059    0.4184    3.5125 C   0  0  0  0  0  0  0  0  0  0  0  0
    1.0449    1.2961    3.3701 H   0  0  0  0  0  0  0  0  0  0  0  0
   -0.4079    0.6878    4.1922 H   0  0  0  0  0  0  0  0  0  0  0  0
    0.9959   -0.3772    3.9798 H   0  0  0  0  0  0  0  0  0  0  0  0
  1  2  1  0  0  0  0
  2  3  1  0  0  0  0
  2  4  1  0  0  0  0
  2  5  1  0  0  0  0
  5  6  2  0  0  0  0
  5  7  1  0  0  0  0
  7  8  1  0  0  0  0
  7  9  1  0  0  0  0
  9 10  1  0  0  0  0
  9 11  1  0  0  0  0
  9 22  1  0  0  0  0
 11 12  1  0  0  0  0
 11 13  1  0  0  0  0
 11 14  1  0  0  0  0
 14 15  1  0  0  0  0
 14 16  1  0  0  0  0
 14 17  1  0  0  0  0
 17 18  2  0  0  0  0
 17 19  1  0  0  0  0
 19 20  1  0  0  0  0
 19 21  1  0  0  0  0
 22 23  2  0  0  0  0
 22 24  1  0  0  0  0
 24 25  1  0  0  0  0
 24 26  1  0  0  0  0
 26 27  1  0  0  0  0
 26 28  1  0  0  0  0
 26 29  1  0  0  0  0
M  END
$$$$

  -OEChem-02102214123D

 29 28  0     1  0  0  0  0  0999 V2000
   -2.9412   -4.2222    0.2740 H   0  0  0  0  0  0  0  0  0  0  0  0
   -2.8795   -3.2180   -0.1554 C   0  0  0  0  0  0  0  0  0  0  0  0
   -3.6810   -2.6067    0.2658 H   0  0  0  0  0  0  0  0  0  0  0  0
   -3.0133   -3.2913   -1.2373 H   0  0  0  0  0  0  0  0  0  0  0  0
   -1.5313   -2.5982    0.1622 C   0  0  0  0  0  0  0  0  0  0  0  0
   -0.7331   -3.2102    0.8474 O   0  0  0  0  0  0  0  0  0  0  0  0
   -1.2170   -1.3500   -0.3413 N   0  0  0  0  0  0  0  0  0  0  0  0
   -1.8685   -0.9583   -1.0122 H   0  0  0  0  0  0  0  0  0  0  0  0
    0.1109   -0.7214   -0.2074 C   0  0  1  0  0  0  0  0  0  0  0  0
    0.8305   -1.4438   -0.6108 H   0  0  0  0  0  0  0  0  0  0  0  0
    0.2192    0.5257   -1.1178 C   0  0  0  0  0  0  0  0  0  0  0  0
    1.1227    1.0799   -0.8356 H   0  0  0  0  0  0  0  0  0  0  0  0
    0.3694    0.1784   -2.1452 H   0  0  0  0  0  0  0  0  0  0  0  0
   -0.9787    1.5050   -1.1235 C   0  0  0  0  0  0  0  0  0  0  0  0
   -0.7544    2.3231   -1.8143 H   0  0  0  0  0  0  0  0  0  0  0  0
   -1.8674    0.9986   -1.5067 H   0  0  0  0  0  0  0  0  0  0  0  0
   -1.3032    2.1217    0.2298 C   0  0  0  0  0  0  0  0  0  0  0  0
   -0.5553    2.9044    0.7770 O   0  0  0  0  0  0  0  0  0  0  0  0
   -2.4448    1.8143    0.9161 N   0  0  0  0  0  0  0  0  0  0  0  0
   -2.6408    2.4335    1.6993 H   0  0  0  0  0  0  0  0  0  0  0  0
   -3.2188    1.4143    0.3971 H   0  0  0  0  0  0  0  0  0  0  0  0
    0.6107   -0.4811    1.2400 C   0  0  0  0  0  0  0  0  0  0  0  0
    1.8088   -0.5811    1.4708 O   0  0  0  0  0  0  0  0  0  0  0  0
   -0.2151    0.0483    2.2146 N   0  0  0  0  0  0  0  0  0  0  0  0
   -1.1568    0.2975    1.9291 H   0  0  0  0  0  0  0  0  0  0  0  0
    0.2849    0.5629    3.4828 C   0  0  0  0  0  0  0  0  0  0  0  0
    0.9270    1.4338    3.3141 H   0  0  0  0  0  0  0  0  0  0  0  0
   -0.5491    0.8650    4.1228 H   0  0  0  0  0  0  0  0  0  0  0  0
    0.8612   -0.2055    4.0086 H   0  0  0  0  0  0  0  0  0  0  0  0
  1  2  1  0  0  0  0
  2  3  1  0  0  0  0
  2  4  1  0  0  0  0
  2  5  1  0  0  0  0
  5  6  2  0  0  0  0
  5  7  1  0  0  0  0
  7  8  1  0  0  0  0
  7  9  1  0  0  0  0
  9 10  1  0  0  0  0
  9 11  1  0  0  0  0
  9 22  1  0  0  0  0
 11 12  1  0  0  0  0
 11 13  1  0  0  0  0
 11 14  1  0  0  0  0
 14 15  1  0  0  0  0
 14 16  1  0  0  0  0
 14 17  1  0  0  0  0
 17 18  2  0  0  0  0
 17 19  1  0  0  0  0
 19 20  1  0  0  0  0
 19 21  1  0  0  0  0
 22 23  2  0  0  0  0
 22 24  1  0  0  0  0
 24 25  1  0  0  0  0
 24 26  1  0  0  0  0
 26 27  1  0  0  0  0
 26 28  1  0  0  0  0
 26 29  1  0  0  0  0
M  END
$$$$

  -OEChem-02102214123D

 29 28  0     1  0  0  0  0  0999 V2000
   -2.8861   -4.2718    0.3137 H   0  0  0  0  0  0  0  0  0  0  0  0
   -2.8304   -3.2826   -0.1502 C   0  0  0  0  0  0  0  0  0  0  0  0
   -3.6550   -2.6721    0.2248 H   0  0  0  0  0  0  0  0  0  0  0  0
   -2.9302   -3.3972   -1.2321 H   0  0  0  0  0  0  0  0  0  0  0  0
   -1.5039   -2.6262    0.1835 C   0  0  0  0  0  0  0  0  0  0  0  0
   -0.7211   -3.1923    0.9235 O   0  0  0  0  0  0  0  0  0  0  0  0
   -1.1947   -1.3943   -0.3618 N   0  0  0  0  0  0  0  0  0  0  0  0
   -1.8252   -1.0529   -1.0791 H   0  0  0  0  0  0  0  0  0  0  0  0
    0.1251   -0.7466   -0.2316 C   0  0  1  0  0  0  0  0  0  0  0  0
    0.8639   -1.4609   -0.6135 H   0  0  0  0  0  0  0  0  0  0  0  0
    0.2187    0.5035   -1.1398 C   0  0  0  0  0  0  0  0  0  0  0  0
    1.1256    1.0653   -0.8836 H   0  0  0  0  0  0  0  0  0  0  0  0
    0.3501    0.1499   -2.1674 H   0  0  0  0  0  0  0  0  0  0  0  0
   -0.9989    1.4601   -1.1298 C   0  0  0  0  0  0  0  0  0  0  0  0
   -0.9045    2.1439   -1.9783 H   0  0  0  0  0  0  0  0  0  0  0  0
   -1.9296    0.9073   -1.2704 H   0  0  0  0  0  0  0  0  0  0  0  0
   -1.0980    2.3196    0.1243 C   0  0  0  0  0  0  0  0  0  0  0  0
   -0.1929    3.0397    0.4915 O   0  0  0  0  0  0  0  0  0  0  0  0
   -2.2101    2.3051    0.9186 N   0  0  0  0  0  0  0  0  0  0  0  0
   -2.2374    3.0404    1.6209 H   0  0  0  0  0  0  0  0  0  0  0  0
   -3.0784    1.9611    0.5232 H   0  0  0  0  0  0  0  0  0  0  0  0
    0.5873   -0.4534    1.2172 C   0  0  0  0  0  0  0  0  0  0  0  0
    1.7790   -0.5350    1.4842 O   0  0  0  0  0  0  0  0  0  0  0  0
   -0.2725    0.0995    2.1487 N   0  0  0  0  0  0  0  0  0  0  0  0
   -1.2193    0.2960    1.8431 H   0  0  0  0  0  0  0  0  0  0  0  0
    0.1806    0.6444    3.4217 C   0  0  0  0  0  0  0  0  0  0  0  0
    0.8191    1.5186    3.2557 H   0  0  0  0  0  0  0  0  0  0  0  0
   -0.6768    0.9494    4.0289 H   0  0  0  0  0  0  0  0  0  0  0  0
    0.7481   -0.1068    3.9813 H   0  0  0  0  0  0  0  0  0  0  0  0
  1  2  1  0  0  0  0
  2  3  1  0  0  0  0
  2  4  1  0  0  0  0
  2  5  1  0  0  0  0
  5  6  2  0  0  0  0
  5  7  1  0  0  0  0
  7  8  1  0  0  0  0
  7  9  1  0  0  0  0
  9 10  1  0  0  0  0
  9 11  1  0  0  0  0
  9 22  1  0  0  0  0
 11 12  1  0  0  0  0
 11 13  1  0  0  0  0
 11 14  1  0  0  0  0
 14 15  1  0  0  0  0
 14 16  1  0  0  0  0
 14 17  1  0  0  0  0
 17 18  2  0  0  0  0
 17 19  1  0  0  0  0
 19 20  1  0  0  0  0
 19 21  1  0  0  0  0
 22 23  2  0  0  0  0
 22 24  1  0  0  0  0
 24 25  1  0  0  0  0
 24 26  1  0  0  0  0
 26 27  1  0  0  0  0
 26 28  1  0  0  0  0
 26 29  1  0  0  0  0
M  END
$$$$

  -OEChem-02102214123D

 29 28  0     1  0  0  0  0  0999 V2000
   -2.8382   -4.2817    0.4542 H   0  0  0  0  0  0  0  0  0  0  0  0
   -2.7603   -3.3497   -0.1132 C   0  0  0  0  0  0  0  0  0  0  0  0
   -3.6078   -2.7102    0.1441 H   0  0  0  0  0  0  0  0  0  0  0  0
   -2.7980   -3.5846   -1.1795 H   0  0  0  0  0  0  0  0  0  0  0  0
   -1.4577   -2.6459    0.2182 C   0  0  0  0  0  0  0  0  0  0  0  0
   -0.6810   -3.1538    1.0056 O   0  0  0  0  0  0  0  0  0  0  0  0
   -1.1677   -1.4319   -0.3756 N   0  0  0  0  0  0  0  0  0  0  0  0
   -1.7911   -1.1437   -1.1228 H   0  0  0  0  0  0  0  0  0  0  0  0
    0.1404   -0.7543   -0.2701 C   0  0  1  0  0  0  0  0  0  0  0  0
    0.9003   -1.4522   -0.6397 H   0  0  0  0  0  0  0  0  0  0  0  0
    0.1939    0.4997   -1.1747 C   0  0  0  0  0  0  0  0  0  0  0  0
    1.1040    1.0712   -0.9548 H   0  0  0  0  0  0  0  0  0  0  0  0
    0.2956    0.1428   -2.2044 H   0  0  0  0  0  0  0  0  0  0  0  0
   -1.0457    1.4301   -1.1321 C   0  0  0  0  0  0  0  0  0  0  0  0
   -1.1243    1.9398   -2.0966 H   0  0  0  0  0  0  0  0  0  0  0  0
   -1.9699    0.8669   -0.9942 H   0  0  0  0  0  0  0  0  0  0  0  0
   -0.9457    2.5196   -0.0683 C   0  0  0  0  0  0  0  0  0  0  0  0
    0.0291    3.2348    0.0432 O   0  0  0  0  0  0  0  0  0  0  0  0
   -1.9705    2.7717    0.7995 N   0  0  0  0  0  0  0  0  0  0  0  0
   -1.8726    3.6250    1.3436 H   0  0  0  0  0  0  0  0  0  0  0  0
   -2.8944    2.4171    0.5799 H   0  0  0  0  0  0  0  0  0  0  0  0
    0.5784   -0.4010    1.1711 C   0  0  0  0  0  0  0  0  0  0  0  0
    1.7674   -0.4304    1.4585 O   0  0  0  0  0  0  0  0  0  0  0  0
   -0.3144    0.1674    2.0608 N   0  0  0  0  0  0  0  0  0  0  0  0
   -1.2927    0.1731    1.7973 H   0  0  0  0  0  0  0  0  0  0  0  0
    0.0742    0.6738    3.3701 C   0  0  0  0  0  0  0  0  0  0  0  0
    0.7791    1.5050    3.2629 H   0  0  0  0  0  0  0  0  0  0  0  0
   -0.8046    1.0334    3.9134 H   0  0  0  0  0  0  0  0  0  0  0  0
    0.5473   -0.1173    3.9613 H   0  0  0  0  0  0  0  0  0  0  0  0
  1  2  1  0  0  0  0
  2  3  1  0  0  0  0
  2  4  1  0  0  0  0
  2  5  1  0  0  0  0
  5  6  2  0  0  0  0
  5  7  1  0  0  0  0
  7  8  1  0  0  0  0
  7  9  1  0  0  0  0
  9 10  1  0  0  0  0
  9 11  1  0  0  0  0
  9 22  1  0  0  0  0
 11 12  1  0  0  0  0
 11 13  1  0  0  0  0
 11 14  1  0  0  0  0
 14 15  1  0  0  0  0
 14 16  1  0  0  0  0
 14 17  1  0  0  0  0
 17 18  2  0  0  0  0
 17 19  1  0  0  0  0
 19 20  1  0  0  0  0
 19 21  1  0  0  0  0
 22 23  2  0  0  0  0
 22 24  1  0  0  0  0
 24 25  1  0  0  0  0
 24 26  1  0  0  0  0
 26 27  1  0  0  0  0
 26 28  1  0  0  0  0
 26 29  1  0  0  0  0
M  END
$$$$

  -OEChem-02102214123D

 29 28  0     1  0  0  0  0  0999 V2000
   -2.6878   -4.3893    0.4623 H   0  0  0  0  0  0  0  0  0  0  0  0
   -2.6482   -3.4726   -0.1333 C   0  0  0  0  0  0  0  0  0  0  0  0
   -3.5490   -2.8864    0.0640 H   0  0  0  0  0  0  0  0  0  0  0  0
   -2.6209   -3.7428   -1.1918 H   0  0  0  0  0  0  0  0  0  0  0  0
   -1.4141   -2.6683    0.2291 C   0  0  0  0  0  0  0  0  0  0  0  0
   -0.6505   -3.0767    1.0851 O   0  0  0  0  0  0  0  0  0  0  0  0
   -1.1687   -1.4649   -0.4040 N   0  0  0  0  0  0  0  0  0  0  0  0
   -1.7896   -1.2250   -1.1717 H   0  0  0  0  0  0  0  0  0  0  0  0
    0.0719   -0.6797   -0.2443 C   0  0  1  0  0  0  0  0  0  0  0  0
    0.9122   -1.3268   -0.5215 H   0  0  0  0  0  0  0  0  0  0  0  0
    0.1084    0.5540   -1.1747 C   0  0  0  0  0  0  0  0  0  0  0  0
    0.9738    1.1818   -0.9333 H   0  0  0  0  0  0  0  0  0  0  0  0
    0.2884    0.1744   -2.1860 H   0  0  0  0  0  0  0  0  0  0  0  0
   -1.1915    1.3948   -1.2335 C   0  0  0  0  0  0  0  0  0  0  0  0
   -1.3935    1.6405   -2.2804 H   0  0  0  0  0  0  0  0  0  0  0  0
   -2.0520    0.8384   -0.8585 H   0  0  0  0  0  0  0  0  0  0  0  0
   -1.1127    2.7168   -0.4677 C   0  0  0  0  0  0  0  0  0  0  0  0
   -1.9173    3.5996   -0.6912 O   0  0  0  0  0  0  0  0  0  0  0  0
   -0.2118    2.9809    0.5261 N   0  0  0  0  0  0  0  0  0  0  0  0
   -0.3848    3.8207    1.0698 H   0  0  0  0  0  0  0  0  0  0  0  0
    0.3121    2.2101    0.9378 H   0  0  0  0  0  0  0  0  0  0  0  0
    0.3369   -0.2430    1.2143 C   0  0  0  0  0  0  0  0  0  0  0  0
    1.4793    0.0376    1.5491 O   0  0  0  0  0  0  0  0  0  0  0  0
   -0.6985    0.2727    1.9731 N   0  0  0  0  0  0  0  0  0  0  0  0
   -1.6292   -0.0328    1.7046 H   0  0  0  0  0  0  0  0  0  0  0  0
   -0.5076    0.7795    3.3274 C   0  0  0  0  0  0  0  0  0  0  0  0
    0.1949    1.6195    3.3310 H   0  0  0  0  0  0  0  0  0  0  0  0
   -1.4604    1.1281    3.7374 H   0  0  0  0  0  0  0  0  0  0  0  0
   -0.1163   -0.0090    3.9789 H   0  0  0  0  0  0  0  0  0  0  0  0
  1  2  1  0  0  0  0
  2  3  1  0  0  0  0
  2  4  1  0  0  0  0
  2  5  1  0  0  0  0
  5  6  2  0  0  0  0
  5  7  1  0  0  0  0
  7  8  1  0  0  0  0
  7  9  1  0  0  0  0
  9 10  1  0  0  0  0
  9 11  1  0  0  0  0
  9 22  1  0  0  0  0
 11 12  1  0  0  0  0
 11 13  1  0  0  0  0
 11 14  1  0  0  0  0
 14 15  1  0  0  0  0
 14 16  1  0  0  0  0
 14 17  1  0  0  0  0
 17 18  2  0  0  0  0
 17 19  1  0  0  0  0
 19 20  1  0  0  0  0
 19 21  1  0  0  0  0
 22 23  2  0  0  0  0
 22 24  1  0  0  0  0
 24 25  1  0  0  0  0
 24 26  1  0  0  0  0
 26 27  1  0  0  0  0
 26 28  1  0  0  0  0
 26 29  1  0  0  0  0
M  END
$$$$

  -OEChem-02102214123D

 29 28  0     1  0  0  0  0  0999 V2000
   -2.6411   -4.3795    0.5482 H   0  0  0  0  0  0  0  0  0  0  0  0
   -2.5826   -3.5091   -0.1119 C   0  0  0  0  0  0  0  0  0  0  0  0
   -3.5000   -2.9253   -0.0052 H   0  0  0  0  0  0  0  0  0  0  0  0
   -2.4969   -3.8568   -1.1443 H   0  0  0  0  0  0  0  0  0  0  0  0
   -1.3791   -2.6595    0.2496 C   0  0  0  0  0  0  0  0  0  0  0  0
   -0.6217   -3.0208    1.1317 O   0  0  0  0  0  0  0  0  0  0  0  0
   -1.1590   -1.4662   -0.4110 N   0  0  0  0  0  0  0  0  0  0  0  0
   -1.7704   -1.2725   -1.1994 H   0  0  0  0  0  0  0  0  0  0  0  0
    0.0757   -0.6656   -0.2862 C   0  0  1  0  0  0  0  0  0  0  0  0
    0.9200   -1.3000   -0.5794 H   0  0  0  0  0  0  0  0  0  0  0  0
    0.0496    0.5562   -1.2291 C   0  0  0  0  0  0  0  0  0  0  0  0
    0.8919    1.2164   -0.9880 H   0  0  0  0  0  0  0  0  0  0  0  0
    0.2272    0.1951   -2.2475 H   0  0  0  0  0  0  0  0  0  0  0  0
   -1.2803    1.3483   -1.2360 C   0  0  0  0  0  0  0  0  0  0  0  0
   -1.7034    1.3396   -2.2452 H   0  0  0  0  0  0  0  0  0  0  0  0
   -2.0213    0.9088   -0.5652 H   0  0  0  0  0  0  0  0  0  0  0  0
   -1.0673    2.7949   -0.8047 C   0  0  0  0  0  0  0  0  0  0  0  0
   -1.2914    3.7211   -1.5584 O   0  0  0  0  0  0  0  0  0  0  0  0
   -0.6499    3.1179    0.4551 N   0  0  0  0  0  0  0  0  0  0  0  0
   -0.3661    4.0832    0.5953 H   0  0  0  0  0  0  0  0  0  0  0  0
   -0.2626    2.3834    1.0445 H   0  0  0  0  0  0  0  0  0  0  0  0
    0.3762   -0.1899    1.1542 C   0  0  0  0  0  0  0  0  0  0  0  0
    1.5314    0.0550    1.4718 O   0  0  0  0  0  0  0  0  0  0  0  0
   -0.6392    0.3387    1.9321 N   0  0  0  0  0  0  0  0  0  0  0  0
   -1.5722    0.0126    1.6975 H   0  0  0  0  0  0  0  0  0  0  0  0
   -0.4086    0.8205    3.2895 C   0  0  0  0  0  0  0  0  0  0  0  0
    0.3144    1.6430    3.2909 H   0  0  0  0  0  0  0  0  0  0  0  0
   -1.3435    1.1860    3.7251 H   0  0  0  0  0  0  0  0  0  0  0  0
   -0.0234    0.0126    3.9210 H   0  0  0  0  0  0  0  0  0  0  0  0
  1  2  1  0  0  0  0
  2  3  1  0  0  0  0
  2  4  1  0  0  0  0
  2  5  1  0  0  0  0
  5  6  2  0  0  0  0
  5  7  1  0  0  0  0
  7  8  1  0  0  0  0
  7  9  1  0  0  0  0
  9 10  1  0  0  0  0
  9 11  1  0  0  0  0
  9 22  1  0  0  0  0
 11 12  1  0  0  0  0
 11 13  1  0  0  0  0
 11 14  1  0  0  0  0
 14 15  1  0  0  0  0
 14 16  1  0  0  0  0
 14 17  1  0  0  0  0
 17 18  2  0  0  0  0
 17 19  1  0  0  0  0
 19 20  1  0  0  0  0
 19 21  1  0  0  0  0
 22 23  2  0  0  0  0
 22 24  1  0  0  0  0
 24 25  1  0  0  0  0
 24 26  1  0  0  0  0
 26 27  1  0  0  0  0
 26 28  1  0  0  0  0
 26 29  1  0  0  0  0
M  END
$$$$

  -OEChem-02102214123D

 29 28  0     1  0  0  0  0  0999 V2000
   -2.5400   -4.4432    0.5455 H   0  0  0  0  0  0  0  0  0  0  0  0
   -2.5064   -3.5747   -0.1186 C   0  0  0  0  0  0  0  0  0  0  0  0
   -3.4367   -3.0125   -0.0090 H   0  0  0  0  0  0  0  0  0  0  0  0
   -2.4187   -3.9249   -1.1500 H   0  0  0  0  0  0  0  0  0  0  0  0
   -1.3213   -2.6954    0.2331 C   0  0  0  0  0  0  0  0  0  0  0  0
   -0.5386   -3.0467    1.0970 O   0  0  0  0  0  0  0  0  0  0  0  0
   -1.1435   -1.4898   -0.4178 N   0  0  0  0  0  0  0  0  0  0  0  0
   -1.7757   -1.2990   -1.1902 H   0  0  0  0  0  0  0  0  0  0  0  0
    0.0709   -0.6579   -0.2996 C   0  0  1  0  0  0  0  0  0  0  0  0
    0.9273   -1.2651   -0.6145 H   0  0  0  0  0  0  0  0  0  0  0  0
   -0.0096    0.5683   -1.2306 C   0  0  0  0  0  0  0  0  0  0  0  0
    0.8055    1.2559   -0.9735 H   0  0  0  0  0  0  0  0  0  0  0  0
    0.1761    0.2422   -2.2595 H   0  0  0  0  0  0  0  0  0  0  0  0
   -1.3706    1.3001   -1.1941 C   0  0  0  0  0  0  0  0  0  0  0  0
   -1.9486    1.0526   -2.0894 H   0  0  0  0  0  0  0  0  0  0  0  0
   -1.9621    1.0002   -0.3264 H   0  0  0  0  0  0  0  0  0  0  0  0
   -1.1795    2.8083   -1.1135 C   0  0  0  0  0  0  0  0  0  0  0  0
   -1.4654    3.5383   -2.0418 O   0  0  0  0  0  0  0  0  0  0  0  0
   -0.6947    3.4037    0.0164 N   0  0  0  0  0  0  0  0  0  0  0  0
   -0.4335    4.3814   -0.0735 H   0  0  0  0  0  0  0  0  0  0  0  0
   -0.2503    2.8214    0.7216 H   0  0  0  0  0  0  0  0  0  0  0  0
    0.3888   -0.1827    1.1386 C   0  0  0  0  0  0  0  0  0  0  0  0
    1.5467    0.0787    1.4347 O   0  0  0  0  0  0  0  0  0  0  0  0
   -0.6204    0.3165    1.9435 N   0  0  0  0  0  0  0  0  0  0  0  0
   -1.5520   -0.0264    1.7296 H   0  0  0  0  0  0  0  0  0  0  0  0
   -0.3688    0.8208    3.2887 C   0  0  0  0  0  0  0  0  0  0  0  0
    0.3261    1.6665    3.2600 H   0  0  0  0  0  0  0  0  0  0  0  0
   -1.3031    1.1602    3.7463 H   0  0  0  0  0  0  0  0  0  0  0  0
    0.0610    0.0339    3.9177 H   0  0  0  0  0  0  0  0  0  0  0  0
  1  2  1  0  0  0  0
  2  3  1  0  0  0  0
  2  4  1  0  0  0  0
  2  5  1  0  0  0  0
  5  6  2  0  0  0  0
  5  7  1  0  0  0  0
  7  8  1  0  0  0  0
  7  9  1  0  0  0  0
  9 10  1  0  0  0  0
  9 11  1  0  0  0  0
  9 22  1  0  0  0  0
 11 12  1  0  0  0  0
 11 13  1  0  0  0  0
 11 14  1  0  0  0  0
 14 15  1  0  0  0  0
 14 16  1  0  0  0  0
 14 17  1  0  0  0  0
 17 18  2  0  0  0  0
 17 19  1  0  0  0  0
 19 20  1  0  0  0  0
 19 21  1  0  0  0  0
 22 23  2  0  0  0  0
 22 24  1  0  0  0  0
 24 25  1  0  0  0  0
 24 26  1  0  0  0  0
 26 27  1  0  0  0  0
 26 28  1  0  0  0  0
 26 29  1  0  0  0  0
M  END
$$$$

  -OEChem-02102214123D

 29 28  0     1  0  0  0  0  0999 V2000
   -2.4352   -4.5098    0.5229 H   0  0  0  0  0  0  0  0  0  0  0  0
   -2.4540   -3.6125   -0.1023 C   0  0  0  0  0  0  0  0  0  0  0  0
   -3.3907   -3.0795    0.0770 H   0  0  0  0  0  0  0  0  0  0  0  0
   -2.4085   -3.9144   -1.1514 H   0  0  0  0  0  0  0  0  0  0  0  0
   -1.2741   -2.7194    0.2309 C   0  0  0  0  0  0  0  0  0  0  0  0
   -0.4594   -3.0729    1.0639 O   0  0  0  0  0  0  0  0  0  0  0  0
   -1.1414   -1.4970   -0.3987 N   0  0  0  0  0  0  0  0  0  0  0  0
   -1.8017   -1.3036   -1.1464 H   0  0  0  0  0  0  0  0  0  0  0  0
    0.0566   -0.6403   -0.2985 C   0  0  1  0  0  0  0  0  0  0  0  0
    0.9154   -1.2287   -0.6415 H   0  0  0  0  0  0  0  0  0  0  0  0
   -0.0704    0.5823   -1.2291 C   0  0  0  0  0  0  0  0  0  0  0  0
    0.7235    1.2931   -0.9697 H   0  0  0  0  0  0  0  0  0  0  0  0
    0.1141    0.2697   -2.2625 H   0  0  0  0  0  0  0  0  0  0  0  0
   -1.4470    1.2767   -1.1678 C   0  0  0  0  0  0  0  0  0  0  0  0
   -2.1306    0.8168   -1.8874 H   0  0  0  0  0  0  0  0  0  0  0  0
   -1.8911    1.1735   -0.1755 H   0  0  0  0  0  0  0  0  0  0  0  0
   -1.3237    2.7650   -1.4616 C   0  0  0  0  0  0  0  0  0  0  0  0
   -1.6715    3.2311   -2.5284 O   0  0  0  0  0  0  0  0  0  0  0  0
   -0.8182    3.6397   -0.5425 N   0  0  0  0  0  0  0  0  0  0  0  0
   -0.6130    4.5748   -0.8829 H   0  0  0  0  0  0  0  0  0  0  0  0
   -0.3264    3.2720    0.2667 H   0  0  0  0  0  0  0  0  0  0  0  0
    0.4082   -0.1862    1.1386 C   0  0  0  0  0  0  0  0  0  0  0  0
    1.5727    0.0753    1.4091 O   0  0  0  0  0  0  0  0  0  0  0  0
   -0.5836    0.2741    1.9868 N   0  0  0  0  0  0  0  0  0  0  0  0
   -1.5173   -0.0706    1.7868 H   0  0  0  0  0  0  0  0  0  0  0  0
   -0.2990    0.7400    3.3391 C   0  0  0  0  0  0  0  0  0  0  0  0
    0.3724    1.6048    3.3154 H   0  0  0  0  0  0  0  0  0  0  0  0
   -1.2253    1.0383    3.8390 H   0  0  0  0  0  0  0  0  0  0  0  0
    0.1721   -0.0555    3.9264 H   0  0  0  0  0  0  0  0  0  0  0  0
  1  2  1  0  0  0  0
  2  3  1  0  0  0  0
  2  4  1  0  0  0  0
  2  5  1  0  0  0  0
  5  6  2  0  0  0  0
  5  7  1  0  0  0  0
  7  8  1  0  0  0  0
  7  9  1  0  0  0  0
  9 10  1  0  0  0  0
  9 11  1  0  0  0  0
  9 22  1  0  0  0  0
 11 12  1  0  0  0  0
 11 13  1  0  0  0  0
 11 14  1  0  0  0  0
 14 15  1  0  0  0  0
 14 16  1  0  0  0  0
 14 17  1  0  0  0  0
 17 18  2  0  0  0  0
 17 19  1  0  0  0  0
 19 20  1  0  0  0  0
 19 21  1  0  0  0  0
 22 23  2  0  0  0  0
 22 24  1  0  0  0  0
 24 25  1  0  0  0  0
 24 26  1  0  0  0  0
 26 27  1  0  0  0  0
 26 28  1  0  0  0  0
 26 29  1  0  0  0  0
M  END
$$$$

  -OEChem-02102214123D

 29 28  0     1  0  0  0  0  0999 V2000
   -2.3333   -4.5763    0.5164 H   0  0  0  0  0  0  0  0  0  0  0  0
   -2.4017   -3.6620   -0.0800 C   0  0  0  0  0  0  0  0  0  0  0  0
   -3.3462   -3.1631    0.1491 H   0  0  0  0  0  0  0  0  0  0  0  0
   -2.3857   -3.9318   -1.1387 H   0  0  0  0  0  0  0  0  0  0  0  0
   -1.2371   -2.7434    0.2376 C   0  0  0  0  0  0  0  0  0  0  0  0
   -0.3923   -3.0900    1.0431 O   0  0  0  0  0  0  0  0  0  0  0  0
   -1.1493   -1.5106   -0.3797 N   0  0  0  0  0  0  0  0  0  0  0  0
   -1.8296   -1.3285   -1.1122 H   0  0  0  0  0  0  0  0  0  0  0  0
    0.0363   -0.6339   -0.3092 C   0  0  1  0  0  0  0  0  0  0  0  0
    0.8927   -1.2042   -0.6871 H   0  0  0  0  0  0  0  0  0  0  0  0
   -0.1390    0.5987   -1.2197 C   0  0  0  0  0  0  0  0  0  0  0  0
    0.6491    1.3222   -0.9797 H   0  0  0  0  0  0  0  0  0  0  0  0
    0.0145    0.2956   -2.2612 H   0  0  0  0  0  0  0  0  0  0  0  0
   -1.5206    1.2732   -1.1088 C   0  0  0  0  0  0  0  0  0  0  0  0
   -2.2818    0.6680   -1.6092 H   0  0  0  0  0  0  0  0  0  0  0  0
   -1.8126    1.3810   -0.0618 H   0  0  0  0  0  0  0  0  0  0  0  0
   -1.4953    2.6593   -1.7365 C   0  0  0  0  0  0  0  0  0  0  0  0
   -1.9081    2.8496   -2.8633 O   0  0  0  0  0  0  0  0  0  0  0  0
   -0.9924    3.7431   -1.0750 N   0  0  0  0  0  0  0  0  0  0  0  0
   -0.8575    4.5838   -1.6295 H   0  0  0  0  0  0  0  0  0  0  0  0
   -0.4531    3.5974   -0.2273 H   0  0  0  0  0  0  0  0  0  0  0  0
    0.4281   -0.1939    1.1216 C   0  0  0  0  0  0  0  0  0  0  0  0
    1.5984    0.0715    1.3623 O   0  0  0  0  0  0  0  0  0  0  0  0
   -0.5432    0.2362    2.0081 N   0  0  0  0  0  0  0  0  0  0  0  0
   -1.4800   -0.1098    1.8259 H   0  0  0  0  0  0  0  0  0  0  0  0
   -0.2246    0.6823    3.3590 C   0  0  0  0  0  0  0  0  0  0  0  0
    0.4332    1.5574    3.3301 H   0  0  0  0  0  0  0  0  0  0  0  0
   -1.1396    0.9579    3.8916 H   0  0  0  0  0  0  0  0  0  0  0  0
    0.2754   -0.1165    3.9169 H   0  0  0  0  0  0  0  0  0  0  0  0
  1  2  1  0  0  0  0
  2  3  1  0  0  0  0
  2  4  1  0  0  0  0
  2  5  1  0  0  0  0
  5  6  2  0  0  0  0
  5  7  1  0  0  0  0
  7  8  1  0  0  0  0
  7  9  1  0  0  0  0
  9 10  1  0  0  0  0
  9 11  1  0  0  0  0
  9 22  1  0  0  0  0
 11 12  1  0  0  0  0
 11 13  1  0  0  0  0
 11 14  1  0  0  0  0
 14 15  1  0  0  0  0
 14 16  1  0  0  0  0
 14 17  1  0  0  0  0
 17 18  2  0  0  0  0
 17 19  1  0  0  0  0
 19 20  1  0  0  0  0
 19 21  1  0  0  0  0
 22 23  2  0  0  0  0
 22 24  1  0  0  0  0
 24 25  1  0  0  0  0
 24 26  1  0  0  0  0
 26 27  1  0  0  0  0
 26 28  1  0  0  0  0
 26 29  1  0  0  0  0
M  END
$$$$

  -OEChem-02102214123D

 29 28  0     1  0  0  0  0  0999 V2000
   -2.3476   -4.5449    0.4827 H   0  0  0  0  0  0  0  0  0  0  0  0
   -2.3984   -3.6333   -0.1198 C   0  0  0  0  0  0  0  0  0  0  0  0
   -3.3326   -3.1140    0.1073 H   0  0  0  0  0  0  0  0  0  0  0  0
   -2.3899   -3.9097   -1.1769 H   0  0  0  0  0  0  0  0  0  0  0  0
   -1.2144   -2.7367    0.1899 C   0  0  0  0  0  0  0  0  0  0  0  0
   -0.3300   -3.1312    0.9283 O   0  0  0  0  0  0  0  0  0  0  0  0
   -1.1534   -1.4695   -0.3567 N   0  0  0  0  0  0  0  0  0  0  0  0
   -1.8715   -1.2392   -1.0381 H   0  0  0  0  0  0  0  0  0  0  0  0
    0.0285   -0.5904   -0.2777 C   0  0  1  0  0  0  0  0  0  0  0  0
    0.8683   -1.1448   -0.7122 H   0  0  0  0  0  0  0  0  0  0  0  0
   -0.1842    0.6607   -1.1506 C   0  0  0  0  0  0  0  0  0  0  0  0
    0.7215    1.2762   -1.1029 H   0  0  0  0  0  0  0  0  0  0  0  0
   -0.3057    0.3452   -2.1927 H   0  0  0  0  0  0  0  0  0  0  0  0
   -1.3996    1.5156   -0.7438 C   0  0  0  0  0  0  0  0  0  0  0  0
   -2.3201    0.9290   -0.8042 H   0  0  0  0  0  0  0  0  0  0  0  0
   -1.2940    1.8705    0.2840 H   0  0  0  0  0  0  0  0  0  0  0  0
   -1.5292    2.7233   -1.6594 C   0  0  0  0  0  0  0  0  0  0  0  0
   -2.1519    2.6576   -2.7012 O   0  0  0  0  0  0  0  0  0  0  0  0
   -0.9080    3.9085   -1.3884 N   0  0  0  0  0  0  0  0  0  0  0  0
   -0.8940    4.5903   -2.1415 H   0  0  0  0  0  0  0  0  0  0  0  0
   -0.2103    3.9435   -0.6521 H   0  0  0  0  0  0  0  0  0  0  0  0
    0.4802   -0.2234    1.1551 C   0  0  0  0  0  0  0  0  0  0  0  0
    1.6593    0.0362    1.3565 O   0  0  0  0  0  0  0  0  0  0  0  0
   -0.4514    0.1527    2.1065 N   0  0  0  0  0  0  0  0  0  0  0  0
   -1.3988   -0.1746    1.9450 H   0  0  0  0  0  0  0  0  0  0  0  0
   -0.0758    0.5493    3.4580 C   0  0  0  0  0  0  0  0  0  0  0  0
    0.5648    1.4371    3.4339 H   0  0  0  0  0  0  0  0  0  0  0  0
   -0.9687    0.7853    4.0447 H   0  0  0  0  0  0  0  0  0  0  0  0
    0.4648   -0.2612    3.9582 H   0  0  0  0  0  0  0  0  0  0  0  0
  1  2  1  0  0  0  0
  2  3  1  0  0  0  0
  2  4  1  0  0  0  0
  2  5  1  0  0  0  0
  5  6  2  0  0  0  0
  5  7  1  0  0  0  0
  7  8  1  0  0  0  0
  7  9  1  0  0  0  0
  9 10  1  0  0  0  0
  9 11  1  0  0  0  0
  9 22  1  0  0  0  0
 11 12  1  0  0  0  0
 11 13  1  0  0  0  0
 11 14  1  0  0  0  0
 14 15  1  0  0  0  0
 14 16  1  0  0  0  0
 14 17  1  0  0  0  0
 17 18  2  0  0  0  0
 17 19  1  0  0  0  0
 19 20  1  0  0  0  0
 19 21  1  0  0  0  0
 22 23  2  0  0  0  0
 22 24  1  0  0  0  0
 24 25  1  0  0  0  0
 24 26  1  0  0  0  0
 26 27  1  0  0  0  0
 26 28  1  0  0  0  0
 26 29  1  0  0  0  0
M  END
$$$$

  -OEChem-02102214123D

 29 28  0     1  0  0  0  0  0999 V2000
   -2.3114   -4.5802    0.4289 H   0  0  0  0  0  0  0  0  0  0  0  0
   -2.4113   -3.6270   -0.0983 C   0  0  0  0  0  0  0  0  0  0  0  0
   -3.3279   -3.1352    0.2358 H   0  0  0  0  0  0  0  0  0  0  0  0
   -2.4816   -3.8246   -1.1707 H   0  0  0  0  0  0  0  0  0  0  0  0
   -1.2119   -2.7437    0.1887 C   0  0  0  0  0  0  0  0  0  0  0  0
   -0.3162   -3.1497    0.9071 O   0  0  0  0  0  0  0  0  0  0  0  0
   -1.1504   -1.4750   -0.3538 N   0  0  0  0  0  0  0  0  0  0  0  0
   -1.8795   -1.2345   -1.0208 H   0  0  0  0  0  0  0  0  0  0  0  0
    0.0387   -0.6036   -0.2884 C   0  0  1  0  0  0  0  0  0  0  0  0
    0.8694   -1.1533   -0.7458 H   0  0  0  0  0  0  0  0  0  0  0  0
   -0.1897    0.6654   -1.1300 C   0  0  0  0  0  0  0  0  0  0  0  0
    0.7180    1.2794   -1.1121 H   0  0  0  0  0  0  0  0  0  0  0  0
   -0.3500    0.3556   -2.1691 H   0  0  0  0  0  0  0  0  0  0  0  0
   -1.3901    1.5167   -0.6706 C   0  0  0  0  0  0  0  0  0  0  0  0
   -2.2628    0.8887   -0.4746 H   0  0  0  0  0  0  0  0  0  0  0  0
   -1.1453    2.0451    0.2548 H   0  0  0  0  0  0  0  0  0  0  0  0
   -1.7715    2.5248   -1.7433 C   0  0  0  0  0  0  0  0  0  0  0  0
   -2.4637    2.2010   -2.6888 O   0  0  0  0  0  0  0  0  0  0  0  0
   -1.3003    3.8062   -1.7354 N   0  0  0  0  0  0  0  0  0  0  0  0
   -1.4477    4.3451   -2.5841 H   0  0  0  0  0  0  0  0  0  0  0  0
   -0.5581    4.0571   -1.0903 H   0  0  0  0  0  0  0  0  0  0  0  0
    0.5095   -0.2477    1.1409 C   0  0  0  0  0  0  0  0  0  0  0  0
    1.6943   -0.0116    1.3371 O   0  0  0  0  0  0  0  0  0  0  0  0
   -0.4113    0.1291    2.1024 N   0  0  0  0  0  0  0  0  0  0  0  0
   -1.3650   -0.1770    1.9380 H   0  0  0  0  0  0  0  0  0  0  0  0
   -0.0241    0.4933    3.4596 C   0  0  0  0  0  0  0  0  0  0  0  0
    0.6407    1.3634    3.4495 H   0  0  0  0  0  0  0  0  0  0  0  0
   -0.9099    0.7442    4.0508 H   0  0  0  0  0  0  0  0  0  0  0  0
    0.4940   -0.3403    3.9458 H   0  0  0  0  0  0  0  0  0  0  0  0
  1  2  1  0  0  0  0
  2  3  1  0  0  0  0
  2  4  1  0  0  0  0
  2  5  1  0  0  0  0
  5  6  2  0  0  0  0
  5  7  1  0  0  0  0
  7  8  1  0  0  0  0
  7  9  1  0  0  0  0
  9 10  1  0  0  0  0
  9 11  1  0  0  0  0
  9 22  1  0  0  0  0
 11 12  1  0  0  0  0
 11 13  1  0  0  0  0
 11 14  1  0  0  0  0
 14 15  1  0  0  0  0
 14 16  1  0  0  0  0
 14 17  1  0  0  0  0
 17 18  2  0  0  0  0
 17 19  1  0  0  0  0
 19 20  1  0  0  0  0
 19 21  1  0  0  0  0
 22 23  2  0  0  0  0
 22 24  1  0  0  0  0
 24 25  1  0  0  0  0
 24 26  1  0  0  0  0
 26 27  1  0  0  0  0
 26 28  1  0  0  0  0
 26 29  1  0  0  0  0
M  END
$$$$

  -OEChem-02102214123D

 29 28  0     1  0  0  0  0  0999 V2000
   -2.3358   -4.5766    0.3995 H   0  0  0  0  0  0  0  0  0  0  0  0
   -2.4394   -3.6091   -0.1000 C   0  0  0  0  0  0  0  0  0  0  0  0
   -3.3419   -3.1167    0.2702 H   0  0  0  0  0  0  0  0  0  0  0  0
   -2.5389   -3.7780   -1.1750 H   0  0  0  0  0  0  0  0  0  0  0  0
   -1.2235   -2.7458    0.1787 C   0  0  0  0  0  0  0  0  0  0  0  0
   -0.3218   -3.1729    0.8772 O   0  0  0  0  0  0  0  0  0  0  0  0
   -1.1533   -1.4707   -0.3471 N   0  0  0  0  0  0  0  0  0  0  0  0
   -1.8928   -1.2073   -0.9948 H   0  0  0  0  0  0  0  0  0  0  0  0
    0.0466   -0.6136   -0.2881 C   0  0  1  0  0  0  0  0  0  0  0  0
    0.8635   -1.1630   -0.7698 H   0  0  0  0  0  0  0  0  0  0  0  0
   -0.1900    0.6704   -1.1032 C   0  0  0  0  0  0  0  0  0  0  0  0
    0.7212    1.2793   -1.1011 H   0  0  0  0  0  0  0  0  0  0  0  0
   -0.3730    0.3696   -2.1412 H   0  0  0  0  0  0  0  0  0  0  0  0
   -1.3763    1.5231   -0.6029 C   0  0  0  0  0  0  0  0  0  0  0  0
   -2.1524    0.8971   -0.1562 H   0  0  0  0  0  0  0  0  0  0  0  0
   -1.0344    2.2183    0.1691 H   0  0  0  0  0  0  0  0  0  0  0  0
   -2.0168    2.2904   -1.7497 C   0  0  0  0  0  0  0  0  0  0  0  0
   -2.7566    1.7310   -2.5366 O   0  0  0  0  0  0  0  0  0  0  0  0
   -1.7410    3.6054   -1.9917 N   0  0  0  0  0  0  0  0  0  0  0  0
   -2.0647    3.9789   -2.8795 H   0  0  0  0  0  0  0  0  0  0  0  0
   -0.9788    4.0531   -1.4935 H   0  0  0  0  0  0  0  0  0  0  0  0
    0.5465   -0.2792    1.1362 C   0  0  0  0  0  0  0  0  0  0  0  0
    1.7378   -0.0614    1.3137 O   0  0  0  0  0  0  0  0  0  0  0  0
   -0.3522    0.0973    2.1186 N   0  0  0  0  0  0  0  0  0  0  0  0
   -1.3110   -0.2014    1.9712 H   0  0  0  0  0  0  0  0  0  0  0  0
    0.0653    0.4473    3.4707 C   0  0  0  0  0  0  0  0  0  0  0  0
    0.7478    1.3035    3.4529 H   0  0  0  0  0  0  0  0  0  0  0  0
   -0.8049    0.7146    4.0775 H   0  0  0  0  0  0  0  0  0  0  0  0
    0.5738   -0.3988    3.9454 H   0  0  0  0  0  0  0  0  0  0  0  0
  1  2  1  0  0  0  0
  2  3  1  0  0  0  0
  2  4  1  0  0  0  0
  2  5  1  0  0  0  0
  5  6  2  0  0  0  0
  5  7  1  0  0  0  0
  7  8  1  0  0  0  0
  7  9  1  0  0  0  0
  9 10  1  0  0  0  0
  9 11  1  0  0  0  0
  9 22  1  0  0  0  0
 11 12  1  0  0  0  0
 11 13  1  0  0  0  0
 11 14  1  0  0  0  0
 14 15  1  0  0  0  0
 14 16  1  0  0  0  0
 14 17  1  0  0  0  0
 17 18  2  0  0  0  0
 17 19  1  0  0  0  0
 19 20  1  0  0  0  0
 19 21  1  0  0  0  0
 22 23  2  0  0  0  0
 22 24  1  0  0  0  0
 24 25  1  0  0  0  0
 24 26  1  0  0  0  0
 26 27  1  0  0  0  0
 26 28  1  0  0  0  0
 26 29  1  0  0  0  0
M  END
$$$$

  -OEChem-02102214123D

 29 28  0     1  0  0  0  0  0999 V2000
   -2.4517   -4.4975    0.4430 H   0  0  0  0  0  0  0  0  0  0  0  0
   -2.4918   -3.5548   -0.1100 C   0  0  0  0  0  0  0  0  0  0  0  0
   -3.3852   -3.0051    0.1959 H   0  0  0  0  0  0  0  0  0  0  0  0
   -2.5565   -3.7755   -1.1783 H   0  0  0  0  0  0  0  0  0  0  0  0
   -1.2505   -2.7300    0.1728 C   0  0  0  0  0  0  0  0  0  0  0  0
   -0.3575   -3.1899    0.8621 O   0  0  0  0  0  0  0  0  0  0  0  0
   -1.1482   -1.4516   -0.3378 N   0  0  0  0  0  0  0  0  0  0  0  0
   -1.8917   -1.1542   -0.9680 H   0  0  0  0  0  0  0  0  0  0  0  0
    0.0722   -0.6245   -0.2775 C   0  0  1  0  0  0  0  0  0  0  0  0
    0.8729   -1.1866   -0.7716 H   0  0  0  0  0  0  0  0  0  0  0  0
   -0.1567    0.6624   -1.0877 C   0  0  0  0  0  0  0  0  0  0  0  0
    0.7609    1.2616   -1.0834 H   0  0  0  0  0  0  0  0  0  0  0  0
   -0.3413    0.3713   -2.1283 H   0  0  0  0  0  0  0  0  0  0  0  0
   -1.3300    1.5250   -0.5689 C   0  0  0  0  0  0  0  0  0  0  0  0
   -1.9688    0.9629    0.1163 H   0  0  0  0  0  0  0  0  0  0  0  0
   -0.9378    2.3815   -0.0133 H   0  0  0  0  0  0  0  0  0  0  0  0
   -2.2017    2.0056   -1.7183 C   0  0  0  0  0  0  0  0  0  0  0  0
   -2.9808    1.2423   -2.2582 O   0  0  0  0  0  0  0  0  0  0  0  0
   -2.1101    3.2675   -2.2320 N   0  0  0  0  0  0  0  0  0  0  0  0
   -2.8095    3.5341   -2.9194 H   0  0  0  0  0  0  0  0  0  0  0  0
   -1.5786    3.9744   -1.7345 H   0  0  0  0  0  0  0  0  0  0  0  0
    0.5950   -0.3142    1.1440 C   0  0  0  0  0  0  0  0  0  0  0  0
    1.7932   -0.1272    1.3098 O   0  0  0  0  0  0  0  0  0  0  0  0
   -0.2818    0.0755    2.1407 N   0  0  0  0  0  0  0  0  0  0  0  0
   -1.2482   -0.2029    2.0045 H   0  0  0  0  0  0  0  0  0  0  0  0
    0.1621    0.4021    3.4901 C   0  0  0  0  0  0  0  0  0  0  0  0
    0.8391    1.2626    3.4734 H   0  0  0  0  0  0  0  0  0  0  0  0
   -0.6965    0.6515    4.1208 H   0  0  0  0  0  0  0  0  0  0  0  0
    0.6863   -0.4496    3.9367 H   0  0  0  0  0  0  0  0  0  0  0  0
  1  2  1  0  0  0  0
  2  3  1  0  0  0  0
  2  4  1  0  0  0  0
  2  5  1  0  0  0  0
  5  6  2  0  0  0  0
  5  7  1  0  0  0  0
  7  8  1  0  0  0  0
  7  9  1  0  0  0  0
  9 10  1  0  0  0  0
  9 11  1  0  0  0  0
  9 22  1  0  0  0  0
 11 12  1  0  0  0  0
 11 13  1  0  0  0  0
 11 14  1  0  0  0  0
 14 15  1  0  0  0  0
 14 16  1  0  0  0  0
 14 17  1  0  0  0  0
 17 18  2  0  0  0  0
 17 19  1  0  0  0  0
 19 20  1  0  0  0  0
 19 21  1  0  0  0  0
 22 23  2  0  0  0  0
 22 24  1  0  0  0  0
 24 25  1  0  0  0  0
 24 26  1  0  0  0  0
 26 27  1  0  0  0  0
 26 28  1  0  0  0  0
 26 29  1  0  0  0  0
M  END
$$$$

  -OEChem-02102214123D

 29 28  0     1  0  0  0  0  0999 V2000
   -2.5347   -4.4360    0.4029 H   0  0  0  0  0  0  0  0  0  0  0  0
   -2.5667   -3.4677   -0.1045 C   0  0  0  0  0  0  0  0  0  0  0  0
   -3.4268   -2.9044    0.2653 H   0  0  0  0  0  0  0  0  0  0  0  0
   -2.6847   -3.6358   -1.1777 H   0  0  0  0  0  0  0  0  0  0  0  0
   -1.2875   -2.6964    0.1600 C   0  0  0  0  0  0  0  0  0  0  0  0
   -0.3940   -3.2021    0.8162 O   0  0  0  0  0  0  0  0  0  0  0  0
   -1.1512   -1.4119   -0.3244 N   0  0  0  0  0  0  0  0  0  0  0  0
   -1.9082   -1.0623   -0.9150 H   0  0  0  0  0  0  0  0  0  0  0  0
    0.0897   -0.6173   -0.2582 C   0  0  1  0  0  0  0  0  0  0  0  0
    0.8713   -1.1955   -0.7640 H   0  0  0  0  0  0  0  0  0  0  0  0
   -0.1280    0.6655   -1.0752 C   0  0  0  0  0  0  0  0  0  0  0  0
    0.7957    1.2544   -1.0499 H   0  0  0  0  0  0  0  0  0  0  0  0
   -0.2963    0.3885   -2.1224 H   0  0  0  0  0  0  0  0  0  0  0  0
   -1.2932    1.5366   -0.5511 C   0  0  0  0  0  0  0  0  0  0  0  0
   -1.7649    1.1022    0.3326 H   0  0  0  0  0  0  0  0  0  0  0  0
   -0.9093    2.5191   -0.2627 H   0  0  0  0  0  0  0  0  0  0  0  0
   -2.3582    1.7045   -1.6224 C   0  0  0  0  0  0  0  0  0  0  0  0
   -3.0201    0.7426   -1.9709 O   0  0  0  0  0  0  0  0  0  0  0  0
   -2.5822    2.8873   -2.2667 N   0  0  0  0  0  0  0  0  0  0  0  0
   -3.3916    2.9293   -2.8797 H   0  0  0  0  0  0  0  0  0  0  0  0
   -2.1561    3.7386   -1.9150 H   0  0  0  0  0  0  0  0  0  0  0  0
    0.6425   -0.3403    1.1593 C   0  0  0  0  0  0  0  0  0  0  0  0
    1.8481   -0.1856    1.3056 O   0  0  0  0  0  0  0  0  0  0  0  0
   -0.2037    0.0565    2.1793 N   0  0  0  0  0  0  0  0  0  0  0  0
   -1.1786   -0.2003    2.0603 H   0  0  0  0  0  0  0  0  0  0  0  0
    0.2756    0.3513    3.5237 C   0  0  0  0  0  0  0  0  0  0  0  0
    0.9879    1.1828    3.5039 H   0  0  0  0  0  0  0  0  0  0  0  0
   -0.5610    0.6310    4.1708 H   0  0  0  0  0  0  0  0  0  0  0  0
    0.7697   -0.5263    3.9540 H   0  0  0  0  0  0  0  0  0  0  0  0
  1  2  1  0  0  0  0
  2  3  1  0  0  0  0
  2  4  1  0  0  0  0
  2  5  1  0  0  0  0
  5  6  2  0  0  0  0
  5  7  1  0  0  0  0
  7  8  1  0  0  0  0
  7  9  1  0  0  0  0
  9 10  1  0  0  0  0
  9 11  1  0  0  0  0
  9 22  1  0  0  0  0
 11 12  1  0  0  0  0
 11 13  1  0  0  0  0
 11 14  1  0  0  0  0
 14 15  1  0  0  0  0
 14 16  1  0  0  0  0
 14 17  1  0  0  0  0
 17 18  2  0  0  0  0
 17 19  1  0  0  0  0
 19 20  1  0  0  0  0
 19 21  1  0  0  0  0
 22 23  2  0  0  0  0
 22 24  1  0  0  0  0
 24 25  1  0  0  0  0
 24 26  1  0  0  0  0
 26 27  1  0  0  0  0
 26 28  1  0  0  0  0
 26 29  1  0  0  0  0
M  END
$$$$

  -OEChem-02102214123D

 29 28  0     1  0  0  0  0  0999 V2000
   -2.5686   -4.4056    0.4472 H   0  0  0  0  0  0  0  0  0  0  0  0
   -2.6027   -3.4302   -0.0462 C   0  0  0  0  0  0  0  0  0  0  0  0
   -3.4303   -2.8520    0.3717 H   0  0  0  0  0  0  0  0  0  0  0  0
   -2.7769   -3.5808   -1.1144 H   0  0  0  0  0  0  0  0  0  0  0  0
   -1.2948   -2.6918    0.1646 C   0  0  0  0  0  0  0  0  0  0  0  0
   -0.3798   -3.2279    0.7655 O   0  0  0  0  0  0  0  0  0  0  0  0
   -1.1560   -1.4023   -0.3035 N   0  0  0  0  0  0  0  0  0  0  0  0
   -1.9476   -1.0144   -0.8252 H   0  0  0  0  0  0  0  0  0  0  0  0
    0.0886   -0.6154   -0.2529 C   0  0  1  0  0  0  0  0  0  0  0  0
    0.8559   -1.2036   -0.7691 H   0  0  0  0  0  0  0  0  0  0  0  0
   -0.1062    0.6739   -1.0717 C   0  0  0  0  0  0  0  0  0  0  0  0
    0.8315    1.2394   -1.0281 H   0  0  0  0  0  0  0  0  0  0  0  0
   -0.2691    0.4126   -2.1234 H   0  0  0  0  0  0  0  0  0  0  0  0
   -1.2500    1.5809   -0.5629 C   0  0  0  0  0  0  0  0  0  0  0  0
   -1.5455    1.3355    0.4581 H   0  0  0  0  0  0  0  0  0  0  0  0
   -0.9013    2.6172   -0.5575 H   0  0  0  0  0  0  0  0  0  0  0  0
   -2.4708    1.4848   -1.4687 C   0  0  0  0  0  0  0  0  0  0  0  0
   -3.0556    0.4243   -1.6093 O   0  0  0  0  0  0  0  0  0  0  0  0
   -2.9338    2.5449   -2.1940 N   0  0  0  0  0  0  0  0  0  0  0  0
   -3.8191    2.4180   -2.6766 H   0  0  0  0  0  0  0  0  0  0  0  0
   -2.5815    3.4766   -1.9997 H   0  0  0  0  0  0  0  0  0  0  0  0
    0.6635   -0.3659    1.1609 C   0  0  0  0  0  0  0  0  0  0  0  0
    1.8717   -0.2203    1.2940 O   0  0  0  0  0  0  0  0  0  0  0  0
   -0.1668    0.0172    2.1990 N   0  0  0  0  0  0  0  0  0  0  0  0
   -1.1454   -0.2289    2.0863 H   0  0  0  0  0  0  0  0  0  0  0  0
    0.3297    0.2897    3.5420 C   0  0  0  0  0  0  0  0  0  0  0  0
    1.0426    1.1208    3.5266 H   0  0  0  0  0  0  0  0  0  0  0  0
   -0.4992    0.5599    4.2032 H   0  0  0  0  0  0  0  0  0  0  0  0
    0.8282   -0.5950    3.9520 H   0  0  0  0  0  0  0  0  0  0  0  0
  1  2  1  0  0  0  0
  2  3  1  0  0  0  0
  2  4  1  0  0  0  0
  2  5  1  0  0  0  0
  5  6  2  0  0  0  0
  5  7  1  0  0  0  0
  7  8  1  0  0  0  0
  7  9  1  0  0  0  0
  9 10  1  0  0  0  0
  9 11  1  0  0  0  0
  9 22  1  0  0  0  0
 11 12  1  0  0  0  0
 11 13  1  0  0  0  0
 11 14  1  0  0  0  0
 14 15  1  0  0  0  0
 14 16  1  0  0  0  0
 14 17  1  0  0  0  0
 17 18  2  0  0  0  0
 17 19  1  0  0  0  0
 19 20  1  0  0  0  0
 19 21  1  0  0  0  0
 22 23  2  0  0  0  0
 22 24  1  0  0  0  0
 24 25  1  0  0  0  0
 24 26  1  0  0  0  0
 26 27  1  0  0  0  0
 26 28  1  0  0  0  0
 26 29  1  0  0  0  0
M  END
$$$$

  -OEChem-02102214123D

 29 28  0     1  0  0  0  0  0999 V2000
   -2.6171   -4.4191    0.4920 H   0  0  0  0  0  0  0  0  0  0  0  0
   -2.6201   -3.4540   -0.0220 C   0  0  0  0  0  0  0  0  0  0  0  0
   -3.4629   -2.8617    0.3425 H   0  0  0  0  0  0  0  0  0  0  0  0
   -2.7429   -3.6255   -1.0942 H   0  0  0  0  0  0  0  0  0  0  0  0
   -1.3195   -2.7179    0.2369 C   0  0  0  0  0  0  0  0  0  0  0  0
   -0.4517   -3.2304    0.9225 O   0  0  0  0  0  0  0  0  0  0  0  0
   -1.1379   -1.4567   -0.2897 N   0  0  0  0  0  0  0  0  0  0  0  0
   -1.8783   -1.1120   -0.9073 H   0  0  0  0  0  0  0  0  0  0  0  0
    0.1209   -0.6964   -0.2510 C   0  0  1  0  0  0  0  0  0  0  0  0
    0.8841   -1.3310   -0.7155 H   0  0  0  0  0  0  0  0  0  0  0  0
    0.0112    0.5723   -1.1261 C   0  0  0  0  0  0  0  0  0  0  0  0
    0.9767    1.0877   -1.0716 H   0  0  0  0  0  0  0  0  0  0  0  0
   -0.1292    0.2755   -2.1714 H   0  0  0  0  0  0  0  0  0  0  0  0
   -1.0945    1.5803   -0.7264 C   0  0  0  0  0  0  0  0  0  0  0  0
   -1.2307    1.6054    0.3556 H   0  0  0  0  0  0  0  0  0  0  0  0
   -0.7573    2.5754   -1.0296 H   0  0  0  0  0  0  0  0  0  0  0  0
   -2.4488    1.3417   -1.3947 C   0  0  0  0  0  0  0  0  0  0  0  0
   -2.8219    0.2468   -1.7791 O   0  0  0  0  0  0  0  0  0  0  0  0
   -3.3445    2.3580   -1.5620 N   0  0  0  0  0  0  0  0  0  0  0  0
   -4.2732    2.1065   -1.8886 H   0  0  0  0  0  0  0  0  0  0  0  0
   -3.1704    3.2620   -1.1349 H   0  0  0  0  0  0  0  0  0  0  0  0
    0.6589   -0.3971    1.1674 C   0  0  0  0  0  0  0  0  0  0  0  0
    1.8649   -0.2640    1.3318 O   0  0  0  0  0  0  0  0  0  0  0  0
   -0.1972    0.0495    2.1583 N   0  0  0  0  0  0  0  0  0  0  0  0
   -1.1736   -0.1966    2.0282 H   0  0  0  0  0  0  0  0  0  0  0  0
    0.2620    0.3790    3.5020 C   0  0  0  0  0  0  0  0  0  0  0  0
    0.9994    1.1880    3.4691 H   0  0  0  0  0  0  0  0  0  0  0  0
   -0.5796    0.7067    4.1194 H   0  0  0  0  0  0  0  0  0  0  0  0
    0.7207   -0.4964    3.9744 H   0  0  0  0  0  0  0  0  0  0  0  0
  1  2  1  0  0  0  0
  2  3  1  0  0  0  0
  2  4  1  0  0  0  0
  2  5  1  0  0  0  0
  5  6  2  0  0  0  0
  5  7  1  0  0  0  0
  7  8  1  0  0  0  0
  7  9  1  0  0  0  0
  9 10  1  0  0  0  0
  9 11  1  0  0  0  0
  9 22  1  0  0  0  0
 11 12  1  0  0  0  0
 11 13  1  0  0  0  0
 11 14  1  0  0  0  0
 14 15  1  0  0  0  0
 14 16  1  0  0  0  0
 14 17  1  0  0  0  0
 17 18  2  0  0  0  0
 17 19  1  0  0  0  0
 19 20  1  0  0  0  0
 19 21  1  0  0  0  0
 22 23  2  0  0  0  0
 22 24  1  0  0  0  0
 24 25  1  0  0  0  0
 24 26  1  0  0  0  0
 26 27  1  0  0  0  0
 26 28  1  0  0  0  0
 26 29  1  0  0  0  0
M  END
$$$$

  -OEChem-02102214123D

 29 28  0     1  0  0  0  0  0999 V2000
   -2.6359   -4.4140    0.5155 H   0  0  0  0  0  0  0  0  0  0  0  0
   -2.6330   -3.4522   -0.0047 C   0  0  0  0  0  0  0  0  0  0  0  0
   -3.4804   -2.8582    0.3454 H   0  0  0  0  0  0  0  0  0  0  0  0
   -2.7418   -3.6312   -1.0773 H   0  0  0  0  0  0  0  0  0  0  0  0
   -1.3364   -2.7139    0.2669 C   0  0  0  0  0  0  0  0  0  0  0  0
   -0.4955   -3.2057    0.9992 O   0  0  0  0  0  0  0  0  0  0  0  0
   -1.1290   -1.4743   -0.3008 N   0  0  0  0  0  0  0  0  0  0  0  0
   -1.8395   -1.1585   -0.9667 H   0  0  0  0  0  0  0  0  0  0  0  0
    0.1412   -0.7316   -0.2650 C   0  0  1  0  0  0  0  0  0  0  0  0
    0.9040   -1.3894   -0.6967 H   0  0  0  0  0  0  0  0  0  0  0  0
    0.0774    0.5264   -1.1631 C   0  0  0  0  0  0  0  0  0  0  0  0
    1.0562    1.0164   -1.1119 H   0  0  0  0  0  0  0  0  0  0  0  0
   -0.0640    0.2089   -2.2020 H   0  0  0  0  0  0  0  0  0  0  0  0
   -1.0041    1.5774   -0.8083 C   0  0  0  0  0  0  0  0  0  0  0  0
   -0.9640    1.8061    0.2585 H   0  0  0  0  0  0  0  0  0  0  0  0
   -0.7604    2.5000   -1.3422 H   0  0  0  0  0  0  0  0  0  0  0  0
   -2.4404    1.2131   -1.1836 C   0  0  0  0  0  0  0  0  0  0  0  0
   -2.7376    0.2407   -1.8556 O   0  0  0  0  0  0  0  0  0  0  0  0
   -3.4930    1.9645   -0.7473 N   0  0  0  0  0  0  0  0  0  0  0  0
   -4.3928    1.7666   -1.1764 H   0  0  0  0  0  0  0  0  0  0  0  0
   -3.3105    2.8782   -0.3448 H   0  0  0  0  0  0  0  0  0  0  0  0
    0.6456   -0.3985    1.1578 C   0  0  0  0  0  0  0  0  0  0  0  0
    1.8479   -0.2770    1.3538 O   0  0  0  0  0  0  0  0  0  0  0  0
   -0.2353    0.0899    2.1066 N   0  0  0  0  0  0  0  0  0  0  0  0
   -1.2097   -0.1514    1.9541 H   0  0  0  0  0  0  0  0  0  0  0  0
    0.1851    0.4543    3.4536 C   0  0  0  0  0  0  0  0  0  0  0  0
    0.9453    1.2418    3.4193 H   0  0  0  0  0  0  0  0  0  0  0  0
   -0.6689    0.8263    4.0276 H   0  0  0  0  0  0  0  0  0  0  0  0
    0.6016   -0.4155    3.9725 H   0  0  0  0  0  0  0  0  0  0  0  0
  1  2  1  0  0  0  0
  2  3  1  0  0  0  0
  2  4  1  0  0  0  0
  2  5  1  0  0  0  0
  5  6  2  0  0  0  0
  5  7  1  0  0  0  0
  7  8  1  0  0  0  0
  7  9  1  0  0  0  0
  9 10  1  0  0  0  0
  9 11  1  0  0  0  0
  9 22  1  0  0  0  0
 11 12  1  0  0  0  0
 11 13  1  0  0  0  0
 11 14  1  0  0  0  0
 14 15  1  0  0  0  0
 14 16  1  0  0  0  0
 14 17  1  0  0  0  0
 17 18  2  0  0  0  0
 17 19  1  0  0  0  0
 19 20  1  0  0  0  0
 19 21  1  0  0  0  0
 22 23  2  0  0  0  0
 22 24  1  0  0  0  0
 24 25  1  0  0  0  0
 24 26  1  0  0  0  0
 26 27  1  0  0  0  0
 26 28  1  0  0  0  0
 26 29  1  0  0  0  0
M  END
$$$$

  -OEChem-02102214123D

 29 28  0     1  0  0  0  0  0999 V2000
   -2.6422   -4.4003    0.5585 H   0  0  0  0  0  0  0  0  0  0  0  0
   -2.6361   -3.4457    0.0250 C   0  0  0  0  0  0  0  0  0  0  0  0
   -3.4723   -2.8374    0.3780 H   0  0  0  0  0  0  0  0  0  0  0  0
   -2.7622   -3.6383   -1.0432 H   0  0  0  0  0  0  0  0  0  0  0  0
   -1.3271   -2.7192    0.2677 C   0  0  0  0  0  0  0  0  0  0  0  0
   -0.4880   -3.2034    1.0072 O   0  0  0  0  0  0  0  0  0  0  0  0
   -1.1083   -1.4956   -0.3302 N   0  0  0  0  0  0  0  0  0  0  0  0
   -1.8264   -1.1766   -0.9864 H   0  0  0  0  0  0  0  0  0  0  0  0
    0.1590   -0.7473   -0.2887 C   0  0  1  0  0  0  0  0  0  0  0  0
    0.9348   -1.4084   -0.6911 H   0  0  0  0  0  0  0  0  0  0  0  0
    0.1209    0.5098   -1.1923 C   0  0  0  0  0  0  0  0  0  0  0  0
    1.1070    0.9862   -1.1501 H   0  0  0  0  0  0  0  0  0  0  0  0
   -0.0272    0.1758   -2.2248 H   0  0  0  0  0  0  0  0  0  0  0  0
   -0.9494    1.5855   -0.8771 C   0  0  0  0  0  0  0  0  0  0  0  0
   -0.7561    1.9900    0.1197 H   0  0  0  0  0  0  0  0  0  0  0  0
   -0.8281    2.4092   -1.5858 H   0  0  0  0  0  0  0  0  0  0  0  0
   -2.4068    1.1363   -0.9436 C   0  0  0  0  0  0  0  0  0  0  0  0
   -2.8017    0.2781   -1.7134 O   0  0  0  0  0  0  0  0  0  0  0  0
   -3.3486    1.6470   -0.0980 N   0  0  0  0  0  0  0  0  0  0  0  0
   -4.3144    1.4337   -0.3319 H   0  0  0  0  0  0  0  0  0  0  0  0
   -3.1292    2.4951    0.4151 H   0  0  0  0  0  0  0  0  0  0  0  0
    0.6188   -0.3784    1.1393 C   0  0  0  0  0  0  0  0  0  0  0  0
    1.8135   -0.2495    1.3723 O   0  0  0  0  0  0  0  0  0  0  0  0
   -0.2956    0.1291    2.0458 N   0  0  0  0  0  0  0  0  0  0  0  0
   -1.2642   -0.1156    1.8640 H   0  0  0  0  0  0  0  0  0  0  0  0
    0.0800    0.5139    3.4004 C   0  0  0  0  0  0  0  0  0  0  0  0
    0.8405    1.3016    3.3792 H   0  0  0  0  0  0  0  0  0  0  0  0
   -0.7919    0.8929    3.9418 H   0  0  0  0  0  0  0  0  0  0  0  0
    0.4809   -0.3478    3.9447 H   0  0  0  0  0  0  0  0  0  0  0  0
  1  2  1  0  0  0  0
  2  3  1  0  0  0  0
  2  4  1  0  0  0  0
  2  5  1  0  0  0  0
  5  6  2  0  0  0  0
  5  7  1  0  0  0  0
  7  8  1  0  0  0  0
  7  9  1  0  0  0  0
  9 10  1  0  0  0  0
  9 11  1  0  0  0  0
  9 22  1  0  0  0  0
 11 12  1  0  0  0  0
 11 13  1  0  0  0  0
 11 14  1  0  0  0  0
 14 15  1  0  0  0  0
 14 16  1  0  0  0  0
 14 17  1  0  0  0  0
 17 18  2  0  0  0  0
 17 19  1  0  0  0  0
 19 20  1  0  0  0  0
 19 21  1  0  0  0  0
 22 23  2  0  0  0  0
 22 24  1  0  0  0  0
 24 25  1  0  0  0  0
 24 26  1  0  0  0  0
 26 27  1  0  0  0  0
 26 28  1  0  0  0  0
 26 29  1  0  0  0  0
M  END
$$$$

  -OEChem-02102214123D

 29 28  0     1  0  0  0  0  0999 V2000
   -2.6304   -4.3865    0.6092 H   0  0  0  0  0  0  0  0  0  0  0  0
   -2.6272   -3.4417    0.0585 C   0  0  0  0  0  0  0  0  0  0  0  0
   -3.4443   -2.8156    0.4248 H   0  0  0  0  0  0  0  0  0  0  0  0
   -2.7869   -3.6513   -1.0020 H   0  0  0  0  0  0  0  0  0  0  0  0
   -1.3024   -2.7290    0.2505 C   0  0  0  0  0  0  0  0  0  0  0  0
   -0.4421   -3.2184    0.9614 O   0  0  0  0  0  0  0  0  0  0  0  0
   -1.0907   -1.5116   -0.3621 N   0  0  0  0  0  0  0  0  0  0  0  0
   -1.8462   -1.1625   -0.9581 H   0  0  0  0  0  0  0  0  0  0  0  0
    0.1650   -0.7437   -0.3115 C   0  0  1  0  0  0  0  0  0  0  0  0
    0.9568   -1.3968   -0.6953 H   0  0  0  0  0  0  0  0  0  0  0  0
    0.1286    0.5132   -1.2149 C   0  0  0  0  0  0  0  0  0  0  0  0
    1.1145    0.9907   -1.1809 H   0  0  0  0  0  0  0  0  0  0  0  0
   -0.0201    0.1638   -2.2421 H   0  0  0  0  0  0  0  0  0  0  0  0
   -0.9463    1.5951   -0.9322 C   0  0  0  0  0  0  0  0  0  0  0  0
   -0.6241    2.1670   -0.0574 H   0  0  0  0  0  0  0  0  0  0  0  0
   -0.9755    2.2898   -1.7762 H   0  0  0  0  0  0  0  0  0  0  0  0
   -2.3673    1.1071   -0.6736 C   0  0  0  0  0  0  0  0  0  0  0  0
   -2.9395    0.3425   -1.4299 O   0  0  0  0  0  0  0  0  0  0  0  0
   -3.0346    1.4119    0.4784 N   0  0  0  0  0  0  0  0  0  0  0  0
   -4.0280    1.1961    0.4788 H   0  0  0  0  0  0  0  0  0  0  0  0
   -2.6891    2.1843    1.0405 H   0  0  0  0  0  0  0  0  0  0  0  0
    0.5902   -0.3490    1.1203 C   0  0  0  0  0  0  0  0  0  0  0  0
    1.7774   -0.2027    1.3791 O   0  0  0  0  0  0  0  0  0  0  0  0
   -0.3507    0.1569    2.0003 N   0  0  0  0  0  0  0  0  0  0  0  0
   -1.3161   -0.0794    1.7884 H   0  0  0  0  0  0  0  0  0  0  0  0
   -0.0130    0.5562    3.3606 C   0  0  0  0  0  0  0  0  0  0  0  0
    0.7235    1.3667    3.3511 H   0  0  0  0  0  0  0  0  0  0  0  0
   -0.9062    0.9090    3.8844 H   0  0  0  0  0  0  0  0  0  0  0  0
    0.4037   -0.2914    3.9150 H   0  0  0  0  0  0  0  0  0  0  0  0
  1  2  1  0  0  0  0
  2  3  1  0  0  0  0
  2  4  1  0  0  0  0
  2  5  1  0  0  0  0
  5  6  2  0  0  0  0
  5  7  1  0  0  0  0
  7  8  1  0  0  0  0
  7  9  1  0  0  0  0
  9 10  1  0  0  0  0
  9 11  1  0  0  0  0
  9 22  1  0  0  0  0
 11 12  1  0  0  0  0
 11 13  1  0  0  0  0
 11 14  1  0  0  0  0
 14 15  1  0  0  0  0
 14 16  1  0  0  0  0
 14 17  1  0  0  0  0
 17 18  2  0  0  0  0
 17 19  1  0  0  0  0
 19 20  1  0  0  0  0
 19 21  1  0  0  0  0
 22 23  2  0  0  0  0
 22 24  1  0  0  0  0
 24 25  1  0  0  0  0
 24 26  1  0  0  0  0
 26 27  1  0  0  0  0
 26 28  1  0  0  0  0
 26 29  1  0  0  0  0
M  END
$$$$

  -OEChem-02102214123D

 29 28  0     1  0  0  0  0  0999 V2000
   -2.5339   -4.4434    0.6102 H   0  0  0  0  0  0  0  0  0  0  0  0
   -2.5672   -3.4861    0.0828 C   0  0  0  0  0  0  0  0  0  0  0  0
   -3.3628   -2.8728    0.5127 H   0  0  0  0  0  0  0  0  0  0  0  0
   -2.7905   -3.6712   -0.9706 H   0  0  0  0  0  0  0  0  0  0  0  0
   -1.2360   -2.7710    0.2110 C   0  0  0  0  0  0  0  0  0  0  0  0
   -0.3275   -3.2770    0.8467 O   0  0  0  0  0  0  0  0  0  0  0  0
   -1.0713   -1.5320   -0.3715 N   0  0  0  0  0  0  0  0  0  0  0  0
   -1.8849   -1.1420   -0.8547 H   0  0  0  0  0  0  0  0  0  0  0  0
    0.1568   -0.7229   -0.3035 C   0  0  1  0  0  0  0  0  0  0  0  0
    0.9650   -1.3516   -0.6943 H   0  0  0  0  0  0  0  0  0  0  0  0
    0.0944    0.5313   -1.2080 C   0  0  0  0  0  0  0  0  0  0  0  0
    1.0686    1.0319   -1.1726 H   0  0  0  0  0  0  0  0  0  0  0  0
   -0.0330    0.1637   -2.2318 H   0  0  0  0  0  0  0  0  0  0  0  0
   -1.0100    1.5978   -0.9703 C   0  0  0  0  0  0  0  0  0  0  0  0
   -0.6052    2.3342   -0.2702 H   0  0  0  0  0  0  0  0  0  0  0  0
   -1.2019    2.1225   -1.9106 H   0  0  0  0  0  0  0  0  0  0  0  0
   -2.3474    1.1306   -0.4041 C   0  0  0  0  0  0  0  0  0  0  0  0
   -3.0628    0.3490   -1.0046 O   0  0  0  0  0  0  0  0  0  0  0  0
   -2.8020    1.5227    0.8227 N   0  0  0  0  0  0  0  0  0  0  0  0
   -3.7832    1.3337    1.0100 H   0  0  0  0  0  0  0  0  0  0  0  0
   -2.3454    2.3093    1.2752 H   0  0  0  0  0  0  0  0  0  0  0  0
    0.5897   -0.3393    1.1293 C   0  0  0  0  0  0  0  0  0  0  0  0
    1.7766   -0.1698    1.3747 O   0  0  0  0  0  0  0  0  0  0  0  0
   -0.3450    0.1201    2.0394 N   0  0  0  0  0  0  0  0  0  0  0  0
   -1.3156   -0.0932    1.8248 H   0  0  0  0  0  0  0  0  0  0  0  0
    0.0017    0.5079    3.4006 C   0  0  0  0  0  0  0  0  0  0  0  0
    0.7121    1.3414    3.3938 H   0  0  0  0  0  0  0  0  0  0  0  0
   -0.8944    0.8236    3.9432 H   0  0  0  0  0  0  0  0  0  0  0  0
    0.4527   -0.3352    3.9346 H   0  0  0  0  0  0  0  0  0  0  0  0
  1  2  1  0  0  0  0
  2  3  1  0  0  0  0
  2  4  1  0  0  0  0
  2  5  1  0  0  0  0
  5  6  2  0  0  0  0
  5  7  1  0  0  0  0
  7  8  1  0  0  0  0
  7  9  1  0  0  0  0
  9 10  1  0  0  0  0
  9 11  1  0  0  0  0
  9 22  1  0  0  0  0
 11 12  1  0  0  0  0
 11 13  1  0  0  0  0
 11 14  1  0  0  0  0
 14 15  1  0  0  0  0
 14 16  1  0  0  0  0
 14 17  1  0  0  0  0
 17 18  2  0  0  0  0
 17 19  1  0  0  0  0
 19 20  1  0  0  0  0
 19 21  1  0  0  0  0
 22 23  2  0  0  0  0
 22 24  1  0  0  0  0
 24 25  1  0  0  0  0
 24 26  1  0  0  0  0
 26 27  1  0  0  0  0
 26 28  1  0  0  0  0
 26 29  1  0  0  0  0
M  END
$$$$

  -OEChem-02102214123D

 29 28  0     1  0  0  0  0  0999 V2000
   -2.4433   -4.4816    0.6363 H   0  0  0  0  0  0  0  0  0  0  0  0
   -2.5112   -3.5192    0.1215 C   0  0  0  0  0  0  0  0  0  0  0  0
   -3.2709   -2.9076    0.6146 H   0  0  0  0  0  0  0  0  0  0  0  0
   -2.8113   -3.6932   -0.9146 H   0  0  0  0  0  0  0  0  0  0  0  0
   -1.1714   -2.8095    0.1584 C   0  0  0  0  0  0  0  0  0  0  0  0
   -0.2107   -3.3416    0.6876 O   0  0  0  0  0  0  0  0  0  0  0  0
   -1.0566   -1.5454   -0.3810 N   0  0  0  0  0  0  0  0  0  0  0  0
   -1.9246   -1.1118   -0.7059 H   0  0  0  0  0  0  0  0  0  0  0  0
    0.1484   -0.7056   -0.2915 C   0  0  1  0  0  0  0  0  0  0  0  0
    0.9674   -1.3115   -0.6963 H   0  0  0  0  0  0  0  0  0  0  0  0
    0.0631    0.5460   -1.1966 C   0  0  0  0  0  0  0  0  0  0  0  0
    1.0252    1.0681   -1.1420 H   0  0  0  0  0  0  0  0  0  0  0  0
   -0.0297    0.1731   -2.2221 H   0  0  0  0  0  0  0  0  0  0  0  0
   -1.0678    1.5954   -0.9965 C   0  0  0  0  0  0  0  0  0  0  0  0
   -0.6148    2.4749   -0.5308 H   0  0  0  0  0  0  0  0  0  0  0  0
   -1.4301    1.9104   -1.9793 H   0  0  0  0  0  0  0  0  0  0  0  0
   -2.2817    1.2212   -0.1502 C   0  0  0  0  0  0  0  0  0  0  0  0
   -3.0808    0.3733   -0.5050 O   0  0  0  0  0  0  0  0  0  0  0  0
   -2.5683    1.8367    1.0345 N   0  0  0  0  0  0  0  0  0  0  0  0
   -3.5064    1.6929    1.3982 H   0  0  0  0  0  0  0  0  0  0  0  0
   -2.0482    2.6713    1.2884 H   0  0  0  0  0  0  0  0  0  0  0  0
    0.5960   -0.3563    1.1458 C   0  0  0  0  0  0  0  0  0  0  0  0
    1.7838   -0.1710    1.3750 O   0  0  0  0  0  0  0  0  0  0  0  0
   -0.3259    0.0478    2.0936 N   0  0  0  0  0  0  0  0  0  0  0  0
   -1.3018   -0.1465    1.8856 H   0  0  0  0  0  0  0  0  0  0  0  0
    0.0422    0.4116    3.4558 C   0  0  0  0  0  0  0  0  0  0  0  0
    0.7304    1.2631    3.4538 H   0  0  0  0  0  0  0  0  0  0  0  0
   -0.8486    0.6903    4.0266 H   0  0  0  0  0  0  0  0  0  0  0  0
    0.5270   -0.4322    3.9580 H   0  0  0  0  0  0  0  0  0  0  0  0
  1  2  1  0  0  0  0
  2  3  1  0  0  0  0
  2  4  1  0  0  0  0
  2  5  1  0  0  0  0
  5  6  2  0  0  0  0
  5  7  1  0  0  0  0
  7  8  1  0  0  0  0
  7  9  1  0  0  0  0
  9 10  1  0  0  0  0
  9 11  1  0  0  0  0
  9 22  1  0  0  0  0
 11 12  1  0  0  0  0
 11 13  1  0  0  0  0
 11 14  1  0  0  0  0
 14 15  1  0  0  0  0
 14 16  1  0  0  0  0
 14 17  1  0  0  0  0
 17 18  2  0  0  0  0
 17 19  1  0  0  0  0
 19 20  1  0  0  0  0
 19 21  1  0  0  0  0
 22 23  2  0  0  0  0
 22 24  1  0  0  0  0
 24 25  1  0  0  0  0
 24 26  1  0  0  0  0
 26 27  1  0  0  0  0
 26 28  1  0  0  0  0
 26 29  1  0  0  0  0
M  END
$$$$

  -OEChem-02102214123D

 29 28  0     1  0  0  0  0  0999 V2000
   -1.6969   -4.4160    1.3456 H   0  0  0  0  0  0  0  0  0  0  0  0
   -1.9234   -3.5480    0.7202 C   0  0  0  0  0  0  0  0  0  0  0  0
   -2.7431   -2.9875    1.1766 H   0  0  0  0  0  0  0  0  0  0  0  0
   -2.2364   -3.8959   -0.2671 H   0  0  0  0  0  0  0  0  0  0  0  0
   -0.6993   -2.6623    0.5895 C   0  0  0  0  0  0  0  0  0  0  0  0
    0.3522   -2.9872    1.1160 O   0  0  0  0  0  0  0  0  0  0  0  0
   -0.7954   -1.4639   -0.0852 N   0  0  0  0  0  0  0  0  0  0  0  0
   -1.7431   -1.1595   -0.3230 H   0  0  0  0  0  0  0  0  0  0  0  0
    0.2731   -0.4541   -0.1353 C   0  0  1  0  0  0  0  0  0  0  0  0
    1.1564   -1.0103   -0.4703 H   0  0  0  0  0  0  0  0  0  0  0  0
    0.0341    0.5848   -1.2566 C   0  0  0  0  0  0  0  0  0  0  0  0
    0.9009    1.2549   -1.2772 H   0  0  0  0  0  0  0  0  0  0  0  0
    0.0483    0.0354   -2.2039 H   0  0  0  0  0  0  0  0  0  0  0  0
   -1.2448    1.4630   -1.2585 C   0  0  0  0  0  0  0  0  0  0  0  0
   -0.9376    2.5127   -1.2565 H   0  0  0  0  0  0  0  0  0  0  0  0
   -1.7772    1.2937   -2.1992 H   0  0  0  0  0  0  0  0  0  0  0  0
   -2.2512    1.2717   -0.1322 C   0  0  0  0  0  0  0  0  0  0  0  0
   -3.0107    0.3175   -0.1135 O   0  0  0  0  0  0  0  0  0  0  0  0
   -2.4012    2.1910    0.8658 N   0  0  0  0  0  0  0  0  0  0  0  0
   -2.9899    1.9075    1.6428 H   0  0  0  0  0  0  0  0  0  0  0  0
   -1.6450    2.8498    1.0236 H   0  0  0  0  0  0  0  0  0  0  0  0
    0.7597    0.1633    1.2048 C   0  0  0  0  0  0  0  0  0  0  0  0
    1.8365    0.7390    1.2149 O   0  0  0  0  0  0  0  0  0  0  0  0
   -0.0288    0.6082    2.2440 N   0  0  0  0  0  0  0  0  0  0  0  0
    0.5270    1.1518    2.8999 H   0  0  0  0  0  0  0  0  0  0  0  0
   -1.0730   -0.2205    2.8322 C   0  0  0  0  0  0  0  0  0  0  0  0
   -0.6611   -1.1838    3.1508 H   0  0  0  0  0  0  0  0  0  0  0  0
   -1.4921    0.2798    3.7105 H   0  0  0  0  0  0  0  0  0  0  0  0
   -1.8885   -0.4017    2.1294 H   0  0  0  0  0  0  0  0  0  0  0  0
  1  2  1  0  0  0  0
  2  3  1  0  0  0  0
  2  4  1  0  0  0  0
  2  5  1  0  0  0  0
  5  6  2  0  0  0  0
  5  7  1  0  0  0  0
  7  8  1  0  0  0  0
  7  9  1  0  0  0  0
  9 10  1  0  0  0  0
  9 11  1  0  0  0  0
  9 22  1  0  0  0  0
 11 12  1  0  0  0  0
 11 13  1  0  0  0  0
 11 14  1  0  0  0  0
 14 15  1  0  0  0  0
 14 16  1  0  0  0  0
 14 17  1  0  0  0  0
 17 18  2  0  0  0  0
 17 19  1  0  0  0  0
 19 20  1  0  0  0  0
 19 21  1  0  0  0  0
 22 23  2  0  0  0  0
 22 24  1  0  0  0  0
 24 25  1  0  0  0  0
 24 26  1  0  0  0  0
 26 27  1  0  0  0  0
 26 28  1  0  0  0  0
 26 29  1  0  0  0  0
M  END
$$$$

  -OEChem-02102214123D

 29 28  0     1  0  0  0  0  0999 V2000
   -3.1873   -3.9651    0.8080 H   0  0  0  0  0  0  0  0  0  0  0  0
   -3.0699   -2.9842    0.3383 C   0  0  0  0  0  0  0  0  0  0  0  0
   -3.6258   -2.2470    0.9225 H   0  0  0  0  0  0  0  0  0  0  0  0
   -3.4815   -3.0269   -0.6728 H   0  0  0  0  0  0  0  0  0  0  0  0
   -1.6020   -2.6052    0.2848 C   0  0  0  0  0  0  0  0  0  0  0  0
   -0.7602   -3.3908    0.6818 O   0  0  0  0  0  0  0  0  0  0  0  0
   -1.2352   -1.3713   -0.2179 N   0  0  0  0  0  0  0  0  0  0  0  0
   -1.9995   -0.7221   -0.3737 H   0  0  0  0  0  0  0  0  0  0  0  0
    0.1146   -0.8063   -0.0475 C   0  0  1  0  0  0  0  0  0  0  0  0
    0.7835   -1.6065   -0.3878 H   0  0  0  0  0  0  0  0  0  0  0  0
    0.3827    0.3257   -1.0657 C   0  0  0  0  0  0  0  0  0  0  0  0
    1.4094    0.6672   -0.8892 H   0  0  0  0  0  0  0  0  0  0  0  0
    0.3688   -0.1131   -2.0692 H   0  0  0  0  0  0  0  0  0  0  0  0
   -0.5278    1.5820   -1.0829 C   0  0  0  0  0  0  0  0  0  0  0  0
    0.1039    2.4671   -1.2057 H   0  0  0  0  0  0  0  0  0  0  0  0
   -1.1655    1.5244   -1.9689 H   0  0  0  0  0  0  0  0  0  0  0  0
   -1.4341    1.8185    0.1152 C   0  0  0  0  0  0  0  0  0  0  0  0
   -1.0749    2.3919    1.1210 O   0  0  0  0  0  0  0  0  0  0  0  0
   -2.7326    1.3919    0.1213 N   0  0  0  0  0  0  0  0  0  0  0  0
   -3.2916    1.7954    0.8702 H   0  0  0  0  0  0  0  0  0  0  0  0
   -3.1715    1.2479   -0.7830 H   0  0  0  0  0  0  0  0  0  0  0  0
    0.6213   -0.5710    1.4000 C   0  0  0  0  0  0  0  0  0  0  0  0
    1.7953   -0.8104    1.6520 O   0  0  0  0  0  0  0  0  0  0  0  0
   -0.1605    0.0082    2.3828 N   0  0  0  0  0  0  0  0  0  0  0  0
   -0.9651    0.5361    2.0526 H   0  0  0  0  0  0  0  0  0  0  0  0
    0.3787    0.3760    3.6862 C   0  0  0  0  0  0  0  0  0  0  0  0
    1.1421    1.1537    3.5790 H   0  0  0  0  0  0  0  0  0  0  0  0
   -0.4197    0.7582    4.3290 H   0  0  0  0  0  0  0  0  0  0  0  0
    0.8270   -0.4946    4.1764 H   0  0  0  0  0  0  0  0  0  0  0  0
  1  2  1  0  0  0  0
  2  3  1  0  0  0  0
  2  4  1  0  0  0  0
  2  5  1  0  0  0  0
  5  6  2  0  0  0  0
  5  7  1  0  0  0  0
  7  8  1  0  0  0  0
  7  9  1  0  0  0  0
  9 10  1  0  0  0  0
  9 11  1  0  0  0  0
  9 22  1  0  0  0  0
 11 12  1  0  0  0  0
 11 13  1  0  0  0  0
 11 14  1  0  0  0  0
 14 15  1  0  0  0  0
 14 16  1  0  0  0  0
 14 17  1  0  0  0  0
 17 18  2  0  0  0  0
 17 19  1  0  0  0  0
 19 20  1  0  0  0  0
 19 21  1  0  0  0  0
 22 23  2  0  0  0  0
 22 24  1  0  0  0  0
 24 25  1  0  0  0  0
 24 26  1  0  0  0  0
 26 27  1  0  0  0  0
 26 28  1  0  0  0  0
 26 29  1  0  0  0  0
M  END
$$$$

  -OEChem-02102214123D

 29 28  0     1  0  0  0  0  0999 V2000
   -2.7061   -4.3155    0.4675 H   0  0  0  0  0  0  0  0  0  0  0  0
   -2.6967   -3.3271   -0.0011 C   0  0  0  0  0  0  0  0  0  0  0  0
   -3.5112   -2.7326    0.4193 H   0  0  0  0  0  0  0  0  0  0  0  0
   -2.8556   -3.4468   -1.0754 H   0  0  0  0  0  0  0  0  0  0  0  0
   -1.3668   -2.6428    0.2551 C   0  0  0  0  0  0  0  0  0  0  0  0
   -0.4964   -3.2268    0.8739 O   0  0  0  0  0  0  0  0  0  0  0  0
   -1.1506   -1.3651   -0.2254 N   0  0  0  0  0  0  0  0  0  0  0  0
   -1.8704   -0.9775   -0.8245 H   0  0  0  0  0  0  0  0  0  0  0  0
    0.1381   -0.6570   -0.1267 C   0  0  1  0  0  0  0  0  0  0  0  0
    0.8716   -1.3537   -0.5503 H   0  0  0  0  0  0  0  0  0  0  0  0
    0.1662    0.5526   -1.0905 C   0  0  0  0  0  0  0  0  0  0  0  0
    1.1544    1.0133   -0.9748 H   0  0  0  0  0  0  0  0  0  0  0  0
    0.1155    0.1764   -2.1175 H   0  0  0  0  0  0  0  0  0  0  0  0
   -0.8828    1.6856   -0.9422 C   0  0  0  0  0  0  0  0  0  0  0  0
   -0.4508    2.6114   -1.3348 H   0  0  0  0  0  0  0  0  0  0  0  0
   -1.7372    1.4404   -1.5782 H   0  0  0  0  0  0  0  0  0  0  0  0
   -1.4288    1.9726    0.4495 C   0  0  0  0  0  0  0  0  0  0  0  0
   -0.9264    2.7995    1.1811 O   0  0  0  0  0  0  0  0  0  0  0  0
   -2.5665    1.3856    0.9299 N   0  0  0  0  0  0  0  0  0  0  0  0
   -3.1950    0.9585    0.2591 H   0  0  0  0  0  0  0  0  0  0  0  0
   -2.9592    1.8499    1.7458 H   0  0  0  0  0  0  0  0  0  0  0  0
    0.7058   -0.4071    1.2946 C   0  0  0  0  0  0  0  0  0  0  0  0
    1.9209   -0.4192    1.4440 O   0  0  0  0  0  0  0  0  0  0  0  0
   -0.0849    0.0516    2.3312 N   0  0  0  0  0  0  0  0  0  0  0  0
   -1.0582    0.2406    2.1120 H   0  0  0  0  0  0  0  0  0  0  0  0
    0.4634    0.5914    3.5686 C   0  0  0  0  0  0  0  0  0  0  0  0
    1.0337    1.5043    3.3660 H   0  0  0  0  0  0  0  0  0  0  0  0
   -0.3448    0.8340    4.2649 H   0  0  0  0  0  0  0  0  0  0  0  0
    1.1232   -0.1397    4.0479 H   0  0  0  0  0  0  0  0  0  0  0  0
  1  2  1  0  0  0  0
  2  3  1  0  0  0  0
  2  4  1  0  0  0  0
  2  5  1  0  0  0  0
  5  6  2  0  0  0  0
  5  7  1  0  0  0  0
  7  8  1  0  0  0  0
  7  9  1  0  0  0  0
  9 10  1  0  0  0  0
  9 11  1  0  0  0  0
  9 22  1  0  0  0  0
 11 12  1  0  0  0  0
 11 13  1  0  0  0  0
 11 14  1  0  0  0  0
 14 15  1  0  0  0  0
 14 16  1  0  0  0  0
 14 17  1  0  0  0  0
 17 18  2  0  0  0  0
 17 19  1  0  0  0  0
 19 20  1  0  0  0  0
 19 21  1  0  0  0  0
 22 23  2  0  0  0  0
 22 24  1  0  0  0  0
 24 25  1  0  0  0  0
 24 26  1  0  0  0  0
 26 27  1  0  0  0  0
 26 28  1  0  0  0  0
 26 29  1  0  0  0  0
M  END
$$$$

  -OEChem-02102214123D

 29 28  0     1  0  0  0  0  0999 V2000
   -3.0769   -4.1100    0.2153 H   0  0  0  0  0  0  0  0  0  0  0  0
   -2.9739   -3.0946   -0.1786 C   0  0  0  0  0  0  0  0  0  0  0  0
   -3.7272   -2.4584    0.2915 H   0  0  0  0  0  0  0  0  0  0  0  0
   -3.1451   -3.1176   -1.2574 H   0  0  0  0  0  0  0  0  0  0  0  0
   -1.5850   -2.5602    0.1164 C   0  0  0  0  0  0  0  0  0  0  0  0
   -0.7881   -3.2510    0.7240 O   0  0  0  0  0  0  0  0  0  0  0  0
   -1.2359   -1.2927   -0.3091 N   0  0  0  0  0  0  0  0  0  0  0  0
   -1.9093   -0.8066   -0.8907 H   0  0  0  0  0  0  0  0  0  0  0  0
    0.1099   -0.7119   -0.1544 C   0  0  1  0  0  0  0  0  0  0  0  0
    0.7872   -1.4593   -0.5849 H   0  0  0  0  0  0  0  0  0  0  0  0
    0.2678    0.5147   -1.0834 C   0  0  0  0  0  0  0  0  0  0  0  0
    1.2891    0.8886   -0.9429 H   0  0  0  0  0  0  0  0  0  0  0  0
    0.1964    0.1724   -2.1208 H   0  0  0  0  0  0  0  0  0  0  0  0
   -0.6928    1.7157   -0.9074 C   0  0  0  0  0  0  0  0  0  0  0  0
   -0.2987    2.5621   -1.4781 H   0  0  0  0  0  0  0  0  0  0  0  0
   -1.6562    1.4530   -1.3508 H   0  0  0  0  0  0  0  0  0  0  0  0
   -0.9504    2.1917    0.5138 C   0  0  0  0  0  0  0  0  0  0  0  0
   -0.1476    2.8683    1.1212 O   0  0  0  0  0  0  0  0  0  0  0  0
   -2.1232    1.9308    1.1674 N   0  0  0  0  0  0  0  0  0  0  0  0
   -2.2684    2.4940    2.0025 H   0  0  0  0  0  0  0  0  0  0  0  0
   -2.9259    1.6590    0.6104 H   0  0  0  0  0  0  0  0  0  0  0  0
    0.6582   -0.5679    1.2887 C   0  0  0  0  0  0  0  0  0  0  0  0
    1.8581   -0.7240    1.4747 O   0  0  0  0  0  0  0  0  0  0  0  0
   -0.1156   -0.0750    2.3229 N   0  0  0  0  0  0  0  0  0  0  0  0
   -1.0549    0.2277    2.0857 H   0  0  0  0  0  0  0  0  0  0  0  0
    0.4443    0.3377    3.6035 C   0  0  0  0  0  0  0  0  0  0  0  0
    1.1184    1.1901    3.4673 H   0  0  0  0  0  0  0  0  0  0  0  0
   -0.3560    0.6335    4.2882 H   0  0  0  0  0  0  0  0  0  0  0  0
    1.0024   -0.4853    4.0622 H   0  0  0  0  0  0  0  0  0  0  0  0
  1  2  1  0  0  0  0
  2  3  1  0  0  0  0
  2  4  1  0  0  0  0
  2  5  1  0  0  0  0
  5  6  2  0  0  0  0
  5  7  1  0  0  0  0
  7  8  1  0  0  0  0
  7  9  1  0  0  0  0
  9 10  1  0  0  0  0
  9 11  1  0  0  0  0
  9 22  1  0  0  0  0
 11 12  1  0  0  0  0
 11 13  1  0  0  0  0
 11 14  1  0  0  0  0
 14 15  1  0  0  0  0
 14 16  1  0  0  0  0
 14 17  1  0  0  0  0
 17 18  2  0  0  0  0
 17 19  1  0  0  0  0
 19 20  1  0  0  0  0
 19 21  1  0  0  0  0
 22 23  2  0  0  0  0
 22 24  1  0  0  0  0
 24 25  1  0  0  0  0
 24 26  1  0  0  0  0
 26 27  1  0  0  0  0
 26 28  1  0  0  0  0
 26 29  1  0  0  0  0
M  END
$$$$

  -OEChem-02102214123D

 29 28  0     1  0  0  0  0  0999 V2000
   -2.9482   -4.1995    0.2988 H   0  0  0  0  0  0  0  0  0  0  0  0
   -2.8689   -3.2015   -0.1424 C   0  0  0  0  0  0  0  0  0  0  0  0
   -3.6569   -2.5696    0.2743 H   0  0  0  0  0  0  0  0  0  0  0  0
   -3.0074   -3.2840   -1.2230 H   0  0  0  0  0  0  0  0  0  0  0  0
   -1.5082   -2.6040    0.1627 C   0  0  0  0  0  0  0  0  0  0  0  0
   -0.7041   -3.2377    0.8209 O   0  0  0  0  0  0  0  0  0  0  0  0
   -1.1919   -1.3463   -0.3147 N   0  0  0  0  0  0  0  0  0  0  0  0
   -1.8655   -0.9160   -0.9390 H   0  0  0  0  0  0  0  0  0  0  0  0
    0.1351   -0.7192   -0.1738 C   0  0  1  0  0  0  0  0  0  0  0  0
    0.8445   -1.4514   -0.5776 H   0  0  0  0  0  0  0  0  0  0  0  0
    0.2432    0.4948   -1.1265 C   0  0  0  0  0  0  0  0  0  0  0  0
    1.2525    0.9107   -1.0202 H   0  0  0  0  0  0  0  0  0  0  0  0
    0.1580    0.1280   -2.1545 H   0  0  0  0  0  0  0  0  0  0  0  0
   -0.7708    1.6491   -0.9440 C   0  0  0  0  0  0  0  0  0  0  0  0
   -0.5679    2.4110   -1.7023 H   0  0  0  0  0  0  0  0  0  0  0  0
   -1.7779    1.2693   -1.1308 H   0  0  0  0  0  0  0  0  0  0  0  0
   -0.7579    2.3412    0.4114 C   0  0  0  0  0  0  0  0  0  0  0  0
    0.2276    2.9050    0.8386 O   0  0  0  0  0  0  0  0  0  0  0  0
   -1.8698    2.3924    1.2050 N   0  0  0  0  0  0  0  0  0  0  0  0
   -1.8034    3.0488    1.9793 H   0  0  0  0  0  0  0  0  0  0  0  0
   -2.7720    2.2206    0.7747 H   0  0  0  0  0  0  0  0  0  0  0  0
    0.6511   -0.5026    1.2710 C   0  0  0  0  0  0  0  0  0  0  0  0
    1.8483   -0.6282    1.4920 O   0  0  0  0  0  0  0  0  0  0  0  0
   -0.1621    0.0085    2.2659 N   0  0  0  0  0  0  0  0  0  0  0  0
   -1.1116    0.2504    2.0057 H   0  0  0  0  0  0  0  0  0  0  0  0
    0.3527    0.4740    3.5470 C   0  0  0  0  0  0  0  0  0  0  0  0
    1.0350    1.3178    3.3986 H   0  0  0  0  0  0  0  0  0  0  0  0
   -0.4704    0.8018    4.1885 H   0  0  0  0  0  0  0  0  0  0  0  0
    0.8908   -0.3300    4.0598 H   0  0  0  0  0  0  0  0  0  0  0  0
  1  2  1  0  0  0  0
  2  3  1  0  0  0  0
  2  4  1  0  0  0  0
  2  5  1  0  0  0  0
  5  6  2  0  0  0  0
  5  7  1  0  0  0  0
  7  8  1  0  0  0  0
  7  9  1  0  0  0  0
  9 10  1  0  0  0  0
  9 11  1  0  0  0  0
  9 22  1  0  0  0  0
 11 12  1  0  0  0  0
 11 13  1  0  0  0  0
 11 14  1  0  0  0  0
 14 15  1  0  0  0  0
 14 16  1  0  0  0  0
 14 17  1  0  0  0  0
 17 18  2  0  0  0  0
 17 19  1  0  0  0  0
 19 20  1  0  0  0  0
 19 21  1  0  0  0  0
 22 23  2  0  0  0  0
 22 24  1  0  0  0  0
 24 25  1  0  0  0  0
 24 26  1  0  0  0  0
 26 27  1  0  0  0  0
 26 28  1  0  0  0  0
 26 29  1  0  0  0  0
M  END
$$$$

  -OEChem-02102214123D

 29 28  0     1  0  0  0  0  0999 V2000
   -2.8551   -4.2511    0.3694 H   0  0  0  0  0  0  0  0  0  0  0  0
   -2.7936   -3.2719   -0.1146 C   0  0  0  0  0  0  0  0  0  0  0  0
   -3.6137   -2.6484    0.2494 H   0  0  0  0  0  0  0  0  0  0  0  0
   -2.8968   -3.4074   -1.1939 H   0  0  0  0  0  0  0  0  0  0  0  0
   -1.4615   -2.6181    0.2018 C   0  0  0  0  0  0  0  0  0  0  0  0
   -0.6662   -3.1890    0.9247 O   0  0  0  0  0  0  0  0  0  0  0  0
   -1.1638   -1.3793   -0.3337 N   0  0  0  0  0  0  0  0  0  0  0  0
   -1.8213   -1.0137   -1.0146 H   0  0  0  0  0  0  0  0  0  0  0  0
    0.1544   -0.7256   -0.2188 C   0  0  1  0  0  0  0  0  0  0  0  0
    0.8866   -1.4419   -0.6101 H   0  0  0  0  0  0  0  0  0  0  0  0
    0.2134    0.4942   -1.1669 C   0  0  0  0  0  0  0  0  0  0  0  0
    1.2185    0.9296   -1.1095 H   0  0  0  0  0  0  0  0  0  0  0  0
    0.0876    0.1260   -2.1902 H   0  0  0  0  0  0  0  0  0  0  0  0
   -0.8307    1.6119   -0.9293 C   0  0  0  0  0  0  0  0  0  0  0  0
   -0.8462    2.2624   -1.8084 H   0  0  0  0  0  0  0  0  0  0  0  0
   -1.8262    1.1730   -0.8330 H   0  0  0  0  0  0  0  0  0  0  0  0
   -0.5582    2.5023    0.2789 C   0  0  0  0  0  0  0  0  0  0  0  0
    0.5385    2.9701    0.5058 O   0  0  0  0  0  0  0  0  0  0  0  0
   -1.5555    2.8835    1.1316 N   0  0  0  0  0  0  0  0  0  0  0  0
   -1.3061    3.6319    1.7732 H   0  0  0  0  0  0  0  0  0  0  0  0
   -2.5184    2.7758    0.8336 H   0  0  0  0  0  0  0  0  0  0  0  0
    0.6398   -0.4448    1.2233 C   0  0  0  0  0  0  0  0  0  0  0  0
    1.8327   -0.5362    1.4796 O   0  0  0  0  0  0  0  0  0  0  0  0
   -0.2130    0.0926    2.1696 N   0  0  0  0  0  0  0  0  0  0  0  0
   -1.1964    0.1475    1.9328 H   0  0  0  0  0  0  0  0  0  0  0  0
    0.2270    0.5173    3.4912 C   0  0  0  0  0  0  0  0  0  0  0  0
    0.9833    1.3049    3.4064 H   0  0  0  0  0  0  0  0  0  0  0  0
   -0.6182    0.9109    4.0630 H   0  0  0  0  0  0  0  0  0  0  0  0
    0.6558   -0.3270    4.0407 H   0  0  0  0  0  0  0  0  0  0  0  0
  1  2  1  0  0  0  0
  2  3  1  0  0  0  0
  2  4  1  0  0  0  0
  2  5  1  0  0  0  0
  5  6  2  0  0  0  0
  5  7  1  0  0  0  0
  7  8  1  0  0  0  0
  7  9  1  0  0  0  0
  9 10  1  0  0  0  0
  9 11  1  0  0  0  0
  9 22  1  0  0  0  0
 11 12  1  0  0  0  0
 11 13  1  0  0  0  0
 11 14  1  0  0  0  0
 14 15  1  0  0  0  0
 14 16  1  0  0  0  0
 14 17  1  0  0  0  0
 17 18  2  0  0  0  0
 17 19  1  0  0  0  0
 19 20  1  0  0  0  0
 19 21  1  0  0  0  0
 22 23  2  0  0  0  0
 22 24  1  0  0  0  0
 24 25  1  0  0  0  0
 24 26  1  0  0  0  0
 26 27  1  0  0  0  0
 26 28  1  0  0  0  0
 26 29  1  0  0  0  0
M  END
$$$$

  -OEChem-02102214123D

 29 28  0     1  0  0  0  0  0999 V2000
   -2.8242   -4.2681    0.4217 H   0  0  0  0  0  0  0  0  0  0  0  0
   -2.7534   -3.3186   -0.1169 C   0  0  0  0  0  0  0  0  0  0  0  0
   -3.6025   -2.6913    0.1642 H   0  0  0  0  0  0  0  0  0  0  0  0
   -2.7956   -3.5207   -1.1899 H   0  0  0  0  0  0  0  0  0  0  0  0
   -1.4526   -2.6186    0.2288 C   0  0  0  0  0  0  0  0  0  0  0  0
   -0.6859   -3.1261    1.0259 O   0  0  0  0  0  0  0  0  0  0  0  0
   -1.1558   -1.4022   -0.3555 N   0  0  0  0  0  0  0  0  0  0  0  0
   -1.7844   -1.0967   -1.0920 H   0  0  0  0  0  0  0  0  0  0  0  0
    0.1561   -0.7328   -0.2493 C   0  0  1  0  0  0  0  0  0  0  0  0
    0.9052   -1.4415   -0.6210 H   0  0  0  0  0  0  0  0  0  0  0  0
    0.1954    0.4888   -1.1924 C   0  0  0  0  0  0  0  0  0  0  0  0
    1.1985    0.9309   -1.1614 H   0  0  0  0  0  0  0  0  0  0  0  0
    0.0487    0.1216   -2.2132 H   0  0  0  0  0  0  0  0  0  0  0  0
   -0.8693    1.5803   -0.9192 C   0  0  0  0  0  0  0  0  0  0  0  0
   -1.0998    2.0843   -1.8621 H   0  0  0  0  0  0  0  0  0  0  0  0
   -1.7958    1.1305   -0.5562 H   0  0  0  0  0  0  0  0  0  0  0  0
   -0.4115    2.6601    0.0603 C   0  0  0  0  0  0  0  0  0  0  0  0
    0.6711    3.2029   -0.0321 O   0  0  0  0  0  0  0  0  0  0  0  0
   -1.2377    3.1530    1.0301 N   0  0  0  0  0  0  0  0  0  0  0  0
   -0.9105    3.9923    1.5007 H   0  0  0  0  0  0  0  0  0  0  0  0
   -2.2268    2.9354    0.9997 H   0  0  0  0  0  0  0  0  0  0  0  0
    0.6116   -0.3880    1.1877 C   0  0  0  0  0  0  0  0  0  0  0  0
    1.8044   -0.4073    1.4580 O   0  0  0  0  0  0  0  0  0  0  0  0
   -0.2735    0.1810    2.0852 N   0  0  0  0  0  0  0  0  0  0  0  0
   -1.2593    0.0619    1.8826 H   0  0  0  0  0  0  0  0  0  0  0  0
    0.1248    0.6250    3.4146 C   0  0  0  0  0  0  0  0  0  0  0  0
    0.9043    1.3910    3.3433 H   0  0  0  0  0  0  0  0  0  0  0  0
   -0.7315    1.0550    3.9425 H   0  0  0  0  0  0  0  0  0  0  0  0
    0.5098   -0.2165    4.0001 H   0  0  0  0  0  0  0  0  0  0  0  0
  1  2  1  0  0  0  0
  2  3  1  0  0  0  0
  2  4  1  0  0  0  0
  2  5  1  0  0  0  0
  5  6  2  0  0  0  0
  5  7  1  0  0  0  0
  7  8  1  0  0  0  0
  7  9  1  0  0  0  0
  9 10  1  0  0  0  0
  9 11  1  0  0  0  0
  9 22  1  0  0  0  0
 11 12  1  0  0  0  0
 11 13  1  0  0  0  0
 11 14  1  0  0  0  0
 14 15  1  0  0  0  0
 14 16  1  0  0  0  0
 14 17  1  0  0  0  0
 17 18  2  0  0  0  0
 17 19  1  0  0  0  0
 19 20  1  0  0  0  0
 19 21  1  0  0  0  0
 22 23  2  0  0  0  0
 22 24  1  0  0  0  0
 24 25  1  0  0  0  0
 24 26  1  0  0  0  0
 26 27  1  0  0  0  0
 26 28  1  0  0  0  0
 26 29  1  0  0  0  0
M  END
$$$$

  -OEChem-02102214123D

 29 28  0     1  0  0  0  0  0999 V2000
   -2.6890   -4.3405    0.4897 H   0  0  0  0  0  0  0  0  0  0  0  0
   -2.6377   -3.4308   -0.1156 C   0  0  0  0  0  0  0  0  0  0  0  0
   -3.5316   -2.8321    0.0748 H   0  0  0  0  0  0  0  0  0  0  0  0
   -2.6128   -3.7126   -1.1710 H   0  0  0  0  0  0  0  0  0  0  0  0
   -1.3941   -2.6376    0.2390 C   0  0  0  0  0  0  0  0  0  0  0  0
   -0.6241   -3.0563    1.0844 O   0  0  0  0  0  0  0  0  0  0  0  0
   -1.1490   -1.4291   -0.3841 N   0  0  0  0  0  0  0  0  0  0  0  0
   -1.7843   -1.1667   -1.1326 H   0  0  0  0  0  0  0  0  0  0  0  0
    0.0895   -0.6453   -0.2139 C   0  0  1  0  0  0  0  0  0  0  0  0
    0.9240   -1.2997   -0.4911 H   0  0  0  0  0  0  0  0  0  0  0  0
    0.1245    0.5626   -1.1710 C   0  0  0  0  0  0  0  0  0  0  0  0
    1.0935    1.0686   -1.0914 H   0  0  0  0  0  0  0  0  0  0  0  0
    0.0687    0.1731   -2.1929 H   0  0  0  0  0  0  0  0  0  0  0  0
   -1.0367    1.5653   -0.9789 C   0  0  0  0  0  0  0  0  0  0  0  0
   -1.4202    1.8430   -1.9651 H   0  0  0  0  0  0  0  0  0  0  0  0
   -1.8615    1.1130   -0.4240 H   0  0  0  0  0  0  0  0  0  0  0  0
   -0.6234    2.8583   -0.2721 C   0  0  0  0  0  0  0  0  0  0  0  0
   -1.2828    3.8698   -0.4129 O   0  0  0  0  0  0  0  0  0  0  0  0
    0.4430    2.9612    0.5782 N   0  0  0  0  0  0  0  0  0  0  0  0
    0.5013    3.8188    1.1182 H   0  0  0  0  0  0  0  0  0  0  0  0
    0.8845    2.1105    0.9300 H   0  0  0  0  0  0  0  0  0  0  0  0
    0.3684   -0.2103    1.2431 C   0  0  0  0  0  0  0  0  0  0  0  0
    1.5108    0.1067    1.5469 O   0  0  0  0  0  0  0  0  0  0  0  0
   -0.6574    0.3059    2.0149 N   0  0  0  0  0  0  0  0  0  0  0  0
   -1.5919   -0.0036    1.7652 H   0  0  0  0  0  0  0  0  0  0  0  0
   -0.4479    0.8461    3.3536 C   0  0  0  0  0  0  0  0  0  0  0  0
    0.2384    1.6988    3.3245 H   0  0  0  0  0  0  0  0  0  0  0  0
   -1.3981    1.1864    3.7760 H   0  0  0  0  0  0  0  0  0  0  0  0
   -0.0287    0.0791    4.0134 H   0  0  0  0  0  0  0  0  0  0  0  0
  1  2  1  0  0  0  0
  2  3  1  0  0  0  0
  2  4  1  0  0  0  0
  2  5  1  0  0  0  0
  5  6  2  0  0  0  0
  5  7  1  0  0  0  0
  7  8  1  0  0  0  0
  7  9  1  0  0  0  0
  9 10  1  0  0  0  0
  9 11  1  0  0  0  0
  9 22  1  0  0  0  0
 11 12  1  0  0  0  0
 11 13  1  0  0  0  0
 11 14  1  0  0  0  0
 14 15  1  0  0  0  0
 14 16  1  0  0  0  0
 14 17  1  0  0  0  0
 17 18  2  0  0  0  0
 17 19  1  0  0  0  0
 19 20  1  0  0  0  0
 19 21  1  0  0  0  0
 22 23  2  0  0  0  0
 22 24  1  0  0  0  0
 24 25  1  0  0  0  0
 24 26  1  0  0  0  0
 26 27  1  0  0  0  0
 26 28  1  0  0  0  0
 26 29  1  0  0  0  0
M  END
$$$$

  -OEChem-02102214123D

 29 28  0     1  0  0  0  0  0999 V2000
   -2.6043   -4.3781    0.5282 H   0  0  0  0  0  0  0  0  0  0  0  0
   -2.5597   -3.4984   -0.1203 C   0  0  0  0  0  0  0  0  0  0  0  0
   -3.4736   -2.9154    0.0164 H   0  0  0  0  0  0  0  0  0  0  0  0
   -2.4989   -3.8309   -1.1594 H   0  0  0  0  0  0  0  0  0  0  0  0
   -1.3465   -2.6558    0.2262 C   0  0  0  0  0  0  0  0  0  0  0  0
   -0.5555   -3.0438    1.0671 O   0  0  0  0  0  0  0  0  0  0  0  0
   -1.1539   -1.4375   -0.3963 N   0  0  0  0  0  0  0  0  0  0  0  0
   -1.8018   -1.2024   -1.1431 H   0  0  0  0  0  0  0  0  0  0  0  0
    0.0665   -0.6215   -0.2522 C   0  0  1  0  0  0  0  0  0  0  0  0
    0.9089   -1.2521   -0.5590 H   0  0  0  0  0  0  0  0  0  0  0  0
    0.0415    0.5896   -1.2026 C   0  0  0  0  0  0  0  0  0  0  0  0
    0.9930    1.1277   -1.1135 H   0  0  0  0  0  0  0  0  0  0  0  0
   -0.0082    0.2210   -2.2325 H   0  0  0  0  0  0  0  0  0  0  0  0
   -1.1466    1.5491   -0.9685 C   0  0  0  0  0  0  0  0  0  0  0  0
   -1.7420    1.6129   -1.8844 H   0  0  0  0  0  0  0  0  0  0  0  0
   -1.8096    1.1920   -0.1783 H   0  0  0  0  0  0  0  0  0  0  0  0
   -0.6630    2.9497   -0.6088 C   0  0  0  0  0  0  0  0  0  0  0  0
   -0.9388    3.9136   -1.2959 O   0  0  0  0  0  0  0  0  0  0  0  0
    0.0771    3.1867    0.5153 N   0  0  0  0  0  0  0  0  0  0  0  0
    0.4988    4.1077    0.5870 H   0  0  0  0  0  0  0  0  0  0  0  0
    0.4976    2.3961    1.0021 H   0  0  0  0  0  0  0  0  0  0  0  0
    0.3909   -0.1764    1.1943 C   0  0  0  0  0  0  0  0  0  0  0  0
    1.5413    0.1413    1.4640 O   0  0  0  0  0  0  0  0  0  0  0  0
   -0.6110    0.3172    2.0112 N   0  0  0  0  0  0  0  0  0  0  0  0
   -1.5472   -0.0171    1.8033 H   0  0  0  0  0  0  0  0  0  0  0  0
   -0.3547    0.8552    3.3425 C   0  0  0  0  0  0  0  0  0  0  0  0
    0.3105    1.7233    3.2874 H   0  0  0  0  0  0  0  0  0  0  0  0
   -1.2927    1.1724    3.8083 H   0  0  0  0  0  0  0  0  0  0  0  0
    0.1101    0.0948    3.9789 H   0  0  0  0  0  0  0  0  0  0  0  0
  1  2  1  0  0  0  0
  2  3  1  0  0  0  0
  2  4  1  0  0  0  0
  2  5  1  0  0  0  0
  5  6  2  0  0  0  0
  5  7  1  0  0  0  0
  7  8  1  0  0  0  0
  7  9  1  0  0  0  0
  9 10  1  0  0  0  0
  9 11  1  0  0  0  0
  9 22  1  0  0  0  0
 11 12  1  0  0  0  0
 11 13  1  0  0  0  0
 11 14  1  0  0  0  0
 14 15  1  0  0  0  0
 14 16  1  0  0  0  0
 14 17  1  0  0  0  0
 17 18  2  0  0  0  0
 17 19  1  0  0  0  0
 19 20  1  0  0  0  0
 19 21  1  0  0  0  0
 22 23  2  0  0  0  0
 22 24  1  0  0  0  0
 24 25  1  0  0  0  0
 24 26  1  0  0  0  0
 26 27  1  0  0  0  0
 26 28  1  0  0  0  0
 26 29  1  0  0  0  0
M  END
$$$$

  -OEChem-02102214123D

 29 28  0     1  0  0  0  0  0999 V2000
   -2.4789   -4.4692    0.4658 H   0  0  0  0  0  0  0  0  0  0  0  0
   -2.4931   -3.5567   -0.1372 C   0  0  0  0  0  0  0  0  0  0  0  0
   -3.4257   -3.0218    0.0576 H   0  0  0  0  0  0  0  0  0  0  0  0
   -2.4522   -3.8336   -1.1935 H   0  0  0  0  0  0  0  0  0  0  0  0
   -1.3056   -2.6807    0.2155 C   0  0  0  0  0  0  0  0  0  0  0  0
   -0.4937   -3.0601    1.0401 O   0  0  0  0  0  0  0  0  0  0  0  0
   -1.1584   -1.4450   -0.3847 N   0  0  0  0  0  0  0  0  0  0  0  0
   -1.8215   -1.2172   -1.1202 H   0  0  0  0  0  0  0  0  0  0  0  0
    0.0443   -0.6022   -0.2508 C   0  0  1  0  0  0  0  0  0  0  0  0
    0.8919   -1.2122   -0.5845 H   0  0  0  0  0  0  0  0  0  0  0  0
   -0.0297    0.6069   -1.2007 C   0  0  0  0  0  0  0  0  0  0  0  0
    0.9042    1.1720   -1.0949 H   0  0  0  0  0  0  0  0  0  0  0  0
   -0.0630    0.2523   -2.2362 H   0  0  0  0  0  0  0  0  0  0  0  0
   -1.2405    1.5333   -0.9531 C   0  0  0  0  0  0  0  0  0  0  0  0
   -1.9938    1.3646   -1.7282 H   0  0  0  0  0  0  0  0  0  0  0  0
   -1.7169    1.3297    0.0065 H   0  0  0  0  0  0  0  0  0  0  0  0
   -0.8242    2.9975   -0.9701 C   0  0  0  0  0  0  0  0  0  0  0  0
   -1.1374    3.7391   -1.8804 O   0  0  0  0  0  0  0  0  0  0  0  0
   -0.0816    3.5368    0.0418 N   0  0  0  0  0  0  0  0  0  0  0  0
    0.3021    4.4614   -0.1308 H   0  0  0  0  0  0  0  0  0  0  0  0
    0.3782    2.9097    0.6977 H   0  0  0  0  0  0  0  0  0  0  0  0
    0.4060   -0.1712    1.1917 C   0  0  0  0  0  0  0  0  0  0  0  0
    1.5684    0.1184    1.4420 O   0  0  0  0  0  0  0  0  0  0  0  0
   -0.5732    0.2876    2.0548 N   0  0  0  0  0  0  0  0  0  0  0  0
   -1.5111   -0.0538    1.8682 H   0  0  0  0  0  0  0  0  0  0  0  0
   -0.2735    0.7752    3.3960 C   0  0  0  0  0  0  0  0  0  0  0  0
    0.3694    1.6604    3.3495 H   0  0  0  0  0  0  0  0  0  0  0  0
   -1.1977    1.0490    3.9138 H   0  0  0  0  0  0  0  0  0  0  0  0
    0.2354    0.0007    3.9797 H   0  0  0  0  0  0  0  0  0  0  0  0
  1  2  1  0  0  0  0
  2  3  1  0  0  0  0
  2  4  1  0  0  0  0
  2  5  1  0  0  0  0
  5  6  2  0  0  0  0
  5  7  1  0  0  0  0
  7  8  1  0  0  0  0
  7  9  1  0  0  0  0
  9 10  1  0  0  0  0
  9 11  1  0  0  0  0
  9 22  1  0  0  0  0
 11 12  1  0  0  0  0
 11 13  1  0  0  0  0
 11 14  1  0  0  0  0
 14 15  1  0  0  0  0
 14 16  1  0  0  0  0
 14 17  1  0  0  0  0
 17 18  2  0  0  0  0
 17 19  1  0  0  0  0
 19 20  1  0  0  0  0
 19 21  1  0  0  0  0
 22 23  2  0  0  0  0
 22 24  1  0  0  0  0
 24 25  1  0  0  0  0
 24 26  1  0  0  0  0
 26 27  1  0  0  0  0
 26 28  1  0  0  0  0
 26 29  1  0  0  0  0
M  END
$$$$

  -OEChem-02102214123D

 29 28  0     1  0  0  0  0  0999 V2000
   -2.3823   -4.5228    0.4400 H   0  0  0  0  0  0  0  0  0  0  0  0
   -2.4416   -3.5889   -0.1266 C   0  0  0  0  0  0  0  0  0  0  0  0
   -3.3748   -3.0815    0.1293 H   0  0  0  0  0  0  0  0  0  0  0  0
   -2.4429   -3.8255   -1.1934 H   0  0  0  0  0  0  0  0  0  0  0  0
   -1.2573   -2.7009    0.2064 C   0  0  0  0  0  0  0  0  0  0  0  0
   -0.4133   -3.0844    0.9962 O   0  0  0  0  0  0  0  0  0  0  0  0
   -1.1536   -1.4492   -0.3690 N   0  0  0  0  0  0  0  0  0  0  0  0
   -1.8414   -1.2208   -1.0813 H   0  0  0  0  0  0  0  0  0  0  0  0
    0.0339   -0.5831   -0.2518 C   0  0  1  0  0  0  0  0  0  0  0  0
    0.8845   -1.1702   -0.6174 H   0  0  0  0  0  0  0  0  0  0  0  0
   -0.0935    0.6293   -1.1925 C   0  0  0  0  0  0  0  0  0  0  0  0
    0.8246    1.2197   -1.0887 H   0  0  0  0  0  0  0  0  0  0  0  0
   -0.1328    0.2861   -2.2318 H   0  0  0  0  0  0  0  0  0  0  0  0
   -1.3173    1.5271   -0.9174 C   0  0  0  0  0  0  0  0  0  0  0  0
   -2.1800    1.1638   -1.4829 H   0  0  0  0  0  0  0  0  0  0  0  0
   -1.5905    1.5156    0.1379 H   0  0  0  0  0  0  0  0  0  0  0  0
   -1.0283    2.9717   -1.2994 C   0  0  0  0  0  0  0  0  0  0  0  0
   -1.4104    3.4370   -2.3550 O   0  0  0  0  0  0  0  0  0  0  0  0
   -0.3037    3.7973   -0.4881 N   0  0  0  0  0  0  0  0  0  0  0  0
   -0.0019    4.6756   -0.9002 H   0  0  0  0  0  0  0  0  0  0  0  0
    0.2151    3.3922    0.2858 H   0  0  0  0  0  0  0  0  0  0  0  0
    0.4261   -0.1787    1.1902 C   0  0  0  0  0  0  0  0  0  0  0  0
    1.5947    0.0985    1.4255 O   0  0  0  0  0  0  0  0  0  0  0  0
   -0.5377    0.2372    2.0918 N   0  0  0  0  0  0  0  0  0  0  0  0
   -1.4762   -0.1061    1.9122 H   0  0  0  0  0  0  0  0  0  0  0  0
   -0.2099    0.6635    3.4472 C   0  0  0  0  0  0  0  0  0  0  0  0
    0.4347    1.5486    3.4272 H   0  0  0  0  0  0  0  0  0  0  0  0
   -1.1229    0.9157    3.9951 H   0  0  0  0  0  0  0  0  0  0  0  0
    0.3081   -0.1378    3.9852 H   0  0  0  0  0  0  0  0  0  0  0  0
  1  2  1  0  0  0  0
  2  3  1  0  0  0  0
  2  4  1  0  0  0  0
  2  5  1  0  0  0  0
  5  6  2  0  0  0  0
  5  7  1  0  0  0  0
  7  8  1  0  0  0  0
  7  9  1  0  0  0  0
  9 10  1  0  0  0  0
  9 11  1  0  0  0  0
  9 22  1  0  0  0  0
 11 12  1  0  0  0  0
 11 13  1  0  0  0  0
 11 14  1  0  0  0  0
 14 15  1  0  0  0  0
 14 16  1  0  0  0  0
 14 17  1  0  0  0  0
 17 18  2  0  0  0  0
 17 19  1  0  0  0  0
 19 20  1  0  0  0  0
 19 21  1  0  0  0  0
 22 23  2  0  0  0  0
 22 24  1  0  0  0  0
 24 25  1  0  0  0  0
 24 26  1  0  0  0  0
 26 27  1  0  0  0  0
 26 28  1  0  0  0  0
 26 29  1  0  0  0  0
M  END
$$$$

  -OEChem-02102214123D

 29 28  0     1  0  0  0  0  0999 V2000
   -2.3199   -4.5618    0.4243 H   0  0  0  0  0  0  0  0  0  0  0  0
   -2.4079   -3.6172   -0.1203 C   0  0  0  0  0  0  0  0  0  0  0  0
   -3.3407   -3.1288    0.1714 H   0  0  0  0  0  0  0  0  0  0  0  0
   -2.4353   -3.8311   -1.1915 H   0  0  0  0  0  0  0  0  0  0  0  0
   -1.2279   -2.7188    0.1993 C   0  0  0  0  0  0  0  0  0  0  0  0
   -0.3601   -3.1038    0.9621 O   0  0  0  0  0  0  0  0  0  0  0  0
   -1.1544   -1.4577   -0.3597 N   0  0  0  0  0  0  0  0  0  0  0  0
   -1.8594   -1.2319   -1.0559 H   0  0  0  0  0  0  0  0  0  0  0  0
    0.0265   -0.5795   -0.2631 C   0  0  1  0  0  0  0  0  0  0  0  0
    0.8741   -1.1471   -0.6645 H   0  0  0  0  0  0  0  0  0  0  0  0
   -0.1511    0.6489   -1.1745 C   0  0  0  0  0  0  0  0  0  0  0  0
    0.7578    1.2569   -1.0957 H   0  0  0  0  0  0  0  0  0  0  0  0
   -0.2266    0.3190   -2.2163 H   0  0  0  0  0  0  0  0  0  0  0  0
   -1.3759    1.5211   -0.8381 C   0  0  0  0  0  0  0  0  0  0  0  0
   -2.2959    1.0224   -1.1553 H   0  0  0  0  0  0  0  0  0  0  0  0
   -1.4471    1.7004    0.2357 H   0  0  0  0  0  0  0  0  0  0  0  0
   -1.2705    2.8741   -1.5257 C   0  0  0  0  0  0  0  0  0  0  0  0
   -1.7643    3.0653   -2.6196 O   0  0  0  0  0  0  0  0  0  0  0  0
   -0.5757    3.9120   -0.9735 N   0  0  0  0  0  0  0  0  0  0  0  0
   -0.3950    4.7040   -1.5838 H   0  0  0  0  0  0  0  0  0  0  0  0
    0.0299    3.7307   -0.1790 H   0  0  0  0  0  0  0  0  0  0  0  0
    0.4508   -0.1947    1.1743 C   0  0  0  0  0  0  0  0  0  0  0  0
    1.6255    0.0719    1.3917 O   0  0  0  0  0  0  0  0  0  0  0  0
   -0.4956    0.1949    2.1055 N   0  0  0  0  0  0  0  0  0  0  0  0
   -1.4393   -0.1375    1.9334 H   0  0  0  0  0  0  0  0  0  0  0  0
   -0.1413    0.5932    3.4623 C   0  0  0  0  0  0  0  0  0  0  0  0
    0.5077    1.4750    3.4477 H   0  0  0  0  0  0  0  0  0  0  0  0
   -1.0428    0.8392    4.0313 H   0  0  0  0  0  0  0  0  0  0  0  0
    0.3826   -0.2205    3.9750 H   0  0  0  0  0  0  0  0  0  0  0  0
  1  2  1  0  0  0  0
  2  3  1  0  0  0  0
  2  4  1  0  0  0  0
  2  5  1  0  0  0  0
  5  6  2  0  0  0  0
  5  7  1  0  0  0  0
  7  8  1  0  0  0  0
  7  9  1  0  0  0  0
  9 10  1  0  0  0  0
  9 11  1  0  0  0  0
  9 22  1  0  0  0  0
 11 12  1  0  0  0  0
 11 13  1  0  0  0  0
 11 14  1  0  0  0  0
 14 15  1  0  0  0  0
 14 16  1  0  0  0  0
 14 17  1  0  0  0  0
 17 18  2  0  0  0  0
 17 19  1  0  0  0  0
 19 20  1  0  0  0  0
 19 21  1  0  0  0  0
 22 23  2  0  0  0  0
 22 24  1  0  0  0  0
 24 25  1  0  0  0  0
 24 26  1  0  0  0  0
 26 27  1  0  0  0  0
 26 28  1  0  0  0  0
 26 29  1  0  0  0  0
M  END
$$$$

  -OEChem-02102214123D

 29 28  0     1  0  0  0  0  0999 V2000
   -2.3748   -4.5131    0.3966 H   0  0  0  0  0  0  0  0  0  0  0  0
   -2.4328   -3.5708   -0.1557 C   0  0  0  0  0  0  0  0  0  0  0  0
   -3.3493   -3.0507    0.1328 H   0  0  0  0  0  0  0  0  0  0  0  0
   -2.4679   -3.7920   -1.2251 H   0  0  0  0  0  0  0  0  0  0  0  0
   -1.2238   -2.7088    0.1550 C   0  0  0  0  0  0  0  0  0  0  0  0
   -0.3298   -3.1457    0.8573 O   0  0  0  0  0  0  0  0  0  0  0  0
   -1.1506   -1.4238   -0.3464 N   0  0  0  0  0  0  0  0  0  0  0  0
   -1.8869   -1.1460   -0.9899 H   0  0  0  0  0  0  0  0  0  0  0  0
    0.0412   -0.5616   -0.2438 C   0  0  1  0  0  0  0  0  0  0  0  0
    0.8673   -1.1237   -0.6947 H   0  0  0  0  0  0  0  0  0  0  0  0
   -0.1576    0.6936   -1.1141 C   0  0  0  0  0  0  0  0  0  0  0  0
    0.8204    1.1684   -1.2518 H   0  0  0  0  0  0  0  0  0  0  0  0
   -0.5128    0.3922   -2.1060 H   0  0  0  0  0  0  0  0  0  0  0  0
   -1.1250    1.7316   -0.5171 C   0  0  0  0  0  0  0  0  0  0  0  0
   -2.1126    1.2880   -0.3638 H   0  0  0  0  0  0  0  0  0  0  0  0
   -0.7603    2.0873    0.4496 H   0  0  0  0  0  0  0  0  0  0  0  0
   -1.2577    2.9294   -1.4453 C   0  0  0  0  0  0  0  0  0  0  0  0
   -1.9821    2.8907   -2.4210 O   0  0  0  0  0  0  0  0  0  0  0  0
   -0.5195    4.0651   -1.2727 N   0  0  0  0  0  0  0  0  0  0  0  0
   -0.5285    4.7283   -2.0423 H   0  0  0  0  0  0  0  0  0  0  0  0
    0.2500    4.0583   -0.6105 H   0  0  0  0  0  0  0  0  0  0  0  0
    0.5118   -0.2457    1.1955 C   0  0  0  0  0  0  0  0  0  0  0  0
    1.6950   -0.0013    1.3915 O   0  0  0  0  0  0  0  0  0  0  0  0
   -0.4062    0.1097    2.1681 N   0  0  0  0  0  0  0  0  0  0  0  0
   -1.3613   -0.1912    2.0021 H   0  0  0  0  0  0  0  0  0  0  0  0
   -0.0152    0.4633    3.5270 C   0  0  0  0  0  0  0  0  0  0  0  0
    0.6222    1.3537    3.5237 H   0  0  0  0  0  0  0  0  0  0  0  0
   -0.9014    0.6766    4.1323 H   0  0  0  0  0  0  0  0  0  0  0  0
    0.5343   -0.3613    3.9935 H   0  0  0  0  0  0  0  0  0  0  0  0
  1  2  1  0  0  0  0
  2  3  1  0  0  0  0
  2  4  1  0  0  0  0
  2  5  1  0  0  0  0
  5  6  2  0  0  0  0
  5  7  1  0  0  0  0
  7  8  1  0  0  0  0
  7  9  1  0  0  0  0
  9 10  1  0  0  0  0
  9 11  1  0  0  0  0
  9 22  1  0  0  0  0
 11 12  1  0  0  0  0
 11 13  1  0  0  0  0
 11 14  1  0  0  0  0
 14 15  1  0  0  0  0
 14 16  1  0  0  0  0
 14 17  1  0  0  0  0
 17 18  2  0  0  0  0
 17 19  1  0  0  0  0
 19 20  1  0  0  0  0
 19 21  1  0  0  0  0
 22 23  2  0  0  0  0
 22 24  1  0  0  0  0
 24 25  1  0  0  0  0
 24 26  1  0  0  0  0
 26 27  1  0  0  0  0
 26 28  1  0  0  0  0
 26 29  1  0  0  0  0
M  END
$$$$

  -OEChem-02102214123D

 29 28  0     1  0  0  0  0  0999 V2000
   -2.3689   -4.5329    0.3308 H   0  0  0  0  0  0  0  0  0  0  0  0
   -2.4557   -3.5575   -0.1565 C   0  0  0  0  0  0  0  0  0  0  0  0
   -3.3579   -3.0613    0.2086 H   0  0  0  0  0  0  0  0  0  0  0  0
   -2.5426   -3.7104   -1.2349 H   0  0  0  0  0  0  0  0  0  0  0  0
   -1.2348   -2.7108    0.1500 C   0  0  0  0  0  0  0  0  0  0  0  0
   -0.3395   -3.1632    0.8407 O   0  0  0  0  0  0  0  0  0  0  0  0
   -1.1511   -1.4232   -0.3428 N   0  0  0  0  0  0  0  0  0  0  0  0
   -1.8939   -1.1288   -0.9717 H   0  0  0  0  0  0  0  0  0  0  0  0
    0.0511   -0.5749   -0.2462 C   0  0  1  0  0  0  0  0  0  0  0  0
    0.8662   -1.1370   -0.7162 H   0  0  0  0  0  0  0  0  0  0  0  0
   -0.1539    0.6959   -1.0906 C   0  0  0  0  0  0  0  0  0  0  0  0
    0.8192    1.1720   -1.2547 H   0  0  0  0  0  0  0  0  0  0  0  0
   -0.5401    0.4024   -2.0733 H   0  0  0  0  0  0  0  0  0  0  0  0
   -1.1035    1.7232   -0.4468 C   0  0  0  0  0  0  0  0  0  0  0  0
   -1.9965    1.2249   -0.0597 H   0  0  0  0  0  0  0  0  0  0  0  0
   -0.6093    2.2241    0.3904 H   0  0  0  0  0  0  0  0  0  0  0  0
   -1.5472    2.7596   -1.4683 C   0  0  0  0  0  0  0  0  0  0  0  0
   -2.3745    2.4881   -2.3173 O   0  0  0  0  0  0  0  0  0  0  0  0
   -0.9856    4.0025   -1.5353 N   0  0  0  0  0  0  0  0  0  0  0  0
   -1.2015    4.5506   -2.3632 H   0  0  0  0  0  0  0  0  0  0  0  0
   -0.1516    4.1999   -0.9916 H   0  0  0  0  0  0  0  0  0  0  0  0
    0.5412   -0.2729    1.1889 C   0  0  0  0  0  0  0  0  0  0  0  0
    1.7310   -0.0567    1.3775 O   0  0  0  0  0  0  0  0  0  0  0  0
   -0.3625    0.0871    2.1730 N   0  0  0  0  0  0  0  0  0  0  0  0
   -1.3237   -0.1962    2.0115 H   0  0  0  0  0  0  0  0  0  0  0  0
    0.0465    0.4135    3.5333 C   0  0  0  0  0  0  0  0  0  0  0  0
    0.7172    1.2791    3.5355 H   0  0  0  0  0  0  0  0  0  0  0  0
   -0.8287    0.6553    4.1437 H   0  0  0  0  0  0  0  0  0  0  0  0
    0.5657   -0.4355    3.9904 H   0  0  0  0  0  0  0  0  0  0  0  0
  1  2  1  0  0  0  0
  2  3  1  0  0  0  0
  2  4  1  0  0  0  0
  2  5  1  0  0  0  0
  5  6  2  0  0  0  0
  5  7  1  0  0  0  0
  7  8  1  0  0  0  0
  7  9  1  0  0  0  0
  9 10  1  0  0  0  0
  9 11  1  0  0  0  0
  9 22  1  0  0  0  0
 11 12  1  0  0  0  0
 11 13  1  0  0  0  0
 11 14  1  0  0  0  0
 14 15  1  0  0  0  0
 14 16  1  0  0  0  0
 14 17  1  0  0  0  0
 17 18  2  0  0  0  0
 17 19  1  0  0  0  0
 19 20  1  0  0  0  0
 19 21  1  0  0  0  0
 22 23  2  0  0  0  0
 22 24  1  0  0  0  0
 24 25  1  0  0  0  0
 24 26  1  0  0  0  0
 26 27  1  0  0  0  0
 26 28  1  0  0  0  0
 26 29  1  0  0  0  0
M  END
$$$$

  -OEChem-02102214123D

 29 28  0     1  0  0  0  0  0999 V2000
   -2.4096   -4.5143    0.3034 H   0  0  0  0  0  0  0  0  0  0  0  0
   -2.4938   -3.5250   -0.1556 C   0  0  0  0  0  0  0  0  0  0  0  0
   -3.3737   -3.0216    0.2524 H   0  0  0  0  0  0  0  0  0  0  0  0
   -2.6198   -3.6480   -1.2341 H   0  0  0  0  0  0  0  0  0  0  0  0
   -1.2473   -2.7089    0.1311 C   0  0  0  0  0  0  0  0  0  0  0  0
   -0.3431   -3.1902    0.7903 O   0  0  0  0  0  0  0  0  0  0  0  0
   -1.1510   -1.4145   -0.3401 N   0  0  0  0  0  0  0  0  0  0  0  0
   -1.9103   -1.0853   -0.9324 H   0  0  0  0  0  0  0  0  0  0  0  0
    0.0607   -0.5806   -0.2389 C   0  0  1  0  0  0  0  0  0  0  0  0
    0.8648   -1.1452   -0.7246 H   0  0  0  0  0  0  0  0  0  0  0  0
   -0.1391    0.7005   -1.0669 C   0  0  0  0  0  0  0  0  0  0  0  0
    0.8347    1.1739   -1.2354 H   0  0  0  0  0  0  0  0  0  0  0  0
   -0.5312    0.4146   -2.0498 H   0  0  0  0  0  0  0  0  0  0  0  0
   -1.0787    1.7243   -0.3995 C   0  0  0  0  0  0  0  0  0  0  0  0
   -1.8376    1.2126    0.1978 H   0  0  0  0  0  0  0  0  0  0  0  0
   -0.5106    2.3745    0.2721 H   0  0  0  0  0  0  0  0  0  0  0  0
   -1.8148    2.5532   -1.4411 C   0  0  0  0  0  0  0  0  0  0  0  0
   -2.6962    2.0623   -2.1211 O   0  0  0  0  0  0  0  0  0  0  0  0
   -1.4775    3.8481   -1.7123 N   0  0  0  0  0  0  0  0  0  0  0  0
   -1.8938    4.2605   -2.5425 H   0  0  0  0  0  0  0  0  0  0  0  0
   -0.6263    4.2340   -1.3168 H   0  0  0  0  0  0  0  0  0  0  0  0
    0.5732   -0.3015    1.1937 C   0  0  0  0  0  0  0  0  0  0  0  0
    1.7687   -0.1052    1.3682 O   0  0  0  0  0  0  0  0  0  0  0  0
   -0.3095    0.0556    2.1978 N   0  0  0  0  0  0  0  0  0  0  0  0
   -1.2763   -0.2153    2.0486 H   0  0  0  0  0  0  0  0  0  0  0  0
    0.1258    0.3535    3.5570 C   0  0  0  0  0  0  0  0  0  0  0  0
    0.8059    1.2118    3.5639 H   0  0  0  0  0  0  0  0  0  0  0  0
   -0.7366    0.5935    4.1861 H   0  0  0  0  0  0  0  0  0  0  0  0
    0.6432   -0.5087    3.9910 H   0  0  0  0  0  0  0  0  0  0  0  0
  1  2  1  0  0  0  0
  2  3  1  0  0  0  0
  2  4  1  0  0  0  0
  2  5  1  0  0  0  0
  5  6  2  0  0  0  0
  5  7  1  0  0  0  0
  7  8  1  0  0  0  0
  7  9  1  0  0  0  0
  9 10  1  0  0  0  0
  9 11  1  0  0  0  0
  9 22  1  0  0  0  0
 11 12  1  0  0  0  0
 11 13  1  0  0  0  0
 11 14  1  0  0  0  0
 14 15  1  0  0  0  0
 14 16  1  0  0  0  0
 14 17  1  0  0  0  0
 17 18  2  0  0  0  0
 17 19  1  0  0  0  0
 19 20  1  0  0  0  0
 19 21  1  0  0  0  0
 22 23  2  0  0  0  0
 22 24  1  0  0  0  0
 24 25  1  0  0  0  0
 24 26  1  0  0  0  0
 26 27  1  0  0  0  0
 26 28  1  0  0  0  0
 26 29  1  0  0  0  0
M  END
$$$$

  -OEChem-02102214123D

 29 28  0     1  0  0  0  0  0999 V2000
   -2.5122   -4.4491    0.3379 H   0  0  0  0  0  0  0  0  0  0  0  0
   -2.5496   -3.4737   -0.1555 C   0  0  0  0  0  0  0  0  0  0  0  0
   -3.4134   -2.9214    0.2221 H   0  0  0  0  0  0  0  0  0  0  0  0
   -2.6660   -3.6276   -1.2310 H   0  0  0  0  0  0  0  0  0  0  0  0
   -1.2749   -2.6990    0.1206 C   0  0  0  0  0  0  0  0  0  0  0  0
   -0.3694   -3.2179    0.7491 O   0  0  0  0  0  0  0  0  0  0  0  0
   -1.1540   -1.3986   -0.3259 N   0  0  0  0  0  0  0  0  0  0  0  0
   -1.9249   -1.0287   -0.8798 H   0  0  0  0  0  0  0  0  0  0  0  0
    0.0748   -0.5915   -0.2244 C   0  0  1  0  0  0  0  0  0  0  0  0
    0.8604   -1.1684   -0.7259 H   0  0  0  0  0  0  0  0  0  0  0  0
   -0.1135    0.6919   -1.0500 C   0  0  0  0  0  0  0  0  0  0  0  0
    0.8677    1.1508   -1.2158 H   0  0  0  0  0  0  0  0  0  0  0  0
   -0.5024    0.4126   -2.0361 H   0  0  0  0  0  0  0  0  0  0  0  0
   -1.0356    1.7344   -0.3820 C   0  0  0  0  0  0  0  0  0  0  0  0
   -1.6262    1.2809    0.4169 H   0  0  0  0  0  0  0  0  0  0  0  0
   -0.4357    2.5331    0.0628 H   0  0  0  0  0  0  0  0  0  0  0  0
   -2.0232    2.3073   -1.3868 C   0  0  0  0  0  0  0  0  0  0  0  0
   -2.9312    1.6220   -1.8201 O   0  0  0  0  0  0  0  0  0  0  0  0
   -1.9051    3.5702   -1.8921 N   0  0  0  0  0  0  0  0  0  0  0  0
   -2.6748    3.9059   -2.4641 H   0  0  0  0  0  0  0  0  0  0  0  0
   -1.2594    4.2234   -1.4608 H   0  0  0  0  0  0  0  0  0  0  0  0
    0.6191   -0.3437    1.2026 C   0  0  0  0  0  0  0  0  0  0  0  0
    1.8217   -0.1746    1.3556 O   0  0  0  0  0  0  0  0  0  0  0  0
   -0.2333    0.0156    2.2320 N   0  0  0  0  0  0  0  0  0  0  0  0
   -1.2080   -0.2375    2.1037 H   0  0  0  0  0  0  0  0  0  0  0  0
    0.2389    0.3020    3.5813 C   0  0  0  0  0  0  0  0  0  0  0  0
    0.9205    1.1591    3.5764 H   0  0  0  0  0  0  0  0  0  0  0  0
   -0.6057    0.5384    4.2353 H   0  0  0  0  0  0  0  0  0  0  0  0
    0.7659   -0.5648    3.9937 H   0  0  0  0  0  0  0  0  0  0  0  0
  1  2  1  0  0  0  0
  2  3  1  0  0  0  0
  2  4  1  0  0  0  0
  2  5  1  0  0  0  0
  5  6  2  0  0  0  0
  5  7  1  0  0  0  0
  7  8  1  0  0  0  0
  7  9  1  0  0  0  0
  9 10  1  0  0  0  0
  9 11  1  0  0  0  0
  9 22  1  0  0  0  0
 11 12  1  0  0  0  0
 11 13  1  0  0  0  0
 11 14  1  0  0  0  0
 14 15  1  0  0  0  0
 14 16  1  0  0  0  0
 14 17  1  0  0  0  0
 17 18  2  0  0  0  0
 17 19  1  0  0  0  0
 19 20  1  0  0  0  0
 19 21  1  0  0  0  0
 22 23  2  0  0  0  0
 22 24  1  0  0  0  0
 24 25  1  0  0  0  0
 24 26  1  0  0  0  0
 26 27  1  0  0  0  0
 26 28  1  0  0  0  0
 26 29  1  0  0  0  0
M  END
$$$$

  -OEChem-02102214123D

 29 28  0     1  0  0  0  0  0999 V2000
   -2.5951   -4.3776    0.3426 H   0  0  0  0  0  0  0  0  0  0  0  0
   -2.6183   -3.3886   -0.1233 C   0  0  0  0  0  0  0  0  0  0  0  0
   -3.4400   -2.8142    0.3110 H   0  0  0  0  0  0  0  0  0  0  0  0
   -2.7938   -3.5079   -1.1953 H   0  0  0  0  0  0  0  0  0  0  0  0
   -1.3023   -2.6704    0.1082 C   0  0  0  0  0  0  0  0  0  0  0  0
   -0.3892   -3.2378    0.6822 O   0  0  0  0  0  0  0  0  0  0  0  0
   -1.1531   -1.3642   -0.3096 N   0  0  0  0  0  0  0  0  0  0  0  0
   -1.9464   -0.9359   -0.7896 H   0  0  0  0  0  0  0  0  0  0  0  0
    0.0930   -0.5860   -0.2061 C   0  0  1  0  0  0  0  0  0  0  0  0
    0.8599   -1.1775   -0.7194 H   0  0  0  0  0  0  0  0  0  0  0  0
   -0.0838    0.6921   -1.0409 C   0  0  0  0  0  0  0  0  0  0  0  0
    0.9078    1.1355   -1.1851 H   0  0  0  0  0  0  0  0  0  0  0  0
   -0.4517    0.4212   -2.0374 H   0  0  0  0  0  0  0  0  0  0  0  0
   -0.9922    1.7561   -0.3857 C   0  0  0  0  0  0  0  0  0  0  0  0
   -1.3731    1.4319    0.5829 H   0  0  0  0  0  0  0  0  0  0  0  0
   -0.4211    2.6745   -0.2239 H   0  0  0  0  0  0  0  0  0  0  0  0
   -2.1908    2.0479   -1.2756 C   0  0  0  0  0  0  0  0  0  0  0  0
   -2.9899    1.1647   -1.5344 O   0  0  0  0  0  0  0  0  0  0  0  0
   -2.4005    3.2664   -1.8549 N   0  0  0  0  0  0  0  0  0  0  0  0
   -3.2900    3.3999   -2.3278 H   0  0  0  0  0  0  0  0  0  0  0  0
   -1.8542    4.0654   -1.5499 H   0  0  0  0  0  0  0  0  0  0  0  0
    0.6650   -0.3769    1.2162 C   0  0  0  0  0  0  0  0  0  0  0  0
    1.8735   -0.2374    1.3519 O   0  0  0  0  0  0  0  0  0  0  0  0
   -0.1599   -0.0205    2.2683 N   0  0  0  0  0  0  0  0  0  0  0  0
   -1.1429   -0.2458    2.1514 H   0  0  0  0  0  0  0  0  0  0  0  0
    0.3417    0.2290    3.6141 C   0  0  0  0  0  0  0  0  0  0  0  0
    1.0526    1.0621    3.6103 H   0  0  0  0  0  0  0  0  0  0  0  0
   -0.4847    0.4852    4.2840 H   0  0  0  0  0  0  0  0  0  0  0  0
    0.8445   -0.6616    4.0064 H   0  0  0  0  0  0  0  0  0  0  0  0
  1  2  1  0  0  0  0
  2  3  1  0  0  0  0
  2  4  1  0  0  0  0
  2  5  1  0  0  0  0
  5  6  2  0  0  0  0
  5  7  1  0  0  0  0
  7  8  1  0  0  0  0
  7  9  1  0  0  0  0
  9 10  1  0  0  0  0
  9 11  1  0  0  0  0
  9 22  1  0  0  0  0
 11 12  1  0  0  0  0
 11 13  1  0  0  0  0
 11 14  1  0  0  0  0
 14 15  1  0  0  0  0
 14 16  1  0  0  0  0
 14 17  1  0  0  0  0
 17 18  2  0  0  0  0
 17 19  1  0  0  0  0
 19 20  1  0  0  0  0
 19 21  1  0  0  0  0
 22 23  2  0  0  0  0
 22 24  1  0  0  0  0
 24 25  1  0  0  0  0
 24 26  1  0  0  0  0
 26 27  1  0  0  0  0
 26 28  1  0  0  0  0
 26 29  1  0  0  0  0
M  END
$$$$

  -OEChem-02102214123D

 29 28  0     1  0  0  0  0  0999 V2000
   -2.6587   -4.3152    0.4120 H   0  0  0  0  0  0  0  0  0  0  0  0
   -2.6628   -3.3299   -0.0623 C   0  0  0  0  0  0  0  0  0  0  0  0
   -3.4440   -2.7199    0.3978 H   0  0  0  0  0  0  0  0  0  0  0  0
   -2.8844   -3.4505   -1.1255 H   0  0  0  0  0  0  0  0  0  0  0  0
   -1.3125   -2.6615    0.1104 C   0  0  0  0  0  0  0  0  0  0  0  0
   -0.3924   -3.2657    0.6339 O   0  0  0  0  0  0  0  0  0  0  0  0
   -1.1393   -1.3582   -0.3044 N   0  0  0  0  0  0  0  0  0  0  0  0
   -1.9537   -0.8844   -0.7057 H   0  0  0  0  0  0  0  0  0  0  0  0
    0.1186   -0.6003   -0.2105 C   0  0  1  0  0  0  0  0  0  0  0  0
    0.8734   -1.2064   -0.7246 H   0  0  0  0  0  0  0  0  0  0  0  0
   -0.0382    0.6777   -1.0543 C   0  0  0  0  0  0  0  0  0  0  0  0
    0.9658    1.0969   -1.1838 H   0  0  0  0  0  0  0  0  0  0  0  0
   -0.4000    0.4186   -2.0561 H   0  0  0  0  0  0  0  0  0  0  0  0
   -0.9229    1.7730   -0.4178 C   0  0  0  0  0  0  0  0  0  0  0  0
   -1.0650    1.6332    0.6527 H   0  0  0  0  0  0  0  0  0  0  0  0
   -0.4314    2.7405   -0.5522 H   0  0  0  0  0  0  0  0  0  0  0  0
   -2.2855    1.8250   -1.0977 C   0  0  0  0  0  0  0  0  0  0  0  0
   -2.9691    0.8196   -1.2000 O   0  0  0  0  0  0  0  0  0  0  0  0
   -2.7950    2.9720   -1.6351 N   0  0  0  0  0  0  0  0  0  0  0  0
   -3.7629    2.9413   -1.9434 H   0  0  0  0  0  0  0  0  0  0  0  0
   -2.3466    3.8598   -1.4337 H   0  0  0  0  0  0  0  0  0  0  0  0
    0.6938   -0.4100    1.2125 C   0  0  0  0  0  0  0  0  0  0  0  0
    1.9039   -0.2882    1.3509 O   0  0  0  0  0  0  0  0  0  0  0  0
   -0.1285   -0.0472    2.2648 N   0  0  0  0  0  0  0  0  0  0  0  0
   -1.1155   -0.2520    2.1424 H   0  0  0  0  0  0  0  0  0  0  0  0
    0.3726    0.1936    3.6122 C   0  0  0  0  0  0  0  0  0  0  0  0
    1.0951    1.0163    3.6111 H   0  0  0  0  0  0  0  0  0  0  0  0
   -0.4516    0.4609    4.2800 H   0  0  0  0  0  0  0  0  0  0  0  0
    0.8615   -0.7042    4.0047 H   0  0  0  0  0  0  0  0  0  0  0  0
  1  2  1  0  0  0  0
  2  3  1  0  0  0  0
  2  4  1  0  0  0  0
  2  5  1  0  0  0  0
  5  6  2  0  0  0  0
  5  7  1  0  0  0  0
  7  8  1  0  0  0  0
  7  9  1  0  0  0  0
  9 10  1  0  0  0  0
  9 11  1  0  0  0  0
  9 22  1  0  0  0  0
 11 12  1  0  0  0  0
 11 13  1  0  0  0  0
 11 14  1  0  0  0  0
 14 15  1  0  0  0  0
 14 16  1  0  0  0  0
 14 17  1  0  0  0  0
 17 18  2  0  0  0  0
 17 19  1  0  0  0  0
 19 20  1  0  0  0  0
 19 21  1  0  0  0  0
 22 23  2  0  0  0  0
 22 24  1  0  0  0  0
 24 25  1  0  0  0  0
 24 26  1  0  0  0  0
 26 27  1  0  0  0  0
 26 28  1  0  0  0  0
 26 29  1  0  0  0  0
M  END
$$$$

  -OEChem-02102214123D

 29 28  0     1  0  0  0  0  0999 V2000
   -2.6611   -4.3393    0.4988 H   0  0  0  0  0  0  0  0  0  0  0  0
   -2.6572   -3.3645    0.0031 C   0  0  0  0  0  0  0  0  0  0  0  0
   -3.4336   -2.7382    0.4491 H   0  0  0  0  0  0  0  0  0  0  0  0
   -2.8796   -3.5065   -1.0572 H   0  0  0  0  0  0  0  0  0  0  0  0
   -1.3015   -2.7025    0.1603 C   0  0  0  0  0  0  0  0  0  0  0  0
   -0.3921   -3.2924    0.7181 O   0  0  0  0  0  0  0  0  0  0  0  0
   -1.1124   -1.4206   -0.3108 N   0  0  0  0  0  0  0  0  0  0  0  0
   -1.9214   -0.9572   -0.7345 H   0  0  0  0  0  0  0  0  0  0  0  0
    0.1476   -0.6660   -0.2396 C   0  0  1  0  0  0  0  0  0  0  0  0
    0.9047   -1.2969   -0.7192 H   0  0  0  0  0  0  0  0  0  0  0  0
    0.0397    0.6045   -1.1115 C   0  0  0  0  0  0  0  0  0  0  0  0
    1.0601    0.9834   -1.2371 H   0  0  0  0  0  0  0  0  0  0  0  0
   -0.3218    0.3344   -2.1100 H   0  0  0  0  0  0  0  0  0  0  0  0
   -0.8137    1.7610   -0.5378 C   0  0  0  0  0  0  0  0  0  0  0  0
   -0.7291    1.8308    0.5467 H   0  0  0  0  0  0  0  0  0  0  0  0
   -0.4149    2.6948   -0.9439 H   0  0  0  0  0  0  0  0  0  0  0  0
   -2.2882    1.6934   -0.9321 C   0  0  0  0  0  0  0  0  0  0  0  0
   -2.8717    0.6432   -1.1404 O   0  0  0  0  0  0  0  0  0  0  0  0
   -3.0494    2.8218   -1.0346 N   0  0  0  0  0  0  0  0  0  0  0  0
   -4.0504    2.6905   -1.1501 H   0  0  0  0  0  0  0  0  0  0  0  0
   -2.6789    3.7081   -0.7072 H   0  0  0  0  0  0  0  0  0  0  0  0
    0.6855   -0.4284    1.1896 C   0  0  0  0  0  0  0  0  0  0  0  0
    1.8908   -0.3033    1.3624 O   0  0  0  0  0  0  0  0  0  0  0  0
   -0.1729   -0.0227    2.1964 N   0  0  0  0  0  0  0  0  0  0  0  0
   -1.1549   -0.2318    2.0441 H   0  0  0  0  0  0  0  0  0  0  0  0
    0.2788    0.2588    3.5530 C   0  0  0  0  0  0  0  0  0  0  0  0
    1.0077    1.0761    3.5535 H   0  0  0  0  0  0  0  0  0  0  0  0
   -0.5684    0.5537    4.1793 H   0  0  0  0  0  0  0  0  0  0  0  0
    0.7447   -0.6294    3.9926 H   0  0  0  0  0  0  0  0  0  0  0  0
  1  2  1  0  0  0  0
  2  3  1  0  0  0  0
  2  4  1  0  0  0  0
  2  5  1  0  0  0  0
  5  6  2  0  0  0  0
  5  7  1  0  0  0  0
  7  8  1  0  0  0  0
  7  9  1  0  0  0  0
  9 10  1  0  0  0  0
  9 11  1  0  0  0  0
  9 22  1  0  0  0  0
 11 12  1  0  0  0  0
 11 13  1  0  0  0  0
 11 14  1  0  0  0  0
 14 15  1  0  0  0  0
 14 16  1  0  0  0  0
 14 17  1  0  0  0  0
 17 18  2  0  0  0  0
 17 19  1  0  0  0  0
 19 20  1  0  0  0  0
 19 21  1  0  0  0  0
 22 23  2  0  0  0  0
 22 24  1  0  0  0  0
 24 25  1  0  0  0  0
 24 26  1  0  0  0  0
 26 27  1  0  0  0  0
 26 28  1  0  0  0  0
 26 29  1  0  0  0  0
M  END
$$$$

  -OEChem-02102214123D

 29 28  0     1  0  0  0  0  0999 V2000
   -2.6860   -4.3357    0.5302 H   0  0  0  0  0  0  0  0  0  0  0  0
   -2.6679   -3.3702    0.0169 C   0  0  0  0  0  0  0  0  0  0  0  0
   -3.4541   -2.7346    0.4313 H   0  0  0  0  0  0  0  0  0  0  0  0
   -2.8635   -3.5318   -1.0460 H   0  0  0  0  0  0  0  0  0  0  0  0
   -1.3158   -2.7070    0.1970 C   0  0  0  0  0  0  0  0  0  0  0  0
   -0.4327   -3.2752    0.8159 O   0  0  0  0  0  0  0  0  0  0  0  0
   -1.1001   -1.4490   -0.3244 N   0  0  0  0  0  0  0  0  0  0  0  0
   -1.8849   -1.0086   -0.8129 H   0  0  0  0  0  0  0  0  0  0  0  0
    0.1683   -0.7070   -0.2582 C   0  0  1  0  0  0  0  0  0  0  0  0
    0.9288   -1.3611   -0.6995 H   0  0  0  0  0  0  0  0  0  0  0  0
    0.0994    0.5476   -1.1592 C   0  0  0  0  0  0  0  0  0  0  0  0
    1.1271    0.9040   -1.2893 H   0  0  0  0  0  0  0  0  0  0  0  0
   -0.2650    0.2594   -2.1513 H   0  0  0  0  0  0  0  0  0  0  0  0
   -0.7380    1.7348   -0.6259 C   0  0  0  0  0  0  0  0  0  0  0  0
   -0.4568    1.9681    0.4030 H   0  0  0  0  0  0  0  0  0  0  0  0
   -0.4892    2.6135   -1.2274 H   0  0  0  0  0  0  0  0  0  0  0  0
   -2.2536    1.5543   -0.7080 C   0  0  0  0  0  0  0  0  0  0  0  0
   -2.7945    0.6036   -1.2465 O   0  0  0  0  0  0  0  0  0  0  0  0
   -3.0999    2.4642   -0.1437 N   0  0  0  0  0  0  0  0  0  0  0  0
   -4.0833    2.3718   -0.3824 H   0  0  0  0  0  0  0  0  0  0  0  0
   -2.7296    3.3610    0.1546 H   0  0  0  0  0  0  0  0  0  0  0  0
    0.6700   -0.4195    1.1747 C   0  0  0  0  0  0  0  0  0  0  0  0
    1.8711   -0.2961    1.3760 O   0  0  0  0  0  0  0  0  0  0  0  0
   -0.2139    0.0366    2.1372 N   0  0  0  0  0  0  0  0  0  0  0  0
   -1.1914   -0.1828    1.9704 H   0  0  0  0  0  0  0  0  0  0  0  0
    0.2036    0.3668    3.4939 C   0  0  0  0  0  0  0  0  0  0  0  0
    0.9427    1.1748    3.4821 H   0  0  0  0  0  0  0  0  0  0  0  0
   -0.6563    0.6963    4.0848 H   0  0  0  0  0  0  0  0  0  0  0  0
    0.6462   -0.5083    3.9816 H   0  0  0  0  0  0  0  0  0  0  0  0
  1  2  1  0  0  0  0
  2  3  1  0  0  0  0
  2  4  1  0  0  0  0
  2  5  1  0  0  0  0
  5  6  2  0  0  0  0
  5  7  1  0  0  0  0
  7  8  1  0  0  0  0
  7  9  1  0  0  0  0
  9 10  1  0  0  0  0
  9 11  1  0  0  0  0
  9 22  1  0  0  0  0
 11 12  1  0  0  0  0
 11 13  1  0  0  0  0
 11 14  1  0  0  0  0
 14 15  1  0  0  0  0
 14 16  1  0  0  0  0
 14 17  1  0  0  0  0
 17 18  2  0  0  0  0
 17 19  1  0  0  0  0
 19 20  1  0  0  0  0
 19 21  1  0  0  0  0
 22 23  2  0  0  0  0
 22 24  1  0  0  0  0
 24 25  1  0  0  0  0
 24 26  1  0  0  0  0
 26 27  1  0  0  0  0
 26 28  1  0  0  0  0
 26 29  1  0  0  0  0
M  END
$$$$

  -OEChem-02102214123D

 29 28  0     1  0  0  0  0  0999 V2000
   -2.7163   -4.2953    0.5610 H   0  0  0  0  0  0  0  0  0  0  0  0
   -2.6873   -3.3373    0.0345 C   0  0  0  0  0  0  0  0  0  0  0  0
   -3.4650   -2.6865    0.4411 H   0  0  0  0  0  0  0  0  0  0  0  0
   -2.8866   -3.5116   -1.0257 H   0  0  0  0  0  0  0  0  0  0  0  0
   -1.3271   -2.6881    0.2042 C   0  0  0  0  0  0  0  0  0  0  0  0
   -0.4597   -3.2450    0.8545 O   0  0  0  0  0  0  0  0  0  0  0  0
   -1.0868   -1.4530   -0.3599 N   0  0  0  0  0  0  0  0  0  0  0  0
   -1.8639   -1.0134   -0.8607 H   0  0  0  0  0  0  0  0  0  0  0  0
    0.1862   -0.7184   -0.2831 C   0  0  1  0  0  0  0  0  0  0  0  0
    0.9558   -1.3867   -0.6856 H   0  0  0  0  0  0  0  0  0  0  0  0
    0.1494    0.5219   -1.2054 C   0  0  0  0  0  0  0  0  0  0  0  0
    1.1809    0.8646   -1.3424 H   0  0  0  0  0  0  0  0  0  0  0  0
   -0.2200    0.2147   -2.1900 H   0  0  0  0  0  0  0  0  0  0  0  0
   -0.6854    1.7260   -0.7083 C   0  0  0  0  0  0  0  0  0  0  0  0
   -0.2512    2.1059    0.2203 H   0  0  0  0  0  0  0  0  0  0  0  0
   -0.6113    2.5284   -1.4471 H   0  0  0  0  0  0  0  0  0  0  0  0
   -2.1679    1.4393   -0.4826 C   0  0  0  0  0  0  0  0  0  0  0  0
   -2.8011    0.6484   -1.1604 O   0  0  0  0  0  0  0  0  0  0  0  0
   -2.8506    2.0013    0.5574 N   0  0  0  0  0  0  0  0  0  0  0  0
   -3.8614    1.8989    0.5311 H   0  0  0  0  0  0  0  0  0  0  0  0
   -2.4349    2.7940    1.0372 H   0  0  0  0  0  0  0  0  0  0  0  0
    0.6407   -0.3817    1.1547 C   0  0  0  0  0  0  0  0  0  0  0  0
    1.8343   -0.2622    1.3966 O   0  0  0  0  0  0  0  0  0  0  0  0
   -0.2739    0.1170    2.0663 N   0  0  0  0  0  0  0  0  0  0  0  0
   -1.2490   -0.0850    1.8646 H   0  0  0  0  0  0  0  0  0  0  0  0
    0.0943    0.4892    3.4263 C   0  0  0  0  0  0  0  0  0  0  0  0
    0.8322    1.2982    3.4166 H   0  0  0  0  0  0  0  0  0  0  0  0
   -0.7871    0.8334    3.9755 H   0  0  0  0  0  0  0  0  0  0  0  0
    0.5202   -0.3698    3.9555 H   0  0  0  0  0  0  0  0  0  0  0  0
  1  2  1  0  0  0  0
  2  3  1  0  0  0  0
  2  4  1  0  0  0  0
  2  5  1  0  0  0  0
  5  6  2  0  0  0  0
  5  7  1  0  0  0  0
  7  8  1  0  0  0  0
  7  9  1  0  0  0  0
  9 10  1  0  0  0  0
  9 11  1  0  0  0  0
  9 22  1  0  0  0  0
 11 12  1  0  0  0  0
 11 13  1  0  0  0  0
 11 14  1  0  0  0  0
 14 15  1  0  0  0  0
 14 16  1  0  0  0  0
 14 17  1  0  0  0  0
 17 18  2  0  0  0  0
 17 19  1  0  0  0  0
 19 20  1  0  0  0  0
 19 21  1  0  0  0  0
 22 23  2  0  0  0  0
 22 24  1  0  0  0  0
 24 25  1  0  0  0  0
 24 26  1  0  0  0  0
 26 27  1  0  0  0  0
 26 28  1  0  0  0  0
 26 29  1  0  0  0  0
M  END
$$$$

  -OEChem-02102214123D

 29 28  0     1  0  0  0  0  0999 V2000
   -2.6528   -4.3287    0.5953 H   0  0  0  0  0  0  0  0  0  0  0  0
   -2.6490   -3.3685    0.0716 C   0  0  0  0  0  0  0  0  0  0  0  0
   -3.4039   -2.7179    0.5198 H   0  0  0  0  0  0  0  0  0  0  0  0
   -2.9024   -3.5383   -0.9776 H   0  0  0  0  0  0  0  0  0  0  0  0
   -1.2811   -2.7213    0.1742 C   0  0  0  0  0  0  0  0  0  0  0  0
   -0.3785   -3.2873    0.7664 O   0  0  0  0  0  0  0  0  0  0  0  0
   -1.0755   -1.4742   -0.3769 N   0  0  0  0  0  0  0  0  0  0  0  0
   -1.8933   -1.0092   -0.7805 H   0  0  0  0  0  0  0  0  0  0  0  0
    0.1762   -0.7069   -0.2804 C   0  0  1  0  0  0  0  0  0  0  0  0
    0.9609   -1.3621   -0.6758 H   0  0  0  0  0  0  0  0  0  0  0  0
    0.1435    0.5314   -1.2056 C   0  0  0  0  0  0  0  0  0  0  0  0
    1.1728    0.8827   -1.3378 H   0  0  0  0  0  0  0  0  0  0  0  0
   -0.2106    0.2029   -2.1887 H   0  0  0  0  0  0  0  0  0  0  0  0
   -0.7178    1.7394   -0.7599 C   0  0  0  0  0  0  0  0  0  0  0  0
   -0.1780    2.2639    0.0337 H   0  0  0  0  0  0  0  0  0  0  0  0
   -0.8167    2.4351   -1.5979 H   0  0  0  0  0  0  0  0  0  0  0  0
   -2.1158    1.4134   -0.2396 C   0  0  0  0  0  0  0  0  0  0  0  0
   -2.8667    0.6488   -0.8194 O   0  0  0  0  0  0  0  0  0  0  0  0
   -2.5928    1.9295    0.9311 N   0  0  0  0  0  0  0  0  0  0  0  0
   -3.5917    1.8272    1.0876 H   0  0  0  0  0  0  0  0  0  0  0  0
   -2.0903    2.7012    1.3594 H   0  0  0  0  0  0  0  0  0  0  0  0
    0.6263   -0.3635    1.1574 C   0  0  0  0  0  0  0  0  0  0  0  0
    1.8192   -0.2352    1.3988 O   0  0  0  0  0  0  0  0  0  0  0  0
   -0.2871    0.1089    2.0828 N   0  0  0  0  0  0  0  0  0  0  0  0
   -1.2663   -0.0615    1.8706 H   0  0  0  0  0  0  0  0  0  0  0  0
    0.0815    0.4620    3.4479 C   0  0  0  0  0  0  0  0  0  0  0  0
    0.8138    1.2761    3.4497 H   0  0  0  0  0  0  0  0  0  0  0  0
   -0.8010    0.7910    4.0048 H   0  0  0  0  0  0  0  0  0  0  0  0
    0.5146   -0.4025    3.9624 H   0  0  0  0  0  0  0  0  0  0  0  0
  1  2  1  0  0  0  0
  2  3  1  0  0  0  0
  2  4  1  0  0  0  0
  2  5  1  0  0  0  0
  5  6  2  0  0  0  0
  5  7  1  0  0  0  0
  7  8  1  0  0  0  0
  7  9  1  0  0  0  0
  9 10  1  0  0  0  0
  9 11  1  0  0  0  0
  9 22  1  0  0  0  0
 11 12  1  0  0  0  0
 11 13  1  0  0  0  0
 11 14  1  0  0  0  0
 14 15  1  0  0  0  0
 14 16  1  0  0  0  0
 14 17  1  0  0  0  0
 17 18  2  0  0  0  0
 17 19  1  0  0  0  0
 19 20  1  0  0  0  0
 19 21  1  0  0  0  0
 22 23  2  0  0  0  0
 22 24  1  0  0  0  0
 24 25  1  0  0  0  0
 24 26  1  0  0  0  0
 26 27  1  0  0  0  0
 26 28  1  0  0  0  0
 26 29  1  0  0  0  0
M  END
$$$$

  -OEChem-02102214123D

 29 28  0     1  0  0  0  0  0999 V2000
   -2.5435   -4.3914    0.6281 H   0  0  0  0  0  0  0  0  0  0  0  0
   -2.5793   -3.4303    0.1075 C   0  0  0  0  0  0  0  0  0  0  0  0
   -3.3029   -2.7836    0.6098 H   0  0  0  0  0  0  0  0  0  0  0  0
   -2.9051   -3.5974   -0.9221 H   0  0  0  0  0  0  0  0  0  0  0  0
   -1.2096   -2.7791    0.1161 C   0  0  0  0  0  0  0  0  0  0  0  0
   -0.2557   -3.3664    0.5972 O   0  0  0  0  0  0  0  0  0  0  0  0
   -1.0594   -1.5059   -0.3920 N   0  0  0  0  0  0  0  0  0  0  0  0
   -1.9230   -1.0119   -0.6314 H   0  0  0  0  0  0  0  0  0  0  0  0
    0.1688   -0.7052   -0.2772 C   0  0  1  0  0  0  0  0  0  0  0  0
    0.9656   -1.3346   -0.6902 H   0  0  0  0  0  0  0  0  0  0  0  0
    0.1198    0.5447   -1.1857 C   0  0  0  0  0  0  0  0  0  0  0  0
    1.1457    0.9082   -1.3128 H   0  0  0  0  0  0  0  0  0  0  0  0
   -0.2200    0.2079   -2.1709 H   0  0  0  0  0  0  0  0  0  0  0  0
   -0.7626    1.7543   -0.7748 C   0  0  0  0  0  0  0  0  0  0  0  0
   -0.1367    2.4178   -0.1710 H   0  0  0  0  0  0  0  0  0  0  0  0
   -1.0453    2.3088   -1.6739 H   0  0  0  0  0  0  0  0  0  0  0  0
   -2.0283    1.4813    0.0357 C   0  0  0  0  0  0  0  0  0  0  0  0
   -2.8400    0.6283   -0.2774 O   0  0  0  0  0  0  0  0  0  0  0  0
   -2.3460    2.2067    1.1479 N   0  0  0  0  0  0  0  0  0  0  0  0
   -3.2974    2.1118    1.4919 H   0  0  0  0  0  0  0  0  0  0  0  0
   -1.8092    3.0426    1.3576 H   0  0  0  0  0  0  0  0  0  0  0  0
    0.6290   -0.4001    1.1659 C   0  0  0  0  0  0  0  0  0  0  0  0
    1.8211   -0.2432    1.3940 O   0  0  0  0  0  0  0  0  0  0  0  0
   -0.2815    0.0102    2.1224 N   0  0  0  0  0  0  0  0  0  0  0  0
   -1.2617   -0.1603    1.9133 H   0  0  0  0  0  0  0  0  0  0  0  0
    0.0957    0.3464    3.4891 C   0  0  0  0  0  0  0  0  0  0  0  0
    0.8178    1.1694    3.4976 H   0  0  0  0  0  0  0  0  0  0  0  0
   -0.7857    0.6564    4.0586 H   0  0  0  0  0  0  0  0  0  0  0  0
    0.5442   -0.5206    3.9853 H   0  0  0  0  0  0  0  0  0  0  0  0
  1  2  1  0  0  0  0
  2  3  1  0  0  0  0
  2  4  1  0  0  0  0
  2  5  1  0  0  0  0
  5  6  2  0  0  0  0
  5  7  1  0  0  0  0
  7  8  1  0  0  0  0
  7  9  1  0  0  0  0
  9 10  1  0  0  0  0
  9 11  1  0  0  0  0
  9 22  1  0  0  0  0
 11 12  1  0  0  0  0
 11 13  1  0  0  0  0
 11 14  1  0  0  0  0
 14 15  1  0  0  0  0
 14 16  1  0  0  0  0
 14 17  1  0  0  0  0
 17 18  2  0  0  0  0
 17 19  1  0  0  0  0
 19 20  1  0  0  0  0
 19 21  1  0  0  0  0
 22 23  2  0  0  0  0
 22 24  1  0  0  0  0
 24 25  1  0  0  0  0
 24 26  1  0  0  0  0
 26 27  1  0  0  0  0
 26 28  1  0  0  0  0
 26 29  1  0  0  0  0
M  END
$$$$

  -OEChem-02102214123D

 29 28  0     1  0  0  0  0  0999 V2000
   -2.1051   -4.3176    1.2423 H   0  0  0  0  0  0  0  0  0  0  0  0
   -2.2513   -3.4070    0.6546 C   0  0  0  0  0  0  0  0  0  0  0  0
   -2.9826   -2.7730    1.1617 H   0  0  0  0  0  0  0  0  0  0  0  0
   -2.6382   -3.6803   -0.3300 H   0  0  0  0  0  0  0  0  0  0  0  0
   -0.9373   -2.6647    0.5039 C   0  0  0  0  0  0  0  0  0  0  0  0
    0.0879   -3.1344    0.9696 O   0  0  0  0  0  0  0  0  0  0  0  0
   -0.9190   -1.4288   -0.1071 N   0  0  0  0  0  0  0  0  0  0  0  0
   -1.8311   -0.9973   -0.2767 H   0  0  0  0  0  0  0  0  0  0  0  0
    0.2518   -0.5402   -0.1389 C   0  0  1  0  0  0  0  0  0  0  0  0
    1.0529   -1.1880   -0.5136 H   0  0  0  0  0  0  0  0  0  0  0  0
    0.1191    0.5355   -1.2409 C   0  0  0  0  0  0  0  0  0  0  0  0
    1.1186    0.9396   -1.4375 H   0  0  0  0  0  0  0  0  0  0  0  0
   -0.1928    0.0171   -2.1538 H   0  0  0  0  0  0  0  0  0  0  0  0
   -0.8420    1.7327   -1.0357 C   0  0  0  0  0  0  0  0  0  0  0  0
   -0.2326    2.6157   -0.8232 H   0  0  0  0  0  0  0  0  0  0  0  0
   -1.3711    1.9288   -1.9726 H   0  0  0  0  0  0  0  0  0  0  0  0
   -1.8760    1.6190    0.0771 C   0  0  0  0  0  0  0  0  0  0  0  0
   -2.7523    0.7707    0.0443 O   0  0  0  0  0  0  0  0  0  0  0  0
   -1.9218    2.5030    1.1167 N   0  0  0  0  0  0  0  0  0  0  0  0
   -2.5461    2.2566    1.8781 H   0  0  0  0  0  0  0  0  0  0  0  0
   -1.0919    3.0556    1.3073 H   0  0  0  0  0  0  0  0  0  0  0  0
    0.8513   -0.0409    1.2038 C   0  0  0  0  0  0  0  0  0  0  0  0
    1.9842    0.4145    1.1920 O   0  0  0  0  0  0  0  0  0  0  0  0
    0.1554    0.4395    2.2918 N   0  0  0  0  0  0  0  0  0  0  0  0
    0.7899    0.8799    2.9535 H   0  0  0  0  0  0  0  0  0  0  0  0
   -0.9693   -0.2838    2.8707 C   0  0  0  0  0  0  0  0  0  0  0  0
   -1.3003    0.2172    3.7853 H   0  0  0  0  0  0  0  0  0  0  0  0
   -1.8184   -0.3254    2.1855 H   0  0  0  0  0  0  0  0  0  0  0  0
   -0.6735   -1.3065    3.1277 H   0  0  0  0  0  0  0  0  0  0  0  0
  1  2  1  0  0  0  0
  2  3  1  0  0  0  0
  2  4  1  0  0  0  0
  2  5  1  0  0  0  0
  5  6  2  0  0  0  0
  5  7  1  0  0  0  0
  7  8  1  0  0  0  0
  7  9  1  0  0  0  0
  9 10  1  0  0  0  0
  9 11  1  0  0  0  0
  9 22  1  0  0  0  0
 11 12  1  0  0  0  0
 11 13  1  0  0  0  0
 11 14  1  0  0  0  0
 14 15  1  0  0  0  0
 14 16  1  0  0  0  0
 14 17  1  0  0  0  0
 17 18  2  0  0  0  0
 17 19  1  0  0  0  0
 19 20  1  0  0  0  0
 19 21  1  0  0  0  0
 22 23  2  0  0  0  0
 22 24  1  0  0  0  0
 24 25  1  0  0  0  0
 24 26  1  0  0  0  0
 26 27  1  0  0  0  0
 26 28  1  0  0  0  0
 26 29  1  0  0  0  0
M  END
$$$$

  -OEChem-02102214123D

 29 28  0     1  0  0  0  0  0999 V2000
   -2.3730   -4.4973    0.4795 H   0  0  0  0  0  0  0  0  0  0  0  0
   -2.3891   -3.5179   -0.0067 C   0  0  0  0  0  0  0  0  0  0  0  0
   -3.1734   -2.9100    0.4510 H   0  0  0  0  0  0  0  0  0  0  0  0
   -2.6155   -3.6545   -1.0668 H   0  0  0  0  0  0  0  0  0  0  0  0
   -1.0446   -2.8333    0.1506 C   0  0  0  0  0  0  0  0  0  0  0  0
   -0.1323   -3.4064    0.7215 O   0  0  0  0  0  0  0  0  0  0  0  0
   -0.8713   -1.5540   -0.3375 N   0  0  0  0  0  0  0  0  0  0  0  0
   -1.7302   -1.0675   -0.5986 H   0  0  0  0  0  0  0  0  0  0  0  0
    0.2802   -0.7049    0.0035 C   0  0  1  0  0  0  0  0  0  0  0  0
    1.1521   -1.3359   -0.2073 H   0  0  0  0  0  0  0  0  0  0  0  0
    0.4247    0.4559   -1.0073 C   0  0  0  0  0  0  0  0  0  0  0  0
    1.4402    0.8498   -0.8862 H   0  0  0  0  0  0  0  0  0  0  0  0
    0.3780    0.0233   -2.0126 H   0  0  0  0  0  0  0  0  0  0  0  0
   -0.5436    1.6701   -0.9681 C   0  0  0  0  0  0  0  0  0  0  0  0
    0.0571    2.5755   -0.8434 H   0  0  0  0  0  0  0  0  0  0  0  0
   -1.0347    1.7494   -1.9422 H   0  0  0  0  0  0  0  0  0  0  0  0
   -1.6431    1.6918    0.0867 C   0  0  0  0  0  0  0  0  0  0  0  0
   -2.4805    0.8069    0.1650 O   0  0  0  0  0  0  0  0  0  0  0  0
   -1.7469    2.7029    0.9987 N   0  0  0  0  0  0  0  0  0  0  0  0
   -2.4044    2.5601    1.7595 H   0  0  0  0  0  0  0  0  0  0  0  0
   -0.9594    3.3321    1.1205 H   0  0  0  0  0  0  0  0  0  0  0  0
    0.4713   -0.3695    1.5026 C   0  0  0  0  0  0  0  0  0  0  0  0
    1.6014   -0.1733    1.9296 O   0  0  0  0  0  0  0  0  0  0  0  0
   -0.5954    0.0120    2.2943 N   0  0  0  0  0  0  0  0  0  0  0  0
   -1.5234   -0.0661    1.8777 H   0  0  0  0  0  0  0  0  0  0  0  0
   -0.4668    0.4403    3.6808 C   0  0  0  0  0  0  0  0  0  0  0  0
    0.1424    1.3476    3.7469 H   0  0  0  0  0  0  0  0  0  0  0  0
   -1.4532    0.6542    4.1032 H   0  0  0  0  0  0  0  0  0  0  0  0
    0.0040   -0.3455    4.2809 H   0  0  0  0  0  0  0  0  0  0  0  0
  1  2  1  0  0  0  0
  2  3  1  0  0  0  0
  2  4  1  0  0  0  0
  2  5  1  0  0  0  0
  5  6  2  0  0  0  0
  5  7  1  0  0  0  0
  7  8  1  0  0  0  0
  7  9  1  0  0  0  0
  9 10  1  0  0  0  0
  9 11  1  0  0  0  0
  9 22  1  0  0  0  0
 11 12  1  0  0  0  0
 11 13  1  0  0  0  0
 11 14  1  0  0  0  0
 14 15  1  0  0  0  0
 14 16  1  0  0  0  0
 14 17  1  0  0  0  0
 17 18  2  0  0  0  0
 17 19  1  0  0  0  0
 19 20  1  0  0  0  0
 19 21  1  0  0  0  0
 22 23  2  0  0  0  0
 22 24  1  0  0  0  0
 24 25  1  0  0  0  0
 24 26  1  0  0  0  0
 26 27  1  0  0  0  0
 26 28  1  0  0  0  0
 26 29  1  0  0  0  0
M  END
$$$$

  -OEChem-02102214123D

 29 28  0     1  0  0  0  0  0999 V2000
   -2.6709   -4.3939    0.4764 H   0  0  0  0  0  0  0  0  0  0  0  0
   -2.6972   -3.3817    0.0628 C   0  0  0  0  0  0  0  0  0  0  0  0
   -3.3869   -2.7770    0.6566 H   0  0  0  0  0  0  0  0  0  0  0  0
   -3.0595   -3.4313   -0.9667 H   0  0  0  0  0  0  0  0  0  0  0  0
   -1.3101   -2.7684    0.0944 C   0  0  0  0  0  0  0  0  0  0  0  0
   -0.3689   -3.4165    0.5191 O   0  0  0  0  0  0  0  0  0  0  0  0
   -1.1268   -1.4716   -0.3434 N   0  0  0  0  0  0  0  0  0  0  0  0
   -1.9788   -0.9364   -0.5035 H   0  0  0  0  0  0  0  0  0  0  0  0
    0.1069   -0.7042   -0.1142 C   0  0  1  0  0  0  0  0  0  0  0  0
    0.8992   -1.3845   -0.4492 H   0  0  0  0  0  0  0  0  0  0  0  0
    0.2227    0.4607   -1.1254 C   0  0  0  0  0  0  0  0  0  0  0  0
    1.2656    0.7946   -1.0818 H   0  0  0  0  0  0  0  0  0  0  0  0
    0.0672    0.0574   -2.1318 H   0  0  0  0  0  0  0  0  0  0  0  0
   -0.6597    1.7255   -0.9698 C   0  0  0  0  0  0  0  0  0  0  0  0
   -0.0507    2.6075   -1.1875 H   0  0  0  0  0  0  0  0  0  0  0  0
   -1.4414    1.6860   -1.7342 H   0  0  0  0  0  0  0  0  0  0  0  0
   -1.3657    1.9390    0.3583 C   0  0  0  0  0  0  0  0  0  0  0  0
   -2.3325    1.2616    0.6690 O   0  0  0  0  0  0  0  0  0  0  0  0
   -0.9395    2.8651    1.2666 N   0  0  0  0  0  0  0  0  0  0  0  0
   -0.0068    3.2516    1.1572 H   0  0  0  0  0  0  0  0  0  0  0  0
   -1.3490    2.7993    2.1937 H   0  0  0  0  0  0  0  0  0  0  0  0
    0.5220   -0.4635    1.3594 C   0  0  0  0  0  0  0  0  0  0  0  0
    1.7119   -0.3633    1.6292 O   0  0  0  0  0  0  0  0  0  0  0  0
   -0.3912   -0.0732    2.3207 N   0  0  0  0  0  0  0  0  0  0  0  0
   -1.3617    0.0228    2.0183 H   0  0  0  0  0  0  0  0  0  0  0  0
   -0.0326    0.2843    3.6867 C   0  0  0  0  0  0  0  0  0  0  0  0
    0.6055    1.1737    3.6962 H   0  0  0  0  0  0  0  0  0  0  0  0
   -0.9339    0.4960    4.2698 H   0  0  0  0  0  0  0  0  0  0  0  0
    0.5041   -0.5401    4.1683 H   0  0  0  0  0  0  0  0  0  0  0  0
  1  2  1  0  0  0  0
  2  3  1  0  0  0  0
  2  4  1  0  0  0  0
  2  5  1  0  0  0  0
  5  6  2  0  0  0  0
  5  7  1  0  0  0  0
  7  8  1  0  0  0  0
  7  9  1  0  0  0  0
  9 10  1  0  0  0  0
  9 11  1  0  0  0  0
  9 22  1  0  0  0  0
 11 12  1  0  0  0  0
 11 13  1  0  0  0  0
 11 14  1  0  0  0  0
 14 15  1  0  0  0  0
 14 16  1  0  0  0  0
 14 17  1  0  0  0  0
 17 18  2  0  0  0  0
 17 19  1  0  0  0  0
 19 20  1  0  0  0  0
 19 21  1  0  0  0  0
 22 23  2  0  0  0  0
 22 24  1  0  0  0  0
 24 25  1  0  0  0  0
 24 26  1  0  0  0  0
 26 27  1  0  0  0  0
 26 28  1  0  0  0  0
 26 29  1  0  0  0  0
M  END
$$$$

  -OEChem-02102214123D

 29 28  0     1  0  0  0  0  0999 V2000
   -3.1814   -4.0393    0.2441 H   0  0  0  0  0  0  0  0  0  0  0  0
   -3.0415   -3.0253   -0.1419 C   0  0  0  0  0  0  0  0  0  0  0  0
   -3.7628   -2.3635    0.3430 H   0  0  0  0  0  0  0  0  0  0  0  0
   -3.2261   -3.0312   -1.2187 H   0  0  0  0  0  0  0  0  0  0  0  0
   -1.6283   -2.5510    0.1404 C   0  0  0  0  0  0  0  0  0  0  0  0
   -0.8453   -3.2888    0.7099 O   0  0  0  0  0  0  0  0  0  0  0  0
   -1.2395   -1.2858   -0.2573 N   0  0  0  0  0  0  0  0  0  0  0  0
   -1.9175   -0.7410   -0.7789 H   0  0  0  0  0  0  0  0  0  0  0  0
    0.1207   -0.7457   -0.0848 C   0  0  1  0  0  0  0  0  0  0  0  0
    0.7636   -1.5302   -0.5028 H   0  0  0  0  0  0  0  0  0  0  0  0
    0.3522    0.4384   -1.0548 C   0  0  0  0  0  0  0  0  0  0  0  0
    1.4362    0.6031   -1.0601 H   0  0  0  0  0  0  0  0  0  0  0  0
    0.0811    0.1193   -2.0665 H   0  0  0  0  0  0  0  0  0  0  0  0
   -0.2917    1.8235   -0.7913 C   0  0  0  0  0  0  0  0  0  0  0  0
    0.3326    2.5896   -1.2613 H   0  0  0  0  0  0  0  0  0  0  0  0
   -1.2567    1.8444   -1.3040 H   0  0  0  0  0  0  0  0  0  0  0  0
   -0.5436    2.2448    0.6479 C   0  0  0  0  0  0  0  0  0  0  0  0
    0.2973    2.8151    1.3106 O   0  0  0  0  0  0  0  0  0  0  0  0
   -1.7712    2.1118    1.2364 N   0  0  0  0  0  0  0  0  0  0  0  0
   -1.8834    2.6630    2.0842 H   0  0  0  0  0  0  0  0  0  0  0  0
   -2.5718    1.9755    0.6291 H   0  0  0  0  0  0  0  0  0  0  0  0
    0.6742   -0.6413    1.3595 C   0  0  0  0  0  0  0  0  0  0  0  0
    1.8687   -0.8361    1.5416 O   0  0  0  0  0  0  0  0  0  0  0  0
   -0.0858   -0.1456    2.4025 N   0  0  0  0  0  0  0  0  0  0  0  0
   -1.0147    0.1894    2.1697 H   0  0  0  0  0  0  0  0  0  0  0  0
    0.4872    0.2338    3.6878 C   0  0  0  0  0  0  0  0  0  0  0  0
    1.1936    1.0612    3.5610 H   0  0  0  0  0  0  0  0  0  0  0  0
   -0.3029    0.5536    4.3736 H   0  0  0  0  0  0  0  0  0  0  0  0
    1.0132   -0.6138    4.1396 H   0  0  0  0  0  0  0  0  0  0  0  0
  1  2  1  0  0  0  0
  2  3  1  0  0  0  0
  2  4  1  0  0  0  0
  2  5  1  0  0  0  0
  5  6  2  0  0  0  0
  5  7  1  0  0  0  0
  7  8  1  0  0  0  0
  7  9  1  0  0  0  0
  9 10  1  0  0  0  0
  9 11  1  0  0  0  0
  9 22  1  0  0  0  0
 11 12  1  0  0  0  0
 11 13  1  0  0  0  0
 11 14  1  0  0  0  0
 14 15  1  0  0  0  0
 14 16  1  0  0  0  0
 14 17  1  0  0  0  0
 17 18  2  0  0  0  0
 17 19  1  0  0  0  0
 19 20  1  0  0  0  0
 19 21  1  0  0  0  0
 22 23  2  0  0  0  0
 22 24  1  0  0  0  0
 24 25  1  0  0  0  0
 24 26  1  0  0  0  0
 26 27  1  0  0  0  0
 26 28  1  0  0  0  0
 26 29  1  0  0  0  0
M  END
$$$$

  -OEChem-02102214123D

 29 28  0     1  0  0  0  0  0999 V2000
   -3.0161   -4.1381    0.2820 H   0  0  0  0  0  0  0  0  0  0  0  0
   -2.9183   -3.1304   -0.1321 C   0  0  0  0  0  0  0  0  0  0  0  0
   -3.6660   -2.4852    0.3351 H   0  0  0  0  0  0  0  0  0  0  0  0
   -3.1032   -3.1742   -1.2081 H   0  0  0  0  0  0  0  0  0  0  0  0
   -1.5256   -2.5909    0.1345 C   0  0  0  0  0  0  0  0  0  0  0  0
   -0.7106   -3.2838    0.7151 O   0  0  0  0  0  0  0  0  0  0  0  0
   -1.1930   -1.3172   -0.2867 N   0  0  0  0  0  0  0  0  0  0  0  0
   -1.8949   -0.8132   -0.8182 H   0  0  0  0  0  0  0  0  0  0  0  0
    0.1455   -0.7178   -0.1373 C   0  0  1  0  0  0  0  0  0  0  0  0
    0.8236   -1.4688   -0.5605 H   0  0  0  0  0  0  0  0  0  0  0  0
    0.2876    0.4785   -1.1102 C   0  0  0  0  0  0  0  0  0  0  0  0
    1.3599    0.7037   -1.1557 H   0  0  0  0  0  0  0  0  0  0  0  0
   -0.0071    0.1492   -2.1119 H   0  0  0  0  0  0  0  0  0  0  0  0
   -0.4275    1.8182   -0.8082 C   0  0  0  0  0  0  0  0  0  0  0  0
   -0.0286    2.5824   -1.4820 H   0  0  0  0  0  0  0  0  0  0  0  0
   -1.4849    1.6953   -1.0544 H   0  0  0  0  0  0  0  0  0  0  0  0
   -0.3468    2.3673    0.6082 C   0  0  0  0  0  0  0  0  0  0  0  0
    0.6903    2.7857    1.0778 O   0  0  0  0  0  0  0  0  0  0  0  0
   -1.4588    2.5080    1.3914 N   0  0  0  0  0  0  0  0  0  0  0  0
   -1.3215    3.0953    2.2105 H   0  0  0  0  0  0  0  0  0  0  0  0
   -2.3658    2.4921    0.9384 H   0  0  0  0  0  0  0  0  0  0  0  0
    0.6931   -0.5743    1.3049 C   0  0  0  0  0  0  0  0  0  0  0  0
    1.8887   -0.7473    1.5009 O   0  0  0  0  0  0  0  0  0  0  0  0
   -0.0924   -0.0972    2.3383 N   0  0  0  0  0  0  0  0  0  0  0  0
   -1.0435    0.1698    2.1116 H   0  0  0  0  0  0  0  0  0  0  0  0
    0.4506    0.2718    3.6391 C   0  0  0  0  0  0  0  0  0  0  0  0
    1.1808    1.0809    3.5311 H   0  0  0  0  0  0  0  0  0  0  0  0
   -0.3509    0.6136    4.3004 H   0  0  0  0  0  0  0  0  0  0  0  0
    0.9415   -0.5879    4.1071 H   0  0  0  0  0  0  0  0  0  0  0  0
  1  2  1  0  0  0  0
  2  3  1  0  0  0  0
  2  4  1  0  0  0  0
  2  5  1  0  0  0  0
  5  6  2  0  0  0  0
  5  7  1  0  0  0  0
  7  8  1  0  0  0  0
  7  9  1  0  0  0  0
  9 10  1  0  0  0  0
  9 11  1  0  0  0  0
  9 22  1  0  0  0  0
 11 12  1  0  0  0  0
 11 13  1  0  0  0  0
 11 14  1  0  0  0  0
 14 15  1  0  0  0  0
 14 16  1  0  0  0  0
 14 17  1  0  0  0  0
 17 18  2  0  0  0  0
 17 19  1  0  0  0  0
 19 20  1  0  0  0  0
 19 21  1  0  0  0  0
 22 23  2  0  0  0  0
 22 24  1  0  0  0  0
 24 25  1  0  0  0  0
 24 26  1  0  0  0  0
 26 27  1  0  0  0  0
 26 28  1  0  0  0  0
 26 29  1  0  0  0  0
M  END
$$$$

  -OEChem-02102214123D

 29 28  0     1  0  0  0  0  0999 V2000
   -2.9137   -4.1924    0.3498 H   0  0  0  0  0  0  0  0  0  0  0  0
   -2.8350   -3.2005   -0.1045 C   0  0  0  0  0  0  0  0  0  0  0  0
   -3.6217   -2.5630    0.3055 H   0  0  0  0  0  0  0  0  0  0  0  0
   -2.9764   -3.2973   -1.1835 H   0  0  0  0  0  0  0  0  0  0  0  0
   -1.4732   -2.5996    0.1891 C   0  0  0  0  0  0  0  0  0  0  0  0
   -0.6683   -3.2248    0.8541 O   0  0  0  0  0  0  0  0  0  0  0  0
   -1.1606   -1.3446   -0.2977 N   0  0  0  0  0  0  0  0  0  0  0  0
   -1.8436   -0.9140   -0.9126 H   0  0  0  0  0  0  0  0  0  0  0  0
    0.1675   -0.7143   -0.1753 C   0  0  1  0  0  0  0  0  0  0  0  0
    0.8719   -1.4514   -0.5787 H   0  0  0  0  0  0  0  0  0  0  0  0
    0.2475    0.4769   -1.1606 C   0  0  0  0  0  0  0  0  0  0  0  0
    1.3086    0.7364   -1.2571 H   0  0  0  0  0  0  0  0  0  0  0  0
   -0.0840    0.1326   -2.1455 H   0  0  0  0  0  0  0  0  0  0  0  0
   -0.5098    1.7826   -0.8196 C   0  0  0  0  0  0  0  0  0  0  0  0
   -0.3593    2.4930   -1.6374 H   0  0  0  0  0  0  0  0  0  0  0  0
   -1.5784    1.5587   -0.7749 H   0  0  0  0  0  0  0  0  0  0  0  0
   -0.1155    2.4889    0.4720 C   0  0  0  0  0  0  0  0  0  0  0  0
    1.0361    2.7840    0.7154 O   0  0  0  0  0  0  0  0  0  0  0  0
   -1.0490    2.9406    1.3622 N   0  0  0  0  0  0  0  0  0  0  0  0
   -0.6939    3.5829    2.0657 H   0  0  0  0  0  0  0  0  0  0  0  0
   -2.0160    3.0021    1.0651 H   0  0  0  0  0  0  0  0  0  0  0  0
    0.6846   -0.4956    1.2667 C   0  0  0  0  0  0  0  0  0  0  0  0
    1.8770   -0.6357    1.5013 O   0  0  0  0  0  0  0  0  0  0  0  0
   -0.1406    0.0158    2.2517 N   0  0  0  0  0  0  0  0  0  0  0  0
   -1.1304    0.0755    2.0440 H   0  0  0  0  0  0  0  0  0  0  0  0
    0.3263    0.3301    3.5952 C   0  0  0  0  0  0  0  0  0  0  0  0
    1.1265    1.0770    3.5556 H   0  0  0  0  0  0  0  0  0  0  0  0
   -0.4931    0.7339    4.1968 H   0  0  0  0  0  0  0  0  0  0  0  0
    0.7079   -0.5707    4.0872 H   0  0  0  0  0  0  0  0  0  0  0  0
  1  2  1  0  0  0  0
  2  3  1  0  0  0  0
  2  4  1  0  0  0  0
  2  5  1  0  0  0  0
  5  6  2  0  0  0  0
  5  7  1  0  0  0  0
  7  8  1  0  0  0  0
  7  9  1  0  0  0  0
  9 10  1  0  0  0  0
  9 11  1  0  0  0  0
  9 22  1  0  0  0  0
 11 12  1  0  0  0  0
 11 13  1  0  0  0  0
 11 14  1  0  0  0  0
 14 15  1  0  0  0  0
 14 16  1  0  0  0  0
 14 17  1  0  0  0  0
 17 18  2  0  0  0  0
 17 19  1  0  0  0  0
 19 20  1  0  0  0  0
 19 21  1  0  0  0  0
 22 23  2  0  0  0  0
 22 24  1  0  0  0  0
 24 25  1  0  0  0  0
 24 26  1  0  0  0  0
 26 27  1  0  0  0  0
 26 28  1  0  0  0  0
 26 29  1  0  0  0  0
M  END
$$$$

  -OEChem-02102214123D

 29 28  0     1  0  0  0  0  0999 V2000
   -2.8387   -4.2357    0.3801 H   0  0  0  0  0  0  0  0  0  0  0  0
   -2.7782   -3.2537   -0.0981 C   0  0  0  0  0  0  0  0  0  0  0  0
   -3.6029   -2.6351    0.2635 H   0  0  0  0  0  0  0  0  0  0  0  0
   -2.8739   -3.3842   -1.1787 H   0  0  0  0  0  0  0  0  0  0  0  0
   -1.4513   -2.5955    0.2304 C   0  0  0  0  0  0  0  0  0  0  0  0
   -0.6708   -3.1510    0.9809 O   0  0  0  0  0  0  0  0  0  0  0  0
   -1.1461   -1.3637   -0.3166 N   0  0  0  0  0  0  0  0  0  0  0  0
   -1.8014   -1.0030   -1.0028 H   0  0  0  0  0  0  0  0  0  0  0  0
    0.1750   -0.7138   -0.2116 C   0  0  1  0  0  0  0  0  0  0  0  0
    0.9015   -1.4395   -0.5961 H   0  0  0  0  0  0  0  0  0  0  0  0
    0.2157    0.4781   -1.1961 C   0  0  0  0  0  0  0  0  0  0  0  0
    1.2660    0.7592   -1.3407 H   0  0  0  0  0  0  0  0  0  0  0  0
   -0.1523    0.1330   -2.1675 H   0  0  0  0  0  0  0  0  0  0  0  0
   -0.5726    1.7473   -0.7958 C   0  0  0  0  0  0  0  0  0  0  0  0
   -0.6809    2.3826   -1.6791 H   0  0  0  0  0  0  0  0  0  0  0  0
   -1.5760    1.4598   -0.4731 H   0  0  0  0  0  0  0  0  0  0  0  0
    0.0757    2.5996    0.2929 C   0  0  0  0  0  0  0  0  0  0  0  0
    1.2559    2.8834    0.2684 O   0  0  0  0  0  0  0  0  0  0  0  0
   -0.6604    3.2085    1.2695 N   0  0  0  0  0  0  0  0  0  0  0  0
   -0.1699    3.9122    1.8145 H   0  0  0  0  0  0  0  0  0  0  0  0
   -1.6702    3.2328    1.1900 H   0  0  0  0  0  0  0  0  0  0  0  0
    0.6585   -0.4237    1.2286 C   0  0  0  0  0  0  0  0  0  0  0  0
    1.8488   -0.5146    1.4942 O   0  0  0  0  0  0  0  0  0  0  0  0
   -0.2035    0.1239    2.1616 N   0  0  0  0  0  0  0  0  0  0  0  0
   -1.1933    0.0423    1.9601 H   0  0  0  0  0  0  0  0  0  0  0  0
    0.2134    0.4482    3.5197 C   0  0  0  0  0  0  0  0  0  0  0  0
    1.0309    1.1771    3.5039 H   0  0  0  0  0  0  0  0  0  0  0  0
   -0.6211    0.8802    4.0797 H   0  0  0  0  0  0  0  0  0  0  0  0
    0.5540   -0.4530    4.0404 H   0  0  0  0  0  0  0  0  0  0  0  0
  1  2  1  0  0  0  0
  2  3  1  0  0  0  0
  2  4  1  0  0  0  0
  2  5  1  0  0  0  0
  5  6  2  0  0  0  0
  5  7  1  0  0  0  0
  7  8  1  0  0  0  0
  7  9  1  0  0  0  0
  9 10  1  0  0  0  0
  9 11  1  0  0  0  0
  9 22  1  0  0  0  0
 11 12  1  0  0  0  0
 11 13  1  0  0  0  0
 11 14  1  0  0  0  0
 14 15  1  0  0  0  0
 14 16  1  0  0  0  0
 14 17  1  0  0  0  0
 17 18  2  0  0  0  0
 17 19  1  0  0  0  0
 19 20  1  0  0  0  0
 19 21  1  0  0  0  0
 22 23  2  0  0  0  0
 22 24  1  0  0  0  0
 24 25  1  0  0  0  0
 24 26  1  0  0  0  0
 26 27  1  0  0  0  0
 26 28  1  0  0  0  0
 26 29  1  0  0  0  0
M  END
$$$$

  -OEChem-02102214123D

 29 28  0     1  0  0  0  0  0999 V2000
   -2.7423   -4.2121    0.5648 H   0  0  0  0  0  0  0  0  0  0  0  0
   -2.6731   -3.3051   -0.0427 C   0  0  0  0  0  0  0  0  0  0  0  0
   -3.5491   -2.6828    0.1547 H   0  0  0  0  0  0  0  0  0  0  0  0
   -2.6659   -3.5897   -1.0976 H   0  0  0  0  0  0  0  0  0  0  0  0
   -1.4048   -2.5450    0.2980 C   0  0  0  0  0  0  0  0  0  0  0  0
   -0.6260   -2.9997    1.1159 O   0  0  0  0  0  0  0  0  0  0  0  0
   -1.1496   -1.3287   -0.3071 N   0  0  0  0  0  0  0  0  0  0  0  0
   -1.7962   -1.0500   -1.0398 H   0  0  0  0  0  0  0  0  0  0  0  0
    0.1324   -0.6030   -0.2069 C   0  0  1  0  0  0  0  0  0  0  0  0
    0.9091   -1.3083   -0.5247 H   0  0  0  0  0  0  0  0  0  0  0  0
    0.1584    0.5400   -1.2473 C   0  0  0  0  0  0  0  0  0  0  0  0
    1.2011    0.8507   -1.3858 H   0  0  0  0  0  0  0  0  0  0  0  0
   -0.1714    0.1267   -2.2060 H   0  0  0  0  0  0  0  0  0  0  0  0
   -0.6840    1.7992   -0.9524 C   0  0  0  0  0  0  0  0  0  0  0  0
   -0.9998    2.2401   -1.9028 H   0  0  0  0  0  0  0  0  0  0  0  0
   -1.5890    1.5303   -0.4022 H   0  0  0  0  0  0  0  0  0  0  0  0
    0.0788    2.8782   -0.1817 C   0  0  0  0  0  0  0  0  0  0  0  0
    0.7095    3.7254   -0.7831 O   0  0  0  0  0  0  0  0  0  0  0  0
    0.0607    3.0244    1.1727 N   0  0  0  0  0  0  0  0  0  0  0  0
    0.7620    3.6700    1.5242 H   0  0  0  0  0  0  0  0  0  0  0  0
   -0.1471    2.1927    1.7190 H   0  0  0  0  0  0  0  0  0  0  0  0
    0.5205   -0.2331    1.2423 C   0  0  0  0  0  0  0  0  0  0  0  0
    1.7004   -0.1061    1.5343 O   0  0  0  0  0  0  0  0  0  0  0  0
   -0.4302    0.2957    2.1002 N   0  0  0  0  0  0  0  0  0  0  0  0
   -1.3861    0.0329    1.8761 H   0  0  0  0  0  0  0  0  0  0  0  0
   -0.1212    0.5789    3.4990 C   0  0  0  0  0  0  0  0  0  0  0  0
    0.6964    1.3034    3.5780 H   0  0  0  0  0  0  0  0  0  0  0  0
   -0.9982    0.9958    4.0033 H   0  0  0  0  0  0  0  0  0  0  0  0
    0.1747   -0.3392    4.0175 H   0  0  0  0  0  0  0  0  0  0  0  0
  1  2  1  0  0  0  0
  2  3  1  0  0  0  0
  2  4  1  0  0  0  0
  2  5  1  0  0  0  0
  5  6  2  0  0  0  0
  5  7  1  0  0  0  0
  7  8  1  0  0  0  0
  7  9  1  0  0  0  0
  9 10  1  0  0  0  0
  9 11  1  0  0  0  0
  9 22  1  0  0  0  0
 11 12  1  0  0  0  0
 11 13  1  0  0  0  0
 11 14  1  0  0  0  0
 14 15  1  0  0  0  0
 14 16  1  0  0  0  0
 14 17  1  0  0  0  0
 17 18  2  0  0  0  0
 17 19  1  0  0  0  0
 19 20  1  0  0  0  0
 19 21  1  0  0  0  0
 22 23  2  0  0  0  0
 22 24  1  0  0  0  0
 24 25  1  0  0  0  0
 24 26  1  0  0  0  0
 26 27  1  0  0  0  0
 26 28  1  0  0  0  0
 26 29  1  0  0  0  0
M  END
$$$$

  -OEChem-02102214123D

 29 28  0     1  0  0  0  0  0999 V2000
   -2.6419   -4.3228    0.5165 H   0  0  0  0  0  0  0  0  0  0  0  0
   -2.5975   -3.4167   -0.0947 C   0  0  0  0  0  0  0  0  0  0  0  0
   -3.4914   -2.8192    0.0992 H   0  0  0  0  0  0  0  0  0  0  0  0
   -2.5806   -3.7048   -1.1485 H   0  0  0  0  0  0  0  0  0  0  0  0
   -1.3530   -2.6184    0.2452 C   0  0  0  0  0  0  0  0  0  0  0  0
   -0.5566   -3.0485    1.0600 O   0  0  0  0  0  0  0  0  0  0  0  0
   -1.1370   -1.3921   -0.3536 N   0  0  0  0  0  0  0  0  0  0  0  0
   -1.7994   -1.1122   -1.0717 H   0  0  0  0  0  0  0  0  0  0  0  0
    0.0952   -0.5983   -0.1908 C   0  0  1  0  0  0  0  0  0  0  0  0
    0.9205   -1.2575   -0.4846 H   0  0  0  0  0  0  0  0  0  0  0  0
    0.1138    0.5800   -1.1874 C   0  0  0  0  0  0  0  0  0  0  0  0
    1.1422    0.9501   -1.2751 H   0  0  0  0  0  0  0  0  0  0  0  0
   -0.1633    0.1982   -2.1756 H   0  0  0  0  0  0  0  0  0  0  0  0
   -0.8234    1.7542   -0.8302 C   0  0  0  0  0  0  0  0  0  0  0  0
   -1.3448    2.0680   -1.7398 H   0  0  0  0  0  0  0  0  0  0  0  0
   -1.5880    1.4439   -0.1151 H   0  0  0  0  0  0  0  0  0  0  0  0
   -0.0827    2.9750   -0.2808 C   0  0  0  0  0  0  0  0  0  0  0  0
   -0.3092    4.0847   -0.7230 O   0  0  0  0  0  0  0  0  0  0  0  0
    0.8346    2.9171    0.7300 N   0  0  0  0  0  0  0  0  0  0  0  0
    1.3622    3.7635    0.9177 H   0  0  0  0  0  0  0  0  0  0  0  0
    1.1802    2.0125    1.0566 H   0  0  0  0  0  0  0  0  0  0  0  0
    0.4195   -0.1855    1.2628 C   0  0  0  0  0  0  0  0  0  0  0  0
    1.5757    0.1088    1.5381 O   0  0  0  0  0  0  0  0  0  0  0  0
   -0.5781    0.3080    2.0842 N   0  0  0  0  0  0  0  0  0  0  0  0
   -1.5219    0.0087    1.8595 H   0  0  0  0  0  0  0  0  0  0  0  0
   -0.3226    0.8377    3.4190 C   0  0  0  0  0  0  0  0  0  0  0  0
    0.3634    1.6900    3.3732 H   0  0  0  0  0  0  0  0  0  0  0  0
   -1.2576    1.1768    3.8754 H   0  0  0  0  0  0  0  0  0  0  0  0
    0.1173    0.0656    4.0590 H   0  0  0  0  0  0  0  0  0  0  0  0
  1  2  1  0  0  0  0
  2  3  1  0  0  0  0
  2  4  1  0  0  0  0
  2  5  1  0  0  0  0
  5  6  2  0  0  0  0
  5  7  1  0  0  0  0
  7  8  1  0  0  0  0
  7  9  1  0  0  0  0
  9 10  1  0  0  0  0
  9 11  1  0  0  0  0
  9 22  1  0  0  0  0
 11 12  1  0  0  0  0
 11 13  1  0  0  0  0
 11 14  1  0  0  0  0
 14 15  1  0  0  0  0
 14 16  1  0  0  0  0
 14 17  1  0  0  0  0
 17 18  2  0  0  0  0
 17 19  1  0  0  0  0
 19 20  1  0  0  0  0
 19 21  1  0  0  0  0
 22 23  2  0  0  0  0
 22 24  1  0  0  0  0
 24 25  1  0  0  0  0
 24 26  1  0  0  0  0
 26 27  1  0  0  0  0
 26 28  1  0  0  0  0
 26 29  1  0  0  0  0
M  END
$$$$

  -OEChem-02102214123D

 29 28  0     1  0  0  0  0  0999 V2000
   -2.5122   -4.4269    0.4519 H   0  0  0  0  0  0  0  0  0  0  0  0
   -2.5211   -3.5052   -0.1370 C   0  0  0  0  0  0  0  0  0  0  0  0
   -3.4427   -2.9594    0.0786 H   0  0  0  0  0  0  0  0  0  0  0  0
   -2.4992   -3.7665   -1.1978 H   0  0  0  0  0  0  0  0  0  0  0  0
   -1.3158   -2.6526    0.2123 C   0  0  0  0  0  0  0  0  0  0  0  0
   -0.4955   -3.0555    1.0174 O   0  0  0  0  0  0  0  0  0  0  0  0
   -1.1613   -1.4080   -0.3664 N   0  0  0  0  0  0  0  0  0  0  0  0
   -1.8404   -1.1474   -1.0761 H   0  0  0  0  0  0  0  0  0  0  0  0
    0.0430   -0.5726   -0.2140 C   0  0  1  0  0  0  0  0  0  0  0  0
    0.8772   -1.2074   -0.5350 H   0  0  0  0  0  0  0  0  0  0  0  0
    0.0323    0.6195   -1.1878 C   0  0  0  0  0  0  0  0  0  0  0  0
    1.0543    1.0104   -1.2608 H   0  0  0  0  0  0  0  0  0  0  0  0
   -0.2317    0.2591   -2.1875 H   0  0  0  0  0  0  0  0  0  0  0  0
   -0.9370    1.7542   -0.7921 C   0  0  0  0  0  0  0  0  0  0  0  0
   -1.6550    1.9045   -1.6039 H   0  0  0  0  0  0  0  0  0  0  0  0
   -1.5180    1.5144    0.0987 H   0  0  0  0  0  0  0  0  0  0  0  0
   -0.1865    3.0618   -0.5723 C   0  0  0  0  0  0  0  0  0  0  0  0
   -0.3624    4.0286   -1.2880 O   0  0  0  0  0  0  0  0  0  0  0  0
    0.7120    3.1975    0.4489 N   0  0  0  0  0  0  0  0  0  0  0  0
    1.2974    4.0266    0.4216 H   0  0  0  0  0  0  0  0  0  0  0  0
    1.0461    2.3563    0.9214 H   0  0  0  0  0  0  0  0  0  0  0  0
    0.4152   -0.1575    1.2311 C   0  0  0  0  0  0  0  0  0  0  0  0
    1.5648    0.2077    1.4434 O   0  0  0  0  0  0  0  0  0  0  0  0
   -0.5561    0.2961    2.1059 N   0  0  0  0  0  0  0  0  0  0  0  0
   -1.4948   -0.0543    1.9407 H   0  0  0  0  0  0  0  0  0  0  0  0
   -0.2490    0.8559    3.4174 C   0  0  0  0  0  0  0  0  0  0  0  0
    0.3596    1.7608    3.3175 H   0  0  0  0  0  0  0  0  0  0  0  0
   -1.1728    1.1205    3.9406 H   0  0  0  0  0  0  0  0  0  0  0  0
    0.2986    0.1285    4.0258 H   0  0  0  0  0  0  0  0  0  0  0  0
  1  2  1  0  0  0  0
  2  3  1  0  0  0  0
  2  4  1  0  0  0  0
  2  5  1  0  0  0  0
  5  6  2  0  0  0  0
  5  7  1  0  0  0  0
  7  8  1  0  0  0  0
  7  9  1  0  0  0  0
  9 10  1  0  0  0  0
  9 11  1  0  0  0  0
  9 22  1  0  0  0  0
 11 12  1  0  0  0  0
 11 13  1  0  0  0  0
 11 14  1  0  0  0  0
 14 15  1  0  0  0  0
 14 16  1  0  0  0  0
 14 17  1  0  0  0  0
 17 18  2  0  0  0  0
 17 19  1  0  0  0  0
 19 20  1  0  0  0  0
 19 21  1  0  0  0  0
 22 23  2  0  0  0  0
 22 24  1  0  0  0  0
 24 25  1  0  0  0  0
 24 26  1  0  0  0  0
 26 27  1  0  0  0  0
 26 28  1  0  0  0  0
 26 29  1  0  0  0  0
M  END
$$$$

  -OEChem-02102214123D

 29 28  0     1  0  0  0  0  0999 V2000
   -2.4044   -4.4921    0.4060 H   0  0  0  0  0  0  0  0  0  0  0  0
   -2.4560   -3.5519   -0.1507 C   0  0  0  0  0  0  0  0  0  0  0  0
   -3.3855   -3.0400    0.1095 H   0  0  0  0  0  0  0  0  0  0  0  0
   -2.4581   -3.7771   -1.2199 H   0  0  0  0  0  0  0  0  0  0  0  0
   -1.2650   -2.6767    0.1924 C   0  0  0  0  0  0  0  0  0  0  0  0
   -0.4128   -3.0817    0.9628 O   0  0  0  0  0  0  0  0  0  0  0  0
   -1.1598   -1.4122   -0.3537 N   0  0  0  0  0  0  0  0  0  0  0  0
   -1.8646   -1.1511   -1.0376 H   0  0  0  0  0  0  0  0  0  0  0  0
    0.0243   -0.5472   -0.2091 C   0  0  1  0  0  0  0  0  0  0  0  0
    0.8669   -1.1535   -0.5616 H   0  0  0  0  0  0  0  0  0  0  0  0
   -0.0441    0.6526   -1.1725 C   0  0  0  0  0  0  0  0  0  0  0  0
    0.9670    1.0729   -1.2284 H   0  0  0  0  0  0  0  0  0  0  0  0
   -0.2899    0.3023   -2.1805 H   0  0  0  0  0  0  0  0  0  0  0  0
   -1.0360    1.7649   -0.7672 C   0  0  0  0  0  0  0  0  0  0  0  0
   -1.9264    1.7047   -1.3998 H   0  0  0  0  0  0  0  0  0  0  0  0
   -1.3724    1.6643    0.2635 H   0  0  0  0  0  0  0  0  0  0  0  0
   -0.4043    3.1409   -0.9217 C   0  0  0  0  0  0  0  0  0  0  0  0
   -0.7067    3.8849   -1.8340 O   0  0  0  0  0  0  0  0  0  0  0  0
    0.5494    3.5816   -0.0487 N   0  0  0  0  0  0  0  0  0  0  0  0
    1.0568    4.4169   -0.3254 H   0  0  0  0  0  0  0  0  0  0  0  0
    0.9814    2.9090    0.5814 H   0  0  0  0  0  0  0  0  0  0  0  0
    0.4235   -0.1622    1.2366 C   0  0  0  0  0  0  0  0  0  0  0  0
    1.5825    0.1723    1.4464 O   0  0  0  0  0  0  0  0  0  0  0  0
   -0.5339    0.2391    2.1515 N   0  0  0  0  0  0  0  0  0  0  0  0
   -1.4722   -0.1128    1.9875 H   0  0  0  0  0  0  0  0  0  0  0  0
   -0.1992    0.7186    3.4874 C   0  0  0  0  0  0  0  0  0  0  0  0
    0.3985    1.6343    3.4285 H   0  0  0  0  0  0  0  0  0  0  0  0
   -1.1112    0.9397    4.0500 H   0  0  0  0  0  0  0  0  0  0  0  0
    0.3708   -0.0401    4.0344 H   0  0  0  0  0  0  0  0  0  0  0  0
  1  2  1  0  0  0  0
  2  3  1  0  0  0  0
  2  4  1  0  0  0  0
  2  5  1  0  0  0  0
  5  6  2  0  0  0  0
  5  7  1  0  0  0  0
  7  8  1  0  0  0  0
  7  9  1  0  0  0  0
  9 10  1  0  0  0  0
  9 11  1  0  0  0  0
  9 22  1  0  0  0  0
 11 12  1  0  0  0  0
 11 13  1  0  0  0  0
 11 14  1  0  0  0  0
 14 15  1  0  0  0  0
 14 16  1  0  0  0  0
 14 17  1  0  0  0  0
 17 18  2  0  0  0  0
 17 19  1  0  0  0  0
 19 20  1  0  0  0  0
 19 21  1  0  0  0  0
 22 23  2  0  0  0  0
 22 24  1  0  0  0  0
 24 25  1  0  0  0  0
 24 26  1  0  0  0  0
 26 27  1  0  0  0  0
 26 28  1  0  0  0  0
 26 29  1  0  0  0  0
M  END
$$$$

  -OEChem-02102214123D

 29 28  0     1  0  0  0  0  0999 V2000
   -2.3541   -4.5155    0.3828 H   0  0  0  0  0  0  0  0  0  0  0  0
   -2.4237   -3.5664   -0.1565 C   0  0  0  0  0  0  0  0  0  0  0  0
   -3.3494   -3.0643    0.1347 H   0  0  0  0  0  0  0  0  0  0  0  0
   -2.4506   -3.7728   -1.2292 H   0  0  0  0  0  0  0  0  0  0  0  0
   -1.2295   -2.6903    0.1724 C   0  0  0  0  0  0  0  0  0  0  0  0
   -0.3519   -3.1070    0.9068 O   0  0  0  0  0  0  0  0  0  0  0  0
   -1.1529   -1.4121   -0.3455 N   0  0  0  0  0  0  0  0  0  0  0  0
   -1.8792   -1.1444   -1.0038 H   0  0  0  0  0  0  0  0  0  0  0  0
    0.0248   -0.5357   -0.2159 C   0  0  1  0  0  0  0  0  0  0  0  0
    0.8668   -1.1173   -0.6093 H   0  0  0  0  0  0  0  0  0  0  0  0
   -0.1103    0.6791   -1.1551 C   0  0  0  0  0  0  0  0  0  0  0  0
    0.8868    1.1299   -1.2261 H   0  0  0  0  0  0  0  0  0  0  0  0
   -0.3769    0.3452   -2.1635 H   0  0  0  0  0  0  0  0  0  0  0  0
   -1.1085    1.7630   -0.6976 C   0  0  0  0  0  0  0  0  0  0  0  0
   -2.1083    1.5309   -1.0755 H   0  0  0  0  0  0  0  0  0  0  0  0
   -1.1750    1.8211    0.3882 H   0  0  0  0  0  0  0  0  0  0  0  0
   -0.6784    3.1362   -1.1926 C   0  0  0  0  0  0  0  0  0  0  0  0
   -1.1234    3.6063   -2.2213 O   0  0  0  0  0  0  0  0  0  0  0  0
    0.2603    3.8753   -0.5312 N   0  0  0  0  0  0  0  0  0  0  0  0
    0.6266    4.6817   -1.0288 H   0  0  0  0  0  0  0  0  0  0  0  0
    0.8141    3.4280    0.1939 H   0  0  0  0  0  0  0  0  0  0  0  0
    0.4544   -0.1853    1.2293 C   0  0  0  0  0  0  0  0  0  0  0  0
    1.6246    0.1080    1.4367 O   0  0  0  0  0  0  0  0  0  0  0  0
   -0.4864    0.1791    2.1764 N   0  0  0  0  0  0  0  0  0  0  0  0
   -1.4300   -0.1560    2.0087 H   0  0  0  0  0  0  0  0  0  0  0  0
   -0.1259    0.5840    3.5299 C   0  0  0  0  0  0  0  0  0  0  0  0
    0.4886    1.4901    3.5097 H   0  0  0  0  0  0  0  0  0  0  0  0
   -1.0268    0.7931    4.1144 H   0  0  0  0  0  0  0  0  0  0  0  0
    0.4359   -0.2121    4.0301 H   0  0  0  0  0  0  0  0  0  0  0  0
  1  2  1  0  0  0  0
  2  3  1  0  0  0  0
  2  4  1  0  0  0  0
  2  5  1  0  0  0  0
  5  6  2  0  0  0  0
  5  7  1  0  0  0  0
  7  8  1  0  0  0  0
  7  9  1  0  0  0  0
  9 10  1  0  0  0  0
  9 11  1  0  0  0  0
  9 22  1  0  0  0  0
 11 12  1  0  0  0  0
 11 13  1  0  0  0  0
 11 14  1  0  0  0  0
 14 15  1  0  0  0  0
 14 16  1  0  0  0  0
 14 17  1  0  0  0  0
 17 18  2  0  0  0  0
 17 19  1  0  0  0  0
 19 20  1  0  0  0  0
 19 21  1  0  0  0  0
 22 23  2  0  0  0  0
 22 24  1  0  0  0  0
 24 25  1  0  0  0  0
 24 26  1  0  0  0  0
 26 27  1  0  0  0  0
 26 28  1  0  0  0  0
 26 29  1  0  0  0  0
M  END
$$$$

  -OEChem-02102214123D

 29 28  0     1  0  0  0  0  0999 V2000
   -2.3552   -4.5218    0.3832 H   0  0  0  0  0  0  0  0  0  0  0  0
   -2.4225   -3.5736   -0.1580 C   0  0  0  0  0  0  0  0  0  0  0  0
   -3.3453   -3.0670    0.1347 H   0  0  0  0  0  0  0  0  0  0  0  0
   -2.4529   -3.7825   -1.2300 H   0  0  0  0  0  0  0  0  0  0  0  0
   -1.2237   -2.7019    0.1653 C   0  0  0  0  0  0  0  0  0  0  0  0
   -0.3369   -3.1283    0.8828 O   0  0  0  0  0  0  0  0  0  0  0  0
   -1.1521   -1.4194   -0.3427 N   0  0  0  0  0  0  0  0  0  0  0  0
   -1.8852   -1.1471   -0.9918 H   0  0  0  0  0  0  0  0  0  0  0  0
    0.0314   -0.5478   -0.2291 C   0  0  1  0  0  0  0  0  0  0  0  0
    0.8662   -1.1176   -0.6538 H   0  0  0  0  0  0  0  0  0  0  0  0
   -0.1433    0.6859   -1.1361 C   0  0  0  0  0  0  0  0  0  0  0  0
    0.8437    1.1520   -1.2388 H   0  0  0  0  0  0  0  0  0  0  0  0
   -0.4525    0.3686   -2.1380 H   0  0  0  0  0  0  0  0  0  0  0  0
   -1.1286    1.7469   -0.6100 C   0  0  0  0  0  0  0  0  0  0  0  0
   -2.1578    1.3934   -0.7167 H   0  0  0  0  0  0  0  0  0  0  0  0
   -0.9547    1.9592    0.4458 H   0  0  0  0  0  0  0  0  0  0  0  0
   -0.9554    3.0541   -1.3685 C   0  0  0  0  0  0  0  0  0  0  0  0
   -1.5154    3.2458   -2.4302 O   0  0  0  0  0  0  0  0  0  0  0  0
   -0.1124    4.0354   -0.9316 N   0  0  0  0  0  0  0  0  0  0  0  0
    0.0914    4.7783   -1.5940 H   0  0  0  0  0  0  0  0  0  0  0  0
    0.5405    3.8243   -0.1830 H   0  0  0  0  0  0  0  0  0  0  0  0
    0.4836   -0.2168    1.2131 C   0  0  0  0  0  0  0  0  0  0  0  0
    1.6605    0.0520    1.4145 O   0  0  0  0  0  0  0  0  0  0  0  0
   -0.4454    0.1390    2.1751 N   0  0  0  0  0  0  0  0  0  0  0  0
   -1.3938   -0.1825    2.0092 H   0  0  0  0  0  0  0  0  0  0  0  0
   -0.0687    0.5179    3.5316 C   0  0  0  0  0  0  0  0  0  0  0  0
    0.5624    1.4128    3.5197 H   0  0  0  0  0  0  0  0  0  0  0  0
   -0.9620    0.7350    4.1250 H   0  0  0  0  0  0  0  0  0  0  0  0
    0.4819   -0.2948    4.0172 H   0  0  0  0  0  0  0  0  0  0  0  0
  1  2  1  0  0  0  0
  2  3  1  0  0  0  0
  2  4  1  0  0  0  0
  2  5  1  0  0  0  0
  5  6  2  0  0  0  0
  5  7  1  0  0  0  0
  7  8  1  0  0  0  0
  7  9  1  0  0  0  0
  9 10  1  0  0  0  0
  9 11  1  0  0  0  0
  9 22  1  0  0  0  0
 11 12  1  0  0  0  0
 11 13  1  0  0  0  0
 11 14  1  0  0  0  0
 14 15  1  0  0  0  0
 14 16  1  0  0  0  0
 14 17  1  0  0  0  0
 17 18  2  0  0  0  0
 17 19  1  0  0  0  0
 19 20  1  0  0  0  0
 19 21  1  0  0  0  0
 22 23  2  0  0  0  0
 22 24  1  0  0  0  0
 24 25  1  0  0  0  0
 24 26  1  0  0  0  0
 26 27  1  0  0  0  0
 26 28  1  0  0  0  0
 26 29  1  0  0  0  0
M  END
$$$$

  -OEChem-02102214123D

 29 28  0     1  0  0  0  0  0999 V2000
   -2.4160   -4.4786    0.3439 H   0  0  0  0  0  0  0  0  0  0  0  0
   -2.4675   -3.5177   -0.1761 C   0  0  0  0  0  0  0  0  0  0  0  0
   -3.3643   -2.9881    0.1539 H   0  0  0  0  0  0  0  0  0  0  0  0
   -2.5361   -3.7034   -1.2507 H   0  0  0  0  0  0  0  0  0  0  0  0
   -1.2317   -2.6918    0.1285 C   0  0  0  0  0  0  0  0  0  0  0  0
   -0.3335   -3.1663    0.8004 O   0  0  0  0  0  0  0  0  0  0  0  0
   -1.1385   -1.3968   -0.3430 N   0  0  0  0  0  0  0  0  0  0  0  0
   -1.8911   -1.0757   -0.9461 H   0  0  0  0  0  0  0  0  0  0  0  0
    0.0645   -0.5530   -0.2207 C   0  0  1  0  0  0  0  0  0  0  0  0
    0.8799   -1.1258   -0.6775 H   0  0  0  0  0  0  0  0  0  0  0  0
   -0.1102    0.7119   -1.0871 C   0  0  0  0  0  0  0  0  0  0  0  0
    0.8858    1.0268   -1.4188 H   0  0  0  0  0  0  0  0  0  0  0  0
   -0.6850    0.4661   -1.9870 H   0  0  0  0  0  0  0  0  0  0  0  0
   -0.7636    1.9032   -0.3626 C   0  0  0  0  0  0  0  0  0  0  0  0
   -1.7581    1.6271   -0.0018 H   0  0  0  0  0  0  0  0  0  0  0  0
   -0.1630    2.2070    0.4990 H   0  0  0  0  0  0  0  0  0  0  0  0
   -0.8912    3.0942   -1.3004 C   0  0  0  0  0  0  0  0  0  0  0  0
   -1.6933    3.0926   -2.2146 O   0  0  0  0  0  0  0  0  0  0  0  0
   -0.0599    4.1740   -1.2175 N   0  0  0  0  0  0  0  0  0  0  0  0
   -0.0852    4.8226   -1.9990 H   0  0  0  0  0  0  0  0  0  0  0  0
    0.7584    4.1224   -0.6189 H   0  0  0  0  0  0  0  0  0  0  0  0
    0.5377   -0.2761    1.2254 C   0  0  0  0  0  0  0  0  0  0  0  0
    1.7229   -0.0485    1.4301 O   0  0  0  0  0  0  0  0  0  0  0  0
   -0.3812    0.0690    2.2010 N   0  0  0  0  0  0  0  0  0  0  0  0
   -1.3405   -0.2107    2.0226 H   0  0  0  0  0  0  0  0  0  0  0  0
    0.0045    0.4035    3.5659 C   0  0  0  0  0  0  0  0  0  0  0  0
    0.6470    1.2901    3.5771 H   0  0  0  0  0  0  0  0  0  0  0  0
   -0.8843    0.6150    4.1680 H   0  0  0  0  0  0  0  0  0  0  0  0
    0.5460   -0.4299    4.0257 H   0  0  0  0  0  0  0  0  0  0  0  0
  1  2  1  0  0  0  0
  2  3  1  0  0  0  0
  2  4  1  0  0  0  0
  2  5  1  0  0  0  0
  5  6  2  0  0  0  0
  5  7  1  0  0  0  0
  7  8  1  0  0  0  0
  7  9  1  0  0  0  0
  9 10  1  0  0  0  0
  9 11  1  0  0  0  0
  9 22  1  0  0  0  0
 11 12  1  0  0  0  0
 11 13  1  0  0  0  0
 11 14  1  0  0  0  0
 14 15  1  0  0  0  0
 14 16  1  0  0  0  0
 14 17  1  0  0  0  0
 17 18  2  0  0  0  0
 17 19  1  0  0  0  0
 19 20  1  0  0  0  0
 19 21  1  0  0  0  0
 22 23  2  0  0  0  0
 22 24  1  0  0  0  0
 24 25  1  0  0  0  0
 24 26  1  0  0  0  0
 26 27  1  0  0  0  0
 26 28  1  0  0  0  0
 26 29  1  0  0  0  0
M  END
$$$$

  -OEChem-02102214123D

 29 28  0     1  0  0  0  0  0999 V2000
   -2.4330   -4.4781    0.2953 H   0  0  0  0  0  0  0  0  0  0  0  0
   -2.4923   -3.4999   -0.1906 C   0  0  0  0  0  0  0  0  0  0  0  0
   -3.3764   -2.9761    0.1807 H   0  0  0  0  0  0  0  0  0  0  0  0
   -2.5905   -3.6485   -1.2687 H   0  0  0  0  0  0  0  0  0  0  0  0
   -1.2438   -2.6918    0.1095 C   0  0  0  0  0  0  0  0  0  0  0  0
   -0.3396   -3.1869    0.7584 O   0  0  0  0  0  0  0  0  0  0  0  0
   -1.1447   -1.3897   -0.3400 N   0  0  0  0  0  0  0  0  0  0  0  0
   -1.9065   -1.0458   -0.9191 H   0  0  0  0  0  0  0  0  0  0  0  0
    0.0643   -0.5557   -0.2124 C   0  0  1  0  0  0  0  0  0  0  0  0
    0.8709   -1.1273   -0.6862 H   0  0  0  0  0  0  0  0  0  0  0  0
   -0.1062    0.7235   -1.0565 C   0  0  0  0  0  0  0  0  0  0  0  0
    0.8828    1.0437   -1.4028 H   0  0  0  0  0  0  0  0  0  0  0  0
   -0.6965    0.4868   -1.9489 H   0  0  0  0  0  0  0  0  0  0  0  0
   -0.7480    1.8997   -0.2980 C   0  0  0  0  0  0  0  0  0  0  0  0
   -1.6210    1.5543    0.2625 H   0  0  0  0  0  0  0  0  0  0  0  0
   -0.0364    2.3265    0.4150 H   0  0  0  0  0  0  0  0  0  0  0  0
   -1.2152    2.9775   -1.2649 C   0  0  0  0  0  0  0  0  0  0  0  0
   -2.1722    2.7972   -1.9939 O   0  0  0  0  0  0  0  0  0  0  0  0
   -0.5397    4.1535   -1.4223 N   0  0  0  0  0  0  0  0  0  0  0  0
   -0.8082    4.7257   -2.2176 H   0  0  0  0  0  0  0  0  0  0  0  0
    0.3750    4.2616   -0.9959 H   0  0  0  0  0  0  0  0  0  0  0  0
    0.5583   -0.3007    1.2314 C   0  0  0  0  0  0  0  0  0  0  0  0
    1.7497   -0.0952    1.4232 O   0  0  0  0  0  0  0  0  0  0  0  0
   -0.3402    0.0374    2.2282 N   0  0  0  0  0  0  0  0  0  0  0  0
   -1.3055   -0.2288    2.0613 H   0  0  0  0  0  0  0  0  0  0  0  0
    0.0740    0.3345    3.5938 C   0  0  0  0  0  0  0  0  0  0  0  0
    0.7345    1.2076    3.6133 H   0  0  0  0  0  0  0  0  0  0  0  0
   -0.8000    0.5502    4.2156 H   0  0  0  0  0  0  0  0  0  0  0  0
    0.6062   -0.5194    4.0262 H   0  0  0  0  0  0  0  0  0  0  0  0
  1  2  1  0  0  0  0
  2  3  1  0  0  0  0
  2  4  1  0  0  0  0
  2  5  1  0  0  0  0
  5  6  2  0  0  0  0
  5  7  1  0  0  0  0
  7  8  1  0  0  0  0
  7  9  1  0  0  0  0
  9 10  1  0  0  0  0
  9 11  1  0  0  0  0
  9 22  1  0  0  0  0
 11 12  1  0  0  0  0
 11 13  1  0  0  0  0
 11 14  1  0  0  0  0
 14 15  1  0  0  0  0
 14 16  1  0  0  0  0
 14 17  1  0  0  0  0
 17 18  2  0  0  0  0
 17 19  1  0  0  0  0
 19 20  1  0  0  0  0
 19 21  1  0  0  0  0
 22 23  2  0  0  0  0
 22 24  1  0  0  0  0
 24 25  1  0  0  0  0
 24 26  1  0  0  0  0
 26 27  1  0  0  0  0
 26 28  1  0  0  0  0
 26 29  1  0  0  0  0
M  END
$$$$

  -OEChem-02102214123D

 29 28  0     1  0  0  0  0  0999 V2000
   -2.4575   -4.4727    0.2494 H   0  0  0  0  0  0  0  0  0  0  0  0
   -2.5289   -3.4714   -0.1849 C   0  0  0  0  0  0  0  0  0  0  0  0
   -3.3909   -2.9602    0.2507 H   0  0  0  0  0  0  0  0  0  0  0  0
   -2.6765   -3.5659   -1.2634 H   0  0  0  0  0  0  0  0  0  0  0  0
   -1.2604   -2.6884    0.0972 C   0  0  0  0  0  0  0  0  0  0  0  0
   -0.3450   -3.2108    0.7081 O   0  0  0  0  0  0  0  0  0  0  0  0
   -1.1552   -1.3777   -0.3245 N   0  0  0  0  0  0  0  0  0  0  0  0
   -1.9352   -1.0015   -0.8584 H   0  0  0  0  0  0  0  0  0  0  0  0
    0.0627   -0.5576   -0.1975 C   0  0  1  0  0  0  0  0  0  0  0  0
    0.8543   -1.1354   -0.6888 H   0  0  0  0  0  0  0  0  0  0  0  0
   -0.0936    0.7297   -1.0318 C   0  0  0  0  0  0  0  0  0  0  0  0
    0.8962    1.0404   -1.3837 H   0  0  0  0  0  0  0  0  0  0  0  0
   -0.6876    0.4977   -1.9231 H   0  0  0  0  0  0  0  0  0  0  0  0
   -0.7195    1.9121   -0.2654 C   0  0  0  0  0  0  0  0  0  0  0  0
   -1.4346    1.5469    0.4754 H   0  0  0  0  0  0  0  0  0  0  0  0
    0.0561    2.4730    0.2646 H   0  0  0  0  0  0  0  0  0  0  0  0
   -1.4978    2.8261   -1.2011 C   0  0  0  0  0  0  0  0  0  0  0  0
   -2.5144    2.4450   -1.7510 O   0  0  0  0  0  0  0  0  0  0  0  0
   -1.0599    4.0783   -1.5247 N   0  0  0  0  0  0  0  0  0  0  0  0
   -1.5410    4.5446   -2.2885 H   0  0  0  0  0  0  0  0  0  0  0  0
   -0.1261    4.3659   -1.2511 H   0  0  0  0  0  0  0  0  0  0  0  0
    0.5872   -0.3343    1.2406 C   0  0  0  0  0  0  0  0  0  0  0  0
    1.7851   -0.1501    1.4126 O   0  0  0  0  0  0  0  0  0  0  0  0
   -0.2851   -0.0080    2.2640 N   0  0  0  0  0  0  0  0  0  0  0  0
   -1.2569   -0.2586    2.1119 H   0  0  0  0  0  0  0  0  0  0  0  0
    0.1615    0.2518    3.6268 C   0  0  0  0  0  0  0  0  0  0  0  0
    0.8422    1.1092    3.6513 H   0  0  0  0  0  0  0  0  0  0  0  0
   -0.6954    0.4750    4.2695 H   0  0  0  0  0  0  0  0  0  0  0  0
    0.6817   -0.6228    4.0314 H   0  0  0  0  0  0  0  0  0  0  0  0
  1  2  1  0  0  0  0
  2  3  1  0  0  0  0
  2  4  1  0  0  0  0
  2  5  1  0  0  0  0
  5  6  2  0  0  0  0
  5  7  1  0  0  0  0
  7  8  1  0  0  0  0
  7  9  1  0  0  0  0
  9 10  1  0  0  0  0
  9 11  1  0  0  0  0
  9 22  1  0  0  0  0
 11 12  1  0  0  0  0
 11 13  1  0  0  0  0
 11 14  1  0  0  0  0
 14 15  1  0  0  0  0
 14 16  1  0  0  0  0
 14 17  1  0  0  0  0
 17 18  2  0  0  0  0
 17 19  1  0  0  0  0
 19 20  1  0  0  0  0
 19 21  1  0  0  0  0
 22 23  2  0  0  0  0
 22 24  1  0  0  0  0
 24 25  1  0  0  0  0
 24 26  1  0  0  0  0
 26 27  1  0  0  0  0
 26 28  1  0  0  0  0
 26 29  1  0  0  0  0
M  END
$$$$

  -OEChem-02102214123D

 29 28  0     1  0  0  0  0  0999 V2000
   -2.5532   -4.4096    0.2763 H   0  0  0  0  0  0  0  0  0  0  0  0
   -2.5909   -3.4105   -0.1669 C   0  0  0  0  0  0  0  0  0  0  0  0
   -3.4195   -2.8578    0.2823 H   0  0  0  0  0  0  0  0  0  0  0  0
   -2.7663   -3.5080   -1.2411 H   0  0  0  0  0  0  0  0  0  0  0  0
   -1.2846   -2.6801    0.0794 C   0  0  0  0  0  0  0  0  0  0  0  0
   -0.3647   -3.2476    0.6414 O   0  0  0  0  0  0  0  0  0  0  0  0
   -1.1524   -1.3636   -0.3134 N   0  0  0  0  0  0  0  0  0  0  0  0
   -1.9491   -0.9380   -0.7836 H   0  0  0  0  0  0  0  0  0  0  0  0
    0.0819   -0.5706   -0.1820 C   0  0  1  0  0  0  0  0  0  0  0  0
    0.8563   -1.1612   -0.6856 H   0  0  0  0  0  0  0  0  0  0  0  0
   -0.0587    0.7161   -1.0195 C   0  0  0  0  0  0  0  0  0  0  0  0
    0.9398    1.0092   -1.3619 H   0  0  0  0  0  0  0  0  0  0  0  0
   -0.6403    0.4867   -1.9197 H   0  0  0  0  0  0  0  0  0  0  0  0
   -0.6677    1.9212   -0.2702 C   0  0  0  0  0  0  0  0  0  0  0  0
   -1.1785    1.6034    0.6395 H   0  0  0  0  0  0  0  0  0  0  0  0
    0.1216    2.6209    0.0183 H   0  0  0  0  0  0  0  0  0  0  0  0
   -1.7165    2.6190   -1.1244 C   0  0  0  0  0  0  0  0  0  0  0  0
   -2.7479    2.0510   -1.4344 O   0  0  0  0  0  0  0  0  0  0  0  0
   -1.5307    3.8740   -1.6292 N   0  0  0  0  0  0  0  0  0  0  0  0
   -2.3332    4.3060   -2.0782 H   0  0  0  0  0  0  0  0  0  0  0  0
   -0.7672    4.4440   -1.2799 H   0  0  0  0  0  0  0  0  0  0  0  0
    0.6332   -0.3831    1.2520 C   0  0  0  0  0  0  0  0  0  0  0  0
    1.8377   -0.2307    1.4081 O   0  0  0  0  0  0  0  0  0  0  0  0
   -0.2120   -0.0592    2.2987 N   0  0  0  0  0  0  0  0  0  0  0  0
   -1.1945   -0.2724    2.1577 H   0  0  0  0  0  0  0  0  0  0  0  0
    0.2644    0.1772    3.6560 C   0  0  0  0  0  0  0  0  0  0  0  0
    0.9490    1.0317    3.6795 H   0  0  0  0  0  0  0  0  0  0  0  0
   -0.5777    0.3930    4.3203 H   0  0  0  0  0  0  0  0  0  0  0  0
    0.7898   -0.7055    4.0360 H   0  0  0  0  0  0  0  0  0  0  0  0
  1  2  1  0  0  0  0
  2  3  1  0  0  0  0
  2  4  1  0  0  0  0
  2  5  1  0  0  0  0
  5  6  2  0  0  0  0
  5  7  1  0  0  0  0
  7  8  1  0  0  0  0
  7  9  1  0  0  0  0
  9 10  1  0  0  0  0
  9 11  1  0  0  0  0
  9 22  1  0  0  0  0
 11 12  1  0  0  0  0
 11 13  1  0  0  0  0
 11 14  1  0  0  0  0
 14 15  1  0  0  0  0
 14 16  1  0  0  0  0
 14 17  1  0  0  0  0
 17 18  2  0  0  0  0
 17 19  1  0  0  0  0
 19 20  1  0  0  0  0
 19 21  1  0  0  0  0
 22 23  2  0  0  0  0
 22 24  1  0  0  0  0
 24 25  1  0  0  0  0
 24 26  1  0  0  0  0
 26 27  1  0  0  0  0
 26 28  1  0  0  0  0
 26 29  1  0  0  0  0
M  END
$$$$

  -OEChem-02102214123D

 29 28  0     1  0  0  0  0  0999 V2000
   -2.6298   -4.3435    0.3049 H   0  0  0  0  0  0  0  0  0  0  0  0
   -2.6512   -3.3354   -0.1187 C   0  0  0  0  0  0  0  0  0  0  0  0
   -3.4376   -2.7620    0.3778 H   0  0  0  0  0  0  0  0  0  0  0  0
   -2.8791   -3.4061   -1.1850 H   0  0  0  0  0  0  0  0  0  0  0  0
   -1.3086   -2.6571    0.0791 C   0  0  0  0  0  0  0  0  0  0  0  0
   -0.3875   -3.2667    0.5937 O   0  0  0  0  0  0  0  0  0  0  0  0
   -1.1430   -1.3409   -0.3013 N   0  0  0  0  0  0  0  0  0  0  0  0
   -1.9520   -0.8661   -0.7016 H   0  0  0  0  0  0  0  0  0  0  0  0
    0.1115   -0.5805   -0.1751 C   0  0  1  0  0  0  0  0  0  0  0  0
    0.8675   -1.1878   -0.6863 H   0  0  0  0  0  0  0  0  0  0  0  0
   -0.0172    0.7015   -1.0218 C   0  0  0  0  0  0  0  0  0  0  0  0
    0.9942    0.9707   -1.3457 H   0  0  0  0  0  0  0  0  0  0  0  0
   -0.5798    0.4805   -1.9363 H   0  0  0  0  0  0  0  0  0  0  0  0
   -0.6003    1.9345   -0.2935 C   0  0  0  0  0  0  0  0  0  0  0  0
   -0.8410    1.7325    0.7485 H   0  0  0  0  0  0  0  0  0  0  0  0
    0.1364    2.7428   -0.3061 H   0  0  0  0  0  0  0  0  0  0  0  0
   -1.8777    2.4020   -0.9773 C   0  0  0  0  0  0  0  0  0  0  0  0
   -2.8122    1.6360   -1.1385 O   0  0  0  0  0  0  0  0  0  0  0  0
   -2.0278    3.6680   -1.4663 N   0  0  0  0  0  0  0  0  0  0  0  0
   -2.9601    3.9261   -1.7771 H   0  0  0  0  0  0  0  0  0  0  0  0
   -1.3557    4.3833   -1.2085 H   0  0  0  0  0  0  0  0  0  0  0  0
    0.6755   -0.4243    1.2570 C   0  0  0  0  0  0  0  0  0  0  0  0
    1.8844   -0.3078    1.4095 O   0  0  0  0  0  0  0  0  0  0  0  0
   -0.1562   -0.0920    2.3120 N   0  0  0  0  0  0  0  0  0  0  0  0
   -1.1461   -0.2688    2.1701 H   0  0  0  0  0  0  0  0  0  0  0  0
    0.3314    0.1079    3.6708 C   0  0  0  0  0  0  0  0  0  0  0  0
    1.0456    0.9372    3.7038 H   0  0  0  0  0  0  0  0  0  0  0  0
   -0.5010    0.3437    4.3406 H   0  0  0  0  0  0  0  0  0  0  0  0
    0.8262   -0.7981    4.0366 H   0  0  0  0  0  0  0  0  0  0  0  0
  1  2  1  0  0  0  0
  2  3  1  0  0  0  0
  2  4  1  0  0  0  0
  2  5  1  0  0  0  0
  5  6  2  0  0  0  0
  5  7  1  0  0  0  0
  7  8  1  0  0  0  0
  7  9  1  0  0  0  0
  9 10  1  0  0  0  0
  9 11  1  0  0  0  0
  9 22  1  0  0  0  0
 11 12  1  0  0  0  0
 11 13  1  0  0  0  0
 11 14  1  0  0  0  0
 14 15  1  0  0  0  0
 14 16  1  0  0  0  0
 14 17  1  0  0  0  0
 17 18  2  0  0  0  0
 17 19  1  0  0  0  0
 19 20  1  0  0  0  0
 19 21  1  0  0  0  0
 22 23  2  0  0  0  0
 22 24  1  0  0  0  0
 24 25  1  0  0  0  0
 24 26  1  0  0  0  0
 26 27  1  0  0  0  0
 26 28  1  0  0  0  0
 26 29  1  0  0  0  0
M  END
$$$$

  -OEChem-02102214123D

 29 28  0     1  0  0  0  0  0999 V2000
   -2.7052   -4.2533    0.3947 H   0  0  0  0  0  0  0  0  0  0  0  0
   -2.6981   -3.2509   -0.0425 C   0  0  0  0  0  0  0  0  0  0  0  0
   -3.4256   -2.6305    0.4866 H   0  0  0  0  0  0  0  0  0  0  0  0
   -2.9883   -3.3228   -1.0935 H   0  0  0  0  0  0  0  0  0  0  0  0
   -1.3139   -2.6406    0.0711 C   0  0  0  0  0  0  0  0  0  0  0  0
   -0.3929   -3.2958    0.5272 O   0  0  0  0  0  0  0  0  0  0  0  0
   -1.1091   -1.3341   -0.3210 N   0  0  0  0  0  0  0  0  0  0  0  0
   -1.9309   -0.8029   -0.6174 H   0  0  0  0  0  0  0  0  0  0  0  0
    0.1644   -0.6062   -0.1985 C   0  0  1  0  0  0  0  0  0  0  0  0
    0.9112   -1.2286   -0.7053 H   0  0  0  0  0  0  0  0  0  0  0  0
    0.0418    0.6729   -1.0520 C   0  0  0  0  0  0  0  0  0  0  0  0
    1.0607    0.9250   -1.3661 H   0  0  0  0  0  0  0  0  0  0  0  0
   -0.5177    0.4649   -1.9716 H   0  0  0  0  0  0  0  0  0  0  0  0
   -0.5166    1.9195   -0.3294 C   0  0  0  0  0  0  0  0  0  0  0  0
   -0.4577    1.8587    0.7555 H   0  0  0  0  0  0  0  0  0  0  0  0
    0.0805    2.7857   -0.6281 H   0  0  0  0  0  0  0  0  0  0  0  0
   -1.9595    2.1692   -0.7515 C   0  0  0  0  0  0  0  0  0  0  0  0
   -2.7707    1.2575   -0.7736 O   0  0  0  0  0  0  0  0  0  0  0  0
   -2.4134    3.4023   -1.1227 N   0  0  0  0  0  0  0  0  0  0  0  0
   -3.4182    3.5007   -1.2377 H   0  0  0  0  0  0  0  0  0  0  0  0
   -1.8336    4.2177   -0.9529 H   0  0  0  0  0  0  0  0  0  0  0  0
    0.7119   -0.4599    1.2402 C   0  0  0  0  0  0  0  0  0  0  0  0
    1.9206   -0.3805    1.4154 O   0  0  0  0  0  0  0  0  0  0  0  0
   -0.1312   -0.0997    2.2772 N   0  0  0  0  0  0  0  0  0  0  0  0
   -1.1243   -0.2323    2.1106 H   0  0  0  0  0  0  0  0  0  0  0  0
    0.3316    0.0972    3.6450 C   0  0  0  0  0  0  0  0  0  0  0  0
    1.0667    0.9075    3.6886 H   0  0  0  0  0  0  0  0  0  0  0  0
   -0.5090    0.3598    4.2943 H   0  0  0  0  0  0  0  0  0  0  0  0
    0.7943   -0.8189    4.0274 H   0  0  0  0  0  0  0  0  0  0  0  0
  1  2  1  0  0  0  0
  2  3  1  0  0  0  0
  2  4  1  0  0  0  0
  2  5  1  0  0  0  0
  5  6  2  0  0  0  0
  5  7  1  0  0  0  0
  7  8  1  0  0  0  0
  7  9  1  0  0  0  0
  9 10  1  0  0  0  0
  9 11  1  0  0  0  0
  9 22  1  0  0  0  0
 11 12  1  0  0  0  0
 11 13  1  0  0  0  0
 11 14  1  0  0  0  0
 14 15  1  0  0  0  0
 14 16  1  0  0  0  0
 14 17  1  0  0  0  0
 17 18  2  0  0  0  0
 17 19  1  0  0  0  0
 19 20  1  0  0  0  0
 19 21  1  0  0  0  0
 22 23  2  0  0  0  0
 22 24  1  0  0  0  0
 24 25  1  0  0  0  0
 24 26  1  0  0  0  0
 26 27  1  0  0  0  0
 26 28  1  0  0  0  0
 26 29  1  0  0  0  0
M  END
$$$$

  -OEChem-02102214123D

 29 28  0     1  0  0  0  0  0999 V2000
   -2.6960   -4.2317    0.5251 H   0  0  0  0  0  0  0  0  0  0  0  0
   -2.6888   -3.2421    0.0597 C   0  0  0  0  0  0  0  0  0  0  0  0
   -3.3652   -2.5867    0.6138 H   0  0  0  0  0  0  0  0  0  0  0  0
   -3.0437   -3.3331   -0.9697 H   0  0  0  0  0  0  0  0  0  0  0  0
   -1.2846   -2.6686    0.0717 C   0  0  0  0  0  0  0  0  0  0  0  0
   -0.3545   -3.3378    0.4878 O   0  0  0  0  0  0  0  0  0  0  0  0
   -1.0724   -1.3779   -0.3657 N   0  0  0  0  0  0  0  0  0  0  0  0
   -1.9063   -0.8214   -0.5719 H   0  0  0  0  0  0  0  0  0  0  0  0
    0.2046   -0.6558   -0.2550 C   0  0  1  0  0  0  0  0  0  0  0  0
    0.9568   -1.2868   -0.7420 H   0  0  0  0  0  0  0  0  0  0  0  0
    0.1007    0.6291   -1.1084 C   0  0  0  0  0  0  0  0  0  0  0  0
    1.1209    0.8624   -1.4318 H   0  0  0  0  0  0  0  0  0  0  0  0
   -0.4779    0.4339   -2.0184 H   0  0  0  0  0  0  0  0  0  0  0  0
   -0.4349    1.8883   -0.3891 C   0  0  0  0  0  0  0  0  0  0  0  0
   -0.1125    1.9534    0.6505 H   0  0  0  0  0  0  0  0  0  0  0  0
   -0.0141    2.7604   -0.8969 H   0  0  0  0  0  0  0  0  0  0  0  0
   -1.9540    2.0019   -0.4825 C   0  0  0  0  0  0  0  0  0  0  0  0
   -2.6815    1.0228   -0.4394 O   0  0  0  0  0  0  0  0  0  0  0  0
   -2.5807    3.2104   -0.5850 N   0  0  0  0  0  0  0  0  0  0  0  0
   -3.5906    3.2096   -0.4719 H   0  0  0  0  0  0  0  0  0  0  0  0
   -2.0476    4.0605   -0.4321 H   0  0  0  0  0  0  0  0  0  0  0  0
    0.7088   -0.4803    1.1952 C   0  0  0  0  0  0  0  0  0  0  0  0
    1.9107   -0.4116    1.4154 O   0  0  0  0  0  0  0  0  0  0  0  0
   -0.1732   -0.0863    2.1868 N   0  0  0  0  0  0  0  0  0  0  0  0
   -1.1615   -0.1850    1.9720 H   0  0  0  0  0  0  0  0  0  0  0  0
    0.2306    0.1443    3.5675 C   0  0  0  0  0  0  0  0  0  0  0  0
    0.9662    0.9536    3.6216 H   0  0  0  0  0  0  0  0  0  0  0  0
   -0.6363    0.4254    4.1729 H   0  0  0  0  0  0  0  0  0  0  0  0
    0.6720   -0.7632    3.9931 H   0  0  0  0  0  0  0  0  0  0  0  0
  1  2  1  0  0  0  0
  2  3  1  0  0  0  0
  2  4  1  0  0  0  0
  2  5  1  0  0  0  0
  5  6  2  0  0  0  0
  5  7  1  0  0  0  0
  7  8  1  0  0  0  0
  7  9  1  0  0  0  0
  9 10  1  0  0  0  0
  9 11  1  0  0  0  0
  9 22  1  0  0  0  0
 11 12  1  0  0  0  0
 11 13  1  0  0  0  0
 11 14  1  0  0  0  0
 14 15  1  0  0  0  0
 14 16  1  0  0  0  0
 14 17  1  0  0  0  0
 17 18  2  0  0  0  0
 17 19  1  0  0  0  0
 19 20  1  0  0  0  0
 19 21  1  0  0  0  0
 22 23  2  0  0  0  0
 22 24  1  0  0  0  0
 24 25  1  0  0  0  0
 24 26  1  0  0  0  0
 26 27  1  0  0  0  0
 26 28  1  0  0  0  0
 26 29  1  0  0  0  0
M  END
$$$$

  -OEChem-02102214123D

 29 28  0     1  0  0  0  0  0999 V2000
   -2.6518   -4.2601    0.4532 H   0  0  0  0  0  0  0  0  0  0  0  0
   -2.6791   -3.2124    0.1410 C   0  0  0  0  0  0  0  0  0  0  0  0
   -3.2096   -2.6318    0.8996 H   0  0  0  0  0  0  0  0  0  0  0  0
   -3.2184   -3.1404   -0.8064 H   0  0  0  0  0  0  0  0  0  0  0  0
   -1.2686   -2.6803   -0.0242 C   0  0  0  0  0  0  0  0  0  0  0  0
   -0.3139   -3.4006    0.2131 O   0  0  0  0  0  0  0  0  0  0  0  0
   -1.0776   -1.3760   -0.4325 N   0  0  0  0  0  0  0  0  0  0  0  0
   -1.9154   -0.7917   -0.4071 H   0  0  0  0  0  0  0  0  0  0  0  0
    0.2076   -0.6719   -0.2938 C   0  0  1  0  0  0  0  0  0  0  0  0
    0.9575   -1.2885   -0.8028 H   0  0  0  0  0  0  0  0  0  0  0  0
    0.1392    0.6646   -1.0703 C   0  0  0  0  0  0  0  0  0  0  0  0
    1.1606    0.8894   -1.3963 H   0  0  0  0  0  0  0  0  0  0  0  0
   -0.4614    0.5317   -1.9766 H   0  0  0  0  0  0  0  0  0  0  0  0
   -0.3642    1.8989   -0.2865 C   0  0  0  0  0  0  0  0  0  0  0  0
    0.1559    2.0043    0.6685 H   0  0  0  0  0  0  0  0  0  0  0  0
   -0.1191    2.7883   -0.8733 H   0  0  0  0  0  0  0  0  0  0  0  0
   -1.8736    1.8943   -0.0534 C   0  0  0  0  0  0  0  0  0  0  0  0
   -2.4572    0.9425    0.4391 O   0  0  0  0  0  0  0  0  0  0  0  0
   -2.6608    2.9495   -0.4143 N   0  0  0  0  0  0  0  0  0  0  0  0
   -3.6234    2.9289   -0.0895 H   0  0  0  0  0  0  0  0  0  0  0  0
   -2.2239    3.8314   -0.6628 H   0  0  0  0  0  0  0  0  0  0  0  0
    0.6963   -0.5525    1.1672 C   0  0  0  0  0  0  0  0  0  0  0  0
    1.8950   -0.5413    1.4134 O   0  0  0  0  0  0  0  0  0  0  0  0
   -0.1944   -0.1799    2.1588 N   0  0  0  0  0  0  0  0  0  0  0  0
   -1.1688   -0.0626    1.8800 H   0  0  0  0  0  0  0  0  0  0  0  0
    0.1948    0.0942    3.5351 C   0  0  0  0  0  0  0  0  0  0  0  0
    0.8907    0.9385    3.5760 H   0  0  0  0  0  0  0  0  0  0  0  0
   -0.6864    0.3411    4.1347 H   0  0  0  0  0  0  0  0  0  0  0  0
    0.6784   -0.7838    3.9759 H   0  0  0  0  0  0  0  0  0  0  0  0
  1  2  1  0  0  0  0
  2  3  1  0  0  0  0
  2  4  1  0  0  0  0
  2  5  1  0  0  0  0
  5  6  2  0  0  0  0
  5  7  1  0  0  0  0
  7  8  1  0  0  0  0
  7  9  1  0  0  0  0
  9 10  1  0  0  0  0
  9 11  1  0  0  0  0
  9 22  1  0  0  0  0
 11 12  1  0  0  0  0
 11 13  1  0  0  0  0
 11 14  1  0  0  0  0
 14 15  1  0  0  0  0
 14 16  1  0  0  0  0
 14 17  1  0  0  0  0
 17 18  2  0  0  0  0
 17 19  1  0  0  0  0
 19 20  1  0  0  0  0
 19 21  1  0  0  0  0
 22 23  2  0  0  0  0
 22 24  1  0  0  0  0
 24 25  1  0  0  0  0
 24 26  1  0  0  0  0
 26 27  1  0  0  0  0
 26 28  1  0  0  0  0
 26 29  1  0  0  0  0
M  END
$$$$

  -OEChem-02102214123D

 29 28  0     1  0  0  0  0  0999 V2000
   -2.6963   -4.2516    0.6079 H   0  0  0  0  0  0  0  0  0  0  0  0
   -2.6776   -3.2911    0.0855 C   0  0  0  0  0  0  0  0  0  0  0  0
   -3.3750   -2.6086    0.5771 H   0  0  0  0  0  0  0  0  0  0  0  0
   -2.9972   -3.4447   -0.9480 H   0  0  0  0  0  0  0  0  0  0  0  0
   -1.2772   -2.7090    0.1103 C   0  0  0  0  0  0  0  0  0  0  0  0
   -0.3591   -3.3443    0.5998 O   0  0  0  0  0  0  0  0  0  0  0  0
   -1.0564   -1.4466   -0.3988 N   0  0  0  0  0  0  0  0  0  0  0  0
   -1.8876   -0.9047   -0.6492 H   0  0  0  0  0  0  0  0  0  0  0  0
    0.2117   -0.7106   -0.2840 C   0  0  1  0  0  0  0  0  0  0  0  0
    0.9805   -1.3678   -0.7063 H   0  0  0  0  0  0  0  0  0  0  0  0
    0.1696    0.5424   -1.1910 C   0  0  0  0  0  0  0  0  0  0  0  0
    1.1966    0.7460   -1.5130 H   0  0  0  0  0  0  0  0  0  0  0  0
   -0.4074    0.3130   -2.0934 H   0  0  0  0  0  0  0  0  0  0  0  0
   -0.3760    1.8416   -0.5531 C   0  0  0  0  0  0  0  0  0  0  0  0
    0.2743    2.1359    0.2758 H   0  0  0  0  0  0  0  0  0  0  0  0
   -0.3298    2.6404   -1.2981 H   0  0  0  0  0  0  0  0  0  0  0  0
   -1.8148    1.7611   -0.0416 C   0  0  0  0  0  0  0  0  0  0  0  0
   -2.6070    0.9026   -0.3919 O   0  0  0  0  0  0  0  0  0  0  0  0
   -2.2889    2.6489    0.8797 N   0  0  0  0  0  0  0  0  0  0  0  0
   -3.2918    2.6410    1.0416 H   0  0  0  0  0  0  0  0  0  0  0  0
   -1.7417    3.4766    1.0943 H   0  0  0  0  0  0  0  0  0  0  0  0
    0.6692   -0.4360    1.1659 C   0  0  0  0  0  0  0  0  0  0  0  0
    1.8633   -0.3308    1.4129 O   0  0  0  0  0  0  0  0  0  0  0  0
   -0.2427    0.0174    2.1031 N   0  0  0  0  0  0  0  0  0  0  0  0
   -1.2241   -0.1235    1.8780 H   0  0  0  0  0  0  0  0  0  0  0  0
    0.1245    0.3487    3.4734 C   0  0  0  0  0  0  0  0  0  0  0  0
    0.8791    1.1421    3.4876 H   0  0  0  0  0  0  0  0  0  0  0  0
   -0.7528    0.6983    4.0257 H   0  0  0  0  0  0  0  0  0  0  0  0
    0.5292   -0.5319    3.9833 H   0  0  0  0  0  0  0  0  0  0  0  0
  1  2  1  0  0  0  0
  2  3  1  0  0  0  0
  2  4  1  0  0  0  0
  2  5  1  0  0  0  0
  5  6  2  0  0  0  0
  5  7  1  0  0  0  0
  7  8  1  0  0  0  0
  7  9  1  0  0  0  0
  9 10  1  0  0  0  0
  9 11  1  0  0  0  0
  9 22  1  0  0  0  0
 11 12  1  0  0  0  0
 11 13  1  0  0  0  0
 11 14  1  0  0  0  0
 14 15  1  0  0  0  0
 14 16  1  0  0  0  0
 14 17  1  0  0  0  0
 17 18  2  0  0  0  0
 17 19  1  0  0  0  0
 19 20  1  0  0  0  0
 19 21  1  0  0  0  0
 22 23  2  0  0  0  0
 22 24  1  0  0  0  0
 24 25  1  0  0  0  0
 24 26  1  0  0  0  0
 26 27  1  0  0  0  0
 26 28  1  0  0  0  0
 26 29  1  0  0  0  0
M  END
$$$$

  -OEChem-02102214123D

 29 28  0     1  0  0  0  0  0999 V2000
   -2.6136   -4.3289    0.5912 H   0  0  0  0  0  0  0  0  0  0  0  0
   -2.6354   -3.3500    0.1041 C   0  0  0  0  0  0  0  0  0  0  0  0
   -3.3103   -2.6947    0.6601 H   0  0  0  0  0  0  0  0  0  0  0  0
   -3.0134   -3.4707   -0.9138 H   0  0  0  0  0  0  0  0  0  0  0  0
   -1.2417   -2.7521    0.0695 C   0  0  0  0  0  0  0  0  0  0  0  0
   -0.2915   -3.3968    0.4794 O   0  0  0  0  0  0  0  0  0  0  0  0
   -1.0610   -1.4712   -0.4102 N   0  0  0  0  0  0  0  0  0  0  0  0
   -1.9130   -0.9230   -0.5495 H   0  0  0  0  0  0  0  0  0  0  0  0
    0.1925   -0.7135   -0.2748 C   0  0  1  0  0  0  0  0  0  0  0  0
    0.9683   -1.3605   -0.7005 H   0  0  0  0  0  0  0  0  0  0  0  0
    0.1675    0.5432   -1.1773 C   0  0  0  0  0  0  0  0  0  0  0  0
    1.1971    0.7435   -1.4932 H   0  0  0  0  0  0  0  0  0  0  0  0
   -0.3999    0.2999   -2.0821 H   0  0  0  0  0  0  0  0  0  0  0  0
   -0.3952    1.8600   -0.5865 C   0  0  0  0  0  0  0  0  0  0  0  0
    0.3621    2.2714    0.0876 H   0  0  0  0  0  0  0  0  0  0  0  0
   -0.5351    2.5790   -1.3981 H   0  0  0  0  0  0  0  0  0  0  0  0
   -1.7026    1.7665    0.2011 C   0  0  0  0  0  0  0  0  0  0  0  0
   -2.5263    0.8823    0.0362 O   0  0  0  0  0  0  0  0  0  0  0  0
   -2.0227    2.6904    1.1537 N   0  0  0  0  0  0  0  0  0  0  0  0
   -2.9742    2.6705    1.5092 H   0  0  0  0  0  0  0  0  0  0  0  0
   -1.4600    3.5313    1.2376 H   0  0  0  0  0  0  0  0  0  0  0  0
    0.6576   -0.4617    1.1773 C   0  0  0  0  0  0  0  0  0  0  0  0
    1.8526   -0.3539    1.4185 O   0  0  0  0  0  0  0  0  0  0  0  0
   -0.2477   -0.0476    2.1375 N   0  0  0  0  0  0  0  0  0  0  0  0
   -1.2337   -0.1201    1.8950 H   0  0  0  0  0  0  0  0  0  0  0  0
    0.1252    0.2930    3.5037 C   0  0  0  0  0  0  0  0  0  0  0  0
    0.8273    1.1331    3.5123 H   0  0  0  0  0  0  0  0  0  0  0  0
   -0.7619    0.5788    4.0768 H   0  0  0  0  0  0  0  0  0  0  0  0
    0.5952   -0.5649    3.9960 H   0  0  0  0  0  0  0  0  0  0  0  0
  1  2  1  0  0  0  0
  2  3  1  0  0  0  0
  2  4  1  0  0  0  0
  2  5  1  0  0  0  0
  5  6  2  0  0  0  0
  5  7  1  0  0  0  0
  7  8  1  0  0  0  0
  7  9  1  0  0  0  0
  9 10  1  0  0  0  0
  9 11  1  0  0  0  0
  9 22  1  0  0  0  0
 11 12  1  0  0  0  0
 11 13  1  0  0  0  0
 11 14  1  0  0  0  0
 14 15  1  0  0  0  0
 14 16  1  0  0  0  0
 14 17  1  0  0  0  0
 17 18  2  0  0  0  0
 17 19  1  0  0  0  0
 19 20  1  0  0  0  0
 19 21  1  0  0  0  0
 22 23  2  0  0  0  0
 22 24  1  0  0  0  0
 24 25  1  0  0  0  0
 24 26  1  0  0  0  0
 26 27  1  0  0  0  0
 26 28  1  0  0  0  0
 26 29  1  0  0  0  0
M  END
$$$$

  -OEChem-02102214123D

 29 28  0     1  0  0  0  0  0999 V2000
   -2.3637   -4.2649    1.0195 H   0  0  0  0  0  0  0  0  0  0  0  0
   -2.4575   -3.2762    0.5616 C   0  0  0  0  0  0  0  0  0  0  0  0
   -3.1032   -2.6558    1.1880 H   0  0  0  0  0  0  0  0  0  0  0  0
   -2.9166   -3.3864   -0.4238 H   0  0  0  0  0  0  0  0  0  0  0  0
   -1.0916   -2.6307    0.4258 C   0  0  0  0  0  0  0  0  0  0  0  0
   -0.1012   -3.1996    0.8548 O   0  0  0  0  0  0  0  0  0  0  0  0
   -0.9841   -1.3726   -0.1287 N   0  0  0  0  0  0  0  0  0  0  0  0
   -1.8591   -0.8613   -0.2633 H   0  0  0  0  0  0  0  0  0  0  0  0
    0.2492   -0.5726   -0.1332 C   0  0  1  0  0  0  0  0  0  0  0  0
    0.9912   -1.2740   -0.5328 H   0  0  0  0  0  0  0  0  0  0  0  0
    0.1986    0.5279   -1.2187 C   0  0  0  0  0  0  0  0  0  0  0  0
    1.2194    0.6919   -1.5813 H   0  0  0  0  0  0  0  0  0  0  0  0
   -0.3759    0.1335   -2.0637 H   0  0  0  0  0  0  0  0  0  0  0  0
   -0.3874    1.9079   -0.8453 C   0  0  0  0  0  0  0  0  0  0  0  0
    0.4333    2.5291   -0.4753 H   0  0  0  0  0  0  0  0  0  0  0  0
   -0.7826    2.3916   -1.7427 H   0  0  0  0  0  0  0  0  0  0  0  0
   -1.4722    1.9012    0.2253 C   0  0  0  0  0  0  0  0  0  0  0  0
   -2.4369    1.1575    0.1487 O   0  0  0  0  0  0  0  0  0  0  0  0
   -1.4607    2.7769    1.2730 N   0  0  0  0  0  0  0  0  0  0  0  0
   -2.1390    2.5971    2.0064 H   0  0  0  0  0  0  0  0  0  0  0  0
   -0.5856    3.2390    1.4986 H   0  0  0  0  0  0  0  0  0  0  0  0
    0.9042   -0.1744    1.2174 C   0  0  0  0  0  0  0  0  0  0  0  0
    2.0699    0.1893    1.2053 O   0  0  0  0  0  0  0  0  0  0  0  0
    0.2629    0.3111    2.3364 N   0  0  0  0  0  0  0  0  0  0  0  0
    0.9357    0.6593    3.0148 H   0  0  0  0  0  0  0  0  0  0  0  0
   -0.9347   -0.3153    2.8800 C   0  0  0  0  0  0  0  0  0  0  0  0
   -1.2195    0.1784    3.8141 H   0  0  0  0  0  0  0  0  0  0  0  0
   -1.7779   -0.2398    2.1902 H   0  0  0  0  0  0  0  0  0  0  0  0
   -0.7475   -1.3730    3.0940 H   0  0  0  0  0  0  0  0  0  0  0  0
  1  2  1  0  0  0  0
  2  3  1  0  0  0  0
  2  4  1  0  0  0  0
  2  5  1  0  0  0  0
  5  6  2  0  0  0  0
  5  7  1  0  0  0  0
  7  8  1  0  0  0  0
  7  9  1  0  0  0  0
  9 10  1  0  0  0  0
  9 11  1  0  0  0  0
  9 22  1  0  0  0  0
 11 12  1  0  0  0  0
 11 13  1  0  0  0  0
 11 14  1  0  0  0  0
 14 15  1  0  0  0  0
 14 16  1  0  0  0  0
 14 17  1  0  0  0  0
 17 18  2  0  0  0  0
 17 19  1  0  0  0  0
 19 20  1  0  0  0  0
 19 21  1  0  0  0  0
 22 23  2  0  0  0  0
 22 24  1  0  0  0  0
 24 25  1  0  0  0  0
 24 26  1  0  0  0  0
 26 27  1  0  0  0  0
 26 28  1  0  0  0  0
 26 29  1  0  0  0  0
M  END
$$$$

  -OEChem-02102214123D

 29 28  0     1  0  0  0  0  0999 V2000
   -3.0729   -4.0526    0.8235 H   0  0  0  0  0  0  0  0  0  0  0  0
   -3.0039   -3.0445    0.4046 C   0  0  0  0  0  0  0  0  0  0  0  0
   -3.5720   -2.3610    1.0400 H   0  0  0  0  0  0  0  0  0  0  0  0
   -3.4392   -3.0505   -0.5975 H   0  0  0  0  0  0  0  0  0  0  0  0
   -1.5527   -2.6076    0.3368 C   0  0  0  0  0  0  0  0  0  0  0  0
   -0.6746   -3.3677    0.7027 O   0  0  0  0  0  0  0  0  0  0  0  0
   -1.2398   -1.3474   -0.1373 N   0  0  0  0  0  0  0  0  0  0  0  0
   -2.0242   -0.7253   -0.3001 H   0  0  0  0  0  0  0  0  0  0  0  0
    0.1091   -0.7592   -0.0577 C   0  0  1  0  0  0  0  0  0  0  0  0
    0.7423   -1.5582   -0.4630 H   0  0  0  0  0  0  0  0  0  0  0  0
    0.3150    0.3695   -1.0990 C   0  0  0  0  0  0  0  0  0  0  0  0
    1.3747    0.3553   -1.3795 H   0  0  0  0  0  0  0  0  0  0  0  0
   -0.2456    0.0924   -1.9977 H   0  0  0  0  0  0  0  0  0  0  0  0
   -0.0332    1.8405   -0.7530 C   0  0  0  0  0  0  0  0  0  0  0  0
   -0.5140    2.3078   -1.6166 H   0  0  0  0  0  0  0  0  0  0  0  0
    0.9075    2.3747   -0.5830 H   0  0  0  0  0  0  0  0  0  0  0  0
   -0.9008    2.0790    0.4743 C   0  0  0  0  0  0  0  0  0  0  0  0
   -0.5364    2.7290    1.4319 O   0  0  0  0  0  0  0  0  0  0  0  0
   -2.2152    1.7052    0.4999 N   0  0  0  0  0  0  0  0  0  0  0  0
   -2.6575    1.5559   -0.4007 H   0  0  0  0  0  0  0  0  0  0  0  0
   -2.7502    2.1730    1.2282 H   0  0  0  0  0  0  0  0  0  0  0  0
    0.7317   -0.5740    1.3485 C   0  0  0  0  0  0  0  0  0  0  0  0
    1.9427   -0.7008    1.4723 O   0  0  0  0  0  0  0  0  0  0  0  0
    0.0069   -0.0549    2.4053 N   0  0  0  0  0  0  0  0  0  0  0  0
   -0.9321    0.2696    2.1985 H   0  0  0  0  0  0  0  0  0  0  0  0
    0.6328    0.4101    3.6368 C   0  0  0  0  0  0  0  0  0  0  0  0
    1.2985    1.2550    3.4313 H   0  0  0  0  0  0  0  0  0  0  0  0
   -0.1316    0.7370    4.3478 H   0  0  0  0  0  0  0  0  0  0  0  0
    1.2135   -0.3941    4.1008 H   0  0  0  0  0  0  0  0  0  0  0  0
  1  2  1  0  0  0  0
  2  3  1  0  0  0  0
  2  4  1  0  0  0  0
  2  5  1  0  0  0  0
  5  6  2  0  0  0  0
  5  7  1  0  0  0  0
  7  8  1  0  0  0  0
  7  9  1  0  0  0  0
  9 10  1  0  0  0  0
  9 11  1  0  0  0  0
  9 22  1  0  0  0  0
 11 12  1  0  0  0  0
 11 13  1  0  0  0  0
 11 14  1  0  0  0  0
 14 15  1  0  0  0  0
 14 16  1  0  0  0  0
 14 17  1  0  0  0  0
 17 18  2  0  0  0  0
 17 19  1  0  0  0  0
 19 20  1  0  0  0  0
 19 21  1  0  0  0  0
 22 23  2  0  0  0  0
 22 24  1  0  0  0  0
 24 25  1  0  0  0  0
 24 26  1  0  0  0  0
 26 27  1  0  0  0  0
 26 28  1  0  0  0  0
 26 29  1  0  0  0  0
M  END
$$$$

  -OEChem-02102214123D

 29 28  0     1  0  0  0  0  0999 V2000
   -2.6147   -4.4180    0.5567 H   0  0  0  0  0  0  0  0  0  0  0  0
   -2.6555   -3.4138    0.1253 C   0  0  0  0  0  0  0  0  0  0  0  0
   -3.3528   -2.8086    0.7096 H   0  0  0  0  0  0  0  0  0  0  0  0
   -3.0183   -3.4866   -0.9027 H   0  0  0  0  0  0  0  0  0  0  0  0
   -1.2771   -2.7811    0.1440 C   0  0  0  0  0  0  0  0  0  0  0  0
   -0.3240   -3.4151    0.5634 O   0  0  0  0  0  0  0  0  0  0  0  0
   -1.1156   -1.4828   -0.2985 N   0  0  0  0  0  0  0  0  0  0  0  0
   -1.9730   -0.9627   -0.4744 H   0  0  0  0  0  0  0  0  0  0  0  0
    0.1138   -0.6992   -0.1011 C   0  0  1  0  0  0  0  0  0  0  0  0
    0.8969   -1.3891   -0.4384 H   0  0  0  0  0  0  0  0  0  0  0  0
    0.2236    0.4351   -1.1514 C   0  0  0  0  0  0  0  0  0  0  0  0
    1.2956    0.5878   -1.3209 H   0  0  0  0  0  0  0  0  0  0  0  0
   -0.1860    0.0600   -2.0956 H   0  0  0  0  0  0  0  0  0  0  0  0
   -0.3809    1.8392   -0.8909 C   0  0  0  0  0  0  0  0  0  0  0  0
    0.4201    2.5789   -0.9766 H   0  0  0  0  0  0  0  0  0  0  0  0
   -1.0990    2.0589   -1.6862 H   0  0  0  0  0  0  0  0  0  0  0  0
   -1.0940    2.0718    0.4306 C   0  0  0  0  0  0  0  0  0  0  0  0
   -2.1228    1.4729    0.7011 O   0  0  0  0  0  0  0  0  0  0  0  0
   -0.6134    2.9346    1.3738 N   0  0  0  0  0  0  0  0  0  0  0  0
    0.3544    3.2333    1.2988 H   0  0  0  0  0  0  0  0  0  0  0  0
   -1.0460    2.8712    2.2903 H   0  0  0  0  0  0  0  0  0  0  0  0
    0.5626   -0.4503    1.3609 C   0  0  0  0  0  0  0  0  0  0  0  0
    1.7573   -0.3340    1.6020 O   0  0  0  0  0  0  0  0  0  0  0  0
   -0.3336   -0.0700    2.3423 N   0  0  0  0  0  0  0  0  0  0  0  0
   -1.3030    0.0560    2.0490 H   0  0  0  0  0  0  0  0  0  0  0  0
    0.0537    0.3079    3.6950 C   0  0  0  0  0  0  0  0  0  0  0  0
    0.6836    1.2031    3.6792 H   0  0  0  0  0  0  0  0  0  0  0  0
   -0.8360    0.5185    4.2960 H   0  0  0  0  0  0  0  0  0  0  0  0
    0.6084   -0.5057    4.1743 H   0  0  0  0  0  0  0  0  0  0  0  0
  1  2  1  0  0  0  0
  2  3  1  0  0  0  0
  2  4  1  0  0  0  0
  2  5  1  0  0  0  0
  5  6  2  0  0  0  0
  5  7  1  0  0  0  0
  7  8  1  0  0  0  0
  7  9  1  0  0  0  0
  9 10  1  0  0  0  0
  9 11  1  0  0  0  0
  9 22  1  0  0  0  0
 11 12  1  0  0  0  0
 11 13  1  0  0  0  0
 11 14  1  0  0  0  0
 14 15  1  0  0  0  0
 14 16  1  0  0  0  0
 14 17  1  0  0  0  0
 17 18  2  0  0  0  0
 17 19  1  0  0  0  0
 19 20  1  0  0  0  0
 19 21  1  0  0  0  0
 22 23  2  0  0  0  0
 22 24  1  0  0  0  0
 24 25  1  0  0  0  0
 24 26  1  0  0  0  0
 26 27  1  0  0  0  0
 26 28  1  0  0  0  0
 26 29  1  0  0  0  0
M  END
$$$$

  -OEChem-02102214123D

 29 28  0     1  0  0  0  0  0999 V2000
   -3.2961   -3.9413    0.3311 H   0  0  0  0  0  0  0  0  0  0  0  0
   -3.1187   -2.9421   -0.0774 C   0  0  0  0  0  0  0  0  0  0  0  0
   -3.7968   -2.2385    0.4111 H   0  0  0  0  0  0  0  0  0  0  0  0
   -3.3283   -2.9590   -1.1495 H   0  0  0  0  0  0  0  0  0  0  0  0
   -1.6788   -2.5296    0.1636 C   0  0  0  0  0  0  0  0  0  0  0  0
   -0.9094   -3.3063    0.6988 O   0  0  0  0  0  0  0  0  0  0  0  0
   -1.2521   -1.2735   -0.2244 N   0  0  0  0  0  0  0  0  0  0  0  0
   -1.9319   -0.6815   -0.6897 H   0  0  0  0  0  0  0  0  0  0  0  0
    0.1239   -0.7741   -0.0518 C   0  0  1  0  0  0  0  0  0  0  0  0
    0.7294   -1.5930   -0.4597 H   0  0  0  0  0  0  0  0  0  0  0  0
    0.4165    0.3719   -1.0557 C   0  0  0  0  0  0  0  0  0  0  0  0
    1.4964    0.3159   -1.2374 H   0  0  0  0  0  0  0  0  0  0  0  0
   -0.0659    0.1332   -2.0091 H   0  0  0  0  0  0  0  0  0  0  0  0
    0.1360    1.8627   -0.7252 C   0  0  0  0  0  0  0  0  0  0  0  0
    0.9756    2.4593   -1.0955 H   0  0  0  0  0  0  0  0  0  0  0  0
   -0.7425    2.1710   -1.2982 H   0  0  0  0  0  0  0  0  0  0  0  0
   -0.1158    2.2701    0.7179 C   0  0  0  0  0  0  0  0  0  0  0  0
    0.7491    2.7531    1.4184 O   0  0  0  0  0  0  0  0  0  0  0  0
   -1.3767    2.2772    1.2480 N   0  0  0  0  0  0  0  0  0  0  0  0
   -1.4615    2.8318    2.0966 H   0  0  0  0  0  0  0  0  0  0  0  0
   -2.1563    2.2462    0.6004 H   0  0  0  0  0  0  0  0  0  0  0  0
    0.6852   -0.6968    1.3906 C   0  0  0  0  0  0  0  0  0  0  0  0
    1.8720   -0.9358    1.5695 O   0  0  0  0  0  0  0  0  0  0  0  0
   -0.0579   -0.1872    2.4393 N   0  0  0  0  0  0  0  0  0  0  0  0
   -0.9756    0.1807    2.2129 H   0  0  0  0  0  0  0  0  0  0  0  0
    0.5261    0.1416    3.7340 C   0  0  0  0  0  0  0  0  0  0  0  0
    1.2817    0.9269    3.6240 H   0  0  0  0  0  0  0  0  0  0  0  0
   -0.2487    0.4986    4.4189 H   0  0  0  0  0  0  0  0  0  0  0  0
    0.9976   -0.7417    4.1773 H   0  0  0  0  0  0  0  0  0  0  0  0
  1  2  1  0  0  0  0
  2  3  1  0  0  0  0
  2  4  1  0  0  0  0
  2  5  1  0  0  0  0
  5  6  2  0  0  0  0
  5  7  1  0  0  0  0
  7  8  1  0  0  0  0
  7  9  1  0  0  0  0
  9 10  1  0  0  0  0
  9 11  1  0  0  0  0
  9 22  1  0  0  0  0
 11 12  1  0  0  0  0
 11 13  1  0  0  0  0
 11 14  1  0  0  0  0
 14 15  1  0  0  0  0
 14 16  1  0  0  0  0
 14 17  1  0  0  0  0
 17 18  2  0  0  0  0
 17 19  1  0  0  0  0
 19 20  1  0  0  0  0
 19 21  1  0  0  0  0
 22 23  2  0  0  0  0
 22 24  1  0  0  0  0
 24 25  1  0  0  0  0
 24 26  1  0  0  0  0
 26 27  1  0  0  0  0
 26 28  1  0  0  0  0
 26 29  1  0  0  0  0
M  END
$$$$

  -OEChem-02102214123D

 29 28  0     1  0  0  0  0  0999 V2000
   -3.2881   -3.9330    0.2184 H   0  0  0  0  0  0  0  0  0  0  0  0
   -3.1059   -2.9349   -0.1903 C   0  0  0  0  0  0  0  0  0  0  0  0
   -3.7995   -2.2326    0.2778 H   0  0  0  0  0  0  0  0  0  0  0  0
   -3.2890   -2.9573   -1.2671 H   0  0  0  0  0  0  0  0  0  0  0  0
   -1.6740   -2.5145    0.0839 C   0  0  0  0  0  0  0  0  0  0  0  0
   -0.9097   -3.2920    0.6250 O   0  0  0  0  0  0  0  0  0  0  0  0
   -1.2487   -1.2529   -0.2874 N   0  0  0  0  0  0  0  0  0  0  0  0
   -1.9201   -0.6690   -0.7750 H   0  0  0  0  0  0  0  0  0  0  0  0
    0.1293   -0.7564   -0.1188 C   0  0  1  0  0  0  0  0  0  0  0  0
    0.7426   -1.5529   -0.5586 H   0  0  0  0  0  0  0  0  0  0  0  0
    0.3698    0.4329   -1.0865 C   0  0  0  0  0  0  0  0  0  0  0  0
    1.4459    0.4052   -1.2949 H   0  0  0  0  0  0  0  0  0  0  0  0
   -0.1329    0.2230   -2.0362 H   0  0  0  0  0  0  0  0  0  0  0  0
    0.0778    1.9045   -0.6908 C   0  0  0  0  0  0  0  0  0  0  0  0
    0.7259    2.5557   -1.2852 H   0  0  0  0  0  0  0  0  0  0  0  0
   -0.9498    2.1234   -0.9912 H   0  0  0  0  0  0  0  0  0  0  0  0
    0.2102    2.3293    0.7642 C   0  0  0  0  0  0  0  0  0  0  0  0
    1.2871    2.5645    1.2702 O   0  0  0  0  0  0  0  0  0  0  0  0
   -0.8835    2.6221    1.5309 N   0  0  0  0  0  0  0  0  0  0  0  0
   -0.6707    3.1326    2.3843 H   0  0  0  0  0  0  0  0  0  0  0  0
   -1.7661    2.7856    1.0597 H   0  0  0  0  0  0  0  0  0  0  0  0
    0.6854   -0.7089    1.3257 C   0  0  0  0  0  0  0  0  0  0  0  0
    1.8619   -0.9862    1.5158 O   0  0  0  0  0  0  0  0  0  0  0  0
   -0.0672   -0.2172    2.3765 N   0  0  0  0  0  0  0  0  0  0  0  0
   -1.0039    0.1075    2.1667 H   0  0  0  0  0  0  0  0  0  0  0  0
    0.4882    0.0302    3.7007 C   0  0  0  0  0  0  0  0  0  0  0  0
    1.3002    0.7632    3.6433 H   0  0  0  0  0  0  0  0  0  0  0  0
   -0.2849    0.4208    4.3687 H   0  0  0  0  0  0  0  0  0  0  0  0
    0.8803   -0.8978    4.1297 H   0  0  0  0  0  0  0  0  0  0  0  0
  1  2  1  0  0  0  0
  2  3  1  0  0  0  0
  2  4  1  0  0  0  0
  2  5  1  0  0  0  0
  5  6  2  0  0  0  0
  5  7  1  0  0  0  0
  7  8  1  0  0  0  0
  7  9  1  0  0  0  0
  9 10  1  0  0  0  0
  9 11  1  0  0  0  0
  9 22  1  0  0  0  0
 11 12  1  0  0  0  0
 11 13  1  0  0  0  0
 11 14  1  0  0  0  0
 14 15  1  0  0  0  0
 14 16  1  0  0  0  0
 14 17  1  0  0  0  0
 17 18  2  0  0  0  0
 17 19  1  0  0  0  0
 19 20  1  0  0  0  0
 19 21  1  0  0  0  0
 22 23  2  0  0  0  0
 22 24  1  0  0  0  0
 24 25  1  0  0  0  0
 24 26  1  0  0  0  0
 26 27  1  0  0  0  0
 26 28  1  0  0  0  0
 26 29  1  0  0  0  0
M  END
$$$$

  -OEChem-02102214123D

 29 28  0     1  0  0  0  0  0999 V2000
   -2.9909   -4.1288    0.3369 H   0  0  0  0  0  0  0  0  0  0  0  0
   -2.8861   -3.1325   -0.1024 C   0  0  0  0  0  0  0  0  0  0  0  0
   -3.6413   -2.4747    0.3343 H   0  0  0  0  0  0  0  0  0  0  0  0
   -3.0528   -3.2052   -1.1798 H   0  0  0  0  0  0  0  0  0  0  0  0
   -1.4978   -2.5854    0.1724 C   0  0  0  0  0  0  0  0  0  0  0  0
   -0.6974   -3.2565    0.7970 O   0  0  0  0  0  0  0  0  0  0  0  0
   -1.1566   -1.3256   -0.2826 N   0  0  0  0  0  0  0  0  0  0  0  0
   -1.8488   -0.8429   -0.8464 H   0  0  0  0  0  0  0  0  0  0  0  0
    0.1868   -0.7280   -0.1560 C   0  0  1  0  0  0  0  0  0  0  0  0
    0.8652   -1.4836   -0.5708 H   0  0  0  0  0  0  0  0  0  0  0  0
    0.2919    0.4576   -1.1530 C   0  0  0  0  0  0  0  0  0  0  0  0
    1.3553    0.5186   -1.4134 H   0  0  0  0  0  0  0  0  0  0  0  0
   -0.2371    0.1940   -2.0743 H   0  0  0  0  0  0  0  0  0  0  0  0
   -0.1117    1.8991   -0.7507 C   0  0  0  0  0  0  0  0  0  0  0  0
    0.2443    2.5853   -1.5246 H   0  0  0  0  0  0  0  0  0  0  0  0
   -1.2033    1.9471   -0.7554 H   0  0  0  0  0  0  0  0  0  0  0  0
    0.3602    2.4424    0.5920 C   0  0  0  0  0  0  0  0  0  0  0  0
    1.5382    2.5970    0.8366 O   0  0  0  0  0  0  0  0  0  0  0  0
   -0.5112    2.9499    1.5146 N   0  0  0  0  0  0  0  0  0  0  0  0
   -0.0808    3.4957    2.2563 H   0  0  0  0  0  0  0  0  0  0  0  0
   -1.4656    3.1413    1.2332 H   0  0  0  0  0  0  0  0  0  0  0  0
    0.7135   -0.5626    1.2890 C   0  0  0  0  0  0  0  0  0  0  0  0
    1.8980   -0.7576    1.5226 O   0  0  0  0  0  0  0  0  0  0  0  0
   -0.1003   -0.0609    2.2884 N   0  0  0  0  0  0  0  0  0  0  0  0
   -1.0907    0.0072    2.0868 H   0  0  0  0  0  0  0  0  0  0  0  0
    0.3662    0.1623    3.6503 C   0  0  0  0  0  0  0  0  0  0  0  0
    1.2142    0.8557    3.6538 H   0  0  0  0  0  0  0  0  0  0  0  0
   -0.4337    0.5937    4.2591 H   0  0  0  0  0  0  0  0  0  0  0  0
    0.6810   -0.7825    4.1056 H   0  0  0  0  0  0  0  0  0  0  0  0
  1  2  1  0  0  0  0
  2  3  1  0  0  0  0
  2  4  1  0  0  0  0
  2  5  1  0  0  0  0
  5  6  2  0  0  0  0
  5  7  1  0  0  0  0
  7  8  1  0  0  0  0
  7  9  1  0  0  0  0
  9 10  1  0  0  0  0
  9 11  1  0  0  0  0
  9 22  1  0  0  0  0
 11 12  1  0  0  0  0
 11 13  1  0  0  0  0
 11 14  1  0  0  0  0
 14 15  1  0  0  0  0
 14 16  1  0  0  0  0
 14 17  1  0  0  0  0
 17 18  2  0  0  0  0
 17 19  1  0  0  0  0
 19 20  1  0  0  0  0
 19 21  1  0  0  0  0
 22 23  2  0  0  0  0
 22 24  1  0  0  0  0
 24 25  1  0  0  0  0
 24 26  1  0  0  0  0
 26 27  1  0  0  0  0
 26 28  1  0  0  0  0
 26 29  1  0  0  0  0
M  END
$$$$

  -OEChem-02102214123D

 29 28  0     1  0  0  0  0  0999 V2000
   -2.8983   -4.1698    0.4159 H   0  0  0  0  0  0  0  0  0  0  0  0
   -2.8127   -3.1893   -0.0616 C   0  0  0  0  0  0  0  0  0  0  0  0
   -3.5991   -2.5389    0.3285 H   0  0  0  0  0  0  0  0  0  0  0  0
   -2.9483   -3.3111   -1.1390 H   0  0  0  0  0  0  0  0  0  0  0  0
   -1.4502   -2.5873    0.2256 C   0  0  0  0  0  0  0  0  0  0  0  0
   -0.6587   -3.1919    0.9245 O   0  0  0  0  0  0  0  0  0  0  0  0
   -1.1259   -1.3505   -0.2992 N   0  0  0  0  0  0  0  0  0  0  0  0
   -1.8014   -0.9395   -0.9359 H   0  0  0  0  0  0  0  0  0  0  0  0
    0.2071   -0.7236   -0.1964 C   0  0  1  0  0  0  0  0  0  0  0  0
    0.9158   -1.4621   -0.5893 H   0  0  0  0  0  0  0  0  0  0  0  0
    0.2500    0.4610   -1.1989 C   0  0  0  0  0  0  0  0  0  0  0  0
    1.2960    0.5573   -1.5138 H   0  0  0  0  0  0  0  0  0  0  0  0
   -0.3191    0.1887   -2.0933 H   0  0  0  0  0  0  0  0  0  0  0  0
   -0.1933    1.8729   -0.7443 C   0  0  0  0  0  0  0  0  0  0  0  0
   -0.1195    2.5532   -1.5973 H   0  0  0  0  0  0  0  0  0  0  0  0
   -1.2457    1.8246   -0.4545 H   0  0  0  0  0  0  0  0  0  0  0  0
    0.5899    2.4986    0.4061 C   0  0  0  0  0  0  0  0  0  0  0  0
    1.7993    2.5924    0.3667 O   0  0  0  0  0  0  0  0  0  0  0  0
   -0.0244    3.1536    1.4358 N   0  0  0  0  0  0  0  0  0  0  0  0
    0.5825    3.7185    2.0235 H   0  0  0  0  0  0  0  0  0  0  0  0
   -1.0176    3.3460    1.3853 H   0  0  0  0  0  0  0  0  0  0  0  0
    0.6897   -0.4785    1.2522 C   0  0  0  0  0  0  0  0  0  0  0  0
    1.8688   -0.6323    1.5361 O   0  0  0  0  0  0  0  0  0  0  0  0
   -0.1725    0.0591    2.1913 N   0  0  0  0  0  0  0  0  0  0  0  0
   -1.1602    0.0121    1.9694 H   0  0  0  0  0  0  0  0  0  0  0  0
    0.2264    0.2974    3.5723 C   0  0  0  0  0  0  0  0  0  0  0  0
    1.0813    0.9811    3.6099 H   0  0  0  0  0  0  0  0  0  0  0  0
   -0.5984    0.7473    4.1325 H   0  0  0  0  0  0  0  0  0  0  0  0
    0.5058   -0.6437    4.0575 H   0  0  0  0  0  0  0  0  0  0  0  0
  1  2  1  0  0  0  0
  2  3  1  0  0  0  0
  2  4  1  0  0  0  0
  2  5  1  0  0  0  0
  5  6  2  0  0  0  0
  5  7  1  0  0  0  0
  7  8  1  0  0  0  0
  7  9  1  0  0  0  0
  9 10  1  0  0  0  0
  9 11  1  0  0  0  0
  9 22  1  0  0  0  0
 11 12  1  0  0  0  0
 11 13  1  0  0  0  0
 11 14  1  0  0  0  0
 14 15  1  0  0  0  0
 14 16  1  0  0  0  0
 14 17  1  0  0  0  0
 17 18  2  0  0  0  0
 17 19  1  0  0  0  0
 19 20  1  0  0  0  0
 19 21  1  0  0  0  0
 22 23  2  0  0  0  0
 22 24  1  0  0  0  0
 24 25  1  0  0  0  0
 24 26  1  0  0  0  0
 26 27  1  0  0  0  0
 26 28  1  0  0  0  0
 26 29  1  0  0  0  0
M  END
$$$$

  -OEChem-02102214123D

 29 28  0     1  0  0  0  0  0999 V2000
   -2.7730   -4.1632    0.5766 H   0  0  0  0  0  0  0  0  0  0  0  0
   -2.7074   -3.2309    0.0083 C   0  0  0  0  0  0  0  0  0  0  0  0
   -3.5551   -2.5958    0.2762 H   0  0  0  0  0  0  0  0  0  0  0  0
   -2.7584   -3.4660   -1.0576 H   0  0  0  0  0  0  0  0  0  0  0  0
   -1.4037   -2.5206    0.3204 C   0  0  0  0  0  0  0  0  0  0  0  0
   -0.6228   -3.0088    1.1164 O   0  0  0  0  0  0  0  0  0  0  0  0
   -1.1208   -1.3110   -0.2864 N   0  0  0  0  0  0  0  0  0  0  0  0
   -1.7799   -1.0033   -0.9957 H   0  0  0  0  0  0  0  0  0  0  0  0
    0.1854   -0.6246   -0.2134 C   0  0  1  0  0  0  0  0  0  0  0  0
    0.9337   -1.3524   -0.5484 H   0  0  0  0  0  0  0  0  0  0  0  0
    0.2051    0.5140   -1.2654 C   0  0  0  0  0  0  0  0  0  0  0  0
    1.2427    0.6244   -1.6030 H   0  0  0  0  0  0  0  0  0  0  0  0
   -0.3695    0.1897   -2.1390 H   0  0  0  0  0  0  0  0  0  0  0  0
   -0.2841    1.9209   -0.8590 C   0  0  0  0  0  0  0  0  0  0  0  0
   -0.4584    2.5073   -1.7660 H   0  0  0  0  0  0  0  0  0  0  0  0
   -1.2401    1.8402   -0.3356 H   0  0  0  0  0  0  0  0  0  0  0  0
    0.7011    2.7060    0.0077 C   0  0  0  0  0  0  0  0  0  0  0  0
    1.6651    3.2439   -0.5007 O   0  0  0  0  0  0  0  0  0  0  0  0
    0.5104    2.9758    1.3300 N   0  0  0  0  0  0  0  0  0  0  0  0
    1.3312    3.3729    1.7785 H   0  0  0  0  0  0  0  0  0  0  0  0
   -0.0341    2.2933    1.8495 H   0  0  0  0  0  0  0  0  0  0  0  0
    0.6003   -0.2781    1.2347 C   0  0  0  0  0  0  0  0  0  0  0  0
    1.7837   -0.2373    1.5360 O   0  0  0  0  0  0  0  0  0  0  0  0
   -0.3290    0.2720    2.1037 N   0  0  0  0  0  0  0  0  0  0  0  0
   -1.2933    0.0561    1.8670 H   0  0  0  0  0  0  0  0  0  0  0  0
   -0.0152    0.4771    3.5147 C   0  0  0  0  0  0  0  0  0  0  0  0
    0.8535    1.1343    3.6294 H   0  0  0  0  0  0  0  0  0  0  0  0
   -0.8642    0.9388    4.0280 H   0  0  0  0  0  0  0  0  0  0  0  0
    0.2055   -0.4807    3.9983 H   0  0  0  0  0  0  0  0  0  0  0  0
  1  2  1  0  0  0  0
  2  3  1  0  0  0  0
  2  4  1  0  0  0  0
  2  5  1  0  0  0  0
  5  6  2  0  0  0  0
  5  7  1  0  0  0  0
  7  8  1  0  0  0  0
  7  9  1  0  0  0  0
  9 10  1  0  0  0  0
  9 11  1  0  0  0  0
  9 22  1  0  0  0  0
 11 12  1  0  0  0  0
 11 13  1  0  0  0  0
 11 14  1  0  0  0  0
 14 15  1  0  0  0  0
 14 16  1  0  0  0  0
 14 17  1  0  0  0  0
 17 18  2  0  0  0  0
 17 19  1  0  0  0  0
 19 20  1  0  0  0  0
 19 21  1  0  0  0  0
 22 23  2  0  0  0  0
 22 24  1  0  0  0  0
 24 25  1  0  0  0  0
 24 26  1  0  0  0  0
 26 27  1  0  0  0  0
 26 28  1  0  0  0  0
 26 29  1  0  0  0  0
M  END
$$$$

  -OEChem-02102214123D

 29 28  0     1  0  0  0  0  0999 V2000
   -2.6941   -4.2831    0.4726 H   0  0  0  0  0  0  0  0  0  0  0  0
   -2.6442   -3.3449   -0.0877 C   0  0  0  0  0  0  0  0  0  0  0  0
   -3.5130   -2.7350    0.1714 H   0  0  0  0  0  0  0  0  0  0  0  0
   -2.6714   -3.5726   -1.1560 H   0  0  0  0  0  0  0  0  0  0  0  0
   -1.3660   -2.6017    0.2531 C   0  0  0  0  0  0  0  0  0  0  0  0
   -0.5814   -3.0764    1.0542 O   0  0  0  0  0  0  0  0  0  0  0  0
   -1.1022   -1.3788   -0.3335 N   0  0  0  0  0  0  0  0  0  0  0  0
   -1.7669   -1.0507   -1.0282 H   0  0  0  0  0  0  0  0  0  0  0  0
    0.1438   -0.6160   -0.1329 C   0  0  1  0  0  0  0  0  0  0  0  0
    0.9555   -1.3016   -0.4035 H   0  0  0  0  0  0  0  0  0  0  0  0
    0.2056    0.5391   -1.1616 C   0  0  0  0  0  0  0  0  0  0  0  0
    1.2555    0.7193   -1.4186 H   0  0  0  0  0  0  0  0  0  0  0  0
   -0.2833    0.2095   -2.0842 H   0  0  0  0  0  0  0  0  0  0  0  0
   -0.4272    1.8789   -0.7188 C   0  0  0  0  0  0  0  0  0  0  0  0
   -0.7862    2.3870   -1.6187 H   0  0  0  0  0  0  0  0  0  0  0  0
   -1.2995    1.6899   -0.0887 H   0  0  0  0  0  0  0  0  0  0  0  0
    0.4945    2.8725   -0.0043 C   0  0  0  0  0  0  0  0  0  0  0  0
    0.1502    4.0321    0.1177 O   0  0  0  0  0  0  0  0  0  0  0  0
    1.7316    2.5817    0.4951 N   0  0  0  0  0  0  0  0  0  0  0  0
    2.1354    3.3148    1.0694 H   0  0  0  0  0  0  0  0  0  0  0  0
    1.9265    1.6105    0.7457 H   0  0  0  0  0  0  0  0  0  0  0  0
    0.4473   -0.2110    1.3262 C   0  0  0  0  0  0  0  0  0  0  0  0
    1.6159   -0.0538    1.6567 O   0  0  0  0  0  0  0  0  0  0  0  0
   -0.5469    0.3115    2.1322 N   0  0  0  0  0  0  0  0  0  0  0  0
   -1.5042    0.1172    1.8561 H   0  0  0  0  0  0  0  0  0  0  0  0
   -0.2957    0.8547    3.4612 C   0  0  0  0  0  0  0  0  0  0  0  0
    0.3703    1.7220    3.4008 H   0  0  0  0  0  0  0  0  0  0  0  0
   -1.2350    1.1742    3.9226 H   0  0  0  0  0  0  0  0  0  0  0  0
    0.1668    0.0979    4.1036 H   0  0  0  0  0  0  0  0  0  0  0  0
  1  2  1  0  0  0  0
  2  3  1  0  0  0  0
  2  4  1  0  0  0  0
  2  5  1  0  0  0  0
  5  6  2  0  0  0  0
  5  7  1  0  0  0  0
  7  8  1  0  0  0  0
  7  9  1  0  0  0  0
  9 10  1  0  0  0  0
  9 11  1  0  0  0  0
  9 22  1  0  0  0  0
 11 12  1  0  0  0  0
 11 13  1  0  0  0  0
 11 14  1  0  0  0  0
 14 15  1  0  0  0  0
 14 16  1  0  0  0  0
 14 17  1  0  0  0  0
 17 18  2  0  0  0  0
 17 19  1  0  0  0  0
 19 20  1  0  0  0  0
 19 21  1  0  0  0  0
 22 23  2  0  0  0  0
 22 24  1  0  0  0  0
 24 25  1  0  0  0  0
 24 26  1  0  0  0  0
 26 27  1  0  0  0  0
 26 28  1  0  0  0  0
 26 29  1  0  0  0  0
M  END
$$$$

  -OEChem-02102214123D

 29 28  0     1  0  0  0  0  0999 V2000
   -2.5621   -4.3451    0.4891 H   0  0  0  0  0  0  0  0  0  0  0  0
   -2.5580   -3.4129   -0.0832 C   0  0  0  0  0  0  0  0  0  0  0  0
   -3.4512   -2.8389    0.1748 H   0  0  0  0  0  0  0  0  0  0  0  0
   -2.5826   -3.6552   -1.1484 H   0  0  0  0  0  0  0  0  0  0  0  0
   -1.3112   -2.6100    0.2373 C   0  0  0  0  0  0  0  0  0  0  0  0
   -0.4869   -3.0506    1.0181 O   0  0  0  0  0  0  0  0  0  0  0  0
   -1.1230   -1.3696   -0.3414 N   0  0  0  0  0  0  0  0  0  0  0  0
   -1.8159   -1.0731   -1.0228 H   0  0  0  0  0  0  0  0  0  0  0  0
    0.1031   -0.5645   -0.1917 C   0  0  1  0  0  0  0  0  0  0  0  0
    0.9202   -1.2260   -0.5032 H   0  0  0  0  0  0  0  0  0  0  0  0
    0.1069    0.5993   -1.2103 C   0  0  0  0  0  0  0  0  0  0  0  0
    1.1474    0.8040   -1.4894 H   0  0  0  0  0  0  0  0  0  0  0  0
   -0.3968    0.2687   -2.1246 H   0  0  0  0  0  0  0  0  0  0  0  0
   -0.5412    1.9177   -0.7324 C   0  0  0  0  0  0  0  0  0  0  0  0
   -1.1630    2.3075   -1.5441 H   0  0  0  0  0  0  0  0  0  0  0  0
   -1.2060    1.7566    0.1172 H   0  0  0  0  0  0  0  0  0  0  0  0
    0.4864    2.9953   -0.3884 C   0  0  0  0  0  0  0  0  0  0  0  0
    0.5525    4.0229   -1.0352 O   0  0  0  0  0  0  0  0  0  0  0  0
    1.3618    2.8880    0.6536 N   0  0  0  0  0  0  0  0  0  0  0  0
    2.1066    3.5770    0.6764 H   0  0  0  0  0  0  0  0  0  0  0  0
    1.5184    1.9678    1.0709 H   0  0  0  0  0  0  0  0  0  0  0  0
    0.4686   -0.1695    1.2582 C   0  0  0  0  0  0  0  0  0  0  0  0
    1.6374    0.0890    1.5164 O   0  0  0  0  0  0  0  0  0  0  0  0
   -0.5024    0.3021    2.1230 N   0  0  0  0  0  0  0  0  0  0  0  0
   -1.4553    0.0183    1.9173 H   0  0  0  0  0  0  0  0  0  0  0  0
   -0.2029    0.8124    3.4559 C   0  0  0  0  0  0  0  0  0  0  0  0
    0.4442    1.6935    3.3944 H   0  0  0  0  0  0  0  0  0  0  0  0
   -1.1270    1.1008    3.9660 H   0  0  0  0  0  0  0  0  0  0  0  0
    0.3001    0.0462    4.0552 H   0  0  0  0  0  0  0  0  0  0  0  0
  1  2  1  0  0  0  0
  2  3  1  0  0  0  0
  2  4  1  0  0  0  0
  2  5  1  0  0  0  0
  5  6  2  0  0  0  0
  5  7  1  0  0  0  0
  7  8  1  0  0  0  0
  7  9  1  0  0  0  0
  9 10  1  0  0  0  0
  9 11  1  0  0  0  0
  9 22  1  0  0  0  0
 11 12  1  0  0  0  0
 11 13  1  0  0  0  0
 11 14  1  0  0  0  0
 14 15  1  0  0  0  0
 14 16  1  0  0  0  0
 14 17  1  0  0  0  0
 17 18  2  0  0  0  0
 17 19  1  0  0  0  0
 19 20  1  0  0  0  0
 19 21  1  0  0  0  0
 22 23  2  0  0  0  0
 22 24  1  0  0  0  0
 24 25  1  0  0  0  0
 24 26  1  0  0  0  0
 26 27  1  0  0  0  0
 26 28  1  0  0  0  0
 26 29  1  0  0  0  0
M  END
$$$$

  -OEChem-02102214123D

 29 28  0     1  0  0  0  0  0999 V2000
   -2.4061   -4.4610    0.4036 H   0  0  0  0  0  0  0  0  0  0  0  0
   -2.4642   -3.5108   -0.1351 C   0  0  0  0  0  0  0  0  0  0  0  0
   -3.3840   -2.9980    0.1559 H   0  0  0  0  0  0  0  0  0  0  0  0
   -2.4927   -3.7171   -1.2078 H   0  0  0  0  0  0  0  0  0  0  0  0
   -1.2598   -2.6493    0.1951 C   0  0  0  0  0  0  0  0  0  0  0  0
   -0.4009   -3.0649    0.9522 O   0  0  0  0  0  0  0  0  0  0  0  0
   -1.1501   -1.3823   -0.3442 N   0  0  0  0  0  0  0  0  0  0  0  0
   -1.8693   -1.1023   -1.0052 H   0  0  0  0  0  0  0  0  0  0  0  0
    0.0373   -0.5225   -0.1964 C   0  0  1  0  0  0  0  0  0  0  0  0
    0.8679   -1.1537   -0.5341 H   0  0  0  0  0  0  0  0  0  0  0  0
    0.0238    0.6589   -1.1883 C   0  0  0  0  0  0  0  0  0  0  0  0
    1.0661    0.8886   -1.4407 H   0  0  0  0  0  0  0  0  0  0  0  0
   -0.4532    0.3416   -2.1212 H   0  0  0  0  0  0  0  0  0  0  0  0
   -0.6677    1.9435   -0.6788 C   0  0  0  0  0  0  0  0  0  0  0  0
   -1.4857    2.1971   -1.3598 H   0  0  0  0  0  0  0  0  0  0  0  0
   -1.1132    1.8258    0.3076 H   0  0  0  0  0  0  0  0  0  0  0  0
    0.3089    3.1112   -0.6542 C   0  0  0  0  0  0  0  0  0  0  0  0
    0.2374    4.0259   -1.4521 O   0  0  0  0  0  0  0  0  0  0  0  0
    1.3230    3.1534    0.2604 N   0  0  0  0  0  0  0  0  0  0  0  0
    2.0446    3.8486    0.0978 H   0  0  0  0  0  0  0  0  0  0  0  0
    1.5458    2.3015    0.7796 H   0  0  0  0  0  0  0  0  0  0  0  0
    0.4480   -0.1408    1.2470 C   0  0  0  0  0  0  0  0  0  0  0  0
    1.5984    0.2403    1.4312 O   0  0  0  0  0  0  0  0  0  0  0  0
   -0.5053    0.2618    2.1655 N   0  0  0  0  0  0  0  0  0  0  0  0
   -1.4435   -0.0963    2.0152 H   0  0  0  0  0  0  0  0  0  0  0  0
   -0.1697    0.7993    3.4790 C   0  0  0  0  0  0  0  0  0  0  0  0
    0.4089    1.7237    3.3798 H   0  0  0  0  0  0  0  0  0  0  0  0
   -1.0819    1.0244    4.0396 H   0  0  0  0  0  0  0  0  0  0  0  0
    0.4190    0.0739    4.0504 H   0  0  0  0  0  0  0  0  0  0  0  0
  1  2  1  0  0  0  0
  2  3  1  0  0  0  0
  2  4  1  0  0  0  0
  2  5  1  0  0  0  0
  5  6  2  0  0  0  0
  5  7  1  0  0  0  0
  7  8  1  0  0  0  0
  7  9  1  0  0  0  0
  9 10  1  0  0  0  0
  9 11  1  0  0  0  0
  9 22  1  0  0  0  0
 11 12  1  0  0  0  0
 11 13  1  0  0  0  0
 11 14  1  0  0  0  0
 14 15  1  0  0  0  0
 14 16  1  0  0  0  0
 14 17  1  0  0  0  0
 17 18  2  0  0  0  0
 17 19  1  0  0  0  0
 19 20  1  0  0  0  0
 19 21  1  0  0  0  0
 22 23  2  0  0  0  0
 22 24  1  0  0  0  0
 24 25  1  0  0  0  0
 24 26  1  0  0  0  0
 26 27  1  0  0  0  0
 26 28  1  0  0  0  0
 26 29  1  0  0  0  0
M  END
$$$$

  -OEChem-02102214123D

 29 28  0     1  0  0  0  0  0999 V2000
   -2.3455   -4.5002    0.3536 H   0  0  0  0  0  0  0  0  0  0  0  0
   -2.4243   -3.5398   -0.1641 C   0  0  0  0  0  0  0  0  0  0  0  0
   -3.3463   -3.0458    0.1514 H   0  0  0  0  0  0  0  0  0  0  0  0
   -2.4661   -3.7237   -1.2405 H   0  0  0  0  0  0  0  0  0  0  0  0
   -1.2273   -2.6687    0.1671 C   0  0  0  0  0  0  0  0  0  0  0  0
   -0.3442   -3.0948    0.8896 O   0  0  0  0  0  0  0  0  0  0  0  0
   -1.1501   -1.3849   -0.3369 N   0  0  0  0  0  0  0  0  0  0  0  0
   -1.8877   -1.0989   -0.9747 H   0  0  0  0  0  0  0  0  0  0  0  0
    0.0267   -0.5100   -0.1921 C   0  0  1  0  0  0  0  0  0  0  0  0
    0.8614   -1.1132   -0.5690 H   0  0  0  0  0  0  0  0  0  0  0  0
   -0.0508    0.6937   -1.1551 C   0  0  0  0  0  0  0  0  0  0  0  0
    0.9854    0.9533   -1.4021 H   0  0  0  0  0  0  0  0  0  0  0  0
   -0.5239    0.3914   -2.0951 H   0  0  0  0  0  0  0  0  0  0  0  0
   -0.7543    1.9606   -0.6155 C   0  0  0  0  0  0  0  0  0  0  0  0
   -1.7497    2.0419   -1.0616 H   0  0  0  0  0  0  0  0  0  0  0  0
   -0.8918    1.9409    0.4637 H   0  0  0  0  0  0  0  0  0  0  0  0
    0.0491    3.2087   -0.9481 C   0  0  0  0  0  0  0  0  0  0  0  0
   -0.2278    3.9136   -1.8991 O   0  0  0  0  0  0  0  0  0  0  0  0
    1.1491    3.5509   -0.2145 N   0  0  0  0  0  0  0  0  0  0  0  0
    1.7468    4.2698   -0.6108 H   0  0  0  0  0  0  0  0  0  0  0  0
    1.5347    2.8653    0.4321 H   0  0  0  0  0  0  0  0  0  0  0  0
    0.4597   -0.1679    1.2537 C   0  0  0  0  0  0  0  0  0  0  0  0
    1.6189    0.1797    1.4433 O   0  0  0  0  0  0  0  0  0  0  0  0
   -0.4840    0.1897    2.2006 N   0  0  0  0  0  0  0  0  0  0  0  0
   -1.4249   -0.1566    2.0399 H   0  0  0  0  0  0  0  0  0  0  0  0
   -0.1326    0.6548    3.5370 C   0  0  0  0  0  0  0  0  0  0  0  0
    0.4930    1.5519    3.4809 H   0  0  0  0  0  0  0  0  0  0  0  0
   -1.0373    0.9032    4.0997 H   0  0  0  0  0  0  0  0  0  0  0  0
    0.4139   -0.1228    4.0809 H   0  0  0  0  0  0  0  0  0  0  0  0
  1  2  1  0  0  0  0
  2  3  1  0  0  0  0
  2  4  1  0  0  0  0
  2  5  1  0  0  0  0
  5  6  2  0  0  0  0
  5  7  1  0  0  0  0
  7  8  1  0  0  0  0
  7  9  1  0  0  0  0
  9 10  1  0  0  0  0
  9 11  1  0  0  0  0
  9 22  1  0  0  0  0
 11 12  1  0  0  0  0
 11 13  1  0  0  0  0
 11 14  1  0  0  0  0
 14 15  1  0  0  0  0
 14 16  1  0  0  0  0
 14 17  1  0  0  0  0
 17 18  2  0  0  0  0
 17 19  1  0  0  0  0
 19 20  1  0  0  0  0
 19 21  1  0  0  0  0
 22 23  2  0  0  0  0
 22 24  1  0  0  0  0
 24 25  1  0  0  0  0
 24 26  1  0  0  0  0
 26 27  1  0  0  0  0
 26 28  1  0  0  0  0
 26 29  1  0  0  0  0
M  END
$$$$

  -OEChem-02102214123D

 29 28  0     1  0  0  0  0  0999 V2000
   -2.3325   -4.5061    0.3349 H   0  0  0  0  0  0  0  0  0  0  0  0
   -2.4157   -3.5404   -0.1719 C   0  0  0  0  0  0  0  0  0  0  0  0
   -3.3324   -3.0472    0.1601 H   0  0  0  0  0  0  0  0  0  0  0  0
   -2.4715   -3.7134   -1.2494 H   0  0  0  0  0  0  0  0  0  0  0  0
   -1.2121   -2.6760    0.1530 C   0  0  0  0  0  0  0  0  0  0  0  0
   -0.3195   -3.1149    0.8559 O   0  0  0  0  0  0  0  0  0  0  0  0
   -1.1409   -1.3851   -0.3339 N   0  0  0  0  0  0  0  0  0  0  0  0
   -1.8870   -1.0904   -0.9576 H   0  0  0  0  0  0  0  0  0  0  0  0
    0.0386   -0.5120   -0.1954 C   0  0  1  0  0  0  0  0  0  0  0  0
    0.8728   -1.0944   -0.6041 H   0  0  0  0  0  0  0  0  0  0  0  0
   -0.0946    0.7140   -1.1258 C   0  0  0  0  0  0  0  0  0  0  0  0
    0.9295    1.0024   -1.3910 H   0  0  0  0  0  0  0  0  0  0  0  0
   -0.5895    0.4302   -2.0606 H   0  0  0  0  0  0  0  0  0  0  0  0
   -0.7932    1.9560   -0.5302 C   0  0  0  0  0  0  0  0  0  0  0  0
   -1.8730    1.8904   -0.6903 H   0  0  0  0  0  0  0  0  0  0  0  0
   -0.6251    2.0460    0.5426 H   0  0  0  0  0  0  0  0  0  0  0  0
   -0.2516    3.2299   -1.1616 C   0  0  0  0  0  0  0  0  0  0  0  0
   -0.7397    3.6930   -2.1740 O   0  0  0  0  0  0  0  0  0  0  0  0
    0.8504    3.8622   -0.6610 N   0  0  0  0  0  0  0  0  0  0  0  0
    1.2646    4.5781   -1.2507 H   0  0  0  0  0  0  0  0  0  0  0  0
    1.4144    3.3837    0.0362 H   0  0  0  0  0  0  0  0  0  0  0  0
    0.4787   -0.2012    1.2546 C   0  0  0  0  0  0  0  0  0  0  0  0
    1.6482    0.0958    1.4616 O   0  0  0  0  0  0  0  0  0  0  0  0
   -0.4620    0.1367    2.2119 N   0  0  0  0  0  0  0  0  0  0  0  0
   -1.4096   -0.1804    2.0328 H   0  0  0  0  0  0  0  0  0  0  0  0
   -0.1032    0.5284    3.5693 C   0  0  0  0  0  0  0  0  0  0  0  0
    0.5144    1.4326    3.5574 H   0  0  0  0  0  0  0  0  0  0  0  0
   -1.0046    0.7361    4.1538 H   0  0  0  0  0  0  0  0  0  0  0  0
    0.4551   -0.2739    4.0635 H   0  0  0  0  0  0  0  0  0  0  0  0
  1  2  1  0  0  0  0
  2  3  1  0  0  0  0
  2  4  1  0  0  0  0
  2  5  1  0  0  0  0
  5  6  2  0  0  0  0
  5  7  1  0  0  0  0
  7  8  1  0  0  0  0
  7  9  1  0  0  0  0
  9 10  1  0  0  0  0
  9 11  1  0  0  0  0
  9 22  1  0  0  0  0
 11 12  1  0  0  0  0
 11 13  1  0  0  0  0
 11 14  1  0  0  0  0
 14 15  1  0  0  0  0
 14 16  1  0  0  0  0
 14 17  1  0  0  0  0
 17 18  2  0  0  0  0
 17 19  1  0  0  0  0
 19 20  1  0  0  0  0
 19 21  1  0  0  0  0
 22 23  2  0  0  0  0
 22 24  1  0  0  0  0
 24 25  1  0  0  0  0
 24 26  1  0  0  0  0
 26 27  1  0  0  0  0
 26 28  1  0  0  0  0
 26 29  1  0  0  0  0
M  END
$$$$

  -OEChem-02102214123D

 29 28  0     1  0  0  0  0  0999 V2000
   -2.3680   -4.4945    0.3341 H   0  0  0  0  0  0  0  0  0  0  0  0
   -2.4339   -3.5329   -0.1830 C   0  0  0  0  0  0  0  0  0  0  0  0
   -3.3437   -3.0218    0.1409 H   0  0  0  0  0  0  0  0  0  0  0  0
   -2.4892   -3.7159   -1.2589 H   0  0  0  0  0  0  0  0  0  0  0  0
   -1.2175   -2.6844    0.1367 C   0  0  0  0  0  0  0  0  0  0  0  0
   -0.3218   -3.1404    0.8244 O   0  0  0  0  0  0  0  0  0  0  0  0
   -1.1388   -1.3898   -0.3387 N   0  0  0  0  0  0  0  0  0  0  0  0
   -1.8860   -1.0850   -0.9564 H   0  0  0  0  0  0  0  0  0  0  0  0
    0.0509   -0.5293   -0.2065 C   0  0  1  0  0  0  0  0  0  0  0  0
    0.8771   -1.1022   -0.6433 H   0  0  0  0  0  0  0  0  0  0  0  0
   -0.1146    0.7192   -1.1002 C   0  0  0  0  0  0  0  0  0  0  0  0
    0.8944    1.0272   -1.3978 H   0  0  0  0  0  0  0  0  0  0  0  0
   -0.6498    0.4580   -2.0197 H   0  0  0  0  0  0  0  0  0  0  0  0
   -0.7944    1.9318   -0.4341 C   0  0  0  0  0  0  0  0  0  0  0  0
   -1.8661    1.7480   -0.3183 H   0  0  0  0  0  0  0  0  0  0  0  0
   -0.3772    2.1267    0.5556 H   0  0  0  0  0  0  0  0  0  0  0  0
   -0.5740    3.1859   -1.2661 C   0  0  0  0  0  0  0  0  0  0  0  0
   -1.2415    3.4100   -2.2571 O   0  0  0  0  0  0  0  0  0  0  0  0
    0.4357    4.0638   -0.9939 N   0  0  0  0  0  0  0  0  0  0  0  0
    0.6376    4.7527   -1.7125 H   0  0  0  0  0  0  0  0  0  0  0  0
    1.1502    3.7989   -0.3227 H   0  0  0  0  0  0  0  0  0  0  0  0
    0.5069   -0.2397    1.2428 C   0  0  0  0  0  0  0  0  0  0  0  0
    1.6846    0.0213    1.4512 O   0  0  0  0  0  0  0  0  0  0  0  0
   -0.4241    0.0966    2.2100 N   0  0  0  0  0  0  0  0  0  0  0  0
   -1.3766   -0.2050    2.0306 H   0  0  0  0  0  0  0  0  0  0  0  0
   -0.0520    0.4585    3.5721 C   0  0  0  0  0  0  0  0  0  0  0  0
    0.5745    1.3566    3.5731 H   0  0  0  0  0  0  0  0  0  0  0  0
   -0.9468    0.6633    4.1675 H   0  0  0  0  0  0  0  0  0  0  0  0
    0.5020   -0.3581    4.0470 H   0  0  0  0  0  0  0  0  0  0  0  0
  1  2  1  0  0  0  0
  2  3  1  0  0  0  0
  2  4  1  0  0  0  0
  2  5  1  0  0  0  0
  5  6  2  0  0  0  0
  5  7  1  0  0  0  0
  7  8  1  0  0  0  0
  7  9  1  0  0  0  0
  9 10  1  0  0  0  0
  9 11  1  0  0  0  0
  9 22  1  0  0  0  0
 11 12  1  0  0  0  0
 11 13  1  0  0  0  0
 11 14  1  0  0  0  0
 14 15  1  0  0  0  0
 14 16  1  0  0  0  0
 14 17  1  0  0  0  0
 17 18  2  0  0  0  0
 17 19  1  0  0  0  0
 19 20  1  0  0  0  0
 19 21  1  0  0  0  0
 22 23  2  0  0  0  0
 22 24  1  0  0  0  0
 24 25  1  0  0  0  0
 24 26  1  0  0  0  0
 26 27  1  0  0  0  0
 26 28  1  0  0  0  0
 26 29  1  0  0  0  0
M  END
$$$$

  -OEChem-02102214123D

 29 28  0     1  0  0  0  0  0999 V2000
   -2.4850   -4.4416    0.3226 H   0  0  0  0  0  0  0  0  0  0  0  0
   -2.5205   -3.4700   -0.1787 C   0  0  0  0  0  0  0  0  0  0  0  0
   -3.4056   -2.9297    0.1655 H   0  0  0  0  0  0  0  0  0  0  0  0
   -2.5967   -3.6339   -1.2564 H   0  0  0  0  0  0  0  0  0  0  0  0
   -1.2676   -2.6744    0.1365 C   0  0  0  0  0  0  0  0  0  0  0  0
   -0.3850   -3.1736    0.8110 O   0  0  0  0  0  0  0  0  0  0  0  0
   -1.1384   -1.3822   -0.3345 N   0  0  0  0  0  0  0  0  0  0  0  0
   -1.8791   -1.0424   -0.9421 H   0  0  0  0  0  0  0  0  0  0  0  0
    0.0873   -0.5710   -0.2095 C   0  0  1  0  0  0  0  0  0  0  0  0
    0.8876   -1.1706   -0.6586 H   0  0  0  0  0  0  0  0  0  0  0  0
   -0.0485    0.6950   -1.0895 C   0  0  0  0  0  0  0  0  0  0  0  0
    0.8960    0.8245   -1.6298 H   0  0  0  0  0  0  0  0  0  0  0  0
   -0.8265    0.5408   -1.8453 H   0  0  0  0  0  0  0  0  0  0  0  0
   -0.3264    2.0041   -0.3241 C   0  0  0  0  0  0  0  0  0  0  0  0
   -1.2590    1.9199    0.2400 H   0  0  0  0  0  0  0  0  0  0  0  0
    0.4820    2.2088    0.3835 H   0  0  0  0  0  0  0  0  0  0  0  0
   -0.4428    3.1849   -1.2792 C   0  0  0  0  0  0  0  0  0  0  0  0
   -1.2253    3.1767   -2.2109 O   0  0  0  0  0  0  0  0  0  0  0  0
    0.3703    4.2773   -1.1800 N   0  0  0  0  0  0  0  0  0  0  0  0
    0.3582    4.9180   -1.9682 H   0  0  0  0  0  0  0  0  0  0  0  0
    1.1769    4.2365   -0.5650 H   0  0  0  0  0  0  0  0  0  0  0  0
    0.5601   -0.3102    1.2404 C   0  0  0  0  0  0  0  0  0  0  0  0
    1.7520   -0.1331    1.4575 O   0  0  0  0  0  0  0  0  0  0  0  0
   -0.3531    0.0586    2.2124 N   0  0  0  0  0  0  0  0  0  0  0  0
   -1.3214   -0.1787    2.0223 H   0  0  0  0  0  0  0  0  0  0  0  0
    0.0352    0.3609    3.5843 C   0  0  0  0  0  0  0  0  0  0  0  0
    0.7056    1.2263    3.6114 H   0  0  0  0  0  0  0  0  0  0  0  0
   -0.8494    0.5912    4.1856 H   0  0  0  0  0  0  0  0  0  0  0  0
    0.5480   -0.4960    4.0341 H   0  0  0  0  0  0  0  0  0  0  0  0
  1  2  1  0  0  0  0
  2  3  1  0  0  0  0
  2  4  1  0  0  0  0
  2  5  1  0  0  0  0
  5  6  2  0  0  0  0
  5  7  1  0  0  0  0
  7  8  1  0  0  0  0
  7  9  1  0  0  0  0
  9 10  1  0  0  0  0
  9 11  1  0  0  0  0
  9 22  1  0  0  0  0
 11 12  1  0  0  0  0
 11 13  1  0  0  0  0
 11 14  1  0  0  0  0
 14 15  1  0  0  0  0
 14 16  1  0  0  0  0
 14 17  1  0  0  0  0
 17 18  2  0  0  0  0
 17 19  1  0  0  0  0
 19 20  1  0  0  0  0
 19 21  1  0  0  0  0
 22 23  2  0  0  0  0
 22 24  1  0  0  0  0
 24 25  1  0  0  0  0
 24 26  1  0  0  0  0
 26 27  1  0  0  0  0
 26 28  1  0  0  0  0
 26 29  1  0  0  0  0
M  END
$$$$

  -OEChem-02102214123D

 29 28  0     1  0  0  0  0  0999 V2000
   -2.4874   -4.4465    0.2636 H   0  0  0  0  0  0  0  0  0  0  0  0
   -2.5387   -3.4521   -0.1889 C   0  0  0  0  0  0  0  0  0  0  0  0
   -3.4005   -2.9222    0.2238 H   0  0  0  0  0  0  0  0  0  0  0  0
   -2.6697   -3.5635   -1.2679 H   0  0  0  0  0  0  0  0  0  0  0  0
   -1.2653   -2.6803    0.1018 C   0  0  0  0  0  0  0  0  0  0  0  0
   -0.3659   -3.2056    0.7334 O   0  0  0  0  0  0  0  0  0  0  0  0
   -1.1387   -1.3764   -0.3357 N   0  0  0  0  0  0  0  0  0  0  0  0
   -1.9023   -1.0041   -0.8944 H   0  0  0  0  0  0  0  0  0  0  0  0
    0.0858   -0.5665   -0.1972 C   0  0  1  0  0  0  0  0  0  0  0  0
    0.8813   -1.1614   -0.6610 H   0  0  0  0  0  0  0  0  0  0  0  0
   -0.0384    0.7133   -1.0573 C   0  0  0  0  0  0  0  0  0  0  0  0
    0.9021    0.8526   -1.6015 H   0  0  0  0  0  0  0  0  0  0  0  0
   -0.8199    0.5652   -1.8109 H   0  0  0  0  0  0  0  0  0  0  0  0
   -0.3156    2.0060   -0.2641 C   0  0  0  0  0  0  0  0  0  0  0  0
   -1.1130    1.8358    0.4636 H   0  0  0  0  0  0  0  0  0  0  0  0
    0.5816    2.3131    0.2815 H   0  0  0  0  0  0  0  0  0  0  0  0
   -0.7806    3.1322   -1.1776 C   0  0  0  0  0  0  0  0  0  0  0  0
   -1.7726    3.0209   -1.8737 O   0  0  0  0  0  0  0  0  0  0  0  0
   -0.0741    4.2934   -1.3079 N   0  0  0  0  0  0  0  0  0  0  0  0
   -0.3505    4.9093   -2.0670 H   0  0  0  0  0  0  0  0  0  0  0  0
    0.8552    4.3568   -0.9049 H   0  0  0  0  0  0  0  0  0  0  0  0
    0.5742   -0.3370    1.2530 C   0  0  0  0  0  0  0  0  0  0  0  0
    1.7687   -0.1651    1.4590 O   0  0  0  0  0  0  0  0  0  0  0  0
   -0.3257    0.0076    2.2460 N   0  0  0  0  0  0  0  0  0  0  0  0
   -1.2973   -0.2220    2.0629 H   0  0  0  0  0  0  0  0  0  0  0  0
    0.0795    0.2867    3.6178 C   0  0  0  0  0  0  0  0  0  0  0  0
    0.7684    1.1374    3.6496 H   0  0  0  0  0  0  0  0  0  0  0  0
   -0.7954    0.5301    4.2280 H   0  0  0  0  0  0  0  0  0  0  0  0
    0.5765   -0.5860    4.0545 H   0  0  0  0  0  0  0  0  0  0  0  0
  1  2  1  0  0  0  0
  2  3  1  0  0  0  0
  2  4  1  0  0  0  0
  2  5  1  0  0  0  0
  5  6  2  0  0  0  0
  5  7  1  0  0  0  0
  7  8  1  0  0  0  0
  7  9  1  0  0  0  0
  9 10  1  0  0  0  0
  9 11  1  0  0  0  0
  9 22  1  0  0  0  0
 11 12  1  0  0  0  0
 11 13  1  0  0  0  0
 11 14  1  0  0  0  0
 14 15  1  0  0  0  0
 14 16  1  0  0  0  0
 14 17  1  0  0  0  0
 17 18  2  0  0  0  0
 17 19  1  0  0  0  0
 19 20  1  0  0  0  0
 19 21  1  0  0  0  0
 22 23  2  0  0  0  0
 22 24  1  0  0  0  0
 24 25  1  0  0  0  0
 24 26  1  0  0  0  0
 26 27  1  0  0  0  0
 26 28  1  0  0  0  0
 26 29  1  0  0  0  0
M  END
$$$$

  -OEChem-02102214123D

 29 28  0     1  0  0  0  0  0999 V2000
   -2.5302   -4.4192    0.2232 H   0  0  0  0  0  0  0  0  0  0  0  0
   -2.5720   -3.4154   -0.2090 C   0  0  0  0  0  0  0  0  0  0  0  0
   -3.4163   -2.8787    0.2304 H   0  0  0  0  0  0  0  0  0  0  0  0
   -2.7255   -3.5033   -1.2873 H   0  0  0  0  0  0  0  0  0  0  0  0
   -1.2791   -2.6723    0.0705 C   0  0  0  0  0  0  0  0  0  0  0  0
   -0.3664   -3.2348    0.6487 O   0  0  0  0  0  0  0  0  0  0  0  0
   -1.1473   -1.3545   -0.3205 N   0  0  0  0  0  0  0  0  0  0  0  0
   -1.9335   -0.9390   -0.8140 H   0  0  0  0  0  0  0  0  0  0  0  0
    0.0830   -0.5569   -0.1677 C   0  0  1  0  0  0  0  0  0  0  0  0
    0.8669   -1.1517   -0.6510 H   0  0  0  0  0  0  0  0  0  0  0  0
   -0.0239    0.7357   -1.0109 C   0  0  0  0  0  0  0  0  0  0  0  0
    0.9188    0.8719   -1.5520 H   0  0  0  0  0  0  0  0  0  0  0  0
   -0.8007    0.5951   -1.7708 H   0  0  0  0  0  0  0  0  0  0  0  0
   -0.2929    2.0303   -0.2137 C   0  0  0  0  0  0  0  0  0  0  0  0
   -0.9097    1.8203    0.6619 H   0  0  0  0  0  0  0  0  0  0  0  0
    0.6503    2.4605    0.1356 H   0  0  0  0  0  0  0  0  0  0  0  0
   -1.0759    3.0426   -1.0397 C   0  0  0  0  0  0  0  0  0  0  0  0
   -2.1831    2.7867   -1.4759 O   0  0  0  0  0  0  0  0  0  0  0  0
   -0.5507    4.2536   -1.3886 N   0  0  0  0  0  0  0  0  0  0  0  0
   -1.0638    4.7896   -2.0825 H   0  0  0  0  0  0  0  0  0  0  0  0
    0.4304    4.4422   -1.2111 H   0  0  0  0  0  0  0  0  0  0  0  0
    0.5973   -0.3766    1.2809 C   0  0  0  0  0  0  0  0  0  0  0  0
    1.7969   -0.2217    1.4705 O   0  0  0  0  0  0  0  0  0  0  0  0
   -0.2792   -0.0603    2.3039 N   0  0  0  0  0  0  0  0  0  0  0  0
   -1.2588   -0.2632    2.1315 H   0  0  0  0  0  0  0  0  0  0  0  0
    0.1556    0.1790    3.6742 C   0  0  0  0  0  0  0  0  0  0  0  0
    0.8237    1.0454    3.7189 H   0  0  0  0  0  0  0  0  0  0  0  0
   -0.7087    0.3767    4.3154 H   0  0  0  0  0  0  0  0  0  0  0  0
    0.6856   -0.6956    4.0660 H   0  0  0  0  0  0  0  0  0  0  0  0
  1  2  1  0  0  0  0
  2  3  1  0  0  0  0
  2  4  1  0  0  0  0
  2  5  1  0  0  0  0
  5  6  2  0  0  0  0
  5  7  1  0  0  0  0
  7  8  1  0  0  0  0
  7  9  1  0  0  0  0
  9 10  1  0  0  0  0
  9 11  1  0  0  0  0
  9 22  1  0  0  0  0
 11 12  1  0  0  0  0
 11 13  1  0  0  0  0
 11 14  1  0  0  0  0
 14 15  1  0  0  0  0
 14 16  1  0  0  0  0
 14 17  1  0  0  0  0
 17 18  2  0  0  0  0
 17 19  1  0  0  0  0
 19 20  1  0  0  0  0
 19 21  1  0  0  0  0
 22 23  2  0  0  0  0
 22 24  1  0  0  0  0
 24 25  1  0  0  0  0
 24 26  1  0  0  0  0
 26 27  1  0  0  0  0
 26 28  1  0  0  0  0
 26 29  1  0  0  0  0
M  END
$$$$

  -OEChem-02102214123D

 29 28  0     1  0  0  0  0  0999 V2000
   -2.5950   -4.3731    0.2473 H   0  0  0  0  0  0  0  0  0  0  0  0
   -2.6249   -3.3603   -0.1645 C   0  0  0  0  0  0  0  0  0  0  0  0
   -3.4244   -2.8037    0.3299 H   0  0  0  0  0  0  0  0  0  0  0  0
   -2.8398   -3.4216   -1.2341 H   0  0  0  0  0  0  0  0  0  0  0  0
   -1.2939   -2.6669    0.0571 C   0  0  0  0  0  0  0  0  0  0  0  0
   -0.3716   -3.2709    0.5753 O   0  0  0  0  0  0  0  0  0  0  0  0
   -1.1386   -1.3463   -0.3150 N   0  0  0  0  0  0  0  0  0  0  0  0
   -1.9438   -0.8846   -0.7320 H   0  0  0  0  0  0  0  0  0  0  0  0
    0.1087   -0.5758   -0.1651 C   0  0  1  0  0  0  0  0  0  0  0  0
    0.8759   -1.1824   -0.6604 H   0  0  0  0  0  0  0  0  0  0  0  0
    0.0179    0.7205   -1.0062 C   0  0  0  0  0  0  0  0  0  0  0  0
    0.9658    0.8346   -1.5429 H   0  0  0  0  0  0  0  0  0  0  0  0
   -0.7511    0.5876   -1.7755 H   0  0  0  0  0  0  0  0  0  0  0  0
   -0.2237    2.0363   -0.2287 C   0  0  0  0  0  0  0  0  0  0  0  0
   -0.5882    1.8498    0.7806 H   0  0  0  0  0  0  0  0  0  0  0  0
    0.7145    2.5917   -0.1417 H   0  0  0  0  0  0  0  0  0  0  0  0
   -1.2868    2.8902   -0.9066 C   0  0  0  0  0  0  0  0  0  0  0  0
   -2.4218    2.4781   -1.0635 O   0  0  0  0  0  0  0  0  0  0  0  0
   -1.0118    4.1288   -1.4111 N   0  0  0  0  0  0  0  0  0  0  0  0
   -1.8099    4.6798   -1.7142 H   0  0  0  0  0  0  0  0  0  0  0  0
   -0.1398    4.5832   -1.1604 H   0  0  0  0  0  0  0  0  0  0  0  0
    0.6364   -0.4322    1.2826 C   0  0  0  0  0  0  0  0  0  0  0  0
    1.8402   -0.3133    1.4699 O   0  0  0  0  0  0  0  0  0  0  0  0
   -0.2279   -0.1168    2.3167 N   0  0  0  0  0  0  0  0  0  0  0  0
   -1.2157   -0.2695    2.1391 H   0  0  0  0  0  0  0  0  0  0  0  0
    0.2154    0.0926    3.6891 C   0  0  0  0  0  0  0  0  0  0  0  0
    0.9132    0.9346    3.7432 H   0  0  0  0  0  0  0  0  0  0  0  0
   -0.6407    0.3141    4.3335 H   0  0  0  0  0  0  0  0  0  0  0  0
    0.7149   -0.8043    4.0700 H   0  0  0  0  0  0  0  0  0  0  0  0
  1  2  1  0  0  0  0
  2  3  1  0  0  0  0
  2  4  1  0  0  0  0
  2  5  1  0  0  0  0
  5  6  2  0  0  0  0
  5  7  1  0  0  0  0
  7  8  1  0  0  0  0
  7  9  1  0  0  0  0
  9 10  1  0  0  0  0
  9 11  1  0  0  0  0
  9 22  1  0  0  0  0
 11 12  1  0  0  0  0
 11 13  1  0  0  0  0
 11 14  1  0  0  0  0
 14 15  1  0  0  0  0
 14 16  1  0  0  0  0
 14 17  1  0  0  0  0
 17 18  2  0  0  0  0
 17 19  1  0  0  0  0
 19 20  1  0  0  0  0
 19 21  1  0  0  0  0
 22 23  2  0  0  0  0
 22 24  1  0  0  0  0
 24 25  1  0  0  0  0
 24 26  1  0  0  0  0
 26 27  1  0  0  0  0
 26 28  1  0  0  0  0
 26 29  1  0  0  0  0
M  END
$$$$

  -OEChem-02102214123D

 29 28  0     1  0  0  0  0  0999 V2000
   -2.6824   -4.2979    0.3068 H   0  0  0  0  0  0  0  0  0  0  0  0
   -2.6819   -3.2876   -0.1122 C   0  0  0  0  0  0  0  0  0  0  0  0
   -3.4345   -2.6911    0.4089 H   0  0  0  0  0  0  0  0  0  0  0  0
   -2.9429   -3.3457   -1.1716 H   0  0  0  0  0  0  0  0  0  0  0  0
   -1.3121   -2.6554    0.0486 C   0  0  0  0  0  0  0  0  0  0  0  0
   -0.3921   -3.3051    0.5135 O   0  0  0  0  0  0  0  0  0  0  0  0
   -1.1165   -1.3401   -0.3220 N   0  0  0  0  0  0  0  0  0  0  0  0
   -1.9307   -0.8260   -0.6543 H   0  0  0  0  0  0  0  0  0  0  0  0
    0.1524   -0.6061   -0.1735 C   0  0  1  0  0  0  0  0  0  0  0  0
    0.9052   -1.2276   -0.6725 H   0  0  0  0  0  0  0  0  0  0  0  0
    0.0657    0.6889   -1.0168 C   0  0  0  0  0  0  0  0  0  0  0  0
    1.0262    0.7831   -1.5352 H   0  0  0  0  0  0  0  0  0  0  0  0
   -0.6851    0.5665   -1.8056 H   0  0  0  0  0  0  0  0  0  0  0  0
   -0.1489    2.0208   -0.2551 C   0  0  0  0  0  0  0  0  0  0  0  0
   -0.1883    1.8982    0.8257 H   0  0  0  0  0  0  0  0  0  0  0  0
    0.6920    2.6870   -0.4673 H   0  0  0  0  0  0  0  0  0  0  0  0
   -1.4408    2.6977   -0.6960 C   0  0  0  0  0  0  0  0  0  0  0  0
   -2.4961    2.0882   -0.7181 O   0  0  0  0  0  0  0  0  0  0  0  0
   -1.4784    3.9988   -1.1086 N   0  0  0  0  0  0  0  0  0  0  0  0
   -2.4007    4.4038   -1.2409 H   0  0  0  0  0  0  0  0  0  0  0  0
   -0.6760    4.5957   -0.9367 H   0  0  0  0  0  0  0  0  0  0  0  0
    0.6787   -0.4827    1.2758 C   0  0  0  0  0  0  0  0  0  0  0  0
    1.8843   -0.4005    1.4712 O   0  0  0  0  0  0  0  0  0  0  0  0
   -0.1830   -0.1449    2.3051 N   0  0  0  0  0  0  0  0  0  0  0  0
   -1.1751   -0.2504    2.1166 H   0  0  0  0  0  0  0  0  0  0  0  0
    0.2574    0.0592    3.6791 C   0  0  0  0  0  0  0  0  0  0  0  0
    0.9785    0.8817    3.7328 H   0  0  0  0  0  0  0  0  0  0  0  0
   -0.5962    0.3075    4.3169 H   0  0  0  0  0  0  0  0  0  0  0  0
    0.7292   -0.8495    4.0678 H   0  0  0  0  0  0  0  0  0  0  0  0
  1  2  1  0  0  0  0
  2  3  1  0  0  0  0
  2  4  1  0  0  0  0
  2  5  1  0  0  0  0
  5  6  2  0  0  0  0
  5  7  1  0  0  0  0
  7  8  1  0  0  0  0
  7  9  1  0  0  0  0
  9 10  1  0  0  0  0
  9 11  1  0  0  0  0
  9 22  1  0  0  0  0
 11 12  1  0  0  0  0
 11 13  1  0  0  0  0
 11 14  1  0  0  0  0
 14 15  1  0  0  0  0
 14 16  1  0  0  0  0
 14 17  1  0  0  0  0
 17 18  2  0  0  0  0
 17 19  1  0  0  0  0
 19 20  1  0  0  0  0
 19 21  1  0  0  0  0
 22 23  2  0  0  0  0
 22 24  1  0  0  0  0
 24 25  1  0  0  0  0
 24 26  1  0  0  0  0
 26 27  1  0  0  0  0
 26 28  1  0  0  0  0
 26 29  1  0  0  0  0
M  END
$$$$

  -OEChem-02102214123D

 29 28  0     1  0  0  0  0  0999 V2000
   -2.7364   -4.2077    0.4171 H   0  0  0  0  0  0  0  0  0  0  0  0
   -2.7155   -3.2023   -0.0127 C   0  0  0  0  0  0  0  0  0  0  0  0
   -3.3938   -2.5621    0.5565 H   0  0  0  0  0  0  0  0  0  0  0  0
   -3.0586   -3.2547   -1.0488 H   0  0  0  0  0  0  0  0  0  0  0  0
   -1.3065   -2.6424    0.0378 C   0  0  0  0  0  0  0  0  0  0  0  0
   -0.3902   -3.3352    0.4447 O   0  0  0  0  0  0  0  0  0  0  0  0
   -1.0721   -1.3433   -0.3653 N   0  0  0  0  0  0  0  0  0  0  0  0
   -1.8905   -0.7774   -0.5891 H   0  0  0  0  0  0  0  0  0  0  0  0
    0.2177   -0.6469   -0.2214 C   0  0  1  0  0  0  0  0  0  0  0  0
    0.9650   -1.2809   -0.7126 H   0  0  0  0  0  0  0  0  0  0  0  0
    0.1261    0.6497   -1.0615 C   0  0  0  0  0  0  0  0  0  0  0  0
    1.0881    0.7330   -1.5787 H   0  0  0  0  0  0  0  0  0  0  0  0
   -0.6280    0.5477   -1.8506 H   0  0  0  0  0  0  0  0  0  0  0  0
   -0.0594    1.9776   -0.2888 C   0  0  0  0  0  0  0  0  0  0  0  0
    0.2306    1.9276    0.7601 H   0  0  0  0  0  0  0  0  0  0  0  0
    0.5880    2.7287   -0.7497 H   0  0  0  0  0  0  0  0  0  0  0  0
   -1.4973    2.4675   -0.4120 C   0  0  0  0  0  0  0  0  0  0  0  0
   -2.4366    1.6962   -0.3018 O   0  0  0  0  0  0  0  0  0  0  0  0
   -1.8055    3.7762   -0.6506 N   0  0  0  0  0  0  0  0  0  0  0  0
   -2.7841    4.0345   -0.5610 H   0  0  0  0  0  0  0  0  0  0  0  0
   -1.0792    4.4800   -0.5650 H   0  0  0  0  0  0  0  0  0  0  0  0
    0.7085   -0.5183    1.2386 C   0  0  0  0  0  0  0  0  0  0  0  0
    1.9089   -0.4939    1.4759 O   0  0  0  0  0  0  0  0  0  0  0  0
   -0.1753   -0.1336    2.2325 N   0  0  0  0  0  0  0  0  0  0  0  0
   -1.1632   -0.1460    1.9945 H   0  0  0  0  0  0  0  0  0  0  0  0
    0.2203    0.0771    3.6188 C   0  0  0  0  0  0  0  0  0  0  0  0
    0.9565    0.8846    3.6889 H   0  0  0  0  0  0  0  0  0  0  0  0
   -0.6501    0.3498    4.2232 H   0  0  0  0  0  0  0  0  0  0  0  0
    0.6585   -0.8368    4.0337 H   0  0  0  0  0  0  0  0  0  0  0  0
  1  2  1  0  0  0  0
  2  3  1  0  0  0  0
  2  4  1  0  0  0  0
  2  5  1  0  0  0  0
  5  6  2  0  0  0  0
  5  7  1  0  0  0  0
  7  8  1  0  0  0  0
  7  9  1  0  0  0  0
  9 10  1  0  0  0  0
  9 11  1  0  0  0  0
  9 22  1  0  0  0  0
 11 12  1  0  0  0  0
 11 13  1  0  0  0  0
 11 14  1  0  0  0  0
 14 15  1  0  0  0  0
 14 16  1  0  0  0  0
 14 17  1  0  0  0  0
 17 18  2  0  0  0  0
 17 19  1  0  0  0  0
 19 20  1  0  0  0  0
 19 21  1  0  0  0  0
 22 23  2  0  0  0  0
 22 24  1  0  0  0  0
 24 25  1  0  0  0  0
 24 26  1  0  0  0  0
 26 27  1  0  0  0  0
 26 28  1  0  0  0  0
 26 29  1  0  0  0  0
M  END
$$$$

  -OEChem-02102214123D

 29 28  0     1  0  0  0  0  0999 V2000
   -2.7440   -4.1593    0.5235 H   0  0  0  0  0  0  0  0  0  0  0  0
   -2.7210   -3.1628    0.0733 C   0  0  0  0  0  0  0  0  0  0  0  0
   -3.3317   -2.4893    0.6794 H   0  0  0  0  0  0  0  0  0  0  0  0
   -3.1426   -3.2203   -0.9331 H   0  0  0  0  0  0  0  0  0  0  0  0
   -1.2937   -2.6531    0.0072 C   0  0  0  0  0  0  0  0  0  0  0  0
   -0.3729   -3.3801    0.3383 O   0  0  0  0  0  0  0  0  0  0  0  0
   -1.0468   -1.3653   -0.4245 N   0  0  0  0  0  0  0  0  0  0  0  0
   -1.8654   -0.7633   -0.5193 H   0  0  0  0  0  0  0  0  0  0  0  0
    0.2551   -0.6923   -0.2791 C   0  0  1  0  0  0  0  0  0  0  0  0
    1.0032   -1.3309   -0.7626 H   0  0  0  0  0  0  0  0  0  0  0  0
    0.1745    0.6175   -1.1026 C   0  0  0  0  0  0  0  0  0  0  0  0
    1.1286    0.6974   -1.6344 H   0  0  0  0  0  0  0  0  0  0  0  0
   -0.6009    0.5465   -1.8741 H   0  0  0  0  0  0  0  0  0  0  0  0
    0.0150    1.9259   -0.2961 C   0  0  0  0  0  0  0  0  0  0  0  0
    0.5593    1.9233    0.6499 H   0  0  0  0  0  0  0  0  0  0  0  0
    0.4411    2.7377   -0.8923 H   0  0  0  0  0  0  0  0  0  0  0  0
   -1.4594    2.2477   -0.0741 C   0  0  0  0  0  0  0  0  0  0  0  0
   -2.2697    1.3711    0.1859 O   0  0  0  0  0  0  0  0  0  0  0  0
   -1.9424    3.5231   -0.1367 N   0  0  0  0  0  0  0  0  0  0  0  0
   -2.8952    3.6637    0.1872 H   0  0  0  0  0  0  0  0  0  0  0  0
   -1.2889    4.2995   -0.1584 H   0  0  0  0  0  0  0  0  0  0  0  0
    0.7091   -0.5570    1.1922 C   0  0  0  0  0  0  0  0  0  0  0  0
    1.9003   -0.5723    1.4722 O   0  0  0  0  0  0  0  0  0  0  0  0
   -0.2002   -0.1395    2.1490 N   0  0  0  0  0  0  0  0  0  0  0  0
   -1.1616   -0.0055    1.8404 H   0  0  0  0  0  0  0  0  0  0  0  0
    0.1562    0.1559    3.5298 C   0  0  0  0  0  0  0  0  0  0  0  0
    0.8628    0.9910    3.5736 H   0  0  0  0  0  0  0  0  0  0  0  0
   -0.7373    0.4265    4.1005 H   0  0  0  0  0  0  0  0  0  0  0  0
    0.6150   -0.7196    4.0014 H   0  0  0  0  0  0  0  0  0  0  0  0
  1  2  1  0  0  0  0
  2  3  1  0  0  0  0
  2  4  1  0  0  0  0
  2  5  1  0  0  0  0
  5  6  2  0  0  0  0
  5  7  1  0  0  0  0
  7  8  1  0  0  0  0
  7  9  1  0  0  0  0
  9 10  1  0  0  0  0
  9 11  1  0  0  0  0
  9 22  1  0  0  0  0
 11 12  1  0  0  0  0
 11 13  1  0  0  0  0
 11 14  1  0  0  0  0
 14 15  1  0  0  0  0
 14 16  1  0  0  0  0
 14 17  1  0  0  0  0
 17 18  2  0  0  0  0
 17 19  1  0  0  0  0
 19 20  1  0  0  0  0
 19 21  1  0  0  0  0
 22 23  2  0  0  0  0
 22 24  1  0  0  0  0
 24 25  1  0  0  0  0
 24 26  1  0  0  0  0
 26 27  1  0  0  0  0
 26 28  1  0  0  0  0
 26 29  1  0  0  0  0
M  END
$$$$

  -OEChem-02102214123D

 29 28  0     1  0  0  0  0  0999 V2000
   -2.7312   -4.1892    0.5617 H   0  0  0  0  0  0  0  0  0  0  0  0
   -2.7100   -3.2000    0.0960 C   0  0  0  0  0  0  0  0  0  0  0  0
   -3.3233   -2.5182    0.6900 H   0  0  0  0  0  0  0  0  0  0  0  0
   -3.1295   -3.2744   -0.9100 H   0  0  0  0  0  0  0  0  0  0  0  0
   -1.2845   -2.6869    0.0241 C   0  0  0  0  0  0  0  0  0  0  0  0
   -0.3625   -3.3976    0.3861 O   0  0  0  0  0  0  0  0  0  0  0  0
   -1.0429   -1.4102   -0.4406 N   0  0  0  0  0  0  0  0  0  0  0  0
   -1.8655   -0.8137   -0.5413 H   0  0  0  0  0  0  0  0  0  0  0  0
    0.2483   -0.7200   -0.2892 C   0  0  1  0  0  0  0  0  0  0  0  0
    1.0066   -1.3747   -0.7342 H   0  0  0  0  0  0  0  0  0  0  0  0
    0.2036    0.5621   -1.1595 C   0  0  0  0  0  0  0  0  0  0  0  0
    1.1662    0.6215   -1.6783 H   0  0  0  0  0  0  0  0  0  0  0  0
   -0.5637    0.4682   -1.9362 H   0  0  0  0  0  0  0  0  0  0  0  0
    0.0225    1.8980   -0.4045 C   0  0  0  0  0  0  0  0  0  0  0  0
    0.7263    1.9825    0.4278 H   0  0  0  0  0  0  0  0  0  0  0  0
    0.2534    2.7112   -1.0981 H   0  0  0  0  0  0  0  0  0  0  0  0
   -1.4059    2.1132    0.0983 C   0  0  0  0  0  0  0  0  0  0  0  0
   -2.2198    1.2078    0.2014 O   0  0  0  0  0  0  0  0  0  0  0  0
   -1.8336    3.3414    0.5121 N   0  0  0  0  0  0  0  0  0  0  0  0
   -2.7286    3.3741    0.9919 H   0  0  0  0  0  0  0  0  0  0  0  0
   -1.1542    4.0845    0.6421 H   0  0  0  0  0  0  0  0  0  0  0  0
    0.6892   -0.5272    1.1804 C   0  0  0  0  0  0  0  0  0  0  0  0
    1.8791   -0.5161    1.4667 O   0  0  0  0  0  0  0  0  0  0  0  0
   -0.2260   -0.0864    2.1198 N   0  0  0  0  0  0  0  0  0  0  0  0
   -1.1898    0.0180    1.8049 H   0  0  0  0  0  0  0  0  0  0  0  0
    0.1213    0.2521    3.4928 C   0  0  0  0  0  0  0  0  0  0  0  0
    0.8251    1.0904    3.5147 H   0  0  0  0  0  0  0  0  0  0  0  0
   -0.7759    0.5372    4.0502 H   0  0  0  0  0  0  0  0  0  0  0  0
    0.5805   -0.6074    3.9923 H   0  0  0  0  0  0  0  0  0  0  0  0
  1  2  1  0  0  0  0
  2  3  1  0  0  0  0
  2  4  1  0  0  0  0
  2  5  1  0  0  0  0
  5  6  2  0  0  0  0
  5  7  1  0  0  0  0
  7  8  1  0  0  0  0
  7  9  1  0  0  0  0
  9 10  1  0  0  0  0
  9 11  1  0  0  0  0
  9 22  1  0  0  0  0
 11 12  1  0  0  0  0
 11 13  1  0  0  0  0
 11 14  1  0  0  0  0
 14 15  1  0  0  0  0
 14 16  1  0  0  0  0
 14 17  1  0  0  0  0
 17 18  2  0  0  0  0
 17 19  1  0  0  0  0
 19 20  1  0  0  0  0
 19 21  1  0  0  0  0
 22 23  2  0  0  0  0
 22 24  1  0  0  0  0
 24 25  1  0  0  0  0
 24 26  1  0  0  0  0
 26 27  1  0  0  0  0
 26 28  1  0  0  0  0
 26 29  1  0  0  0  0
M  END
$$$$

  -OEChem-02102214123D

 29 28  0     1  0  0  0  0  0999 V2000
   -2.6990   -4.2364    0.5688 H   0  0  0  0  0  0  0  0  0  0  0  0
   -2.6932   -3.2525    0.0916 C   0  0  0  0  0  0  0  0  0  0  0  0
   -3.3341   -2.5789    0.6655 H   0  0  0  0  0  0  0  0  0  0  0  0
   -3.0916   -3.3490   -0.9211 H   0  0  0  0  0  0  0  0  0  0  0  0
   -1.2791   -2.7058    0.0398 C   0  0  0  0  0  0  0  0  0  0  0  0
   -0.3467   -3.3917    0.4225 O   0  0  0  0  0  0  0  0  0  0  0  0
   -1.0599   -1.4254   -0.4258 N   0  0  0  0  0  0  0  0  0  0  0  0
   -1.8926   -0.8458   -0.5388 H   0  0  0  0  0  0  0  0  0  0  0  0
    0.2157   -0.7089   -0.2701 C   0  0  1  0  0  0  0  0  0  0  0  0
    0.9773   -1.3761   -0.6903 H   0  0  0  0  0  0  0  0  0  0  0  0
    0.2115    0.5401   -1.1879 C   0  0  0  0  0  0  0  0  0  0  0  0
    1.1843    0.5767   -1.6896 H   0  0  0  0  0  0  0  0  0  0  0  0
   -0.5422    0.4135   -1.9727 H   0  0  0  0  0  0  0  0  0  0  0  0
    0.0034    1.9105   -0.5066 C   0  0  0  0  0  0  0  0  0  0  0  0
    0.8243    2.0939    0.1930 H   0  0  0  0  0  0  0  0  0  0  0  0
    0.0452    2.6916   -1.2706 H   0  0  0  0  0  0  0  0  0  0  0  0
   -1.3214    2.0520    0.2457 C   0  0  0  0  0  0  0  0  0  0  0  0
   -2.1965    1.1994    0.2357 O   0  0  0  0  0  0  0  0  0  0  0  0
   -1.5860    3.1570    1.0017 N   0  0  0  0  0  0  0  0  0  0  0  0
   -2.4135    3.1235    1.5898 H   0  0  0  0  0  0  0  0  0  0  0  0
   -0.8369    3.8119    1.2031 H   0  0  0  0  0  0  0  0  0  0  0  0
    0.6711   -0.4898    1.1918 C   0  0  0  0  0  0  0  0  0  0  0  0
    1.8654   -0.4376    1.4542 O   0  0  0  0  0  0  0  0  0  0  0  0
   -0.2315   -0.0591    2.1468 N   0  0  0  0  0  0  0  0  0  0  0  0
   -1.2080   -0.0051    1.8596 H   0  0  0  0  0  0  0  0  0  0  0  0
    0.1342    0.2784    3.5154 C   0  0  0  0  0  0  0  0  0  0  0  0
    0.8310    1.1228    3.5288 H   0  0  0  0  0  0  0  0  0  0  0  0
   -0.7568    0.5546    4.0870 H   0  0  0  0  0  0  0  0  0  0  0  0
    0.6083   -0.5780    4.0063 H   0  0  0  0  0  0  0  0  0  0  0  0
  1  2  1  0  0  0  0
  2  3  1  0  0  0  0
  2  4  1  0  0  0  0
  2  5  1  0  0  0  0
  5  6  2  0  0  0  0
  5  7  1  0  0  0  0
  7  8  1  0  0  0  0
  7  9  1  0  0  0  0
  9 10  1  0  0  0  0
  9 11  1  0  0  0  0
  9 22  1  0  0  0  0
 11 12  1  0  0  0  0
 11 13  1  0  0  0  0
 11 14  1  0  0  0  0
 14 15  1  0  0  0  0
 14 16  1  0  0  0  0
 14 17  1  0  0  0  0
 17 18  2  0  0  0  0
 17 19  1  0  0  0  0
 19 20  1  0  0  0  0
 19 21  1  0  0  0  0
 22 23  2  0  0  0  0
 22 24  1  0  0  0  0
 24 25  1  0  0  0  0
 24 26  1  0  0  0  0
 26 27  1  0  0  0  0
 26 28  1  0  0  0  0
 26 29  1  0  0  0  0
M  END
$$$$

  -OEChem-02102214123D

 29 28  0     1  0  0  0  0  0999 V2000
   -2.5653   -4.3553    0.5550 H   0  0  0  0  0  0  0  0  0  0  0  0
   -2.6065   -3.3616    0.1003 C   0  0  0  0  0  0  0  0  0  0  0  0
   -3.2772   -2.7324    0.6904 H   0  0  0  0  0  0  0  0  0  0  0  0
   -3.0020   -3.4538   -0.9140 H   0  0  0  0  0  0  0  0  0  0  0  0
   -1.2201   -2.7476    0.0599 C   0  0  0  0  0  0  0  0  0  0  0  0
   -0.2569   -3.3940    0.4351 O   0  0  0  0  0  0  0  0  0  0  0  0
   -1.0622   -1.4512   -0.3865 N   0  0  0  0  0  0  0  0  0  0  0  0
   -1.9204   -0.9120   -0.5007 H   0  0  0  0  0  0  0  0  0  0  0  0
    0.1813   -0.6802   -0.2339 C   0  0  1  0  0  0  0  0  0  0  0  0
    0.9557   -1.3386   -0.6451 H   0  0  0  0  0  0  0  0  0  0  0  0
    0.1792    0.5358   -1.1959 C   0  0  0  0  0  0  0  0  0  0  0  0
    1.1593    0.5719   -1.6835 H   0  0  0  0  0  0  0  0  0  0  0  0
   -0.5572    0.3518   -1.9857 H   0  0  0  0  0  0  0  0  0  0  0  0
   -0.0838    1.9400   -0.6066 C   0  0  0  0  0  0  0  0  0  0  0  0
    0.8217    2.2610   -0.0833 H   0  0  0  0  0  0  0  0  0  0  0  0
   -0.2600    2.6457   -1.4228 H   0  0  0  0  0  0  0  0  0  0  0  0
   -1.2467    2.0358    0.3802 C   0  0  0  0  0  0  0  0  0  0  0  0
   -2.1684    1.2339    0.3986 O   0  0  0  0  0  0  0  0  0  0  0  0
   -1.3140    3.0397    1.3030 N   0  0  0  0  0  0  0  0  0  0  0  0
   -2.0321    2.9560    2.0165 H   0  0  0  0  0  0  0  0  0  0  0  0
   -0.4920    3.6123    1.4679 H   0  0  0  0  0  0  0  0  0  0  0  0
    0.6676   -0.4493    1.2171 C   0  0  0  0  0  0  0  0  0  0  0  0
    1.8663   -0.3372    1.4381 O   0  0  0  0  0  0  0  0  0  0  0  0
   -0.2158   -0.0676    2.2094 N   0  0  0  0  0  0  0  0  0  0  0  0
   -1.1996   -0.0157    1.9468 H   0  0  0  0  0  0  0  0  0  0  0  0
    0.1871    0.3082    3.5577 C   0  0  0  0  0  0  0  0  0  0  0  0
    0.8091    1.2087    3.5348 H   0  0  0  0  0  0  0  0  0  0  0  0
   -0.6951    0.5105    4.1724 H   0  0  0  0  0  0  0  0  0  0  0  0
    0.7557   -0.5022    4.0263 H   0  0  0  0  0  0  0  0  0  0  0  0
  1  2  1  0  0  0  0
  2  3  1  0  0  0  0
  2  4  1  0  0  0  0
  2  5  1  0  0  0  0
  5  6  2  0  0  0  0
  5  7  1  0  0  0  0
  7  8  1  0  0  0  0
  7  9  1  0  0  0  0
  9 10  1  0  0  0  0
  9 11  1  0  0  0  0
  9 22  1  0  0  0  0
 11 12  1  0  0  0  0
 11 13  1  0  0  0  0
 11 14  1  0  0  0  0
 14 15  1  0  0  0  0
 14 16  1  0  0  0  0
 14 17  1  0  0  0  0
 17 18  2  0  0  0  0
 17 19  1  0  0  0  0
 19 20  1  0  0  0  0
 19 21  1  0  0  0  0
 22 23  2  0  0  0  0
 22 24  1  0  0  0  0
 24 25  1  0  0  0  0
 24 26  1  0  0  0  0
 26 27  1  0  0  0  0
 26 28  1  0  0  0  0
 26 29  1  0  0  0  0
M  END
$$$$

  -OEChem-02102214123D

 29 28  0     1  0  0  0  0  0999 V2000
   -3.0558   -4.1381    0.3386 H   0  0  0  0  0  0  0  0  0  0  0  0
   -2.9531   -3.1288   -0.0698 C   0  0  0  0  0  0  0  0  0  0  0  0
   -3.5990   -2.4530    0.4962 H   0  0  0  0  0  0  0  0  0  0  0  0
   -3.2717   -3.1380   -1.1149 H   0  0  0  0  0  0  0  0  0  0  0  0
   -1.5103   -2.6703    0.0273 C   0  0  0  0  0  0  0  0  0  0  0  0
   -0.6634   -3.4220    0.4789 O   0  0  0  0  0  0  0  0  0  0  0  0
   -1.1697   -1.3967   -0.3836 N   0  0  0  0  0  0  0  0  0  0  0  0
   -1.9469   -0.7695   -0.5840 H   0  0  0  0  0  0  0  0  0  0  0  0
    0.1362   -0.7720   -0.1190 C   0  0  1  0  0  0  0  0  0  0  0  0
    0.8480   -1.5389   -0.4471 H   0  0  0  0  0  0  0  0  0  0  0  0
    0.4088    0.3852   -1.1171 C   0  0  0  0  0  0  0  0  0  0  0  0
    1.4306    0.2620   -1.4922 H   0  0  0  0  0  0  0  0  0  0  0  0
   -0.2547    0.2459   -1.9772 H   0  0  0  0  0  0  0  0  0  0  0  0
    0.2763    1.8567   -0.6569 C   0  0  0  0  0  0  0  0  0  0  0  0
    1.2518    2.1701   -0.2740 H   0  0  0  0  0  0  0  0  0  0  0  0
    0.0480    2.4877   -1.5202 H   0  0  0  0  0  0  0  0  0  0  0  0
   -0.7462    2.1392    0.4379 C   0  0  0  0  0  0  0  0  0  0  0  0
   -1.8315    1.5793    0.4672 O   0  0  0  0  0  0  0  0  0  0  0  0
   -0.5030    3.0396    1.4352 N   0  0  0  0  0  0  0  0  0  0  0  0
    0.4514    3.3532    1.5820 H   0  0  0  0  0  0  0  0  0  0  0  0
   -1.1605    3.0401    2.2089 H   0  0  0  0  0  0  0  0  0  0  0  0
    0.5388   -0.6006    1.3666 C   0  0  0  0  0  0  0  0  0  0  0  0
    1.7243   -0.6288    1.6706 O   0  0  0  0  0  0  0  0  0  0  0  0
   -0.3591   -0.1256    2.3043 N   0  0  0  0  0  0  0  0  0  0  0  0
   -1.2932    0.1003    1.9621 H   0  0  0  0  0  0  0  0  0  0  0  0
   -0.0022    0.2074    3.6770 C   0  0  0  0  0  0  0  0  0  0  0  0
    0.7146    1.0347    3.6979 H   0  0  0  0  0  0  0  0  0  0  0  0
   -0.8940    0.5051    4.2365 H   0  0  0  0  0  0  0  0  0  0  0  0
    0.4446   -0.6590    4.1761 H   0  0  0  0  0  0  0  0  0  0  0  0
  1  2  1  0  0  0  0
  2  3  1  0  0  0  0
  2  4  1  0  0  0  0
  2  5  1  0  0  0  0
  5  6  2  0  0  0  0
  5  7  1  0  0  0  0
  7  8  1  0  0  0  0
  7  9  1  0  0  0  0
  9 10  1  0  0  0  0
  9 11  1  0  0  0  0
  9 22  1  0  0  0  0
 11 12  1  0  0  0  0
 11 13  1  0  0  0  0
 11 14  1  0  0  0  0
 14 15  1  0  0  0  0
 14 16  1  0  0  0  0
 14 17  1  0  0  0  0
 17 18  2  0  0  0  0
 17 19  1  0  0  0  0
 19 20  1  0  0  0  0
 19 21  1  0  0  0  0
 22 23  2  0  0  0  0
 22 24  1  0  0  0  0
 24 25  1  0  0  0  0
 24 26  1  0  0  0  0
 26 27  1  0  0  0  0
 26 28  1  0  0  0  0
 26 29  1  0  0  0  0
M  END
$$$$

  -OEChem-02102214123D

 29 28  0     1  0  0  0  0  0999 V2000
   -2.6181   -4.4109    0.4789 H   0  0  0  0  0  0  0  0  0  0  0  0
   -2.6578   -3.3944    0.0772 C   0  0  0  0  0  0  0  0  0  0  0  0
   -3.3596   -2.8073    0.6745 H   0  0  0  0  0  0  0  0  0  0  0  0
   -3.0141   -3.4377   -0.9547 H   0  0  0  0  0  0  0  0  0  0  0  0
   -1.2801   -2.7606    0.1232 C   0  0  0  0  0  0  0  0  0  0  0  0
   -0.3321   -3.3994    0.5462 O   0  0  0  0  0  0  0  0  0  0  0  0
   -1.1130   -1.4577   -0.3041 N   0  0  0  0  0  0  0  0  0  0  0  0
   -1.9646   -0.9385   -0.5050 H   0  0  0  0  0  0  0  0  0  0  0  0
    0.1242   -0.6818   -0.1167 C   0  0  1  0  0  0  0  0  0  0  0  0
    0.8953   -1.3795   -0.4657 H   0  0  0  0  0  0  0  0  0  0  0  0
    0.2359    0.4568   -1.1689 C   0  0  0  0  0  0  0  0  0  0  0  0
    1.2553    0.4191   -1.5690 H   0  0  0  0  0  0  0  0  0  0  0  0
   -0.4271    0.2007   -2.0021 H   0  0  0  0  0  0  0  0  0  0  0  0
   -0.0329    1.9383   -0.8014 C   0  0  0  0  0  0  0  0  0  0  0  0
    0.9322    2.4508   -0.7577 H   0  0  0  0  0  0  0  0  0  0  0  0
   -0.6056    2.4070   -1.6067 H   0  0  0  0  0  0  0  0  0  0  0  0
   -0.7508    2.2178    0.5093 C   0  0  0  0  0  0  0  0  0  0  0  0
   -1.8499    1.7386    0.7374 O   0  0  0  0  0  0  0  0  0  0  0  0
   -0.2018    2.9969    1.4871 N   0  0  0  0  0  0  0  0  0  0  0  0
    0.7974    3.1737    1.4463 H   0  0  0  0  0  0  0  0  0  0  0  0
   -0.6626    2.9536    2.3908 H   0  0  0  0  0  0  0  0  0  0  0  0
    0.5898   -0.4570    1.3441 C   0  0  0  0  0  0  0  0  0  0  0  0
    1.7877   -0.3570    1.5778 O   0  0  0  0  0  0  0  0  0  0  0  0
   -0.2967   -0.0868    2.3385 N   0  0  0  0  0  0  0  0  0  0  0  0
   -1.2563    0.0951    2.0444 H   0  0  0  0  0  0  0  0  0  0  0  0
    0.1058    0.2576    3.6959 C   0  0  0  0  0  0  0  0  0  0  0  0
    0.7558    1.1385    3.6939 H   0  0  0  0  0  0  0  0  0  0  0  0
   -0.7757    0.4766    4.3059 H   0  0  0  0  0  0  0  0  0  0  0  0
    0.6449   -0.5770    4.1564 H   0  0  0  0  0  0  0  0  0  0  0  0
  1  2  1  0  0  0  0
  2  3  1  0  0  0  0
  2  4  1  0  0  0  0
  2  5  1  0  0  0  0
  5  6  2  0  0  0  0
  5  7  1  0  0  0  0
  7  8  1  0  0  0  0
  7  9  1  0  0  0  0
  9 10  1  0  0  0  0
  9 11  1  0  0  0  0
  9 22  1  0  0  0  0
 11 12  1  0  0  0  0
 11 13  1  0  0  0  0
 11 14  1  0  0  0  0
 14 15  1  0  0  0  0
 14 16  1  0  0  0  0
 14 17  1  0  0  0  0
 17 18  2  0  0  0  0
 17 19  1  0  0  0  0
 19 20  1  0  0  0  0
 19 21  1  0  0  0  0
 22 23  2  0  0  0  0
 22 24  1  0  0  0  0
 24 25  1  0  0  0  0
 24 26  1  0  0  0  0
 26 27  1  0  0  0  0
 26 28  1  0  0  0  0
 26 29  1  0  0  0  0
M  END
$$$$

  -OEChem-02102214123D

 29 28  0     1  0  0  0  0  0999 V2000
   -3.2180   -3.9874    0.4734 H   0  0  0  0  0  0  0  0  0  0  0  0
   -3.0569   -2.9984    0.0346 C   0  0  0  0  0  0  0  0  0  0  0  0
   -3.7369   -2.2887    0.5114 H   0  0  0  0  0  0  0  0  0  0  0  0
   -3.2799   -3.0476   -1.0338 H   0  0  0  0  0  0  0  0  0  0  0  0
   -1.6184   -2.5638    0.2448 C   0  0  0  0  0  0  0  0  0  0  0  0
   -0.8318   -3.3197    0.7847 O   0  0  0  0  0  0  0  0  0  0  0  0
   -1.2125   -1.3117   -0.1775 N   0  0  0  0  0  0  0  0  0  0  0  0
   -1.9120   -0.7311   -0.6277 H   0  0  0  0  0  0  0  0  0  0  0  0
    0.1574   -0.7858   -0.0281 C   0  0  1  0  0  0  0  0  0  0  0  0
    0.7665   -1.6154   -0.4086 H   0  0  0  0  0  0  0  0  0  0  0  0
    0.4394    0.3226   -1.0827 C   0  0  0  0  0  0  0  0  0  0  0  0
    1.4372    0.0969   -1.4772 H   0  0  0  0  0  0  0  0  0  0  0  0
   -0.2518    0.1818   -1.9200 H   0  0  0  0  0  0  0  0  0  0  0  0
    0.4730    1.8392   -0.7427 C   0  0  0  0  0  0  0  0  0  0  0  0
    1.4586    2.2232   -1.0257 H   0  0  0  0  0  0  0  0  0  0  0  0
   -0.2543    2.3469   -1.3815 H   0  0  0  0  0  0  0  0  0  0  0  0
    0.2160    2.2956    0.6856 C   0  0  0  0  0  0  0  0  0  0  0  0
    1.0872    2.7607    1.3909 O   0  0  0  0  0  0  0  0  0  0  0  0
   -1.0577    2.4259    1.1663 N   0  0  0  0  0  0  0  0  0  0  0  0
   -1.8145    2.4276    0.4917 H   0  0  0  0  0  0  0  0  0  0  0  0
   -1.1266    3.0192    1.9895 H   0  0  0  0  0  0  0  0  0  0  0  0
    0.7211   -0.6655    1.4095 C   0  0  0  0  0  0  0  0  0  0  0  0
    1.9104   -0.8853    1.5944 O   0  0  0  0  0  0  0  0  0  0  0  0
   -0.0327   -0.1417    2.4437 N   0  0  0  0  0  0  0  0  0  0  0  0
   -0.9630    0.1896    2.2141 H   0  0  0  0  0  0  0  0  0  0  0  0
    0.5347    0.2000    3.7421 C   0  0  0  0  0  0  0  0  0  0  0  0
    1.2886    0.9872    3.6347 H   0  0  0  0  0  0  0  0  0  0  0  0
   -0.2496    0.5590    4.4150 H   0  0  0  0  0  0  0  0  0  0  0  0
    1.0047   -0.6779    4.1978 H   0  0  0  0  0  0  0  0  0  0  0  0
  1  2  1  0  0  0  0
  2  3  1  0  0  0  0
  2  4  1  0  0  0  0
  2  5  1  0  0  0  0
  5  6  2  0  0  0  0
  5  7  1  0  0  0  0
  7  8  1  0  0  0  0
  7  9  1  0  0  0  0
  9 10  1  0  0  0  0
  9 11  1  0  0  0  0
  9 22  1  0  0  0  0
 11 12  1  0  0  0  0
 11 13  1  0  0  0  0
 11 14  1  0  0  0  0
 14 15  1  0  0  0  0
 14 16  1  0  0  0  0
 14 17  1  0  0  0  0
 17 18  2  0  0  0  0
 17 19  1  0  0  0  0
 19 20  1  0  0  0  0
 19 21  1  0  0  0  0
 22 23  2  0  0  0  0
 22 24  1  0  0  0  0
 24 25  1  0  0  0  0
 24 26  1  0  0  0  0
 26 27  1  0  0  0  0
 26 28  1  0  0  0  0
 26 29  1  0  0  0  0
M  END
$$$$

  -OEChem-02102214123D

 29 28  0     1  0  0  0  0  0999 V2000
   -3.2327   -3.9409    0.1482 H   0  0  0  0  0  0  0  0  0  0  0  0
   -3.0785   -2.9199   -0.2131 C   0  0  0  0  0  0  0  0  0  0  0  0
   -3.7530   -2.2513    0.3268 H   0  0  0  0  0  0  0  0  0  0  0  0
   -3.3147   -2.8853   -1.2792 H   0  0  0  0  0  0  0  0  0  0  0  0
   -1.6380   -2.5007    0.0123 C   0  0  0  0  0  0  0  0  0  0  0  0
   -0.8417   -3.2992    0.4700 O   0  0  0  0  0  0  0  0  0  0  0  0
   -1.2417   -1.2153   -0.3058 N   0  0  0  0  0  0  0  0  0  0  0  0
   -1.9462   -0.6057   -0.7082 H   0  0  0  0  0  0  0  0  0  0  0  0
    0.1369   -0.7089   -0.1659 C   0  0  1  0  0  0  0  0  0  0  0  0
    0.7364   -1.4810   -0.6644 H   0  0  0  0  0  0  0  0  0  0  0  0
    0.3314    0.5267   -1.0929 C   0  0  0  0  0  0  0  0  0  0  0  0
    1.3157    0.3667   -1.5487 H   0  0  0  0  0  0  0  0  0  0  0  0
   -0.3900    0.4700   -1.9143 H   0  0  0  0  0  0  0  0  0  0  0  0
    0.3776    1.9975   -0.5909 C   0  0  0  0  0  0  0  0  0  0  0  0
    1.1711    2.5176   -1.1368 H   0  0  0  0  0  0  0  0  0  0  0  0
   -0.5624    2.4705   -0.8861 H   0  0  0  0  0  0  0  0  0  0  0  0
    0.5722    2.3042    0.8874 C   0  0  0  0  0  0  0  0  0  0  0  0
    1.6716    2.4645    1.3746 O   0  0  0  0  0  0  0  0  0  0  0  0
   -0.4830    2.6348    1.6919 N   0  0  0  0  0  0  0  0  0  0  0  0
   -0.2190    3.0881    2.5627 H   0  0  0  0  0  0  0  0  0  0  0  0
   -1.3638    2.8739    1.2515 H   0  0  0  0  0  0  0  0  0  0  0  0
    0.7405   -0.7365    1.2585 C   0  0  0  0  0  0  0  0  0  0  0  0
    1.9234   -1.0148    1.3974 O   0  0  0  0  0  0  0  0  0  0  0  0
    0.0133   -0.3137    2.3559 N   0  0  0  0  0  0  0  0  0  0  0  0
   -0.9493   -0.0378    2.2018 H   0  0  0  0  0  0  0  0  0  0  0  0
    0.5903   -0.1782    3.6870 C   0  0  0  0  0  0  0  0  0  0  0  0
    1.4231    0.5332    3.6716 H   0  0  0  0  0  0  0  0  0  0  0  0
   -0.1634    0.1867    4.3907 H   0  0  0  0  0  0  0  0  0  0  0  0
    0.9593   -1.1453    4.0441 H   0  0  0  0  0  0  0  0  0  0  0  0
  1  2  1  0  0  0  0
  2  3  1  0  0  0  0
  2  4  1  0  0  0  0
  2  5  1  0  0  0  0
  5  6  2  0  0  0  0
  5  7  1  0  0  0  0
  7  8  1  0  0  0  0
  7  9  1  0  0  0  0
  9 10  1  0  0  0  0
  9 11  1  0  0  0  0
  9 22  1  0  0  0  0
 11 12  1  0  0  0  0
 11 13  1  0  0  0  0
 11 14  1  0  0  0  0
 14 15  1  0  0  0  0
 14 16  1  0  0  0  0
 14 17  1  0  0  0  0
 17 18  2  0  0  0  0
 17 19  1  0  0  0  0
 19 20  1  0  0  0  0
 19 21  1  0  0  0  0
 22 23  2  0  0  0  0
 22 24  1  0  0  0  0
 24 25  1  0  0  0  0
 24 26  1  0  0  0  0
 26 27  1  0  0  0  0
 26 28  1  0  0  0  0
 26 29  1  0  0  0  0
M  END
$$$$

  -OEChem-02102214123D

 29 28  0     1  0  0  0  0  0999 V2000
   -3.0606   -4.0641    0.3366 H   0  0  0  0  0  0  0  0  0  0  0  0
   -2.9285   -3.0698   -0.0998 C   0  0  0  0  0  0  0  0  0  0  0  0
   -3.6569   -2.3904    0.3488 H   0  0  0  0  0  0  0  0  0  0  0  0
   -3.1100   -3.1321   -1.1753 H   0  0  0  0  0  0  0  0  0  0  0  0
   -1.5199   -2.5697    0.1610 C   0  0  0  0  0  0  0  0  0  0  0  0
   -0.7323   -3.2732    0.7656 O   0  0  0  0  0  0  0  0  0  0  0  0
   -1.1466   -1.3154   -0.2843 N   0  0  0  0  0  0  0  0  0  0  0  0
   -1.8350   -0.8013   -0.8247 H   0  0  0  0  0  0  0  0  0  0  0  0
    0.2125   -0.7525   -0.1577 C   0  0  1  0  0  0  0  0  0  0  0  0
    0.8715   -1.5228   -0.5767 H   0  0  0  0  0  0  0  0  0  0  0  0
    0.3358    0.4407   -1.1524 C   0  0  0  0  0  0  0  0  0  0  0  0
    1.3290    0.3109   -1.5978 H   0  0  0  0  0  0  0  0  0  0  0  0
   -0.3800    0.3052   -1.9695 H   0  0  0  0  0  0  0  0  0  0  0  0
    0.3084    1.9348   -0.7271 C   0  0  0  0  0  0  0  0  0  0  0  0
    0.8540    2.5147   -1.4777 H   0  0  0  0  0  0  0  0  0  0  0  0
   -0.7336    2.2605   -0.7739 H   0  0  0  0  0  0  0  0  0  0  0  0
    0.8330    2.3533    0.6408 C   0  0  0  0  0  0  0  0  0  0  0  0
    2.0226    2.4043    0.8727 O   0  0  0  0  0  0  0  0  0  0  0  0
    0.0222    2.9141    1.5875 N   0  0  0  0  0  0  0  0  0  0  0  0
    0.5078    3.3880    2.3441 H   0  0  0  0  0  0  0  0  0  0  0  0
   -0.9140    3.1994    1.3262 H   0  0  0  0  0  0  0  0  0  0  0  0
    0.7287   -0.6205    1.2936 C   0  0  0  0  0  0  0  0  0  0  0  0
    1.8994   -0.8680    1.5439 O   0  0  0  0  0  0  0  0  0  0  0  0
   -0.0869   -0.1105    2.2874 N   0  0  0  0  0  0  0  0  0  0  0  0
   -1.0753   -0.0398    2.0764 H   0  0  0  0  0  0  0  0  0  0  0  0
    0.3564    0.0412    3.6670 C   0  0  0  0  0  0  0  0  0  0  0  0
    1.2440    0.6814    3.7140 H   0  0  0  0  0  0  0  0  0  0  0  0
   -0.4320    0.5012    4.2699 H   0  0  0  0  0  0  0  0  0  0  0  0
    0.6027   -0.9344    4.0992 H   0  0  0  0  0  0  0  0  0  0  0  0
  1  2  1  0  0  0  0
  2  3  1  0  0  0  0
  2  4  1  0  0  0  0
  2  5  1  0  0  0  0
  5  6  2  0  0  0  0
  5  7  1  0  0  0  0
  7  8  1  0  0  0  0
  7  9  1  0  0  0  0
  9 10  1  0  0  0  0
  9 11  1  0  0  0  0
  9 22  1  0  0  0  0
 11 12  1  0  0  0  0
 11 13  1  0  0  0  0
 11 14  1  0  0  0  0
 14 15  1  0  0  0  0
 14 16  1  0  0  0  0
 14 17  1  0  0  0  0
 17 18  2  0  0  0  0
 17 19  1  0  0  0  0
 19 20  1  0  0  0  0
 19 21  1  0  0  0  0
 22 23  2  0  0  0  0
 22 24  1  0  0  0  0
 24 25  1  0  0  0  0
 24 26  1  0  0  0  0
 26 27  1  0  0  0  0
 26 28  1  0  0  0  0
 26 29  1  0  0  0  0
M  END
$$$$

  -OEChem-02102214123D

 29 28  0     1  0  0  0  0  0999 V2000
   -2.9374   -4.0742    0.5088 H   0  0  0  0  0  0  0  0  0  0  0  0
   -2.8276   -3.1164   -0.0080 C   0  0  0  0  0  0  0  0  0  0  0  0
   -3.6155   -2.4409    0.3332 H   0  0  0  0  0  0  0  0  0  0  0  0
   -2.9383   -3.2837   -1.0820 H   0  0  0  0  0  0  0  0  0  0  0  0
   -1.4647   -2.5181    0.2860 C   0  0  0  0  0  0  0  0  0  0  0  0
   -0.6926   -3.1059    1.0200 O   0  0  0  0  0  0  0  0  0  0  0  0
   -1.1190   -1.2996   -0.2688 N   0  0  0  0  0  0  0  0  0  0  0  0
   -1.7814   -0.9098   -0.9328 H   0  0  0  0  0  0  0  0  0  0  0  0
    0.2304   -0.6985   -0.2022 C   0  0  1  0  0  0  0  0  0  0  0  0
    0.9240   -1.4578   -0.5832 H   0  0  0  0  0  0  0  0  0  0  0  0
    0.2787    0.4726   -1.2292 C   0  0  0  0  0  0  0  0  0  0  0  0
    1.2461    0.3598   -1.7329 H   0  0  0  0  0  0  0  0  0  0  0  0
   -0.4836    0.3091   -1.9977 H   0  0  0  0  0  0  0  0  0  0  0  0
    0.2284    1.9671   -0.8200 C   0  0  0  0  0  0  0  0  0  0  0  0
    0.4856    2.5744   -1.6932 H   0  0  0  0  0  0  0  0  0  0  0  0
   -0.8053    2.2065   -0.5584 H   0  0  0  0  0  0  0  0  0  0  0  0
    1.1062    2.4345    0.3381 C   0  0  0  0  0  0  0  0  0  0  0  0
    2.2915    2.6316    0.1626 O   0  0  0  0  0  0  0  0  0  0  0  0
    0.6070    2.8869    1.5245 N   0  0  0  0  0  0  0  0  0  0  0  0
    1.3287    3.0658    2.2172 H   0  0  0  0  0  0  0  0  0  0  0  0
   -0.2670    2.4780    1.8343 H   0  0  0  0  0  0  0  0  0  0  0  0
    0.6917   -0.4563    1.2534 C   0  0  0  0  0  0  0  0  0  0  0  0
    1.8706   -0.5737    1.5515 O   0  0  0  0  0  0  0  0  0  0  0  0
   -0.1872    0.1027    2.1674 N   0  0  0  0  0  0  0  0  0  0  0  0
   -1.1673   -0.0309    1.9394 H   0  0  0  0  0  0  0  0  0  0  0  0
    0.1689    0.2355    3.5763 C   0  0  0  0  0  0  0  0  0  0  0  0
    1.0727    0.8436    3.6912 H   0  0  0  0  0  0  0  0  0  0  0  0
   -0.6422    0.7194    4.1288 H   0  0  0  0  0  0  0  0  0  0  0  0
    0.3523   -0.7499    4.0176 H   0  0  0  0  0  0  0  0  0  0  0  0
  1  2  1  0  0  0  0
  2  3  1  0  0  0  0
  2  4  1  0  0  0  0
  2  5  1  0  0  0  0
  5  6  2  0  0  0  0
  5  7  1  0  0  0  0
  7  8  1  0  0  0  0
  7  9  1  0  0  0  0
  9 10  1  0  0  0  0
  9 11  1  0  0  0  0
  9 22  1  0  0  0  0
 11 12  1  0  0  0  0
 11 13  1  0  0  0  0
 11 14  1  0  0  0  0
 14 15  1  0  0  0  0
 14 16  1  0  0  0  0
 14 17  1  0  0  0  0
 17 18  2  0  0  0  0
 17 19  1  0  0  0  0
 19 20  1  0  0  0  0
 19 21  1  0  0  0  0
 22 23  2  0  0  0  0
 22 24  1  0  0  0  0
 24 25  1  0  0  0  0
 24 26  1  0  0  0  0
 26 27  1  0  0  0  0
 26 28  1  0  0  0  0
 26 29  1  0  0  0  0
M  END
$$$$

  -OEChem-02102214123D

 29 28  0     1  0  0  0  0  0999 V2000
   -2.8144   -4.1118    0.6115 H   0  0  0  0  0  0  0  0  0  0  0  0
   -2.7361   -3.1732    0.0552 C   0  0  0  0  0  0  0  0  0  0  0  0
   -3.5552   -2.5164    0.3573 H   0  0  0  0  0  0  0  0  0  0  0  0
   -2.8250   -3.3902   -1.0121 H   0  0  0  0  0  0  0  0  0  0  0  0
   -1.4026   -2.5083    0.3402 C   0  0  0  0  0  0  0  0  0  0  0  0
   -0.6242   -3.0252    1.1199 O   0  0  0  0  0  0  0  0  0  0  0  0
   -1.0886   -1.3119   -0.2782 N   0  0  0  0  0  0  0  0  0  0  0  0
   -1.7495   -0.9862   -0.9774 H   0  0  0  0  0  0  0  0  0  0  0  0
    0.2392   -0.6628   -0.2245 C   0  0  1  0  0  0  0  0  0  0  0  0
    0.9716   -1.4019   -0.5703 H   0  0  0  0  0  0  0  0  0  0  0  0
    0.2398    0.4879   -1.2733 C   0  0  0  0  0  0  0  0  0  0  0  0
    1.1937    0.4068   -1.8080 H   0  0  0  0  0  0  0  0  0  0  0  0
   -0.5412    0.2986   -2.0164 H   0  0  0  0  0  0  0  0  0  0  0  0
    0.1332    1.9688   -0.8379 C   0  0  0  0  0  0  0  0  0  0  0  0
    0.1220    2.5965   -1.7340 H   0  0  0  0  0  0  0  0  0  0  0  0
   -0.8213    2.1184   -0.3268 H   0  0  0  0  0  0  0  0  0  0  0  0
    1.2502    2.4839    0.0694 C   0  0  0  0  0  0  0  0  0  0  0  0
    2.3315    2.7713   -0.4049 O   0  0  0  0  0  0  0  0  0  0  0  0
    1.0749    2.8102    1.3815 N   0  0  0  0  0  0  0  0  0  0  0  0
    1.9514    2.9901    1.8635 H   0  0  0  0  0  0  0  0  0  0  0  0
    0.3619    2.2828    1.8763 H   0  0  0  0  0  0  0  0  0  0  0  0
    0.6546   -0.3287    1.2268 C   0  0  0  0  0  0  0  0  0  0  0  0
    1.8288   -0.3783    1.5605 O   0  0  0  0  0  0  0  0  0  0  0  0
   -0.2659    0.2486    2.0882 N   0  0  0  0  0  0  0  0  0  0  0  0
   -1.2345    0.1006    1.8204 H   0  0  0  0  0  0  0  0  0  0  0  0
    0.0213    0.4035    3.5110 C   0  0  0  0  0  0  0  0  0  0  0  0
    0.9284    0.9979    3.6639 H   0  0  0  0  0  0  0  0  0  0  0  0
   -0.8087    0.9112    4.0117 H   0  0  0  0  0  0  0  0  0  0  0  0
    0.1637   -0.5766    3.9788 H   0  0  0  0  0  0  0  0  0  0  0  0
  1  2  1  0  0  0  0
  2  3  1  0  0  0  0
  2  4  1  0  0  0  0
  2  5  1  0  0  0  0
  5  6  2  0  0  0  0
  5  7  1  0  0  0  0
  7  8  1  0  0  0  0
  7  9  1  0  0  0  0
  9 10  1  0  0  0  0
  9 11  1  0  0  0  0
  9 22  1  0  0  0  0
 11 12  1  0  0  0  0
 11 13  1  0  0  0  0
 11 14  1  0  0  0  0
 14 15  1  0  0  0  0
 14 16  1  0  0  0  0
 14 17  1  0  0  0  0
 17 18  2  0  0  0  0
 17 19  1  0  0  0  0
 19 20  1  0  0  0  0
 19 21  1  0  0  0  0
 22 23  2  0  0  0  0
 22 24  1  0  0  0  0
 24 25  1  0  0  0  0
 24 26  1  0  0  0  0
 26 27  1  0  0  0  0
 26 28  1  0  0  0  0
 26 29  1  0  0  0  0
M  END
$$$$

  -OEChem-02102214123D

 29 28  0     1  0  0  0  0  0999 V2000
   -2.7029   -4.1859    0.6028 H   0  0  0  0  0  0  0  0  0  0  0  0
   -2.6613   -3.2489    0.0400 C   0  0  0  0  0  0  0  0  0  0  0  0
   -3.5128   -2.6278    0.3279 H   0  0  0  0  0  0  0  0  0  0  0  0
   -2.7281   -3.4780   -1.0262 H   0  0  0  0  0  0  0  0  0  0  0  0
   -1.3627   -2.5217    0.3342 C   0  0  0  0  0  0  0  0  0  0  0  0
   -0.5766   -2.9882    1.1379 O   0  0  0  0  0  0  0  0  0  0  0  0
   -1.0875   -1.3254   -0.3019 N   0  0  0  0  0  0  0  0  0  0  0  0
   -1.7492   -1.0367   -1.0165 H   0  0  0  0  0  0  0  0  0  0  0  0
    0.2125   -0.6260   -0.2347 C   0  0  1  0  0  0  0  0  0  0  0  0
    0.9740   -1.3433   -0.5632 H   0  0  0  0  0  0  0  0  0  0  0  0
    0.1929    0.5159   -1.2905 C   0  0  0  0  0  0  0  0  0  0  0  0
    1.1452    0.4718   -1.8322 H   0  0  0  0  0  0  0  0  0  0  0  0
   -0.5875    0.3084   -2.0295 H   0  0  0  0  0  0  0  0  0  0  0  0
    0.0210    1.9743   -0.8090 C   0  0  0  0  0  0  0  0  0  0  0  0
   -0.2345    2.5972   -1.6713 H   0  0  0  0  0  0  0  0  0  0  0  0
   -0.8145    2.0396   -0.1077 H   0  0  0  0  0  0  0  0  0  0  0  0
    1.2703    2.5810   -0.1702 C   0  0  0  0  0  0  0  0  0  0  0  0
    2.1738    2.9985   -0.8684 O   0  0  0  0  0  0  0  0  0  0  0  0
    1.4115    2.7809    1.1711 N   0  0  0  0  0  0  0  0  0  0  0  0
    2.3634    3.0108    1.4419 H   0  0  0  0  0  0  0  0  0  0  0  0
    0.8928    2.1428    1.7690 H   0  0  0  0  0  0  0  0  0  0  0  0
    0.6164   -0.2365    1.2061 C   0  0  0  0  0  0  0  0  0  0  0  0
    1.7942   -0.2218    1.5322 O   0  0  0  0  0  0  0  0  0  0  0  0
   -0.3139    0.3332    2.0598 N   0  0  0  0  0  0  0  0  0  0  0  0
   -1.2818    0.1648    1.8014 H   0  0  0  0  0  0  0  0  0  0  0  0
   -0.0234    0.5654    3.4714 C   0  0  0  0  0  0  0  0  0  0  0  0
    0.8486    1.2170    3.5899 H   0  0  0  0  0  0  0  0  0  0  0  0
   -0.8774    1.0456    3.9584 H   0  0  0  0  0  0  0  0  0  0  0  0
    0.1786   -0.3838    3.9793 H   0  0  0  0  0  0  0  0  0  0  0  0
  1  2  1  0  0  0  0
  2  3  1  0  0  0  0
  2  4  1  0  0  0  0
  2  5  1  0  0  0  0
  5  6  2  0  0  0  0
  5  7  1  0  0  0  0
  7  8  1  0  0  0  0
  7  9  1  0  0  0  0
  9 10  1  0  0  0  0
  9 11  1  0  0  0  0
  9 22  1  0  0  0  0
 11 12  1  0  0  0  0
 11 13  1  0  0  0  0
 11 14  1  0  0  0  0
 14 15  1  0  0  0  0
 14 16  1  0  0  0  0
 14 17  1  0  0  0  0
 17 18  2  0  0  0  0
 17 19  1  0  0  0  0
 19 20  1  0  0  0  0
 19 21  1  0  0  0  0
 22 23  2  0  0  0  0
 22 24  1  0  0  0  0
 24 25  1  0  0  0  0
 24 26  1  0  0  0  0
 26 27  1  0  0  0  0
 26 28  1  0  0  0  0
 26 29  1  0  0  0  0
M  END
$$$$

  -OEChem-02102214123D

 29 28  0     1  0  0  0  0  0999 V2000
   -2.6194   -4.2651    0.5524 H   0  0  0  0  0  0  0  0  0  0  0  0
   -2.5994   -3.3278   -0.0111 C   0  0  0  0  0  0  0  0  0  0  0  0
   -3.4680   -2.7288    0.2727 H   0  0  0  0  0  0  0  0  0  0  0  0
   -2.6559   -3.5590   -1.0776 H   0  0  0  0  0  0  0  0  0  0  0  0
   -1.3210   -2.5675    0.2879 C   0  0  0  0  0  0  0  0  0  0  0  0
   -0.5093   -3.0277    1.0699 O   0  0  0  0  0  0  0  0  0  0  0  0
   -1.0881   -1.3491   -0.3214 N   0  0  0  0  0  0  0  0  0  0  0  0
   -1.7724   -1.0498   -1.0099 H   0  0  0  0  0  0  0  0  0  0  0  0
    0.1759   -0.5934   -0.2149 C   0  0  1  0  0  0  0  0  0  0  0  0
    0.9704   -1.2774   -0.5363 H   0  0  0  0  0  0  0  0  0  0  0  0
    0.1472    0.5606   -1.2559 C   0  0  0  0  0  0  0  0  0  0  0  0
    1.1093    0.5588   -1.7815 H   0  0  0  0  0  0  0  0  0  0  0  0
   -0.6110    0.3361   -2.0130 H   0  0  0  0  0  0  0  0  0  0  0  0
   -0.0980    1.9993   -0.7448 C   0  0  0  0  0  0  0  0  0  0  0  0
   -0.5894    2.5624   -1.5442 H   0  0  0  0  0  0  0  0  0  0  0  0
   -0.7842    2.0018    0.1041 H   0  0  0  0  0  0  0  0  0  0  0  0
    1.1768    2.7647   -0.3812 C   0  0  0  0  0  0  0  0  0  0  0  0
    1.6495    3.5672   -1.1632 O   0  0  0  0  0  0  0  0  0  0  0  0
    1.8219    2.6717    0.8165 N   0  0  0  0  0  0  0  0  0  0  0  0
    2.7315    3.1218    0.8345 H   0  0  0  0  0  0  0  0  0  0  0  0
    1.7075    1.8022    1.3399 H   0  0  0  0  0  0  0  0  0  0  0  0
    0.5486   -0.2032    1.2337 C   0  0  0  0  0  0  0  0  0  0  0  0
    1.7268   -0.0965    1.5462 O   0  0  0  0  0  0  0  0  0  0  0  0
   -0.4071    0.3149    2.0889 N   0  0  0  0  0  0  0  0  0  0  0  0
   -1.3725    0.1170    1.8444 H   0  0  0  0  0  0  0  0  0  0  0  0
   -0.1087    0.7244    3.4565 C   0  0  0  0  0  0  0  0  0  0  0  0
    0.6395    1.5240    3.4655 H   0  0  0  0  0  0  0  0  0  0  0  0
   -1.0138    1.0975    3.9452 H   0  0  0  0  0  0  0  0  0  0  0  0
    0.2740   -0.1235    4.0345 H   0  0  0  0  0  0  0  0  0  0  0  0
  1  2  1  0  0  0  0
  2  3  1  0  0  0  0
  2  4  1  0  0  0  0
  2  5  1  0  0  0  0
  5  6  2  0  0  0  0
  5  7  1  0  0  0  0
  7  8  1  0  0  0  0
  7  9  1  0  0  0  0
  9 10  1  0  0  0  0
  9 11  1  0  0  0  0
  9 22  1  0  0  0  0
 11 12  1  0  0  0  0
 11 13  1  0  0  0  0
 11 14  1  0  0  0  0
 14 15  1  0  0  0  0
 14 16  1  0  0  0  0
 14 17  1  0  0  0  0
 17 18  2  0  0  0  0
 17 19  1  0  0  0  0
 19 20  1  0  0  0  0
 19 21  1  0  0  0  0
 22 23  2  0  0  0  0
 22 24  1  0  0  0  0
 24 25  1  0  0  0  0
 24 26  1  0  0  0  0
 26 27  1  0  0  0  0
 26 28  1  0  0  0  0
 26 29  1  0  0  0  0
M  END
$$$$

  -OEChem-02102214123D

 29 28  0     1  0  0  0  0  0999 V2000
   -2.4755   -4.3670    0.4872 H   0  0  0  0  0  0  0  0  0  0  0  0
   -2.5033   -3.4237   -0.0658 C   0  0  0  0  0  0  0  0  0  0  0  0
   -3.3979   -2.8703    0.2292 H   0  0  0  0  0  0  0  0  0  0  0  0
   -2.5547   -3.6453   -1.1345 H   0  0  0  0  0  0  0  0  0  0  0  0
   -1.2613   -2.6062    0.2355 C   0  0  0  0  0  0  0  0  0  0  0  0
   -0.4111   -3.0457    0.9885 O   0  0  0  0  0  0  0  0  0  0  0  0
   -1.1051   -1.3563   -0.3328 N   0  0  0  0  0  0  0  0  0  0  0  0
   -1.8199   -1.0626   -0.9924 H   0  0  0  0  0  0  0  0  0  0  0  0
    0.1132   -0.5346   -0.2042 C   0  0  1  0  0  0  0  0  0  0  0  0
    0.9298   -1.1890   -0.5314 H   0  0  0  0  0  0  0  0  0  0  0  0
    0.0916    0.6277   -1.2315 C   0  0  0  0  0  0  0  0  0  0  0  0
    1.0706    0.6599   -1.7241 H   0  0  0  0  0  0  0  0  0  0  0  0
   -0.6338    0.3931   -2.0171 H   0  0  0  0  0  0  0  0  0  0  0  0
   -0.2232    2.0397   -0.6851 C   0  0  0  0  0  0  0  0  0  0  0  0
   -0.9158    2.5276   -1.3778 H   0  0  0  0  0  0  0  0  0  0  0  0
   -0.7268    2.0131    0.2809 H   0  0  0  0  0  0  0  0  0  0  0  0
    1.0222    2.9179   -0.6012 C   0  0  0  0  0  0  0  0  0  0  0  0
    1.2359    3.7855   -1.4263 O   0  0  0  0  0  0  0  0  0  0  0  0
    1.9574    2.7706    0.3817 N   0  0  0  0  0  0  0  0  0  0  0  0
    2.8316    3.2648    0.2353 H   0  0  0  0  0  0  0  0  0  0  0  0
    1.9582    1.9018    0.9220 H   0  0  0  0  0  0  0  0  0  0  0  0
    0.5053   -0.1533    1.2437 C   0  0  0  0  0  0  0  0  0  0  0  0
    1.6806    0.0865    1.4920 O   0  0  0  0  0  0  0  0  0  0  0  0
   -0.4523    0.2923    2.1370 N   0  0  0  0  0  0  0  0  0  0  0  0
   -1.4100    0.0216    1.9362 H   0  0  0  0  0  0  0  0  0  0  0  0
   -0.1297    0.7754    3.4744 C   0  0  0  0  0  0  0  0  0  0  0  0
    0.5308    1.6472    3.4192 H   0  0  0  0  0  0  0  0  0  0  0  0
   -1.0429    1.0699    4.0002 H   0  0  0  0  0  0  0  0  0  0  0  0
    0.3682   -0.0086    4.0547 H   0  0  0  0  0  0  0  0  0  0  0  0
  1  2  1  0  0  0  0
  2  3  1  0  0  0  0
  2  4  1  0  0  0  0
  2  5  1  0  0  0  0
  5  6  2  0  0  0  0
  5  7  1  0  0  0  0
  7  8  1  0  0  0  0
  7  9  1  0  0  0  0
  9 10  1  0  0  0  0
  9 11  1  0  0  0  0
  9 22  1  0  0  0  0
 11 12  1  0  0  0  0
 11 13  1  0  0  0  0
 11 14  1  0  0  0  0
 14 15  1  0  0  0  0
 14 16  1  0  0  0  0
 14 17  1  0  0  0  0
 17 18  2  0  0  0  0
 17 19  1  0  0  0  0
 19 20  1  0  0  0  0
 19 21  1  0  0  0  0
 22 23  2  0  0  0  0
 22 24  1  0  0  0  0
 24 25  1  0  0  0  0
 24 26  1  0  0  0  0
 26 27  1  0  0  0  0
 26 28  1  0  0  0  0
 26 29  1  0  0  0  0
M  END
$$$$

  -OEChem-02102214123D

 29 28  0     1  0  0  0  0  0999 V2000
   -2.3409   -4.4670    0.3760 H   0  0  0  0  0  0  0  0  0  0  0  0
   -2.4222   -3.5060   -0.1400 C   0  0  0  0  0  0  0  0  0  0  0  0
   -3.3410   -3.0105    0.1825 H   0  0  0  0  0  0  0  0  0  0  0  0
   -2.4726   -3.6893   -1.2160 H   0  0  0  0  0  0  0  0  0  0  0  0
   -1.2209   -2.6375    0.1832 C   0  0  0  0  0  0  0  0  0  0  0  0
   -0.3413   -3.0602    0.9119 O   0  0  0  0  0  0  0  0  0  0  0  0
   -1.1359   -1.3590   -0.3334 N   0  0  0  0  0  0  0  0  0  0  0  0
   -1.8719   -1.0753   -0.9738 H   0  0  0  0  0  0  0  0  0  0  0  0
    0.0478   -0.4906   -0.1971 C   0  0  1  0  0  0  0  0  0  0  0  0
    0.8735   -1.1183   -0.5537 H   0  0  0  0  0  0  0  0  0  0  0  0
    0.0151    0.6931   -1.1939 C   0  0  0  0  0  0  0  0  0  0  0  0
    1.0072    0.7530   -1.6570 H   0  0  0  0  0  0  0  0  0  0  0  0
   -0.6828    0.4653   -2.0059 H   0  0  0  0  0  0  0  0  0  0  0  0
   -0.3407    2.0816   -0.6087 C   0  0  0  0  0  0  0  0  0  0  0  0
   -1.2269    2.4641   -1.1235 H   0  0  0  0  0  0  0  0  0  0  0  0
   -0.5878    2.0605    0.4510 H   0  0  0  0  0  0  0  0  0  0  0  0
    0.7977    3.0659   -0.8306 C   0  0  0  0  0  0  0  0  0  0  0  0
    0.7925    3.8618   -1.7501 O   0  0  0  0  0  0  0  0  0  0  0  0
    1.9041    3.0295   -0.0307 N   0  0  0  0  0  0  0  0  0  0  0  0
    2.7124    3.5503   -0.3558 H   0  0  0  0  0  0  0  0  0  0  0  0
    2.0310    2.2199    0.5805 H   0  0  0  0  0  0  0  0  0  0  0  0
    0.4864   -0.1363    1.2442 C   0  0  0  0  0  0  0  0  0  0  0  0
    1.6429    0.2329    1.4185 O   0  0  0  0  0  0  0  0  0  0  0  0
   -0.4564    0.2372    2.1857 N   0  0  0  0  0  0  0  0  0  0  0  0
   -1.3964   -0.1157    2.0352 H   0  0  0  0  0  0  0  0  0  0  0  0
   -0.1042    0.7356    3.5100 C   0  0  0  0  0  0  0  0  0  0  0  0
    0.4979    1.6472    3.4316 H   0  0  0  0  0  0  0  0  0  0  0  0
   -1.0095    0.9714    4.0776 H   0  0  0  0  0  0  0  0  0  0  0  0
    0.4672   -0.0175    4.0630 H   0  0  0  0  0  0  0  0  0  0  0  0
  1  2  1  0  0  0  0
  2  3  1  0  0  0  0
  2  4  1  0  0  0  0
  2  5  1  0  0  0  0
  5  6  2  0  0  0  0
  5  7  1  0  0  0  0
  7  8  1  0  0  0  0
  7  9  1  0  0  0  0
  9 10  1  0  0  0  0
  9 11  1  0  0  0  0
  9 22  1  0  0  0  0
 11 12  1  0  0  0  0
 11 13  1  0  0  0  0
 11 14  1  0  0  0  0
 14 15  1  0  0  0  0
 14 16  1  0  0  0  0
 14 17  1  0  0  0  0
 17 18  2  0  0  0  0
 17 19  1  0  0  0  0
 19 20  1  0  0  0  0
 19 21  1  0  0  0  0
 22 23  2  0  0  0  0
 22 24  1  0  0  0  0
 24 25  1  0  0  0  0
 24 26  1  0  0  0  0
 26 27  1  0  0  0  0
 26 28  1  0  0  0  0
 26 29  1  0  0  0  0
M  END
$$$$

  -OEChem-02102214123D

 29 28  0     1  0  0  0  0  0999 V2000
   -2.3282   -4.4805    0.3227 H   0  0  0  0  0  0  0  0  0  0  0  0
   -2.4104   -3.5085   -0.1721 C   0  0  0  0  0  0  0  0  0  0  0  0
   -3.3254   -3.0173    0.1679 H   0  0  0  0  0  0  0  0  0  0  0  0
   -2.4696   -3.6686   -1.2515 H   0  0  0  0  0  0  0  0  0  0  0  0
   -1.2035   -2.6509    0.1600 C   0  0  0  0  0  0  0  0  0  0  0  0
   -0.3172   -3.0939    0.8683 O   0  0  0  0  0  0  0  0  0  0  0  0
   -1.1212   -1.3615   -0.3293 N   0  0  0  0  0  0  0  0  0  0  0  0
   -1.8628   -1.0632   -0.9565 H   0  0  0  0  0  0  0  0  0  0  0  0
    0.0616   -0.4934   -0.1832 C   0  0  1  0  0  0  0  0  0  0  0  0
    0.8923   -1.0960   -0.5698 H   0  0  0  0  0  0  0  0  0  0  0  0
   -0.0337    0.7175   -1.1450 C   0  0  0  0  0  0  0  0  0  0  0  0
    0.9569    0.8107   -1.6060 H   0  0  0  0  0  0  0  0  0  0  0  0
   -0.7283    0.4985   -1.9625 H   0  0  0  0  0  0  0  0  0  0  0  0
   -0.3976    2.0916   -0.5290 C   0  0  0  0  0  0  0  0  0  0  0  0
   -1.4393    2.3305   -0.7606 H   0  0  0  0  0  0  0  0  0  0  0  0
   -0.3003    2.1154    0.5549 H   0  0  0  0  0  0  0  0  0  0  0  0
    0.5036    3.1863   -1.0790 C   0  0  0  0  0  0  0  0  0  0  0  0
    0.2206    3.7977   -2.0911 O   0  0  0  0  0  0  0  0  0  0  0  0
    1.7123    3.4555   -0.5035 N   0  0  0  0  0  0  0  0  0  0  0  0
    2.3483    4.0341   -1.0438 H   0  0  0  0  0  0  0  0  0  0  0  0
    2.0763    2.8025    0.1873 H   0  0  0  0  0  0  0  0  0  0  0  0
    0.4960   -0.1773    1.2672 C   0  0  0  0  0  0  0  0  0  0  0  0
    1.6627    0.1357    1.4722 O   0  0  0  0  0  0  0  0  0  0  0  0
   -0.4510    0.1698    2.2149 N   0  0  0  0  0  0  0  0  0  0  0  0
   -1.3976   -0.1486    2.0331 H   0  0  0  0  0  0  0  0  0  0  0  0
   -0.1027    0.5860    3.5682 C   0  0  0  0  0  0  0  0  0  0  0  0
    0.5290    1.4803    3.5459 H   0  0  0  0  0  0  0  0  0  0  0  0
   -1.0082    0.8199    4.1362 H   0  0  0  0  0  0  0  0  0  0  0  0
    0.4369   -0.2131    4.0872 H   0  0  0  0  0  0  0  0  0  0  0  0
  1  2  1  0  0  0  0
  2  3  1  0  0  0  0
  2  4  1  0  0  0  0
  2  5  1  0  0  0  0
  5  6  2  0  0  0  0
  5  7  1  0  0  0  0
  7  8  1  0  0  0  0
  7  9  1  0  0  0  0
  9 10  1  0  0  0  0
  9 11  1  0  0  0  0
  9 22  1  0  0  0  0
 11 12  1  0  0  0  0
 11 13  1  0  0  0  0
 11 14  1  0  0  0  0
 14 15  1  0  0  0  0
 14 16  1  0  0  0  0
 14 17  1  0  0  0  0
 17 18  2  0  0  0  0
 17 19  1  0  0  0  0
 19 20  1  0  0  0  0
 19 21  1  0  0  0  0
 22 23  2  0  0  0  0
 22 24  1  0  0  0  0
 24 25  1  0  0  0  0
 24 26  1  0  0  0  0
 26 27  1  0  0  0  0
 26 28  1  0  0  0  0
 26 29  1  0  0  0  0
M  END
$$$$

  -OEChem-02102214123D

 29 28  0     1  0  0  0  0  0999 V2000
   -2.3638   -4.4672    0.3182 H   0  0  0  0  0  0  0  0  0  0  0  0
   -2.4350   -3.4915   -0.1711 C   0  0  0  0  0  0  0  0  0  0  0  0
   -3.3343   -2.9842    0.1865 H   0  0  0  0  0  0  0  0  0  0  0  0
   -2.5148   -3.6456   -1.2499 H   0  0  0  0  0  0  0  0  0  0  0  0
   -1.2068   -2.6586    0.1443 C   0  0  0  0  0  0  0  0  0  0  0  0
   -0.3157   -3.1247    0.8312 O   0  0  0  0  0  0  0  0  0  0  0  0
   -1.1125   -1.3661   -0.3350 N   0  0  0  0  0  0  0  0  0  0  0  0
   -1.8601   -1.0511   -0.9470 H   0  0  0  0  0  0  0  0  0  0  0  0
    0.0826   -0.5132   -0.1941 C   0  0  1  0  0  0  0  0  0  0  0  0
    0.9097   -1.1003   -0.6112 H   0  0  0  0  0  0  0  0  0  0  0  0
   -0.0576    0.7278   -1.1125 C   0  0  0  0  0  0  0  0  0  0  0  0
    0.9176    0.8475   -1.5988 H   0  0  0  0  0  0  0  0  0  0  0  0
   -0.7787    0.5357   -1.9140 H   0  0  0  0  0  0  0  0  0  0  0  0
   -0.3988    2.0755   -0.4341 C   0  0  0  0  0  0  0  0  0  0  0  0
   -1.4831    2.1901   -0.3527 H   0  0  0  0  0  0  0  0  0  0  0  0
    0.0158    2.1476    0.5719 H   0  0  0  0  0  0  0  0  0  0  0  0
    0.1881    3.2368   -1.2232 C   0  0  0  0  0  0  0  0  0  0  0  0
   -0.3250    3.6223   -2.2559 O   0  0  0  0  0  0  0  0  0  0  0  0
    1.3684    3.8231   -0.8661 N   0  0  0  0  0  0  0  0  0  0  0  0
    1.7939    4.4321   -1.5587 H   0  0  0  0  0  0  0  0  0  0  0  0
    1.9430    3.3725   -0.1595 H   0  0  0  0  0  0  0  0  0  0  0  0
    0.5165   -0.2279    1.2626 C   0  0  0  0  0  0  0  0  0  0  0  0
    1.6928    0.0227    1.4929 O   0  0  0  0  0  0  0  0  0  0  0  0
   -0.4314    0.1149    2.2109 N   0  0  0  0  0  0  0  0  0  0  0  0
   -1.3843   -0.1699    2.0079 H   0  0  0  0  0  0  0  0  0  0  0  0
   -0.0857    0.4694    3.5818 C   0  0  0  0  0  0  0  0  0  0  0  0
    0.5553    1.3570    3.5989 H   0  0  0  0  0  0  0  0  0  0  0  0
   -0.9913    0.6883    4.1554 H   0  0  0  0  0  0  0  0  0  0  0  0
    0.4432   -0.3567    4.0684 H   0  0  0  0  0  0  0  0  0  0  0  0
  1  2  1  0  0  0  0
  2  3  1  0  0  0  0
  2  4  1  0  0  0  0
  2  5  1  0  0  0  0
  5  6  2  0  0  0  0
  5  7  1  0  0  0  0
  7  8  1  0  0  0  0
  7  9  1  0  0  0  0
  9 10  1  0  0  0  0
  9 11  1  0  0  0  0
  9 22  1  0  0  0  0
 11 12  1  0  0  0  0
 11 13  1  0  0  0  0
 11 14  1  0  0  0  0
 14 15  1  0  0  0  0
 14 16  1  0  0  0  0
 14 17  1  0  0  0  0
 17 18  2  0  0  0  0
 17 19  1  0  0  0  0
 19 20  1  0  0  0  0
 19 21  1  0  0  0  0
 22 23  2  0  0  0  0
 22 24  1  0  0  0  0
 24 25  1  0  0  0  0
 24 26  1  0  0  0  0
 26 27  1  0  0  0  0
 26 28  1  0  0  0  0
 26 29  1  0  0  0  0
M  END
$$$$

  -OEChem-02102214123D

 29 28  0     1  0  0  0  0  0999 V2000
   -2.4579   -4.4470    0.3346 H   0  0  0  0  0  0  0  0  0  0  0  0
   -2.5040   -3.4723   -0.1596 C   0  0  0  0  0  0  0  0  0  0  0  0
   -3.3893   -2.9399    0.1962 H   0  0  0  0  0  0  0  0  0  0  0  0
   -2.5891   -3.6290   -1.2377 H   0  0  0  0  0  0  0  0  0  0  0  0
   -1.2539   -2.6702    0.1502 C   0  0  0  0  0  0  0  0  0  0  0  0
   -0.3728   -3.1580    0.8350 O   0  0  0  0  0  0  0  0  0  0  0  0
   -1.1282   -1.3828   -0.3351 N   0  0  0  0  0  0  0  0  0  0  0  0
   -1.8644   -1.0576   -0.9556 H   0  0  0  0  0  0  0  0  0  0  0  0
    0.0930   -0.5642   -0.2131 C   0  0  1  0  0  0  0  0  0  0  0  0
    0.8996   -1.1642   -0.6502 H   0  0  0  0  0  0  0  0  0  0  0  0
   -0.0493    0.6895   -1.1126 C   0  0  0  0  0  0  0  0  0  0  0  0
    0.9072    0.8076   -1.6349 H   0  0  0  0  0  0  0  0  0  0  0  0
   -0.8078    0.5223   -1.8850 H   0  0  0  0  0  0  0  0  0  0  0  0
   -0.3406    2.0226   -0.3898 C   0  0  0  0  0  0  0  0  0  0  0  0
   -1.3736    2.0420   -0.0327 H   0  0  0  0  0  0  0  0  0  0  0  0
    0.3173    2.1499    0.4728 H   0  0  0  0  0  0  0  0  0  0  0  0
   -0.0980    3.2075   -1.3161 C   0  0  0  0  0  0  0  0  0  0  0  0
   -0.6545    3.2948   -2.3943 O   0  0  0  0  0  0  0  0  0  0  0  0
    0.8046    4.1879   -1.0183 N   0  0  0  0  0  0  0  0  0  0  0  0
    1.0457    4.8182   -1.7777 H   0  0  0  0  0  0  0  0  0  0  0  0
    1.4554    4.0374   -0.2540 H   0  0  0  0  0  0  0  0  0  0  0  0
    0.5508   -0.2887    1.2385 C   0  0  0  0  0  0  0  0  0  0  0  0
    1.7389   -0.0989    1.4646 O   0  0  0  0  0  0  0  0  0  0  0  0
   -0.3754    0.0842    2.1968 N   0  0  0  0  0  0  0  0  0  0  0  0
   -1.3399   -0.1627    1.9994 H   0  0  0  0  0  0  0  0  0  0  0  0
   -0.0042    0.4037    3.5695 C   0  0  0  0  0  0  0  0  0  0  0  0
    0.6822    1.2566    3.5933 H   0  0  0  0  0  0  0  0  0  0  0  0
   -0.8940    0.6623    4.1513 H   0  0  0  0  0  0  0  0  0  0  0  0
    0.4843   -0.4546    4.0430 H   0  0  0  0  0  0  0  0  0  0  0  0
  1  2  1  0  0  0  0
  2  3  1  0  0  0  0
  2  4  1  0  0  0  0
  2  5  1  0  0  0  0
  5  6  2  0  0  0  0
  5  7  1  0  0  0  0
  7  8  1  0  0  0  0
  7  9  1  0  0  0  0
  9 10  1  0  0  0  0
  9 11  1  0  0  0  0
  9 22  1  0  0  0  0
 11 12  1  0  0  0  0
 11 13  1  0  0  0  0
 11 14  1  0  0  0  0
 14 15  1  0  0  0  0
 14 16  1  0  0  0  0
 14 17  1  0  0  0  0
 17 18  2  0  0  0  0
 17 19  1  0  0  0  0
 19 20  1  0  0  0  0
 19 21  1  0  0  0  0
 22 23  2  0  0  0  0
 22 24  1  0  0  0  0
 24 25  1  0  0  0  0
 24 26  1  0  0  0  0
 26 27  1  0  0  0  0
 26 28  1  0  0  0  0
 26 29  1  0  0  0  0
M  END
$$$$

  -OEChem-02102214123D

 29 28  0     1  0  0  0  0  0999 V2000
   -2.6136   -4.3707    0.3772 H   0  0  0  0  0  0  0  0  0  0  0  0
   -2.6108   -3.4002   -0.1274 C   0  0  0  0  0  0  0  0  0  0  0  0
   -3.4684   -2.8204    0.2219 H   0  0  0  0  0  0  0  0  0  0  0  0
   -2.7031   -3.5637   -1.2038 H   0  0  0  0  0  0  0  0  0  0  0  0
   -1.3226   -2.6582    0.1747 C   0  0  0  0  0  0  0  0  0  0  0  0
   -0.4723   -3.1783    0.8741 O   0  0  0  0  0  0  0  0  0  0  0  0
   -1.1286   -1.3893   -0.3360 N   0  0  0  0  0  0  0  0  0  0  0  0
   -1.8406   -1.0456   -0.9743 H   0  0  0  0  0  0  0  0  0  0  0  0
    0.1355   -0.6342   -0.2336 C   0  0  1  0  0  0  0  0  0  0  0  0
    0.9167   -1.2721   -0.6632 H   0  0  0  0  0  0  0  0  0  0  0  0
    0.0431    0.6245   -1.1377 C   0  0  0  0  0  0  0  0  0  0  0  0
    0.8337    0.5540   -1.8931 H   0  0  0  0  0  0  0  0  0  0  0  0
   -0.9092    0.6196   -1.6786 H   0  0  0  0  0  0  0  0  0  0  0  0
    0.1945    1.9835   -0.4198 C   0  0  0  0  0  0  0  0  0  0  0  0
   -0.5837    2.0956    0.3394 H   0  0  0  0  0  0  0  0  0  0  0  0
    1.1680    2.0302    0.0770 H   0  0  0  0  0  0  0  0  0  0  0  0
    0.0908    3.1647   -1.3807 C   0  0  0  0  0  0  0  0  0  0  0  0
   -0.5053    3.1001   -2.4402 O   0  0  0  0  0  0  0  0  0  0  0  0
    0.6683    4.3681   -1.0940 N   0  0  0  0  0  0  0  0  0  0  0  0
    0.7024    5.0390   -1.8561 H   0  0  0  0  0  0  0  0  0  0  0  0
    1.3428    4.4193   -0.3376 H   0  0  0  0  0  0  0  0  0  0  0  0
    0.5971   -0.3638    1.2196 C   0  0  0  0  0  0  0  0  0  0  0  0
    1.7930   -0.2649    1.4635 O   0  0  0  0  0  0  0  0  0  0  0  0
   -0.3139    0.0709    2.1663 N   0  0  0  0  0  0  0  0  0  0  0  0
   -1.2892   -0.1211    1.9608 H   0  0  0  0  0  0  0  0  0  0  0  0
    0.0628    0.3724    3.5413 C   0  0  0  0  0  0  0  0  0  0  0  0
    0.8081    1.1743    3.5688 H   0  0  0  0  0  0  0  0  0  0  0  0
   -0.8135    0.6980    4.1097 H   0  0  0  0  0  0  0  0  0  0  0  0
    0.4824   -0.5154    4.0260 H   0  0  0  0  0  0  0  0  0  0  0  0
  1  2  1  0  0  0  0
  2  3  1  0  0  0  0
  2  4  1  0  0  0  0
  2  5  1  0  0  0  0
  5  6  2  0  0  0  0
  5  7  1  0  0  0  0
  7  8  1  0  0  0  0
  7  9  1  0  0  0  0
  9 10  1  0  0  0  0
  9 11  1  0  0  0  0
  9 22  1  0  0  0  0
 11 12  1  0  0  0  0
 11 13  1  0  0  0  0
 11 14  1  0  0  0  0
 14 15  1  0  0  0  0
 14 16  1  0  0  0  0
 14 17  1  0  0  0  0
 17 18  2  0  0  0  0
 17 19  1  0  0  0  0
 19 20  1  0  0  0  0
 19 21  1  0  0  0  0
 22 23  2  0  0  0  0
 22 24  1  0  0  0  0
 24 25  1  0  0  0  0
 24 26  1  0  0  0  0
 26 27  1  0  0  0  0
 26 28  1  0  0  0  0
 26 29  1  0  0  0  0
M  END
$$$$

  -OEChem-02102214123D

 29 28  0     1  0  0  0  0  0999 V2000
   -2.6519   -4.3630    0.3679 H   0  0  0  0  0  0  0  0  0  0  0  0
   -2.6471   -3.3848   -0.1216 C   0  0  0  0  0  0  0  0  0  0  0  0
   -3.4925   -2.8016    0.2511 H   0  0  0  0  0  0  0  0  0  0  0  0
   -2.7594   -3.5306   -1.1988 H   0  0  0  0  0  0  0  0  0  0  0  0
   -1.3456   -2.6616    0.1703 C   0  0  0  0  0  0  0  0  0  0  0  0
   -0.4916   -3.1997    0.8517 O   0  0  0  0  0  0  0  0  0  0  0  0
   -1.1428   -1.3889   -0.3272 N   0  0  0  0  0  0  0  0  0  0  0  0
   -1.8635   -1.0225   -0.9430 H   0  0  0  0  0  0  0  0  0  0  0  0
    0.1284   -0.6458   -0.2243 C   0  0  1  0  0  0  0  0  0  0  0  0
    0.8969   -1.2991   -0.6540 H   0  0  0  0  0  0  0  0  0  0  0  0
    0.0704    0.6070   -1.1395 C   0  0  0  0  0  0  0  0  0  0  0  0
    0.8576    0.5219   -1.8965 H   0  0  0  0  0  0  0  0  0  0  0  0
   -0.8830    0.6013   -1.6779 H   0  0  0  0  0  0  0  0  0  0  0  0
    0.2365    1.9724   -0.4327 C   0  0  0  0  0  0  0  0  0  0  0  0
   -0.3932    2.0110    0.4584 H   0  0  0  0  0  0  0  0  0  0  0  0
    1.2780    2.0971   -0.1208 H   0  0  0  0  0  0  0  0  0  0  0  0
   -0.1812    3.1583   -1.2999 C   0  0  0  0  0  0  0  0  0  0  0  0
   -0.8447    3.0427   -2.3141 O   0  0  0  0  0  0  0  0  0  0  0  0
    0.1659    4.4351   -0.9636 N   0  0  0  0  0  0  0  0  0  0  0  0
   -0.0048    5.1448   -1.6702 H   0  0  0  0  0  0  0  0  0  0  0  0
    0.8760    4.5801   -0.2534 H   0  0  0  0  0  0  0  0  0  0  0  0
    0.6090   -0.3909    1.2256 C   0  0  0  0  0  0  0  0  0  0  0  0
    1.8084   -0.2972    1.4532 O   0  0  0  0  0  0  0  0  0  0  0  0
   -0.2849    0.0435    2.1888 N   0  0  0  0  0  0  0  0  0  0  0  0
   -1.2653   -0.1333    1.9942 H   0  0  0  0  0  0  0  0  0  0  0  0
    0.1132    0.3337    3.5605 C   0  0  0  0  0  0  0  0  0  0  0  0
    0.8606    1.1339    3.5825 H   0  0  0  0  0  0  0  0  0  0  0  0
   -0.7534    0.6564    4.1454 H   0  0  0  0  0  0  0  0  0  0  0  0
    0.5384   -0.5586    4.0319 H   0  0  0  0  0  0  0  0  0  0  0  0
  1  2  1  0  0  0  0
  2  3  1  0  0  0  0
  2  4  1  0  0  0  0
  2  5  1  0  0  0  0
  5  6  2  0  0  0  0
  5  7  1  0  0  0  0
  7  8  1  0  0  0  0
  7  9  1  0  0  0  0
  9 10  1  0  0  0  0
  9 11  1  0  0  0  0
  9 22  1  0  0  0  0
 11 12  1  0  0  0  0
 11 13  1  0  0  0  0
 11 14  1  0  0  0  0
 14 15  1  0  0  0  0
 14 16  1  0  0  0  0
 14 17  1  0  0  0  0
 17 18  2  0  0  0  0
 17 19  1  0  0  0  0
 19 20  1  0  0  0  0
 19 21  1  0  0  0  0
 22 23  2  0  0  0  0
 22 24  1  0  0  0  0
 24 25  1  0  0  0  0
 24 26  1  0  0  0  0
 26 27  1  0  0  0  0
 26 28  1  0  0  0  0
 26 29  1  0  0  0  0
M  END
$$$$

  -OEChem-02102214123D

 29 28  0     1  0  0  0  0  0999 V2000
   -2.5862   -4.3707    0.2374 H   0  0  0  0  0  0  0  0  0  0  0  0
   -2.6113   -3.3566   -0.1717 C   0  0  0  0  0  0  0  0  0  0  0  0
   -3.4222   -2.8039    0.3087 H   0  0  0  0  0  0  0  0  0  0  0  0
   -2.8051   -3.4158   -1.2455 H   0  0  0  0  0  0  0  0  0  0  0  0
   -1.2873   -2.6597    0.0787 C   0  0  0  0  0  0  0  0  0  0  0  0
   -0.3897   -3.2483    0.6542 O   0  0  0  0  0  0  0  0  0  0  0  0
   -1.1116   -1.3534   -0.3341 N   0  0  0  0  0  0  0  0  0  0  0  0
   -1.8898   -0.9148   -0.8195 H   0  0  0  0  0  0  0  0  0  0  0  0
    0.1396   -0.5877   -0.1764 C   0  0  1  0  0  0  0  0  0  0  0  0
    0.9239   -1.2033   -0.6321 H   0  0  0  0  0  0  0  0  0  0  0  0
    0.0722    0.7032   -1.0364 C   0  0  0  0  0  0  0  0  0  0  0  0
    0.8749    0.6641   -1.7808 H   0  0  0  0  0  0  0  0  0  0  0  0
   -0.8677    0.6920   -1.5986 H   0  0  0  0  0  0  0  0  0  0  0  0
    0.1934    2.0495   -0.2833 C   0  0  0  0  0  0  0  0  0  0  0  0
   -0.2435    1.9858    0.7140 H   0  0  0  0  0  0  0  0  0  0  0  0
    1.2481    2.3154   -0.1683 H   0  0  0  0  0  0  0  0  0  0  0  0
   -0.5693    3.1625   -0.9915 C   0  0  0  0  0  0  0  0  0  0  0  0
   -1.7615    3.0759   -1.2220 O   0  0  0  0  0  0  0  0  0  0  0  0
    0.0513    4.2952   -1.4339 N   0  0  0  0  0  0  0  0  0  0  0  0
   -0.5559    5.0447   -1.7528 H   0  0  0  0  0  0  0  0  0  0  0  0
    0.9923    4.4992   -1.1136 H   0  0  0  0  0  0  0  0  0  0  0  0
    0.6067   -0.4142    1.2890 C   0  0  0  0  0  0  0  0  0  0  0  0
    1.8028   -0.3162    1.5309 O   0  0  0  0  0  0  0  0  0  0  0  0
   -0.3012   -0.0645    2.2732 N   0  0  0  0  0  0  0  0  0  0  0  0
   -1.2816   -0.2023    2.0494 H   0  0  0  0  0  0  0  0  0  0  0  0
    0.0789    0.1498    3.6635 C   0  0  0  0  0  0  0  0  0  0  0  0
    0.7925    0.9766    3.7434 H   0  0  0  0  0  0  0  0  0  0  0  0
   -0.8028    0.3967    4.2625 H   0  0  0  0  0  0  0  0  0  0  0  0
    0.5385   -0.7540    4.0776 H   0  0  0  0  0  0  0  0  0  0  0  0
  1  2  1  0  0  0  0
  2  3  1  0  0  0  0
  2  4  1  0  0  0  0
  2  5  1  0  0  0  0
  5  6  2  0  0  0  0
  5  7  1  0  0  0  0
  7  8  1  0  0  0  0
  7  9  1  0  0  0  0
  9 10  1  0  0  0  0
  9 11  1  0  0  0  0
  9 22  1  0  0  0  0
 11 12  1  0  0  0  0
 11 13  1  0  0  0  0
 11 14  1  0  0  0  0
 14 15  1  0  0  0  0
 14 16  1  0  0  0  0
 14 17  1  0  0  0  0
 17 18  2  0  0  0  0
 17 19  1  0  0  0  0
 19 20  1  0  0  0  0
 19 21  1  0  0  0  0
 22 23  2  0  0  0  0
 22 24  1  0  0  0  0
 24 25  1  0  0  0  0
 24 26  1  0  0  0  0
 26 27  1  0  0  0  0
 26 28  1  0  0  0  0
 26 29  1  0  0  0  0
M  END
$$$$

  -OEChem-02102214123D

 29 28  0     1  0  0  0  0  0999 V2000
   -2.6688   -4.3127    0.2527 H   0  0  0  0  0  0  0  0  0  0  0  0
   -2.6619   -3.3020   -0.1654 C   0  0  0  0  0  0  0  0  0  0  0  0
   -3.4405   -2.7133    0.3255 H   0  0  0  0  0  0  0  0  0  0  0  0
   -2.8790   -3.3622   -1.2347 H   0  0  0  0  0  0  0  0  0  0  0  0
   -1.3060   -2.6570    0.0525 C   0  0  0  0  0  0  0  0  0  0  0  0
   -0.4075   -3.2917    0.5753 O   0  0  0  0  0  0  0  0  0  0  0  0
   -1.0992   -1.3482   -0.3368 N   0  0  0  0  0  0  0  0  0  0  0  0
   -1.8891   -0.8596   -0.7507 H   0  0  0  0  0  0  0  0  0  0  0  0
    0.1691   -0.6140   -0.1689 C   0  0  1  0  0  0  0  0  0  0  0  0
    0.9398   -1.2366   -0.6381 H   0  0  0  0  0  0  0  0  0  0  0  0
    0.1110    0.6896   -1.0127 C   0  0  0  0  0  0  0  0  0  0  0  0
    0.9192    0.6422   -1.7505 H   0  0  0  0  0  0  0  0  0  0  0  0
   -0.8191    0.6890   -1.5913 H   0  0  0  0  0  0  0  0  0  0  0  0
    0.2535    2.0425   -0.2661 C   0  0  0  0  0  0  0  0  0  0  0  0
    0.1044    1.9459    0.8085 H   0  0  0  0  0  0  0  0  0  0  0  0
    1.2641    2.4322   -0.4163 H   0  0  0  0  0  0  0  0  0  0  0  0
   -0.7774    3.0598   -0.7416 C   0  0  0  0  0  0  0  0  0  0  0  0
   -1.9699    2.8127   -0.7341 O   0  0  0  0  0  0  0  0  0  0  0  0
   -0.4155    4.2820   -1.2306 N   0  0  0  0  0  0  0  0  0  0  0  0
   -1.1690    4.9480   -1.3751 H   0  0  0  0  0  0  0  0  0  0  0  0
    0.5348    4.6077   -1.0874 H   0  0  0  0  0  0  0  0  0  0  0  0
    0.6398   -0.4787    1.2988 C   0  0  0  0  0  0  0  0  0  0  0  0
    1.8377   -0.4157    1.5436 O   0  0  0  0  0  0  0  0  0  0  0  0
   -0.2605   -0.1263    2.2895 N   0  0  0  0  0  0  0  0  0  0  0  0
   -1.2458   -0.1988    2.0561 H   0  0  0  0  0  0  0  0  0  0  0  0
    0.1242    0.0943    3.6777 C   0  0  0  0  0  0  0  0  0  0  0  0
    0.8451    0.9154    3.7503 H   0  0  0  0  0  0  0  0  0  0  0  0
   -0.7540    0.3532    4.2769 H   0  0  0  0  0  0  0  0  0  0  0  0
    0.5767   -0.8104    4.0974 H   0  0  0  0  0  0  0  0  0  0  0  0
  1  2  1  0  0  0  0
  2  3  1  0  0  0  0
  2  4  1  0  0  0  0
  2  5  1  0  0  0  0
  5  6  2  0  0  0  0
  5  7  1  0  0  0  0
  7  8  1  0  0  0  0
  7  9  1  0  0  0  0
  9 10  1  0  0  0  0
  9 11  1  0  0  0  0
  9 22  1  0  0  0  0
 11 12  1  0  0  0  0
 11 13  1  0  0  0  0
 11 14  1  0  0  0  0
 14 15  1  0  0  0  0
 14 16  1  0  0  0  0
 14 17  1  0  0  0  0
 17 18  2  0  0  0  0
 17 19  1  0  0  0  0
 19 20  1  0  0  0  0
 19 21  1  0  0  0  0
 22 23  2  0  0  0  0
 22 24  1  0  0  0  0
 24 25  1  0  0  0  0
 24 26  1  0  0  0  0
 26 27  1  0  0  0  0
 26 28  1  0  0  0  0
 26 29  1  0  0  0  0
M  END
$$$$

  -OEChem-02102214123D

 29 28  0     1  0  0  0  0  0999 V2000
   -2.7356   -4.2458    0.3479 H   0  0  0  0  0  0  0  0  0  0  0  0
   -2.7073   -3.2404   -0.0818 C   0  0  0  0  0  0  0  0  0  0  0  0
   -3.4269   -2.6118    0.4482 H   0  0  0  0  0  0  0  0  0  0  0  0
   -2.9914   -3.3000   -1.1352 H   0  0  0  0  0  0  0  0  0  0  0  0
   -1.3122   -2.6576    0.0461 C   0  0  0  0  0  0  0  0  0  0  0  0
   -0.4120   -3.3333    0.5124 O   0  0  0  0  0  0  0  0  0  0  0  0
   -1.0707   -1.3610   -0.3637 N   0  0  0  0  0  0  0  0  0  0  0  0
   -1.8719   -0.8233   -0.6862 H   0  0  0  0  0  0  0  0  0  0  0  0
    0.2189   -0.6630   -0.2068 C   0  0  1  0  0  0  0  0  0  0  0  0
    0.9786   -1.2969   -0.6788 H   0  0  0  0  0  0  0  0  0  0  0  0
    0.1538    0.6452   -1.0427 C   0  0  0  0  0  0  0  0  0  0  0  0
    0.9686    0.5834   -1.7719 H   0  0  0  0  0  0  0  0  0  0  0  0
   -0.7662    0.6589   -1.6374 H   0  0  0  0  0  0  0  0  0  0  0  0
    0.3293    2.0003   -0.3033 C   0  0  0  0  0  0  0  0  0  0  0  0
    0.5361    1.8992    0.7612 H   0  0  0  0  0  0  0  0  0  0  0  0
    1.1900    2.5173   -0.7365 H   0  0  0  0  0  0  0  0  0  0  0  0
   -0.8989    2.8892   -0.4640 C   0  0  0  0  0  0  0  0  0  0  0  0
   -2.0270    2.4504   -0.3220 O   0  0  0  0  0  0  0  0  0  0  0  0
   -0.8001    4.2148   -0.7763 N   0  0  0  0  0  0  0  0  0  0  0  0
   -1.6547    4.7585   -0.6957 H   0  0  0  0  0  0  0  0  0  0  0  0
    0.1040    4.6705   -0.7073 H   0  0  0  0  0  0  0  0  0  0  0  0
    0.6745   -0.5318    1.2649 C   0  0  0  0  0  0  0  0  0  0  0  0
    1.8688   -0.5190    1.5331 O   0  0  0  0  0  0  0  0  0  0  0  0
   -0.2326   -0.1426    2.2350 N   0  0  0  0  0  0  0  0  0  0  0  0
   -1.2121   -0.1243    1.9676 H   0  0  0  0  0  0  0  0  0  0  0  0
    0.1306    0.0996    3.6247 C   0  0  0  0  0  0  0  0  0  0  0  0
    0.8680    0.9062    3.6933 H   0  0  0  0  0  0  0  0  0  0  0  0
   -0.7531    0.3899    4.2009 H   0  0  0  0  0  0  0  0  0  0  0  0
    0.5547   -0.8057    4.0715 H   0  0  0  0  0  0  0  0  0  0  0  0
  1  2  1  0  0  0  0
  2  3  1  0  0  0  0
  2  4  1  0  0  0  0
  2  5  1  0  0  0  0
  5  6  2  0  0  0  0
  5  7  1  0  0  0  0
  7  8  1  0  0  0  0
  7  9  1  0  0  0  0
  9 10  1  0  0  0  0
  9 11  1  0  0  0  0
  9 22  1  0  0  0  0
 11 12  1  0  0  0  0
 11 13  1  0  0  0  0
 11 14  1  0  0  0  0
 14 15  1  0  0  0  0
 14 16  1  0  0  0  0
 14 17  1  0  0  0  0
 17 18  2  0  0  0  0
 17 19  1  0  0  0  0
 19 20  1  0  0  0  0
 19 21  1  0  0  0  0
 22 23  2  0  0  0  0
 22 24  1  0  0  0  0
 24 25  1  0  0  0  0
 24 26  1  0  0  0  0
 26 27  1  0  0  0  0
 26 28  1  0  0  0  0
 26 29  1  0  0  0  0
M  END
$$$$

  -OEChem-02102214123D

 29 28  0     1  0  0  0  0  0999 V2000
   -2.7834   -4.1670    0.4294 H   0  0  0  0  0  0  0  0  0  0  0  0
   -2.7376   -3.1612    0.0020 C   0  0  0  0  0  0  0  0  0  0  0  0
   -3.3697   -2.4977    0.5968 H   0  0  0  0  0  0  0  0  0  0  0  0
   -3.1173   -3.1959   -1.0218 H   0  0  0  0  0  0  0  0  0  0  0  0
   -1.3067   -2.6574    0.0062 C   0  0  0  0  0  0  0  0  0  0  0  0
   -0.4068   -3.3868    0.3842 O   0  0  0  0  0  0  0  0  0  0  0  0
   -1.0319   -1.3755   -0.4282 N   0  0  0  0  0  0  0  0  0  0  0  0
   -1.8373   -0.7829   -0.6162 H   0  0  0  0  0  0  0  0  0  0  0  0
    0.2769   -0.7167   -0.2621 C   0  0  1  0  0  0  0  0  0  0  0  0
    1.0355   -1.3547   -0.7303 H   0  0  0  0  0  0  0  0  0  0  0  0
    0.2070    0.6071   -1.0714 C   0  0  0  0  0  0  0  0  0  0  0  0
    1.0210    0.5505   -1.8020 H   0  0  0  0  0  0  0  0  0  0  0  0
   -0.7150    0.6554   -1.6623 H   0  0  0  0  0  0  0  0  0  0  0  0
    0.4104    1.9319   -0.2925 C   0  0  0  0  0  0  0  0  0  0  0  0
    0.9281    1.8208    0.6609 H   0  0  0  0  0  0  0  0  0  0  0  0
    1.0425    2.5818   -0.9037 H   0  0  0  0  0  0  0  0  0  0  0  0
   -0.9209    2.6465   -0.0935 C   0  0  0  0  0  0  0  0  0  0  0  0
   -1.9198    2.0299    0.2403 O   0  0  0  0  0  0  0  0  0  0  0  0
   -1.0640    3.9923   -0.2743 N   0  0  0  0  0  0  0  0  0  0  0  0
   -1.9402    4.3982    0.0417 H   0  0  0  0  0  0  0  0  0  0  0  0
   -0.2334    4.5699   -0.3561 H   0  0  0  0  0  0  0  0  0  0  0  0
    0.6874   -0.5856    1.2233 C   0  0  0  0  0  0  0  0  0  0  0  0
    1.8670   -0.6529    1.5435 O   0  0  0  0  0  0  0  0  0  0  0  0
   -0.2413   -0.1535    2.1548 N   0  0  0  0  0  0  0  0  0  0  0  0
   -1.1638    0.0907    1.8011 H   0  0  0  0  0  0  0  0  0  0  0  0
    0.0961    0.1694    3.5343 C   0  0  0  0  0  0  0  0  0  0  0  0
    0.7870    1.0177    3.5712 H   0  0  0  0  0  0  0  0  0  0  0  0
   -0.8076    0.4315    4.0929 H   0  0  0  0  0  0  0  0  0  0  0  0
    0.5667   -0.6899    4.0235 H   0  0  0  0  0  0  0  0  0  0  0  0
  1  2  1  0  0  0  0
  2  3  1  0  0  0  0
  2  4  1  0  0  0  0
  2  5  1  0  0  0  0
  5  6  2  0  0  0  0
  5  7  1  0  0  0  0
  7  8  1  0  0  0  0
  7  9  1  0  0  0  0
  9 10  1  0  0  0  0
  9 11  1  0  0  0  0
  9 22  1  0  0  0  0
 11 12  1  0  0  0  0
 11 13  1  0  0  0  0
 11 14  1  0  0  0  0
 14 15  1  0  0  0  0
 14 16  1  0  0  0  0
 14 17  1  0  0  0  0
 17 18  2  0  0  0  0
 17 19  1  0  0  0  0
 19 20  1  0  0  0  0
 19 21  1  0  0  0  0
 22 23  2  0  0  0  0
 22 24  1  0  0  0  0
 24 25  1  0  0  0  0
 24 26  1  0  0  0  0
 26 27  1  0  0  0  0
 26 28  1  0  0  0  0
 26 29  1  0  0  0  0
M  END
$$$$

  -OEChem-02102214123D

 29 28  0     1  0  0  0  0  0999 V2000
   -2.7869   -4.1607    0.4990 H   0  0  0  0  0  0  0  0  0  0  0  0
   -2.7418   -3.1648    0.0493 C   0  0  0  0  0  0  0  0  0  0  0  0
   -3.3580   -2.4836    0.6411 H   0  0  0  0  0  0  0  0  0  0  0  0
   -3.1404   -3.2183   -0.9667 H   0  0  0  0  0  0  0  0  0  0  0  0
   -1.3076   -2.6717    0.0164 C   0  0  0  0  0  0  0  0  0  0  0  0
   -0.4053   -3.4008    0.3900 O   0  0  0  0  0  0  0  0  0  0  0  0
   -1.0334   -1.3999   -0.4465 N   0  0  0  0  0  0  0  0  0  0  0  0
   -1.8413   -0.7999   -0.5997 H   0  0  0  0  0  0  0  0  0  0  0  0
    0.2738   -0.7393   -0.2829 C   0  0  1  0  0  0  0  0  0  0  0  0
    1.0327   -1.3950   -0.7255 H   0  0  0  0  0  0  0  0  0  0  0  0
    0.2273    0.5585   -1.1344 C   0  0  0  0  0  0  0  0  0  0  0  0
    1.0501    0.4796   -1.8528 H   0  0  0  0  0  0  0  0  0  0  0  0
   -0.6903    0.6048   -1.7317 H   0  0  0  0  0  0  0  0  0  0  0  0
    0.4263    1.8914   -0.3763 C   0  0  0  0  0  0  0  0  0  0  0  0
    1.1405    1.8116    0.4464 H   0  0  0  0  0  0  0  0  0  0  0  0
    0.8448    2.6161   -1.0802 H   0  0  0  0  0  0  0  0  0  0  0  0
   -0.9052    2.4560    0.1157 C   0  0  0  0  0  0  0  0  0  0  0  0
   -1.8598    1.7373    0.3707 O   0  0  0  0  0  0  0  0  0  0  0  0
   -1.0817    3.7917    0.3346 N   0  0  0  0  0  0  0  0  0  0  0  0
   -1.9269    4.0604    0.8304 H   0  0  0  0  0  0  0  0  0  0  0  0
   -0.2697    4.4008    0.3418 H   0  0  0  0  0  0  0  0  0  0  0  0
    0.6818   -0.5690    1.2002 C   0  0  0  0  0  0  0  0  0  0  0  0
    1.8611   -0.6320    1.5229 O   0  0  0  0  0  0  0  0  0  0  0  0
   -0.2435   -0.1124    2.1226 N   0  0  0  0  0  0  0  0  0  0  0  0
   -1.1506    0.1691    1.7505 H   0  0  0  0  0  0  0  0  0  0  0  0
    0.1002    0.2510    3.4904 C   0  0  0  0  0  0  0  0  0  0  0  0
    0.7747    1.1131    3.5000 H   0  0  0  0  0  0  0  0  0  0  0  0
   -0.8036    0.5089    4.0503 H   0  0  0  0  0  0  0  0  0  0  0  0
    0.5908   -0.5873    3.9964 H   0  0  0  0  0  0  0  0  0  0  0  0
  1  2  1  0  0  0  0
  2  3  1  0  0  0  0
  2  4  1  0  0  0  0
  2  5  1  0  0  0  0
  5  6  2  0  0  0  0
  5  7  1  0  0  0  0
  7  8  1  0  0  0  0
  7  9  1  0  0  0  0
  9 10  1  0  0  0  0
  9 11  1  0  0  0  0
  9 22  1  0  0  0  0
 11 12  1  0  0  0  0
 11 13  1  0  0  0  0
 11 14  1  0  0  0  0
 14 15  1  0  0  0  0
 14 16  1  0  0  0  0
 14 17  1  0  0  0  0
 17 18  2  0  0  0  0
 17 19  1  0  0  0  0
 19 20  1  0  0  0  0
 19 21  1  0  0  0  0
 22 23  2  0  0  0  0
 22 24  1  0  0  0  0
 24 25  1  0  0  0  0
 24 26  1  0  0  0  0
 26 27  1  0  0  0  0
 26 28  1  0  0  0  0
 26 29  1  0  0  0  0
M  END
$$$$

  -OEChem-02102214123D

 29 28  0     1  0  0  0  0  0999 V2000
   -2.7621   -4.2004    0.5169 H   0  0  0  0  0  0  0  0  0  0  0  0
   -2.7310   -3.2067    0.0611 C   0  0  0  0  0  0  0  0  0  0  0  0
   -3.3632   -2.5325    0.6440 H   0  0  0  0  0  0  0  0  0  0  0  0
   -3.1214   -3.2733   -0.9572 H   0  0  0  0  0  0  0  0  0  0  0  0
   -1.3056   -2.6885    0.0350 C   0  0  0  0  0  0  0  0  0  0  0  0
   -0.3946   -3.3950    0.4306 O   0  0  0  0  0  0  0  0  0  0  0  0
   -1.0507   -1.4165   -0.4376 N   0  0  0  0  0  0  0  0  0  0  0  0
   -1.8668   -0.8307   -0.6031 H   0  0  0  0  0  0  0  0  0  0  0  0
    0.2430   -0.7317   -0.2761 C   0  0  1  0  0  0  0  0  0  0  0  0
    1.0026   -1.4042   -0.6911 H   0  0  0  0  0  0  0  0  0  0  0  0
    0.2352    0.5269   -1.1863 C   0  0  0  0  0  0  0  0  0  0  0  0
    1.0720    0.4174   -1.8840 H   0  0  0  0  0  0  0  0  0  0  0  0
   -0.6735    0.5521   -1.7981 H   0  0  0  0  0  0  0  0  0  0  0  0
    0.4104    1.8888   -0.4810 C   0  0  0  0  0  0  0  0  0  0  0  0
    1.2583    1.8639    0.2093 H   0  0  0  0  0  0  0  0  0  0  0  0
    0.6351    2.6442   -1.2388 H   0  0  0  0  0  0  0  0  0  0  0  0
   -0.8505    2.3377    0.2591 C   0  0  0  0  0  0  0  0  0  0  0  0
   -1.8519    1.6431    0.3496 O   0  0  0  0  0  0  0  0  0  0  0  0
   -0.9026    3.5419    0.8991 N   0  0  0  0  0  0  0  0  0  0  0  0
   -1.6996    3.6982    1.5092 H   0  0  0  0  0  0  0  0  0  0  0  0
   -0.0438    4.0665    1.0325 H   0  0  0  0  0  0  0  0  0  0  0  0
    0.6689   -0.5278    1.1986 C   0  0  0  0  0  0  0  0  0  0  0  0
    1.8564   -0.5403    1.4967 O   0  0  0  0  0  0  0  0  0  0  0  0
   -0.2441   -0.0741    2.1333 N   0  0  0  0  0  0  0  0  0  0  0  0
   -1.1758    0.1484    1.7829 H   0  0  0  0  0  0  0  0  0  0  0  0
    0.1159    0.3202    3.4883 C   0  0  0  0  0  0  0  0  0  0  0  0
    0.7783    1.1916    3.4707 H   0  0  0  0  0  0  0  0  0  0  0  0
   -0.7827    0.5765    4.0575 H   0  0  0  0  0  0  0  0  0  0  0  0
    0.6263   -0.5011    4.0026 H   0  0  0  0  0  0  0  0  0  0  0  0
  1  2  1  0  0  0  0
  2  3  1  0  0  0  0
  2  4  1  0  0  0  0
  2  5  1  0  0  0  0
  5  6  2  0  0  0  0
  5  7  1  0  0  0  0
  7  8  1  0  0  0  0
  7  9  1  0  0  0  0
  9 10  1  0  0  0  0
  9 11  1  0  0  0  0
  9 22  1  0  0  0  0
 11 12  1  0  0  0  0
 11 13  1  0  0  0  0
 11 14  1  0  0  0  0
 14 15  1  0  0  0  0
 14 16  1  0  0  0  0
 14 17  1  0  0  0  0
 17 18  2  0  0  0  0
 17 19  1  0  0  0  0
 19 20  1  0  0  0  0
 19 21  1  0  0  0  0
 22 23  2  0  0  0  0
 22 24  1  0  0  0  0
 24 25  1  0  0  0  0
 24 26  1  0  0  0  0
 26 27  1  0  0  0  0
 26 28  1  0  0  0  0
 26 29  1  0  0  0  0
M  END
$$$$

  -OEChem-02102214123D

 29 28  0     1  0  0  0  0  0999 V2000
   -2.7221   -4.2537    0.5027 H   0  0  0  0  0  0  0  0  0  0  0  0
   -2.7126   -3.2601    0.0458 C   0  0  0  0  0  0  0  0  0  0  0  0
   -3.3729   -2.6041    0.6178 H   0  0  0  0  0  0  0  0  0  0  0  0
   -3.0852   -3.3395   -0.9782 H   0  0  0  0  0  0  0  0  0  0  0  0
   -1.3021   -2.7017    0.0412 C   0  0  0  0  0  0  0  0  0  0  0  0
   -0.3769   -3.3857    0.4436 O   0  0  0  0  0  0  0  0  0  0  0  0
   -1.0768   -1.4177   -0.4139 N   0  0  0  0  0  0  0  0  0  0  0  0
   -1.9050   -0.8518   -0.5875 H   0  0  0  0  0  0  0  0  0  0  0  0
    0.2011   -0.7057   -0.2483 C   0  0  1  0  0  0  0  0  0  0  0  0
    0.9605   -1.3891   -0.6470 H   0  0  0  0  0  0  0  0  0  0  0  0
    0.2369    0.5190   -1.2035 C   0  0  0  0  0  0  0  0  0  0  0  0
    1.0868    0.3803   -1.8801 H   0  0  0  0  0  0  0  0  0  0  0  0
   -0.6626    0.5189   -1.8288 H   0  0  0  0  0  0  0  0  0  0  0  0
    0.3847    1.9176   -0.5691 C   0  0  0  0  0  0  0  0  0  0  0  0
    1.3350    1.9668   -0.0292 H   0  0  0  0  0  0  0  0  0  0  0  0
    0.4172    2.6681   -1.3636 H   0  0  0  0  0  0  0  0  0  0  0  0
   -0.7453    2.2876    0.3910 C   0  0  0  0  0  0  0  0  0  0  0  0
   -1.8034    1.6778    0.4320 O   0  0  0  0  0  0  0  0  0  0  0  0
   -0.6177    3.3236    1.2706 N   0  0  0  0  0  0  0  0  0  0  0  0
   -1.3385    3.4062    1.9813 H   0  0  0  0  0  0  0  0  0  0  0  0
    0.3029    3.7218    1.4274 H   0  0  0  0  0  0  0  0  0  0  0  0
    0.6531   -0.4991    1.2186 C   0  0  0  0  0  0  0  0  0  0  0  0
    1.8481   -0.4701    1.4831 O   0  0  0  0  0  0  0  0  0  0  0  0
   -0.2420   -0.0735    2.1832 N   0  0  0  0  0  0  0  0  0  0  0  0
   -1.1874    0.1326    1.8611 H   0  0  0  0  0  0  0  0  0  0  0  0
    0.1467    0.3136    3.5327 C   0  0  0  0  0  0  0  0  0  0  0  0
    0.8014    1.1905    3.5072 H   0  0  0  0  0  0  0  0  0  0  0  0
   -0.7402    0.5579    4.1246 H   0  0  0  0  0  0  0  0  0  0  0  0
    0.6755   -0.5078    4.0275 H   0  0  0  0  0  0  0  0  0  0  0  0
  1  2  1  0  0  0  0
  2  3  1  0  0  0  0
  2  4  1  0  0  0  0
  2  5  1  0  0  0  0
  5  6  2  0  0  0  0
  5  7  1  0  0  0  0
  7  8  1  0  0  0  0
  7  9  1  0  0  0  0
  9 10  1  0  0  0  0
  9 11  1  0  0  0  0
  9 22  1  0  0  0  0
 11 12  1  0  0  0  0
 11 13  1  0  0  0  0
 11 14  1  0  0  0  0
 14 15  1  0  0  0  0
 14 16  1  0  0  0  0
 14 17  1  0  0  0  0
 17 18  2  0  0  0  0
 17 19  1  0  0  0  0
 19 20  1  0  0  0  0
 19 21  1  0  0  0  0
 22 23  2  0  0  0  0
 22 24  1  0  0  0  0
 24 25  1  0  0  0  0
 24 26  1  0  0  0  0
 26 27  1  0  0  0  0
 26 28  1  0  0  0  0
 26 29  1  0  0  0  0
M  END
$$$$

  -OEChem-02102214123D

 29 28  0     1  0  0  0  0  0999 V2000
   -2.7042   -4.3011    0.3905 H   0  0  0  0  0  0  0  0  0  0  0  0
   -2.7110   -3.2887   -0.0234 C   0  0  0  0  0  0  0  0  0  0  0  0
   -3.3901   -2.6713    0.5696 H   0  0  0  0  0  0  0  0  0  0  0  0
   -3.0722   -3.3319   -1.0537 H   0  0  0  0  0  0  0  0  0  0  0  0
   -1.3124   -2.7019    0.0105 C   0  0  0  0  0  0  0  0  0  0  0  0
   -0.3791   -3.3798    0.4044 O   0  0  0  0  0  0  0  0  0  0  0  0
   -1.1079   -1.3993   -0.4003 N   0  0  0  0  0  0  0  0  0  0  0  0
   -1.9432   -0.8477   -0.5821 H   0  0  0  0  0  0  0  0  0  0  0  0
    0.1593   -0.6716   -0.2180 C   0  0  1  0  0  0  0  0  0  0  0  0
    0.9157   -1.3595   -0.6146 H   0  0  0  0  0  0  0  0  0  0  0  0
    0.2381    0.5380   -1.1925 C   0  0  0  0  0  0  0  0  0  0  0  0
    1.0951    0.3751   -1.8548 H   0  0  0  0  0  0  0  0  0  0  0  0
   -0.6528    0.5219   -1.8289 H   0  0  0  0  0  0  0  0  0  0  0  0
    0.3684    1.9685   -0.6241 C   0  0  0  0  0  0  0  0  0  0  0  0
    1.3959    2.0978   -0.2717 H   0  0  0  0  0  0  0  0  0  0  0  0
    0.2004    2.6940   -1.4246 H   0  0  0  0  0  0  0  0  0  0  0  0
   -0.5646    2.3000    0.5356 C   0  0  0  0  0  0  0  0  0  0  0  0
   -1.6829    1.8166    0.6216 O   0  0  0  0  0  0  0  0  0  0  0  0
   -0.1947    3.1571    1.5319 N   0  0  0  0  0  0  0  0  0  0  0  0
   -0.8020    3.1854    2.3452 H   0  0  0  0  0  0  0  0  0  0  0  0
    0.7895    3.3879    1.6273 H   0  0  0  0  0  0  0  0  0  0  0  0
    0.6307   -0.5000    1.2477 C   0  0  0  0  0  0  0  0  0  0  0  0
    1.8302   -0.4490    1.4888 O   0  0  0  0  0  0  0  0  0  0  0  0
   -0.2503   -0.1200    2.2436 N   0  0  0  0  0  0  0  0  0  0  0  0
   -1.1976    0.1078    1.9428 H   0  0  0  0  0  0  0  0  0  0  0  0
    0.1606    0.2188    3.5996 C   0  0  0  0  0  0  0  0  0  0  0  0
    0.8265    1.0875    3.5942 H   0  0  0  0  0  0  0  0  0  0  0  0
   -0.7155    0.4556    4.2105 H   0  0  0  0  0  0  0  0  0  0  0  0
    0.6847   -0.6247    4.0614 H   0  0  0  0  0  0  0  0  0  0  0  0
  1  2  1  0  0  0  0
  2  3  1  0  0  0  0
  2  4  1  0  0  0  0
  2  5  1  0  0  0  0
  5  6  2  0  0  0  0
  5  7  1  0  0  0  0
  7  8  1  0  0  0  0
  7  9  1  0  0  0  0
  9 10  1  0  0  0  0
  9 11  1  0  0  0  0
  9 22  1  0  0  0  0
 11 12  1  0  0  0  0
 11 13  1  0  0  0  0
 11 14  1  0  0  0  0
 14 15  1  0  0  0  0
 14 16  1  0  0  0  0
 14 17  1  0  0  0  0
 17 18  2  0  0  0  0
 17 19  1  0  0  0  0
 19 20  1  0  0  0  0
 19 21  1  0  0  0  0
 22 23  2  0  0  0  0
 22 24  1  0  0  0  0
 24 25  1  0  0  0  0
 24 26  1  0  0  0  0
 26 27  1  0  0  0  0
 26 28  1  0  0  0  0
 26 29  1  0  0  0  0
M  END
$$$$

  -OEChem-02102214123D

 29 28  0     1  0  0  0  0  0999 V2000
   -2.5184   -4.4073    0.4213 H   0  0  0  0  0  0  0  0  0  0  0  0
   -2.5842   -3.3931    0.0175 C   0  0  0  0  0  0  0  0  0  0  0  0
   -3.2894   -2.8194    0.6233 H   0  0  0  0  0  0  0  0  0  0  0  0
   -2.9539   -3.4460   -1.0094 H   0  0  0  0  0  0  0  0  0  0  0  0
   -1.2189   -2.7322    0.0438 C   0  0  0  0  0  0  0  0  0  0  0  0
   -0.2472   -3.3612    0.4253 O   0  0  0  0  0  0  0  0  0  0  0  0
   -1.0883   -1.4165   -0.3570 N   0  0  0  0  0  0  0  0  0  0  0  0
   -1.9521   -0.9150   -0.5469 H   0  0  0  0  0  0  0  0  0  0  0  0
    0.1422   -0.6233   -0.1916 C   0  0  1  0  0  0  0  0  0  0  0  0
    0.9219   -1.2859   -0.5862 H   0  0  0  0  0  0  0  0  0  0  0  0
    0.1783    0.5619   -1.2018 C   0  0  0  0  0  0  0  0  0  0  0  0
    1.0380    0.4055   -1.8626 H   0  0  0  0  0  0  0  0  0  0  0  0
   -0.7114    0.4778   -1.8345 H   0  0  0  0  0  0  0  0  0  0  0  0
    0.2408    2.0332   -0.7258 C   0  0  0  0  0  0  0  0  0  0  0  0
    1.2964    2.3040   -0.6324 H   0  0  0  0  0  0  0  0  0  0  0  0
   -0.1919    2.6807   -1.4934 H   0  0  0  0  0  0  0  0  0  0  0  0
   -0.4226    2.3537    0.6049 C   0  0  0  0  0  0  0  0  0  0  0  0
   -1.5739    2.0166    0.8284 O   0  0  0  0  0  0  0  0  0  0  0  0
    0.2334    3.0122    1.6050 N   0  0  0  0  0  0  0  0  0  0  0  0
   -0.2271    2.9947    2.5096 H   0  0  0  0  0  0  0  0  0  0  0  0
    1.2484    3.0328    1.5658 H   0  0  0  0  0  0  0  0  0  0  0  0
    0.6311   -0.4401    1.2674 C   0  0  0  0  0  0  0  0  0  0  0  0
    1.8314   -0.3336    1.4863 O   0  0  0  0  0  0  0  0  0  0  0  0
   -0.2459   -0.1177    2.2872 N   0  0  0  0  0  0  0  0  0  0  0  0
   -1.2034    0.0944    2.0104 H   0  0  0  0  0  0  0  0  0  0  0  0
    0.1738    0.1713    3.6523 C   0  0  0  0  0  0  0  0  0  0  0  0
    0.8381    1.0407    3.6775 H   0  0  0  0  0  0  0  0  0  0  0  0
   -0.6987    0.3819    4.2780 H   0  0  0  0  0  0  0  0  0  0  0  0
    0.7035   -0.6879    4.0768 H   0  0  0  0  0  0  0  0  0  0  0  0
  1  2  1  0  0  0  0
  2  3  1  0  0  0  0
  2  4  1  0  0  0  0
  2  5  1  0  0  0  0
  5  6  2  0  0  0  0
  5  7  1  0  0  0  0
  7  8  1  0  0  0  0
  7  9  1  0  0  0  0
  9 10  1  0  0  0  0
  9 11  1  0  0  0  0
  9 22  1  0  0  0  0
 11 12  1  0  0  0  0
 11 13  1  0  0  0  0
 11 14  1  0  0  0  0
 14 15  1  0  0  0  0
 14 16  1  0  0  0  0
 14 17  1  0  0  0  0
 17 18  2  0  0  0  0
 17 19  1  0  0  0  0
 19 20  1  0  0  0  0
 19 21  1  0  0  0  0
 22 23  2  0  0  0  0
 22 24  1  0  0  0  0
 24 25  1  0  0  0  0
 24 26  1  0  0  0  0
 26 27  1  0  0  0  0
 26 28  1  0  0  0  0
 26 29  1  0  0  0  0
M  END
$$$$

  -OEChem-02102214123D

 29 28  0     1  0  0  0  0  0999 V2000
   -3.0521   -4.1043    0.3513 H   0  0  0  0  0  0  0  0  0  0  0  0
   -2.9384   -3.1048   -0.0781 C   0  0  0  0  0  0  0  0  0  0  0  0
   -3.6388   -2.4283    0.4174 H   0  0  0  0  0  0  0  0  0  0  0  0
   -3.1768   -3.1508   -1.1435 H   0  0  0  0  0  0  0  0  0  0  0  0
   -1.5161   -2.6131    0.1142 C   0  0  0  0  0  0  0  0  0  0  0  0
   -0.6971   -3.3257    0.6673 O   0  0  0  0  0  0  0  0  0  0  0  0
   -1.1579   -1.3576   -0.3389 N   0  0  0  0  0  0  0  0  0  0  0  0
   -1.9060   -0.7777   -0.7086 H   0  0  0  0  0  0  0  0  0  0  0  0
    0.1492   -0.7261   -0.0804 C   0  0  1  0  0  0  0  0  0  0  0  0
    0.8676   -1.5114   -0.3463 H   0  0  0  0  0  0  0  0  0  0  0  0
    0.4475    0.3713   -1.1486 C   0  0  0  0  0  0  0  0  0  0  0  0
    1.3402    0.0458   -1.6941 H   0  0  0  0  0  0  0  0  0  0  0  0
   -0.3706    0.3458   -1.8759 H   0  0  0  0  0  0  0  0  0  0  0  0
    0.6726    1.8669   -0.8018 C   0  0  0  0  0  0  0  0  0  0  0  0
    1.7413    2.0745   -0.9076 H   0  0  0  0  0  0  0  0  0  0  0  0
    0.1591    2.4807   -1.5476 H   0  0  0  0  0  0  0  0  0  0  0  0
    0.2625    2.3697    0.5718 C   0  0  0  0  0  0  0  0  0  0  0  0
   -0.9146    2.5205    0.8495 O   0  0  0  0  0  0  0  0  0  0  0  0
    1.1753    2.6621    1.5435 N   0  0  0  0  0  0  0  0  0  0  0  0
    2.0808    2.2054    1.4683 H   0  0  0  0  0  0  0  0  0  0  0  0
    0.7765    2.7893    2.4680 H   0  0  0  0  0  0  0  0  0  0  0  0
    0.4897   -0.5172    1.4161 C   0  0  0  0  0  0  0  0  0  0  0  0
    1.6614   -0.5590    1.7721 O   0  0  0  0  0  0  0  0  0  0  0  0
   -0.4450   -0.0153    2.3040 N   0  0  0  0  0  0  0  0  0  0  0  0
   -1.3329    0.2901    1.9128 H   0  0  0  0  0  0  0  0  0  0  0  0
   -0.1607    0.2675    3.7050 C   0  0  0  0  0  0  0  0  0  0  0  0
    0.6402    1.0074    3.7981 H   0  0  0  0  0  0  0  0  0  0  0  0
   -1.0544    0.6616    4.1983 H   0  0  0  0  0  0  0  0  0  0  0  0
    0.1444   -0.6481    4.2223 H   0  0  0  0  0  0  0  0  0  0  0  0
  1  2  1  0  0  0  0
  2  3  1  0  0  0  0
  2  4  1  0  0  0  0
  2  5  1  0  0  0  0
  5  6  2  0  0  0  0
  5  7  1  0  0  0  0
  7  8  1  0  0  0  0
  7  9  1  0  0  0  0
  9 10  1  0  0  0  0
  9 11  1  0  0  0  0
  9 22  1  0  0  0  0
 11 12  1  0  0  0  0
 11 13  1  0  0  0  0
 11 14  1  0  0  0  0
 14 15  1  0  0  0  0
 14 16  1  0  0  0  0
 14 17  1  0  0  0  0
 17 18  2  0  0  0  0
 17 19  1  0  0  0  0
 19 20  1  0  0  0  0
 19 21  1  0  0  0  0
 22 23  2  0  0  0  0
 22 24  1  0  0  0  0
 24 25  1  0  0  0  0
 24 26  1  0  0  0  0
 26 27  1  0  0  0  0
 26 28  1  0  0  0  0
 26 29  1  0  0  0  0
M  END
$$$$

  -OEChem-02102214123D

 29 28  0     1  0  0  0  0  0999 V2000
   -3.1341   -3.9797    0.0871 H   0  0  0  0  0  0  0  0  0  0  0  0
   -2.9910   -2.9522   -0.2594 C   0  0  0  0  0  0  0  0  0  0  0  0
   -3.6794   -2.3004    0.2833 H   0  0  0  0  0  0  0  0  0  0  0  0
   -3.2192   -2.9066   -1.3269 H   0  0  0  0  0  0  0  0  0  0  0  0
   -1.5588   -2.5146   -0.0167 C   0  0  0  0  0  0  0  0  0  0  0  0
   -0.7589   -3.3003    0.4562 O   0  0  0  0  0  0  0  0  0  0  0  0
   -1.1763   -1.2248   -0.3341 N   0  0  0  0  0  0  0  0  0  0  0  0
   -1.8846   -0.6292   -0.7506 H   0  0  0  0  0  0  0  0  0  0  0  0
    0.1948   -0.6975   -0.1832 C   0  0  1  0  0  0  0  0  0  0  0  0
    0.8210   -1.4520   -0.6755 H   0  0  0  0  0  0  0  0  0  0  0  0
    0.3670    0.5597   -1.0944 C   0  0  0  0  0  0  0  0  0  0  0  0
    1.1726    0.2983   -1.7903 H   0  0  0  0  0  0  0  0  0  0  0  0
   -0.5317    0.6578   -1.7115 H   0  0  0  0  0  0  0  0  0  0  0  0
    0.7212    1.9898   -0.5879 C   0  0  0  0  0  0  0  0  0  0  0  0
    1.6436    2.2968   -1.0917 H   0  0  0  0  0  0  0  0  0  0  0  0
   -0.0605    2.6704   -0.9355 H   0  0  0  0  0  0  0  0  0  0  0  0
    0.9294    2.2713    0.8945 C   0  0  0  0  0  0  0  0  0  0  0  0
    2.0329    2.4027    1.3819 O   0  0  0  0  0  0  0  0  0  0  0  0
   -0.1087    2.6778    1.6854 N   0  0  0  0  0  0  0  0  0  0  0  0
    0.1736    3.1263    2.5527 H   0  0  0  0  0  0  0  0  0  0  0  0
   -0.9754    2.9507    1.2375 H   0  0  0  0  0  0  0  0  0  0  0  0
    0.7611   -0.7240    1.2557 C   0  0  0  0  0  0  0  0  0  0  0  0
    1.9417   -0.9917    1.4273 O   0  0  0  0  0  0  0  0  0  0  0  0
   -0.0027   -0.3130    2.3327 N   0  0  0  0  0  0  0  0  0  0  0  0
   -0.9835   -0.1227    2.1653 H   0  0  0  0  0  0  0  0  0  0  0  0
    0.5188   -0.2370    3.6914 C   0  0  0  0  0  0  0  0  0  0  0  0
    1.3737    0.4465    3.7344 H   0  0  0  0  0  0  0  0  0  0  0  0
   -0.2523    0.1316    4.3741 H   0  0  0  0  0  0  0  0  0  0  0  0
    0.8413   -1.2264    4.0326 H   0  0  0  0  0  0  0  0  0  0  0  0
  1  2  1  0  0  0  0
  2  3  1  0  0  0  0
  2  4  1  0  0  0  0
  2  5  1  0  0  0  0
  5  6  2  0  0  0  0
  5  7  1  0  0  0  0
  7  8  1  0  0  0  0
  7  9  1  0  0  0  0
  9 10  1  0  0  0  0
  9 11  1  0  0  0  0
  9 22  1  0  0  0  0
 11 12  1  0  0  0  0
 11 13  1  0  0  0  0
 11 14  1  0  0  0  0
 14 15  1  0  0  0  0
 14 16  1  0  0  0  0
 14 17  1  0  0  0  0
 17 18  2  0  0  0  0
 17 19  1  0  0  0  0
 19 20  1  0  0  0  0
 19 21  1  0  0  0  0
 22 23  2  0  0  0  0
 22 24  1  0  0  0  0
 24 25  1  0  0  0  0
 24 26  1  0  0  0  0
 26 27  1  0  0  0  0
 26 28  1  0  0  0  0
 26 29  1  0  0  0  0
M  END
$$$$

  -OEChem-02102214123D

 29 28  0     1  0  0  0  0  0999 V2000
   -3.3812   -3.7743    0.3290 H   0  0  0  0  0  0  0  0  0  0  0  0
   -3.1734   -2.7897   -0.1002 C   0  0  0  0  0  0  0  0  0  0  0  0
   -3.8192   -2.0529    0.3832 H   0  0  0  0  0  0  0  0  0  0  0  0
   -3.3984   -2.8189   -1.1691 H   0  0  0  0  0  0  0  0  0  0  0  0
   -1.7162   -2.4250    0.1133 C   0  0  0  0  0  0  0  0  0  0  0  0
   -0.9693   -3.2195    0.6527 O   0  0  0  0  0  0  0  0  0  0  0  0
   -1.2521   -1.1920   -0.3063 N   0  0  0  0  0  0  0  0  0  0  0  0
   -1.9150   -0.6054   -0.8029 H   0  0  0  0  0  0  0  0  0  0  0  0
    0.1588   -0.7561   -0.2347 C   0  0  1  0  0  0  0  0  0  0  0  0
    0.7394   -1.5481   -0.7234 H   0  0  0  0  0  0  0  0  0  0  0  0
    0.3166    0.4948   -1.1589 C   0  0  0  0  0  0  0  0  0  0  0  0
    1.0771    0.1907   -1.8874 H   0  0  0  0  0  0  0  0  0  0  0  0
   -0.6036    0.6303   -1.7359 H   0  0  0  0  0  0  0  0  0  0  0  0
    0.7749    1.9095   -0.6961 C   0  0  0  0  0  0  0  0  0  0  0  0
    1.4537    2.3096   -1.4557 H   0  0  0  0  0  0  0  0  0  0  0  0
   -0.1105    2.5504   -0.7054 H   0  0  0  0  0  0  0  0  0  0  0  0
    1.4424    2.1270    0.6570 C   0  0  0  0  0  0  0  0  0  0  0  0
    2.6450    2.0310    0.7873 O   0  0  0  0  0  0  0  0  0  0  0  0
    0.7874    2.7193    1.6999 N   0  0  0  0  0  0  0  0  0  0  0  0
    1.3843    3.0686    2.4445 H   0  0  0  0  0  0  0  0  0  0  0  0
   -0.1265    3.1264    1.5432 H   0  0  0  0  0  0  0  0  0  0  0  0
    0.7219   -0.7420    1.2051 C   0  0  0  0  0  0  0  0  0  0  0  0
    1.8646   -1.1207    1.4154 O   0  0  0  0  0  0  0  0  0  0  0  0
   -0.0214   -0.2070    2.2422 N   0  0  0  0  0  0  0  0  0  0  0  0
   -1.0058   -0.0524    2.0582 H   0  0  0  0  0  0  0  0  0  0  0  0
    0.4426   -0.2213    3.6238 C   0  0  0  0  0  0  0  0  0  0  0  0
    1.3995    0.3046    3.7112 H   0  0  0  0  0  0  0  0  0  0  0  0
   -0.2841    0.2760    4.2728 H   0  0  0  0  0  0  0  0  0  0  0  0
    0.5741   -1.2513    3.9720 H   0  0  0  0  0  0  0  0  0  0  0  0
  1  2  1  0  0  0  0
  2  3  1  0  0  0  0
  2  4  1  0  0  0  0
  2  5  1  0  0  0  0
  5  6  2  0  0  0  0
  5  7  1  0  0  0  0
  7  8  1  0  0  0  0
  7  9  1  0  0  0  0
  9 10  1  0  0  0  0
  9 11  1  0  0  0  0
  9 22  1  0  0  0  0
 11 12  1  0  0  0  0
 11 13  1  0  0  0  0
 11 14  1  0  0  0  0
 14 15  1  0  0  0  0
 14 16  1  0  0  0  0
 14 17  1  0  0  0  0
 17 18  2  0  0  0  0
 17 19  1  0  0  0  0
 19 20  1  0  0  0  0
 19 21  1  0  0  0  0
 22 23  2  0  0  0  0
 22 24  1  0  0  0  0
 24 25  1  0  0  0  0
 24 26  1  0  0  0  0
 26 27  1  0  0  0  0
 26 28  1  0  0  0  0
 26 29  1  0  0  0  0
M  END
$$$$

  -OEChem-02102214123D

 29 28  0     1  0  0  0  0  0999 V2000
   -2.8877   -4.0797    0.5851 H   0  0  0  0  0  0  0  0  0  0  0  0
   -2.7943   -3.1181    0.0719 C   0  0  0  0  0  0  0  0  0  0  0  0
   -3.5617   -2.4405    0.4533 H   0  0  0  0  0  0  0  0  0  0  0  0
   -2.9535   -3.2753   -0.9977 H   0  0  0  0  0  0  0  0  0  0  0  0
   -1.4158   -2.5311    0.3113 C   0  0  0  0  0  0  0  0  0  0  0  0
   -0.6215   -3.1246    1.0163 O   0  0  0  0  0  0  0  0  0  0  0  0
   -1.0808   -1.3187   -0.2642 N   0  0  0  0  0  0  0  0  0  0  0  0
   -1.7622   -0.9331   -0.9111 H   0  0  0  0  0  0  0  0  0  0  0  0
    0.2717   -0.7168   -0.2403 C   0  0  1  0  0  0  0  0  0  0  0  0
    0.9712   -1.4591   -0.6433 H   0  0  0  0  0  0  0  0  0  0  0  0
    0.2568    0.4837   -1.2403 C   0  0  0  0  0  0  0  0  0  0  0  0
    1.0342    0.2312   -1.9704 H   0  0  0  0  0  0  0  0  0  0  0  0
   -0.6856    0.4797   -1.7972 H   0  0  0  0  0  0  0  0  0  0  0  0
    0.5495    1.9637   -0.8650 C   0  0  0  0  0  0  0  0  0  0  0  0
    0.9091    2.4779   -1.7616 H   0  0  0  0  0  0  0  0  0  0  0  0
   -0.4065    2.4248   -0.6027 H   0  0  0  0  0  0  0  0  0  0  0  0
    1.5090    2.3018    0.2744 C   0  0  0  0  0  0  0  0  0  0  0  0
    2.6862    2.4873    0.0387 O   0  0  0  0  0  0  0  0  0  0  0  0
    1.0987    2.6867    1.5169 N   0  0  0  0  0  0  0  0  0  0  0  0
    1.8715    2.7895    2.1689 H   0  0  0  0  0  0  0  0  0  0  0  0
    0.2450    2.2567    1.8565 H   0  0  0  0  0  0  0  0  0  0  0  0
    0.7343   -0.4755    1.2151 C   0  0  0  0  0  0  0  0  0  0  0  0
    1.9081   -0.6144    1.5228 O   0  0  0  0  0  0  0  0  0  0  0  0
   -0.1455    0.0842    2.1290 N   0  0  0  0  0  0  0  0  0  0  0  0
   -1.1251   -0.0161    1.8808 H   0  0  0  0  0  0  0  0  0  0  0  0
    0.1873    0.1630    3.5480 C   0  0  0  0  0  0  0  0  0  0  0  0
    1.1090    0.7349    3.6996 H   0  0  0  0  0  0  0  0  0  0  0  0
   -0.6176    0.6581    4.0996 H   0  0  0  0  0  0  0  0  0  0  0  0
    0.3278   -0.8414    3.9619 H   0  0  0  0  0  0  0  0  0  0  0  0
  1  2  1  0  0  0  0
  2  3  1  0  0  0  0
  2  4  1  0  0  0  0
  2  5  1  0  0  0  0
  5  6  2  0  0  0  0
  5  7  1  0  0  0  0
  7  8  1  0  0  0  0
  7  9  1  0  0  0  0
  9 10  1  0  0  0  0
  9 11  1  0  0  0  0
  9 22  1  0  0  0  0
 11 12  1  0  0  0  0
 11 13  1  0  0  0  0
 11 14  1  0  0  0  0
 14 15  1  0  0  0  0
 14 16  1  0  0  0  0
 14 17  1  0  0  0  0
 17 18  2  0  0  0  0
 17 19  1  0  0  0  0
 19 20  1  0  0  0  0
 19 21  1  0  0  0  0
 22 23  2  0  0  0  0
 22 24  1  0  0  0  0
 24 25  1  0  0  0  0
 24 26  1  0  0  0  0
 26 27  1  0  0  0  0
 26 28  1  0  0  0  0
 26 29  1  0  0  0  0
M  END
$$$$

  -OEChem-02102214123D

 29 28  0     1  0  0  0  0  0999 V2000
   -2.8557   -4.0713    0.6443 H   0  0  0  0  0  0  0  0  0  0  0  0
   -2.7622   -3.1299    0.0952 C   0  0  0  0  0  0  0  0  0  0  0  0
   -3.5540   -2.4520    0.4226 H   0  0  0  0  0  0  0  0  0  0  0  0
   -2.8821   -3.3336   -0.9716 H   0  0  0  0  0  0  0  0  0  0  0  0
   -1.4035   -2.5073    0.3555 C   0  0  0  0  0  0  0  0  0  0  0  0
   -0.6326   -3.0438    1.1290 O   0  0  0  0  0  0  0  0  0  0  0  0
   -1.0610   -1.3278   -0.2806 N   0  0  0  0  0  0  0  0  0  0  0  0
   -1.7172   -0.9988   -0.9825 H   0  0  0  0  0  0  0  0  0  0  0  0
    0.2852   -0.7130   -0.2480 C   0  0  1  0  0  0  0  0  0  0  0  0
    1.0097   -1.4537   -0.6064 H   0  0  0  0  0  0  0  0  0  0  0  0
    0.2582    0.4626   -1.2769 C   0  0  0  0  0  0  0  0  0  0  0  0
    1.0348    0.2170   -2.0102 H   0  0  0  0  0  0  0  0  0  0  0  0
   -0.6892    0.4499   -1.8248 H   0  0  0  0  0  0  0  0  0  0  0  0
    0.5284    1.9371   -0.8777 C   0  0  0  0  0  0  0  0  0  0  0  0
    0.6586    2.5261   -1.7904 H   0  0  0  0  0  0  0  0  0  0  0  0
   -0.3642    2.3198   -0.3761 H   0  0  0  0  0  0  0  0  0  0  0  0
    1.7187    2.2272    0.0345 C   0  0  0  0  0  0  0  0  0  0  0  0
    2.8381    2.2943   -0.4336 O   0  0  0  0  0  0  0  0  0  0  0  0
    1.5938    2.6004    1.3408 N   0  0  0  0  0  0  0  0  0  0  0  0
    2.4815    2.5953    1.8358 H   0  0  0  0  0  0  0  0  0  0  0  0
    0.7794    2.2400    1.8279 H   0  0  0  0  0  0  0  0  0  0  0  0
    0.7007   -0.3804    1.2043 C   0  0  0  0  0  0  0  0  0  0  0  0
    1.8585   -0.5196    1.5694 O   0  0  0  0  0  0  0  0  0  0  0  0
   -0.2076    0.2272    2.0572 N   0  0  0  0  0  0  0  0  0  0  0  0
   -1.1770    0.1388    1.7678 H   0  0  0  0  0  0  0  0  0  0  0  0
    0.0602    0.3574    3.4858 C   0  0  0  0  0  0  0  0  0  0  0  0
    0.9783    0.9283    3.6596 H   0  0  0  0  0  0  0  0  0  0  0  0
   -0.7659    0.8776    3.9800 H   0  0  0  0  0  0  0  0  0  0  0  0
    0.1719   -0.6315    3.9433 H   0  0  0  0  0  0  0  0  0  0  0  0
  1  2  1  0  0  0  0
  2  3  1  0  0  0  0
  2  4  1  0  0  0  0
  2  5  1  0  0  0  0
  5  6  2  0  0  0  0
  5  7  1  0  0  0  0
  7  8  1  0  0  0  0
  7  9  1  0  0  0  0
  9 10  1  0  0  0  0
  9 11  1  0  0  0  0
  9 22  1  0  0  0  0
 11 12  1  0  0  0  0
 11 13  1  0  0  0  0
 11 14  1  0  0  0  0
 14 15  1  0  0  0  0
 14 16  1  0  0  0  0
 14 17  1  0  0  0  0
 17 18  2  0  0  0  0
 17 19  1  0  0  0  0
 19 20  1  0  0  0  0
 19 21  1  0  0  0  0
 22 23  2  0  0  0  0
 22 24  1  0  0  0  0
 24 25  1  0  0  0  0
 24 26  1  0  0  0  0
 26 27  1  0  0  0  0
 26 28  1  0  0  0  0
 26 29  1  0  0  0  0
M  END
$$$$

  -OEChem-02102214123D

 29 28  0     1  0  0  0  0  0999 V2000
   -2.7447   -4.1469    0.6373 H   0  0  0  0  0  0  0  0  0  0  0  0
   -2.6870   -3.2074    0.0800 C   0  0  0  0  0  0  0  0  0  0  0  0
   -3.5140   -2.5638    0.3894 H   0  0  0  0  0  0  0  0  0  0  0  0
   -2.7827   -3.4272   -0.9861 H   0  0  0  0  0  0  0  0  0  0  0  0
   -1.3617   -2.5206    0.3521 C   0  0  0  0  0  0  0  0  0  0  0  0
   -0.5840   -3.0058    1.1524 O   0  0  0  0  0  0  0  0  0  0  0  0
   -1.0565   -1.3417   -0.3033 N   0  0  0  0  0  0  0  0  0  0  0  0
   -1.7094   -1.0580   -1.0277 H   0  0  0  0  0  0  0  0  0  0  0  0
    0.2661   -0.6799   -0.2654 C   0  0  1  0  0  0  0  0  0  0  0  0
    1.0193   -1.3970   -0.6126 H   0  0  0  0  0  0  0  0  0  0  0  0
    0.2066    0.4884   -1.2988 C   0  0  0  0  0  0  0  0  0  0  0  0
    0.9773    0.2779   -2.0493 H   0  0  0  0  0  0  0  0  0  0  0  0
   -0.7507    0.4620   -1.8290 H   0  0  0  0  0  0  0  0  0  0  0  0
    0.4297    1.9494   -0.8396 C   0  0  0  0  0  0  0  0  0  0  0  0
    0.3252    2.6096   -1.7057 H   0  0  0  0  0  0  0  0  0  0  0  0
   -0.3535    2.2251   -0.1289 H   0  0  0  0  0  0  0  0  0  0  0  0
    1.7882    2.2393   -0.2042 C   0  0  0  0  0  0  0  0  0  0  0  0
    2.7901    2.2742   -0.8918 O   0  0  0  0  0  0  0  0  0  0  0  0
    1.9401    2.5858    1.1066 N   0  0  0  0  0  0  0  0  0  0  0  0
    2.9086    2.5525    1.4125 H   0  0  0  0  0  0  0  0  0  0  0  0
    1.2353    2.2245    1.7417 H   0  0  0  0  0  0  0  0  0  0  0  0
    0.6734   -0.2962    1.1777 C   0  0  0  0  0  0  0  0  0  0  0  0
    1.8368   -0.3879    1.5413 O   0  0  0  0  0  0  0  0  0  0  0  0
   -0.2455    0.3035    2.0225 N   0  0  0  0  0  0  0  0  0  0  0  0
   -1.2153    0.1916    1.7429 H   0  0  0  0  0  0  0  0  0  0  0  0
    0.0332    0.5187    3.4381 C   0  0  0  0  0  0  0  0  0  0  0  0
    0.9165    1.1525    3.5688 H   0  0  0  0  0  0  0  0  0  0  0  0
   -0.8165    1.0117    3.9198 H   0  0  0  0  0  0  0  0  0  0  0  0
    0.2114   -0.4380    3.9408 H   0  0  0  0  0  0  0  0  0  0  0  0
  1  2  1  0  0  0  0
  2  3  1  0  0  0  0
  2  4  1  0  0  0  0
  2  5  1  0  0  0  0
  5  6  2  0  0  0  0
  5  7  1  0  0  0  0
  7  8  1  0  0  0  0
  7  9  1  0  0  0  0
  9 10  1  0  0  0  0
  9 11  1  0  0  0  0
  9 22  1  0  0  0  0
 11 12  1  0  0  0  0
 11 13  1  0  0  0  0
 11 14  1  0  0  0  0
 14 15  1  0  0  0  0
 14 16  1  0  0  0  0
 14 17  1  0  0  0  0
 17 18  2  0  0  0  0
 17 19  1  0  0  0  0
 19 20  1  0  0  0  0
 19 21  1  0  0  0  0
 22 23  2  0  0  0  0
 22 24  1  0  0  0  0
 24 25  1  0  0  0  0
 24 26  1  0  0  0  0
 26 27  1  0  0  0  0
 26 28  1  0  0  0  0
 26 29  1  0  0  0  0
M  END
$$$$

  -OEChem-02102214123D

 29 28  0     1  0  0  0  0  0999 V2000
   -2.6408   -4.2040    0.6545 H   0  0  0  0  0  0  0  0  0  0  0  0
   -2.6057   -3.2801    0.0699 C   0  0  0  0  0  0  0  0  0  0  0  0
   -3.4513   -2.6505    0.3568 H   0  0  0  0  0  0  0  0  0  0  0  0
   -2.6898   -3.5332   -0.9897 H   0  0  0  0  0  0  0  0  0  0  0  0
   -1.3011   -2.5497    0.3275 C   0  0  0  0  0  0  0  0  0  0  0  0
   -0.4895   -3.0173    1.1049 O   0  0  0  0  0  0  0  0  0  0  0  0
   -1.0464   -1.3545   -0.3196 N   0  0  0  0  0  0  0  0  0  0  0  0
   -1.7241   -1.0745   -1.0224 H   0  0  0  0  0  0  0  0  0  0  0  0
    0.2431   -0.6330   -0.2660 C   0  0  1  0  0  0  0  0  0  0  0  0
    1.0291   -1.3168   -0.6077 H   0  0  0  0  0  0  0  0  0  0  0  0
    0.1592    0.5400   -1.2900 C   0  0  0  0  0  0  0  0  0  0  0  0
    0.9299    0.3666   -2.0503 H   0  0  0  0  0  0  0  0  0  0  0  0
   -0.8009    0.4905   -1.8133 H   0  0  0  0  0  0  0  0  0  0  0  0
    0.3231    1.9956   -0.7935 C   0  0  0  0  0  0  0  0  0  0  0  0
   -0.0219    2.6691   -1.5837 H   0  0  0  0  0  0  0  0  0  0  0  0
   -0.3144    2.1766    0.0748 H   0  0  0  0  0  0  0  0  0  0  0  0
    1.7618    2.3953   -0.4608 C   0  0  0  0  0  0  0  0  0  0  0  0
    2.5006    2.7896   -1.3427 O   0  0  0  0  0  0  0  0  0  0  0  0
    2.2733    2.4554    0.8013 N   0  0  0  0  0  0  0  0  0  0  0  0
    3.2745    2.6233    0.8162 H   0  0  0  0  0  0  0  0  0  0  0  0
    1.9113    1.7606    1.4547 H   0  0  0  0  0  0  0  0  0  0  0  0
    0.6189   -0.2386    1.1829 C   0  0  0  0  0  0  0  0  0  0  0  0
    1.7883   -0.2364    1.5407 O   0  0  0  0  0  0  0  0  0  0  0  0
   -0.3298    0.3129    2.0258 N   0  0  0  0  0  0  0  0  0  0  0  0
   -1.2967    0.1722    1.7498 H   0  0  0  0  0  0  0  0  0  0  0  0
   -0.0504    0.6462    3.4180 C   0  0  0  0  0  0  0  0  0  0  0  0
    0.7465    1.3944    3.4838 H   0  0  0  0  0  0  0  0  0  0  0  0
   -0.9454    1.0565    3.8956 H   0  0  0  0  0  0  0  0  0  0  0  0
    0.2590   -0.2479    3.9699 H   0  0  0  0  0  0  0  0  0  0  0  0
  1  2  1  0  0  0  0
  2  3  1  0  0  0  0
  2  4  1  0  0  0  0
  2  5  1  0  0  0  0
  5  6  2  0  0  0  0
  5  7  1  0  0  0  0
  7  8  1  0  0  0  0
  7  9  1  0  0  0  0
  9 10  1  0  0  0  0
  9 11  1  0  0  0  0
  9 22  1  0  0  0  0
 11 12  1  0  0  0  0
 11 13  1  0  0  0  0
 11 14  1  0  0  0  0
 14 15  1  0  0  0  0
 14 16  1  0  0  0  0
 14 17  1  0  0  0  0
 17 18  2  0  0  0  0
 17 19  1  0  0  0  0
 19 20  1  0  0  0  0
 19 21  1  0  0  0  0
 22 23  2  0  0  0  0
 22 24  1  0  0  0  0
 24 25  1  0  0  0  0
 24 26  1  0  0  0  0
 26 27  1  0  0  0  0
 26 28  1  0  0  0  0
 26 29  1  0  0  0  0
M  END
$$$$

  -OEChem-02102214123D

 29 28  0     1  0  0  0  0  0999 V2000
   -2.5160   -4.2876    0.5908 H   0  0  0  0  0  0  0  0  0  0  0  0
   -2.5217   -3.3542    0.0205 C   0  0  0  0  0  0  0  0  0  0  0  0
   -3.3937   -2.7667    0.3171 H   0  0  0  0  0  0  0  0  0  0  0  0
   -2.5955   -3.5942   -1.0429 H   0  0  0  0  0  0  0  0  0  0  0  0
   -1.2497   -2.5718    0.2885 C   0  0  0  0  0  0  0  0  0  0  0  0
   -0.4101   -3.0206    1.0474 O   0  0  0  0  0  0  0  0  0  0  0  0
   -1.0543   -1.3488   -0.3259 N   0  0  0  0  0  0  0  0  0  0  0  0
   -1.7547   -1.0706   -1.0071 H   0  0  0  0  0  0  0  0  0  0  0  0
    0.1984   -0.5691   -0.2494 C   0  0  1  0  0  0  0  0  0  0  0  0
    1.0068   -1.2258   -0.5913 H   0  0  0  0  0  0  0  0  0  0  0  0
    0.1138    0.6054   -1.2696 C   0  0  0  0  0  0  0  0  0  0  0  0
    0.8998    0.4609   -2.0201 H   0  0  0  0  0  0  0  0  0  0  0  0
   -0.8360    0.5331   -1.8086 H   0  0  0  0  0  0  0  0  0  0  0  0
    0.2178    2.0538   -0.7373 C   0  0  0  0  0  0  0  0  0  0  0  0
   -0.3345    2.7087   -1.4181 H   0  0  0  0  0  0  0  0  0  0  0  0
   -0.2483    2.1658    0.2427 H   0  0  0  0  0  0  0  0  0  0  0  0
    1.6563    2.5677   -0.6978 C   0  0  0  0  0  0  0  0  0  0  0  0
    2.1302    3.1449   -1.6578 O   0  0  0  0  0  0  0  0  0  0  0  0
    2.4814    2.4287    0.3786 N   0  0  0  0  0  0  0  0  0  0  0  0
    3.4558    2.6442    0.1945 H   0  0  0  0  0  0  0  0  0  0  0  0
    2.2677    1.6742    1.0345 H   0  0  0  0  0  0  0  0  0  0  0  0
    0.5768   -0.1840    1.2021 C   0  0  0  0  0  0  0  0  0  0  0  0
    1.7551   -0.0782    1.5167 O   0  0  0  0  0  0  0  0  0  0  0  0
   -0.3852    0.3064    2.0669 N   0  0  0  0  0  0  0  0  0  0  0  0
   -1.3490    0.1074    1.8180 H   0  0  0  0  0  0  0  0  0  0  0  0
   -0.0887    0.7137    3.4349 C   0  0  0  0  0  0  0  0  0  0  0  0
    0.6458    1.5259    3.4434 H   0  0  0  0  0  0  0  0  0  0  0  0
   -0.9980    1.0689    3.9291 H   0  0  0  0  0  0  0  0  0  0  0  0
    0.3112   -0.1302    4.0070 H   0  0  0  0  0  0  0  0  0  0  0  0
  1  2  1  0  0  0  0
  2  3  1  0  0  0  0
  2  4  1  0  0  0  0
  2  5  1  0  0  0  0
  5  6  2  0  0  0  0
  5  7  1  0  0  0  0
  7  8  1  0  0  0  0
  7  9  1  0  0  0  0
  9 10  1  0  0  0  0
  9 11  1  0  0  0  0
  9 22  1  0  0  0  0
 11 12  1  0  0  0  0
 11 13  1  0  0  0  0
 11 14  1  0  0  0  0
 14 15  1  0  0  0  0
 14 16  1  0  0  0  0
 14 17  1  0  0  0  0
 17 18  2  0  0  0  0
 17 19  1  0  0  0  0
 19 20  1  0  0  0  0
 19 21  1  0  0  0  0
 22 23  2  0  0  0  0
 22 24  1  0  0  0  0
 24 25  1  0  0  0  0
 24 26  1  0  0  0  0
 26 27  1  0  0  0  0
 26 28  1  0  0  0  0
 26 29  1  0  0  0  0
M  END
$$$$

  -OEChem-02102214123D

 29 28  0     1  0  0  0  0  0999 V2000
   -2.3869   -4.3840    0.4872 H   0  0  0  0  0  0  0  0  0  0  0  0
   -2.4378   -3.4377   -0.0591 C   0  0  0  0  0  0  0  0  0  0  0  0
   -3.3373   -2.9011    0.2517 H   0  0  0  0  0  0  0  0  0  0  0  0
   -2.5005   -3.6534   -1.1285 H   0  0  0  0  0  0  0  0  0  0  0  0
   -1.2058   -2.6010    0.2309 C   0  0  0  0  0  0  0  0  0  0  0  0
   -0.3383   -3.0314    0.9692 O   0  0  0  0  0  0  0  0  0  0  0  0
   -1.0792   -1.3456   -0.3327 N   0  0  0  0  0  0  0  0  0  0  0  0
   -1.8019   -1.0691   -0.9910 H   0  0  0  0  0  0  0  0  0  0  0  0
    0.1327   -0.5095   -0.2289 C   0  0  1  0  0  0  0  0  0  0  0  0
    0.9555   -1.1445   -0.5780 H   0  0  0  0  0  0  0  0  0  0  0  0
    0.0644    0.6672   -1.2425 C   0  0  0  0  0  0  0  0  0  0  0  0
    0.8828    0.5470   -1.9623 H   0  0  0  0  0  0  0  0  0  0  0  0
   -0.8601    0.5757   -1.8212 H   0  0  0  0  0  0  0  0  0  0  0  0
    0.1074    2.1061   -0.6721 C   0  0  0  0  0  0  0  0  0  0  0  0
   -0.6280    2.7113   -1.2106 H   0  0  0  0  0  0  0  0  0  0  0  0
   -0.1638    2.1681    0.3814 H   0  0  0  0  0  0  0  0  0  0  0  0
    1.4701    2.7476   -0.9009 C   0  0  0  0  0  0  0  0  0  0  0  0
    1.6997    3.4159   -1.8910 O   0  0  0  0  0  0  0  0  0  0  0  0
    2.5097    2.5309   -0.0440 N   0  0  0  0  0  0  0  0  0  0  0  0
    3.4285    2.7927   -0.3858 H   0  0  0  0  0  0  0  0  0  0  0  0
    2.4216    1.7653    0.6295 H   0  0  0  0  0  0  0  0  0  0  0  0
    0.5448   -0.1404    1.2169 C   0  0  0  0  0  0  0  0  0  0  0  0
    1.7212    0.1143    1.4498 O   0  0  0  0  0  0  0  0  0  0  0  0
   -0.4100    0.2817    2.1249 N   0  0  0  0  0  0  0  0  0  0  0  0
   -1.3657    0.0016    1.9282 H   0  0  0  0  0  0  0  0  0  0  0  0
   -0.0795    0.7396    3.4691 C   0  0  0  0  0  0  0  0  0  0  0  0
    0.5871    1.6075    3.4270 H   0  0  0  0  0  0  0  0  0  0  0  0
   -0.9887    1.0317    4.0031 H   0  0  0  0  0  0  0  0  0  0  0  0
    0.4149   -0.0578    4.0341 H   0  0  0  0  0  0  0  0  0  0  0  0
  1  2  1  0  0  0  0
  2  3  1  0  0  0  0
  2  4  1  0  0  0  0
  2  5  1  0  0  0  0
  5  6  2  0  0  0  0
  5  7  1  0  0  0  0
  7  8  1  0  0  0  0
  7  9  1  0  0  0  0
  9 10  1  0  0  0  0
  9 11  1  0  0  0  0
  9 22  1  0  0  0  0
 11 12  1  0  0  0  0
 11 13  1  0  0  0  0
 11 14  1  0  0  0  0
 14 15  1  0  0  0  0
 14 16  1  0  0  0  0
 14 17  1  0  0  0  0
 17 18  2  0  0  0  0
 17 19  1  0  0  0  0
 19 20  1  0  0  0  0
 19 21  1  0  0  0  0
 22 23  2  0  0  0  0
 22 24  1  0  0  0  0
 24 25  1  0  0  0  0
 24 26  1  0  0  0  0
 26 27  1  0  0  0  0
 26 28  1  0  0  0  0
 26 29  1  0  0  0  0
M  END
$$$$

  -OEChem-02102214123D

 29 28  0     1  0  0  0  0  0999 V2000
   -2.3180   -4.4446    0.3828 H   0  0  0  0  0  0  0  0  0  0  0  0
   -2.3987   -3.4816   -0.1294 C   0  0  0  0  0  0  0  0  0  0  0  0
   -3.3092   -2.9802    0.2075 H   0  0  0  0  0  0  0  0  0  0  0  0
   -2.4652   -3.6620   -1.2051 H   0  0  0  0  0  0  0  0  0  0  0  0
   -1.1858   -2.6239    0.1789 C   0  0  0  0  0  0  0  0  0  0  0  0
   -0.3005   -3.0572    0.8945 O   0  0  0  0  0  0  0  0  0  0  0  0
   -1.0968   -1.3453   -0.3372 N   0  0  0  0  0  0  0  0  0  0  0  0
   -1.8379   -1.0563   -0.9694 H   0  0  0  0  0  0  0  0  0  0  0  0
    0.0932   -0.4826   -0.2090 C   0  0  1  0  0  0  0  0  0  0  0  0
    0.9228   -1.0987   -0.5764 H   0  0  0  0  0  0  0  0  0  0  0  0
    0.0197    0.7117   -1.1990 C   0  0  0  0  0  0  0  0  0  0  0  0
    0.8673    0.6147   -1.8880 H   0  0  0  0  0  0  0  0  0  0  0  0
   -0.8787    0.6134   -1.8161 H   0  0  0  0  0  0  0  0  0  0  0  0
    0.0268    2.1428   -0.5994 C   0  0  0  0  0  0  0  0  0  0  0  0
   -0.8811    2.6620   -0.9199 H   0  0  0  0  0  0  0  0  0  0  0  0
    0.0260    2.1745    0.4889 H   0  0  0  0  0  0  0  0  0  0  0  0
    1.2229    2.9310   -1.1072 C   0  0  0  0  0  0  0  0  0  0  0  0
    1.1812    3.5765   -2.1373 O   0  0  0  0  0  0  0  0  0  0  0  0
    2.4245    2.8365   -0.4658 N   0  0  0  0  0  0  0  0  0  0  0  0
    3.2350    3.1802   -0.9710 H   0  0  0  0  0  0  0  0  0  0  0  0
    2.5335    2.1128    0.2456 H   0  0  0  0  0  0  0  0  0  0  0  0
    0.5267   -0.1438    1.2361 C   0  0  0  0  0  0  0  0  0  0  0  0
    1.6960    0.1690    1.4349 O   0  0  0  0  0  0  0  0  0  0  0  0
   -0.4216    0.2271    2.1725 N   0  0  0  0  0  0  0  0  0  0  0  0
   -1.3697   -0.0882    1.9936 H   0  0  0  0  0  0  0  0  0  0  0  0
   -0.0743    0.6664    3.5183 C   0  0  0  0  0  0  0  0  0  0  0  0
    0.5556    1.5615    3.4801 H   0  0  0  0  0  0  0  0  0  0  0  0
   -0.9800    0.9082    4.0826 H   0  0  0  0  0  0  0  0  0  0  0  0
    0.4670   -0.1231    4.0502 H   0  0  0  0  0  0  0  0  0  0  0  0
  1  2  1  0  0  0  0
  2  3  1  0  0  0  0
  2  4  1  0  0  0  0
  2  5  1  0  0  0  0
  5  6  2  0  0  0  0
  5  7  1  0  0  0  0
  7  8  1  0  0  0  0
  7  9  1  0  0  0  0
  9 10  1  0  0  0  0
  9 11  1  0  0  0  0
  9 22  1  0  0  0  0
 11 12  1  0  0  0  0
 11 13  1  0  0  0  0
 11 14  1  0  0  0  0
 14 15  1  0  0  0  0
 14 16  1  0  0  0  0
 14 17  1  0  0  0  0
 17 18  2  0  0  0  0
 17 19  1  0  0  0  0
 19 20  1  0  0  0  0
 19 21  1  0  0  0  0
 22 23  2  0  0  0  0
 22 24  1  0  0  0  0
 24 25  1  0  0  0  0
 24 26  1  0  0  0  0
 26 27  1  0  0  0  0
 26 28  1  0  0  0  0
 26 29  1  0  0  0  0
M  END
$$$$

  -OEChem-02102214123D

 29 28  0     1  0  0  0  0  0999 V2000
   -2.3595   -4.4323    0.3394 H   0  0  0  0  0  0  0  0  0  0  0  0
   -2.4177   -3.4623   -0.1628 C   0  0  0  0  0  0  0  0  0  0  0  0
   -3.3205   -2.9465    0.1729 H   0  0  0  0  0  0  0  0  0  0  0  0
   -2.4795   -3.6286   -1.2411 H   0  0  0  0  0  0  0  0  0  0  0  0
   -1.1911   -2.6317    0.1640 C   0  0  0  0  0  0  0  0  0  0  0  0
   -0.3137   -3.0953    0.8698 O   0  0  0  0  0  0  0  0  0  0  0  0
   -1.0788   -1.3482   -0.3353 N   0  0  0  0  0  0  0  0  0  0  0  0
   -1.8111   -1.0423   -0.9695 H   0  0  0  0  0  0  0  0  0  0  0  0
    0.1245   -0.5050   -0.1957 C   0  0  1  0  0  0  0  0  0  0  0  0
    0.9551   -1.1012   -0.5916 H   0  0  0  0  0  0  0  0  0  0  0  0
   -0.0055    0.7270   -1.1354 C   0  0  0  0  0  0  0  0  0  0  0  0
    0.8376    0.6602   -1.8331 H   0  0  0  0  0  0  0  0  0  0  0  0
   -0.9085    0.6427   -1.7482 H   0  0  0  0  0  0  0  0  0  0  0  0
    0.0134    2.1434   -0.5016 C   0  0  0  0  0  0  0  0  0  0  0  0
   -1.0017    2.5497   -0.4833 H   0  0  0  0  0  0  0  0  0  0  0  0
    0.3767    2.1521    0.5256 H   0  0  0  0  0  0  0  0  0  0  0  0
    0.9164    3.0787   -1.2923 C   0  0  0  0  0  0  0  0  0  0  0  0
    0.5580    3.5647   -2.3479 O   0  0  0  0  0  0  0  0  0  0  0  0
    2.2052    3.3155   -0.9090 N   0  0  0  0  0  0  0  0  0  0  0  0
    2.8053    3.7581   -1.5985 H   0  0  0  0  0  0  0  0  0  0  0  0
    2.6079    2.7382   -0.1751 H   0  0  0  0  0  0  0  0  0  0  0  0
    0.5362   -0.2073    1.2647 C   0  0  0  0  0  0  0  0  0  0  0  0
    1.7142    0.0175    1.5154 O   0  0  0  0  0  0  0  0  0  0  0  0
   -0.4230    0.1573    2.1926 N   0  0  0  0  0  0  0  0  0  0  0  0
   -1.3788   -0.1021    1.9706 H   0  0  0  0  0  0  0  0  0  0  0  0
   -0.0965    0.5175    3.5668 C   0  0  0  0  0  0  0  0  0  0  0  0
    0.5791    1.3792    3.5880 H   0  0  0  0  0  0  0  0  0  0  0  0
   -1.0059    0.7808    4.1155 H   0  0  0  0  0  0  0  0  0  0  0  0
    0.3872   -0.3221    4.0772 H   0  0  0  0  0  0  0  0  0  0  0  0
  1  2  1  0  0  0  0
  2  3  1  0  0  0  0
  2  4  1  0  0  0  0
  2  5  1  0  0  0  0
  5  6  2  0  0  0  0
  5  7  1  0  0  0  0
  7  8  1  0  0  0  0
  7  9  1  0  0  0  0
  9 10  1  0  0  0  0
  9 11  1  0  0  0  0
  9 22  1  0  0  0  0
 11 12  1  0  0  0  0
 11 13  1  0  0  0  0
 11 14  1  0  0  0  0
 14 15  1  0  0  0  0
 14 16  1  0  0  0  0
 14 17  1  0  0  0  0
 17 18  2  0  0  0  0
 17 19  1  0  0  0  0
 19 20  1  0  0  0  0
 19 21  1  0  0  0  0
 22 23  2  0  0  0  0
 22 24  1  0  0  0  0
 24 25  1  0  0  0  0
 24 26  1  0  0  0  0
 26 27  1  0  0  0  0
 26 28  1  0  0  0  0
 26 29  1  0  0  0  0
M  END
$$$$

  -OEChem-02102214123D

 29 28  0     1  0  0  0  0  0999 V2000
   -2.4272   -4.4150    0.3364 H   0  0  0  0  0  0  0  0  0  0  0  0
   -2.4735   -3.4385   -0.1541 C   0  0  0  0  0  0  0  0  0  0  0  0
   -3.3569   -2.9062    0.2061 H   0  0  0  0  0  0  0  0  0  0  0  0
   -2.5619   -3.5914   -1.2324 H   0  0  0  0  0  0  0  0  0  0  0  0
   -1.2214   -2.6398    0.1562 C   0  0  0  0  0  0  0  0  0  0  0  0
   -0.3487   -3.1269    0.8520 O   0  0  0  0  0  0  0  0  0  0  0  0
   -1.0838   -1.3580   -0.3417 N   0  0  0  0  0  0  0  0  0  0  0  0
   -1.8121   -1.0360   -0.9727 H   0  0  0  0  0  0  0  0  0  0  0  0
    0.1392   -0.5416   -0.2104 C   0  0  1  0  0  0  0  0  0  0  0  0
    0.9597   -1.1364   -0.6288 H   0  0  0  0  0  0  0  0  0  0  0  0
   -0.0092    0.7152   -1.1136 C   0  0  0  0  0  0  0  0  0  0  0  0
    0.8170    0.6665   -1.8323 H   0  0  0  0  0  0  0  0  0  0  0  0
   -0.9300    0.6617   -1.7037 H   0  0  0  0  0  0  0  0  0  0  0  0
    0.0494    2.1039   -0.4305 C   0  0  0  0  0  0  0  0  0  0  0  0
   -0.9479    2.4025   -0.0958 H   0  0  0  0  0  0  0  0  0  0  0  0
    0.7039    2.1001    0.4425 H   0  0  0  0  0  0  0  0  0  0  0  0
    0.6128    3.1522   -1.3809 C   0  0  0  0  0  0  0  0  0  0  0  0
    0.0609    3.4141   -2.4329 O   0  0  0  0  0  0  0  0  0  0  0  0
    1.8083    3.7701   -1.1489 N   0  0  0  0  0  0  0  0  0  0  0  0
    2.2059    4.2830   -1.9303 H   0  0  0  0  0  0  0  0  0  0  0  0
    2.4110    3.4079   -0.4159 H   0  0  0  0  0  0  0  0  0  0  0  0
    0.5543   -0.2655    1.2542 C   0  0  0  0  0  0  0  0  0  0  0  0
    1.7386   -0.1069    1.5237 O   0  0  0  0  0  0  0  0  0  0  0  0
   -0.3993    0.1130    2.1823 N   0  0  0  0  0  0  0  0  0  0  0  0
   -1.3611   -0.1089    1.9464 H   0  0  0  0  0  0  0  0  0  0  0  0
   -0.0721    0.4197    3.5688 C   0  0  0  0  0  0  0  0  0  0  0  0
    0.6224    1.2647    3.6213 H   0  0  0  0  0  0  0  0  0  0  0  0
   -0.9782    0.6848    4.1217 H   0  0  0  0  0  0  0  0  0  0  0  0
    0.3900   -0.4471    4.0530 H   0  0  0  0  0  0  0  0  0  0  0  0
  1  2  1  0  0  0  0
  2  3  1  0  0  0  0
  2  4  1  0  0  0  0
  2  5  1  0  0  0  0
  5  6  2  0  0  0  0
  5  7  1  0  0  0  0
  7  8  1  0  0  0  0
  7  9  1  0  0  0  0
  9 10  1  0  0  0  0
  9 11  1  0  0  0  0
  9 22  1  0  0  0  0
 11 12  1  0  0  0  0
 11 13  1  0  0  0  0
 11 14  1  0  0  0  0
 14 15  1  0  0  0  0
 14 16  1  0  0  0  0
 14 17  1  0  0  0  0
 17 18  2  0  0  0  0
 17 19  1  0  0  0  0
 19 20  1  0  0  0  0
 19 21  1  0  0  0  0
 22 23  2  0  0  0  0
 22 24  1  0  0  0  0
 24 25  1  0  0  0  0
 24 26  1  0  0  0  0
 26 27  1  0  0  0  0
 26 28  1  0  0  0  0
 26 29  1  0  0  0  0
M  END
$$$$

  -OEChem-02102214123D

 29 28  0     1  0  0  0  0  0999 V2000
   -2.5541   -4.3885    0.3625 H   0  0  0  0  0  0  0  0  0  0  0  0
   -2.5644   -3.4171   -0.1405 C   0  0  0  0  0  0  0  0  0  0  0  0
   -3.4380   -2.8551    0.1981 H   0  0  0  0  0  0  0  0  0  0  0  0
   -2.6394   -3.5814   -1.2182 H   0  0  0  0  0  0  0  0  0  0  0  0
   -1.2953   -2.6498    0.1796 C   0  0  0  0  0  0  0  0  0  0  0  0
   -0.4439   -3.1549    0.8885 O   0  0  0  0  0  0  0  0  0  0  0  0
   -1.1155   -1.3800   -0.3349 N   0  0  0  0  0  0  0  0  0  0  0  0
   -1.8263   -1.0511   -0.9822 H   0  0  0  0  0  0  0  0  0  0  0  0
    0.1390   -0.6089   -0.2287 C   0  0  1  0  0  0  0  0  0  0  0  0
    0.9327   -1.2322   -0.6566 H   0  0  0  0  0  0  0  0  0  0  0  0
    0.0163    0.6507   -1.1297 C   0  0  0  0  0  0  0  0  0  0  0  0
    0.8177    0.5852   -1.8745 H   0  0  0  0  0  0  0  0  0  0  0  0
   -0.9269    0.6332   -1.6860 H   0  0  0  0  0  0  0  0  0  0  0  0
    0.1424    2.0210   -0.4257 C   0  0  0  0  0  0  0  0  0  0  0  0
   -0.7556    2.2301    0.1617 H   0  0  0  0  0  0  0  0  0  0  0  0
    1.0007    2.0211    0.2510 H   0  0  0  0  0  0  0  0  0  0  0  0
    0.3695    3.1499   -1.4256 C   0  0  0  0  0  0  0  0  0  0  0  0
   -0.1614    3.1604   -2.5208 O   0  0  0  0  0  0  0  0  0  0  0  0
    1.1990    4.1984   -1.1491 N   0  0  0  0  0  0  0  0  0  0  0  0
    1.4330    4.7999   -1.9336 H   0  0  0  0  0  0  0  0  0  0  0  0
    1.8264    4.1281   -0.3544 H   0  0  0  0  0  0  0  0  0  0  0  0
    0.5835   -0.3316    1.2281 C   0  0  0  0  0  0  0  0  0  0  0  0
    1.7761   -0.2303    1.4874 O   0  0  0  0  0  0  0  0  0  0  0  0
   -0.3422    0.0935    2.1645 N   0  0  0  0  0  0  0  0  0  0  0  0
   -1.3147   -0.0925    1.9420 H   0  0  0  0  0  0  0  0  0  0  0  0
    0.0150    0.3923    3.5455 C   0  0  0  0  0  0  0  0  0  0  0  0
    0.7580    1.1958    3.5848 H   0  0  0  0  0  0  0  0  0  0  0  0
   -0.8690    0.7142    4.1039 H   0  0  0  0  0  0  0  0  0  0  0  0
    0.4307   -0.4961    4.0327 H   0  0  0  0  0  0  0  0  0  0  0  0
  1  2  1  0  0  0  0
  2  3  1  0  0  0  0
  2  4  1  0  0  0  0
  2  5  1  0  0  0  0
  5  6  2  0  0  0  0
  5  7  1  0  0  0  0
  7  8  1  0  0  0  0
  7  9  1  0  0  0  0
  9 10  1  0  0  0  0
  9 11  1  0  0  0  0
  9 22  1  0  0  0  0
 11 12  1  0  0  0  0
 11 13  1  0  0  0  0
 11 14  1  0  0  0  0
 14 15  1  0  0  0  0
 14 16  1  0  0  0  0
 14 17  1  0  0  0  0
 17 18  2  0  0  0  0
 17 19  1  0  0  0  0
 19 20  1  0  0  0  0
 19 21  1  0  0  0  0
 22 23  2  0  0  0  0
 22 24  1  0  0  0  0
 24 25  1  0  0  0  0
 24 26  1  0  0  0  0
 26 27  1  0  0  0  0
 26 28  1  0  0  0  0
 26 29  1  0  0  0  0
M  END
$$$$

  -OEChem-02102214123D

 29 28  0     1  0  0  0  0  0999 V2000
   -2.6600   -4.3278    0.4058 H   0  0  0  0  0  0  0  0  0  0  0  0
   -2.6439   -3.3582   -0.1004 C   0  0  0  0  0  0  0  0  0  0  0  0
   -3.4910   -2.7645    0.2512 H   0  0  0  0  0  0  0  0  0  0  0  0
   -2.7435   -3.5233   -1.1759 H   0  0  0  0  0  0  0  0  0  0  0  0
   -1.3424   -2.6367    0.1960 C   0  0  0  0  0  0  0  0  0  0  0  0
   -0.5087   -3.1633    0.9105 O   0  0  0  0  0  0  0  0  0  0  0  0
   -1.1133   -1.3857   -0.3451 N   0  0  0  0  0  0  0  0  0  0  0  0
   -1.8089   -1.0448   -1.0027 H   0  0  0  0  0  0  0  0  0  0  0  0
    0.1712   -0.6624   -0.2558 C   0  0  1  0  0  0  0  0  0  0  0  0
    0.9500   -1.3104   -0.6740 H   0  0  0  0  0  0  0  0  0  0  0  0
    0.0868    0.5990   -1.1577 C   0  0  0  0  0  0  0  0  0  0  0  0
    0.6345    0.3949   -2.0844 H   0  0  0  0  0  0  0  0  0  0  0  0
   -0.9577    0.7740   -1.4373 H   0  0  0  0  0  0  0  0  0  0  0  0
    0.6255    1.9096   -0.5415 C   0  0  0  0  0  0  0  0  0  0  0  0
    0.0722    2.1552    0.3684 H   0  0  0  0  0  0  0  0  0  0  0  0
    1.6794    1.7805   -0.2779 H   0  0  0  0  0  0  0  0  0  0  0  0
    0.5072    3.0999   -1.4894 C   0  0  0  0  0  0  0  0  0  0  0  0
   -0.1563    3.0709   -2.5100 O   0  0  0  0  0  0  0  0  0  0  0  0
    1.1459    4.2776   -1.2272 N   0  0  0  0  0  0  0  0  0  0  0  0
    1.1586    4.9572   -1.9821 H   0  0  0  0  0  0  0  0  0  0  0  0
    1.8624    4.2970   -0.5088 H   0  0  0  0  0  0  0  0  0  0  0  0
    0.6141   -0.3805    1.2018 C   0  0  0  0  0  0  0  0  0  0  0  0
    1.8068   -0.3369    1.4760 O   0  0  0  0  0  0  0  0  0  0  0  0
   -0.3010    0.0948    2.1248 N   0  0  0  0  0  0  0  0  0  0  0  0
   -1.2789   -0.0469    1.8932 H   0  0  0  0  0  0  0  0  0  0  0  0
    0.0552    0.3882    3.5072 C   0  0  0  0  0  0  0  0  0  0  0  0
    0.8343    1.1565    3.5482 H   0  0  0  0  0  0  0  0  0  0  0  0
   -0.8186    0.7556    4.0533 H   0  0  0  0  0  0  0  0  0  0  0  0
    0.4240   -0.5142    4.0060 H   0  0  0  0  0  0  0  0  0  0  0  0
  1  2  1  0  0  0  0
  2  3  1  0  0  0  0
  2  4  1  0  0  0  0
  2  5  1  0  0  0  0
  5  6  2  0  0  0  0
  5  7  1  0  0  0  0
  7  8  1  0  0  0  0
  7  9  1  0  0  0  0
  9 10  1  0  0  0  0
  9 11  1  0  0  0  0
  9 22  1  0  0  0  0
 11 12  1  0  0  0  0
 11 13  1  0  0  0  0
 11 14  1  0  0  0  0
 14 15  1  0  0  0  0
 14 16  1  0  0  0  0
 14 17  1  0  0  0  0
 17 18  2  0  0  0  0
 17 19  1  0  0  0  0
 19 20  1  0  0  0  0
 19 21  1  0  0  0  0
 22 23  2  0  0  0  0
 22 24  1  0  0  0  0
 24 25  1  0  0  0  0
 24 26  1  0  0  0  0
 26 27  1  0  0  0  0
 26 28  1  0  0  0  0
 26 29  1  0  0  0  0
M  END
$$$$

  -OEChem-02102214123D

 29 28  0     1  0  0  0  0  0999 V2000
   -2.7036   -4.3087    0.4069 H   0  0  0  0  0  0  0  0  0  0  0  0
   -2.6760   -3.3372   -0.0950 C   0  0  0  0  0  0  0  0  0  0  0  0
   -3.5075   -2.7298    0.2701 H   0  0  0  0  0  0  0  0  0  0  0  0
   -2.7917   -3.4944   -1.1701 H   0  0  0  0  0  0  0  0  0  0  0  0
   -1.3583   -2.6405    0.1890 C   0  0  0  0  0  0  0  0  0  0  0  0
   -0.5229   -3.1855    0.8875 O   0  0  0  0  0  0  0  0  0  0  0  0
   -1.1200   -1.3854   -0.3379 N   0  0  0  0  0  0  0  0  0  0  0  0
   -1.8201   -1.0257   -0.9807 H   0  0  0  0  0  0  0  0  0  0  0  0
    0.1705   -0.6731   -0.2465 C   0  0  1  0  0  0  0  0  0  0  0  0
    0.9393   -1.3317   -0.6667 H   0  0  0  0  0  0  0  0  0  0  0  0
    0.1124    0.5855   -1.1566 C   0  0  0  0  0  0  0  0  0  0  0  0
    0.6484    0.3743   -2.0882 H   0  0  0  0  0  0  0  0  0  0  0  0
   -0.9348    0.7603   -1.4267 H   0  0  0  0  0  0  0  0  0  0  0  0
    0.6608    1.9020   -0.5545 C   0  0  0  0  0  0  0  0  0  0  0  0
    0.2744    2.0490    0.4559 H   0  0  0  0  0  0  0  0  0  0  0  0
    1.7517    1.8482   -0.4956 H   0  0  0  0  0  0  0  0  0  0  0  0
    0.2518    3.1438   -1.3439 C   0  0  0  0  0  0  0  0  0  0  0  0
   -0.4910    3.1092   -2.3082 O   0  0  0  0  0  0  0  0  0  0  0  0
    0.7174    4.3802   -1.0001 N   0  0  0  0  0  0  0  0  0  0  0  0
    0.5492    5.1237   -1.6716 H   0  0  0  0  0  0  0  0  0  0  0  0
    1.4875    4.4486   -0.3426 H   0  0  0  0  0  0  0  0  0  0  0  0
    0.6256   -0.4099    1.2102 C   0  0  0  0  0  0  0  0  0  0  0  0
    1.8211   -0.3570    1.4702 O   0  0  0  0  0  0  0  0  0  0  0  0
   -0.2811    0.0622    2.1432 N   0  0  0  0  0  0  0  0  0  0  0  0
   -1.2607   -0.0845    1.9223 H   0  0  0  0  0  0  0  0  0  0  0  0
    0.0879    0.3553    3.5223 C   0  0  0  0  0  0  0  0  0  0  0  0
    0.8663    1.1249    3.5559 H   0  0  0  0  0  0  0  0  0  0  0  0
   -0.7813    0.7212    4.0771 H   0  0  0  0  0  0  0  0  0  0  0  0
    0.4625   -0.5468    4.0173 H   0  0  0  0  0  0  0  0  0  0  0  0
  1  2  1  0  0  0  0
  2  3  1  0  0  0  0
  2  4  1  0  0  0  0
  2  5  1  0  0  0  0
  5  6  2  0  0  0  0
  5  7  1  0  0  0  0
  7  8  1  0  0  0  0
  7  9  1  0  0  0  0
  9 10  1  0  0  0  0
  9 11  1  0  0  0  0
  9 22  1  0  0  0  0
 11 12  1  0  0  0  0
 11 13  1  0  0  0  0
 11 14  1  0  0  0  0
 14 15  1  0  0  0  0
 14 16  1  0  0  0  0
 14 17  1  0  0  0  0
 17 18  2  0  0  0  0
 17 19  1  0  0  0  0
 19 20  1  0  0  0  0
 19 21  1  0  0  0  0
 22 23  2  0  0  0  0
 22 24  1  0  0  0  0
 24 25  1  0  0  0  0
 24 26  1  0  0  0  0
 26 27  1  0  0  0  0
 26 28  1  0  0  0  0
 26 29  1  0  0  0  0
M  END
$$$$

  -OEChem-02102214123D

 29 28  0     1  0  0  0  0  0999 V2000
   -2.7430   -4.2802    0.4301 H   0  0  0  0  0  0  0  0  0  0  0  0
   -2.7003   -3.3122   -0.0775 C   0  0  0  0  0  0  0  0  0  0  0  0
   -3.5136   -2.6845    0.2946 H   0  0  0  0  0  0  0  0  0  0  0  0
   -2.8332   -3.4724   -1.1502 H   0  0  0  0  0  0  0  0  0  0  0  0
   -1.3637   -2.6439    0.1856 C   0  0  0  0  0  0  0  0  0  0  0  0
   -0.5242   -3.2129    0.8597 O   0  0  0  0  0  0  0  0  0  0  0  0
   -1.1100   -1.3899   -0.3365 N   0  0  0  0  0  0  0  0  0  0  0  0
   -1.8221   -1.0001   -0.9480 H   0  0  0  0  0  0  0  0  0  0  0  0
    0.1879   -0.6905   -0.2424 C   0  0  1  0  0  0  0  0  0  0  0  0
    0.9500   -1.3595   -0.6582 H   0  0  0  0  0  0  0  0  0  0  0  0
    0.1476    0.5640   -1.1628 C   0  0  0  0  0  0  0  0  0  0  0  0
    0.6783    0.3387   -2.0939 H   0  0  0  0  0  0  0  0  0  0  0  0
   -0.8999    0.7266   -1.4348 H   0  0  0  0  0  0  0  0  0  0  0  0
    0.7017    1.8985   -0.5907 C   0  0  0  0  0  0  0  0  0  0  0  0
    0.5426    1.9613    0.4858 H   0  0  0  0  0  0  0  0  0  0  0  0
    1.7802    1.9428   -0.7673 H   0  0  0  0  0  0  0  0  0  0  0  0
    0.0360    3.1519   -1.1594 C   0  0  0  0  0  0  0  0  0  0  0  0
   -0.9228    3.1292   -1.9098 O   0  0  0  0  0  0  0  0  0  0  0  0
    0.4923    4.3955   -0.8289 N   0  0  0  0  0  0  0  0  0  0  0  0
   -0.0783    5.1840   -1.1199 H   0  0  0  0  0  0  0  0  0  0  0  0
    1.1784    4.4962   -0.0879 H   0  0  0  0  0  0  0  0  0  0  0  0
    0.6401   -0.4385    1.2163 C   0  0  0  0  0  0  0  0  0  0  0  0
    1.8348   -0.3941    1.4810 O   0  0  0  0  0  0  0  0  0  0  0  0
   -0.2667    0.0388    2.1466 N   0  0  0  0  0  0  0  0  0  0  0  0
   -1.2471   -0.0891    1.9171 H   0  0  0  0  0  0  0  0  0  0  0  0
    0.0967    0.3296    3.5278 C   0  0  0  0  0  0  0  0  0  0  0  0
    0.8875    1.0863    3.5661 H   0  0  0  0  0  0  0  0  0  0  0  0
   -0.7712    0.7112    4.0740 H   0  0  0  0  0  0  0  0  0  0  0  0
    0.4525   -0.5768    4.0291 H   0  0  0  0  0  0  0  0  0  0  0  0
  1  2  1  0  0  0  0
  2  3  1  0  0  0  0
  2  4  1  0  0  0  0
  2  5  1  0  0  0  0
  5  6  2  0  0  0  0
  5  7  1  0  0  0  0
  7  8  1  0  0  0  0
  7  9  1  0  0  0  0
  9 10  1  0  0  0  0
  9 11  1  0  0  0  0
  9 22  1  0  0  0  0
 11 12  1  0  0  0  0
 11 13  1  0  0  0  0
 11 14  1  0  0  0  0
 14 15  1  0  0  0  0
 14 16  1  0  0  0  0
 14 17  1  0  0  0  0
 17 18  2  0  0  0  0
 17 19  1  0  0  0  0
 19 20  1  0  0  0  0
 19 21  1  0  0  0  0
 22 23  2  0  0  0  0
 22 24  1  0  0  0  0
 24 25  1  0  0  0  0
 24 26  1  0  0  0  0
 26 27  1  0  0  0  0
 26 28  1  0  0  0  0
 26 29  1  0  0  0  0
M  END
$$$$

  -OEChem-02102214123D

 29 28  0     1  0  0  0  0  0999 V2000
   -2.7438   -4.2381    0.3439 H   0  0  0  0  0  0  0  0  0  0  0  0
   -2.6921   -3.2504   -0.1233 C   0  0  0  0  0  0  0  0  0  0  0  0
   -3.4441   -2.6048    0.3365 H   0  0  0  0  0  0  0  0  0  0  0  0
   -2.9112   -3.3538   -1.1887 H   0  0  0  0  0  0  0  0  0  0  0  0
   -1.3092   -2.6559    0.0656 C   0  0  0  0  0  0  0  0  0  0  0  0
   -0.4343   -3.3127    0.6009 O   0  0  0  0  0  0  0  0  0  0  0  0
   -1.0498   -1.3724   -0.3748 N   0  0  0  0  0  0  0  0  0  0  0  0
   -1.8208   -0.8692   -0.8050 H   0  0  0  0  0  0  0  0  0  0  0  0
    0.2412   -0.6755   -0.2081 C   0  0  1  0  0  0  0  0  0  0  0  0
    1.0215   -1.3063   -0.6498 H   0  0  0  0  0  0  0  0  0  0  0  0
    0.1873    0.6358   -1.0450 C   0  0  0  0  0  0  0  0  0  0  0  0
    0.7517    0.4691   -1.9686 H   0  0  0  0  0  0  0  0  0  0  0  0
   -0.8505    0.7954   -1.3551 H   0  0  0  0  0  0  0  0  0  0  0  0
    0.7084    1.9497   -0.3949 C   0  0  0  0  0  0  0  0  0  0  0  0
    0.8252    1.8761    0.6858 H   0  0  0  0  0  0  0  0  0  0  0  0
    1.6970    2.1753   -0.8040 H   0  0  0  0  0  0  0  0  0  0  0  0
   -0.2297    3.1288   -0.6354 C   0  0  0  0  0  0  0  0  0  0  0  0
   -1.4288    3.0529   -0.4362 O   0  0  0  0  0  0  0  0  0  0  0  0
    0.2267    4.3292   -1.0989 N   0  0  0  0  0  0  0  0  0  0  0  0
   -0.4338    5.1005   -1.0643 H   0  0  0  0  0  0  0  0  0  0  0  0
    1.2248    4.5113   -1.0865 H   0  0  0  0  0  0  0  0  0  0  0  0
    0.6442   -0.5152    1.2772 C   0  0  0  0  0  0  0  0  0  0  0  0
    1.8275   -0.5261    1.5917 O   0  0  0  0  0  0  0  0  0  0  0  0
   -0.2924   -0.0995    2.2071 N   0  0  0  0  0  0  0  0  0  0  0  0
   -1.2601   -0.0653    1.9030 H   0  0  0  0  0  0  0  0  0  0  0  0
    0.0247    0.1666    3.6037 C   0  0  0  0  0  0  0  0  0  0  0  0
    0.7729    0.9622    3.6816 H   0  0  0  0  0  0  0  0  0  0  0  0
   -0.8737    0.4841    4.1414 H   0  0  0  0  0  0  0  0  0  0  0  0
    0.4167   -0.7356    4.0849 H   0  0  0  0  0  0  0  0  0  0  0  0
  1  2  1  0  0  0  0
  2  3  1  0  0  0  0
  2  4  1  0  0  0  0
  2  5  1  0  0  0  0
  5  6  2  0  0  0  0
  5  7  1  0  0  0  0
  7  8  1  0  0  0  0
  7  9  1  0  0  0  0
  9 10  1  0  0  0  0
  9 11  1  0  0  0  0
  9 22  1  0  0  0  0
 11 12  1  0  0  0  0
 11 13  1  0  0  0  0
 11 14  1  0  0  0  0
 14 15  1  0  0  0  0
 14 16  1  0  0  0  0
 14 17  1  0  0  0  0
 17 18  2  0  0  0  0
 17 19  1  0  0  0  0
 19 20  1  0  0  0  0
 19 21  1  0  0  0  0
 22 23  2  0  0  0  0
 22 24  1  0  0  0  0
 24 25  1  0  0  0  0
 24 26  1  0  0  0  0
 26 27  1  0  0  0  0
 26 28  1  0  0  0  0
 26 29  1  0  0  0  0
M  END
$$$$

  -OEChem-02102214123D

 29 28  0     1  0  0  0  0  0999 V2000
   -2.7941   -4.1905    0.3794 H   0  0  0  0  0  0  0  0  0  0  0  0
   -2.7312   -3.1927   -0.0643 C   0  0  0  0  0  0  0  0  0  0  0  0
   -3.4224   -2.5303    0.4623 H   0  0  0  0  0  0  0  0  0  0  0  0
   -3.0249   -3.2553   -1.1150 H   0  0  0  0  0  0  0  0  0  0  0  0
   -1.3144   -2.6614    0.0466 C   0  0  0  0  0  0  0  0  0  0  0  0
   -0.4397   -3.3597    0.5272 O   0  0  0  0  0  0  0  0  0  0  0  0
   -1.0239   -1.3904   -0.4100 N   0  0  0  0  0  0  0  0  0  0  0  0
   -1.8056   -0.8391   -0.7527 H   0  0  0  0  0  0  0  0  0  0  0  0
    0.2822   -0.7247   -0.2395 C   0  0  1  0  0  0  0  0  0  0  0  0
    1.0573   -1.3637   -0.6781 H   0  0  0  0  0  0  0  0  0  0  0  0
    0.2262    0.5925   -1.0651 C   0  0  0  0  0  0  0  0  0  0  0  0
    0.8111    0.4185   -1.9745 H   0  0  0  0  0  0  0  0  0  0  0  0
   -0.7999    0.7655   -1.4070 H   0  0  0  0  0  0  0  0  0  0  0  0
    0.7668    1.8949   -0.4078 C   0  0  0  0  0  0  0  0  0  0  0  0
    1.2062    1.7464    0.5784 H   0  0  0  0  0  0  0  0  0  0  0  0
    1.5695    2.2827   -1.0412 H   0  0  0  0  0  0  0  0  0  0  0  0
   -0.3117    2.9683   -0.2972 C   0  0  0  0  0  0  0  0  0  0  0  0
   -1.4418    2.7052    0.0759 O   0  0  0  0  0  0  0  0  0  0  0  0
   -0.0703    4.2740   -0.6149 N   0  0  0  0  0  0  0  0  0  0  0  0
   -0.7906    4.9384   -0.3466 H   0  0  0  0  0  0  0  0  0  0  0  0
    0.8900    4.5814   -0.7287 H   0  0  0  0  0  0  0  0  0  0  0  0
    0.6610   -0.5620    1.2521 C   0  0  0  0  0  0  0  0  0  0  0  0
    1.8324   -0.6469    1.5987 O   0  0  0  0  0  0  0  0  0  0  0  0
   -0.2795   -0.1128    2.1622 N   0  0  0  0  0  0  0  0  0  0  0  0
   -1.2076    0.0933    1.8047 H   0  0  0  0  0  0  0  0  0  0  0  0
    0.0303    0.1925    3.5524 C   0  0  0  0  0  0  0  0  0  0  0  0
    0.7620    1.0048    3.6132 H   0  0  0  0  0  0  0  0  0  0  0  0
   -0.8756    0.5009    4.0827 H   0  0  0  0  0  0  0  0  0  0  0  0
    0.4401   -0.6902    4.0544 H   0  0  0  0  0  0  0  0  0  0  0  0
  1  2  1  0  0  0  0
  2  3  1  0  0  0  0
  2  4  1  0  0  0  0
  2  5  1  0  0  0  0
  5  6  2  0  0  0  0
  5  7  1  0  0  0  0
  7  8  1  0  0  0  0
  7  9  1  0  0  0  0
  9 10  1  0  0  0  0
  9 11  1  0  0  0  0
  9 22  1  0  0  0  0
 11 12  1  0  0  0  0
 11 13  1  0  0  0  0
 11 14  1  0  0  0  0
 14 15  1  0  0  0  0
 14 16  1  0  0  0  0
 14 17  1  0  0  0  0
 17 18  2  0  0  0  0
 17 19  1  0  0  0  0
 19 20  1  0  0  0  0
 19 21  1  0  0  0  0
 22 23  2  0  0  0  0
 22 24  1  0  0  0  0
 24 25  1  0  0  0  0
 24 26  1  0  0  0  0
 26 27  1  0  0  0  0
 26 28  1  0  0  0  0
 26 29  1  0  0  0  0
M  END
$$$$

  -OEChem-02102214123D

 29 28  0     1  0  0  0  0  0999 V2000
   -2.8074   -4.1604    0.4901 H   0  0  0  0  0  0  0  0  0  0  0  0
   -2.7451   -3.1769    0.0152 C   0  0  0  0  0  0  0  0  0  0  0  0
   -3.3910   -2.4834    0.5590 H   0  0  0  0  0  0  0  0  0  0  0  0
   -3.0963   -3.2612   -1.0161 H   0  0  0  0  0  0  0  0  0  0  0  0
   -1.3122   -2.6789    0.0355 C   0  0  0  0  0  0  0  0  0  0  0  0
   -0.4280   -3.3962    0.4690 O   0  0  0  0  0  0  0  0  0  0  0  0
   -1.0162   -1.4222   -0.4568 N   0  0  0  0  0  0  0  0  0  0  0  0
   -1.8096   -0.8432   -0.7168 H   0  0  0  0  0  0  0  0  0  0  0  0
    0.2961   -0.7682   -0.2907 C   0  0  1  0  0  0  0  0  0  0  0  0
    1.0722   -1.4147   -0.7160 H   0  0  0  0  0  0  0  0  0  0  0  0
    0.2394    0.5423   -1.1240 C   0  0  0  0  0  0  0  0  0  0  0  0
    0.8395    0.3588   -2.0215 H   0  0  0  0  0  0  0  0  0  0  0  0
   -0.7789    0.7286   -1.4833 H   0  0  0  0  0  0  0  0  0  0  0  0
    0.7924    1.8288   -0.4555 C   0  0  0  0  0  0  0  0  0  0  0  0
    1.4855    1.6340    0.3646 H   0  0  0  0  0  0  0  0  0  0  0  0
    1.3661    2.3710   -1.2123 H   0  0  0  0  0  0  0  0  0  0  0  0
   -0.3275    2.7585    0.0054 C   0  0  0  0  0  0  0  0  0  0  0  0
   -1.4038    2.3305    0.3898 O   0  0  0  0  0  0  0  0  0  0  0  0
   -0.1680    4.1136    0.0470 N   0  0  0  0  0  0  0  0  0  0  0  0
   -0.8871    4.6322    0.5433 H   0  0  0  0  0  0  0  0  0  0  0  0
    0.7667    4.4987   -0.0425 H   0  0  0  0  0  0  0  0  0  0  0  0
    0.6568   -0.5737    1.2030 C   0  0  0  0  0  0  0  0  0  0  0  0
    1.8182   -0.6907    1.5736 O   0  0  0  0  0  0  0  0  0  0  0  0
   -0.2910   -0.0899    2.0881 N   0  0  0  0  0  0  0  0  0  0  0  0
   -1.1543    0.2570    1.6747 H   0  0  0  0  0  0  0  0  0  0  0  0
    0.0280    0.3010    3.4545 C   0  0  0  0  0  0  0  0  0  0  0  0
    0.7184    1.1506    3.4586 H   0  0  0  0  0  0  0  0  0  0  0  0
   -0.8831    0.5901    3.9867 H   0  0  0  0  0  0  0  0  0  0  0  0
    0.4906   -0.5329    3.9930 H   0  0  0  0  0  0  0  0  0  0  0  0
  1  2  1  0  0  0  0
  2  3  1  0  0  0  0
  2  4  1  0  0  0  0
  2  5  1  0  0  0  0
  5  6  2  0  0  0  0
  5  7  1  0  0  0  0
  7  8  1  0  0  0  0
  7  9  1  0  0  0  0
  9 10  1  0  0  0  0
  9 11  1  0  0  0  0
  9 22  1  0  0  0  0
 11 12  1  0  0  0  0
 11 13  1  0  0  0  0
 11 14  1  0  0  0  0
 14 15  1  0  0  0  0
 14 16  1  0  0  0  0
 14 17  1  0  0  0  0
 17 18  2  0  0  0  0
 17 19  1  0  0  0  0
 19 20  1  0  0  0  0
 19 21  1  0  0  0  0
 22 23  2  0  0  0  0
 22 24  1  0  0  0  0
 24 25  1  0  0  0  0
 24 26  1  0  0  0  0
 26 27  1  0  0  0  0
 26 28  1  0  0  0  0
 26 29  1  0  0  0  0
M  END
$$$$

  -OEChem-02102214123D

 29 28  0     1  0  0  0  0  0999 V2000
   -2.7790   -4.1846    0.5308 H   0  0  0  0  0  0  0  0  0  0  0  0
   -2.7331   -3.1997    0.0576 C   0  0  0  0  0  0  0  0  0  0  0  0
   -3.3765   -2.5131    0.6127 H   0  0  0  0  0  0  0  0  0  0  0  0
   -3.0992   -3.2845   -0.9683 H   0  0  0  0  0  0  0  0  0  0  0  0
   -1.3053   -2.6877    0.0574 C   0  0  0  0  0  0  0  0  0  0  0  0
   -0.4101   -3.3860    0.5000 O   0  0  0  0  0  0  0  0  0  0  0  0
   -1.0282   -1.4358   -0.4565 N   0  0  0  0  0  0  0  0  0  0  0  0
   -1.8313   -0.8664   -0.7086 H   0  0  0  0  0  0  0  0  0  0  0  0
    0.2740   -0.7618   -0.3043 C   0  0  1  0  0  0  0  0  0  0  0  0
    1.0505   -1.4223   -0.7071 H   0  0  0  0  0  0  0  0  0  0  0  0
    0.2317    0.5113   -1.1938 C   0  0  0  0  0  0  0  0  0  0  0  0
    0.8485    0.2964   -2.0727 H   0  0  0  0  0  0  0  0  0  0  0  0
   -0.7809    0.6882   -1.5733 H   0  0  0  0  0  0  0  0  0  0  0  0
    0.7709    1.8142   -0.5572 C   0  0  0  0  0  0  0  0  0  0  0  0
    1.6198    1.6237    0.1043 H   0  0  0  0  0  0  0  0  0  0  0  0
    1.1407    2.4533   -1.3636 H   0  0  0  0  0  0  0  0  0  0  0  0
   -0.3108    2.6074    0.1776 C   0  0  0  0  0  0  0  0  0  0  0  0
   -1.4220    2.1565    0.4079 O   0  0  0  0  0  0  0  0  0  0  0  0
   -0.0627    3.8567    0.6676 N   0  0  0  0  0  0  0  0  0  0  0  0
   -0.7557    4.2308    1.3093 H   0  0  0  0  0  0  0  0  0  0  0  0
    0.8982    4.1809    0.7114 H   0  0  0  0  0  0  0  0  0  0  0  0
    0.6511   -0.5294    1.1807 C   0  0  0  0  0  0  0  0  0  0  0  0
    1.8205   -0.6118    1.5351 O   0  0  0  0  0  0  0  0  0  0  0  0
   -0.2868   -0.0406    2.0728 N   0  0  0  0  0  0  0  0  0  0  0  0
   -1.1553    0.3009    1.6628 H   0  0  0  0  0  0  0  0  0  0  0  0
    0.0470    0.3717    3.4293 C   0  0  0  0  0  0  0  0  0  0  0  0
    0.7245    1.2313    3.4127 H   0  0  0  0  0  0  0  0  0  0  0  0
   -0.8607    0.6528    3.9716 H   0  0  0  0  0  0  0  0  0  0  0  0
    0.5303   -0.4486    3.9707 H   0  0  0  0  0  0  0  0  0  0  0  0
  1  2  1  0  0  0  0
  2  3  1  0  0  0  0
  2  4  1  0  0  0  0
  2  5  1  0  0  0  0
  5  6  2  0  0  0  0
  5  7  1  0  0  0  0
  7  8  1  0  0  0  0
  7  9  1  0  0  0  0
  9 10  1  0  0  0  0
  9 11  1  0  0  0  0
  9 22  1  0  0  0  0
 11 12  1  0  0  0  0
 11 13  1  0  0  0  0
 11 14  1  0  0  0  0
 14 15  1  0  0  0  0
 14 16  1  0  0  0  0
 14 17  1  0  0  0  0
 17 18  2  0  0  0  0
 17 19  1  0  0  0  0
 19 20  1  0  0  0  0
 19 21  1  0  0  0  0
 22 23  2  0  0  0  0
 22 24  1  0  0  0  0
 24 25  1  0  0  0  0
 24 26  1  0  0  0  0
 26 27  1  0  0  0  0
 26 28  1  0  0  0  0
 26 29  1  0  0  0  0
M  END
$$$$

  -OEChem-02102214123D

 29 28  0     1  0  0  0  0  0999 V2000
   -2.7413   -4.2182    0.5444 H   0  0  0  0  0  0  0  0  0  0  0  0
   -2.7163   -3.2337    0.0686 C   0  0  0  0  0  0  0  0  0  0  0  0
   -3.3750   -2.5600    0.6218 H   0  0  0  0  0  0  0  0  0  0  0  0
   -3.0799   -3.3293   -0.9572 H   0  0  0  0  0  0  0  0  0  0  0  0
   -1.3000   -2.6905    0.0676 C   0  0  0  0  0  0  0  0  0  0  0  0
   -0.3901   -3.3691    0.5111 O   0  0  0  0  0  0  0  0  0  0  0  0
   -1.0502   -1.4304   -0.4403 N   0  0  0  0  0  0  0  0  0  0  0  0
   -1.8642   -0.8771   -0.6942 H   0  0  0  0  0  0  0  0  0  0  0  0
    0.2390   -0.7317   -0.2943 C   0  0  1  0  0  0  0  0  0  0  0  0
    1.0134   -1.4045   -0.6814 H   0  0  0  0  0  0  0  0  0  0  0  0
    0.2297    0.5059   -1.2342 C   0  0  0  0  0  0  0  0  0  0  0  0
    0.8589    0.2592   -2.0958 H   0  0  0  0  0  0  0  0  0  0  0  0
   -0.7788    0.6728   -1.6280 H   0  0  0  0  0  0  0  0  0  0  0  0
    0.7478    1.8349   -0.6427 C   0  0  0  0  0  0  0  0  0  0  0  0
    1.7044    1.6726   -0.1378 H   0  0  0  0  0  0  0  0  0  0  0  0
    0.9284    2.5350   -1.4627 H   0  0  0  0  0  0  0  0  0  0  0  0
   -0.2358    2.5004    0.3202 C   0  0  0  0  0  0  0  0  0  0  0  0
   -1.3963    2.1380    0.4349 O   0  0  0  0  0  0  0  0  0  0  0  0
    0.1539    3.5230    1.1357 N   0  0  0  0  0  0  0  0  0  0  0  0
   -0.4973    3.7813    1.8711 H   0  0  0  0  0  0  0  0  0  0  0  0
    1.1471    3.6987    1.2516 H   0  0  0  0  0  0  0  0  0  0  0  0
    0.6429   -0.4902    1.1824 C   0  0  0  0  0  0  0  0  0  0  0  0
    1.8256   -0.5123    1.4996 O   0  0  0  0  0  0  0  0  0  0  0  0
   -0.2804   -0.0211    2.0998 N   0  0  0  0  0  0  0  0  0  0  0  0
   -1.1762    0.2778    1.7167 H   0  0  0  0  0  0  0  0  0  0  0  0
    0.0786    0.4106    3.4439 C   0  0  0  0  0  0  0  0  0  0  0  0
    0.7319    1.2880    3.4029 H   0  0  0  0  0  0  0  0  0  0  0  0
   -0.8216    0.6715    4.0085 H   0  0  0  0  0  0  0  0  0  0  0  0
    0.5985   -0.3923    3.9774 H   0  0  0  0  0  0  0  0  0  0  0  0
  1  2  1  0  0  0  0
  2  3  1  0  0  0  0
  2  4  1  0  0  0  0
  2  5  1  0  0  0  0
  5  6  2  0  0  0  0
  5  7  1  0  0  0  0
  7  8  1  0  0  0  0
  7  9  1  0  0  0  0
  9 10  1  0  0  0  0
  9 11  1  0  0  0  0
  9 22  1  0  0  0  0
 11 12  1  0  0  0  0
 11 13  1  0  0  0  0
 11 14  1  0  0  0  0
 14 15  1  0  0  0  0
 14 16  1  0  0  0  0
 14 17  1  0  0  0  0
 17 18  2  0  0  0  0
 17 19  1  0  0  0  0
 19 20  1  0  0  0  0
 19 21  1  0  0  0  0
 22 23  2  0  0  0  0
 22 24  1  0  0  0  0
 24 25  1  0  0  0  0
 24 26  1  0  0  0  0
 26 27  1  0  0  0  0
 26 28  1  0  0  0  0
 26 29  1  0  0  0  0
M  END
$$$$

  -OEChem-02102214123D

 29 28  0     1  0  0  0  0  0999 V2000
   -2.6927   -4.2625    0.5173 H   0  0  0  0  0  0  0  0  0  0  0  0
   -2.6888   -3.2736    0.0501 C   0  0  0  0  0  0  0  0  0  0  0  0
   -3.3814   -2.6263    0.5933 H   0  0  0  0  0  0  0  0  0  0  0  0
   -3.0259   -3.3719   -0.9846 H   0  0  0  0  0  0  0  0  0  0  0  0
   -1.2906   -2.6855    0.0861 C   0  0  0  0  0  0  0  0  0  0  0  0
   -0.3692   -3.3390    0.5434 O   0  0  0  0  0  0  0  0  0  0  0  0
   -1.0700   -1.4119   -0.4020 N   0  0  0  0  0  0  0  0  0  0  0  0
   -1.8928   -0.8833   -0.6791 H   0  0  0  0  0  0  0  0  0  0  0  0
    0.2048   -0.6857   -0.2605 C   0  0  1  0  0  0  0  0  0  0  0  0
    0.9778   -1.3665   -0.6359 H   0  0  0  0  0  0  0  0  0  0  0  0
    0.2269    0.5158   -1.2486 C   0  0  0  0  0  0  0  0  0  0  0  0
    0.8593    0.2341   -2.0970 H   0  0  0  0  0  0  0  0  0  0  0  0
   -0.7824    0.6638   -1.6478 H   0  0  0  0  0  0  0  0  0  0  0  0
    0.7155    1.8861   -0.7328 C   0  0  0  0  0  0  0  0  0  0  0  0
    1.7546    1.7860   -0.4058 H   0  0  0  0  0  0  0  0  0  0  0  0
    0.6969    2.6070   -1.5544 H   0  0  0  0  0  0  0  0  0  0  0  0
   -0.1050    2.4585    0.4191 C   0  0  0  0  0  0  0  0  0  0  0  0
   -1.2979    2.2281    0.5376 O   0  0  0  0  0  0  0  0  0  0  0  0
    0.4633    3.2336    1.3882 N   0  0  0  0  0  0  0  0  0  0  0  0
   -0.1087    3.3951    2.2112 H   0  0  0  0  0  0  0  0  0  0  0  0
    1.4749    3.2149    1.4770 H   0  0  0  0  0  0  0  0  0  0  0  0
    0.6372   -0.4502    1.2091 C   0  0  0  0  0  0  0  0  0  0  0  0
    1.8294   -0.4188    1.4883 O   0  0  0  0  0  0  0  0  0  0  0  0
   -0.2692   -0.0144    2.1591 N   0  0  0  0  0  0  0  0  0  0  0  0
   -1.1932    0.2429    1.8170 H   0  0  0  0  0  0  0  0  0  0  0  0
    0.1050    0.3577    3.5173 C   0  0  0  0  0  0  0  0  0  0  0  0
    0.7939    1.2082    3.5084 H   0  0  0  0  0  0  0  0  0  0  0  0
   -0.7847    0.6358    4.0902 H   0  0  0  0  0  0  0  0  0  0  0  0
    0.5910   -0.4836    4.0226 H   0  0  0  0  0  0  0  0  0  0  0  0
  1  2  1  0  0  0  0
  2  3  1  0  0  0  0
  2  4  1  0  0  0  0
  2  5  1  0  0  0  0
  5  6  2  0  0  0  0
  5  7  1  0  0  0  0
  7  8  1  0  0  0  0
  7  9  1  0  0  0  0
  9 10  1  0  0  0  0
  9 11  1  0  0  0  0
  9 22  1  0  0  0  0
 11 12  1  0  0  0  0
 11 13  1  0  0  0  0
 11 14  1  0  0  0  0
 14 15  1  0  0  0  0
 14 16  1  0  0  0  0
 14 17  1  0  0  0  0
 17 18  2  0  0  0  0
 17 19  1  0  0  0  0
 19 20  1  0  0  0  0
 19 21  1  0  0  0  0
 22 23  2  0  0  0  0
 22 24  1  0  0  0  0
 24 25  1  0  0  0  0
 24 26  1  0  0  0  0
 26 27  1  0  0  0  0
 26 28  1  0  0  0  0
 26 29  1  0  0  0  0
M  END
$$$$

  -OEChem-02102214123D

 29 28  0     1  0  0  0  0  0999 V2000
   -2.5975   -4.3171    0.4738 H   0  0  0  0  0  0  0  0  0  0  0  0
   -2.6244   -3.3203    0.0243 C   0  0  0  0  0  0  0  0  0  0  0  0
   -3.3491   -2.7094    0.5678 H   0  0  0  0  0  0  0  0  0  0  0  0
   -2.9424   -3.4128   -1.0170 H   0  0  0  0  0  0  0  0  0  0  0  0
   -1.2502   -2.6812    0.0917 C   0  0  0  0  0  0  0  0  0  0  0  0
   -0.3123   -3.3069    0.5538 O   0  0  0  0  0  0  0  0  0  0  0  0
   -1.0698   -1.3924   -0.3726 N   0  0  0  0  0  0  0  0  0  0  0  0
   -1.9040   -0.8934   -0.6688 H   0  0  0  0  0  0  0  0  0  0  0  0
    0.1868   -0.6327   -0.2368 C   0  0  1  0  0  0  0  0  0  0  0  0
    0.9686   -1.3016   -0.6165 H   0  0  0  0  0  0  0  0  0  0  0  0
    0.1995    0.5572   -1.2426 C   0  0  0  0  0  0  0  0  0  0  0  0
    0.8181    0.2645   -2.0977 H   0  0  0  0  0  0  0  0  0  0  0  0
   -0.8201    0.6762   -1.6240 H   0  0  0  0  0  0  0  0  0  0  0  0
    0.6492    1.9690   -0.8004 C   0  0  0  0  0  0  0  0  0  0  0  0
    1.7395    1.9599   -0.7142 H   0  0  0  0  0  0  0  0  0  0  0  0
    0.3909    2.6903   -1.5806 H   0  0  0  0  0  0  0  0  0  0  0  0
    0.0881    2.4745    0.5210 C   0  0  0  0  0  0  0  0  0  0  0  0
   -1.1096    2.4402    0.7469 O   0  0  0  0  0  0  0  0  0  0  0  0
    0.8915    2.9557    1.5136 N   0  0  0  0  0  0  0  0  0  0  0  0
    0.4354    3.0603    2.4142 H   0  0  0  0  0  0  0  0  0  0  0  0
    1.8675    2.6731    1.4900 H   0  0  0  0  0  0  0  0  0  0  0  0
    0.6327   -0.4168    1.2311 C   0  0  0  0  0  0  0  0  0  0  0  0
    1.8277   -0.3434    1.4913 O   0  0  0  0  0  0  0  0  0  0  0  0
   -0.2717   -0.0287    2.2032 N   0  0  0  0  0  0  0  0  0  0  0  0
   -1.2219    0.1640    1.8964 H   0  0  0  0  0  0  0  0  0  0  0  0
    0.0934    0.2484    3.5863 C   0  0  0  0  0  0  0  0  0  0  0  0
    0.8394    1.0475    3.6393 H   0  0  0  0  0  0  0  0  0  0  0  0
   -0.7891    0.5612    4.1525 H   0  0  0  0  0  0  0  0  0  0  0  0
    0.5063   -0.6501    4.0571 H   0  0  0  0  0  0  0  0  0  0  0  0
  1  2  1  0  0  0  0
  2  3  1  0  0  0  0
  2  4  1  0  0  0  0
  2  5  1  0  0  0  0
  5  6  2  0  0  0  0
  5  7  1  0  0  0  0
  7  8  1  0  0  0  0
  7  9  1  0  0  0  0
  9 10  1  0  0  0  0
  9 11  1  0  0  0  0
  9 22  1  0  0  0  0
 11 12  1  0  0  0  0
 11 13  1  0  0  0  0
 11 14  1  0  0  0  0
 14 15  1  0  0  0  0
 14 16  1  0  0  0  0
 14 17  1  0  0  0  0
 17 18  2  0  0  0  0
 17 19  1  0  0  0  0
 19 20  1  0  0  0  0
 19 21  1  0  0  0  0
 22 23  2  0  0  0  0
 22 24  1  0  0  0  0
 24 25  1  0  0  0  0
 24 26  1  0  0  0  0
 26 27  1  0  0  0  0
 26 28  1  0  0  0  0
 26 29  1  0  0  0  0
M  END
$$$$

  -OEChem-02102214123D

 29 28  0     1  0  0  0  0  0999 V2000
   -2.8845   -4.1611    0.4394 H   0  0  0  0  0  0  0  0  0  0  0  0
   -2.8049   -3.1829   -0.0437 C   0  0  0  0  0  0  0  0  0  0  0  0
   -3.5376   -2.5088    0.4062 H   0  0  0  0  0  0  0  0  0  0  0  0
   -3.0279   -3.2972   -1.1073 H   0  0  0  0  0  0  0  0  0  0  0  0
   -1.4051   -2.6256    0.1348 C   0  0  0  0  0  0  0  0  0  0  0  0
   -0.5548   -3.2901    0.7000 O   0  0  0  0  0  0  0  0  0  0  0  0
   -1.0992   -1.3699   -0.3548 N   0  0  0  0  0  0  0  0  0  0  0  0
   -1.8617   -0.8434   -0.7709 H   0  0  0  0  0  0  0  0  0  0  0  0
    0.1987   -0.6960   -0.1578 C   0  0  1  0  0  0  0  0  0  0  0  0
    0.9548   -1.4294   -0.4630 H   0  0  0  0  0  0  0  0  0  0  0  0
    0.3539    0.4535   -1.2020 C   0  0  0  0  0  0  0  0  0  0  0  0
    0.9795    0.0757   -2.0177 H   0  0  0  0  0  0  0  0  0  0  0  0
   -0.6388    0.6201   -1.6327 H   0  0  0  0  0  0  0  0  0  0  0  0
    0.8677    1.8721   -0.8397 C   0  0  0  0  0  0  0  0  0  0  0  0
    1.9546    1.8635   -0.9604 H   0  0  0  0  0  0  0  0  0  0  0  0
    0.4746    2.5871   -1.5681 H   0  0  0  0  0  0  0  0  0  0  0  0
    0.5911    2.4207    0.5522 C   0  0  0  0  0  0  0  0  0  0  0  0
   -0.5371    2.7509    0.8718 O   0  0  0  0  0  0  0  0  0  0  0  0
    1.5731    2.5857    1.4851 N   0  0  0  0  0  0  0  0  0  0  0  0
    2.3788    1.9700    1.3980 H   0  0  0  0  0  0  0  0  0  0  0  0
    1.2264    2.7843    2.4178 H   0  0  0  0  0  0  0  0  0  0  0  0
    0.5547   -0.4639    1.3304 C   0  0  0  0  0  0  0  0  0  0  0  0
    1.7307   -0.4855    1.6762 O   0  0  0  0  0  0  0  0  0  0  0  0
   -0.3878    0.0199    2.2199 N   0  0  0  0  0  0  0  0  0  0  0  0
   -1.3061    0.2410    1.8463 H   0  0  0  0  0  0  0  0  0  0  0  0
   -0.1061    0.3198    3.6176 C   0  0  0  0  0  0  0  0  0  0  0  0
    0.6780    1.0782    3.7027 H   0  0  0  0  0  0  0  0  0  0  0  0
   -1.0068    0.6993    4.1095 H   0  0  0  0  0  0  0  0  0  0  0  0
    0.2203   -0.5844    4.1421 H   0  0  0  0  0  0  0  0  0  0  0  0
  1  2  1  0  0  0  0
  2  3  1  0  0  0  0
  2  4  1  0  0  0  0
  2  5  1  0  0  0  0
  5  6  2  0  0  0  0
  5  7  1  0  0  0  0
  7  8  1  0  0  0  0
  7  9  1  0  0  0  0
  9 10  1  0  0  0  0
  9 11  1  0  0  0  0
  9 22  1  0  0  0  0
 11 12  1  0  0  0  0
 11 13  1  0  0  0  0
 11 14  1  0  0  0  0
 14 15  1  0  0  0  0
 14 16  1  0  0  0  0
 14 17  1  0  0  0  0
 17 18  2  0  0  0  0
 17 19  1  0  0  0  0
 19 20  1  0  0  0  0
 19 21  1  0  0  0  0
 22 23  2  0  0  0  0
 22 24  1  0  0  0  0
 24 25  1  0  0  0  0
 24 26  1  0  0  0  0
 26 27  1  0  0  0  0
 26 28  1  0  0  0  0
 26 29  1  0  0  0  0
M  END
$$$$

  -OEChem-02102214123D

 29 28  0     1  0  0  0  0  0999 V2000
   -3.0787   -3.9671    0.2256 H   0  0  0  0  0  0  0  0  0  0  0  0
   -2.9295   -2.9695   -0.1978 C   0  0  0  0  0  0  0  0  0  0  0  0
   -3.6670   -2.2902    0.2363 H   0  0  0  0  0  0  0  0  0  0  0  0
   -3.0814   -3.0215   -1.2786 H   0  0  0  0  0  0  0  0  0  0  0  0
   -1.5267   -2.4786    0.1068 C   0  0  0  0  0  0  0  0  0  0  0  0
   -0.7621   -3.1876    0.7335 O   0  0  0  0  0  0  0  0  0  0  0  0
   -1.1345   -1.2220   -0.3172 N   0  0  0  0  0  0  0  0  0  0  0  0
   -1.7932   -0.7289   -0.9123 H   0  0  0  0  0  0  0  0  0  0  0  0
    0.2461   -0.6988   -0.2198 C   0  0  1  0  0  0  0  0  0  0  0  0
    0.8954   -1.4521   -0.6822 H   0  0  0  0  0  0  0  0  0  0  0  0
    0.3690    0.5593   -1.1402 C   0  0  0  0  0  0  0  0  0  0  0  0
    0.8456    0.2219   -2.0671 H   0  0  0  0  0  0  0  0  0  0  0  0
   -0.6510    0.8453   -1.4156 H   0  0  0  0  0  0  0  0  0  0  0  0
    1.0545    1.9039   -0.7497 C   0  0  0  0  0  0  0  0  0  0  0  0
    2.0100    1.9295   -1.2834 H   0  0  0  0  0  0  0  0  0  0  0  0
    0.4537    2.7236   -1.1535 H   0  0  0  0  0  0  0  0  0  0  0  0
    1.3879    2.2585    0.6958 C   0  0  0  0  0  0  0  0  0  0  0  0
    2.5312    2.4452    1.0606 O   0  0  0  0  0  0  0  0  0  0  0  0
    0.4294    2.7261    1.5488 N   0  0  0  0  0  0  0  0  0  0  0  0
    0.7550    2.8690    2.5004 H   0  0  0  0  0  0  0  0  0  0  0  0
   -0.5278    2.4393    1.3886 H   0  0  0  0  0  0  0  0  0  0  0  0
    0.7617   -0.6428    1.2363 C   0  0  0  0  0  0  0  0  0  0  0  0
    1.9409   -0.8651    1.4646 O   0  0  0  0  0  0  0  0  0  0  0  0
   -0.0470   -0.1496    2.2457 N   0  0  0  0  0  0  0  0  0  0  0  0
   -1.0436   -0.1983    2.0639 H   0  0  0  0  0  0  0  0  0  0  0  0
    0.3987   -0.1062    3.6337 C   0  0  0  0  0  0  0  0  0  0  0  0
    1.3111    0.4932    3.7251 H   0  0  0  0  0  0  0  0  0  0  0  0
   -0.3722    0.3441    4.2660 H   0  0  0  0  0  0  0  0  0  0  0  0
    0.6049   -1.1172    4.0010 H   0  0  0  0  0  0  0  0  0  0  0  0
  1  2  1  0  0  0  0
  2  3  1  0  0  0  0
  2  4  1  0  0  0  0
  2  5  1  0  0  0  0
  5  6  2  0  0  0  0
  5  7  1  0  0  0  0
  7  8  1  0  0  0  0
  7  9  1  0  0  0  0
  9 10  1  0  0  0  0
  9 11  1  0  0  0  0
  9 22  1  0  0  0  0
 11 12  1  0  0  0  0
 11 13  1  0  0  0  0
 11 14  1  0  0  0  0
 14 15  1  0  0  0  0
 14 16  1  0  0  0  0
 14 17  1  0  0  0  0
 17 18  2  0  0  0  0
 17 19  1  0  0  0  0
 19 20  1  0  0  0  0
 19 21  1  0  0  0  0
 22 23  2  0  0  0  0
 22 24  1  0  0  0  0
 24 25  1  0  0  0  0
 24 26  1  0  0  0  0
 26 27  1  0  0  0  0
 26 28  1  0  0  0  0
 26 29  1  0  0  0  0
M  END
$$$$

  -OEChem-02102214123D

 29 28  0     1  0  0  0  0  0999 V2000
   -3.1810   -3.8544    0.3917 H   0  0  0  0  0  0  0  0  0  0  0  0
   -2.9965   -2.8958   -0.1018 C   0  0  0  0  0  0  0  0  0  0  0  0
   -3.7109   -2.1625    0.2795 H   0  0  0  0  0  0  0  0  0  0  0  0
   -3.1489   -3.0201   -1.1765 H   0  0  0  0  0  0  0  0  0  0  0  0
   -1.5774   -2.4333    0.1708 C   0  0  0  0  0  0  0  0  0  0  0  0
   -0.8289   -3.1368    0.8225 O   0  0  0  0  0  0  0  0  0  0  0  0
   -1.1529   -1.2097   -0.3158 N   0  0  0  0  0  0  0  0  0  0  0  0
   -1.8028   -0.7337   -0.9344 H   0  0  0  0  0  0  0  0  0  0  0  0
    0.2448   -0.7211   -0.2710 C   0  0  1  0  0  0  0  0  0  0  0  0
    0.8851   -1.4805   -0.7357 H   0  0  0  0  0  0  0  0  0  0  0  0
    0.3277    0.5501   -1.1778 C   0  0  0  0  0  0  0  0  0  0  0  0
    0.7723    0.2074   -2.1189 H   0  0  0  0  0  0  0  0  0  0  0  0
   -0.6978    0.8437   -1.4245 H   0  0  0  0  0  0  0  0  0  0  0  0
    1.0481    1.8890   -0.8250 C   0  0  0  0  0  0  0  0  0  0  0  0
    1.7786    2.0745   -1.6190 H   0  0  0  0  0  0  0  0  0  0  0  0
    0.3066    2.6891   -0.9002 H   0  0  0  0  0  0  0  0  0  0  0  0
    1.7861    2.1229    0.4913 C   0  0  0  0  0  0  0  0  0  0  0  0
    2.9897    2.2889    0.5007 O   0  0  0  0  0  0  0  0  0  0  0  0
    1.1504    2.5266    1.6286 N   0  0  0  0  0  0  0  0  0  0  0  0
    1.7794    2.6024    2.4229 H   0  0  0  0  0  0  0  0  0  0  0  0
    0.2271    2.1396    1.7871 H   0  0  0  0  0  0  0  0  0  0  0  0
    0.7378   -0.6349    1.1917 C   0  0  0  0  0  0  0  0  0  0  0  0
    1.9028   -0.8831    1.4611 O   0  0  0  0  0  0  0  0  0  0  0  0
   -0.0828   -0.0828    2.1626 N   0  0  0  0  0  0  0  0  0  0  0  0
   -1.0728   -0.1109    1.9395 H   0  0  0  0  0  0  0  0  0  0  0  0
    0.2945   -0.0997    3.5725 C   0  0  0  0  0  0  0  0  0  0  0  0
    1.2526    0.4093    3.7232 H   0  0  0  0  0  0  0  0  0  0  0  0
   -0.4632    0.4113    4.1740 H   0  0  0  0  0  0  0  0  0  0  0  0
    0.3872   -1.1306    3.9304 H   0  0  0  0  0  0  0  0  0  0  0  0
  1  2  1  0  0  0  0
  2  3  1  0  0  0  0
  2  4  1  0  0  0  0
  2  5  1  0  0  0  0
  5  6  2  0  0  0  0
  5  7  1  0  0  0  0
  7  8  1  0  0  0  0
  7  9  1  0  0  0  0
  9 10  1  0  0  0  0
  9 11  1  0  0  0  0
  9 22  1  0  0  0  0
 11 12  1  0  0  0  0
 11 13  1  0  0  0  0
 11 14  1  0  0  0  0
 14 15  1  0  0  0  0
 14 16  1  0  0  0  0
 14 17  1  0  0  0  0
 17 18  2  0  0  0  0
 17 19  1  0  0  0  0
 19 20  1  0  0  0  0
 19 21  1  0  0  0  0
 22 23  2  0  0  0  0
 22 24  1  0  0  0  0
 24 25  1  0  0  0  0
 24 26  1  0  0  0  0
 26 27  1  0  0  0  0
 26 28  1  0  0  0  0
 26 29  1  0  0  0  0
M  END
$$$$

  -OEChem-02102214123D

 29 28  0     1  0  0  0  0  0999 V2000
   -2.5808   -4.3293    0.5834 H   0  0  0  0  0  0  0  0  0  0  0  0
   -2.5650   -3.3584    0.0798 C   0  0  0  0  0  0  0  0  0  0  0  0
   -3.3349   -2.7219    0.5223 H   0  0  0  0  0  0  0  0  0  0  0  0
   -2.7875   -3.5084   -0.9793 H   0  0  0  0  0  0  0  0  0  0  0  0
   -1.2015   -2.7122    0.2372 C   0  0  0  0  0  0  0  0  0  0  0  0
   -0.3174   -3.3012    0.8318 O   0  0  0  0  0  0  0  0  0  0  0  0
   -0.9644   -1.4673   -0.3158 N   0  0  0  0  0  0  0  0  0  0  0  0
   -1.7458   -1.0217   -0.7867 H   0  0  0  0  0  0  0  0  0  0  0  0
    0.2878   -0.7048   -0.1338 C   0  0  1  0  0  0  0  0  0  0  0  0
    1.1157   -1.3561   -0.4384 H   0  0  0  0  0  0  0  0  0  0  0  0
    0.2492    0.4739   -1.1602 C   0  0  0  0  0  0  0  0  0  0  0  0
    0.9180    0.1673   -1.9719 H   0  0  0  0  0  0  0  0  0  0  0  0
   -0.7513    0.5203   -1.6027 H   0  0  0  0  0  0  0  0  0  0  0  0
    0.6282    1.9475   -0.8275 C   0  0  0  0  0  0  0  0  0  0  0  0
    1.1995    2.3492   -1.6693 H   0  0  0  0  0  0  0  0  0  0  0  0
   -0.3058    2.5166   -0.7862 H   0  0  0  0  0  0  0  0  0  0  0  0
    1.3929    2.3024    0.4434 C   0  0  0  0  0  0  0  0  0  0  0  0
    0.8805    2.9983    1.3001 O   0  0  0  0  0  0  0  0  0  0  0  0
    2.7149    2.0080    0.6072 N   0  0  0  0  0  0  0  0  0  0  0  0
    3.0588    1.1950    0.1070 H   0  0  0  0  0  0  0  0  0  0  0  0
    3.0371    2.1378    1.5624 H   0  0  0  0  0  0  0  0  0  0  0  0
    0.5653   -0.3914    1.3548 C   0  0  0  0  0  0  0  0  0  0  0  0
    1.7078   -0.4923    1.7841 O   0  0  0  0  0  0  0  0  0  0  0  0
   -0.4402    0.0722    2.1830 N   0  0  0  0  0  0  0  0  0  0  0  0
   -1.3511    0.2321    1.7683 H   0  0  0  0  0  0  0  0  0  0  0  0
   -0.2021    0.5105    3.5523 C   0  0  0  0  0  0  0  0  0  0  0  0
    0.4870    1.3614    3.5682 H   0  0  0  0  0  0  0  0  0  0  0  0
   -1.1419    0.8182    4.0201 H   0  0  0  0  0  0  0  0  0  0  0  0
    0.2284   -0.3036    4.1447 H   0  0  0  0  0  0  0  0  0  0  0  0
  1  2  1  0  0  0  0
  2  3  1  0  0  0  0
  2  4  1  0  0  0  0
  2  5  1  0  0  0  0
  5  6  2  0  0  0  0
  5  7  1  0  0  0  0
  7  8  1  0  0  0  0
  7  9  1  0  0  0  0
  9 10  1  0  0  0  0
  9 11  1  0  0  0  0
  9 22  1  0  0  0  0
 11 12  1  0  0  0  0
 11 13  1  0  0  0  0
 11 14  1  0  0  0  0
 14 15  1  0  0  0  0
 14 16  1  0  0  0  0
 14 17  1  0  0  0  0
 17 18  2  0  0  0  0
 17 19  1  0  0  0  0
 19 20  1  0  0  0  0
 19 21  1  0  0  0  0
 22 23  2  0  0  0  0
 22 24  1  0  0  0  0
 24 25  1  0  0  0  0
 24 26  1  0  0  0  0
 26 27  1  0  0  0  0
 26 28  1  0  0  0  0
 26 29  1  0  0  0  0
M  END
$$$$

  -OEChem-02102214123D

 29 28  0     1  0  0  0  0  0999 V2000
   -2.8838   -4.0417    0.7212 H   0  0  0  0  0  0  0  0  0  0  0  0
   -2.7765   -3.1116    0.1556 C   0  0  0  0  0  0  0  0  0  0  0  0
   -3.5471   -2.4101    0.4835 H   0  0  0  0  0  0  0  0  0  0  0  0
   -2.9172   -3.3292   -0.9059 H   0  0  0  0  0  0  0  0  0  0  0  0
   -1.4000   -2.5169    0.3867 C   0  0  0  0  0  0  0  0  0  0  0  0
   -0.6322   -3.0597    1.1587 O   0  0  0  0  0  0  0  0  0  0  0  0
   -1.0396   -1.3582   -0.2777 N   0  0  0  0  0  0  0  0  0  0  0  0
   -1.6931   -1.0387   -0.9863 H   0  0  0  0  0  0  0  0  0  0  0  0
    0.3196   -0.7697   -0.2744 C   0  0  1  0  0  0  0  0  0  0  0  0
    1.0442   -1.5036   -0.6462 H   0  0  0  0  0  0  0  0  0  0  0  0
    0.2521    0.4263   -1.2799 C   0  0  0  0  0  0  0  0  0  0  0  0
    0.7535    0.0639   -2.1842 H   0  0  0  0  0  0  0  0  0  0  0  0
   -0.7902    0.6077   -1.5615 H   0  0  0  0  0  0  0  0  0  0  0  0
    0.8591    1.8283   -0.9937 C   0  0  0  0  0  0  0  0  0  0  0  0
    1.0897    2.3077   -1.9498 H   0  0  0  0  0  0  0  0  0  0  0  0
    0.0811    2.4321   -0.5186 H   0  0  0  0  0  0  0  0  0  0  0  0
    2.0948    1.9450   -0.1052 C   0  0  0  0  0  0  0  0  0  0  0  0
    3.2027    1.8123   -0.5863 O   0  0  0  0  0  0  0  0  0  0  0  0
    2.0462    2.3817    1.1872 N   0  0  0  0  0  0  0  0  0  0  0  0
    2.9230    2.2376    1.6811 H   0  0  0  0  0  0  0  0  0  0  0  0
    1.1861    2.1888    1.6895 H   0  0  0  0  0  0  0  0  0  0  0  0
    0.7395   -0.4227    1.1745 C   0  0  0  0  0  0  0  0  0  0  0  0
    1.8782   -0.6336    1.5652 O   0  0  0  0  0  0  0  0  0  0  0  0
   -0.1544    0.2165    2.0185 N   0  0  0  0  0  0  0  0  0  0  0  0
   -1.1234    0.1784    1.7177 H   0  0  0  0  0  0  0  0  0  0  0  0
    0.1089    0.3654    3.4457 C   0  0  0  0  0  0  0  0  0  0  0  0
    1.0318    0.9305    3.6130 H   0  0  0  0  0  0  0  0  0  0  0  0
   -0.7139    0.9011    3.9285 H   0  0  0  0  0  0  0  0  0  0  0  0
    0.2096   -0.6174    3.9188 H   0  0  0  0  0  0  0  0  0  0  0  0
  1  2  1  0  0  0  0
  2  3  1  0  0  0  0
  2  4  1  0  0  0  0
  2  5  1  0  0  0  0
  5  6  2  0  0  0  0
  5  7  1  0  0  0  0
  7  8  1  0  0  0  0
  7  9  1  0  0  0  0
  9 10  1  0  0  0  0
  9 11  1  0  0  0  0
  9 22  1  0  0  0  0
 11 12  1  0  0  0  0
 11 13  1  0  0  0  0
 11 14  1  0  0  0  0
 14 15  1  0  0  0  0
 14 16  1  0  0  0  0
 14 17  1  0  0  0  0
 17 18  2  0  0  0  0
 17 19  1  0  0  0  0
 19 20  1  0  0  0  0
 19 21  1  0  0  0  0
 22 23  2  0  0  0  0
 22 24  1  0  0  0  0
 24 25  1  0  0  0  0
 24 26  1  0  0  0  0
 26 27  1  0  0  0  0
 26 28  1  0  0  0  0
 26 29  1  0  0  0  0
M  END
$$$$

  -OEChem-02102214123D

 29 28  0     1  0  0  0  0  0999 V2000
   -2.7845   -4.0989    0.7034 H   0  0  0  0  0  0  0  0  0  0  0  0
   -2.7039   -3.1734    0.1257 C   0  0  0  0  0  0  0  0  0  0  0  0
   -3.5056   -2.4972    0.4321 H   0  0  0  0  0  0  0  0  0  0  0  0
   -2.8206   -3.4117   -0.9344 H   0  0  0  0  0  0  0  0  0  0  0  0
   -1.3541   -2.5238    0.3681 C   0  0  0  0  0  0  0  0  0  0  0  0
   -0.5806   -3.0250    1.1623 O   0  0  0  0  0  0  0  0  0  0  0  0
   -1.0251   -1.3637   -0.3101 N   0  0  0  0  0  0  0  0  0  0  0  0
   -1.6732   -1.0861   -1.0410 H   0  0  0  0  0  0  0  0  0  0  0  0
    0.3144   -0.7326   -0.3006 C   0  0  1  0  0  0  0  0  0  0  0  0
    1.0678   -1.4393   -0.6677 H   0  0  0  0  0  0  0  0  0  0  0  0
    0.2102    0.4682   -1.2943 C   0  0  0  0  0  0  0  0  0  0  0  0
    0.7113    0.1440   -2.2134 H   0  0  0  0  0  0  0  0  0  0  0  0
   -0.8390    0.6391   -1.5563 H   0  0  0  0  0  0  0  0  0  0  0  0
    0.7913    1.8598   -0.9382 C   0  0  0  0  0  0  0  0  0  0  0  0
    0.8049    2.4804   -1.8388 H   0  0  0  0  0  0  0  0  0  0  0  0
    0.1169    2.3420   -0.2253 H   0  0  0  0  0  0  0  0  0  0  0  0
    2.1927    1.8771   -0.3334 C   0  0  0  0  0  0  0  0  0  0  0  0
    3.1545    1.5921   -1.0201 O   0  0  0  0  0  0  0  0  0  0  0  0
    2.4537    2.3171    0.9320 N   0  0  0  0  0  0  0  0  0  0  0  0
    3.3884    2.0712    1.2469 H   0  0  0  0  0  0  0  0  0  0  0  0
    1.6960    2.2216    1.5995 H   0  0  0  0  0  0  0  0  0  0  0  0
    0.7127   -0.3489    1.1470 C   0  0  0  0  0  0  0  0  0  0  0  0
    1.8522   -0.5213    1.5550 O   0  0  0  0  0  0  0  0  0  0  0  0
   -0.2060    0.2755    1.9735 N   0  0  0  0  0  0  0  0  0  0  0  0
   -1.1706    0.2171    1.6629 H   0  0  0  0  0  0  0  0  0  0  0  0
    0.0428    0.4798    3.3957 C   0  0  0  0  0  0  0  0  0  0  0  0
    0.9392    1.0899    3.5482 H   0  0  0  0  0  0  0  0  0  0  0  0
   -0.8052    0.9939    3.8578 H   0  0  0  0  0  0  0  0  0  0  0  0
    0.1829   -0.4823    3.9002 H   0  0  0  0  0  0  0  0  0  0  0  0
  1  2  1  0  0  0  0
  2  3  1  0  0  0  0
  2  4  1  0  0  0  0
  2  5  1  0  0  0  0
  5  6  2  0  0  0  0
  5  7  1  0  0  0  0
  7  8  1  0  0  0  0
  7  9  1  0  0  0  0
  9 10  1  0  0  0  0
  9 11  1  0  0  0  0
  9 22  1  0  0  0  0
 11 12  1  0  0  0  0
 11 13  1  0  0  0  0
 11 14  1  0  0  0  0
 14 15  1  0  0  0  0
 14 16  1  0  0  0  0
 14 17  1  0  0  0  0
 17 18  2  0  0  0  0
 17 19  1  0  0  0  0
 19 20  1  0  0  0  0
 19 21  1  0  0  0  0
 22 23  2  0  0  0  0
 22 24  1  0  0  0  0
 24 25  1  0  0  0  0
 24 26  1  0  0  0  0
 26 27  1  0  0  0  0
 26 28  1  0  0  0  0
 26 29  1  0  0  0  0
M  END
$$$$

  -OEChem-02102214123D

 29 28  0     1  0  0  0  0  0999 V2000
   -2.6587   -4.1666    0.7242 H   0  0  0  0  0  0  0  0  0  0  0  0
   -2.6081   -3.2577    0.1174 C   0  0  0  0  0  0  0  0  0  0  0  0
   -3.4410   -2.6058    0.3916 H   0  0  0  0  0  0  0  0  0  0  0  0
   -2.7004   -3.5347   -0.9356 H   0  0  0  0  0  0  0  0  0  0  0  0
   -1.2894   -2.5453    0.3542 C   0  0  0  0  0  0  0  0  0  0  0  0
   -0.4841   -3.0141    1.1369 O   0  0  0  0  0  0  0  0  0  0  0  0
   -1.0176   -1.3699   -0.3230 N   0  0  0  0  0  0  0  0  0  0  0  0
   -1.6851   -1.1137   -1.0443 H   0  0  0  0  0  0  0  0  0  0  0  0
    0.2910   -0.6778   -0.3142 C   0  0  1  0  0  0  0  0  0  0  0  0
    1.0738   -1.3503   -0.6836 H   0  0  0  0  0  0  0  0  0  0  0  0
    0.1494    0.5281   -1.2928 C   0  0  0  0  0  0  0  0  0  0  0  0
    0.6415    0.2430   -2.2297 H   0  0  0  0  0  0  0  0  0  0  0  0
   -0.9092    0.6778   -1.5281 H   0  0  0  0  0  0  0  0  0  0  0  0
    0.6920    1.9184   -0.8850 C   0  0  0  0  0  0  0  0  0  0  0  0
    0.4819    2.6290   -1.6897 H   0  0  0  0  0  0  0  0  0  0  0  0
    0.1622    2.2747    0.0023 H   0  0  0  0  0  0  0  0  0  0  0  0
    2.1954    1.9607   -0.6093 C   0  0  0  0  0  0  0  0  0  0  0  0
    2.9818    1.9235   -1.5362 O   0  0  0  0  0  0  0  0  0  0  0  0
    2.7397    2.1745    0.6223 N   0  0  0  0  0  0  0  0  0  0  0  0
    3.7485    2.0595    0.6266 H   0  0  0  0  0  0  0  0  0  0  0  0
    2.2296    1.7484    1.3939 H   0  0  0  0  0  0  0  0  0  0  0  0
    0.6723   -0.2792    1.1350 C   0  0  0  0  0  0  0  0  0  0  0  0
    1.8294   -0.3489    1.5242 O   0  0  0  0  0  0  0  0  0  0  0  0
   -0.2713    0.2994    1.9659 N   0  0  0  0  0  0  0  0  0  0  0  0
   -1.2366    0.1961    1.6695 H   0  0  0  0  0  0  0  0  0  0  0  0
   -0.0075    0.5943    3.3694 C   0  0  0  0  0  0  0  0  0  0  0  0
    0.8299    1.2933    3.4662 H   0  0  0  0  0  0  0  0  0  0  0  0
   -0.8886    1.0489    3.8323 H   0  0  0  0  0  0  0  0  0  0  0  0
    0.2360   -0.3248    3.9133 H   0  0  0  0  0  0  0  0  0  0  0  0
  1  2  1  0  0  0  0
  2  3  1  0  0  0  0
  2  4  1  0  0  0  0
  2  5  1  0  0  0  0
  5  6  2  0  0  0  0
  5  7  1  0  0  0  0
  7  8  1  0  0  0  0
  7  9  1  0  0  0  0
  9 10  1  0  0  0  0
  9 11  1  0  0  0  0
  9 22  1  0  0  0  0
 11 12  1  0  0  0  0
 11 13  1  0  0  0  0
 11 14  1  0  0  0  0
 14 15  1  0  0  0  0
 14 16  1  0  0  0  0
 14 17  1  0  0  0  0
 17 18  2  0  0  0  0
 17 19  1  0  0  0  0
 19 20  1  0  0  0  0
 19 21  1  0  0  0  0
 22 23  2  0  0  0  0
 22 24  1  0  0  0  0
 24 25  1  0  0  0  0
 24 26  1  0  0  0  0
 26 27  1  0  0  0  0
 26 28  1  0  0  0  0
 26 29  1  0  0  0  0
M  END
$$$$

  -OEChem-02102214123D

 29 28  0     1  0  0  0  0  0999 V2000
   -2.5334   -4.2372    0.6789 H   0  0  0  0  0  0  0  0  0  0  0  0
   -2.5217   -3.3206    0.0819 C   0  0  0  0  0  0  0  0  0  0  0  0
   -3.3792   -2.7061    0.3658 H   0  0  0  0  0  0  0  0  0  0  0  0
   -2.6062   -3.5897   -0.9738 H   0  0  0  0  0  0  0  0  0  0  0  0
   -1.2317   -2.5588    0.3221 C   0  0  0  0  0  0  0  0  0  0  0  0
   -0.3966   -3.0112    1.0834 O   0  0  0  0  0  0  0  0  0  0  0  0
   -1.0137   -1.3594   -0.3310 N   0  0  0  0  0  0  0  0  0  0  0  0
   -1.7020   -1.1050   -1.0333 H   0  0  0  0  0  0  0  0  0  0  0  0
    0.2627   -0.6123   -0.3060 C   0  0  1  0  0  0  0  0  0  0  0  0
    1.0679   -1.2575   -0.6760 H   0  0  0  0  0  0  0  0  0  0  0  0
    0.1083    0.5919   -1.2830 C   0  0  0  0  0  0  0  0  0  0  0  0
    0.6066    0.3326   -2.2242 H   0  0  0  0  0  0  0  0  0  0  0  0
   -0.9538    0.7168   -1.5168 H   0  0  0  0  0  0  0  0  0  0  0  0
    0.6058    1.9853   -0.8338 C   0  0  0  0  0  0  0  0  0  0  0  0
    0.2001    2.7377   -1.5164 H   0  0  0  0  0  0  0  0  0  0  0  0
    0.2395    2.2365    0.1642 H   0  0  0  0  0  0  0  0  0  0  0  0
    2.1289    2.1107   -0.8730 C   0  0  0  0  0  0  0  0  0  0  0  0
    2.6990    2.3016   -1.9306 O   0  0  0  0  0  0  0  0  0  0  0  0
    2.9285    2.0582    0.2294 N   0  0  0  0  0  0  0  0  0  0  0  0
    3.9179    1.9869    0.0147 H   0  0  0  0  0  0  0  0  0  0  0  0
    2.5739    1.5052    1.0121 H   0  0  0  0  0  0  0  0  0  0  0  0
    0.6400   -0.2198    1.1463 C   0  0  0  0  0  0  0  0  0  0  0  0
    1.8111   -0.1892    1.5000 O   0  0  0  0  0  0  0  0  0  0  0  0
   -0.3208    0.3045    1.9930 N   0  0  0  0  0  0  0  0  0  0  0  0
   -1.2852    0.1478    1.7180 H   0  0  0  0  0  0  0  0  0  0  0  0
   -0.0422    0.6694    3.3768 C   0  0  0  0  0  0  0  0  0  0  0  0
    0.7391    1.4354    3.4228 H   0  0  0  0  0  0  0  0  0  0  0  0
   -0.9433    1.0705    3.8506 H   0  0  0  0  0  0  0  0  0  0  0  0
    0.2889   -0.2070    3.9441 H   0  0  0  0  0  0  0  0  0  0  0  0
  1  2  1  0  0  0  0
  2  3  1  0  0  0  0
  2  4  1  0  0  0  0
  2  5  1  0  0  0  0
  5  6  2  0  0  0  0
  5  7  1  0  0  0  0
  7  8  1  0  0  0  0
  7  9  1  0  0  0  0
  9 10  1  0  0  0  0
  9 11  1  0  0  0  0
  9 22  1  0  0  0  0
 11 12  1  0  0  0  0
 11 13  1  0  0  0  0
 11 14  1  0  0  0  0
 14 15  1  0  0  0  0
 14 16  1  0  0  0  0
 14 17  1  0  0  0  0
 17 18  2  0  0  0  0
 17 19  1  0  0  0  0
 19 20  1  0  0  0  0
 19 21  1  0  0  0  0
 22 23  2  0  0  0  0
 22 24  1  0  0  0  0
 24 25  1  0  0  0  0
 24 26  1  0  0  0  0
 26 27  1  0  0  0  0
 26 28  1  0  0  0  0
 26 29  1  0  0  0  0
M  END
$$$$

  -OEChem-02102214123D

 29 28  0     1  0  0  0  0  0999 V2000
   -2.4231   -4.3098    0.6019 H   0  0  0  0  0  0  0  0  0  0  0  0
   -2.4434   -3.3875    0.0138 C   0  0  0  0  0  0  0  0  0  0  0  0
   -3.3287   -2.8119    0.2943 H   0  0  0  0  0  0  0  0  0  0  0  0
   -2.5055   -3.6483   -1.0454 H   0  0  0  0  0  0  0  0  0  0  0  0
   -1.1891   -2.5750    0.2748 C   0  0  0  0  0  0  0  0  0  0  0  0
   -0.3327   -3.0073    1.0244 O   0  0  0  0  0  0  0  0  0  0  0  0
   -1.0282   -1.3463   -0.3382 N   0  0  0  0  0  0  0  0  0  0  0  0
   -1.7323   -1.0929   -1.0251 H   0  0  0  0  0  0  0  0  0  0  0  0
    0.2132   -0.5468   -0.2830 C   0  0  1  0  0  0  0  0  0  0  0  0
    1.0333   -1.1740   -0.6516 H   0  0  0  0  0  0  0  0  0  0  0  0
    0.0744    0.6499   -1.2691 C   0  0  0  0  0  0  0  0  0  0  0  0
    0.6049    0.4055   -2.1969 H   0  0  0  0  0  0  0  0  0  0  0  0
   -0.9827    0.7497   -1.5356 H   0  0  0  0  0  0  0  0  0  0  0  0
    0.5198    2.0487   -0.7807 C   0  0  0  0  0  0  0  0  0  0  0  0
   -0.0535    2.8031   -1.3275 H   0  0  0  0  0  0  0  0  0  0  0  0
    0.3163    2.2183    0.2779 H   0  0  0  0  0  0  0  0  0  0  0  0
    1.9920    2.3020   -1.0880 C   0  0  0  0  0  0  0  0  0  0  0  0
    2.3431    2.7057   -2.1807 O   0  0  0  0  0  0  0  0  0  0  0  0
    2.9827    2.0253   -0.1926 N   0  0  0  0  0  0  0  0  0  0  0  0
    3.9224    2.0057   -0.5748 H   0  0  0  0  0  0  0  0  0  0  0  0
    2.7502    1.4039    0.5864 H   0  0  0  0  0  0  0  0  0  0  0  0
    0.6101   -0.1650    1.1649 C   0  0  0  0  0  0  0  0  0  0  0  0
    1.7923   -0.0187    1.4519 O   0  0  0  0  0  0  0  0  0  0  0  0
   -0.3498    0.3034    2.0442 N   0  0  0  0  0  0  0  0  0  0  0  0
   -1.3125    0.0828    1.8098 H   0  0  0  0  0  0  0  0  0  0  0  0
   -0.0402    0.7171    3.4072 C   0  0  0  0  0  0  0  0  0  0  0  0
    0.6803    1.5418    3.4044 H   0  0  0  0  0  0  0  0  0  0  0  0
   -0.9482    1.0563    3.9148 H   0  0  0  0  0  0  0  0  0  0  0  0
    0.3835   -0.1191    3.9733 H   0  0  0  0  0  0  0  0  0  0  0  0
  1  2  1  0  0  0  0
  2  3  1  0  0  0  0
  2  4  1  0  0  0  0
  2  5  1  0  0  0  0
  5  6  2  0  0  0  0
  5  7  1  0  0  0  0
  7  8  1  0  0  0  0
  7  9  1  0  0  0  0
  9 10  1  0  0  0  0
  9 11  1  0  0  0  0
  9 22  1  0  0  0  0
 11 12  1  0  0  0  0
 11 13  1  0  0  0  0
 11 14  1  0  0  0  0
 14 15  1  0  0  0  0
 14 16  1  0  0  0  0
 14 17  1  0  0  0  0
 17 18  2  0  0  0  0
 17 19  1  0  0  0  0
 19 20  1  0  0  0  0
 19 21  1  0  0  0  0
 22 23  2  0  0  0  0
 22 24  1  0  0  0  0
 24 25  1  0  0  0  0
 24 26  1  0  0  0  0
 26 27  1  0  0  0  0
 26 28  1  0  0  0  0
 26 29  1  0  0  0  0
M  END
$$$$

  -OEChem-02102214123D

 29 28  0     1  0  0  0  0  0999 V2000
   -2.3378   -4.3863    0.4833 H   0  0  0  0  0  0  0  0  0  0  0  0
   -2.3900   -3.4496   -0.0791 C   0  0  0  0  0  0  0  0  0  0  0  0
   -3.2971   -2.9153    0.2133 H   0  0  0  0  0  0  0  0  0  0  0  0
   -2.4392   -3.6829   -1.1454 H   0  0  0  0  0  0  0  0  0  0  0  0
   -1.1668   -2.5996    0.2097 C   0  0  0  0  0  0  0  0  0  0  0  0
   -0.2899   -3.0250    0.9399 O   0  0  0  0  0  0  0  0  0  0  0  0
   -1.0573   -1.3399   -0.3479 N   0  0  0  0  0  0  0  0  0  0  0  0
   -1.7792   -1.0754   -1.0119 H   0  0  0  0  0  0  0  0  0  0  0  0
    0.1517   -0.4980   -0.2556 C   0  0  1  0  0  0  0  0  0  0  0  0
    0.9801   -1.1132   -0.6268 H   0  0  0  0  0  0  0  0  0  0  0  0
    0.0403    0.6937   -1.2483 C   0  0  0  0  0  0  0  0  0  0  0  0
    0.6217    0.4585   -2.1477 H   0  0  0  0  0  0  0  0  0  0  0  0
   -1.0027    0.7687   -1.5716 H   0  0  0  0  0  0  0  0  0  0  0  0
    0.4337    2.0987   -0.7255 C   0  0  0  0  0  0  0  0  0  0  0  0
   -0.2936    2.8215   -1.1069 H   0  0  0  0  0  0  0  0  0  0  0  0
    0.4137    2.2009    0.3594 H   0  0  0  0  0  0  0  0  0  0  0  0
    1.7924    2.5112   -1.2675 C   0  0  0  0  0  0  0  0  0  0  0  0
    1.9213    3.0285   -2.3612 O   0  0  0  0  0  0  0  0  0  0  0  0
    2.9273    2.1905   -0.5805 N   0  0  0  0  0  0  0  0  0  0  0  0
    3.8001    2.2596   -1.0934 H   0  0  0  0  0  0  0  0  0  0  0  0
    2.8433    1.5351    0.1999 H   0  0  0  0  0  0  0  0  0  0  0  0
    0.5830   -0.1365    1.1855 C   0  0  0  0  0  0  0  0  0  0  0  0
    1.7667    0.1051    1.4020 O   0  0  0  0  0  0  0  0  0  0  0  0
   -0.3609    0.2755    2.1087 N   0  0  0  0  0  0  0  0  0  0  0  0
   -1.3191   -0.0009    1.9196 H   0  0  0  0  0  0  0  0  0  0  0  0
   -0.0116    0.7105    3.4555 C   0  0  0  0  0  0  0  0  0  0  0  0
    0.6626    1.5726    3.4182 H   0  0  0  0  0  0  0  0  0  0  0  0
   -0.9121    1.0029    4.0038 H   0  0  0  0  0  0  0  0  0  0  0  0
    0.4818   -0.0997    4.0027 H   0  0  0  0  0  0  0  0  0  0  0  0
  1  2  1  0  0  0  0
  2  3  1  0  0  0  0
  2  4  1  0  0  0  0
  2  5  1  0  0  0  0
  5  6  2  0  0  0  0
  5  7  1  0  0  0  0
  7  8  1  0  0  0  0
  7  9  1  0  0  0  0
  9 10  1  0  0  0  0
  9 11  1  0  0  0  0
  9 22  1  0  0  0  0
 11 12  1  0  0  0  0
 11 13  1  0  0  0  0
 11 14  1  0  0  0  0
 14 15  1  0  0  0  0
 14 16  1  0  0  0  0
 14 17  1  0  0  0  0
 17 18  2  0  0  0  0
 17 19  1  0  0  0  0
 19 20  1  0  0  0  0
 19 21  1  0  0  0  0
 22 23  2  0  0  0  0
 22 24  1  0  0  0  0
 24 25  1  0  0  0  0
 24 26  1  0  0  0  0
 26 27  1  0  0  0  0
 26 28  1  0  0  0  0
 26 29  1  0  0  0  0
M  END
$$$$

  -OEChem-02102214123D

 29 28  0     1  0  0  0  0  0999 V2000
   -2.3549   -4.3872    0.4243 H   0  0  0  0  0  0  0  0  0  0  0  0
   -2.3966   -3.4381   -0.1179 C   0  0  0  0  0  0  0  0  0  0  0  0
   -3.2944   -2.8975    0.1903 H   0  0  0  0  0  0  0  0  0  0  0  0
   -2.4540   -3.6475   -1.1887 H   0  0  0  0  0  0  0  0  0  0  0  0
   -1.1609   -2.6110    0.1833 C   0  0  0  0  0  0  0  0  0  0  0  0
   -0.2885   -3.0638    0.9021 O   0  0  0  0  0  0  0  0  0  0  0  0
   -1.0368   -1.3423   -0.3509 N   0  0  0  0  0  0  0  0  0  0  0  0
   -1.7576   -1.0560   -1.0070 H   0  0  0  0  0  0  0  0  0  0  0  0
    0.1747   -0.5063   -0.2323 C   0  0  1  0  0  0  0  0  0  0  0  0
    1.0116   -1.1007   -0.6168 H   0  0  0  0  0  0  0  0  0  0  0  0
    0.0334    0.7175   -1.1832 C   0  0  0  0  0  0  0  0  0  0  0  0
    0.6194    0.5035   -2.0846 H   0  0  0  0  0  0  0  0  0  0  0  0
   -1.0082    0.7886   -1.5123 H   0  0  0  0  0  0  0  0  0  0  0  0
    0.4161    2.1223   -0.6422 C   0  0  0  0  0  0  0  0  0  0  0  0
   -0.4542    2.7805   -0.7214 H   0  0  0  0  0  0  0  0  0  0  0  0
    0.7131    2.1348    0.4055 H   0  0  0  0  0  0  0  0  0  0  0  0
    1.5408    2.7313   -1.4643 C   0  0  0  0  0  0  0  0  0  0  0  0
    1.3397    3.2301   -2.5553 O   0  0  0  0  0  0  0  0  0  0  0  0
    2.8392    2.6227   -1.0571 N   0  0  0  0  0  0  0  0  0  0  0  0
    3.5502    2.8383   -1.7490 H   0  0  0  0  0  0  0  0  0  0  0  0
    3.0520    2.0036   -0.2775 H   0  0  0  0  0  0  0  0  0  0  0  0
    0.5715   -0.1834    1.2273 C   0  0  0  0  0  0  0  0  0  0  0  0
    1.7529    0.0050    1.4949 O   0  0  0  0  0  0  0  0  0  0  0  0
   -0.3936    0.2089    2.1370 N   0  0  0  0  0  0  0  0  0  0  0  0
   -1.3513   -0.0322    1.9033 H   0  0  0  0  0  0  0  0  0  0  0  0
   -0.0804    0.5781    3.5118 C   0  0  0  0  0  0  0  0  0  0  0  0
    0.6069    1.4303    3.5333 H   0  0  0  0  0  0  0  0  0  0  0  0
   -0.9934    0.8594    4.0453 H   0  0  0  0  0  0  0  0  0  0  0  0
    0.3845   -0.2629    4.0371 H   0  0  0  0  0  0  0  0  0  0  0  0
  1  2  1  0  0  0  0
  2  3  1  0  0  0  0
  2  4  1  0  0  0  0
  2  5  1  0  0  0  0
  5  6  2  0  0  0  0
  5  7  1  0  0  0  0
  7  8  1  0  0  0  0
  7  9  1  0  0  0  0
  9 10  1  0  0  0  0
  9 11  1  0  0  0  0
  9 22  1  0  0  0  0
 11 12  1  0  0  0  0
 11 13  1  0  0  0  0
 11 14  1  0  0  0  0
 14 15  1  0  0  0  0
 14 16  1  0  0  0  0
 14 17  1  0  0  0  0
 17 18  2  0  0  0  0
 17 19  1  0  0  0  0
 19 20  1  0  0  0  0
 19 21  1  0  0  0  0
 22 23  2  0  0  0  0
 22 24  1  0  0  0  0
 24 25  1  0  0  0  0
 24 26  1  0  0  0  0
 26 27  1  0  0  0  0
 26 28  1  0  0  0  0
 26 29  1  0  0  0  0
M  END
$$$$

  -OEChem-02102214123D

 29 28  0     1  0  0  0  0  0999 V2000
   -2.4374   -4.3611    0.3924 H   0  0  0  0  0  0  0  0  0  0  0  0
   -2.4528   -3.4025   -0.1342 C   0  0  0  0  0  0  0  0  0  0  0  0
   -3.3345   -2.8410    0.1837 H   0  0  0  0  0  0  0  0  0  0  0  0
   -2.5175   -3.5937   -1.2082 H   0  0  0  0  0  0  0  0  0  0  0  0
   -1.1942   -2.6153    0.1786 C   0  0  0  0  0  0  0  0  0  0  0  0
   -0.3381   -3.1001    0.8958 O   0  0  0  0  0  0  0  0  0  0  0  0
   -1.0320   -1.3486   -0.3495 N   0  0  0  0  0  0  0  0  0  0  0  0
   -1.7432   -1.0404   -1.0061 H   0  0  0  0  0  0  0  0  0  0  0  0
    0.1993   -0.5426   -0.2249 C   0  0  1  0  0  0  0  0  0  0  0  0
    1.0315   -1.1335   -0.6247 H   0  0  0  0  0  0  0  0  0  0  0  0
    0.0353    0.7078   -1.1366 C   0  0  0  0  0  0  0  0  0  0  0  0
    0.6238    0.5085   -2.0398 H   0  0  0  0  0  0  0  0  0  0  0  0
   -1.0049    0.7965   -1.4664 H   0  0  0  0  0  0  0  0  0  0  0  0
    0.4439    2.0937   -0.5695 C   0  0  0  0  0  0  0  0  0  0  0  0
   -0.4501    2.6611   -0.2959 H   0  0  0  0  0  0  0  0  0  0  0  0
    1.0619    2.0162    0.3247 H   0  0  0  0  0  0  0  0  0  0  0  0
    1.2543    2.8854   -1.5875 C   0  0  0  0  0  0  0  0  0  0  0  0
    0.7816    3.2081   -2.6610 O   0  0  0  0  0  0  0  0  0  0  0  0
    2.5743    3.1731   -1.3903 N   0  0  0  0  0  0  0  0  0  0  0  0
    3.0868    3.5033   -2.2026 H   0  0  0  0  0  0  0  0  0  0  0  0
    3.0644    2.7134   -0.6282 H   0  0  0  0  0  0  0  0  0  0  0  0
    0.5788   -0.2461    1.2463 C   0  0  0  0  0  0  0  0  0  0  0  0
    1.7594   -0.1390    1.5557 O   0  0  0  0  0  0  0  0  0  0  0  0
   -0.3915    0.1598    2.1449 N   0  0  0  0  0  0  0  0  0  0  0  0
   -1.3519   -0.0327    1.8799 H   0  0  0  0  0  0  0  0  0  0  0  0
   -0.0965    0.4551    3.5413 C   0  0  0  0  0  0  0  0  0  0  0  0
    0.6346    1.2669    3.6157 H   0  0  0  0  0  0  0  0  0  0  0  0
   -1.0071    0.7640    4.0633 H   0  0  0  0  0  0  0  0  0  0  0  0
    0.3085   -0.4309    4.0416 H   0  0  0  0  0  0  0  0  0  0  0  0
  1  2  1  0  0  0  0
  2  3  1  0  0  0  0
  2  4  1  0  0  0  0
  2  5  1  0  0  0  0
  5  6  2  0  0  0  0
  5  7  1  0  0  0  0
  7  8  1  0  0  0  0
  7  9  1  0  0  0  0
  9 10  1  0  0  0  0
  9 11  1  0  0  0  0
  9 22  1  0  0  0  0
 11 12  1  0  0  0  0
 11 13  1  0  0  0  0
 11 14  1  0  0  0  0
 14 15  1  0  0  0  0
 14 16  1  0  0  0  0
 14 17  1  0  0  0  0
 17 18  2  0  0  0  0
 17 19  1  0  0  0  0
 19 20  1  0  0  0  0
 19 21  1  0  0  0  0
 22 23  2  0  0  0  0
 22 24  1  0  0  0  0
 24 25  1  0  0  0  0
 24 26  1  0  0  0  0
 26 27  1  0  0  0  0
 26 28  1  0  0  0  0
 26 29  1  0  0  0  0
M  END
$$$$

  -OEChem-02102214123D

 29 28  0     1  0  0  0  0  0999 V2000
   -2.5487   -4.3390    0.4170 H   0  0  0  0  0  0  0  0  0  0  0  0
   -2.5460   -3.3782   -0.1058 C   0  0  0  0  0  0  0  0  0  0  0  0
   -3.4090   -2.7957    0.2253 H   0  0  0  0  0  0  0  0  0  0  0  0
   -2.6288   -3.5634   -1.1795 H   0  0  0  0  0  0  0  0  0  0  0  0
   -1.2634   -2.6252    0.1940 C   0  0  0  0  0  0  0  0  0  0  0  0
   -0.4207   -3.1288    0.9141 O   0  0  0  0  0  0  0  0  0  0  0  0
   -1.0640   -1.3699   -0.3494 N   0  0  0  0  0  0  0  0  0  0  0  0
   -1.7600   -1.0554   -1.0193 H   0  0  0  0  0  0  0  0  0  0  0  0
    0.1969   -0.6067   -0.2475 C   0  0  1  0  0  0  0  0  0  0  0  0
    1.0062   -1.2192   -0.6617 H   0  0  0  0  0  0  0  0  0  0  0  0
    0.0482    0.6576   -1.1406 C   0  0  0  0  0  0  0  0  0  0  0  0
    0.6183    0.4574   -2.0552 H   0  0  0  0  0  0  0  0  0  0  0  0
   -0.9948    0.7897   -1.4470 H   0  0  0  0  0  0  0  0  0  0  0  0
    0.5238    2.0069   -0.5469 C   0  0  0  0  0  0  0  0  0  0  0  0
   -0.2801    2.4749    0.0275 H   0  0  0  0  0  0  0  0  0  0  0  0
    1.3715    1.8550    0.1237 H   0  0  0  0  0  0  0  0  0  0  0  0
    1.0127    2.9632   -1.6302 C   0  0  0  0  0  0  0  0  0  0  0  0
    0.4519    3.0586   -2.7063 O   0  0  0  0  0  0  0  0  0  0  0  0
    2.1217    3.7411   -1.4583 N   0  0  0  0  0  0  0  0  0  0  0  0
    2.4767    4.2029   -2.2906 H   0  0  0  0  0  0  0  0  0  0  0  0
    2.7420    3.5437   -0.6793 H   0  0  0  0  0  0  0  0  0  0  0  0
    0.5959   -0.3147    1.2207 C   0  0  0  0  0  0  0  0  0  0  0  0
    1.7792   -0.2681    1.5335 O   0  0  0  0  0  0  0  0  0  0  0  0
   -0.3559    0.1305    2.1206 N   0  0  0  0  0  0  0  0  0  0  0  0
   -1.3232   -0.0202    1.8536 H   0  0  0  0  0  0  0  0  0  0  0  0
   -0.0508    0.4012    3.5196 C   0  0  0  0  0  0  0  0  0  0  0  0
    0.7075    1.1869    3.6020 H   0  0  0  0  0  0  0  0  0  0  0  0
   -0.9505    0.7349    4.0452 H   0  0  0  0  0  0  0  0  0  0  0  0
    0.3237   -0.5032    4.0108 H   0  0  0  0  0  0  0  0  0  0  0  0
  1  2  1  0  0  0  0
  2  3  1  0  0  0  0
  2  4  1  0  0  0  0
  2  5  1  0  0  0  0
  5  6  2  0  0  0  0
  5  7  1  0  0  0  0
  7  8  1  0  0  0  0
  7  9  1  0  0  0  0
  9 10  1  0  0  0  0
  9 11  1  0  0  0  0
  9 22  1  0  0  0  0
 11 12  1  0  0  0  0
 11 13  1  0  0  0  0
 11 14  1  0  0  0  0
 14 15  1  0  0  0  0
 14 16  1  0  0  0  0
 14 17  1  0  0  0  0
 17 18  2  0  0  0  0
 17 19  1  0  0  0  0
 19 20  1  0  0  0  0
 19 21  1  0  0  0  0
 22 23  2  0  0  0  0
 22 24  1  0  0  0  0
 24 25  1  0  0  0  0
 24 26  1  0  0  0  0
 26 27  1  0  0  0  0
 26 28  1  0  0  0  0
 26 29  1  0  0  0  0
M  END
$$$$

  -OEChem-02102214123D

 29 28  0     1  0  0  0  0  0999 V2000
   -2.6137   -4.3339    0.4185 H   0  0  0  0  0  0  0  0  0  0  0  0
   -2.6011   -3.3722   -0.1026 C   0  0  0  0  0  0  0  0  0  0  0  0
   -3.4567   -2.7807    0.2319 H   0  0  0  0  0  0  0  0  0  0  0  0
   -2.6882   -3.5541   -1.1766 H   0  0  0  0  0  0  0  0  0  0  0  0
   -1.3089   -2.6347    0.1952 C   0  0  0  0  0  0  0  0  0  0  0  0
   -0.4720   -3.1489    0.9148 O   0  0  0  0  0  0  0  0  0  0  0  0
   -1.0929   -1.3835   -0.3511 N   0  0  0  0  0  0  0  0  0  0  0  0
   -1.7862   -1.0593   -1.0194 H   0  0  0  0  0  0  0  0  0  0  0  0
    0.1821   -0.6434   -0.2588 C   0  0  1  0  0  0  0  0  0  0  0  0
    0.9746   -1.2733   -0.6787 H   0  0  0  0  0  0  0  0  0  0  0  0
    0.0615    0.6232   -1.1500 C   0  0  0  0  0  0  0  0  0  0  0  0
    0.6212    0.4261   -2.0715 H   0  0  0  0  0  0  0  0  0  0  0  0
   -0.9821    0.7829   -1.4418 H   0  0  0  0  0  0  0  0  0  0  0  0
    0.5769    1.9431   -0.5330 C   0  0  0  0  0  0  0  0  0  0  0  0
   -0.1092    2.2939    0.2425 H   0  0  0  0  0  0  0  0  0  0  0  0
    1.5556    1.7776   -0.0747 H   0  0  0  0  0  0  0  0  0  0  0  0
    0.7568    3.0398   -1.5778 C   0  0  0  0  0  0  0  0  0  0  0  0
    0.1374    3.0534   -2.6259 O   0  0  0  0  0  0  0  0  0  0  0  0
    1.6323    4.0695   -1.3855 N   0  0  0  0  0  0  0  0  0  0  0  0
    1.8190    4.6547   -2.1943 H   0  0  0  0  0  0  0  0  0  0  0  0
    2.3126    4.0010   -0.6354 H   0  0  0  0  0  0  0  0  0  0  0  0
    0.6058   -0.3531    1.2033 C   0  0  0  0  0  0  0  0  0  0  0  0
    1.7941   -0.3136    1.4971 O   0  0  0  0  0  0  0  0  0  0  0  0
   -0.3257    0.1127    2.1143 N   0  0  0  0  0  0  0  0  0  0  0  0
   -1.2992   -0.0302    1.8663 H   0  0  0  0  0  0  0  0  0  0  0  0
    0.0073    0.4065    3.5023 C   0  0  0  0  0  0  0  0  0  0  0  0
    0.7869    1.1736    3.5561 H   0  0  0  0  0  0  0  0  0  0  0  0
   -0.8754    0.7761    4.0327 H   0  0  0  0  0  0  0  0  0  0  0  0
    0.3656   -0.4963    4.0081 H   0  0  0  0  0  0  0  0  0  0  0  0
  1  2  1  0  0  0  0
  2  3  1  0  0  0  0
  2  4  1  0  0  0  0
  2  5  1  0  0  0  0
  5  6  2  0  0  0  0
  5  7  1  0  0  0  0
  7  8  1  0  0  0  0
  7  9  1  0  0  0  0
  9 10  1  0  0  0  0
  9 11  1  0  0  0  0
  9 22  1  0  0  0  0
 11 12  1  0  0  0  0
 11 13  1  0  0  0  0
 11 14  1  0  0  0  0
 14 15  1  0  0  0  0
 14 16  1  0  0  0  0
 14 17  1  0  0  0  0
 17 18  2  0  0  0  0
 17 19  1  0  0  0  0
 19 20  1  0  0  0  0
 19 21  1  0  0  0  0
 22 23  2  0  0  0  0
 22 24  1  0  0  0  0
 24 25  1  0  0  0  0
 24 26  1  0  0  0  0
 26 27  1  0  0  0  0
 26 28  1  0  0  0  0
 26 29  1  0  0  0  0
M  END
$$$$

  -OEChem-02102214123D

 29 28  0     1  0  0  0  0  0999 V2000
   -2.7034   -4.2818    0.4518 H   0  0  0  0  0  0  0  0  0  0  0  0
   -2.6651   -3.3241   -0.0753 C   0  0  0  0  0  0  0  0  0  0  0  0
   -3.4939   -2.7006    0.2685 H   0  0  0  0  0  0  0  0  0  0  0  0
   -2.7749   -3.5090   -1.1467 H   0  0  0  0  0  0  0  0  0  0  0  0
   -1.3439   -2.6307    0.1993 C   0  0  0  0  0  0  0  0  0  0  0  0
   -0.5192   -3.1643    0.9189 O   0  0  0  0  0  0  0  0  0  0  0  0
   -1.0886   -1.3954   -0.3654 N   0  0  0  0  0  0  0  0  0  0  0  0
   -1.7753   -1.0539   -1.0320 H   0  0  0  0  0  0  0  0  0  0  0  0
    0.2071   -0.6924   -0.2812 C   0  0  1  0  0  0  0  0  0  0  0  0
    0.9871   -1.3402   -0.6970 H   0  0  0  0  0  0  0  0  0  0  0  0
    0.1106    0.5734   -1.1702 C   0  0  0  0  0  0  0  0  0  0  0  0
    0.3804    0.2999   -2.1962 H   0  0  0  0  0  0  0  0  0  0  0  0
   -0.9299    0.9160   -1.1883 H   0  0  0  0  0  0  0  0  0  0  0  0
    0.9746    1.7713   -0.7171 C   0  0  0  0  0  0  0  0  0  0  0  0
    0.6865    2.0904    0.2880 H   0  0  0  0  0  0  0  0  0  0  0  0
    2.0259    1.4693   -0.6904 H   0  0  0  0  0  0  0  0  0  0  0  0
    0.8333    2.9818   -1.6356 C   0  0  0  0  0  0  0  0  0  0  0  0
    0.0243    3.0344   -2.5443 O   0  0  0  0  0  0  0  0  0  0  0  0
    1.6197    4.0855   -1.4727 N   0  0  0  0  0  0  0  0  0  0  0  0
    1.5847    4.7765   -2.2163 H   0  0  0  0  0  0  0  0  0  0  0  0
    2.4283    4.0276   -0.8620 H   0  0  0  0  0  0  0  0  0  0  0  0
    0.6333   -0.3931    1.1775 C   0  0  0  0  0  0  0  0  0  0  0  0
    1.8216   -0.3734    1.4733 O   0  0  0  0  0  0  0  0  0  0  0  0
   -0.2894    0.1135    2.0753 N   0  0  0  0  0  0  0  0  0  0  0  0
   -1.2657   -0.0001    1.8233 H   0  0  0  0  0  0  0  0  0  0  0  0
    0.0453    0.4327    3.4571 C   0  0  0  0  0  0  0  0  0  0  0  0
    0.8370    1.1884    3.4953 H   0  0  0  0  0  0  0  0  0  0  0  0
   -0.8323    0.8279    3.9776 H   0  0  0  0  0  0  0  0  0  0  0  0
    0.3883   -0.4642    3.9839 H   0  0  0  0  0  0  0  0  0  0  0  0
  1  2  1  0  0  0  0
  2  3  1  0  0  0  0
  2  4  1  0  0  0  0
  2  5  1  0  0  0  0
  5  6  2  0  0  0  0
  5  7  1  0  0  0  0
  7  8  1  0  0  0  0
  7  9  1  0  0  0  0
  9 10  1  0  0  0  0
  9 11  1  0  0  0  0
  9 22  1  0  0  0  0
 11 12  1  0  0  0  0
 11 13  1  0  0  0  0
 11 14  1  0  0  0  0
 14 15  1  0  0  0  0
 14 16  1  0  0  0  0
 14 17  1  0  0  0  0
 17 18  2  0  0  0  0
 17 19  1  0  0  0  0
 19 20  1  0  0  0  0
 19 21  1  0  0  0  0
 22 23  2  0  0  0  0
 22 24  1  0  0  0  0
 24 25  1  0  0  0  0
 24 26  1  0  0  0  0
 26 27  1  0  0  0  0
 26 28  1  0  0  0  0
 26 29  1  0  0  0  0
M  END
$$$$

  -OEChem-02102214123D

 29 28  0     1  0  0  0  0  0999 V2000
   -2.7597   -4.2453    0.4462 H   0  0  0  0  0  0  0  0  0  0  0  0
   -2.7085   -3.2750   -0.0561 C   0  0  0  0  0  0  0  0  0  0  0  0
   -3.5137   -2.6405    0.3218 H   0  0  0  0  0  0  0  0  0  0  0  0
   -2.8466   -3.4281   -1.1291 H   0  0  0  0  0  0  0  0  0  0  0  0
   -1.3649   -2.6211    0.2073 C   0  0  0  0  0  0  0  0  0  0  0  0
   -0.5514   -3.1743    0.9248 O   0  0  0  0  0  0  0  0  0  0  0  0
   -1.0804   -1.3939   -0.3604 N   0  0  0  0  0  0  0  0  0  0  0  0
   -1.7664   -1.0301   -1.0161 H   0  0  0  0  0  0  0  0  0  0  0  0
    0.2282   -0.7151   -0.2751 C   0  0  1  0  0  0  0  0  0  0  0  0
    0.9969   -1.3840   -0.6783 H   0  0  0  0  0  0  0  0  0  0  0  0
    0.1640    0.5364   -1.1894 C   0  0  0  0  0  0  0  0  0  0  0  0
    0.4167    0.2460   -2.2147 H   0  0  0  0  0  0  0  0  0  0  0  0
   -0.8749    0.8844   -1.1987 H   0  0  0  0  0  0  0  0  0  0  0  0
    1.0389    1.7434   -0.7713 C   0  0  0  0  0  0  0  0  0  0  0  0
    0.9287    1.9510    0.2950 H   0  0  0  0  0  0  0  0  0  0  0  0
    2.0909    1.5127   -0.9622 H   0  0  0  0  0  0  0  0  0  0  0  0
    0.6603    3.0359   -1.4910 C   0  0  0  0  0  0  0  0  0  0  0  0
   -0.2572    3.1132   -2.2882 O   0  0  0  0  0  0  0  0  0  0  0  0
    1.3399    4.1962   -1.2564 N   0  0  0  0  0  0  0  0  0  0  0  0
    0.9425    5.0443   -1.6494 H   0  0  0  0  0  0  0  0  0  0  0  0
    1.9988    4.2408   -0.4859 H   0  0  0  0  0  0  0  0  0  0  0  0
    0.6535   -0.4183    1.1838 C   0  0  0  0  0  0  0  0  0  0  0  0
    1.8411   -0.4122    1.4830 O   0  0  0  0  0  0  0  0  0  0  0  0
   -0.2641    0.1091    2.0752 N   0  0  0  0  0  0  0  0  0  0  0  0
   -1.2407    0.0001    1.8216 H   0  0  0  0  0  0  0  0  0  0  0  0
    0.0676    0.4057    3.4630 C   0  0  0  0  0  0  0  0  0  0  0  0
    0.8681    1.1511    3.5161 H   0  0  0  0  0  0  0  0  0  0  0  0
   -0.8081    0.8040    3.9843 H   0  0  0  0  0  0  0  0  0  0  0  0
    0.3967   -0.5024    3.9794 H   0  0  0  0  0  0  0  0  0  0  0  0
  1  2  1  0  0  0  0
  2  3  1  0  0  0  0
  2  4  1  0  0  0  0
  2  5  1  0  0  0  0
  5  6  2  0  0  0  0
  5  7  1  0  0  0  0
  7  8  1  0  0  0  0
  7  9  1  0  0  0  0
  9 10  1  0  0  0  0
  9 11  1  0  0  0  0
  9 22  1  0  0  0  0
 11 12  1  0  0  0  0
 11 13  1  0  0  0  0
 11 14  1  0  0  0  0
 14 15  1  0  0  0  0
 14 16  1  0  0  0  0
 14 17  1  0  0  0  0
 17 18  2  0  0  0  0
 17 19  1  0  0  0  0
 19 20  1  0  0  0  0
 19 21  1  0  0  0  0
 22 23  2  0  0  0  0
 22 24  1  0  0  0  0
 24 25  1  0  0  0  0
 24 26  1  0  0  0  0
 26 27  1  0  0  0  0
 26 28  1  0  0  0  0
 26 29  1  0  0  0  0
M  END
$$$$

  -OEChem-02102214123D

 29 28  0     1  0  0  0  0  0999 V2000
   -2.7799   -4.2230    0.4799 H   0  0  0  0  0  0  0  0  0  0  0  0
   -2.7210   -3.2568   -0.0295 C   0  0  0  0  0  0  0  0  0  0  0  0
   -3.5115   -2.6081    0.3552 H   0  0  0  0  0  0  0  0  0  0  0  0
   -2.8763   -3.4144   -1.0994 H   0  0  0  0  0  0  0  0  0  0  0  0
   -1.3644   -2.6214    0.2110 C   0  0  0  0  0  0  0  0  0  0  0  0
   -0.5449   -3.1894    0.9099 O   0  0  0  0  0  0  0  0  0  0  0  0
   -1.0723   -1.3966   -0.3589 N   0  0  0  0  0  0  0  0  0  0  0  0
   -1.7665   -1.0163   -0.9964 H   0  0  0  0  0  0  0  0  0  0  0  0
    0.2423   -0.7272   -0.2793 C   0  0  1  0  0  0  0  0  0  0  0  0
    1.0070   -1.4000   -0.6838 H   0  0  0  0  0  0  0  0  0  0  0  0
    0.1797    0.5254   -1.1966 C   0  0  0  0  0  0  0  0  0  0  0  0
    0.4108    0.2337   -2.2264 H   0  0  0  0  0  0  0  0  0  0  0  0
   -0.8623    0.8625   -1.1882 H   0  0  0  0  0  0  0  0  0  0  0  0
    1.0573    1.7473   -0.8072 C   0  0  0  0  0  0  0  0  0  0  0  0
    1.1818    1.8209    0.2733 H   0  0  0  0  0  0  0  0  0  0  0  0
    2.0530    1.6255   -1.2428 H   0  0  0  0  0  0  0  0  0  0  0  0
    0.4733    3.0926   -1.2373 C   0  0  0  0  0  0  0  0  0  0  0  0
   -0.5369    3.2051   -1.9080 O   0  0  0  0  0  0  0  0  0  0  0  0
    1.0739    4.2645   -0.8772 N   0  0  0  0  0  0  0  0  0  0  0  0
    0.5553    5.1174   -1.0650 H   0  0  0  0  0  0  0  0  0  0  0  0
    1.8141    4.2508   -0.1830 H   0  0  0  0  0  0  0  0  0  0  0  0
    0.6626   -0.4382    1.1825 C   0  0  0  0  0  0  0  0  0  0  0  0
    1.8474   -0.4548    1.4921 O   0  0  0  0  0  0  0  0  0  0  0  0
   -0.2552    0.0931    2.0712 N   0  0  0  0  0  0  0  0  0  0  0  0
   -1.2311    0.0065    1.8069 H   0  0  0  0  0  0  0  0  0  0  0  0
    0.0701    0.3865    3.4612 C   0  0  0  0  0  0  0  0  0  0  0  0
    0.8764    1.1252    3.5194 H   0  0  0  0  0  0  0  0  0  0  0  0
   -0.8060    0.7915    3.9767 H   0  0  0  0  0  0  0  0  0  0  0  0
    0.3885   -0.5242    3.9795 H   0  0  0  0  0  0  0  0  0  0  0  0
  1  2  1  0  0  0  0
  2  3  1  0  0  0  0
  2  4  1  0  0  0  0
  2  5  1  0  0  0  0
  5  6  2  0  0  0  0
  5  7  1  0  0  0  0
  7  8  1  0  0  0  0
  7  9  1  0  0  0  0
  9 10  1  0  0  0  0
  9 11  1  0  0  0  0
  9 22  1  0  0  0  0
 11 12  1  0  0  0  0
 11 13  1  0  0  0  0
 11 14  1  0  0  0  0
 14 15  1  0  0  0  0
 14 16  1  0  0  0  0
 14 17  1  0  0  0  0
 17 18  2  0  0  0  0
 17 19  1  0  0  0  0
 19 20  1  0  0  0  0
 19 21  1  0  0  0  0
 22 23  2  0  0  0  0
 22 24  1  0  0  0  0
 24 25  1  0  0  0  0
 24 26  1  0  0  0  0
 26 27  1  0  0  0  0
 26 28  1  0  0  0  0
 26 29  1  0  0  0  0
M  END
$$$$

  -OEChem-02102214123D

 29 28  0     1  0  0  0  0  0999 V2000
   -2.7815   -4.2102    0.5111 H   0  0  0  0  0  0  0  0  0  0  0  0
   -2.7202   -3.2459   -0.0016 C   0  0  0  0  0  0  0  0  0  0  0  0
   -3.4943   -2.5857    0.3973 H   0  0  0  0  0  0  0  0  0  0  0  0
   -2.8979   -3.4039   -1.0681 H   0  0  0  0  0  0  0  0  0  0  0  0
   -1.3503   -2.6292    0.2103 C   0  0  0  0  0  0  0  0  0  0  0  0
   -0.5218   -3.2119    0.8860 O   0  0  0  0  0  0  0  0  0  0  0  0
   -1.0545   -1.4079   -0.3647 N   0  0  0  0  0  0  0  0  0  0  0  0
   -1.7640   -1.0071   -0.9721 H   0  0  0  0  0  0  0  0  0  0  0  0
    0.2600   -0.7379   -0.2862 C   0  0  1  0  0  0  0  0  0  0  0  0
    1.0286   -1.4069   -0.6894 H   0  0  0  0  0  0  0  0  0  0  0  0
    0.1809    0.5143   -1.2039 C   0  0  0  0  0  0  0  0  0  0  0  0
    0.4200    0.2150   -2.2295 H   0  0  0  0  0  0  0  0  0  0  0  0
   -0.8670    0.8291   -1.2111 H   0  0  0  0  0  0  0  0  0  0  0  0
    1.0496    1.7535   -0.8318 C   0  0  0  0  0  0  0  0  0  0  0  0
    1.4448    1.6882    0.1811 H   0  0  0  0  0  0  0  0  0  0  0  0
    1.9138    1.7830   -1.5012 H   0  0  0  0  0  0  0  0  0  0  0  0
    0.3243    3.0979   -0.9181 C   0  0  0  0  0  0  0  0  0  0  0  0
   -0.7975    3.2387   -1.3708 O   0  0  0  0  0  0  0  0  0  0  0  0
    0.9217    4.2423   -0.4744 N   0  0  0  0  0  0  0  0  0  0  0  0
    0.3287    5.0645   -0.4106 H   0  0  0  0  0  0  0  0  0  0  0  0
    1.7683    4.1735    0.0812 H   0  0  0  0  0  0  0  0  0  0  0  0
    0.6680   -0.4449    1.1787 C   0  0  0  0  0  0  0  0  0  0  0  0
    1.8468   -0.4905    1.5076 O   0  0  0  0  0  0  0  0  0  0  0  0
   -0.2550    0.0889    2.0602 N   0  0  0  0  0  0  0  0  0  0  0  0
   -1.2278    0.0431    1.7747 H   0  0  0  0  0  0  0  0  0  0  0  0
    0.0556    0.3772    3.4544 C   0  0  0  0  0  0  0  0  0  0  0  0
    0.8603    1.1167    3.5233 H   0  0  0  0  0  0  0  0  0  0  0  0
   -0.8257    0.7791    3.9631 H   0  0  0  0  0  0  0  0  0  0  0  0
    0.3698   -0.5353    3.9723 H   0  0  0  0  0  0  0  0  0  0  0  0
  1  2  1  0  0  0  0
  2  3  1  0  0  0  0
  2  4  1  0  0  0  0
  2  5  1  0  0  0  0
  5  6  2  0  0  0  0
  5  7  1  0  0  0  0
  7  8  1  0  0  0  0
  7  9  1  0  0  0  0
  9 10  1  0  0  0  0
  9 11  1  0  0  0  0
  9 22  1  0  0  0  0
 11 12  1  0  0  0  0
 11 13  1  0  0  0  0
 11 14  1  0  0  0  0
 14 15  1  0  0  0  0
 14 16  1  0  0  0  0
 14 17  1  0  0  0  0
 17 18  2  0  0  0  0
 17 19  1  0  0  0  0
 19 20  1  0  0  0  0
 19 21  1  0  0  0  0
 22 23  2  0  0  0  0
 22 24  1  0  0  0  0
 24 25  1  0  0  0  0
 24 26  1  0  0  0  0
 26 27  1  0  0  0  0
 26 28  1  0  0  0  0
 26 29  1  0  0  0  0
M  END
$$$$

  -OEChem-02102214123D

 29 28  0     1  0  0  0  0  0999 V2000
   -2.8264   -4.1764    0.4469 H   0  0  0  0  0  0  0  0  0  0  0  0
   -2.7420   -3.2025   -0.0435 C   0  0  0  0  0  0  0  0  0  0  0  0
   -3.4406   -2.5090    0.4306 H   0  0  0  0  0  0  0  0  0  0  0  0
   -3.0074   -3.3153   -1.0973 H   0  0  0  0  0  0  0  0  0  0  0  0
   -1.3240   -2.6777    0.0801 C   0  0  0  0  0  0  0  0  0  0  0  0
   -0.4681   -3.3619    0.6118 O   0  0  0  0  0  0  0  0  0  0  0  0
   -1.0084   -1.4354   -0.4358 N   0  0  0  0  0  0  0  0  0  0  0  0
   -1.7714   -0.9034   -0.8436 H   0  0  0  0  0  0  0  0  0  0  0  0
    0.3036   -0.7786   -0.2748 C   0  0  1  0  0  0  0  0  0  0  0  0
    1.0894   -1.4229   -0.6849 H   0  0  0  0  0  0  0  0  0  0  0  0
    0.2369    0.5245   -1.1147 C   0  0  0  0  0  0  0  0  0  0  0  0
    0.5522    0.2713   -2.1323 H   0  0  0  0  0  0  0  0  0  0  0  0
   -0.8075    0.8429   -1.1961 H   0  0  0  0  0  0  0  0  0  0  0  0
    1.0936    1.7276   -0.6282 C   0  0  0  0  0  0  0  0  0  0  0  0
    1.7228    1.4909    0.2301 H   0  0  0  0  0  0  0  0  0  0  0  0
    1.7770    1.9961   -1.4384 H   0  0  0  0  0  0  0  0  0  0  0  0
    0.2590    2.9637   -0.2975 C   0  0  0  0  0  0  0  0  0  0  0  0
   -0.8624    2.8902    0.1744 O   0  0  0  0  0  0  0  0  0  0  0  0
    0.7408    4.2260   -0.4935 N   0  0  0  0  0  0  0  0  0  0  0  0
    0.2004    4.9767   -0.0731 H   0  0  0  0  0  0  0  0  0  0  0  0
    1.7342    4.3478   -0.6612 H   0  0  0  0  0  0  0  0  0  0  0  0
    0.6481   -0.5484    1.2184 C   0  0  0  0  0  0  0  0  0  0  0  0
    1.8019   -0.6777    1.6087 O   0  0  0  0  0  0  0  0  0  0  0  0
   -0.3052   -0.0427    2.0845 N   0  0  0  0  0  0  0  0  0  0  0  0
   -1.1937    0.2323    1.6770 H   0  0  0  0  0  0  0  0  0  0  0  0
   -0.0076    0.3564    3.4535 C   0  0  0  0  0  0  0  0  0  0  0  0
    0.7089    1.1842    3.4636 H   0  0  0  0  0  0  0  0  0  0  0  0
   -0.9218    0.6815    3.9591 H   0  0  0  0  0  0  0  0  0  0  0  0
    0.4153   -0.4843    4.0138 H   0  0  0  0  0  0  0  0  0  0  0  0
  1  2  1  0  0  0  0
  2  3  1  0  0  0  0
  2  4  1  0  0  0  0
  2  5  1  0  0  0  0
  5  6  2  0  0  0  0
  5  7  1  0  0  0  0
  7  8  1  0  0  0  0
  7  9  1  0  0  0  0
  9 10  1  0  0  0  0
  9 11  1  0  0  0  0
  9 22  1  0  0  0  0
 11 12  1  0  0  0  0
 11 13  1  0  0  0  0
 11 14  1  0  0  0  0
 14 15  1  0  0  0  0
 14 16  1  0  0  0  0
 14 17  1  0  0  0  0
 17 18  2  0  0  0  0
 17 19  1  0  0  0  0
 19 20  1  0  0  0  0
 19 21  1  0  0  0  0
 22 23  2  0  0  0  0
 22 24  1  0  0  0  0
 24 25  1  0  0  0  0
 24 26  1  0  0  0  0
 26 27  1  0  0  0  0
 26 28  1  0  0  0  0
 26 29  1  0  0  0  0
M  END
$$$$

  -OEChem-02102214123D

 29 28  0     1  0  0  0  0  0999 V2000
   -2.7951   -4.1912    0.5308 H   0  0  0  0  0  0  0  0  0  0  0  0
   -2.7356   -3.2178    0.0356 C   0  0  0  0  0  0  0  0  0  0  0  0
   -3.4064   -2.5230    0.5461 H   0  0  0  0  0  0  0  0  0  0  0  0
   -3.0580   -3.3309   -1.0022 H   0  0  0  0  0  0  0  0  0  0  0  0
   -1.3119   -2.6959    0.0840 C   0  0  0  0  0  0  0  0  0  0  0  0
   -0.4352   -3.3739    0.5897 O   0  0  0  0  0  0  0  0  0  0  0  0
   -1.0154   -1.4628   -0.4647 N   0  0  0  0  0  0  0  0  0  0  0  0
   -1.7984   -0.9249   -0.8238 H   0  0  0  0  0  0  0  0  0  0  0  0
    0.2915   -0.7928   -0.3232 C   0  0  1  0  0  0  0  0  0  0  0  0
    1.0809   -1.4391   -0.7235 H   0  0  0  0  0  0  0  0  0  0  0  0
    0.2130    0.4944   -1.1839 C   0  0  0  0  0  0  0  0  0  0  0  0
    0.5519    0.2230   -2.1892 H   0  0  0  0  0  0  0  0  0  0  0  0
   -0.8284    0.8142   -1.2943 H   0  0  0  0  0  0  0  0  0  0  0  0
    1.0723    1.6911   -0.6980 C   0  0  0  0  0  0  0  0  0  0  0  0
    1.8911    1.3796   -0.0460 H   0  0  0  0  0  0  0  0  0  0  0  0
    1.5390    2.1391   -1.5796 H   0  0  0  0  0  0  0  0  0  0  0  0
    0.2561    2.7971   -0.0274 C   0  0  0  0  0  0  0  0  0  0  0  0
   -0.8863    2.6339    0.3680 O   0  0  0  0  0  0  0  0  0  0  0  0
    0.7939    4.0289    0.2105 N   0  0  0  0  0  0  0  0  0  0  0  0
    0.2632    4.6304    0.8339 H   0  0  0  0  0  0  0  0  0  0  0  0
    1.7992    4.1434    0.1303 H   0  0  0  0  0  0  0  0  0  0  0  0
    0.6422   -0.5241    1.1631 C   0  0  0  0  0  0  0  0  0  0  0  0
    1.7979   -0.6420    1.5518 O   0  0  0  0  0  0  0  0  0  0  0  0
   -0.3098   -0.0046    2.0225 N   0  0  0  0  0  0  0  0  0  0  0  0
   -1.1625    0.3384    1.5878 H   0  0  0  0  0  0  0  0  0  0  0  0
    0.0091    0.4566    3.3669 C   0  0  0  0  0  0  0  0  0  0  0  0
    0.6836    1.3180    3.3256 H   0  0  0  0  0  0  0  0  0  0  0  0
   -0.9047    0.7541    3.8897 H   0  0  0  0  0  0  0  0  0  0  0  0
    0.4899   -0.3412    3.9426 H   0  0  0  0  0  0  0  0  0  0  0  0
  1  2  1  0  0  0  0
  2  3  1  0  0  0  0
  2  4  1  0  0  0  0
  2  5  1  0  0  0  0
  5  6  2  0  0  0  0
  5  7  1  0  0  0  0
  7  8  1  0  0  0  0
  7  9  1  0  0  0  0
  9 10  1  0  0  0  0
  9 11  1  0  0  0  0
  9 22  1  0  0  0  0
 11 12  1  0  0  0  0
 11 13  1  0  0  0  0
 11 14  1  0  0  0  0
 14 15  1  0  0  0  0
 14 16  1  0  0  0  0
 14 17  1  0  0  0  0
 17 18  2  0  0  0  0
 17 19  1  0  0  0  0
 19 20  1  0  0  0  0
 19 21  1  0  0  0  0
 22 23  2  0  0  0  0
 22 24  1  0  0  0  0
 24 25  1  0  0  0  0
 24 26  1  0  0  0  0
 26 27  1  0  0  0  0
 26 28  1  0  0  0  0
 26 29  1  0  0  0  0
M  END
$$$$

  -OEChem-02102214123D

 29 28  0     1  0  0  0  0  0999 V2000
   -2.7424   -4.2137    0.5801 H   0  0  0  0  0  0  0  0  0  0  0  0
   -2.7075   -3.2435    0.0764 C   0  0  0  0  0  0  0  0  0  0  0  0
   -3.3901   -2.5589    0.5855 H   0  0  0  0  0  0  0  0  0  0  0  0
   -3.0342   -3.3726   -0.9583 H   0  0  0  0  0  0  0  0  0  0  0  0
   -1.2956   -2.6895    0.1097 C   0  0  0  0  0  0  0  0  0  0  0  0
   -0.4009   -3.3393    0.6209 O   0  0  0  0  0  0  0  0  0  0  0  0
   -1.0299   -1.4571   -0.4555 N   0  0  0  0  0  0  0  0  0  0  0  0
   -1.8261   -0.9417   -0.8188 H   0  0  0  0  0  0  0  0  0  0  0  0
    0.2651   -0.7608   -0.3403 C   0  0  1  0  0  0  0  0  0  0  0  0
    1.0546   -1.4137   -0.7302 H   0  0  0  0  0  0  0  0  0  0  0  0
    0.1860    0.4925   -1.2492 C   0  0  0  0  0  0  0  0  0  0  0  0
    0.5346    0.1891   -2.2419 H   0  0  0  0  0  0  0  0  0  0  0  0
   -0.8549    0.8091   -1.3739 H   0  0  0  0  0  0  0  0  0  0  0  0
    1.0344    1.7035   -0.7932 C   0  0  0  0  0  0  0  0  0  0  0  0
    1.9690    1.3719   -0.3329 H   0  0  0  0  0  0  0  0  0  0  0  0
    1.3071    2.2807   -1.6809 H   0  0  0  0  0  0  0  0  0  0  0  0
    0.2952    2.6619    0.1427 C   0  0  0  0  0  0  0  0  0  0  0  0
   -0.8992    2.5782    0.3763 O   0  0  0  0  0  0  0  0  0  0  0  0
    0.9616    3.6473    0.8110 N   0  0  0  0  0  0  0  0  0  0  0  0
    0.4449    4.0993    1.5594 H   0  0  0  0  0  0  0  0  0  0  0  0
    1.9746    3.5971    0.8554 H   0  0  0  0  0  0  0  0  0  0  0  0
    0.6438   -0.4635    1.1339 C   0  0  0  0  0  0  0  0  0  0  0  0
    1.8160   -0.5147    1.4860 O   0  0  0  0  0  0  0  0  0  0  0  0
   -0.2954    0.0492    2.0113 N   0  0  0  0  0  0  0  0  0  0  0  0
   -1.1746    0.3516    1.5995 H   0  0  0  0  0  0  0  0  0  0  0  0
    0.0426    0.5280    3.3450 C   0  0  0  0  0  0  0  0  0  0  0  0
    0.7149    1.3897    3.2838 H   0  0  0  0  0  0  0  0  0  0  0  0
   -0.8639    0.8304    3.8777 H   0  0  0  0  0  0  0  0  0  0  0  0
    0.5331   -0.2628    3.9224 H   0  0  0  0  0  0  0  0  0  0  0  0
  1  2  1  0  0  0  0
  2  3  1  0  0  0  0
  2  4  1  0  0  0  0
  2  5  1  0  0  0  0
  5  6  2  0  0  0  0
  5  7  1  0  0  0  0
  7  8  1  0  0  0  0
  7  9  1  0  0  0  0
  9 10  1  0  0  0  0
  9 11  1  0  0  0  0
  9 22  1  0  0  0  0
 11 12  1  0  0  0  0
 11 13  1  0  0  0  0
 11 14  1  0  0  0  0
 14 15  1  0  0  0  0
 14 16  1  0  0  0  0
 14 17  1  0  0  0  0
 17 18  2  0  0  0  0
 17 19  1  0  0  0  0
 19 20  1  0  0  0  0
 19 21  1  0  0  0  0
 22 23  2  0  0  0  0
 22 24  1  0  0  0  0
 24 25  1  0  0  0  0
 24 26  1  0  0  0  0
 26 27  1  0  0  0  0
 26 28  1  0  0  0  0
 26 29  1  0  0  0  0
M  END
$$$$

  -OEChem-02102214123D

 29 28  0     1  0  0  0  0  0999 V2000
   -2.6328   -4.2335    0.6139 H   0  0  0  0  0  0  0  0  0  0  0  0
   -2.6361   -3.2604    0.1145 C   0  0  0  0  0  0  0  0  0  0  0  0
   -3.3720   -2.6172    0.6029 H   0  0  0  0  0  0  0  0  0  0  0  0
   -2.9217   -3.4031   -0.9305 H   0  0  0  0  0  0  0  0  0  0  0  0
   -1.2592   -2.6283    0.1953 C   0  0  0  0  0  0  0  0  0  0  0  0
   -0.3578   -3.2084    0.7739 O   0  0  0  0  0  0  0  0  0  0  0  0
   -1.0336   -1.3983   -0.3924 N   0  0  0  0  0  0  0  0  0  0  0  0
   -1.8232   -0.9578   -0.8557 H   0  0  0  0  0  0  0  0  0  0  0  0
    0.2475   -0.6691   -0.3338 C   0  0  1  0  0  0  0  0  0  0  0  0
    1.0329   -1.3319   -0.7151 H   0  0  0  0  0  0  0  0  0  0  0  0
    0.1616    0.5368   -1.3066 C   0  0  0  0  0  0  0  0  0  0  0  0
    0.4818    0.1875   -2.2936 H   0  0  0  0  0  0  0  0  0  0  0  0
   -0.8833    0.8505   -1.4063 H   0  0  0  0  0  0  0  0  0  0  0  0
    0.9925    1.7863   -0.9406 C   0  0  0  0  0  0  0  0  0  0  0  0
    2.0139    1.4851   -0.6903 H   0  0  0  0  0  0  0  0  0  0  0  0
    1.0532    2.4379   -1.8166 H   0  0  0  0  0  0  0  0  0  0  0  0
    0.4094    2.6160    0.1997 C   0  0  0  0  0  0  0  0  0  0  0  0
   -0.7858    2.8352    0.2920 O   0  0  0  0  0  0  0  0  0  0  0  0
    1.1928    3.0760    1.2176 N   0  0  0  0  0  0  0  0  0  0  0  0
    0.6821    3.4017    2.0319 H   0  0  0  0  0  0  0  0  0  0  0  0
    2.0851    2.6072    1.3530 H   0  0  0  0  0  0  0  0  0  0  0  0
    0.6682   -0.3434    1.1221 C   0  0  0  0  0  0  0  0  0  0  0  0
    1.8563   -0.2814    1.4153 O   0  0  0  0  0  0  0  0  0  0  0  0
   -0.2571    0.1542    2.0222 N   0  0  0  0  0  0  0  0  0  0  0  0
   -1.2218    0.2066    1.7097 H   0  0  0  0  0  0  0  0  0  0  0  0
    0.0595    0.5073    3.3998 C   0  0  0  0  0  0  0  0  0  0  0  0
    0.8597    1.2532    3.4355 H   0  0  0  0  0  0  0  0  0  0  0  0
   -0.8231    0.9264    3.8926 H   0  0  0  0  0  0  0  0  0  0  0  0
    0.3802   -0.3798    3.9560 H   0  0  0  0  0  0  0  0  0  0  0  0
  1  2  1  0  0  0  0
  2  3  1  0  0  0  0
  2  4  1  0  0  0  0
  2  5  1  0  0  0  0
  5  6  2  0  0  0  0
  5  7  1  0  0  0  0
  7  8  1  0  0  0  0
  7  9  1  0  0  0  0
  9 10  1  0  0  0  0
  9 11  1  0  0  0  0
  9 22  1  0  0  0  0
 11 12  1  0  0  0  0
 11 13  1  0  0  0  0
 11 14  1  0  0  0  0
 14 15  1  0  0  0  0
 14 16  1  0  0  0  0
 14 17  1  0  0  0  0
 17 18  2  0  0  0  0
 17 19  1  0  0  0  0
 19 20  1  0  0  0  0
 19 21  1  0  0  0  0
 22 23  2  0  0  0  0
 22 24  1  0  0  0  0
 24 25  1  0  0  0  0
 24 26  1  0  0  0  0
 26 27  1  0  0  0  0
 26 28  1  0  0  0  0
 26 29  1  0  0  0  0
M  END
$$$$

  -OEChem-02102214123D

 29 28  0     1  0  0  0  0  0999 V2000
   -2.6092   -4.2670    0.5513 H   0  0  0  0  0  0  0  0  0  0  0  0
   -2.6229   -3.2802    0.0796 C   0  0  0  0  0  0  0  0  0  0  0  0
   -3.3645   -2.6587    0.5871 H   0  0  0  0  0  0  0  0  0  0  0  0
   -2.9088   -3.3964   -0.9686 H   0  0  0  0  0  0  0  0  0  0  0  0
   -1.2519   -2.6374    0.1755 C   0  0  0  0  0  0  0  0  0  0  0  0
   -0.3428   -3.2258    0.7333 O   0  0  0  0  0  0  0  0  0  0  0  0
   -1.0402   -1.3872   -0.3742 N   0  0  0  0  0  0  0  0  0  0  0  0
   -1.8370   -0.9384   -0.8165 H   0  0  0  0  0  0  0  0  0  0  0  0
    0.2332   -0.6466   -0.2928 C   0  0  1  0  0  0  0  0  0  0  0  0
    1.0193   -1.3114   -0.6694 H   0  0  0  0  0  0  0  0  0  0  0  0
    0.1771    0.5461   -1.2884 C   0  0  0  0  0  0  0  0  0  0  0  0
    0.4979    0.1790   -2.2689 H   0  0  0  0  0  0  0  0  0  0  0  0
   -0.8687    0.8550   -1.3906 H   0  0  0  0  0  0  0  0  0  0  0  0
    0.9719    1.8330   -0.9686 C   0  0  0  0  0  0  0  0  0  0  0  0
    2.0354    1.5803   -0.9235 H   0  0  0  0  0  0  0  0  0  0  0  0
    0.8404    2.5444   -1.7885 H   0  0  0  0  0  0  0  0  0  0  0  0
    0.5914    2.5433    0.3251 C   0  0  0  0  0  0  0  0  0  0  0  0
   -0.5619    2.8659    0.5482 O   0  0  0  0  0  0  0  0  0  0  0  0
    1.5058    2.8096    1.3018 N   0  0  0  0  0  0  0  0  0  0  0  0
    1.0964    3.0883    2.1873 H   0  0  0  0  0  0  0  0  0  0  0  0
    2.3235    2.2033    1.3206 H   0  0  0  0  0  0  0  0  0  0  0  0
    0.6574   -0.3578    1.1681 C   0  0  0  0  0  0  0  0  0  0  0  0
    1.8486   -0.2907    1.4504 O   0  0  0  0  0  0  0  0  0  0  0  0
   -0.2653    0.1039    2.0896 N   0  0  0  0  0  0  0  0  0  0  0  0
   -1.2301    0.1756    1.7818 H   0  0  0  0  0  0  0  0  0  0  0  0
    0.0605    0.4257    3.4727 C   0  0  0  0  0  0  0  0  0  0  0  0
    0.7659    1.2606    3.5205 H   0  0  0  0  0  0  0  0  0  0  0  0
   -0.8458    0.7078    4.0171 H   0  0  0  0  0  0  0  0  0  0  0  0
    0.5071   -0.4414    3.9705 H   0  0  0  0  0  0  0  0  0  0  0  0
  1  2  1  0  0  0  0
  2  3  1  0  0  0  0
  2  4  1  0  0  0  0
  2  5  1  0  0  0  0
  5  6  2  0  0  0  0
  5  7  1  0  0  0  0
  7  8  1  0  0  0  0
  7  9  1  0  0  0  0
  9 10  1  0  0  0  0
  9 11  1  0  0  0  0
  9 22  1  0  0  0  0
 11 12  1  0  0  0  0
 11 13  1  0  0  0  0
 11 14  1  0  0  0  0
 14 15  1  0  0  0  0
 14 16  1  0  0  0  0
 14 17  1  0  0  0  0
 17 18  2  0  0  0  0
 17 19  1  0  0  0  0
 19 20  1  0  0  0  0
 19 21  1  0  0  0  0
 22 23  2  0  0  0  0
 22 24  1  0  0  0  0
 24 25  1  0  0  0  0
 24 26  1  0  0  0  0
 26 27  1  0  0  0  0
 26 28  1  0  0  0  0
 26 29  1  0  0  0  0
M  END
$$$$

  -OEChem-02102214123D

 29 28  0     1  0  0  0  0  0999 V2000
   -2.6606   -4.2595    0.4587 H   0  0  0  0  0  0  0  0  0  0  0  0
   -2.6449   -3.2739   -0.0153 C   0  0  0  0  0  0  0  0  0  0  0  0
   -3.3920   -2.6404    0.4686 H   0  0  0  0  0  0  0  0  0  0  0  0
   -2.9011   -3.3883   -1.0712 H   0  0  0  0  0  0  0  0  0  0  0  0
   -1.2677   -2.6520    0.1206 C   0  0  0  0  0  0  0  0  0  0  0  0
   -0.3740   -3.2714    0.6695 O   0  0  0  0  0  0  0  0  0  0  0  0
   -1.0314   -1.3895   -0.3900 N   0  0  0  0  0  0  0  0  0  0  0  0
   -1.8200   -0.9132   -0.8176 H   0  0  0  0  0  0  0  0  0  0  0  0
    0.2449   -0.6619   -0.2488 C   0  0  1  0  0  0  0  0  0  0  0  0
    1.0365   -1.3276   -0.6130 H   0  0  0  0  0  0  0  0  0  0  0  0
    0.2268    0.5390   -1.2406 C   0  0  0  0  0  0  0  0  0  0  0  0
    0.5518    0.1696   -2.2188 H   0  0  0  0  0  0  0  0  0  0  0  0
   -0.8191    0.8446   -1.3501 H   0  0  0  0  0  0  0  0  0  0  0  0
    0.9910    1.8550   -0.9469 C   0  0  0  0  0  0  0  0  0  0  0  0
    2.0535    1.6684   -1.1266 H   0  0  0  0  0  0  0  0  0  0  0  0
    0.6732    2.6154   -1.6660 H   0  0  0  0  0  0  0  0  0  0  0  0
    0.8687    2.4540    0.4488 C   0  0  0  0  0  0  0  0  0  0  0  0
   -0.1974    2.8949    0.8386 O   0  0  0  0  0  0  0  0  0  0  0  0
    1.9219    2.5408    1.3115 N   0  0  0  0  0  0  0  0  0  0  0  0
    1.6546    2.7945    2.2569 H   0  0  0  0  0  0  0  0  0  0  0  0
    2.6406    1.8282    1.2005 H   0  0  0  0  0  0  0  0  0  0  0  0
    0.6274   -0.4135    1.2292 C   0  0  0  0  0  0  0  0  0  0  0  0
    1.8095   -0.4266    1.5548 O   0  0  0  0  0  0  0  0  0  0  0  0
   -0.3151    0.0346    2.1367 N   0  0  0  0  0  0  0  0  0  0  0  0
   -1.2518    0.2057    1.7855 H   0  0  0  0  0  0  0  0  0  0  0  0
   -0.0082    0.3799    3.5181 C   0  0  0  0  0  0  0  0  0  0  0  0
    0.6921    1.2196    3.5603 H   0  0  0  0  0  0  0  0  0  0  0  0
   -0.9225    0.6662    4.0467 H   0  0  0  0  0  0  0  0  0  0  0  0
    0.4360   -0.4770    4.0356 H   0  0  0  0  0  0  0  0  0  0  0  0
  1  2  1  0  0  0  0
  2  3  1  0  0  0  0
  2  4  1  0  0  0  0
  2  5  1  0  0  0  0
  5  6  2  0  0  0  0
  5  7  1  0  0  0  0
  7  8  1  0  0  0  0
  7  9  1  0  0  0  0
  9 10  1  0  0  0  0
  9 11  1  0  0  0  0
  9 22  1  0  0  0  0
 11 12  1  0  0  0  0
 11 13  1  0  0  0  0
 11 14  1  0  0  0  0
 14 15  1  0  0  0  0
 14 16  1  0  0  0  0
 14 17  1  0  0  0  0
 17 18  2  0  0  0  0
 17 19  1  0  0  0  0
 19 20  1  0  0  0  0
 19 21  1  0  0  0  0
 22 23  2  0  0  0  0
 22 24  1  0  0  0  0
 24 25  1  0  0  0  0
 24 26  1  0  0  0  0
 26 27  1  0  0  0  0
 26 28  1  0  0  0  0
 26 29  1  0  0  0  0
M  END
$$$$

  -OEChem-02102214123D

 29 28  0     1  0  0  0  0  0999 V2000
   -2.6602   -4.2902    0.3811 H   0  0  0  0  0  0  0  0  0  0  0  0
   -2.6483   -3.2873   -0.0556 C   0  0  0  0  0  0  0  0  0  0  0  0
   -3.3863   -2.6705    0.4625 H   0  0  0  0  0  0  0  0  0  0  0  0
   -2.9194   -3.3612   -1.1115 H   0  0  0  0  0  0  0  0  0  0  0  0
   -1.2673   -2.6747    0.0849 C   0  0  0  0  0  0  0  0  0  0  0  0
   -0.3708   -3.3145    0.6044 O   0  0  0  0  0  0  0  0  0  0  0  0
   -1.0297   -1.4006   -0.3961 N   0  0  0  0  0  0  0  0  0  0  0  0
   -1.8198   -0.9124   -0.8065 H   0  0  0  0  0  0  0  0  0  0  0  0
    0.2463   -0.6762   -0.2303 C   0  0  1  0  0  0  0  0  0  0  0  0
    1.0444   -1.3242   -0.6116 H   0  0  0  0  0  0  0  0  0  0  0  0
    0.2037    0.5522   -1.1902 C   0  0  0  0  0  0  0  0  0  0  0  0
    0.5014    0.2058   -2.1855 H   0  0  0  0  0  0  0  0  0  0  0  0
   -0.8499    0.8423   -1.2640 H   0  0  0  0  0  0  0  0  0  0  0  0
    0.9378    1.8939   -0.9116 C   0  0  0  0  0  0  0  0  0  0  0  0
    1.9329    1.8143   -1.3582 H   0  0  0  0  0  0  0  0  0  0  0  0
    0.4168    2.6934   -1.4465 H   0  0  0  0  0  0  0  0  0  0  0  0
    1.1528    2.3598    0.5235 C   0  0  0  0  0  0  0  0  0  0  0  0
    0.2453    2.8941    1.1340 O   0  0  0  0  0  0  0  0  0  0  0  0
    2.3572    2.2815    1.1596 N   0  0  0  0  0  0  0  0  0  0  0  0
    2.3021    2.4758    2.1545 H   0  0  0  0  0  0  0  0  0  0  0  0
    2.9598    1.5159    0.8678 H   0  0  0  0  0  0  0  0  0  0  0  0
    0.6146   -0.4637    1.2560 C   0  0  0  0  0  0  0  0  0  0  0  0
    1.7877   -0.5555    1.5999 O   0  0  0  0  0  0  0  0  0  0  0  0
   -0.3326   -0.0358    2.1682 N   0  0  0  0  0  0  0  0  0  0  0  0
   -1.2461    0.2086    1.8014 H   0  0  0  0  0  0  0  0  0  0  0  0
   -0.0072    0.3434    3.5367 C   0  0  0  0  0  0  0  0  0  0  0  0
    0.6377    1.2279    3.5460 H   0  0  0  0  0  0  0  0  0  0  0  0
   -0.9212    0.5754    4.0913 H   0  0  0  0  0  0  0  0  0  0  0  0
    0.5080   -0.4759    4.0495 H   0  0  0  0  0  0  0  0  0  0  0  0
  1  2  1  0  0  0  0
  2  3  1  0  0  0  0
  2  4  1  0  0  0  0
  2  5  1  0  0  0  0
  5  6  2  0  0  0  0
  5  7  1  0  0  0  0
  7  8  1  0  0  0  0
  7  9  1  0  0  0  0
  9 10  1  0  0  0  0
  9 11  1  0  0  0  0
  9 22  1  0  0  0  0
 11 12  1  0  0  0  0
 11 13  1  0  0  0  0
 11 14  1  0  0  0  0
 14 15  1  0  0  0  0
 14 16  1  0  0  0  0
 14 17  1  0  0  0  0
 17 18  2  0  0  0  0
 17 19  1  0  0  0  0
 19 20  1  0  0  0  0
 19 21  1  0  0  0  0
 22 23  2  0  0  0  0
 22 24  1  0  0  0  0
 24 25  1  0  0  0  0
 24 26  1  0  0  0  0
 26 27  1  0  0  0  0
 26 28  1  0  0  0  0
 26 29  1  0  0  0  0
M  END
$$$$

  -OEChem-02102214123D

 29 28  0     1  0  0  0  0  0999 V2000
   -2.9114   -4.0830    0.3423 H   0  0  0  0  0  0  0  0  0  0  0  0
   -2.8404   -3.0786   -0.0850 C   0  0  0  0  0  0  0  0  0  0  0  0
   -3.5156   -2.4167    0.4624 H   0  0  0  0  0  0  0  0  0  0  0  0
   -3.1483   -3.1196   -1.1326 H   0  0  0  0  0  0  0  0  0  0  0  0
   -1.4153   -2.5686    0.0180 C   0  0  0  0  0  0  0  0  0  0  0  0
   -0.5433   -3.2931    0.4622 O   0  0  0  0  0  0  0  0  0  0  0  0
   -1.1121   -1.2910   -0.4146 N   0  0  0  0  0  0  0  0  0  0  0  0
   -1.8857   -0.7334   -0.7628 H   0  0  0  0  0  0  0  0  0  0  0  0
    0.2102   -0.6525   -0.2522 C   0  0  1  0  0  0  0  0  0  0  0  0
    0.9644   -1.3152   -0.6927 H   0  0  0  0  0  0  0  0  0  0  0  0
    0.1843    0.6357   -1.1336 C   0  0  0  0  0  0  0  0  0  0  0  0
    0.4224    0.3321   -2.1586 H   0  0  0  0  0  0  0  0  0  0  0  0
   -0.8574    0.9736   -1.1476 H   0  0  0  0  0  0  0  0  0  0  0  0
    0.9882    1.9337   -0.8267 C   0  0  0  0  0  0  0  0  0  0  0  0
    1.8197    1.9719   -1.5361 H   0  0  0  0  0  0  0  0  0  0  0  0
    0.3506    2.7941   -1.0520 H   0  0  0  0  0  0  0  0  0  0  0  0
    1.6014    2.1682    0.5482 C   0  0  0  0  0  0  0  0  0  0  0  0
    0.9774    2.7717    1.4010 O   0  0  0  0  0  0  0  0  0  0  0  0
    2.8861    1.8250    0.8530 N   0  0  0  0  0  0  0  0  0  0  0  0
    3.0853    1.8604    1.8486 H   0  0  0  0  0  0  0  0  0  0  0  0
    3.2752    1.0472    0.3291 H   0  0  0  0  0  0  0  0  0  0  0  0
    0.6100   -0.5369    1.2377 C   0  0  0  0  0  0  0  0  0  0  0  0
    1.7635   -0.7833    1.5692 O   0  0  0  0  0  0  0  0  0  0  0  0
   -0.2959   -0.0973    2.1857 N   0  0  0  0  0  0  0  0  0  0  0  0
   -1.1940    0.2312    1.8497 H   0  0  0  0  0  0  0  0  0  0  0  0
    0.0698    0.1646    3.5719 C   0  0  0  0  0  0  0  0  0  0  0  0
    0.7827    0.9938    3.6298 H   0  0  0  0  0  0  0  0  0  0  0  0
   -0.8182    0.4293    4.1534 H   0  0  0  0  0  0  0  0  0  0  0  0
    0.5238   -0.7239    4.0233 H   0  0  0  0  0  0  0  0  0  0  0  0
  1  2  1  0  0  0  0
  2  3  1  0  0  0  0
  2  4  1  0  0  0  0
  2  5  1  0  0  0  0
  5  6  2  0  0  0  0
  5  7  1  0  0  0  0
  7  8  1  0  0  0  0
  7  9  1  0  0  0  0
  9 10  1  0  0  0  0
  9 11  1  0  0  0  0
  9 22  1  0  0  0  0
 11 12  1  0  0  0  0
 11 13  1  0  0  0  0
 11 14  1  0  0  0  0
 14 15  1  0  0  0  0
 14 16  1  0  0  0  0
 14 17  1  0  0  0  0
 17 18  2  0  0  0  0
 17 19  1  0  0  0  0
 19 20  1  0  0  0  0
 19 21  1  0  0  0  0
 22 23  2  0  0  0  0
 22 24  1  0  0  0  0
 24 25  1  0  0  0  0
 24 26  1  0  0  0  0
 26 27  1  0  0  0  0
 26 28  1  0  0  0  0
 26 29  1  0  0  0  0
M  END
$$$$

  -OEChem-02102214123D

 29 28  0     1  0  0  0  0  0999 V2000
   -2.5029   -4.3510    0.6120 H   0  0  0  0  0  0  0  0  0  0  0  0
   -2.5137   -3.3792    0.1098 C   0  0  0  0  0  0  0  0  0  0  0  0
   -3.2761   -2.7516    0.5772 H   0  0  0  0  0  0  0  0  0  0  0  0
   -2.7679   -3.5307   -0.9419 H   0  0  0  0  0  0  0  0  0  0  0  0
   -1.1528   -2.7186    0.2254 C   0  0  0  0  0  0  0  0  0  0  0  0
   -0.2419   -3.3048    0.7807 O   0  0  0  0  0  0  0  0  0  0  0  0
   -0.9479   -1.4676   -0.3270 N   0  0  0  0  0  0  0  0  0  0  0  0
   -1.7442   -1.0367   -0.7862 H   0  0  0  0  0  0  0  0  0  0  0  0
    0.3045   -0.6944   -0.1920 C   0  0  1  0  0  0  0  0  0  0  0  0
    1.1380   -1.3070   -0.5550 H   0  0  0  0  0  0  0  0  0  0  0  0
    0.1577    0.5178   -1.1655 C   0  0  0  0  0  0  0  0  0  0  0  0
    0.4716    0.1621   -2.1529 H   0  0  0  0  0  0  0  0  0  0  0  0
   -0.9119    0.7383   -1.2473 H   0  0  0  0  0  0  0  0  0  0  0  0
    0.8229    1.9093   -0.9428 C   0  0  0  0  0  0  0  0  0  0  0  0
    1.4482    2.1216   -1.8147 H   0  0  0  0  0  0  0  0  0  0  0  0
    0.0299    2.6638   -0.9420 H   0  0  0  0  0  0  0  0  0  0  0  0
    1.6864    2.1777    0.2838 C   0  0  0  0  0  0  0  0  0  0  0  0
    1.2639    2.8625    1.1964 O   0  0  0  0  0  0  0  0  0  0  0  0
    2.9897    1.7810    0.3622 N   0  0  0  0  0  0  0  0  0  0  0  0
    3.2537    0.9850   -0.2080 H   0  0  0  0  0  0  0  0  0  0  0  0
    3.3621    1.8230    1.3073 H   0  0  0  0  0  0  0  0  0  0  0  0
    0.6219   -0.3999    1.2943 C   0  0  0  0  0  0  0  0  0  0  0  0
    1.7674   -0.5432    1.7032 O   0  0  0  0  0  0  0  0  0  0  0  0
   -0.3635    0.0419    2.1580 N   0  0  0  0  0  0  0  0  0  0  0  0
   -1.2802    0.2229    1.7662 H   0  0  0  0  0  0  0  0  0  0  0  0
   -0.0871    0.4574    3.5270 C   0  0  0  0  0  0  0  0  0  0  0  0
    0.5903    1.3180    3.5359 H   0  0  0  0  0  0  0  0  0  0  0  0
   -1.0152    0.7420    4.0313 H   0  0  0  0  0  0  0  0  0  0  0  0
    0.3744   -0.3610    4.0897 H   0  0  0  0  0  0  0  0  0  0  0  0
  1  2  1  0  0  0  0
  2  3  1  0  0  0  0
  2  4  1  0  0  0  0
  2  5  1  0  0  0  0
  5  6  2  0  0  0  0
  5  7  1  0  0  0  0
  7  8  1  0  0  0  0
  7  9  1  0  0  0  0
  9 10  1  0  0  0  0
  9 11  1  0  0  0  0
  9 22  1  0  0  0  0
 11 12  1  0  0  0  0
 11 13  1  0  0  0  0
 11 14  1  0  0  0  0
 14 15  1  0  0  0  0
 14 16  1  0  0  0  0
 14 17  1  0  0  0  0
 17 18  2  0  0  0  0
 17 19  1  0  0  0  0
 19 20  1  0  0  0  0
 19 21  1  0  0  0  0
 22 23  2  0  0  0  0
 22 24  1  0  0  0  0
 24 25  1  0  0  0  0
 24 26  1  0  0  0  0
 26 27  1  0  0  0  0
 26 28  1  0  0  0  0
 26 29  1  0  0  0  0
M  END
$$$$

  -OEChem-02102214123D

 29 28  0     1  0  0  0  0  0999 V2000
   -2.7830   -4.1065    0.8708 H   0  0  0  0  0  0  0  0  0  0  0  0
   -2.6980   -3.1978    0.2677 C   0  0  0  0  0  0  0  0  0  0  0  0
   -3.4799   -2.4988    0.5734 H   0  0  0  0  0  0  0  0  0  0  0  0
   -2.8417   -3.4606   -0.7831 H   0  0  0  0  0  0  0  0  0  0  0  0
   -1.3314   -2.5681    0.4633 C   0  0  0  0  0  0  0  0  0  0  0  0
   -0.5441   -3.0726    1.2414 O   0  0  0  0  0  0  0  0  0  0  0  0
   -1.0018   -1.4261   -0.2452 N   0  0  0  0  0  0  0  0  0  0  0  0
   -1.6679   -1.1498   -0.9604 H   0  0  0  0  0  0  0  0  0  0  0  0
    0.3480   -0.8171   -0.2886 C   0  0  1  0  0  0  0  0  0  0  0  0
    1.0862   -1.5316   -0.6715 H   0  0  0  0  0  0  0  0  0  0  0  0
    0.2036    0.3709   -1.2905 C   0  0  0  0  0  0  0  0  0  0  0  0
    0.3838   -0.0586   -2.2820 H   0  0  0  0  0  0  0  0  0  0  0  0
   -0.8386    0.7075   -1.2829 H   0  0  0  0  0  0  0  0  0  0  0  0
    1.0510    1.6738   -1.2122 C   0  0  0  0  0  0  0  0  0  0  0  0
    1.3345    1.9589   -2.2298 H   0  0  0  0  0  0  0  0  0  0  0  0
    0.4012    2.4689   -0.8364 H   0  0  0  0  0  0  0  0  0  0  0  0
    2.3140    1.7163   -0.3579 C   0  0  0  0  0  0  0  0  0  0  0  0
    3.3869    1.4143   -0.8422 O   0  0  0  0  0  0  0  0  0  0  0  0
    2.3452    2.2663    0.8915 N   0  0  0  0  0  0  0  0  0  0  0  0
    1.4767    2.2432    1.4142 H   0  0  0  0  0  0  0  0  0  0  0  0
    3.2043    2.0526    1.3918 H   0  0  0  0  0  0  0  0  0  0  0  0
    0.7846   -0.4190    1.1436 C   0  0  0  0  0  0  0  0  0  0  0  0
    1.9214   -0.6331    1.5378 O   0  0  0  0  0  0  0  0  0  0  0  0
   -0.1049    0.2321    1.9820 N   0  0  0  0  0  0  0  0  0  0  0  0
   -1.0765    0.1872    1.6917 H   0  0  0  0  0  0  0  0  0  0  0  0
    0.1750    0.4260    3.4005 C   0  0  0  0  0  0  0  0  0  0  0  0
    1.0968    1.0009    3.5385 H   0  0  0  0  0  0  0  0  0  0  0  0
   -0.6446    0.9724    3.8768 H   0  0  0  0  0  0  0  0  0  0  0  0
    0.2866   -0.5414    3.9022 H   0  0  0  0  0  0  0  0  0  0  0  0
  1  2  1  0  0  0  0
  2  3  1  0  0  0  0
  2  4  1  0  0  0  0
  2  5  1  0  0  0  0
  5  6  2  0  0  0  0
  5  7  1  0  0  0  0
  7  8  1  0  0  0  0
  7  9  1  0  0  0  0
  9 10  1  0  0  0  0
  9 11  1  0  0  0  0
  9 22  1  0  0  0  0
 11 12  1  0  0  0  0
 11 13  1  0  0  0  0
 11 14  1  0  0  0  0
 14 15  1  0  0  0  0
 14 16  1  0  0  0  0
 14 17  1  0  0  0  0
 17 18  2  0  0  0  0
 17 19  1  0  0  0  0
 19 20  1  0  0  0  0
 19 21  1  0  0  0  0
 22 23  2  0  0  0  0
 22 24  1  0  0  0  0
 24 25  1  0  0  0  0
 24 26  1  0  0  0  0
 26 27  1  0  0  0  0
 26 28  1  0  0  0  0
 26 29  1  0  0  0  0
M  END
$$$$

  -OEChem-02102214123D

 29 28  0     1  0  0  0  0  0999 V2000
   -2.8505   -4.0442    0.7637 H   0  0  0  0  0  0  0  0  0  0  0  0
   -2.7393   -3.1417    0.1555 C   0  0  0  0  0  0  0  0  0  0  0  0
   -3.5222   -2.4322    0.4339 H   0  0  0  0  0  0  0  0  0  0  0  0
   -2.8571   -3.4121   -0.8967 H   0  0  0  0  0  0  0  0  0  0  0  0
   -1.3721   -2.5245    0.3837 C   0  0  0  0  0  0  0  0  0  0  0  0
   -0.6094   -3.0355    1.1818 O   0  0  0  0  0  0  0  0  0  0  0  0
   -1.0167   -1.3841   -0.3148 N   0  0  0  0  0  0  0  0  0  0  0  0
   -1.6587   -1.1073   -1.0514 H   0  0  0  0  0  0  0  0  0  0  0  0
    0.3379   -0.7851   -0.3236 C   0  0  1  0  0  0  0  0  0  0  0  0
    1.0844   -1.4931   -0.7019 H   0  0  0  0  0  0  0  0  0  0  0  0
    0.2182    0.4318   -1.2905 C   0  0  0  0  0  0  0  0  0  0  0  0
    0.4202    0.0393   -2.2932 H   0  0  0  0  0  0  0  0  0  0  0  0
   -0.8170    0.7896   -1.2927 H   0  0  0  0  0  0  0  0  0  0  0  0
    1.1004    1.6960   -1.1168 C   0  0  0  0  0  0  0  0  0  0  0  0
    1.2116    2.1894   -2.0866 H   0  0  0  0  0  0  0  0  0  0  0  0
    0.5664    2.3918   -0.4638 H   0  0  0  0  0  0  0  0  0  0  0  0
    2.4904    1.5026   -0.5189 C   0  0  0  0  0  0  0  0  0  0  0  0
    3.3576    0.9490   -1.1665 O   0  0  0  0  0  0  0  0  0  0  0  0
    2.8644    2.0313    0.6827 N   0  0  0  0  0  0  0  0  0  0  0  0
    3.7323    1.6334    1.0321 H   0  0  0  0  0  0  0  0  0  0  0  0
    2.1198    2.1904    1.3520 H   0  0  0  0  0  0  0  0  0  0  0  0
    0.7372   -0.3933    1.1238 C   0  0  0  0  0  0  0  0  0  0  0  0
    1.8611   -0.6079    1.5546 O   0  0  0  0  0  0  0  0  0  0  0  0
   -0.1732    0.2613    1.9360 N   0  0  0  0  0  0  0  0  0  0  0  0
   -1.1359    0.2287    1.6165 H   0  0  0  0  0  0  0  0  0  0  0  0
    0.0706    0.4795    3.3571 C   0  0  0  0  0  0  0  0  0  0  0  0
    0.9839    1.0650    3.5060 H   0  0  0  0  0  0  0  0  0  0  0  0
   -0.7645    1.0264    3.8051 H   0  0  0  0  0  0  0  0  0  0  0  0
    0.1787   -0.4786    3.8769 H   0  0  0  0  0  0  0  0  0  0  0  0
  1  2  1  0  0  0  0
  2  3  1  0  0  0  0
  2  4  1  0  0  0  0
  2  5  1  0  0  0  0
  5  6  2  0  0  0  0
  5  7  1  0  0  0  0
  7  8  1  0  0  0  0
  7  9  1  0  0  0  0
  9 10  1  0  0  0  0
  9 11  1  0  0  0  0
  9 22  1  0  0  0  0
 11 12  1  0  0  0  0
 11 13  1  0  0  0  0
 11 14  1  0  0  0  0
 14 15  1  0  0  0  0
 14 16  1  0  0  0  0
 14 17  1  0  0  0  0
 17 18  2  0  0  0  0
 17 19  1  0  0  0  0
 19 20  1  0  0  0  0
 19 21  1  0  0  0  0
 22 23  2  0  0  0  0
 22 24  1  0  0  0  0
 24 25  1  0  0  0  0
 24 26  1  0  0  0  0
 26 27  1  0  0  0  0
 26 28  1  0  0  0  0
 26 29  1  0  0  0  0
M  END
$$$$

  -OEChem-02102214123D

 29 28  0     1  0  0  0  0  0999 V2000
   -2.6950   -4.1495    0.7296 H   0  0  0  0  0  0  0  0  0  0  0  0
   -2.6373   -3.2372    0.1287 C   0  0  0  0  0  0  0  0  0  0  0  0
   -3.4601   -2.5770    0.4126 H   0  0  0  0  0  0  0  0  0  0  0  0
   -2.7395   -3.5057   -0.9255 H   0  0  0  0  0  0  0  0  0  0  0  0
   -1.3083   -2.5432    0.3621 C   0  0  0  0  0  0  0  0  0  0  0  0
   -0.5162   -3.0159    1.1557 O   0  0  0  0  0  0  0  0  0  0  0  0
   -1.0143   -1.3832   -0.3326 N   0  0  0  0  0  0  0  0  0  0  0  0
   -1.6699   -1.1377   -1.0685 H   0  0  0  0  0  0  0  0  0  0  0  0
    0.3116   -0.7248   -0.3488 C   0  0  1  0  0  0  0  0  0  0  0  0
    1.0829   -1.3967   -0.7430 H   0  0  0  0  0  0  0  0  0  0  0  0
    0.1441    0.5046   -1.2869 C   0  0  0  0  0  0  0  0  0  0  0  0
    0.3430    0.1556   -2.3062 H   0  0  0  0  0  0  0  0  0  0  0  0
   -0.8977    0.8402   -1.2593 H   0  0  0  0  0  0  0  0  0  0  0  0
    1.0076    1.7659   -1.0477 C   0  0  0  0  0  0  0  0  0  0  0  0
    0.9253    2.4298   -1.9129 H   0  0  0  0  0  0  0  0  0  0  0  0
    0.6111    2.3074   -0.1843 H   0  0  0  0  0  0  0  0  0  0  0  0
    2.4884    1.4907   -0.7930 C   0  0  0  0  0  0  0  0  0  0  0  0
    3.1727    0.9959   -1.6683 O   0  0  0  0  0  0  0  0  0  0  0  0
    3.1407    1.8751    0.3416 N   0  0  0  0  0  0  0  0  0  0  0  0
    4.0698    1.4704    0.4121 H   0  0  0  0  0  0  0  0  0  0  0  0
    2.5753    1.8749    1.1853 H   0  0  0  0  0  0  0  0  0  0  0  0
    0.7111   -0.3228    1.0971 C   0  0  0  0  0  0  0  0  0  0  0  0
    1.8611   -0.4371    1.4968 O   0  0  0  0  0  0  0  0  0  0  0  0
   -0.2177    0.2862    1.9235 N   0  0  0  0  0  0  0  0  0  0  0  0
   -1.1841    0.2071    1.6241 H   0  0  0  0  0  0  0  0  0  0  0  0
    0.0483    0.5652    3.3297 C   0  0  0  0  0  0  0  0  0  0  0  0
    0.9206    1.2187    3.4351 H   0  0  0  0  0  0  0  0  0  0  0  0
   -0.8117    1.0654    3.7853 H   0  0  0  0  0  0  0  0  0  0  0  0
    0.2383   -0.3660    3.8742 H   0  0  0  0  0  0  0  0  0  0  0  0
  1  2  1  0  0  0  0
  2  3  1  0  0  0  0
  2  4  1  0  0  0  0
  2  5  1  0  0  0  0
  5  6  2  0  0  0  0
  5  7  1  0  0  0  0
  7  8  1  0  0  0  0
  7  9  1  0  0  0  0
  9 10  1  0  0  0  0
  9 11  1  0  0  0  0
  9 22  1  0  0  0  0
 11 12  1  0  0  0  0
 11 13  1  0  0  0  0
 11 14  1  0  0  0  0
 14 15  1  0  0  0  0
 14 16  1  0  0  0  0
 14 17  1  0  0  0  0
 17 18  2  0  0  0  0
 17 19  1  0  0  0  0
 19 20  1  0  0  0  0
 19 21  1  0  0  0  0
 22 23  2  0  0  0  0
 22 24  1  0  0  0  0
 24 25  1  0  0  0  0
 24 26  1  0  0  0  0
 26 27  1  0  0  0  0
 26 28  1  0  0  0  0
 26 29  1  0  0  0  0
M  END
$$$$

  -OEChem-02102214123D

 29 28  0     1  0  0  0  0  0999 V2000
   -2.5598   -4.2123    0.7144 H   0  0  0  0  0  0  0  0  0  0  0  0
   -2.5364   -3.3032    0.1065 C   0  0  0  0  0  0  0  0  0  0  0  0
   -3.3858   -2.6742    0.3830 H   0  0  0  0  0  0  0  0  0  0  0  0
   -2.6248   -3.5838   -0.9459 H   0  0  0  0  0  0  0  0  0  0  0  0
   -1.2367   -2.5551    0.3373 C   0  0  0  0  0  0  0  0  0  0  0  0
   -0.4119   -3.0051    1.1110 O   0  0  0  0  0  0  0  0  0  0  0  0
   -1.0003   -1.3730   -0.3414 N   0  0  0  0  0  0  0  0  0  0  0  0
   -1.6783   -1.1354   -1.0596 H   0  0  0  0  0  0  0  0  0  0  0  0
    0.2936   -0.6561   -0.3521 C   0  0  1  0  0  0  0  0  0  0  0  0
    1.0872   -1.2976   -0.7520 H   0  0  0  0  0  0  0  0  0  0  0  0
    0.0956    0.5733   -1.2818 C   0  0  0  0  0  0  0  0  0  0  0  0
    0.2950    0.2520   -2.3103 H   0  0  0  0  0  0  0  0  0  0  0  0
   -0.9538    0.8825   -1.2386 H   0  0  0  0  0  0  0  0  0  0  0  0
    0.9262    1.8453   -0.9995 C   0  0  0  0  0  0  0  0  0  0  0  0
    0.6626    2.6147   -1.7306 H   0  0  0  0  0  0  0  0  0  0  0  0
    0.6830    2.2454   -0.0115 H   0  0  0  0  0  0  0  0  0  0  0  0
    2.4342    1.6087   -1.0858 C   0  0  0  0  0  0  0  0  0  0  0  0
    2.9605    1.4230   -2.1669 O   0  0  0  0  0  0  0  0  0  0  0  0
    3.2751    1.6506   -0.0145 N   0  0  0  0  0  0  0  0  0  0  0  0
    4.2132    1.3283   -0.2292 H   0  0  0  0  0  0  0  0  0  0  0  0
    2.8665    1.3372    0.8674 H   0  0  0  0  0  0  0  0  0  0  0  0
    0.6885   -0.2542    1.0951 C   0  0  0  0  0  0  0  0  0  0  0  0
    1.8571   -0.2649    1.4578 O   0  0  0  0  0  0  0  0  0  0  0  0
   -0.2583    0.3020    1.9375 N   0  0  0  0  0  0  0  0  0  0  0  0
   -1.2256    0.1672    1.6618 H   0  0  0  0  0  0  0  0  0  0  0  0
    0.0258    0.6450    3.3258 C   0  0  0  0  0  0  0  0  0  0  0  0
    0.8366    1.3788    3.3828 H   0  0  0  0  0  0  0  0  0  0  0  0
   -0.8615    1.0773    3.7980 H   0  0  0  0  0  0  0  0  0  0  0  0
    0.3188   -0.2483    3.8875 H   0  0  0  0  0  0  0  0  0  0  0  0
  1  2  1  0  0  0  0
  2  3  1  0  0  0  0
  2  4  1  0  0  0  0
  2  5  1  0  0  0  0
  5  6  2  0  0  0  0
  5  7  1  0  0  0  0
  7  8  1  0  0  0  0
  7  9  1  0  0  0  0
  9 10  1  0  0  0  0
  9 11  1  0  0  0  0
  9 22  1  0  0  0  0
 11 12  1  0  0  0  0
 11 13  1  0  0  0  0
 11 14  1  0  0  0  0
 14 15  1  0  0  0  0
 14 16  1  0  0  0  0
 14 17  1  0  0  0  0
 17 18  2  0  0  0  0
 17 19  1  0  0  0  0
 19 20  1  0  0  0  0
 19 21  1  0  0  0  0
 22 23  2  0  0  0  0
 22 24  1  0  0  0  0
 24 25  1  0  0  0  0
 24 26  1  0  0  0  0
 26 27  1  0  0  0  0
 26 28  1  0  0  0  0
 26 29  1  0  0  0  0
M  END
$$$$

  -OEChem-02102214123D

 29 28  0     1  0  0  0  0  0999 V2000
   -2.4475   -4.2664    0.6636 H   0  0  0  0  0  0  0  0  0  0  0  0
   -2.4527   -3.3574    0.0552 C   0  0  0  0  0  0  0  0  0  0  0  0
   -3.3220   -2.7557    0.3304 H   0  0  0  0  0  0  0  0  0  0  0  0
   -2.5307   -3.6406   -0.9973 H   0  0  0  0  0  0  0  0  0  0  0  0
   -1.1779   -2.5681    0.2872 C   0  0  0  0  0  0  0  0  0  0  0  0
   -0.3243   -3.0057    1.0367 O   0  0  0  0  0  0  0  0  0  0  0  0
   -0.9958   -1.3573   -0.3555 N   0  0  0  0  0  0  0  0  0  0  0  0
   -1.6961   -1.1121   -1.0496 H   0  0  0  0  0  0  0  0  0  0  0  0
    0.2650   -0.5862   -0.3392 C   0  0  1  0  0  0  0  0  0  0  0  0
    1.0769   -1.2051   -0.7381 H   0  0  0  0  0  0  0  0  0  0  0  0
    0.0645    0.6329   -1.2807 C   0  0  0  0  0  0  0  0  0  0  0  0
    0.2894    0.3251   -2.3083 H   0  0  0  0  0  0  0  0  0  0  0  0
   -0.9933    0.9142   -1.2550 H   0  0  0  0  0  0  0  0  0  0  0  0
    0.8532    1.9202   -0.9529 C   0  0  0  0  0  0  0  0  0  0  0  0
    0.4383    2.7449   -1.5395 H   0  0  0  0  0  0  0  0  0  0  0  0
    0.7567    2.2036    0.0979 H   0  0  0  0  0  0  0  0  0  0  0  0
    2.3271    1.7883   -1.3280 C   0  0  0  0  0  0  0  0  0  0  0  0
    2.6833    1.8838   -2.4875 O   0  0  0  0  0  0  0  0  0  0  0  0
    3.3031    1.5084   -0.4184 N   0  0  0  0  0  0  0  0  0  0  0  0
    4.1923    1.2268   -0.8178 H   0  0  0  0  0  0  0  0  0  0  0  0
    3.0029    1.0793    0.4605 H   0  0  0  0  0  0  0  0  0  0  0  0
    0.6703   -0.1951    1.1058 C   0  0  0  0  0  0  0  0  0  0  0  0
    1.8529   -0.1139    1.4151 O   0  0  0  0  0  0  0  0  0  0  0  0
   -0.2805    0.3058    1.9767 N   0  0  0  0  0  0  0  0  0  0  0  0
   -1.2476    0.1201    1.7313 H   0  0  0  0  0  0  0  0  0  0  0  0
    0.0285    0.6925    3.3478 C   0  0  0  0  0  0  0  0  0  0  0  0
    0.7838    1.4853    3.3630 H   0  0  0  0  0  0  0  0  0  0  0  0
   -0.8710    1.0656    3.8466 H   0  0  0  0  0  0  0  0  0  0  0  0
    0.4079   -0.1666    3.9112 H   0  0  0  0  0  0  0  0  0  0  0  0
  1  2  1  0  0  0  0
  2  3  1  0  0  0  0
  2  4  1  0  0  0  0
  2  5  1  0  0  0  0
  5  6  2  0  0  0  0
  5  7  1  0  0  0  0
  7  8  1  0  0  0  0
  7  9  1  0  0  0  0
  9 10  1  0  0  0  0
  9 11  1  0  0  0  0
  9 22  1  0  0  0  0
 11 12  1  0  0  0  0
 11 13  1  0  0  0  0
 11 14  1  0  0  0  0
 14 15  1  0  0  0  0
 14 16  1  0  0  0  0
 14 17  1  0  0  0  0
 17 18  2  0  0  0  0
 17 19  1  0  0  0  0
 19 20  1  0  0  0  0
 19 21  1  0  0  0  0
 22 23  2  0  0  0  0
 22 24  1  0  0  0  0
 24 25  1  0  0  0  0
 24 26  1  0  0  0  0
 26 27  1  0  0  0  0
 26 28  1  0  0  0  0
 26 29  1  0  0  0  0
M  END
$$$$

  -OEChem-02102214123D

 29 28  0     1  0  0  0  0  0999 V2000
   -2.3679   -4.3299    0.5613 H   0  0  0  0  0  0  0  0  0  0  0  0
   -2.3920   -3.4163   -0.0400 C   0  0  0  0  0  0  0  0  0  0  0  0
   -3.2904   -2.8506    0.2182 H   0  0  0  0  0  0  0  0  0  0  0  0
   -2.4333   -3.6926   -1.0963 H   0  0  0  0  0  0  0  0  0  0  0  0
   -1.1540   -2.5816    0.2291 C   0  0  0  0  0  0  0  0  0  0  0  0
   -0.2872   -3.0045    0.9723 O   0  0  0  0  0  0  0  0  0  0  0  0
   -1.0215   -1.3401   -0.3641 N   0  0  0  0  0  0  0  0  0  0  0  0
   -1.7281   -1.0954   -1.0520 H   0  0  0  0  0  0  0  0  0  0  0  0
    0.2088   -0.5259   -0.3110 C   0  0  1  0  0  0  0  0  0  0  0  0
    1.0298   -1.1349   -0.7073 H   0  0  0  0  0  0  0  0  0  0  0  0
    0.0341    0.6787   -1.2750 C   0  0  0  0  0  0  0  0  0  0  0  0
    0.3013    0.3711   -2.2925 H   0  0  0  0  0  0  0  0  0  0  0  0
   -1.0293    0.9388   -1.2922 H   0  0  0  0  0  0  0  0  0  0  0  0
    0.7812    1.9810   -0.9051 C   0  0  0  0  0  0  0  0  0  0  0  0
    0.2361    2.8245   -1.3389 H   0  0  0  0  0  0  0  0  0  0  0  0
    0.8295    2.1721    0.1682 H   0  0  0  0  0  0  0  0  0  0  0  0
    2.1732    1.9930   -1.5182 C   0  0  0  0  0  0  0  0  0  0  0  0
    2.3575    2.2886   -2.6841 O   0  0  0  0  0  0  0  0  0  0  0  0
    3.2471    1.5414   -0.8079 N   0  0  0  0  0  0  0  0  0  0  0  0
    4.0849    1.3356   -1.3421 H   0  0  0  0  0  0  0  0  0  0  0  0
    3.0621    1.0379    0.0633 H   0  0  0  0  0  0  0  0  0  0  0  0
    0.6462   -0.1502    1.1252 C   0  0  0  0  0  0  0  0  0  0  0  0
    1.8395    0.0111    1.3617 O   0  0  0  0  0  0  0  0  0  0  0  0
   -0.2881    0.3006    2.0393 N   0  0  0  0  0  0  0  0  0  0  0  0
   -1.2549    0.0632    1.8409 H   0  0  0  0  0  0  0  0  0  0  0  0
    0.0662    0.7133    3.3916 C   0  0  0  0  0  0  0  0  0  0  0  0
    0.7844    1.5396    3.3659 H   0  0  0  0  0  0  0  0  0  0  0  0
   -0.8248    1.0504    3.9296 H   0  0  0  0  0  0  0  0  0  0  0  0
    0.5103   -0.1225    3.9424 H   0  0  0  0  0  0  0  0  0  0  0  0
  1  2  1  0  0  0  0
  2  3  1  0  0  0  0
  2  4  1  0  0  0  0
  2  5  1  0  0  0  0
  5  6  2  0  0  0  0
  5  7  1  0  0  0  0
  7  8  1  0  0  0  0
  7  9  1  0  0  0  0
  9 10  1  0  0  0  0
  9 11  1  0  0  0  0
  9 22  1  0  0  0  0
 11 12  1  0  0  0  0
 11 13  1  0  0  0  0
 11 14  1  0  0  0  0
 14 15  1  0  0  0  0
 14 16  1  0  0  0  0
 14 17  1  0  0  0  0
 17 18  2  0  0  0  0
 17 19  1  0  0  0  0
 19 20  1  0  0  0  0
 19 21  1  0  0  0  0
 22 23  2  0  0  0  0
 22 24  1  0  0  0  0
 24 25  1  0  0  0  0
 24 26  1  0  0  0  0
 26 27  1  0  0  0  0
 26 28  1  0  0  0  0
 26 29  1  0  0  0  0
M  END
$$$$

  -OEChem-02102214123D

 29 28  0     1  0  0  0  0  0999 V2000
   -2.3523   -4.3532    0.4857 H   0  0  0  0  0  0  0  0  0  0  0  0
   -2.3774   -3.4273   -0.0962 C   0  0  0  0  0  0  0  0  0  0  0  0
   -3.2827   -2.8737    0.1640 H   0  0  0  0  0  0  0  0  0  0  0  0
   -2.4048   -3.6810   -1.1588 H   0  0  0  0  0  0  0  0  0  0  0  0
   -1.1490   -2.5894    0.2049 C   0  0  0  0  0  0  0  0  0  0  0  0
   -0.2873   -3.0226    0.9482 O   0  0  0  0  0  0  0  0  0  0  0  0
   -1.0179   -1.3364   -0.3636 N   0  0  0  0  0  0  0  0  0  0  0  0
   -1.7199   -1.0810   -1.0522 H   0  0  0  0  0  0  0  0  0  0  0  0
    0.2049   -0.5138   -0.2784 C   0  0  1  0  0  0  0  0  0  0  0  0
    1.0361   -1.1103   -0.6720 H   0  0  0  0  0  0  0  0  0  0  0  0
    0.0316    0.7002   -1.2308 C   0  0  0  0  0  0  0  0  0  0  0  0
    0.3087    0.3982   -2.2474 H   0  0  0  0  0  0  0  0  0  0  0  0
   -1.0351    0.9459   -1.2603 H   0  0  0  0  0  0  0  0  0  0  0  0
    0.7535    2.0176   -0.8490 C   0  0  0  0  0  0  0  0  0  0  0  0
    0.0737    2.8521   -1.0444 H   0  0  0  0  0  0  0  0  0  0  0  0
    1.0273    2.0949    0.2030 H   0  0  0  0  0  0  0  0  0  0  0  0
    1.9788    2.2335   -1.7215 C   0  0  0  0  0  0  0  0  0  0  0  0
    1.8907    2.6181   -2.8724 O   0  0  0  0  0  0  0  0  0  0  0  0
    3.2153    1.8649   -1.2761 N   0  0  0  0  0  0  0  0  0  0  0  0
    3.9500    1.8058   -1.9740 H   0  0  0  0  0  0  0  0  0  0  0  0
    3.2770    1.3197   -0.4175 H   0  0  0  0  0  0  0  0  0  0  0  0
    0.6195   -0.1608    1.1693 C   0  0  0  0  0  0  0  0  0  0  0  0
    1.8100   -0.0191    1.4286 O   0  0  0  0  0  0  0  0  0  0  0  0
   -0.3279    0.2670    2.0810 N   0  0  0  0  0  0  0  0  0  0  0  0
   -1.2931    0.0472    1.8572 H   0  0  0  0  0  0  0  0  0  0  0  0
    0.0071    0.6267    3.4530 C   0  0  0  0  0  0  0  0  0  0  0  0
    0.7275    1.4513    3.4689 H   0  0  0  0  0  0  0  0  0  0  0  0
   -0.8910    0.9451    3.9906 H   0  0  0  0  0  0  0  0  0  0  0  0
    0.4414   -0.2308    3.9779 H   0  0  0  0  0  0  0  0  0  0  0  0
  1  2  1  0  0  0  0
  2  3  1  0  0  0  0
  2  4  1  0  0  0  0
  2  5  1  0  0  0  0
  5  6  2  0  0  0  0
  5  7  1  0  0  0  0
  7  8  1  0  0  0  0
  7  9  1  0  0  0  0
  9 10  1  0  0  0  0
  9 11  1  0  0  0  0
  9 22  1  0  0  0  0
 11 12  1  0  0  0  0
 11 13  1  0  0  0  0
 11 14  1  0  0  0  0
 14 15  1  0  0  0  0
 14 16  1  0  0  0  0
 14 17  1  0  0  0  0
 17 18  2  0  0  0  0
 17 19  1  0  0  0  0
 19 20  1  0  0  0  0
 19 21  1  0  0  0  0
 22 23  2  0  0  0  0
 22 24  1  0  0  0  0
 24 25  1  0  0  0  0
 24 26  1  0  0  0  0
 26 27  1  0  0  0  0
 26 28  1  0  0  0  0
 26 29  1  0  0  0  0
M  END
$$$$

  -OEChem-02102214123D

 29 28  0     1  0  0  0  0  0999 V2000
   -2.4228   -4.3260    0.4572 H   0  0  0  0  0  0  0  0  0  0  0  0
   -2.4211   -3.3918   -0.1117 C   0  0  0  0  0  0  0  0  0  0  0  0
   -3.3070   -2.8136    0.1611 H   0  0  0  0  0  0  0  0  0  0  0  0
   -2.4624   -3.6299   -1.1772 H   0  0  0  0  0  0  0  0  0  0  0  0
   -1.1652   -2.5973    0.1937 C   0  0  0  0  0  0  0  0  0  0  0  0
   -0.3159   -3.0671    0.9287 O   0  0  0  0  0  0  0  0  0  0  0  0
   -0.9956   -1.3446   -0.3655 N   0  0  0  0  0  0  0  0  0  0  0  0
   -1.6933   -1.0598   -1.0470 H   0  0  0  0  0  0  0  0  0  0  0  0
    0.2410   -0.5436   -0.2597 C   0  0  1  0  0  0  0  0  0  0  0  0
    1.0767   -1.1292   -0.6595 H   0  0  0  0  0  0  0  0  0  0  0  0
    0.0517    0.7003   -1.1701 C   0  0  0  0  0  0  0  0  0  0  0  0
    0.3299    0.4133   -2.1907 H   0  0  0  0  0  0  0  0  0  0  0  0
   -1.0149    0.9473   -1.1997 H   0  0  0  0  0  0  0  0  0  0  0  0
    0.7806    2.0120   -0.7722 C   0  0  0  0  0  0  0  0  0  0  0  0
    0.0409    2.8033   -0.6206 H   0  0  0  0  0  0  0  0  0  0  0  0
    1.3450    1.9299    0.1560 H   0  0  0  0  0  0  0  0  0  0  0  0
    1.7401    2.4620   -1.8651 C   0  0  0  0  0  0  0  0  0  0  0  0
    1.3399    2.8186   -2.9574 O   0  0  0  0  0  0  0  0  0  0  0  0
    3.0931    2.3732   -1.7066 N   0  0  0  0  0  0  0  0  0  0  0  0
    3.6533    2.4779   -2.5471 H   0  0  0  0  0  0  0  0  0  0  0  0
    3.4585    1.8643   -0.9064 H   0  0  0  0  0  0  0  0  0  0  0  0
    0.6131   -0.2192    1.2080 C   0  0  0  0  0  0  0  0  0  0  0  0
    1.7928   -0.1494    1.5321 O   0  0  0  0  0  0  0  0  0  0  0  0
   -0.3586    0.2117    2.0931 N   0  0  0  0  0  0  0  0  0  0  0  0
   -1.3200    0.0394    1.8182 H   0  0  0  0  0  0  0  0  0  0  0  0
   -0.0740    0.5106    3.4909 C   0  0  0  0  0  0  0  0  0  0  0  0
    0.6767    1.3040    3.5692 H   0  0  0  0  0  0  0  0  0  0  0  0
   -0.9830    0.8468    3.9985 H   0  0  0  0  0  0  0  0  0  0  0  0
    0.3013   -0.3815    4.0034 H   0  0  0  0  0  0  0  0  0  0  0  0
  1  2  1  0  0  0  0
  2  3  1  0  0  0  0
  2  4  1  0  0  0  0
  2  5  1  0  0  0  0
  5  6  2  0  0  0  0
  5  7  1  0  0  0  0
  7  8  1  0  0  0  0
  7  9  1  0  0  0  0
  9 10  1  0  0  0  0
  9 11  1  0  0  0  0
  9 22  1  0  0  0  0
 11 12  1  0  0  0  0
 11 13  1  0  0  0  0
 11 14  1  0  0  0  0
 14 15  1  0  0  0  0
 14 16  1  0  0  0  0
 14 17  1  0  0  0  0
 17 18  2  0  0  0  0
 17 19  1  0  0  0  0
 19 20  1  0  0  0  0
 19 21  1  0  0  0  0
 22 23  2  0  0  0  0
 22 24  1  0  0  0  0
 24 25  1  0  0  0  0
 24 26  1  0  0  0  0
 26 27  1  0  0  0  0
 26 28  1  0  0  0  0
 26 29  1  0  0  0  0
M  END
$$$$

  -OEChem-02102214123D

 29 28  0     1  0  0  0  0  0999 V2000
   -2.5124   -4.3110    0.4520 H   0  0  0  0  0  0  0  0  0  0  0  0
   -2.5015   -3.3637   -0.0944 C   0  0  0  0  0  0  0  0  0  0  0  0
   -3.3647   -2.7700    0.2153 H   0  0  0  0  0  0  0  0  0  0  0  0
   -2.5755   -3.5741   -1.1641 H   0  0  0  0  0  0  0  0  0  0  0  0
   -1.2190   -2.6080    0.1977 C   0  0  0  0  0  0  0  0  0  0  0  0
   -0.3796   -3.1013    0.9285 O   0  0  0  0  0  0  0  0  0  0  0  0
   -1.0163   -1.3626   -0.3670 N   0  0  0  0  0  0  0  0  0  0  0  0
   -1.7082   -1.0607   -1.0471 H   0  0  0  0  0  0  0  0  0  0  0  0
    0.2409   -0.5937   -0.2661 C   0  0  1  0  0  0  0  0  0  0  0  0
    1.0645   -1.1911   -0.6734 H   0  0  0  0  0  0  0  0  0  0  0  0
    0.0609    0.6670   -1.1530 C   0  0  0  0  0  0  0  0  0  0  0  0
    0.3509    0.3825   -2.1711 H   0  0  0  0  0  0  0  0  0  0  0  0
   -0.9986    0.9409   -1.1940 H   0  0  0  0  0  0  0  0  0  0  0  0
    0.8323    1.9443   -0.7307 C   0  0  0  0  0  0  0  0  0  0  0  0
    0.1536    2.6487   -0.2419 H   0  0  0  0  0  0  0  0  0  0  0  0
    1.6290    1.7119   -0.0231 H   0  0  0  0  0  0  0  0  0  0  0  0
    1.5041    2.6239   -1.9188 C   0  0  0  0  0  0  0  0  0  0  0  0
    0.9070    2.8385   -2.9575 O   0  0  0  0  0  0  0  0  0  0  0  0
    2.8240    2.9733   -1.8966 N   0  0  0  0  0  0  0  0  0  0  0  0
    3.2333    3.2384   -2.7876 H   0  0  0  0  0  0  0  0  0  0  0  0
    3.4116    2.6216   -1.1468 H   0  0  0  0  0  0  0  0  0  0  0  0
    0.6127   -0.2783    1.2052 C   0  0  0  0  0  0  0  0  0  0  0  0
    1.7882   -0.2611    1.5496 O   0  0  0  0  0  0  0  0  0  0  0  0
   -0.3546    0.1777    2.0827 N   0  0  0  0  0  0  0  0  0  0  0  0
   -1.3174    0.0428    1.7931 H   0  0  0  0  0  0  0  0  0  0  0  0
   -0.0786    0.4450    3.4883 C   0  0  0  0  0  0  0  0  0  0  0  0
    0.6869    1.2217    3.5882 H   0  0  0  0  0  0  0  0  0  0  0  0
   -0.9860    0.7895    3.9931 H   0  0  0  0  0  0  0  0  0  0  0  0
    0.2738   -0.4639    3.9877 H   0  0  0  0  0  0  0  0  0  0  0  0
  1  2  1  0  0  0  0
  2  3  1  0  0  0  0
  2  4  1  0  0  0  0
  2  5  1  0  0  0  0
  5  6  2  0  0  0  0
  5  7  1  0  0  0  0
  7  8  1  0  0  0  0
  7  9  1  0  0  0  0
  9 10  1  0  0  0  0
  9 11  1  0  0  0  0
  9 22  1  0  0  0  0
 11 12  1  0  0  0  0
 11 13  1  0  0  0  0
 11 14  1  0  0  0  0
 14 15  1  0  0  0  0
 14 16  1  0  0  0  0
 14 17  1  0  0  0  0
 17 18  2  0  0  0  0
 17 19  1  0  0  0  0
 19 20  1  0  0  0  0
 19 21  1  0  0  0  0
 22 23  2  0  0  0  0
 22 24  1  0  0  0  0
 24 25  1  0  0  0  0
 24 26  1  0  0  0  0
 26 27  1  0  0  0  0
 26 28  1  0  0  0  0
 26 29  1  0  0  0  0
M  END
$$$$

  -OEChem-02102214123D

 29 28  0     1  0  0  0  0  0999 V2000
   -2.6148   -4.2973    0.4731 H   0  0  0  0  0  0  0  0  0  0  0  0
   -2.5874   -3.3511   -0.0749 C   0  0  0  0  0  0  0  0  0  0  0  0
   -3.4319   -2.7358    0.2440 H   0  0  0  0  0  0  0  0  0  0  0  0
   -2.6803   -3.5617   -1.1430 H   0  0  0  0  0  0  0  0  0  0  0  0
   -1.2829   -2.6272    0.2005 C   0  0  0  0  0  0  0  0  0  0  0  0
   -0.4504   -3.1380    0.9273 O   0  0  0  0  0  0  0  0  0  0  0  0
   -1.0528   -1.3904   -0.3724 N   0  0  0  0  0  0  0  0  0  0  0  0
   -1.7403   -1.0744   -1.0506 H   0  0  0  0  0  0  0  0  0  0  0  0
    0.2248   -0.6547   -0.2848 C   0  0  1  0  0  0  0  0  0  0  0  0
    1.0285   -1.2728   -0.7005 H   0  0  0  0  0  0  0  0  0  0  0  0
    0.0712    0.6152   -1.1606 C   0  0  0  0  0  0  0  0  0  0  0  0
    0.3586    0.3337   -2.1801 H   0  0  0  0  0  0  0  0  0  0  0  0
   -0.9788    0.9244   -1.1980 H   0  0  0  0  0  0  0  0  0  0  0  0
    0.8943    1.8483   -0.7158 C   0  0  0  0  0  0  0  0  0  0  0  0
    0.3394    2.4289    0.0265 H   0  0  0  0  0  0  0  0  0  0  0  0
    1.8309    1.5213   -0.2581 H   0  0  0  0  0  0  0  0  0  0  0  0
    1.2892    2.7463   -1.8846 C   0  0  0  0  0  0  0  0  0  0  0  0
    0.6273    2.8232   -2.9036 O   0  0  0  0  0  0  0  0  0  0  0  0
    2.4165    3.5156   -1.8434 N   0  0  0  0  0  0  0  0  0  0  0  0
    2.6967    3.9480   -2.7187 H   0  0  0  0  0  0  0  0  0  0  0  0
    3.1007    3.3455   -1.1132 H   0  0  0  0  0  0  0  0  0  0  0  0
    0.6213   -0.3393    1.1804 C   0  0  0  0  0  0  0  0  0  0  0  0
    1.8012   -0.3334    1.5095 O   0  0  0  0  0  0  0  0  0  0  0  0
   -0.3259    0.1482    2.0632 N   0  0  0  0  0  0  0  0  0  0  0  0
   -1.2952    0.0257    1.7894 H   0  0  0  0  0  0  0  0  0  0  0  0
   -0.0242    0.4529    3.4560 C   0  0  0  0  0  0  0  0  0  0  0  0
    0.7703    1.2039    3.5215 H   0  0  0  0  0  0  0  0  0  0  0  0
   -0.9125    0.8482    3.9578 H   0  0  0  0  0  0  0  0  0  0  0  0
    0.3005   -0.4507    3.9828 H   0  0  0  0  0  0  0  0  0  0  0  0
  1  2  1  0  0  0  0
  2  3  1  0  0  0  0
  2  4  1  0  0  0  0
  2  5  1  0  0  0  0
  5  6  2  0  0  0  0
  5  7  1  0  0  0  0
  7  8  1  0  0  0  0
  7  9  1  0  0  0  0
  9 10  1  0  0  0  0
  9 11  1  0  0  0  0
  9 22  1  0  0  0  0
 11 12  1  0  0  0  0
 11 13  1  0  0  0  0
 11 14  1  0  0  0  0
 14 15  1  0  0  0  0
 14 16  1  0  0  0  0
 14 17  1  0  0  0  0
 17 18  2  0  0  0  0
 17 19  1  0  0  0  0
 19 20  1  0  0  0  0
 19 21  1  0  0  0  0
 22 23  2  0  0  0  0
 22 24  1  0  0  0  0
 24 25  1  0  0  0  0
 24 26  1  0  0  0  0
 26 27  1  0  0  0  0
 26 28  1  0  0  0  0
 26 29  1  0  0  0  0
M  END
$$$$

  -OEChem-02102214123D

 29 28  0     1  0  0  0  0  0999 V2000
   -2.6595   -4.3019    0.4424 H   0  0  0  0  0  0  0  0  0  0  0  0
   -2.6305   -3.3446   -0.0859 C   0  0  0  0  0  0  0  0  0  0  0  0
   -3.4756   -2.7359    0.2441 H   0  0  0  0  0  0  0  0  0  0  0  0
   -2.7217   -3.5334   -1.1582 H   0  0  0  0  0  0  0  0  0  0  0  0
   -1.3257   -2.6270    0.2060 C   0  0  0  0  0  0  0  0  0  0  0  0
   -0.5033   -3.1431    0.9407 O   0  0  0  0  0  0  0  0  0  0  0  0
   -1.0807   -1.3924   -0.3655 N   0  0  0  0  0  0  0  0  0  0  0  0
   -1.7625   -1.0693   -1.0462 H   0  0  0  0  0  0  0  0  0  0  0  0
    0.2074   -0.6752   -0.2814 C   0  0  1  0  0  0  0  0  0  0  0  0
    0.9977   -1.3107   -0.6966 H   0  0  0  0  0  0  0  0  0  0  0  0
    0.0852    0.5912   -1.1652 C   0  0  0  0  0  0  0  0  0  0  0  0
    0.3700    0.3116   -2.1857 H   0  0  0  0  0  0  0  0  0  0  0  0
   -0.9581    0.9233   -1.1990 H   0  0  0  0  0  0  0  0  0  0  0  0
    0.9347    1.7987   -0.7105 C   0  0  0  0  0  0  0  0  0  0  0  0
    0.5040    2.2495    0.1879 H   0  0  0  0  0  0  0  0  0  0  0  0
    1.9463    1.4584   -0.4703 H   0  0  0  0  0  0  0  0  0  0  0  0
    1.0602    2.8704   -1.7896 C   0  0  0  0  0  0  0  0  0  0  0  0
    0.3280    2.9166   -2.7616 O   0  0  0  0  0  0  0  0  0  0  0  0
    2.0089    3.8488   -1.7087 N   0  0  0  0  0  0  0  0  0  0  0  0
    2.1372    4.4210   -2.5383 H   0  0  0  0  0  0  0  0  0  0  0  0
    2.7577    3.7521   -1.0304 H   0  0  0  0  0  0  0  0  0  0  0  0
    0.6246   -0.3626    1.1781 C   0  0  0  0  0  0  0  0  0  0  0  0
    1.8103   -0.3482    1.4850 O   0  0  0  0  0  0  0  0  0  0  0  0
   -0.3051    0.1400    2.0710 N   0  0  0  0  0  0  0  0  0  0  0  0
   -1.2792    0.0181    1.8145 H   0  0  0  0  0  0  0  0  0  0  0  0
    0.0212    0.4505    3.4570 C   0  0  0  0  0  0  0  0  0  0  0  0
    0.8139    1.2046    3.5046 H   0  0  0  0  0  0  0  0  0  0  0  0
   -0.8589    0.8440    3.9743 H   0  0  0  0  0  0  0  0  0  0  0  0
    0.3596   -0.4500    3.9803 H   0  0  0  0  0  0  0  0  0  0  0  0
  1  2  1  0  0  0  0
  2  3  1  0  0  0  0
  2  4  1  0  0  0  0
  2  5  1  0  0  0  0
  5  6  2  0  0  0  0
  5  7  1  0  0  0  0
  7  8  1  0  0  0  0
  7  9  1  0  0  0  0
  9 10  1  0  0  0  0
  9 11  1  0  0  0  0
  9 22  1  0  0  0  0
 11 12  1  0  0  0  0
 11 13  1  0  0  0  0
 11 14  1  0  0  0  0
 14 15  1  0  0  0  0
 14 16  1  0  0  0  0
 14 17  1  0  0  0  0
 17 18  2  0  0  0  0
 17 19  1  0  0  0  0
 19 20  1  0  0  0  0
 19 21  1  0  0  0  0
 22 23  2  0  0  0  0
 22 24  1  0  0  0  0
 24 25  1  0  0  0  0
 24 26  1  0  0  0  0
 26 27  1  0  0  0  0
 26 28  1  0  0  0  0
 26 29  1  0  0  0  0
M  END
$$$$

  -OEChem-02102214123D

 29 28  0     1  0  0  0  0  0999 V2000
   -2.7282   -4.2659    0.4614 H   0  0  0  0  0  0  0  0  0  0  0  0
   -2.6849   -3.3076   -0.0639 C   0  0  0  0  0  0  0  0  0  0  0  0
   -3.5069   -2.6782    0.2852 H   0  0  0  0  0  0  0  0  0  0  0  0
   -2.8017   -3.4896   -1.1350 H   0  0  0  0  0  0  0  0  0  0  0  0
   -1.3570   -2.6251    0.2061 C   0  0  0  0  0  0  0  0  0  0  0  0
   -0.5421   -3.1555    0.9390 O   0  0  0  0  0  0  0  0  0  0  0  0
   -1.0837   -1.4029   -0.3784 N   0  0  0  0  0  0  0  0  0  0  0  0
   -1.7643   -1.0617   -1.0517 H   0  0  0  0  0  0  0  0  0  0  0  0
    0.2191   -0.7140   -0.2977 C   0  0  1  0  0  0  0  0  0  0  0  0
    0.9936   -1.3692   -0.7122 H   0  0  0  0  0  0  0  0  0  0  0  0
    0.1182    0.5459   -1.1854 C   0  0  0  0  0  0  0  0  0  0  0  0
    0.1199    0.2361   -2.2363 H   0  0  0  0  0  0  0  0  0  0  0  0
   -0.8392    1.0410   -0.9889 H   0  0  0  0  0  0  0  0  0  0  0  0
    1.2374    1.5858   -0.9592 C   0  0  0  0  0  0  0  0  0  0  0  0
    1.2254    1.9395    0.0753 H   0  0  0  0  0  0  0  0  0  0  0  0
    2.2091    1.1199   -1.1461 H   0  0  0  0  0  0  0  0  0  0  0  0
    1.0937    2.8096   -1.8599 C   0  0  0  0  0  0  0  0  0  0  0  0
    0.1916    2.9362   -2.6683 O   0  0  0  0  0  0  0  0  0  0  0  0
    1.9909    3.8371   -1.8037 N   0  0  0  0  0  0  0  0  0  0  0  0
    1.9289    4.5326   -2.5416 H   0  0  0  0  0  0  0  0  0  0  0  0
    2.8534    3.7128   -1.2834 H   0  0  0  0  0  0  0  0  0  0  0  0
    0.6473   -0.3902    1.1544 C   0  0  0  0  0  0  0  0  0  0  0  0
    1.8349   -0.3908    1.4543 O   0  0  0  0  0  0  0  0  0  0  0  0
   -0.2694    0.1462    2.0407 N   0  0  0  0  0  0  0  0  0  0  0  0
   -1.2467    0.0435    1.7879 H   0  0  0  0  0  0  0  0  0  0  0  0
    0.0661    0.4786    3.4194 C   0  0  0  0  0  0  0  0  0  0  0  0
    0.8682    1.2236    3.4503 H   0  0  0  0  0  0  0  0  0  0  0  0
   -0.8073    0.8927    3.9321 H   0  0  0  0  0  0  0  0  0  0  0  0
    0.3947   -0.4162    3.9585 H   0  0  0  0  0  0  0  0  0  0  0  0
  1  2  1  0  0  0  0
  2  3  1  0  0  0  0
  2  4  1  0  0  0  0
  2  5  1  0  0  0  0
  5  6  2  0  0  0  0
  5  7  1  0  0  0  0
  7  8  1  0  0  0  0
  7  9  1  0  0  0  0
  9 10  1  0  0  0  0
  9 11  1  0  0  0  0
  9 22  1  0  0  0  0
 11 12  1  0  0  0  0
 11 13  1  0  0  0  0
 11 14  1  0  0  0  0
 14 15  1  0  0  0  0
 14 16  1  0  0  0  0
 14 17  1  0  0  0  0
 17 18  2  0  0  0  0
 17 19  1  0  0  0  0
 19 20  1  0  0  0  0
 19 21  1  0  0  0  0
 22 23  2  0  0  0  0
 22 24  1  0  0  0  0
 24 25  1  0  0  0  0
 24 26  1  0  0  0  0
 26 27  1  0  0  0  0
 26 28  1  0  0  0  0
 26 29  1  0  0  0  0
M  END
$$$$

  -OEChem-02102214123D

 29 28  0     1  0  0  0  0  0999 V2000
   -2.7734   -4.2246    0.4816 H   0  0  0  0  0  0  0  0  0  0  0  0
   -2.7152   -3.2614   -0.0333 C   0  0  0  0  0  0  0  0  0  0  0  0
   -3.5126   -2.6144    0.3398 H   0  0  0  0  0  0  0  0  0  0  0  0
   -2.8588   -3.4271   -1.1036 H   0  0  0  0  0  0  0  0  0  0  0  0
   -1.3645   -2.6173    0.2162 C   0  0  0  0  0  0  0  0  0  0  0  0
   -0.5568   -3.1659    0.9435 O   0  0  0  0  0  0  0  0  0  0  0  0
   -1.0654   -1.4059   -0.3776 N   0  0  0  0  0  0  0  0  0  0  0  0
   -1.7469   -1.0465   -1.0401 H   0  0  0  0  0  0  0  0  0  0  0  0
    0.2479   -0.7367   -0.2986 C   0  0  1  0  0  0  0  0  0  0  0  0
    1.0160   -1.4069   -0.7007 H   0  0  0  0  0  0  0  0  0  0  0  0
    0.1638    0.5112   -1.2077 C   0  0  0  0  0  0  0  0  0  0  0  0
    0.1442    0.1964   -2.2564 H   0  0  0  0  0  0  0  0  0  0  0  0
   -0.7904    1.0073   -0.9965 H   0  0  0  0  0  0  0  0  0  0  0  0
    1.2855    1.5593   -1.0145 C   0  0  0  0  0  0  0  0  0  0  0  0
    1.4485    1.7630    0.0458 H   0  0  0  0  0  0  0  0  0  0  0  0
    2.2207    1.1722   -1.4285 H   0  0  0  0  0  0  0  0  0  0  0  0
    0.9601    2.9040   -1.6612 C   0  0  0  0  0  0  0  0  0  0  0  0
   -0.0613    3.1113   -2.2916 O   0  0  0  0  0  0  0  0  0  0  0  0
    1.8173    3.9611   -1.5559 N   0  0  0  0  0  0  0  0  0  0  0  0
    1.4677    4.8608   -1.8723 H   0  0  0  0  0  0  0  0  0  0  0  0
    2.5882    3.9090   -0.8978 H   0  0  0  0  0  0  0  0  0  0  0  0
    0.6654   -0.4103    1.1556 C   0  0  0  0  0  0  0  0  0  0  0  0
    1.8478   -0.4383    1.4736 O   0  0  0  0  0  0  0  0  0  0  0  0
   -0.2527    0.1456    2.0281 N   0  0  0  0  0  0  0  0  0  0  0  0
   -1.2276    0.0624    1.7597 H   0  0  0  0  0  0  0  0  0  0  0  0
    0.0665    0.4563    3.4155 C   0  0  0  0  0  0  0  0  0  0  0  0
    0.8807    1.1867    3.4681 H   0  0  0  0  0  0  0  0  0  0  0  0
   -0.8081    0.8792    3.9190 H   0  0  0  0  0  0  0  0  0  0  0  0
    0.3710   -0.4503    3.9493 H   0  0  0  0  0  0  0  0  0  0  0  0
  1  2  1  0  0  0  0
  2  3  1  0  0  0  0
  2  4  1  0  0  0  0
  2  5  1  0  0  0  0
  5  6  2  0  0  0  0
  5  7  1  0  0  0  0
  7  8  1  0  0  0  0
  7  9  1  0  0  0  0
  9 10  1  0  0  0  0
  9 11  1  0  0  0  0
  9 22  1  0  0  0  0
 11 12  1  0  0  0  0
 11 13  1  0  0  0  0
 11 14  1  0  0  0  0
 14 15  1  0  0  0  0
 14 16  1  0  0  0  0
 14 17  1  0  0  0  0
 17 18  2  0  0  0  0
 17 19  1  0  0  0  0
 19 20  1  0  0  0  0
 19 21  1  0  0  0  0
 22 23  2  0  0  0  0
 22 24  1  0  0  0  0
 24 25  1  0  0  0  0
 24 26  1  0  0  0  0
 26 27  1  0  0  0  0
 26 28  1  0  0  0  0
 26 29  1  0  0  0  0
M  END
$$$$

  -OEChem-02102214123D

 29 28  0     1  0  0  0  0  0999 V2000
   -2.8050   -4.1877    0.5332 H   0  0  0  0  0  0  0  0  0  0  0  0
   -2.7293   -3.2416   -0.0105 C   0  0  0  0  0  0  0  0  0  0  0  0
   -3.5193   -2.5722    0.3382 H   0  0  0  0  0  0  0  0  0  0  0  0
   -2.8697   -3.4375   -1.0762 H   0  0  0  0  0  0  0  0  0  0  0  0
   -1.3700   -2.6108    0.2273 C   0  0  0  0  0  0  0  0  0  0  0  0
   -0.5623   -3.1684    0.9478 O   0  0  0  0  0  0  0  0  0  0  0  0
   -1.0604   -1.4063   -0.3760 N   0  0  0  0  0  0  0  0  0  0  0  0
   -1.7461   -1.0367   -1.0287 H   0  0  0  0  0  0  0  0  0  0  0  0
    0.2606   -0.7501   -0.3078 C   0  0  1  0  0  0  0  0  0  0  0  0
    1.0226   -1.4272   -0.7093 H   0  0  0  0  0  0  0  0  0  0  0  0
    0.1760    0.4936   -1.2258 C   0  0  0  0  0  0  0  0  0  0  0  0
    0.1320    0.1761   -2.2730 H   0  0  0  0  0  0  0  0  0  0  0  0
   -0.7767    0.9837   -0.9962 H   0  0  0  0  0  0  0  0  0  0  0  0
    1.2997    1.5517   -1.0662 C   0  0  0  0  0  0  0  0  0  0  0  0
    1.6742    1.5814   -0.0427 H   0  0  0  0  0  0  0  0  0  0  0  0
    2.1408    1.2833   -1.7112 H   0  0  0  0  0  0  0  0  0  0  0  0
    0.8475    2.9748   -1.3903 C   0  0  0  0  0  0  0  0  0  0  0  0
   -0.2066    3.2313   -1.9439 O   0  0  0  0  0  0  0  0  0  0  0  0
    1.6234    4.0511   -1.0691 N   0  0  0  0  0  0  0  0  0  0  0  0
    1.1918    4.9650   -1.1694 H   0  0  0  0  0  0  0  0  0  0  0  0
    2.4179    3.9211   -0.4510 H   0  0  0  0  0  0  0  0  0  0  0  0
    0.6789   -0.4222    1.1470 C   0  0  0  0  0  0  0  0  0  0  0  0
    1.8574   -0.4829    1.4751 O   0  0  0  0  0  0  0  0  0  0  0  0
   -0.2327    0.1466    2.0182 N   0  0  0  0  0  0  0  0  0  0  0  0
   -1.2080    0.0913    1.7437 H   0  0  0  0  0  0  0  0  0  0  0  0
    0.0885    0.4576    3.4052 C   0  0  0  0  0  0  0  0  0  0  0  0
    0.9199    1.1684    3.4565 H   0  0  0  0  0  0  0  0  0  0  0  0
   -0.7771    0.9045    3.9033 H   0  0  0  0  0  0  0  0  0  0  0  0
    0.3693   -0.4527    3.9454 H   0  0  0  0  0  0  0  0  0  0  0  0
  1  2  1  0  0  0  0
  2  3  1  0  0  0  0
  2  4  1  0  0  0  0
  2  5  1  0  0  0  0
  5  6  2  0  0  0  0
  5  7  1  0  0  0  0
  7  8  1  0  0  0  0
  7  9  1  0  0  0  0
  9 10  1  0  0  0  0
  9 11  1  0  0  0  0
  9 22  1  0  0  0  0
 11 12  1  0  0  0  0
 11 13  1  0  0  0  0
 11 14  1  0  0  0  0
 14 15  1  0  0  0  0
 14 16  1  0  0  0  0
 14 17  1  0  0  0  0
 17 18  2  0  0  0  0
 17 19  1  0  0  0  0
 19 20  1  0  0  0  0
 19 21  1  0  0  0  0
 22 23  2  0  0  0  0
 22 24  1  0  0  0  0
 24 25  1  0  0  0  0
 24 26  1  0  0  0  0
 26 27  1  0  0  0  0
 26 28  1  0  0  0  0
 26 29  1  0  0  0  0
M  END
$$$$

  -OEChem-02102214123D

 29 28  0     1  0  0  0  0  0999 V2000
   -2.8052   -4.1517    0.6226 H   0  0  0  0  0  0  0  0  0  0  0  0
   -2.7274   -3.2258    0.0452 C   0  0  0  0  0  0  0  0  0  0  0  0
   -3.5105   -2.5392    0.3751 H   0  0  0  0  0  0  0  0  0  0  0  0
   -2.8761   -3.4589   -1.0119 H   0  0  0  0  0  0  0  0  0  0  0  0
   -1.3624   -2.5960    0.2506 C   0  0  0  0  0  0  0  0  0  0  0  0
   -0.5443   -3.1469    0.9644 O   0  0  0  0  0  0  0  0  0  0  0  0
   -1.0550   -1.4057   -0.3816 N   0  0  0  0  0  0  0  0  0  0  0  0
   -1.7508   -1.0419   -1.0269 H   0  0  0  0  0  0  0  0  0  0  0  0
    0.2713   -0.7563   -0.3446 C   0  0  1  0  0  0  0  0  0  0  0  0
    1.0269   -1.4392   -0.7488 H   0  0  0  0  0  0  0  0  0  0  0  0
    0.1702    0.4835   -1.2665 C   0  0  0  0  0  0  0  0  0  0  0  0
    0.1105    0.1542   -2.3091 H   0  0  0  0  0  0  0  0  0  0  0  0
   -0.7811    0.9740   -1.0327 H   0  0  0  0  0  0  0  0  0  0  0  0
    1.3021    1.5400   -1.1397 C   0  0  0  0  0  0  0  0  0  0  0  0
    1.9061    1.3818   -0.2470 H   0  0  0  0  0  0  0  0  0  0  0  0
    1.9779    1.4373   -1.9931 H   0  0  0  0  0  0  0  0  0  0  0  0
    0.7955    2.9804   -1.0959 C   0  0  0  0  0  0  0  0  0  0  0  0
   -0.2319    3.3369   -1.6437 O   0  0  0  0  0  0  0  0  0  0  0  0
    1.4734    3.9494   -0.4135 N   0  0  0  0  0  0  0  0  0  0  0  0
    0.9925    4.8356   -0.2908 H   0  0  0  0  0  0  0  0  0  0  0  0
    2.2168    3.6754    0.2215 H   0  0  0  0  0  0  0  0  0  0  0  0
    0.7013   -0.4058    1.1029 C   0  0  0  0  0  0  0  0  0  0  0  0
    1.8777   -0.4855    1.4342 O   0  0  0  0  0  0  0  0  0  0  0  0
   -0.2022    0.1835    1.9691 N   0  0  0  0  0  0  0  0  0  0  0  0
   -1.1782    0.1420    1.6943 H   0  0  0  0  0  0  0  0  0  0  0  0
    0.1237    0.5073    3.3521 C   0  0  0  0  0  0  0  0  0  0  0  0
    0.9724    1.1980    3.3961 H   0  0  0  0  0  0  0  0  0  0  0  0
   -0.7316    0.9834    3.8407 H   0  0  0  0  0  0  0  0  0  0  0  0
    0.3802   -0.4016    3.9063 H   0  0  0  0  0  0  0  0  0  0  0  0
  1  2  1  0  0  0  0
  2  3  1  0  0  0  0
  2  4  1  0  0  0  0
  2  5  1  0  0  0  0
  5  6  2  0  0  0  0
  5  7  1  0  0  0  0
  7  8  1  0  0  0  0
  7  9  1  0  0  0  0
  9 10  1  0  0  0  0
  9 11  1  0  0  0  0
  9 22  1  0  0  0  0
 11 12  1  0  0  0  0
 11 13  1  0  0  0  0
 11 14  1  0  0  0  0
 14 15  1  0  0  0  0
 14 16  1  0  0  0  0
 14 17  1  0  0  0  0
 17 18  2  0  0  0  0
 17 19  1  0  0  0  0
 19 20  1  0  0  0  0
 19 21  1  0  0  0  0
 22 23  2  0  0  0  0
 22 24  1  0  0  0  0
 24 25  1  0  0  0  0
 24 26  1  0  0  0  0
 26 27  1  0  0  0  0
 26 28  1  0  0  0  0
 26 29  1  0  0  0  0
M  END
$$$$

  -OEChem-02102214123D

 29 28  0     1  0  0  0  0  0999 V2000
   -2.7695   -4.0729    0.7508 H   0  0  0  0  0  0  0  0  0  0  0  0
   -2.6991   -3.1727    0.1333 C   0  0  0  0  0  0  0  0  0  0  0  0
   -3.4762   -2.4713    0.4462 H   0  0  0  0  0  0  0  0  0  0  0  0
   -2.8651   -3.4496   -0.9106 H   0  0  0  0  0  0  0  0  0  0  0  0
   -1.3297   -2.5381    0.2907 C   0  0  0  0  0  0  0  0  0  0  0  0
   -0.5010   -3.0601    1.0138 O   0  0  0  0  0  0  0  0  0  0  0  0
   -1.0337   -1.3707   -0.3881 N   0  0  0  0  0  0  0  0  0  0  0  0
   -1.7347   -1.0423   -1.0463 H   0  0  0  0  0  0  0  0  0  0  0  0
    0.2962   -0.7285   -0.4090 C   0  0  1  0  0  0  0  0  0  0  0  0
    1.0403   -1.4172   -0.8245 H   0  0  0  0  0  0  0  0  0  0  0  0
    0.1623    0.5060   -1.3304 C   0  0  0  0  0  0  0  0  0  0  0  0
    0.0918    0.1571   -2.3660 H   0  0  0  0  0  0  0  0  0  0  0  0
   -0.7829    1.0116   -1.1017 H   0  0  0  0  0  0  0  0  0  0  0  0
    1.3134    1.5386   -1.2379 C   0  0  0  0  0  0  0  0  0  0  0  0
    2.1221    1.2107   -0.5835 H   0  0  0  0  0  0  0  0  0  0  0  0
    1.7582    1.6524   -2.2306 H   0  0  0  0  0  0  0  0  0  0  0  0
    0.8199    2.9119   -0.8029 C   0  0  0  0  0  0  0  0  0  0  0  0
   -0.0161    3.5276   -1.4379 O   0  0  0  0  0  0  0  0  0  0  0  0
    1.1841    3.4411    0.4013 N   0  0  0  0  0  0  0  0  0  0  0  0
    0.6477    4.2400    0.7249 H   0  0  0  0  0  0  0  0  0  0  0  0
    1.6744    2.8471    1.0648 H   0  0  0  0  0  0  0  0  0  0  0  0
    0.7629   -0.3363    1.0180 C   0  0  0  0  0  0  0  0  0  0  0  0
    1.9473   -0.3894    1.3240 O   0  0  0  0  0  0  0  0  0  0  0  0
   -0.1197    0.2834    1.8851 N   0  0  0  0  0  0  0  0  0  0  0  0
   -1.1024    0.2125    1.6410 H   0  0  0  0  0  0  0  0  0  0  0  0
    0.2326    0.6236    3.2579 C   0  0  0  0  0  0  0  0  0  0  0  0
    1.0749    1.3229    3.2777 H   0  0  0  0  0  0  0  0  0  0  0  0
   -0.6173    1.0949    3.7605 H   0  0  0  0  0  0  0  0  0  0  0  0
    0.5102   -0.2776    3.8150 H   0  0  0  0  0  0  0  0  0  0  0  0
  1  2  1  0  0  0  0
  2  3  1  0  0  0  0
  2  4  1  0  0  0  0
  2  5  1  0  0  0  0
  5  6  2  0  0  0  0
  5  7  1  0  0  0  0
  7  8  1  0  0  0  0
  7  9  1  0  0  0  0
  9 10  1  0  0  0  0
  9 11  1  0  0  0  0
  9 22  1  0  0  0  0
 11 12  1  0  0  0  0
 11 13  1  0  0  0  0
 11 14  1  0  0  0  0
 14 15  1  0  0  0  0
 14 16  1  0  0  0  0
 14 17  1  0  0  0  0
 17 18  2  0  0  0  0
 17 19  1  0  0  0  0
 19 20  1  0  0  0  0
 19 21  1  0  0  0  0
 22 23  2  0  0  0  0
 22 24  1  0  0  0  0
 24 25  1  0  0  0  0
 24 26  1  0  0  0  0
 26 27  1  0  0  0  0
 26 28  1  0  0  0  0
 26 29  1  0  0  0  0
M  END
$$$$

  -OEChem-02102214123D

 29 28  0     1  0  0  0  0  0999 V2000
   -2.6533   -4.1331    0.7673 H   0  0  0  0  0  0  0  0  0  0  0  0
   -2.6296   -3.2170    0.1703 C   0  0  0  0  0  0  0  0  0  0  0  0
   -3.4076   -2.5411    0.5330 H   0  0  0  0  0  0  0  0  0  0  0  0
   -2.8338   -3.4724   -0.8723 H   0  0  0  0  0  0  0  0  0  0  0  0
   -1.2697   -2.5545    0.2863 C   0  0  0  0  0  0  0  0  0  0  0  0
   -0.4056   -3.0609    0.9787 O   0  0  0  0  0  0  0  0  0  0  0  0
   -1.0223   -1.3767   -0.3934 N   0  0  0  0  0  0  0  0  0  0  0  0
   -1.7557   -1.0506   -1.0166 H   0  0  0  0  0  0  0  0  0  0  0  0
    0.2829   -0.6875   -0.4291 C   0  0  1  0  0  0  0  0  0  0  0  0
    1.0461   -1.3531   -0.8475 H   0  0  0  0  0  0  0  0  0  0  0  0
    0.1163    0.5444   -1.3469 C   0  0  0  0  0  0  0  0  0  0  0  0
    0.0730    0.1885   -2.3816 H   0  0  0  0  0  0  0  0  0  0  0  0
   -0.8413    1.0347   -1.1374 H   0  0  0  0  0  0  0  0  0  0  0  0
    1.2544    1.5842   -1.2345 C   0  0  0  0  0  0  0  0  0  0  0  0
    2.1664    1.1481   -0.8204 H   0  0  0  0  0  0  0  0  0  0  0  0
    1.5100    1.9230   -2.2425 H   0  0  0  0  0  0  0  0  0  0  0  0
    0.8433    2.8233   -0.4510 C   0  0  0  0  0  0  0  0  0  0  0  0
   -0.0747    3.5390   -0.8067 O   0  0  0  0  0  0  0  0  0  0  0  0
    1.3975    3.0907    0.7667 N   0  0  0  0  0  0  0  0  0  0  0  0
    0.9028    3.7691    1.3368 H   0  0  0  0  0  0  0  0  0  0  0  0
    1.9260    2.3430    1.2140 H   0  0  0  0  0  0  0  0  0  0  0  0
    0.7431   -0.2848    0.9983 C   0  0  0  0  0  0  0  0  0  0  0  0
    1.9339   -0.2362    1.2822 O   0  0  0  0  0  0  0  0  0  0  0  0
   -0.1608    0.2968    1.8699 N   0  0  0  0  0  0  0  0  0  0  0  0
   -1.1410    0.1928    1.6271 H   0  0  0  0  0  0  0  0  0  0  0  0
    0.1804    0.6639    3.2386 C   0  0  0  0  0  0  0  0  0  0  0  0
    0.9931    1.3973    3.2510 H   0  0  0  0  0  0  0  0  0  0  0  0
   -0.6873    1.1045    3.7387 H   0  0  0  0  0  0  0  0  0  0  0  0
    0.4953   -0.2202    3.8031 H   0  0  0  0  0  0  0  0  0  0  0  0
  1  2  1  0  0  0  0
  2  3  1  0  0  0  0
  2  4  1  0  0  0  0
  2  5  1  0  0  0  0
  5  6  2  0  0  0  0
  5  7  1  0  0  0  0
  7  8  1  0  0  0  0
  7  9  1  0  0  0  0
  9 10  1  0  0  0  0
  9 11  1  0  0  0  0
  9 22  1  0  0  0  0
 11 12  1  0  0  0  0
 11 13  1  0  0  0  0
 11 14  1  0  0  0  0
 14 15  1  0  0  0  0
 14 16  1  0  0  0  0
 14 17  1  0  0  0  0
 17 18  2  0  0  0  0
 17 19  1  0  0  0  0
 19 20  1  0  0  0  0
 19 21  1  0  0  0  0
 22 23  2  0  0  0  0
 22 24  1  0  0  0  0
 24 25  1  0  0  0  0
 24 26  1  0  0  0  0
 26 27  1  0  0  0  0
 26 28  1  0  0  0  0
 26 29  1  0  0  0  0
M  END
$$$$

  -OEChem-02102214123D

 29 28  0     1  0  0  0  0  0999 V2000
   -2.5996   -4.1824    0.7327 H   0  0  0  0  0  0  0  0  0  0  0  0
   -2.5967   -3.2540    0.1542 C   0  0  0  0  0  0  0  0  0  0  0  0
   -3.3783   -2.5965    0.5420 H   0  0  0  0  0  0  0  0  0  0  0  0
   -2.8133   -3.4911   -0.8901 H   0  0  0  0  0  0  0  0  0  0  0  0
   -1.2441   -2.5753    0.2631 C   0  0  0  0  0  0  0  0  0  0  0  0
   -0.3593   -3.0876    0.9245 O   0  0  0  0  0  0  0  0  0  0  0  0
   -1.0244   -1.3757   -0.3875 N   0  0  0  0  0  0  0  0  0  0  0  0
   -1.7789   -1.0295   -0.9733 H   0  0  0  0  0  0  0  0  0  0  0  0
    0.2637   -0.6557   -0.4022 C   0  0  1  0  0  0  0  0  0  0  0  0
    1.0377   -1.3138   -0.8132 H   0  0  0  0  0  0  0  0  0  0  0  0
    0.1049    0.5608   -1.3439 C   0  0  0  0  0  0  0  0  0  0  0  0
    0.1003    0.1870   -2.3729 H   0  0  0  0  0  0  0  0  0  0  0  0
   -0.8652    1.0401   -1.1704 H   0  0  0  0  0  0  0  0  0  0  0  0
    1.2139    1.6280   -1.2192 C   0  0  0  0  0  0  0  0  0  0  0  0
    2.1769    1.1580   -0.9996 H   0  0  0  0  0  0  0  0  0  0  0  0
    1.3210    2.1338   -2.1829 H   0  0  0  0  0  0  0  0  0  0  0  0
    0.9046    2.7072   -0.1873 C   0  0  0  0  0  0  0  0  0  0  0  0
   -0.0819    3.4151   -0.2751 O   0  0  0  0  0  0  0  0  0  0  0  0
    1.6643    2.8512    0.9361 N   0  0  0  0  0  0  0  0  0  0  0  0
    1.2414    3.4164    1.6647 H   0  0  0  0  0  0  0  0  0  0  0  0
    2.2251    2.0415    1.2047 H   0  0  0  0  0  0  0  0  0  0  0  0
    0.7231   -0.2708    1.0276 C   0  0  0  0  0  0  0  0  0  0  0  0
    1.9176   -0.1841    1.2905 O   0  0  0  0  0  0  0  0  0  0  0  0
   -0.1859    0.2724    1.9178 N   0  0  0  0  0  0  0  0  0  0  0  0
   -1.1660    0.1711    1.6739 H   0  0  0  0  0  0  0  0  0  0  0  0
    0.1567    0.6293    3.2888 C   0  0  0  0  0  0  0  0  0  0  0  0
    0.9492    1.3840    3.3070 H   0  0  0  0  0  0  0  0  0  0  0  0
   -0.7188    1.0392    3.8014 H   0  0  0  0  0  0  0  0  0  0  0  0
    0.4996   -0.2541    3.8379 H   0  0  0  0  0  0  0  0  0  0  0  0
  1  2  1  0  0  0  0
  2  3  1  0  0  0  0
  2  4  1  0  0  0  0
  2  5  1  0  0  0  0
  5  6  2  0  0  0  0
  5  7  1  0  0  0  0
  7  8  1  0  0  0  0
  7  9  1  0  0  0  0
  9 10  1  0  0  0  0
  9 11  1  0  0  0  0
  9 22  1  0  0  0  0
 11 12  1  0  0  0  0
 11 13  1  0  0  0  0
 11 14  1  0  0  0  0
 14 15  1  0  0  0  0
 14 16  1  0  0  0  0
 14 17  1  0  0  0  0
 17 18  2  0  0  0  0
 17 19  1  0  0  0  0
 19 20  1  0  0  0  0
 19 21  1  0  0  0  0
 22 23  2  0  0  0  0
 22 24  1  0  0  0  0
 24 25  1  0  0  0  0
 24 26  1  0  0  0  0
 26 27  1  0  0  0  0
 26 28  1  0  0  0  0
 26 29  1  0  0  0  0
M  END
$$$$

  -OEChem-02102214123D

 29 28  0     1  0  0  0  0  0999 V2000
   -2.5939   -4.2527    0.5935 H   0  0  0  0  0  0  0  0  0  0  0  0
   -2.6097   -3.2773    0.0986 C   0  0  0  0  0  0  0  0  0  0  0  0
   -3.3703   -2.6542    0.5748 H   0  0  0  0  0  0  0  0  0  0  0  0
   -2.8701   -3.4215   -0.9527 H   0  0  0  0  0  0  0  0  0  0  0  0
   -1.2501   -2.6135    0.2111 C   0  0  0  0  0  0  0  0  0  0  0  0
   -0.3561   -3.1632    0.8288 O   0  0  0  0  0  0  0  0  0  0  0  0
   -1.0318   -1.3892   -0.3919 N   0  0  0  0  0  0  0  0  0  0  0  0
   -1.8015   -0.9957   -0.9254 H   0  0  0  0  0  0  0  0  0  0  0  0
    0.2503   -0.6604   -0.3560 C   0  0  1  0  0  0  0  0  0  0  0  0
    1.0308   -1.3165   -0.7579 H   0  0  0  0  0  0  0  0  0  0  0  0
    0.1220    0.5476   -1.3166 C   0  0  0  0  0  0  0  0  0  0  0  0
    0.1479    0.1630   -2.3414 H   0  0  0  0  0  0  0  0  0  0  0  0
   -0.8572    1.0178   -1.1722 H   0  0  0  0  0  0  0  0  0  0  0  0
    1.1941    1.6526   -1.1866 C   0  0  0  0  0  0  0  0  0  0  0  0
    2.1863    1.1924   -1.1605 H   0  0  0  0  0  0  0  0  0  0  0  0
    1.1546    2.2897   -2.0745 H   0  0  0  0  0  0  0  0  0  0  0  0
    1.0279    2.5601    0.0297 C   0  0  0  0  0  0  0  0  0  0  0  0
    0.0047    3.1953    0.2083 O   0  0  0  0  0  0  0  0  0  0  0  0
    1.9856    2.6652    0.9950 N   0  0  0  0  0  0  0  0  0  0  0  0
    1.6722    3.1341    1.8382 H   0  0  0  0  0  0  0  0  0  0  0  0
    2.5944    1.8531    1.0972 H   0  0  0  0  0  0  0  0  0  0  0  0
    0.6991   -0.3153    1.0839 C   0  0  0  0  0  0  0  0  0  0  0  0
    1.8947   -0.2754    1.3545 O   0  0  0  0  0  0  0  0  0  0  0  0
   -0.2094    0.1970    1.9919 N   0  0  0  0  0  0  0  0  0  0  0  0
   -1.1847    0.2101    1.7115 H   0  0  0  0  0  0  0  0  0  0  0  0
    0.1414    0.5998    3.3472 C   0  0  0  0  0  0  0  0  0  0  0  0
    0.7839    1.4852    3.3313 H   0  0  0  0  0  0  0  0  0  0  0  0
   -0.7625    0.8391    3.9153 H   0  0  0  0  0  0  0  0  0  0  0  0
    0.6681   -0.2100    3.8631 H   0  0  0  0  0  0  0  0  0  0  0  0
  1  2  1  0  0  0  0
  2  3  1  0  0  0  0
  2  4  1  0  0  0  0
  2  5  1  0  0  0  0
  5  6  2  0  0  0  0
  5  7  1  0  0  0  0
  7  8  1  0  0  0  0
  7  9  1  0  0  0  0
  9 10  1  0  0  0  0
  9 11  1  0  0  0  0
  9 22  1  0  0  0  0
 11 12  1  0  0  0  0
 11 13  1  0  0  0  0
 11 14  1  0  0  0  0
 14 15  1  0  0  0  0
 14 16  1  0  0  0  0
 14 17  1  0  0  0  0
 17 18  2  0  0  0  0
 17 19  1  0  0  0  0
 19 20  1  0  0  0  0
 19 21  1  0  0  0  0
 22 23  2  0  0  0  0
 22 24  1  0  0  0  0
 24 25  1  0  0  0  0
 24 26  1  0  0  0  0
 26 27  1  0  0  0  0
 26 28  1  0  0  0  0
 26 29  1  0  0  0  0
M  END
$$$$

  -OEChem-02102214123D

 29 28  0     1  0  0  0  0  0999 V2000
   -2.6041   -4.2722    0.5320 H   0  0  0  0  0  0  0  0  0  0  0  0
   -2.6094   -3.2933    0.0437 C   0  0  0  0  0  0  0  0  0  0  0  0
   -3.3532   -2.6605    0.5339 H   0  0  0  0  0  0  0  0  0  0  0  0
   -2.8856   -3.4258   -1.0051 H   0  0  0  0  0  0  0  0  0  0  0  0
   -1.2369   -2.6543    0.1434 C   0  0  0  0  0  0  0  0  0  0  0  0
   -0.3309   -3.2477    0.7002 O   0  0  0  0  0  0  0  0  0  0  0  0
   -1.0197   -1.4049   -0.4061 N   0  0  0  0  0  0  0  0  0  0  0  0
   -1.8092   -0.9610   -0.8657 H   0  0  0  0  0  0  0  0  0  0  0  0
    0.2560   -0.6697   -0.3165 C   0  0  1  0  0  0  0  0  0  0  0  0
    1.0458   -1.3150   -0.7179 H   0  0  0  0  0  0  0  0  0  0  0  0
    0.1390    0.5430   -1.2776 C   0  0  0  0  0  0  0  0  0  0  0  0
    0.1731    0.1617   -2.3034 H   0  0  0  0  0  0  0  0  0  0  0  0
   -0.8493    0.9931   -1.1320 H   0  0  0  0  0  0  0  0  0  0  0  0
    1.1600    1.6998   -1.1609 C   0  0  0  0  0  0  0  0  0  0  0  0
    2.1587    1.3013   -1.3606 H   0  0  0  0  0  0  0  0  0  0  0  0
    0.9453    2.4415   -1.9353 H   0  0  0  0  0  0  0  0  0  0  0  0
    1.1976    2.4282    0.1797 C   0  0  0  0  0  0  0  0  0  0  0  0
    0.2149    3.0178    0.5911 O   0  0  0  0  0  0  0  0  0  0  0  0
    2.3029    2.4559    0.9783 N   0  0  0  0  0  0  0  0  0  0  0  0
    2.1217    2.8177    1.9088 H   0  0  0  0  0  0  0  0  0  0  0  0
    2.9141    1.6448    0.9019 H   0  0  0  0  0  0  0  0  0  0  0  0
    0.6821   -0.3770    1.1402 C   0  0  0  0  0  0  0  0  0  0  0  0
    1.8721   -0.4050    1.4349 O   0  0  0  0  0  0  0  0  0  0  0  0
   -0.2347    0.0959    2.0607 N   0  0  0  0  0  0  0  0  0  0  0  0
   -1.1857    0.2372    1.7367 H   0  0  0  0  0  0  0  0  0  0  0  0
    0.1243    0.5322    3.4033 C   0  0  0  0  0  0  0  0  0  0  0  0
    0.7888    1.4008    3.3594 H   0  0  0  0  0  0  0  0  0  0  0  0
   -0.7741    0.8116    3.9617 H   0  0  0  0  0  0  0  0  0  0  0  0
    0.6302   -0.2740    3.9450 H   0  0  0  0  0  0  0  0  0  0  0  0
  1  2  1  0  0  0  0
  2  3  1  0  0  0  0
  2  4  1  0  0  0  0
  2  5  1  0  0  0  0
  5  6  2  0  0  0  0
  5  7  1  0  0  0  0
  7  8  1  0  0  0  0
  7  9  1  0  0  0  0
  9 10  1  0  0  0  0
  9 11  1  0  0  0  0
  9 22  1  0  0  0  0
 11 12  1  0  0  0  0
 11 13  1  0  0  0  0
 11 14  1  0  0  0  0
 14 15  1  0  0  0  0
 14 16  1  0  0  0  0
 14 17  1  0  0  0  0
 17 18  2  0  0  0  0
 17 19  1  0  0  0  0
 19 20  1  0  0  0  0
 19 21  1  0  0  0  0
 22 23  2  0  0  0  0
 22 24  1  0  0  0  0
 24 25  1  0  0  0  0
 24 26  1  0  0  0  0
 26 27  1  0  0  0  0
 26 28  1  0  0  0  0
 26 29  1  0  0  0  0
M  END
$$$$

  -OEChem-02102214123D

 29 28  0     1  0  0  0  0  0999 V2000
   -2.6065   -4.2907    0.4586 H   0  0  0  0  0  0  0  0  0  0  0  0
   -2.6041   -3.3026   -0.0108 C   0  0  0  0  0  0  0  0  0  0  0  0
   -3.3446   -2.6746    0.4899 H   0  0  0  0  0  0  0  0  0  0  0  0
   -2.8791   -3.4127   -1.0626 H   0  0  0  0  0  0  0  0  0  0  0  0
   -1.2273   -2.6754    0.1030 C   0  0  0  0  0  0  0  0  0  0  0  0
   -0.3210   -3.2954    0.6291 O   0  0  0  0  0  0  0  0  0  0  0  0
   -1.0034   -1.4131   -0.4139 N   0  0  0  0  0  0  0  0  0  0  0  0
   -1.7977   -0.9449   -0.8389 H   0  0  0  0  0  0  0  0  0  0  0  0
    0.2697   -0.6780   -0.2838 C   0  0  1  0  0  0  0  0  0  0  0  0
    1.0714   -1.3081   -0.6860 H   0  0  0  0  0  0  0  0  0  0  0  0
    0.1485    0.5510   -1.2280 C   0  0  0  0  0  0  0  0  0  0  0  0
    0.1686    0.1856   -2.2601 H   0  0  0  0  0  0  0  0  0  0  0  0
   -0.8446    0.9814   -1.0588 H   0  0  0  0  0  0  0  0  0  0  0  0
    1.1278    1.7489   -1.1266 C   0  0  0  0  0  0  0  0  0  0  0  0
    2.0761    1.4417   -1.5761 H   0  0  0  0  0  0  0  0  0  0  0  0
    0.7388    2.5727   -1.7320 H   0  0  0  0  0  0  0  0  0  0  0  0
    1.4449    2.2991    0.2595 C   0  0  0  0  0  0  0  0  0  0  0  0
    0.5935    2.9008    0.8880 O   0  0  0  0  0  0  0  0  0  0  0  0
    2.6741    2.1900    0.8409 N   0  0  0  0  0  0  0  0  0  0  0  0
    2.6745    2.4240    1.8289 H   0  0  0  0  0  0  0  0  0  0  0  0
    3.2266    1.3867    0.5538 H   0  0  0  0  0  0  0  0  0  0  0  0
    0.6576   -0.4239    1.1915 C   0  0  0  0  0  0  0  0  0  0  0  0
    1.8305   -0.5329    1.5302 O   0  0  0  0  0  0  0  0  0  0  0  0
   -0.2796    0.0240    2.1042 N   0  0  0  0  0  0  0  0  0  0  0  0
   -1.1983    0.2552    1.7424 H   0  0  0  0  0  0  0  0  0  0  0  0
    0.0671    0.4527    3.4528 C   0  0  0  0  0  0  0  0  0  0  0  0
    0.7312    1.3225    3.4182 H   0  0  0  0  0  0  0  0  0  0  0  0
   -0.8362    0.7282    4.0053 H   0  0  0  0  0  0  0  0  0  0  0  0
    0.5698   -0.3554    3.9947 H   0  0  0  0  0  0  0  0  0  0  0  0
  1  2  1  0  0  0  0
  2  3  1  0  0  0  0
  2  4  1  0  0  0  0
  2  5  1  0  0  0  0
  5  6  2  0  0  0  0
  5  7  1  0  0  0  0
  7  8  1  0  0  0  0
  7  9  1  0  0  0  0
  9 10  1  0  0  0  0
  9 11  1  0  0  0  0
  9 22  1  0  0  0  0
 11 12  1  0  0  0  0
 11 13  1  0  0  0  0
 11 14  1  0  0  0  0
 14 15  1  0  0  0  0
 14 16  1  0  0  0  0
 14 17  1  0  0  0  0
 17 18  2  0  0  0  0
 17 19  1  0  0  0  0
 19 20  1  0  0  0  0
 19 21  1  0  0  0  0
 22 23  2  0  0  0  0
 22 24  1  0  0  0  0
 24 25  1  0  0  0  0
 24 26  1  0  0  0  0
 26 27  1  0  0  0  0
 26 28  1  0  0  0  0
 26 29  1  0  0  0  0
M  END
$$$$

  -OEChem-02102214123D

 29 28  0     1  0  0  0  0  0999 V2000
   -2.6124   -4.2772    0.4150 H   0  0  0  0  0  0  0  0  0  0  0  0
   -2.5970   -3.2871   -0.0498 C   0  0  0  0  0  0  0  0  0  0  0  0
   -3.3360   -2.6546    0.4479 H   0  0  0  0  0  0  0  0  0  0  0  0
   -2.8635   -3.3898   -1.1045 H   0  0  0  0  0  0  0  0  0  0  0  0
   -1.2156   -2.6731    0.0789 C   0  0  0  0  0  0  0  0  0  0  0  0
   -0.3173   -3.3082    0.6003 O   0  0  0  0  0  0  0  0  0  0  0  0
   -0.9784   -1.4068   -0.4224 N   0  0  0  0  0  0  0  0  0  0  0  0
   -1.7668   -0.9297   -0.8484 H   0  0  0  0  0  0  0  0  0  0  0  0
    0.2952   -0.6766   -0.2635 C   0  0  1  0  0  0  0  0  0  0  0  0
    1.1072   -1.2936   -0.6648 H   0  0  0  0  0  0  0  0  0  0  0  0
    0.1644    0.5719   -1.1831 C   0  0  0  0  0  0  0  0  0  0  0  0
    0.1698    0.2263   -2.2223 H   0  0  0  0  0  0  0  0  0  0  0  0
   -0.8312    0.9861   -0.9901 H   0  0  0  0  0  0  0  0  0  0  0  0
    1.1179    1.7944   -1.0842 C   0  0  0  0  0  0  0  0  0  0  0  0
    1.9536    1.6107   -1.7652 H   0  0  0  0  0  0  0  0  0  0  0  0
    0.5936    2.6777   -1.4613 H   0  0  0  0  0  0  0  0  0  0  0  0
    1.7326    2.1573    0.2617 C   0  0  0  0  0  0  0  0  0  0  0  0
    1.0903    2.7995    1.0715 O   0  0  0  0  0  0  0  0  0  0  0  0
    3.0203    1.8528    0.5946 N   0  0  0  0  0  0  0  0  0  0  0  0
    3.2078    1.9437    1.5892 H   0  0  0  0  0  0  0  0  0  0  0  0
    3.4286    1.0566    0.1160 H   0  0  0  0  0  0  0  0  0  0  0  0
    0.6416   -0.4463    1.2274 C   0  0  0  0  0  0  0  0  0  0  0  0
    1.7922   -0.6198    1.6109 O   0  0  0  0  0  0  0  0  0  0  0  0
   -0.3198   -0.0087    2.1199 N   0  0  0  0  0  0  0  0  0  0  0  0
   -1.2277    0.2330    1.7396 H   0  0  0  0  0  0  0  0  0  0  0  0
   -0.0080    0.3792    3.4893 C   0  0  0  0  0  0  0  0  0  0  0  0
    0.6941    1.2198    3.4980 H   0  0  0  0  0  0  0  0  0  0  0  0
   -0.9191    0.6836    4.0128 H   0  0  0  0  0  0  0  0  0  0  0  0
    0.4384   -0.4599    4.0335 H   0  0  0  0  0  0  0  0  0  0  0  0
  1  2  1  0  0  0  0
  2  3  1  0  0  0  0
  2  4  1  0  0  0  0
  2  5  1  0  0  0  0
  5  6  2  0  0  0  0
  5  7  1  0  0  0  0
  7  8  1  0  0  0  0
  7  9  1  0  0  0  0
  9 10  1  0  0  0  0
  9 11  1  0  0  0  0
  9 22  1  0  0  0  0
 11 12  1  0  0  0  0
 11 13  1  0  0  0  0
 11 14  1  0  0  0  0
 14 15  1  0  0  0  0
 14 16  1  0  0  0  0
 14 17  1  0  0  0  0
 17 18  2  0  0  0  0
 17 19  1  0  0  0  0
 19 20  1  0  0  0  0
 19 21  1  0  0  0  0
 22 23  2  0  0  0  0
 22 24  1  0  0  0  0
 24 25  1  0  0  0  0
 24 26  1  0  0  0  0
 26 27  1  0  0  0  0
 26 28  1  0  0  0  0
 26 29  1  0  0  0  0
M  END
$$$$

  -OEChem-02102214123D

 29 28  0     1  0  0  0  0  0999 V2000
   -2.4704   -4.3512    0.5551 H   0  0  0  0  0  0  0  0  0  0  0  0
   -2.4891   -3.3752    0.0616 C   0  0  0  0  0  0  0  0  0  0  0  0
   -3.2472   -2.7534    0.5435 H   0  0  0  0  0  0  0  0  0  0  0  0
   -2.7548   -3.5178   -0.9885 H   0  0  0  0  0  0  0  0  0  0  0  0
   -1.1286   -2.7123    0.1670 C   0  0  0  0  0  0  0  0  0  0  0  0
   -0.2068   -3.3054    0.6962 O   0  0  0  0  0  0  0  0  0  0  0  0
   -0.9359   -1.4526   -0.3697 N   0  0  0  0  0  0  0  0  0  0  0  0
   -1.7383   -1.0191   -0.8157 H   0  0  0  0  0  0  0  0  0  0  0  0
    0.3167   -0.6793   -0.2448 C   0  0  1  0  0  0  0  0  0  0  0  0
    1.1463   -1.2691   -0.6509 H   0  0  0  0  0  0  0  0  0  0  0  0
    0.1088    0.5564   -1.1676 C   0  0  0  0  0  0  0  0  0  0  0  0
    0.1002    0.1998   -2.2032 H   0  0  0  0  0  0  0  0  0  0  0  0
   -0.8989    0.9293   -0.9538 H   0  0  0  0  0  0  0  0  0  0  0  0
    1.0119    1.8213   -1.1112 C   0  0  0  0  0  0  0  0  0  0  0  0
    1.6605    1.8001   -1.9914 H   0  0  0  0  0  0  0  0  0  0  0  0
    0.3762    2.7059   -1.2149 H   0  0  0  0  0  0  0  0  0  0  0  0
    1.9278    2.0495    0.0843 C   0  0  0  0  0  0  0  0  0  0  0  0
    1.5631    2.7527    1.0078 O   0  0  0  0  0  0  0  0  0  0  0  0
    3.2004    1.5601    0.1414 N   0  0  0  0  0  0  0  0  0  0  0  0
    3.4033    0.7570   -0.4433 H   0  0  0  0  0  0  0  0  0  0  0  0
    3.5846    1.5631    1.0830 H   0  0  0  0  0  0  0  0  0  0  0  0
    0.6645   -0.4038    1.2394 C   0  0  0  0  0  0  0  0  0  0  0  0
    1.8112   -0.5790    1.6317 O   0  0  0  0  0  0  0  0  0  0  0  0
   -0.3039    0.0254    2.1287 N   0  0  0  0  0  0  0  0  0  0  0  0
   -1.2247    0.2237    1.7552 H   0  0  0  0  0  0  0  0  0  0  0  0
    0.0030    0.4230    3.4965 C   0  0  0  0  0  0  0  0  0  0  0  0
    0.6944    1.2726    3.5005 H   0  0  0  0  0  0  0  0  0  0  0  0
   -0.9115    0.7177    4.0197 H   0  0  0  0  0  0  0  0  0  0  0  0
    0.4606   -0.4081    4.0435 H   0  0  0  0  0  0  0  0  0  0  0  0
  1  2  1  0  0  0  0
  2  3  1  0  0  0  0
  2  4  1  0  0  0  0
  2  5  1  0  0  0  0
  5  6  2  0  0  0  0
  5  7  1  0  0  0  0
  7  8  1  0  0  0  0
  7  9  1  0  0  0  0
  9 10  1  0  0  0  0
  9 11  1  0  0  0  0
  9 22  1  0  0  0  0
 11 12  1  0  0  0  0
 11 13  1  0  0  0  0
 11 14  1  0  0  0  0
 14 15  1  0  0  0  0
 14 16  1  0  0  0  0
 14 17  1  0  0  0  0
 17 18  2  0  0  0  0
 17 19  1  0  0  0  0
 19 20  1  0  0  0  0
 19 21  1  0  0  0  0
 22 23  2  0  0  0  0
 22 24  1  0  0  0  0
 24 25  1  0  0  0  0
 24 26  1  0  0  0  0
 26 27  1  0  0  0  0
 26 28  1  0  0  0  0
 26 29  1  0  0  0  0
M  END
$$$$

  -OEChem-02102214123D

 29 28  0     1  0  0  0  0  0999 V2000
   -2.7358   -4.1478    0.8221 H   0  0  0  0  0  0  0  0  0  0  0  0
   -2.6670   -3.2264    0.2365 C   0  0  0  0  0  0  0  0  0  0  0  0
   -3.4408   -2.5349    0.5779 H   0  0  0  0  0  0  0  0  0  0  0  0
   -2.8384   -3.4668   -0.8154 H   0  0  0  0  0  0  0  0  0  0  0  0
   -1.2960   -2.5996    0.4103 C   0  0  0  0  0  0  0  0  0  0  0  0
   -0.4913   -3.1167    1.1617 O   0  0  0  0  0  0  0  0  0  0  0  0
   -0.9837   -1.4427   -0.2818 N   0  0  0  0  0  0  0  0  0  0  0  0
   -1.6637   -1.1527   -0.9782 H   0  0  0  0  0  0  0  0  0  0  0  0
    0.3609   -0.8244   -0.3310 C   0  0  1  0  0  0  0  0  0  0  0  0
    1.0987   -1.5173   -0.7520 H   0  0  0  0  0  0  0  0  0  0  0  0
    0.1736    0.3926   -1.2825 C   0  0  0  0  0  0  0  0  0  0  0  0
    0.0379   -0.0146   -2.2905 H   0  0  0  0  0  0  0  0  0  0  0  0
   -0.7691    0.8787   -1.0085 H   0  0  0  0  0  0  0  0  0  0  0  0
    1.2150    1.5431   -1.3954 C   0  0  0  0  0  0  0  0  0  0  0  0
    1.5288    1.6070   -2.4419 H   0  0  0  0  0  0  0  0  0  0  0  0
    0.7083    2.4848   -1.1674 H   0  0  0  0  0  0  0  0  0  0  0  0
    2.4885    1.5099   -0.5580 C   0  0  0  0  0  0  0  0  0  0  0  0
    3.5217    1.0783   -1.0306 O   0  0  0  0  0  0  0  0  0  0  0  0
    2.5844    2.1255    0.6570 N   0  0  0  0  0  0  0  0  0  0  0  0
    1.7223    2.2307    1.1793 H   0  0  0  0  0  0  0  0  0  0  0  0
    3.4181    1.8503    1.1702 H   0  0  0  0  0  0  0  0  0  0  0  0
    0.8175   -0.4473    1.1020 C   0  0  0  0  0  0  0  0  0  0  0  0
    1.9593   -0.6630    1.4808 O   0  0  0  0  0  0  0  0  0  0  0  0
   -0.0641    0.1840    1.9631 N   0  0  0  0  0  0  0  0  0  0  0  0
   -1.0402    0.1369    1.6900 H   0  0  0  0  0  0  0  0  0  0  0  0
    0.2420    0.3812    3.3753 C   0  0  0  0  0  0  0  0  0  0  0  0
    1.1410    0.9954    3.4930 H   0  0  0  0  0  0  0  0  0  0  0  0
   -0.5887    0.8882    3.8755 H   0  0  0  0  0  0  0  0  0  0  0  0
    0.4084   -0.5830    3.8679 H   0  0  0  0  0  0  0  0  0  0  0  0
  1  2  1  0  0  0  0
  2  3  1  0  0  0  0
  2  4  1  0  0  0  0
  2  5  1  0  0  0  0
  5  6  2  0  0  0  0
  5  7  1  0  0  0  0
  7  8  1  0  0  0  0
  7  9  1  0  0  0  0
  9 10  1  0  0  0  0
  9 11  1  0  0  0  0
  9 22  1  0  0  0  0
 11 12  1  0  0  0  0
 11 13  1  0  0  0  0
 11 14  1  0  0  0  0
 14 15  1  0  0  0  0
 14 16  1  0  0  0  0
 14 17  1  0  0  0  0
 17 18  2  0  0  0  0
 17 19  1  0  0  0  0
 19 20  1  0  0  0  0
 19 21  1  0  0  0  0
 22 23  2  0  0  0  0
 22 24  1  0  0  0  0
 24 25  1  0  0  0  0
 24 26  1  0  0  0  0
 26 27  1  0  0  0  0
 26 28  1  0  0  0  0
 26 29  1  0  0  0  0
M  END
$$$$

  -OEChem-02102214123D

 29 28  0     1  0  0  0  0  0999 V2000
   -2.8839   -4.0299    0.7708 H   0  0  0  0  0  0  0  0  0  0  0  0
   -2.7693   -3.1234    0.1694 C   0  0  0  0  0  0  0  0  0  0  0  0
   -3.5407   -2.4074    0.4624 H   0  0  0  0  0  0  0  0  0  0  0  0
   -2.9018   -3.3836   -0.8834 H   0  0  0  0  0  0  0  0  0  0  0  0
   -1.3926   -2.5240    0.3881 C   0  0  0  0  0  0  0  0  0  0  0  0
   -0.6365   -3.0384    1.1903 O   0  0  0  0  0  0  0  0  0  0  0  0
   -1.0212   -1.3966   -0.3231 N   0  0  0  0  0  0  0  0  0  0  0  0
   -1.6614   -1.1155   -1.0597 H   0  0  0  0  0  0  0  0  0  0  0  0
    0.3433   -0.8218   -0.3434 C   0  0  1  0  0  0  0  0  0  0  0  0
    1.0755   -1.5384   -0.7332 H   0  0  0  0  0  0  0  0  0  0  0  0
    0.2231    0.4026   -1.2927 C   0  0  0  0  0  0  0  0  0  0  0  0
    0.1300   -0.0045   -2.3054 H   0  0  0  0  0  0  0  0  0  0  0  0
   -0.7137    0.9254   -1.0707 H   0  0  0  0  0  0  0  0  0  0  0  0
    1.3294    1.4908   -1.3480 C   0  0  0  0  0  0  0  0  0  0  0  0
    1.4936    1.7737   -2.3920 H   0  0  0  0  0  0  0  0  0  0  0  0
    0.9537    2.3805   -0.8353 H   0  0  0  0  0  0  0  0  0  0  0  0
    2.6865    1.1650   -0.7337 C   0  0  0  0  0  0  0  0  0  0  0  0
    3.4599    0.4368   -1.3248 O   0  0  0  0  0  0  0  0  0  0  0  0
    3.1476    1.7559    0.4070 N   0  0  0  0  0  0  0  0  0  0  0  0
    3.9542    1.2756    0.7974 H   0  0  0  0  0  0  0  0  0  0  0  0
    2.4431    2.0887    1.0551 H   0  0  0  0  0  0  0  0  0  0  0  0
    0.7577   -0.4225    1.0989 C   0  0  0  0  0  0  0  0  0  0  0  0
    1.8789   -0.6483    1.5309 O   0  0  0  0  0  0  0  0  0  0  0  0
   -0.1398    0.2558    1.9057 N   0  0  0  0  0  0  0  0  0  0  0  0
   -1.1038    0.2361    1.5896 H   0  0  0  0  0  0  0  0  0  0  0  0
    0.1119    0.4909    3.3224 C   0  0  0  0  0  0  0  0  0  0  0  0
    1.0254    1.0790    3.4591 H   0  0  0  0  0  0  0  0  0  0  0  0
   -0.7216    1.0418    3.7682 H   0  0  0  0  0  0  0  0  0  0  0  0
    0.2236   -0.4609    3.8530 H   0  0  0  0  0  0  0  0  0  0  0  0
  1  2  1  0  0  0  0
  2  3  1  0  0  0  0
  2  4  1  0  0  0  0
  2  5  1  0  0  0  0
  5  6  2  0  0  0  0
  5  7  1  0  0  0  0
  7  8  1  0  0  0  0
  7  9  1  0  0  0  0
  9 10  1  0  0  0  0
  9 11  1  0  0  0  0
  9 22  1  0  0  0  0
 11 12  1  0  0  0  0
 11 13  1  0  0  0  0
 11 14  1  0  0  0  0
 14 15  1  0  0  0  0
 14 16  1  0  0  0  0
 14 17  1  0  0  0  0
 17 18  2  0  0  0  0
 17 19  1  0  0  0  0
 19 20  1  0  0  0  0
 19 21  1  0  0  0  0
 22 23  2  0  0  0  0
 22 24  1  0  0  0  0
 24 25  1  0  0  0  0
 24 26  1  0  0  0  0
 26 27  1  0  0  0  0
 26 28  1  0  0  0  0
 26 29  1  0  0  0  0
M  END
$$$$

  -OEChem-02102214123D

 29 28  0     1  0  0  0  0  0999 V2000
   -2.7534   -4.1266    0.7454 H   0  0  0  0  0  0  0  0  0  0  0  0
   -2.6806   -3.2177    0.1411 C   0  0  0  0  0  0  0  0  0  0  0  0
   -3.4876   -2.5395    0.4279 H   0  0  0  0  0  0  0  0  0  0  0  0
   -2.7949   -3.4872   -0.9117 H   0  0  0  0  0  0  0  0  0  0  0  0
   -1.3364   -2.5502    0.3633 C   0  0  0  0  0  0  0  0  0  0  0  0
   -0.5534   -3.0290    1.1623 O   0  0  0  0  0  0  0  0  0  0  0  0
   -1.0233   -1.4021   -0.3424 N   0  0  0  0  0  0  0  0  0  0  0  0
   -1.6769   -1.1509   -1.0781 H   0  0  0  0  0  0  0  0  0  0  0  0
    0.3147   -0.7709   -0.3720 C   0  0  1  0  0  0  0  0  0  0  0  0
    1.0684   -1.4540   -0.7812 H   0  0  0  0  0  0  0  0  0  0  0  0
    0.1498    0.4727   -1.2842 C   0  0  0  0  0  0  0  0  0  0  0  0
    0.0701    0.0977   -2.3103 H   0  0  0  0  0  0  0  0  0  0  0  0
   -0.7961    0.9705   -1.0459 H   0  0  0  0  0  0  0  0  0  0  0  0
    1.2489    1.5640   -1.2828 C   0  0  0  0  0  0  0  0  0  0  0  0
    1.2443    2.0858   -2.2439 H   0  0  0  0  0  0  0  0  0  0  0  0
    0.9985    2.3008   -0.5146 H   0  0  0  0  0  0  0  0  0  0  0  0
    2.6692    1.0795   -1.0005 C   0  0  0  0  0  0  0  0  0  0  0  0
    3.2221    0.3314   -1.7844 O   0  0  0  0  0  0  0  0  0  0  0  0
    3.4217    1.5336    0.0428 N   0  0  0  0  0  0  0  0  0  0  0  0
    4.2604    0.9790    0.1892 H   0  0  0  0  0  0  0  0  0  0  0  0
    2.9005    1.8082    0.8692 H   0  0  0  0  0  0  0  0  0  0  0  0
    0.7344   -0.3643    1.0679 C   0  0  0  0  0  0  0  0  0  0  0  0
    1.8857   -0.4862    1.4614 O   0  0  0  0  0  0  0  0  0  0  0  0
   -0.1792    0.2700    1.8921 N   0  0  0  0  0  0  0  0  0  0  0  0
   -1.1488    0.1940    1.6028 H   0  0  0  0  0  0  0  0  0  0  0  0
    0.1002    0.5599    3.2934 C   0  0  0  0  0  0  0  0  0  0  0  0
    0.9744    1.2129    3.3856 H   0  0  0  0  0  0  0  0  0  0  0  0
   -0.7551    1.0644    3.7529 H   0  0  0  0  0  0  0  0  0  0  0  0
    0.2940   -0.3673    3.8434 H   0  0  0  0  0  0  0  0  0  0  0  0
  1  2  1  0  0  0  0
  2  3  1  0  0  0  0
  2  4  1  0  0  0  0
  2  5  1  0  0  0  0
  5  6  2  0  0  0  0
  5  7  1  0  0  0  0
  7  8  1  0  0  0  0
  7  9  1  0  0  0  0
  9 10  1  0  0  0  0
  9 11  1  0  0  0  0
  9 22  1  0  0  0  0
 11 12  1  0  0  0  0
 11 13  1  0  0  0  0
 11 14  1  0  0  0  0
 14 15  1  0  0  0  0
 14 16  1  0  0  0  0
 14 17  1  0  0  0  0
 17 18  2  0  0  0  0
 17 19  1  0  0  0  0
 19 20  1  0  0  0  0
 19 21  1  0  0  0  0
 22 23  2  0  0  0  0
 22 24  1  0  0  0  0
 24 25  1  0  0  0  0
 24 26  1  0  0  0  0
 26 27  1  0  0  0  0
 26 28  1  0  0  0  0
 26 29  1  0  0  0  0
M  END
$$$$

  -OEChem-02102214123D

 29 28  0     1  0  0  0  0  0999 V2000
   -2.6081   -4.1852    0.7536 H   0  0  0  0  0  0  0  0  0  0  0  0
   -2.5712   -3.2873    0.1299 C   0  0  0  0  0  0  0  0  0  0  0  0
   -3.4017   -2.6336    0.4066 H   0  0  0  0  0  0  0  0  0  0  0  0
   -2.6800   -3.5833   -0.9164 H   0  0  0  0  0  0  0  0  0  0  0  0
   -1.2515   -2.5662    0.3310 C   0  0  0  0  0  0  0  0  0  0  0  0
   -0.4261   -3.0234    1.0998 O   0  0  0  0  0  0  0  0  0  0  0  0
   -1.0033   -1.3942   -0.3606 N   0  0  0  0  0  0  0  0  0  0  0  0
   -1.6838   -1.1530   -1.0754 H   0  0  0  0  0  0  0  0  0  0  0  0
    0.3018   -0.7001   -0.3928 C   0  0  1  0  0  0  0  0  0  0  0  0
    1.0787   -1.3462   -0.8176 H   0  0  0  0  0  0  0  0  0  0  0  0
    0.0907    0.5508   -1.2812 C   0  0  0  0  0  0  0  0  0  0  0  0
    0.0146    0.2060   -2.3184 H   0  0  0  0  0  0  0  0  0  0  0  0
   -0.8642    1.0197   -1.0213 H   0  0  0  0  0  0  0  0  0  0  0  0
    1.1709    1.6552   -1.2313 C   0  0  0  0  0  0  0  0  0  0  0  0
    1.0136    2.3558   -2.0561 H   0  0  0  0  0  0  0  0  0  0  0  0
    1.0640    2.2199   -0.3007 H   0  0  0  0  0  0  0  0  0  0  0  0
    2.6046    1.1300   -1.3058 C   0  0  0  0  0  0  0  0  0  0  0  0
    3.0189    0.6410   -2.3399 O   0  0  0  0  0  0  0  0  0  0  0  0
    3.5066    1.2306   -0.2893 N   0  0  0  0  0  0  0  0  0  0  0  0
    4.3585    0.7071   -0.4640 H   0  0  0  0  0  0  0  0  0  0  0  0
    3.1031    1.1528    0.6448 H   0  0  0  0  0  0  0  0  0  0  0  0
    0.7221   -0.2925    1.0470 C   0  0  0  0  0  0  0  0  0  0  0  0
    1.8932   -0.3124    1.4011 O   0  0  0  0  0  0  0  0  0  0  0  0
   -0.2082    0.2867    1.8924 N   0  0  0  0  0  0  0  0  0  0  0  0
   -1.1796    0.1588    1.6284 H   0  0  0  0  0  0  0  0  0  0  0  0
    0.0934    0.6354    3.2756 C   0  0  0  0  0  0  0  0  0  0  0  0
    0.9096    1.3641    3.3196 H   0  0  0  0  0  0  0  0  0  0  0  0
   -0.7860    1.0756    3.7550 H   0  0  0  0  0  0  0  0  0  0  0  0
    0.3869   -0.2568    3.8389 H   0  0  0  0  0  0  0  0  0  0  0  0
  1  2  1  0  0  0  0
  2  3  1  0  0  0  0
  2  4  1  0  0  0  0
  2  5  1  0  0  0  0
  5  6  2  0  0  0  0
  5  7  1  0  0  0  0
  7  8  1  0  0  0  0
  7  9  1  0  0  0  0
  9 10  1  0  0  0  0
  9 11  1  0  0  0  0
  9 22  1  0  0  0  0
 11 12  1  0  0  0  0
 11 13  1  0  0  0  0
 11 14  1  0  0  0  0
 14 15  1  0  0  0  0
 14 16  1  0  0  0  0
 14 17  1  0  0  0  0
 17 18  2  0  0  0  0
 17 19  1  0  0  0  0
 19 20  1  0  0  0  0
 19 21  1  0  0  0  0
 22 23  2  0  0  0  0
 22 24  1  0  0  0  0
 24 25  1  0  0  0  0
 24 26  1  0  0  0  0
 26 27  1  0  0  0  0
 26 28  1  0  0  0  0
 26 29  1  0  0  0  0
M  END
$$$$

  -OEChem-02102214123D

 29 28  0     1  0  0  0  0  0999 V2000
   -2.4745   -4.2514    0.6931 H   0  0  0  0  0  0  0  0  0  0  0  0
   -2.4752   -3.3486    0.0754 C   0  0  0  0  0  0  0  0  0  0  0  0
   -3.3351   -2.7343    0.3526 H   0  0  0  0  0  0  0  0  0  0  0  0
   -2.5664   -3.6417   -0.9733 H   0  0  0  0  0  0  0  0  0  0  0  0
   -1.1892   -2.5716    0.2863 C   0  0  0  0  0  0  0  0  0  0  0  0
   -0.3355   -3.0096    1.0356 O   0  0  0  0  0  0  0  0  0  0  0  0
   -0.9982   -1.3716   -0.3741 N   0  0  0  0  0  0  0  0  0  0  0  0
   -1.6976   -1.1331   -1.0714 H   0  0  0  0  0  0  0  0  0  0  0  0
    0.2762   -0.6244   -0.3908 C   0  0  1  0  0  0  0  0  0  0  0  0
    1.0683   -1.2463   -0.8231 H   0  0  0  0  0  0  0  0  0  0  0  0
    0.0462    0.6180   -1.2849 C   0  0  0  0  0  0  0  0  0  0  0  0
   -0.0145    0.2873   -2.3279 H   0  0  0  0  0  0  0  0  0  0  0  0
   -0.9192    1.0651   -1.0253 H   0  0  0  0  0  0  0  0  0  0  0  0
    1.1060    1.7358   -1.1858 C   0  0  0  0  0  0  0  0  0  0  0  0
    0.8308    2.5541   -1.8572 H   0  0  0  0  0  0  0  0  0  0  0  0
    1.1381    2.1474   -0.1734 H   0  0  0  0  0  0  0  0  0  0  0  0
    2.4996    1.2475   -1.5760 C   0  0  0  0  0  0  0  0  0  0  0  0
    2.7654    1.0083   -2.7390 O   0  0  0  0  0  0  0  0  0  0  0  0
    3.4925    1.0130   -0.6722 N   0  0  0  0  0  0  0  0  0  0  0  0
    4.2825    0.4949   -1.0428 H   0  0  0  0  0  0  0  0  0  0  0  0
    3.1894    0.8113    0.2836 H   0  0  0  0  0  0  0  0  0  0  0  0
    0.7137   -0.2263    1.0442 C   0  0  0  0  0  0  0  0  0  0  0  0
    1.9002   -0.1694    1.3430 O   0  0  0  0  0  0  0  0  0  0  0  0
   -0.2160    0.3006    1.9227 N   0  0  0  0  0  0  0  0  0  0  0  0
   -1.1887    0.1253    1.6925 H   0  0  0  0  0  0  0  0  0  0  0  0
    0.1165    0.6815    3.2901 C   0  0  0  0  0  0  0  0  0  0  0  0
    0.8897    1.4571    3.2962 H   0  0  0  0  0  0  0  0  0  0  0  0
   -0.7689    1.0757    3.7982 H   0  0  0  0  0  0  0  0  0  0  0  0
    0.4822   -0.1857    3.8502 H   0  0  0  0  0  0  0  0  0  0  0  0
  1  2  1  0  0  0  0
  2  3  1  0  0  0  0
  2  4  1  0  0  0  0
  2  5  1  0  0  0  0
  5  6  2  0  0  0  0
  5  7  1  0  0  0  0
  7  8  1  0  0  0  0
  7  9  1  0  0  0  0
  9 10  1  0  0  0  0
  9 11  1  0  0  0  0
  9 22  1  0  0  0  0
 11 12  1  0  0  0  0
 11 13  1  0  0  0  0
 11 14  1  0  0  0  0
 14 15  1  0  0  0  0
 14 16  1  0  0  0  0
 14 17  1  0  0  0  0
 17 18  2  0  0  0  0
 17 19  1  0  0  0  0
 19 20  1  0  0  0  0
 19 21  1  0  0  0  0
 22 23  2  0  0  0  0
 22 24  1  0  0  0  0
 24 25  1  0  0  0  0
 24 26  1  0  0  0  0
 26 27  1  0  0  0  0
 26 28  1  0  0  0  0
 26 29  1  0  0  0  0
M  END
$$$$

  -OEChem-02102214123D

 29 28  0     1  0  0  0  0  0999 V2000
   -2.3706   -4.3148    0.5916 H   0  0  0  0  0  0  0  0  0  0  0  0
   -2.3982   -3.4044   -0.0143 C   0  0  0  0  0  0  0  0  0  0  0  0
   -3.2869   -2.8294    0.2565 H   0  0  0  0  0  0  0  0  0  0  0  0
   -2.4609   -3.6863   -1.0682 H   0  0  0  0  0  0  0  0  0  0  0  0
   -1.1488   -2.5785    0.2286 C   0  0  0  0  0  0  0  0  0  0  0  0
   -0.2775   -3.0007    0.9670 O   0  0  0  0  0  0  0  0  0  0  0  0
   -1.0092   -1.3487   -0.3871 N   0  0  0  0  0  0  0  0  0  0  0  0
   -1.7175   -1.1119   -1.0760 H   0  0  0  0  0  0  0  0  0  0  0  0
    0.2334   -0.5528   -0.3694 C   0  0  1  0  0  0  0  0  0  0  0  0
    1.0394   -1.1600   -0.7973 H   0  0  0  0  0  0  0  0  0  0  0  0
    0.0100    0.6659   -1.2968 C   0  0  0  0  0  0  0  0  0  0  0  0
   -0.0122    0.3286   -2.3396 H   0  0  0  0  0  0  0  0  0  0  0  0
   -0.9729    1.0918   -1.0704 H   0  0  0  0  0  0  0  0  0  0  0  0
    1.0381    1.8069   -1.1487 C   0  0  0  0  0  0  0  0  0  0  0  0
    0.6590    2.6897   -1.6714 H   0  0  0  0  0  0  0  0  0  0  0  0
    1.1872    2.1021   -0.1074 H   0  0  0  0  0  0  0  0  0  0  0  0
    2.3671    1.4318   -1.7906 C   0  0  0  0  0  0  0  0  0  0  0  0
    2.5183    1.4573   -2.9977 O   0  0  0  0  0  0  0  0  0  0  0  0
    3.3938    0.9265   -1.0476 N   0  0  0  0  0  0  0  0  0  0  0  0
    4.1334    0.4654   -1.5671 H   0  0  0  0  0  0  0  0  0  0  0  0
    3.1783    0.6186   -0.0959 H   0  0  0  0  0  0  0  0  0  0  0  0
    0.6972   -0.1644    1.0561 C   0  0  0  0  0  0  0  0  0  0  0  0
    1.8965   -0.0565    1.2905 O   0  0  0  0  0  0  0  0  0  0  0  0
   -0.2155    0.3134    1.9782 N   0  0  0  0  0  0  0  0  0  0  0  0
   -1.1906    0.1075    1.7863 H   0  0  0  0  0  0  0  0  0  0  0  0
    0.1617    0.7010    3.3318 C   0  0  0  0  0  0  0  0  0  0  0  0
    0.9029    1.5069    3.3086 H   0  0  0  0  0  0  0  0  0  0  0  0
   -0.7149    1.0569    3.8815 H   0  0  0  0  0  0  0  0  0  0  0  0
    0.5867   -0.1533    3.8693 H   0  0  0  0  0  0  0  0  0  0  0  0
  1  2  1  0  0  0  0
  2  3  1  0  0  0  0
  2  4  1  0  0  0  0
  2  5  1  0  0  0  0
  5  6  2  0  0  0  0
  5  7  1  0  0  0  0
  7  8  1  0  0  0  0
  7  9  1  0  0  0  0
  9 10  1  0  0  0  0
  9 11  1  0  0  0  0
  9 22  1  0  0  0  0
 11 12  1  0  0  0  0
 11 13  1  0  0  0  0
 11 14  1  0  0  0  0
 14 15  1  0  0  0  0
 14 16  1  0  0  0  0
 14 17  1  0  0  0  0
 17 18  2  0  0  0  0
 17 19  1  0  0  0  0
 19 20  1  0  0  0  0
 19 21  1  0  0  0  0
 22 23  2  0  0  0  0
 22 24  1  0  0  0  0
 24 25  1  0  0  0  0
 24 26  1  0  0  0  0
 26 27  1  0  0  0  0
 26 28  1  0  0  0  0
 26 29  1  0  0  0  0
M  END
$$$$

  -OEChem-02102214123D

 29 28  0     1  0  0  0  0  0999 V2000
   -2.3466   -4.3354    0.5219 H   0  0  0  0  0  0  0  0  0  0  0  0
   -2.3758   -3.4182   -0.0733 C   0  0  0  0  0  0  0  0  0  0  0  0
   -3.2718   -2.8539    0.1957 H   0  0  0  0  0  0  0  0  0  0  0  0
   -2.4256   -3.6874   -1.1310 H   0  0  0  0  0  0  0  0  0  0  0  0
   -1.1359   -2.5852    0.1916 C   0  0  0  0  0  0  0  0  0  0  0  0
   -0.2615   -3.0143    0.9223 O   0  0  0  0  0  0  0  0  0  0  0  0
   -1.0105   -1.3390   -0.3928 N   0  0  0  0  0  0  0  0  0  0  0  0
   -1.7242   -1.0879   -1.0711 H   0  0  0  0  0  0  0  0  0  0  0  0
    0.2169   -0.5222   -0.3409 C   0  0  1  0  0  0  0  0  0  0  0  0
    1.0354   -1.1179   -0.7613 H   0  0  0  0  0  0  0  0  0  0  0  0
    0.0034    0.6905   -1.2782 C   0  0  0  0  0  0  0  0  0  0  0  0
   -0.0025    0.3531   -2.3212 H   0  0  0  0  0  0  0  0  0  0  0  0
   -0.9900    1.1002   -1.0674 H   0  0  0  0  0  0  0  0  0  0  0  0
    1.0053    1.8537   -1.1046 C   0  0  0  0  0  0  0  0  0  0  0  0
    0.5171    2.7778   -1.4269 H   0  0  0  0  0  0  0  0  0  0  0  0
    1.3126    2.0190   -0.0713 H   0  0  0  0  0  0  0  0  0  0  0  0
    2.2169    1.6597   -2.0006 C   0  0  0  0  0  0  0  0  0  0  0  0
    2.1693    1.8496   -3.2015 O   0  0  0  0  0  0  0  0  0  0  0  0
    3.3603    1.1114   -1.4955 N   0  0  0  0  0  0  0  0  0  0  0  0
    4.0363    0.7707   -2.1718 H   0  0  0  0  0  0  0  0  0  0  0  0
    3.3299    0.7155   -0.5559 H   0  0  0  0  0  0  0  0  0  0  0  0
    0.6709   -0.1506    1.0897 C   0  0  0  0  0  0  0  0  0  0  0  0
    1.8705   -0.0414    1.3227 O   0  0  0  0  0  0  0  0  0  0  0  0
   -0.2482    0.2959    2.0208 N   0  0  0  0  0  0  0  0  0  0  0  0
   -1.2209    0.0840    1.8228 H   0  0  0  0  0  0  0  0  0  0  0  0
    0.1256    0.6481    3.3847 C   0  0  0  0  0  0  0  0  0  0  0  0
    0.8517    1.4678    3.3843 H   0  0  0  0  0  0  0  0  0  0  0  0
   -0.7556    0.9698    3.9477 H   0  0  0  0  0  0  0  0  0  0  0  0
    0.5682   -0.2144    3.8942 H   0  0  0  0  0  0  0  0  0  0  0  0
  1  2  1  0  0  0  0
  2  3  1  0  0  0  0
  2  4  1  0  0  0  0
  2  5  1  0  0  0  0
  5  6  2  0  0  0  0
  5  7  1  0  0  0  0
  7  8  1  0  0  0  0
  7  9  1  0  0  0  0
  9 10  1  0  0  0  0
  9 11  1  0  0  0  0
  9 22  1  0  0  0  0
 11 12  1  0  0  0  0
 11 13  1  0  0  0  0
 11 14  1  0  0  0  0
 14 15  1  0  0  0  0
 14 16  1  0  0  0  0
 14 17  1  0  0  0  0
 17 18  2  0  0  0  0
 17 19  1  0  0  0  0
 19 20  1  0  0  0  0
 19 21  1  0  0  0  0
 22 23  2  0  0  0  0
 22 24  1  0  0  0  0
 24 25  1  0  0  0  0
 24 26  1  0  0  0  0
 26 27  1  0  0  0  0
 26 28  1  0  0  0  0
 26 29  1  0  0  0  0
M  END
$$$$

  -OEChem-02102214123D

 29 28  0     1  0  0  0  0  0999 V2000
   -2.3854   -4.3222    0.4863 H   0  0  0  0  0  0  0  0  0  0  0  0
   -2.3962   -3.3957   -0.0950 C   0  0  0  0  0  0  0  0  0  0  0  0
   -3.2860   -2.8223    0.1756 H   0  0  0  0  0  0  0  0  0  0  0  0
   -2.4416   -3.6483   -1.1573 H   0  0  0  0  0  0  0  0  0  0  0  0
   -1.1458   -2.5860    0.1929 C   0  0  0  0  0  0  0  0  0  0  0  0
   -0.2883   -3.0386    0.9293 O   0  0  0  0  0  0  0  0  0  0  0  0
   -0.9881   -1.3409   -0.3864 N   0  0  0  0  0  0  0  0  0  0  0  0
   -1.6905   -1.0718   -1.0696 H   0  0  0  0  0  0  0  0  0  0  0  0
    0.2488   -0.5390   -0.3087 C   0  0  1  0  0  0  0  0  0  0  0  0
    1.0763   -1.1255   -0.7240 H   0  0  0  0  0  0  0  0  0  0  0  0
    0.0329    0.6952   -1.2169 C   0  0  0  0  0  0  0  0  0  0  0  0
    0.0125    0.3717   -2.2641 H   0  0  0  0  0  0  0  0  0  0  0  0
   -0.9597    1.0997   -0.9918 H   0  0  0  0  0  0  0  0  0  0  0  0
    1.0301    1.8666   -1.0392 C   0  0  0  0  0  0  0  0  0  0  0  0
    0.4727    2.8074   -1.0598 H   0  0  0  0  0  0  0  0  0  0  0  0
    1.5638    1.8451   -0.0892 H   0  0  0  0  0  0  0  0  0  0  0  0
    2.0321    1.9124   -2.1834 C   0  0  0  0  0  0  0  0  0  0  0  0
    1.6966    2.1935   -3.3187 O   0  0  0  0  0  0  0  0  0  0  0  0
    3.3241    1.5099   -2.0047 N   0  0  0  0  0  0  0  0  0  0  0  0
    3.8680    1.3470   -2.8466 H   0  0  0  0  0  0  0  0  0  0  0  0
    3.5761    1.0508   -1.1331 H   0  0  0  0  0  0  0  0  0  0  0  0
    0.6507   -0.1894    1.1448 C   0  0  0  0  0  0  0  0  0  0  0  0
    1.8368   -0.1319    1.4477 O   0  0  0  0  0  0  0  0  0  0  0  0
   -0.3023    0.2569    2.0421 N   0  0  0  0  0  0  0  0  0  0  0  0
   -1.2690    0.0822    1.7882 H   0  0  0  0  0  0  0  0  0  0  0  0
    0.0101    0.5598    3.4332 C   0  0  0  0  0  0  0  0  0  0  0  0
    0.7573    1.3580    3.4932 H   0  0  0  0  0  0  0  0  0  0  0  0
   -0.8900    0.8907    3.9599 H   0  0  0  0  0  0  0  0  0  0  0  0
    0.4021   -0.3288    3.9394 H   0  0  0  0  0  0  0  0  0  0  0  0
  1  2  1  0  0  0  0
  2  3  1  0  0  0  0
  2  4  1  0  0  0  0
  2  5  1  0  0  0  0
  5  6  2  0  0  0  0
  5  7  1  0  0  0  0
  7  8  1  0  0  0  0
  7  9  1  0  0  0  0
  9 10  1  0  0  0  0
  9 11  1  0  0  0  0
  9 22  1  0  0  0  0
 11 12  1  0  0  0  0
 11 13  1  0  0  0  0
 11 14  1  0  0  0  0
 14 15  1  0  0  0  0
 14 16  1  0  0  0  0
 14 17  1  0  0  0  0
 17 18  2  0  0  0  0
 17 19  1  0  0  0  0
 19 20  1  0  0  0  0
 19 21  1  0  0  0  0
 22 23  2  0  0  0  0
 22 24  1  0  0  0  0
 24 25  1  0  0  0  0
 24 26  1  0  0  0  0
 26 27  1  0  0  0  0
 26 28  1  0  0  0  0
 26 29  1  0  0  0  0
M  END
$$$$

  -OEChem-02102214123D

 29 28  0     1  0  0  0  0  0999 V2000
   -2.4783   -4.2913    0.4972 H   0  0  0  0  0  0  0  0  0  0  0  0
   -2.4556   -3.3723   -0.0957 C   0  0  0  0  0  0  0  0  0  0  0  0
   -3.3270   -2.7662    0.1635 H   0  0  0  0  0  0  0  0  0  0  0  0
   -2.5044   -3.6363   -1.1550 H   0  0  0  0  0  0  0  0  0  0  0  0
   -1.1808   -2.6003    0.1883 C   0  0  0  0  0  0  0  0  0  0  0  0
   -0.3362   -3.0785    0.9230 O   0  0  0  0  0  0  0  0  0  0  0  0
   -0.9897   -1.3586   -0.3887 N   0  0  0  0  0  0  0  0  0  0  0  0
   -1.6828   -1.0706   -1.0735 H   0  0  0  0  0  0  0  0  0  0  0  0
    0.2612   -0.5792   -0.2955 C   0  0  1  0  0  0  0  0  0  0  0  0
    1.0875   -1.1672   -0.7107 H   0  0  0  0  0  0  0  0  0  0  0  0
    0.0541    0.6774   -1.1740 C   0  0  0  0  0  0  0  0  0  0  0  0
    0.0470    0.3602   -2.2230 H   0  0  0  0  0  0  0  0  0  0  0  0
   -0.9382    1.0895   -0.9624 H   0  0  0  0  0  0  0  0  0  0  0  0
    1.0696    1.8321   -0.9754 C   0  0  0  0  0  0  0  0  0  0  0  0
    0.5395    2.7335   -0.6555 H   0  0  0  0  0  0  0  0  0  0  0  0
    1.8066    1.6042   -0.2050 H   0  0  0  0  0  0  0  0  0  0  0  0
    1.8258    2.1498   -2.2597 C   0  0  0  0  0  0  0  0  0  0  0  0
    1.2457    2.4413   -3.2891 O   0  0  0  0  0  0  0  0  0  0  0  0
    3.1844    2.0399   -2.3385 N   0  0  0  0  0  0  0  0  0  0  0  0
    3.5879    2.0748   -3.2699 H   0  0  0  0  0  0  0  0  0  0  0  0
    3.6879    1.5982   -1.5749 H   0  0  0  0  0  0  0  0  0  0  0  0
    0.6387   -0.2429    1.1694 C   0  0  0  0  0  0  0  0  0  0  0  0
    1.8151   -0.2276    1.5106 O   0  0  0  0  0  0  0  0  0  0  0  0
   -0.3267    0.2169    2.0468 N   0  0  0  0  0  0  0  0  0  0  0  0
   -1.2904    0.0743    1.7637 H   0  0  0  0  0  0  0  0  0  0  0  0
   -0.0452    0.5032    3.4478 C   0  0  0  0  0  0  0  0  0  0  0  0
    0.7267    1.2750    3.5350 H   0  0  0  0  0  0  0  0  0  0  0  0
   -0.9486    0.8629    3.9493 H   0  0  0  0  0  0  0  0  0  0  0  0
    0.3009   -0.4006    3.9602 H   0  0  0  0  0  0  0  0  0  0  0  0
  1  2  1  0  0  0  0
  2  3  1  0  0  0  0
  2  4  1  0  0  0  0
  2  5  1  0  0  0  0
  5  6  2  0  0  0  0
  5  7  1  0  0  0  0
  7  8  1  0  0  0  0
  7  9  1  0  0  0  0
  9 10  1  0  0  0  0
  9 11  1  0  0  0  0
  9 22  1  0  0  0  0
 11 12  1  0  0  0  0
 11 13  1  0  0  0  0
 11 14  1  0  0  0  0
 14 15  1  0  0  0  0
 14 16  1  0  0  0  0
 14 17  1  0  0  0  0
 17 18  2  0  0  0  0
 17 19  1  0  0  0  0
 19 20  1  0  0  0  0
 19 21  1  0  0  0  0
 22 23  2  0  0  0  0
 22 24  1  0  0  0  0
 24 25  1  0  0  0  0
 24 26  1  0  0  0  0
 26 27  1  0  0  0  0
 26 28  1  0  0  0  0
 26 29  1  0  0  0  0
M  END
$$$$

  -OEChem-02102214123D

 29 28  0     1  0  0  0  0  0999 V2000
   -2.5682   -4.2880    0.4877 H   0  0  0  0  0  0  0  0  0  0  0  0
   -2.5346   -3.3597   -0.0899 C   0  0  0  0  0  0  0  0  0  0  0  0
   -3.3923   -2.7425    0.1879 H   0  0  0  0  0  0  0  0  0  0  0  0
   -2.5981   -3.6051   -1.1528 H   0  0  0  0  0  0  0  0  0  0  0  0
   -1.2436   -2.6155    0.1943 C   0  0  0  0  0  0  0  0  0  0  0  0
   -0.4104   -3.1098    0.9316 O   0  0  0  0  0  0  0  0  0  0  0  0
   -1.0253   -1.3804   -0.3864 N   0  0  0  0  0  0  0  0  0  0  0  0
   -1.7119   -1.0787   -1.0720 H   0  0  0  0  0  0  0  0  0  0  0  0
    0.2421   -0.6290   -0.2972 C   0  0  1  0  0  0  0  0  0  0  0  0
    1.0550   -1.2316   -0.7178 H   0  0  0  0  0  0  0  0  0  0  0  0
    0.0564    0.6382   -1.1618 C   0  0  0  0  0  0  0  0  0  0  0  0
    0.0673    0.3180   -2.2096 H   0  0  0  0  0  0  0  0  0  0  0  0
   -0.9293    1.0755   -0.9703 H   0  0  0  0  0  0  0  0  0  0  0  0
    1.1114    1.7505   -0.9412 C   0  0  0  0  0  0  0  0  0  0  0  0
    0.6935    2.5477   -0.3203 H   0  0  0  0  0  0  0  0  0  0  0  0
    1.9833    1.3488   -0.4208 H   0  0  0  0  0  0  0  0  0  0  0  0
    1.6268    2.3408   -2.2503 C   0  0  0  0  0  0  0  0  0  0  0  0
    0.8960    2.5475   -3.2017 O   0  0  0  0  0  0  0  0  0  0  0  0
    2.9470    2.6385   -2.4311 N   0  0  0  0  0  0  0  0  0  0  0  0
    3.2343    2.8557   -3.3807 H   0  0  0  0  0  0  0  0  0  0  0  0
    3.6245    2.3055   -1.7523 H   0  0  0  0  0  0  0  0  0  0  0  0
    0.6322   -0.2949    1.1655 C   0  0  0  0  0  0  0  0  0  0  0  0
    1.8100   -0.2905    1.5020 O   0  0  0  0  0  0  0  0  0  0  0  0
   -0.3208    0.1899    2.0432 N   0  0  0  0  0  0  0  0  0  0  0  0
   -1.2883    0.0602    1.7668 H   0  0  0  0  0  0  0  0  0  0  0  0
   -0.0257    0.4935    3.4378 C   0  0  0  0  0  0  0  0  0  0  0  0
    0.7606    1.2526    3.5070 H   0  0  0  0  0  0  0  0  0  0  0  0
   -0.9190    0.8779    3.9391 H   0  0  0  0  0  0  0  0  0  0  0  0
    0.3078   -0.4081    3.9625 H   0  0  0  0  0  0  0  0  0  0  0  0
  1  2  1  0  0  0  0
  2  3  1  0  0  0  0
  2  4  1  0  0  0  0
  2  5  1  0  0  0  0
  5  6  2  0  0  0  0
  5  7  1  0  0  0  0
  7  8  1  0  0  0  0
  7  9  1  0  0  0  0
  9 10  1  0  0  0  0
  9 11  1  0  0  0  0
  9 22  1  0  0  0  0
 11 12  1  0  0  0  0
 11 13  1  0  0  0  0
 11 14  1  0  0  0  0
 14 15  1  0  0  0  0
 14 16  1  0  0  0  0
 14 17  1  0  0  0  0
 17 18  2  0  0  0  0
 17 19  1  0  0  0  0
 19 20  1  0  0  0  0
 19 21  1  0  0  0  0
 22 23  2  0  0  0  0
 22 24  1  0  0  0  0
 24 25  1  0  0  0  0
 24 26  1  0  0  0  0
 26 27  1  0  0  0  0
 26 28  1  0  0  0  0
 26 29  1  0  0  0  0
M  END
$$$$

  -OEChem-02102214123D

 29 28  0     1  0  0  0  0  0999 V2000
   -2.6428   -4.2966    0.4762 H   0  0  0  0  0  0  0  0  0  0  0  0
   -2.6123   -3.3511   -0.0732 C   0  0  0  0  0  0  0  0  0  0  0  0
   -3.4577   -2.7344    0.2411 H   0  0  0  0  0  0  0  0  0  0  0  0
   -2.7008   -3.5636   -1.1413 H   0  0  0  0  0  0  0  0  0  0  0  0
   -1.3083   -2.6276    0.2063 C   0  0  0  0  0  0  0  0  0  0  0  0
   -0.4851   -3.1305    0.9492 O   0  0  0  0  0  0  0  0  0  0  0  0
   -1.0662   -1.4014   -0.3833 N   0  0  0  0  0  0  0  0  0  0  0  0
   -1.7469   -1.0913   -1.0712 H   0  0  0  0  0  0  0  0  0  0  0  0
    0.2181   -0.6781   -0.3054 C   0  0  1  0  0  0  0  0  0  0  0  0
    1.0128   -1.3047   -0.7259 H   0  0  0  0  0  0  0  0  0  0  0  0
    0.0655    0.5892   -1.1740 C   0  0  0  0  0  0  0  0  0  0  0  0
    0.0828    0.2656   -2.2206 H   0  0  0  0  0  0  0  0  0  0  0  0
   -0.9077    1.0580   -0.9930 H   0  0  0  0  0  0  0  0  0  0  0  0
    1.1601    1.6564   -0.9422 C   0  0  0  0  0  0  0  0  0  0  0  0
    0.8771    2.3132   -0.1149 H   0  0  0  0  0  0  0  0  0  0  0  0
    2.0966    1.1603   -0.6722 H   0  0  0  0  0  0  0  0  0  0  0  0
    1.4553    2.4957   -2.1826 C   0  0  0  0  0  0  0  0  0  0  0  0
    0.6743    2.5993   -3.1110 O   0  0  0  0  0  0  0  0  0  0  0  0
    2.6237    3.1909   -2.3066 N   0  0  0  0  0  0  0  0  0  0  0  0
    2.8142    3.5937   -3.2195 H   0  0  0  0  0  0  0  0  0  0  0  0
    3.3814    3.0035   -1.6577 H   0  0  0  0  0  0  0  0  0  0  0  0
    0.6329   -0.3389    1.1488 C   0  0  0  0  0  0  0  0  0  0  0  0
    1.8172   -0.3277    1.4617 O   0  0  0  0  0  0  0  0  0  0  0  0
   -0.2994    0.1757    2.0318 N   0  0  0  0  0  0  0  0  0  0  0  0
   -1.2729    0.0487    1.7755 H   0  0  0  0  0  0  0  0  0  0  0  0
    0.0235    0.5083    3.4136 C   0  0  0  0  0  0  0  0  0  0  0  0
    0.8165    1.2628    3.4515 H   0  0  0  0  0  0  0  0  0  0  0  0
   -0.8580    0.9105    3.9219 H   0  0  0  0  0  0  0  0  0  0  0  0
    0.3600   -0.3838    3.9525 H   0  0  0  0  0  0  0  0  0  0  0  0
  1  2  1  0  0  0  0
  2  3  1  0  0  0  0
  2  4  1  0  0  0  0
  2  5  1  0  0  0  0
  5  6  2  0  0  0  0
  5  7  1  0  0  0  0
  7  8  1  0  0  0  0
  7  9  1  0  0  0  0
  9 10  1  0  0  0  0
  9 11  1  0  0  0  0
  9 22  1  0  0  0  0
 11 12  1  0  0  0  0
 11 13  1  0  0  0  0
 11 14  1  0  0  0  0
 14 15  1  0  0  0  0
 14 16  1  0  0  0  0
 14 17  1  0  0  0  0
 17 18  2  0  0  0  0
 17 19  1  0  0  0  0
 19 20  1  0  0  0  0
 19 21  1  0  0  0  0
 22 23  2  0  0  0  0
 22 24  1  0  0  0  0
 24 25  1  0  0  0  0
 24 26  1  0  0  0  0
 26 27  1  0  0  0  0
 26 28  1  0  0  0  0
 26 29  1  0  0  0  0
M  END
$$$$

  -OEChem-02102214123D

 29 28  0     1  0  0  0  0  0999 V2000
   -2.6867   -4.2877    0.4634 H   0  0  0  0  0  0  0  0  0  0  0  0
   -2.6490   -3.3364   -0.0752 C   0  0  0  0  0  0  0  0  0  0  0  0
   -3.4857   -2.7143    0.2514 H   0  0  0  0  0  0  0  0  0  0  0  0
   -2.7465   -3.5355   -1.1452 H   0  0  0  0  0  0  0  0  0  0  0  0
   -1.3356   -2.6302    0.2044 C   0  0  0  0  0  0  0  0  0  0  0  0
   -0.5175   -3.1440    0.9456 O   0  0  0  0  0  0  0  0  0  0  0  0
   -1.0803   -1.4048   -0.3815 N   0  0  0  0  0  0  0  0  0  0  0  0
   -1.7599   -1.0820   -1.0646 H   0  0  0  0  0  0  0  0  0  0  0  0
    0.2117   -0.6962   -0.3024 C   0  0  1  0  0  0  0  0  0  0  0  0
    0.9970   -1.3352   -0.7218 H   0  0  0  0  0  0  0  0  0  0  0  0
    0.0838    0.5690   -1.1772 C   0  0  0  0  0  0  0  0  0  0  0  0
    0.0995    0.2549   -2.2269 H   0  0  0  0  0  0  0  0  0  0  0  0
   -0.8811    1.0533   -0.9920 H   0  0  0  0  0  0  0  0  0  0  0  0
    1.1937    1.6148   -0.9377 C   0  0  0  0  0  0  0  0  0  0  0  0
    1.0361    2.1195    0.0198 H   0  0  0  0  0  0  0  0  0  0  0  0
    2.1625    1.1081   -0.8970 H   0  0  0  0  0  0  0  0  0  0  0  0
    1.2637    2.6695   -2.0384 C   0  0  0  0  0  0  0  0  0  0  0  0
    0.4095    2.7874   -2.8985 O   0  0  0  0  0  0  0  0  0  0  0  0
    2.3051    3.5493   -2.1078 N   0  0  0  0  0  0  0  0  0  0  0  0
    2.3671    4.1103   -2.9523 H   0  0  0  0  0  0  0  0  0  0  0  0
    3.1267    3.3883   -1.5341 H   0  0  0  0  0  0  0  0  0  0  0  0
    0.6376   -0.3633    1.1489 C   0  0  0  0  0  0  0  0  0  0  0  0
    1.8254   -0.3468    1.4480 O   0  0  0  0  0  0  0  0  0  0  0  0
   -0.2854    0.1607    2.0360 N   0  0  0  0  0  0  0  0  0  0  0  0
   -1.2615    0.0395    1.7866 H   0  0  0  0  0  0  0  0  0  0  0  0
    0.0495    0.5030    3.4125 C   0  0  0  0  0  0  0  0  0  0  0  0
    0.8408    1.2596    3.4383 H   0  0  0  0  0  0  0  0  0  0  0  0
   -0.8283    0.9063    3.9262 H   0  0  0  0  0  0  0  0  0  0  0  0
    0.3932   -0.3846    3.9541 H   0  0  0  0  0  0  0  0  0  0  0  0
  1  2  1  0  0  0  0
  2  3  1  0  0  0  0
  2  4  1  0  0  0  0
  2  5  1  0  0  0  0
  5  6  2  0  0  0  0
  5  7  1  0  0  0  0
  7  8  1  0  0  0  0
  7  9  1  0  0  0  0
  9 10  1  0  0  0  0
  9 11  1  0  0  0  0
  9 22  1  0  0  0  0
 11 12  1  0  0  0  0
 11 13  1  0  0  0  0
 11 14  1  0  0  0  0
 14 15  1  0  0  0  0
 14 16  1  0  0  0  0
 14 17  1  0  0  0  0
 17 18  2  0  0  0  0
 17 19  1  0  0  0  0
 19 20  1  0  0  0  0
 19 21  1  0  0  0  0
 22 23  2  0  0  0  0
 22 24  1  0  0  0  0
 24 25  1  0  0  0  0
 24 26  1  0  0  0  0
 26 27  1  0  0  0  0
 26 28  1  0  0  0  0
 26 29  1  0  0  0  0
M  END
$$$$
