
  -OEChem-04042216013D

 31 30  0     1  0  0  0  0  0999 V2000
   -2.9388   -4.1483    0.1323 H   0  0  0  0  0  0  0  0  0  0  0  0
   -2.8156   -3.1691   -0.3395 C   0  0  0  0  0  0  0  0  0  0  0  0
   -3.5910   -2.4981    0.0373 H   0  0  0  0  0  0  0  0  0  0  0  0
   -2.9333   -3.2828   -1.4198 H   0  0  0  0  0  0  0  0  0  0  0  0
   -1.4423   -2.6072   -0.0226 C   0  0  0  0  0  0  0  0  0  0  0  0
   -0.6868   -3.2340    0.6966 O   0  0  0  0  0  0  0  0  0  0  0  0
   -1.0642   -1.3906   -0.5584 N   0  0  0  0  0  0  0  0  0  0  0  0
   -1.7105   -0.9643   -1.2153 H   0  0  0  0  0  0  0  0  0  0  0  0
    0.2663   -0.7719   -0.3882 C   0  0  1  0  0  0  0  0  0  0  0  0
    1.0363   -1.4500   -0.7723 H   0  0  0  0  0  0  0  0  0  0  0  0
    0.2224    0.4882   -1.2893 C   0  0  0  0  0  0  0  0  0  0  0  0
   -0.0040    0.1529   -2.3071 H   0  0  0  0  0  0  0  0  0  0  0  0
   -0.6180    1.1062   -0.9548 H   0  0  0  0  0  0  0  0  0  0  0  0
    1.4703    1.4054   -1.3700 C   0  0  0  0  0  0  0  0  0  0  0  0
    2.3110    0.8308   -1.7737 H   0  0  0  0  0  0  0  0  0  0  0  0
    1.1399    2.5580   -2.3309 C   0  0  0  0  0  0  0  0  0  0  0  0
    0.3328    3.1796   -1.9300 H   0  0  0  0  0  0  0  0  0  0  0  0
    2.0196    3.1901   -2.4883 H   0  0  0  0  0  0  0  0  0  0  0  0
    0.8281    2.1679   -3.3048 H   0  0  0  0  0  0  0  0  0  0  0  0
    1.9035    2.0473   -0.0417 C   0  0  0  0  0  0  0  0  0  0  0  0
    2.5009    1.3513    0.5495 H   0  0  0  0  0  0  0  0  0  0  0  0
    2.5314    2.9255   -0.2223 H   0  0  0  0  0  0  0  0  0  0  0  0
    1.0331    2.3626    0.5419 H   0  0  0  0  0  0  0  0  0  0  0  0
    0.5972   -0.5117    1.1007 C   0  0  0  0  0  0  0  0  0  0  0  0
    1.7041   -0.7834    1.5475 O   0  0  0  0  0  0  0  0  0  0  0  0
   -0.3526    0.0483    1.9371 N   0  0  0  0  0  0  0  0  0  0  0  0
   -1.2947    0.1114    1.5676 H   0  0  0  0  0  0  0  0  0  0  0  0
   -0.1499    0.1923    3.3729 C   0  0  0  0  0  0  0  0  0  0  0  0
    0.7199    0.8262    3.5753 H   0  0  0  0  0  0  0  0  0  0  0  0
   -1.0275    0.6543    3.8348 H   0  0  0  0  0  0  0  0  0  0  0  0
    0.0124   -0.7870    3.8358 H   0  0  0  0  0  0  0  0  0  0  0  0
  1  2  1  0  0  0  0
  2  3  1  0  0  0  0
  2  4  1  0  0  0  0
  2  5  1  0  0  0  0
  5  6  2  0  0  0  0
  5  7  1  0  0  0  0
  7  8  1  0  0  0  0
  7  9  1  0  0  0  0
  9 10  1  0  0  0  0
  9 11  1  0  0  0  0
  9 24  1  0  0  0  0
 11 12  1  0  0  0  0
 11 13  1  0  0  0  0
 11 14  1  0  0  0  0
 14 15  1  0  0  0  0
 14 16  1  0  0  0  0
 14 20  1  0  0  0  0
 16 17  1  0  0  0  0
 16 18  1  0  0  0  0
 16 19  1  0  0  0  0
 20 21  1  0  0  0  0
 20 22  1  0  0  0  0
 20 23  1  0  0  0  0
 24 25  2  0  0  0  0
 24 26  1  0  0  0  0
 26 27  1  0  0  0  0
 26 28  1  0  0  0  0
 28 29  1  0  0  0  0
 28 30  1  0  0  0  0
 28 31  1  0  0  0  0
M  END
$$$$

  -OEChem-04042216013D

 31 30  0     1  0  0  0  0  0999 V2000
   -2.9703   -4.1188    0.1557 H   0  0  0  0  0  0  0  0  0  0  0  0
   -2.8299   -3.1453   -0.3229 C   0  0  0  0  0  0  0  0  0  0  0  0
   -3.5955   -2.4589    0.0460 H   0  0  0  0  0  0  0  0  0  0  0  0
   -2.9455   -3.2656   -1.4026 H   0  0  0  0  0  0  0  0  0  0  0  0
   -1.4489   -2.6031   -0.0051 C   0  0  0  0  0  0  0  0  0  0  0  0
   -0.7025   -3.2422    0.7124 O   0  0  0  0  0  0  0  0  0  0  0  0
   -1.0509   -1.3950   -0.5460 N   0  0  0  0  0  0  0  0  0  0  0  0
   -1.6911   -0.9615   -1.2039 H   0  0  0  0  0  0  0  0  0  0  0  0
    0.2882   -0.7926   -0.3762 C   0  0  1  0  0  0  0  0  0  0  0  0
    1.0565   -1.4743   -0.7572 H   0  0  0  0  0  0  0  0  0  0  0  0
    0.2424    0.4720   -1.2751 C   0  0  0  0  0  0  0  0  0  0  0  0
   -0.0129    0.1514   -2.2908 H   0  0  0  0  0  0  0  0  0  0  0  0
   -0.5902    1.0826   -0.9089 H   0  0  0  0  0  0  0  0  0  0  0  0
    1.4771    1.4089   -1.3911 C   0  0  0  0  0  0  0  0  0  0  0  0
    2.2058    0.9307   -2.0549 H   0  0  0  0  0  0  0  0  0  0  0  0
    1.0128    2.7281   -2.0265 C   0  0  0  0  0  0  0  0  0  0  0  0
    0.3346    3.2656   -1.3557 H   0  0  0  0  0  0  0  0  0  0  0  0
    1.8707    3.3732   -2.2417 H   0  0  0  0  0  0  0  0  0  0  0  0
    0.4908    2.5351   -2.9690 H   0  0  0  0  0  0  0  0  0  0  0  0
    2.2023    1.7701   -0.0886 C   0  0  0  0  0  0  0  0  0  0  0  0
    2.8015    0.9267    0.2613 H   0  0  0  0  0  0  0  0  0  0  0  0
    2.8921    2.6042   -0.2514 H   0  0  0  0  0  0  0  0  0  0  0  0
    1.4910    2.0634    0.6896 H   0  0  0  0  0  0  0  0  0  0  0  0
    0.5957   -0.5373    1.1210 C   0  0  0  0  0  0  0  0  0  0  0  0
    1.6799   -0.8436    1.5998 O   0  0  0  0  0  0  0  0  0  0  0  0
   -0.3643    0.0341    1.9383 N   0  0  0  0  0  0  0  0  0  0  0  0
   -1.2947    0.1200    1.5447 H   0  0  0  0  0  0  0  0  0  0  0  0
   -0.1986    0.1570    3.3810 C   0  0  0  0  0  0  0  0  0  0  0  0
    0.6871    0.7570    3.6154 H   0  0  0  0  0  0  0  0  0  0  0  0
   -1.0724    0.6459    3.8220 H   0  0  0  0  0  0  0  0  0  0  0  0
   -0.0854   -0.8320    3.8377 H   0  0  0  0  0  0  0  0  0  0  0  0
  1  2  1  0  0  0  0
  2  3  1  0  0  0  0
  2  4  1  0  0  0  0
  2  5  1  0  0  0  0
  5  6  2  0  0  0  0
  5  7  1  0  0  0  0
  7  8  1  0  0  0  0
  7  9  1  0  0  0  0
  9 10  1  0  0  0  0
  9 11  1  0  0  0  0
  9 24  1  0  0  0  0
 11 12  1  0  0  0  0
 11 13  1  0  0  0  0
 11 14  1  0  0  0  0
 14 15  1  0  0  0  0
 14 16  1  0  0  0  0
 14 20  1  0  0  0  0
 16 17  1  0  0  0  0
 16 18  1  0  0  0  0
 16 19  1  0  0  0  0
 20 21  1  0  0  0  0
 20 22  1  0  0  0  0
 20 23  1  0  0  0  0
 24 25  2  0  0  0  0
 24 26  1  0  0  0  0
 26 27  1  0  0  0  0
 26 28  1  0  0  0  0
 28 29  1  0  0  0  0
 28 30  1  0  0  0  0
 28 31  1  0  0  0  0
M  END
$$$$

  -OEChem-04042216013D

 31 30  0     1  0  0  0  0  0999 V2000
   -2.9891   -4.1102    0.1884 H   0  0  0  0  0  0  0  0  0  0  0  0
   -2.8404   -3.1423   -0.2992 C   0  0  0  0  0  0  0  0  0  0  0  0
   -3.5962   -2.4441    0.0680 H   0  0  0  0  0  0  0  0  0  0  0  0
   -2.9627   -3.2702   -1.3775 H   0  0  0  0  0  0  0  0  0  0  0  0
   -1.4522   -2.6127    0.0070 C   0  0  0  0  0  0  0  0  0  0  0  0
   -0.7085   -3.2547    0.7247 O   0  0  0  0  0  0  0  0  0  0  0  0
   -1.0468   -1.4112   -0.5435 N   0  0  0  0  0  0  0  0  0  0  0  0
   -1.6862   -0.9778   -1.2021 H   0  0  0  0  0  0  0  0  0  0  0  0
    0.2947   -0.8127   -0.3771 C   0  0  1  0  0  0  0  0  0  0  0  0
    1.0646   -1.4926   -0.7578 H   0  0  0  0  0  0  0  0  0  0  0  0
    0.2423    0.4595   -1.2663 C   0  0  0  0  0  0  0  0  0  0  0  0
   -0.0267    0.1504   -2.2820 H   0  0  0  0  0  0  0  0  0  0  0  0
   -0.5907    1.0598   -0.8841 H   0  0  0  0  0  0  0  0  0  0  0  0
    1.4705    1.4083   -1.3960 C   0  0  0  0  0  0  0  0  0  0  0  0
    2.0415    1.0778   -2.2704 H   0  0  0  0  0  0  0  0  0  0  0  0
    0.9712    2.8375   -1.6531 C   0  0  0  0  0  0  0  0  0  0  0  0
    0.4412    3.2264   -0.7776 H   0  0  0  0  0  0  0  0  0  0  0  0
    1.8114    3.5039   -1.8726 H   0  0  0  0  0  0  0  0  0  0  0  0
    0.2901    2.8556   -2.5098 H   0  0  0  0  0  0  0  0  0  0  0  0
    2.4594    1.4628   -0.2277 C   0  0  0  0  0  0  0  0  0  0  0  0
    2.9509    0.4948   -0.0981 H   0  0  0  0  0  0  0  0  0  0  0  0
    3.2425    2.2003   -0.4290 H   0  0  0  0  0  0  0  0  0  0  0  0
    1.9579    1.7484    0.7018 H   0  0  0  0  0  0  0  0  0  0  0  0
    0.5893   -0.5498    1.1229 C   0  0  0  0  0  0  0  0  0  0  0  0
    1.6644   -0.8607    1.6189 O   0  0  0  0  0  0  0  0  0  0  0  0
   -0.3776    0.0298    1.9263 N   0  0  0  0  0  0  0  0  0  0  0  0
   -1.3014    0.1244    1.5198 H   0  0  0  0  0  0  0  0  0  0  0  0
   -0.2284    0.1629    3.3698 C   0  0  0  0  0  0  0  0  0  0  0  0
    0.6574    0.7606    3.6094 H   0  0  0  0  0  0  0  0  0  0  0  0
   -1.1047    0.6597    3.7967 H   0  0  0  0  0  0  0  0  0  0  0  0
   -0.1252   -0.8231    3.8354 H   0  0  0  0  0  0  0  0  0  0  0  0
  1  2  1  0  0  0  0
  2  3  1  0  0  0  0
  2  4  1  0  0  0  0
  2  5  1  0  0  0  0
  5  6  2  0  0  0  0
  5  7  1  0  0  0  0
  7  8  1  0  0  0  0
  7  9  1  0  0  0  0
  9 10  1  0  0  0  0
  9 11  1  0  0  0  0
  9 24  1  0  0  0  0
 11 12  1  0  0  0  0
 11 13  1  0  0  0  0
 11 14  1  0  0  0  0
 14 15  1  0  0  0  0
 14 16  1  0  0  0  0
 14 20  1  0  0  0  0
 16 17  1  0  0  0  0
 16 18  1  0  0  0  0
 16 19  1  0  0  0  0
 20 21  1  0  0  0  0
 20 22  1  0  0  0  0
 20 23  1  0  0  0  0
 24 25  2  0  0  0  0
 24 26  1  0  0  0  0
 26 27  1  0  0  0  0
 26 28  1  0  0  0  0
 28 29  1  0  0  0  0
 28 30  1  0  0  0  0
 28 31  1  0  0  0  0
M  END
$$$$

  -OEChem-04042216013D

 31 30  0     1  0  0  0  0  0999 V2000
   -2.9809   -4.1323    0.1926 H   0  0  0  0  0  0  0  0  0  0  0  0
   -2.8423   -3.1599   -0.2889 C   0  0  0  0  0  0  0  0  0  0  0  0
   -3.6035   -2.4712    0.0851 H   0  0  0  0  0  0  0  0  0  0  0  0
   -2.9668   -3.2819   -1.3675 H   0  0  0  0  0  0  0  0  0  0  0  0
   -1.4576   -2.6201    0.0165 C   0  0  0  0  0  0  0  0  0  0  0  0
   -0.7123   -3.2523    0.7414 O   0  0  0  0  0  0  0  0  0  0  0  0
   -1.0562   -1.4216   -0.5433 N   0  0  0  0  0  0  0  0  0  0  0  0
   -1.6954   -0.9964   -1.2078 H   0  0  0  0  0  0  0  0  0  0  0  0
    0.2837   -0.8188   -0.3809 C   0  0  1  0  0  0  0  0  0  0  0  0
    1.0538   -1.4990   -0.7612 H   0  0  0  0  0  0  0  0  0  0  0  0
    0.2284    0.4552   -1.2651 C   0  0  0  0  0  0  0  0  0  0  0  0
   -0.0318    0.1414   -2.2818 H   0  0  0  0  0  0  0  0  0  0  0  0
   -0.6131    1.0510   -0.8951 H   0  0  0  0  0  0  0  0  0  0  0  0
    1.4602    1.4024   -1.3899 C   0  0  0  0  0  0  0  0  0  0  0  0
    1.8570    1.2603   -2.4011 H   0  0  0  0  0  0  0  0  0  0  0  0
    1.0112    2.8644   -1.2634 C   0  0  0  0  0  0  0  0  0  0  0  0
    0.6191    3.0626   -0.2604 H   0  0  0  0  0  0  0  0  0  0  0  0
    1.8529    3.5401   -1.4458 H   0  0  0  0  0  0  0  0  0  0  0  0
    0.2292    3.0885   -1.9956 H   0  0  0  0  0  0  0  0  0  0  0  0
    2.6405    1.1732   -0.4406 C   0  0  0  0  0  0  0  0  0  0  0  0
    2.9740    0.1320   -0.4799 H   0  0  0  0  0  0  0  0  0  0  0  0
    3.4851    1.8038   -0.7352 H   0  0  0  0  0  0  0  0  0  0  0  0
    2.3749    1.4333    0.5881 H   0  0  0  0  0  0  0  0  0  0  0  0
    0.5840   -0.5417    1.1158 C   0  0  0  0  0  0  0  0  0  0  0  0
    1.6597   -0.8513    1.6116 O   0  0  0  0  0  0  0  0  0  0  0  0
   -0.3806    0.0431    1.9181 N   0  0  0  0  0  0  0  0  0  0  0  0
   -1.3059    0.1327    1.5136 H   0  0  0  0  0  0  0  0  0  0  0  0
   -0.2286    0.1816    3.3607 C   0  0  0  0  0  0  0  0  0  0  0  0
    0.6412    0.8038    3.5959 H   0  0  0  0  0  0  0  0  0  0  0  0
   -1.1167    0.6533    3.7912 H   0  0  0  0  0  0  0  0  0  0  0  0
   -0.0958   -0.8005    3.8267 H   0  0  0  0  0  0  0  0  0  0  0  0
  1  2  1  0  0  0  0
  2  3  1  0  0  0  0
  2  4  1  0  0  0  0
  2  5  1  0  0  0  0
  5  6  2  0  0  0  0
  5  7  1  0  0  0  0
  7  8  1  0  0  0  0
  7  9  1  0  0  0  0
  9 10  1  0  0  0  0
  9 11  1  0  0  0  0
  9 24  1  0  0  0  0
 11 12  1  0  0  0  0
 11 13  1  0  0  0  0
 11 14  1  0  0  0  0
 14 15  1  0  0  0  0
 14 16  1  0  0  0  0
 14 20  1  0  0  0  0
 16 17  1  0  0  0  0
 16 18  1  0  0  0  0
 16 19  1  0  0  0  0
 20 21  1  0  0  0  0
 20 22  1  0  0  0  0
 20 23  1  0  0  0  0
 24 25  2  0  0  0  0
 24 26  1  0  0  0  0
 26 27  1  0  0  0  0
 26 28  1  0  0  0  0
 28 29  1  0  0  0  0
 28 30  1  0  0  0  0
 28 31  1  0  0  0  0
M  END
$$$$

  -OEChem-04042216013D

 31 30  0     1  0  0  0  0  0999 V2000
   -2.9709   -4.1535    0.2058 H   0  0  0  0  0  0  0  0  0  0  0  0
   -2.8382   -3.1866   -0.2882 C   0  0  0  0  0  0  0  0  0  0  0  0
   -3.6113   -2.5013    0.0674 H   0  0  0  0  0  0  0  0  0  0  0  0
   -2.9495   -3.3259   -1.3663 H   0  0  0  0  0  0  0  0  0  0  0  0
   -1.4630   -2.6265    0.0240 C   0  0  0  0  0  0  0  0  0  0  0  0
   -0.7161   -3.2426    0.7609 O   0  0  0  0  0  0  0  0  0  0  0  0
   -1.0696   -1.4302   -0.5457 N   0  0  0  0  0  0  0  0  0  0  0  0
   -1.7078   -1.0185   -1.2194 H   0  0  0  0  0  0  0  0  0  0  0  0
    0.2669   -0.8198   -0.3884 C   0  0  1  0  0  0  0  0  0  0  0  0
    1.0347   -1.5014   -0.7700 H   0  0  0  0  0  0  0  0  0  0  0  0
    0.2093    0.4567   -1.2643 C   0  0  0  0  0  0  0  0  0  0  0  0
   -0.0266    0.1332   -2.2839 H   0  0  0  0  0  0  0  0  0  0  0  0
   -0.6431    1.0530   -0.9211 H   0  0  0  0  0  0  0  0  0  0  0  0
    1.4499    1.3923   -1.3715 C   0  0  0  0  0  0  0  0  0  0  0  0
    1.6647    1.4823   -2.4420 H   0  0  0  0  0  0  0  0  0  0  0  0
    1.1062    2.7999   -0.8691 C   0  0  0  0  0  0  0  0  0  0  0  0
    0.8464    2.7737    0.1942 H   0  0  0  0  0  0  0  0  0  0  0  0
    1.9604    3.4715   -1.0009 H   0  0  0  0  0  0  0  0  0  0  0  0
    0.2591    3.2109   -1.4271 H   0  0  0  0  0  0  0  0  0  0  0  0
    2.7577    0.9169   -0.7261 C   0  0  0  0  0  0  0  0  0  0  0  0
    2.9405   -0.1410   -0.9353 H   0  0  0  0  0  0  0  0  0  0  0  0
    3.5987    1.4889   -1.1301 H   0  0  0  0  0  0  0  0  0  0  0  0
    2.7439    1.0751    0.3551 H   0  0  0  0  0  0  0  0  0  0  0  0
    0.5823   -0.5233    1.1006 C   0  0  0  0  0  0  0  0  0  0  0  0
    1.6644   -0.8225    1.5882 O   0  0  0  0  0  0  0  0  0  0  0  0
   -0.3763    0.0677    1.9058 N   0  0  0  0  0  0  0  0  0  0  0  0
   -1.3079    0.1406    1.5127 H   0  0  0  0  0  0  0  0  0  0  0  0
   -0.2103    0.2204    3.3456 C   0  0  0  0  0  0  0  0  0  0  0  0
    0.6748    0.8260    3.5671 H   0  0  0  0  0  0  0  0  0  0  0  0
   -1.0843    0.7175    3.7770 H   0  0  0  0  0  0  0  0  0  0  0  0
   -0.0960   -0.7589    3.8227 H   0  0  0  0  0  0  0  0  0  0  0  0
  1  2  1  0  0  0  0
  2  3  1  0  0  0  0
  2  4  1  0  0  0  0
  2  5  1  0  0  0  0
  5  6  2  0  0  0  0
  5  7  1  0  0  0  0
  7  8  1  0  0  0  0
  7  9  1  0  0  0  0
  9 10  1  0  0  0  0
  9 11  1  0  0  0  0
  9 24  1  0  0  0  0
 11 12  1  0  0  0  0
 11 13  1  0  0  0  0
 11 14  1  0  0  0  0
 14 15  1  0  0  0  0
 14 16  1  0  0  0  0
 14 20  1  0  0  0  0
 16 17  1  0  0  0  0
 16 18  1  0  0  0  0
 16 19  1  0  0  0  0
 20 21  1  0  0  0  0
 20 22  1  0  0  0  0
 20 23  1  0  0  0  0
 24 25  2  0  0  0  0
 24 26  1  0  0  0  0
 26 27  1  0  0  0  0
 26 28  1  0  0  0  0
 28 29  1  0  0  0  0
 28 30  1  0  0  0  0
 28 31  1  0  0  0  0
M  END
$$$$

  -OEChem-04042216013D

 31 30  0     1  0  0  0  0  0999 V2000
   -2.9547   -4.1729    0.2184 H   0  0  0  0  0  0  0  0  0  0  0  0
   -2.8318   -3.2050   -0.2762 C   0  0  0  0  0  0  0  0  0  0  0  0
   -3.6086   -2.5256    0.0826 H   0  0  0  0  0  0  0  0  0  0  0  0
   -2.9466   -3.3452   -1.3537 H   0  0  0  0  0  0  0  0  0  0  0  0
   -1.4603   -2.6334    0.0304 C   0  0  0  0  0  0  0  0  0  0  0  0
   -0.7100   -3.2357    0.7754 O   0  0  0  0  0  0  0  0  0  0  0  0
   -1.0755   -1.4393   -0.5496 N   0  0  0  0  0  0  0  0  0  0  0  0
   -1.7134   -1.0426   -1.2326 H   0  0  0  0  0  0  0  0  0  0  0  0
    0.2580   -0.8211   -0.4004 C   0  0  1  0  0  0  0  0  0  0  0  0
    1.0275   -1.5000   -0.7827 H   0  0  0  0  0  0  0  0  0  0  0  0
    0.1954    0.4619   -1.2639 C   0  0  0  0  0  0  0  0  0  0  0  0
   -0.0278    0.1411   -2.2869 H   0  0  0  0  0  0  0  0  0  0  0  0
   -0.6565    1.0647   -0.9312 H   0  0  0  0  0  0  0  0  0  0  0  0
    1.4477    1.3770   -1.3495 C   0  0  0  0  0  0  0  0  0  0  0  0
    1.4902    1.7158   -2.3906 H   0  0  0  0  0  0  0  0  0  0  0  0
    1.2680    2.6444   -0.5060 C   0  0  0  0  0  0  0  0  0  0  0  0
    1.1871    2.3905    0.5558 H   0  0  0  0  0  0  0  0  0  0  0  0
    2.1254    3.3119   -0.6373 H   0  0  0  0  0  0  0  0  0  0  0  0
    0.3649    3.1844   -0.8069 H   0  0  0  0  0  0  0  0  0  0  0  0
    2.8042    0.7132   -1.0768 C   0  0  0  0  0  0  0  0  0  0  0  0
    2.8625   -0.2679   -1.5572 H   0  0  0  0  0  0  0  0  0  0  0  0
    3.6080    1.3361   -1.4812 H   0  0  0  0  0  0  0  0  0  0  0  0
    2.9878    0.5995   -0.0073 H   0  0  0  0  0  0  0  0  0  0  0  0
    0.5796   -0.5107    1.0845 C   0  0  0  0  0  0  0  0  0  0  0  0
    1.6748   -0.7691    1.5648 O   0  0  0  0  0  0  0  0  0  0  0  0
   -0.3804    0.0820    1.8867 N   0  0  0  0  0  0  0  0  0  0  0  0
   -1.3159    0.1353    1.4996 H   0  0  0  0  0  0  0  0  0  0  0  0
   -0.2031    0.2740    3.3202 C   0  0  0  0  0  0  0  0  0  0  0  0
    0.6662    0.9101    3.5174 H   0  0  0  0  0  0  0  0  0  0  0  0
   -1.0867    0.7560    3.7490 H   0  0  0  0  0  0  0  0  0  0  0  0
   -0.0555   -0.6898    3.8191 H   0  0  0  0  0  0  0  0  0  0  0  0
  1  2  1  0  0  0  0
  2  3  1  0  0  0  0
  2  4  1  0  0  0  0
  2  5  1  0  0  0  0
  5  6  2  0  0  0  0
  5  7  1  0  0  0  0
  7  8  1  0  0  0  0
  7  9  1  0  0  0  0
  9 10  1  0  0  0  0
  9 11  1  0  0  0  0
  9 24  1  0  0  0  0
 11 12  1  0  0  0  0
 11 13  1  0  0  0  0
 11 14  1  0  0  0  0
 14 15  1  0  0  0  0
 14 16  1  0  0  0  0
 14 20  1  0  0  0  0
 16 17  1  0  0  0  0
 16 18  1  0  0  0  0
 16 19  1  0  0  0  0
 20 21  1  0  0  0  0
 20 22  1  0  0  0  0
 20 23  1  0  0  0  0
 24 25  2  0  0  0  0
 24 26  1  0  0  0  0
 26 27  1  0  0  0  0
 26 28  1  0  0  0  0
 28 29  1  0  0  0  0
 28 30  1  0  0  0  0
 28 31  1  0  0  0  0
M  END
$$$$

  -OEChem-04042216013D

 31 30  0     1  0  0  0  0  0999 V2000
   -2.9367   -4.1954    0.2050 H   0  0  0  0  0  0  0  0  0  0  0  0
   -2.8266   -3.2238   -0.2851 C   0  0  0  0  0  0  0  0  0  0  0  0
   -3.6114   -2.5561    0.0780 H   0  0  0  0  0  0  0  0  0  0  0  0
   -2.9411   -3.3604   -1.3630 H   0  0  0  0  0  0  0  0  0  0  0  0
   -1.4615   -2.6370    0.0223 C   0  0  0  0  0  0  0  0  0  0  0  0
   -0.7051   -3.2302    0.7685 O   0  0  0  0  0  0  0  0  0  0  0  0
   -1.0900   -1.4366   -0.5533 N   0  0  0  0  0  0  0  0  0  0  0  0
   -1.7315   -1.0439   -1.2354 H   0  0  0  0  0  0  0  0  0  0  0  0
    0.2398   -0.8101   -0.4075 C   0  0  1  0  0  0  0  0  0  0  0  0
    1.0086   -1.4899   -0.7899 H   0  0  0  0  0  0  0  0  0  0  0  0
    0.1869    0.4676   -1.2794 C   0  0  0  0  0  0  0  0  0  0  0  0
   -0.0295    0.1458   -2.3036 H   0  0  0  0  0  0  0  0  0  0  0  0
   -0.6579    1.0835   -0.9536 H   0  0  0  0  0  0  0  0  0  0  0  0
    1.4495    1.3639   -1.3482 C   0  0  0  0  0  0  0  0  0  0  0  0
    1.3742    1.9057   -2.2972 H   0  0  0  0  0  0  0  0  0  0  0  0
    1.4666    2.4423   -0.2568 C   0  0  0  0  0  0  0  0  0  0  0  0
    1.6155    2.0011    0.7323 H   0  0  0  0  0  0  0  0  0  0  0  0
    2.2833    3.1477   -0.4394 H   0  0  0  0  0  0  0  0  0  0  0  0
    0.5266    3.0023   -0.2518 H   0  0  0  0  0  0  0  0  0  0  0  0
    2.7734    0.5895   -1.4015 C   0  0  0  0  0  0  0  0  0  0  0  0
    2.7248   -0.1956   -2.1622 H   0  0  0  0  0  0  0  0  0  0  0  0
    3.5920    1.2675   -1.6619 H   0  0  0  0  0  0  0  0  0  0  0  0
    3.0136    0.1306   -0.4408 H   0  0  0  0  0  0  0  0  0  0  0  0
    0.5734   -0.5040    1.0749 C   0  0  0  0  0  0  0  0  0  0  0  0
    1.6957   -0.6957    1.5233 O   0  0  0  0  0  0  0  0  0  0  0  0
   -0.3819    0.0780    1.8905 N   0  0  0  0  0  0  0  0  0  0  0  0
   -1.3291    0.0949    1.5289 H   0  0  0  0  0  0  0  0  0  0  0  0
   -0.1694    0.3075    3.3140 C   0  0  0  0  0  0  0  0  0  0  0  0
    0.6845    0.9749    3.4715 H   0  0  0  0  0  0  0  0  0  0  0  0
   -1.0550    0.7702    3.7596 H   0  0  0  0  0  0  0  0  0  0  0  0
    0.0245   -0.6397    3.8286 H   0  0  0  0  0  0  0  0  0  0  0  0
  1  2  1  0  0  0  0
  2  3  1  0  0  0  0
  2  4  1  0  0  0  0
  2  5  1  0  0  0  0
  5  6  2  0  0  0  0
  5  7  1  0  0  0  0
  7  8  1  0  0  0  0
  7  9  1  0  0  0  0
  9 10  1  0  0  0  0
  9 11  1  0  0  0  0
  9 24  1  0  0  0  0
 11 12  1  0  0  0  0
 11 13  1  0  0  0  0
 11 14  1  0  0  0  0
 14 15  1  0  0  0  0
 14 16  1  0  0  0  0
 14 20  1  0  0  0  0
 16 17  1  0  0  0  0
 16 18  1  0  0  0  0
 16 19  1  0  0  0  0
 20 21  1  0  0  0  0
 20 22  1  0  0  0  0
 20 23  1  0  0  0  0
 24 25  2  0  0  0  0
 24 26  1  0  0  0  0
 26 27  1  0  0  0  0
 26 28  1  0  0  0  0
 28 29  1  0  0  0  0
 28 30  1  0  0  0  0
 28 31  1  0  0  0  0
M  END
$$$$

  -OEChem-04042216013D

 31 30  0     1  0  0  0  0  0999 V2000
   -2.9389   -4.1983    0.1754 H   0  0  0  0  0  0  0  0  0  0  0  0
   -2.8316   -3.2226   -0.3074 C   0  0  0  0  0  0  0  0  0  0  0  0
   -3.6191   -2.5604    0.0600 H   0  0  0  0  0  0  0  0  0  0  0  0
   -2.9452   -3.3514   -1.3864 H   0  0  0  0  0  0  0  0  0  0  0  0
   -1.4688   -2.6336    0.0052 C   0  0  0  0  0  0  0  0  0  0  0  0
   -0.7083   -3.2332    0.7421 O   0  0  0  0  0  0  0  0  0  0  0  0
   -1.1031   -1.4245   -0.5551 N   0  0  0  0  0  0  0  0  0  0  0  0
   -1.7488   -1.0227   -1.2277 H   0  0  0  0  0  0  0  0  0  0  0  0
    0.2250   -0.7976   -0.4029 C   0  0  1  0  0  0  0  0  0  0  0  0
    0.9871   -1.4860   -0.7837 H   0  0  0  0  0  0  0  0  0  0  0  0
    0.1858    0.4615   -1.3049 C   0  0  0  0  0  0  0  0  0  0  0  0
   -0.0302    0.1253   -2.3245 H   0  0  0  0  0  0  0  0  0  0  0  0
   -0.6552    1.0877   -0.9892 H   0  0  0  0  0  0  0  0  0  0  0  0
    1.4422    1.3644   -1.3821 C   0  0  0  0  0  0  0  0  0  0  0  0
    1.2773    2.0475   -2.2222 H   0  0  0  0  0  0  0  0  0  0  0  0
    1.6607    2.2431   -0.1410 C   0  0  0  0  0  0  0  0  0  0  0  0
    2.0881    1.6774    0.6892 H   0  0  0  0  0  0  0  0  0  0  0  0
    2.3572    3.0526   -0.3800 H   0  0  0  0  0  0  0  0  0  0  0  0
    0.7172    2.6896    0.1868 H   0  0  0  0  0  0  0  0  0  0  0  0
    2.7099    0.5558   -1.6855 C   0  0  0  0  0  0  0  0  0  0  0  0
    2.5638   -0.0636   -2.5758 H   0  0  0  0  0  0  0  0  0  0  0  0
    3.5514    1.2306   -1.8705 H   0  0  0  0  0  0  0  0  0  0  0  0
    2.9741   -0.0960   -0.8475 H   0  0  0  0  0  0  0  0  0  0  0  0
    0.5797   -0.5035    1.0738 C   0  0  0  0  0  0  0  0  0  0  0  0
    1.7091   -0.7163    1.4962 O   0  0  0  0  0  0  0  0  0  0  0  0
   -0.3602    0.0712    1.9112 N   0  0  0  0  0  0  0  0  0  0  0  0
   -1.3124    0.1001    1.5638 H   0  0  0  0  0  0  0  0  0  0  0  0
   -0.1237    0.2832    3.3333 C   0  0  0  0  0  0  0  0  0  0  0  0
    0.7361    0.9443    3.4843 H   0  0  0  0  0  0  0  0  0  0  0  0
   -0.9994    0.7459    3.7979 H   0  0  0  0  0  0  0  0  0  0  0  0
    0.0727   -0.6707    3.8343 H   0  0  0  0  0  0  0  0  0  0  0  0
  1  2  1  0  0  0  0
  2  3  1  0  0  0  0
  2  4  1  0  0  0  0
  2  5  1  0  0  0  0
  5  6  2  0  0  0  0
  5  7  1  0  0  0  0
  7  8  1  0  0  0  0
  7  9  1  0  0  0  0
  9 10  1  0  0  0  0
  9 11  1  0  0  0  0
  9 24  1  0  0  0  0
 11 12  1  0  0  0  0
 11 13  1  0  0  0  0
 11 14  1  0  0  0  0
 14 15  1  0  0  0  0
 14 16  1  0  0  0  0
 14 20  1  0  0  0  0
 16 17  1  0  0  0  0
 16 18  1  0  0  0  0
 16 19  1  0  0  0  0
 20 21  1  0  0  0  0
 20 22  1  0  0  0  0
 20 23  1  0  0  0  0
 24 25  2  0  0  0  0
 24 26  1  0  0  0  0
 26 27  1  0  0  0  0
 26 28  1  0  0  0  0
 28 29  1  0  0  0  0
 28 30  1  0  0  0  0
 28 31  1  0  0  0  0
M  END
$$$$

  -OEChem-04042216013D

 31 30  0     1  0  0  0  0  0999 V2000
   -2.9510   -4.1771    0.1859 H   0  0  0  0  0  0  0  0  0  0  0  0
   -2.8334   -3.2051   -0.3019 C   0  0  0  0  0  0  0  0  0  0  0  0
   -3.6136   -2.5327    0.0623 H   0  0  0  0  0  0  0  0  0  0  0  0
   -2.9480   -3.3382   -1.3803 H   0  0  0  0  0  0  0  0  0  0  0  0
   -1.4646   -2.6287    0.0081 C   0  0  0  0  0  0  0  0  0  0  0  0
   -0.7068   -3.2388    0.7392 O   0  0  0  0  0  0  0  0  0  0  0  0
   -1.0911   -1.4199   -0.5484 N   0  0  0  0  0  0  0  0  0  0  0  0
   -1.7383   -1.0076   -1.2131 H   0  0  0  0  0  0  0  0  0  0  0  0
    0.2400   -0.7985   -0.3931 C   0  0  1  0  0  0  0  0  0  0  0  0
    1.0034   -1.4875   -0.7702 H   0  0  0  0  0  0  0  0  0  0  0  0
    0.1975    0.4521   -1.3101 C   0  0  0  0  0  0  0  0  0  0  0  0
   -0.0447    0.1144   -2.3234 H   0  0  0  0  0  0  0  0  0  0  0  0
   -0.6346    1.0799   -0.9743 H   0  0  0  0  0  0  0  0  0  0  0  0
    1.4381    1.3755   -1.4164 C   0  0  0  0  0  0  0  0  0  0  0  0
    1.1661    2.1868   -2.1004 H   0  0  0  0  0  0  0  0  0  0  0  0
    1.8981    2.0259   -0.1046 C   0  0  0  0  0  0  0  0  0  0  0  0
    2.5098    1.3464    0.4925 H   0  0  0  0  0  0  0  0  0  0  0  0
    2.5097    2.9061   -0.3250 H   0  0  0  0  0  0  0  0  0  0  0  0
    1.0381    2.3490    0.4897 H   0  0  0  0  0  0  0  0  0  0  0  0
    2.6175    0.6100   -2.0297 C   0  0  0  0  0  0  0  0  0  0  0  0
    2.3322    0.1683   -2.9895 H   0  0  0  0  0  0  0  0  0  0  0  0
    3.4603    1.2870   -2.2012 H   0  0  0  0  0  0  0  0  0  0  0  0
    2.9509   -0.1919   -1.3630 H   0  0  0  0  0  0  0  0  0  0  0  0
    0.5828   -0.5136    1.0885 C   0  0  0  0  0  0  0  0  0  0  0  0
    1.6952   -0.7725    1.5291 O   0  0  0  0  0  0  0  0  0  0  0  0
   -0.3607    0.0604    1.9227 N   0  0  0  0  0  0  0  0  0  0  0  0
   -1.3066    0.1123    1.5612 H   0  0  0  0  0  0  0  0  0  0  0  0
   -0.1446    0.2361    3.3529 C   0  0  0  0  0  0  0  0  0  0  0  0
    0.7309    0.8685    3.5334 H   0  0  0  0  0  0  0  0  0  0  0  0
   -1.0149    0.7148    3.8114 H   0  0  0  0  0  0  0  0  0  0  0  0
    0.0148   -0.7332    3.8371 H   0  0  0  0  0  0  0  0  0  0  0  0
  1  2  1  0  0  0  0
  2  3  1  0  0  0  0
  2  4  1  0  0  0  0
  2  5  1  0  0  0  0
  5  6  2  0  0  0  0
  5  7  1  0  0  0  0
  7  8  1  0  0  0  0
  7  9  1  0  0  0  0
  9 10  1  0  0  0  0
  9 11  1  0  0  0  0
  9 24  1  0  0  0  0
 11 12  1  0  0  0  0
 11 13  1  0  0  0  0
 11 14  1  0  0  0  0
 14 15  1  0  0  0  0
 14 16  1  0  0  0  0
 14 20  1  0  0  0  0
 16 17  1  0  0  0  0
 16 18  1  0  0  0  0
 16 19  1  0  0  0  0
 20 21  1  0  0  0  0
 20 22  1  0  0  0  0
 20 23  1  0  0  0  0
 24 25  2  0  0  0  0
 24 26  1  0  0  0  0
 26 27  1  0  0  0  0
 26 28  1  0  0  0  0
 28 29  1  0  0  0  0
 28 30  1  0  0  0  0
 28 31  1  0  0  0  0
M  END
$$$$

  -OEChem-04042216013D

 31 30  0     1  0  0  0  0  0999 V2000
   -2.9581   -4.1568    0.2082 H   0  0  0  0  0  0  0  0  0  0  0  0
   -2.8296   -3.1891   -0.2852 C   0  0  0  0  0  0  0  0  0  0  0  0
   -3.6026   -2.5058    0.0742 H   0  0  0  0  0  0  0  0  0  0  0  0
   -2.9451   -3.3273   -1.3628 H   0  0  0  0  0  0  0  0  0  0  0  0
   -1.4545   -2.6265    0.0222 C   0  0  0  0  0  0  0  0  0  0  0  0
   -0.7002   -3.2464    0.7485 O   0  0  0  0  0  0  0  0  0  0  0  0
   -1.0704   -1.4223   -0.5375 N   0  0  0  0  0  0  0  0  0  0  0  0
   -1.7161   -1.0057   -1.2009 H   0  0  0  0  0  0  0  0  0  0  0  0
    0.2650   -0.8078   -0.3844 C   0  0  1  0  0  0  0  0  0  0  0  0
    1.0322   -1.4931   -0.7608 H   0  0  0  0  0  0  0  0  0  0  0  0
    0.2109    0.4457   -1.3001 C   0  0  0  0  0  0  0  0  0  0  0  0
   -0.0687    0.1175   -2.3070 H   0  0  0  0  0  0  0  0  0  0  0  0
   -0.6098    1.0700   -0.9312 H   0  0  0  0  0  0  0  0  0  0  0  0
    1.4376    1.3888   -1.4354 C   0  0  0  0  0  0  0  0  0  0  0  0
    1.0803    2.3104   -1.9073 H   0  0  0  0  0  0  0  0  0  0  0  0
    2.1593    1.7879   -0.1433 C   0  0  0  0  0  0  0  0  0  0  0  0
    2.7838    0.9738    0.2325 H   0  0  0  0  0  0  0  0  0  0  0  0
    2.8150    2.6428   -0.3347 H   0  0  0  0  0  0  0  0  0  0  0  0
    1.4406    2.0812    0.6276 H   0  0  0  0  0  0  0  0  0  0  0  0
    2.4676    0.7427   -2.3719 C   0  0  0  0  0  0  0  0  0  0  0  0
    2.0232    0.5366   -3.3504 H   0  0  0  0  0  0  0  0  0  0  0  0
    3.3209    1.4119   -2.5206 H   0  0  0  0  0  0  0  0  0  0  0  0
    2.8355   -0.1989   -1.9517 H   0  0  0  0  0  0  0  0  0  0  0  0
    0.5861   -0.5285    1.1051 C   0  0  0  0  0  0  0  0  0  0  0  0
    1.6798   -0.8146    1.5748 O   0  0  0  0  0  0  0  0  0  0  0  0
   -0.3698    0.0478    1.9238 N   0  0  0  0  0  0  0  0  0  0  0  0
   -1.3053    0.1192    1.5396 H   0  0  0  0  0  0  0  0  0  0  0  0
   -0.1890    0.1959    3.3621 C   0  0  0  0  0  0  0  0  0  0  0  0
    0.6972    0.8023    3.5766 H   0  0  0  0  0  0  0  0  0  0  0  0
   -1.0590    0.6904    3.8043 H   0  0  0  0  0  0  0  0  0  0  0  0
   -0.0679   -0.7850    3.8341 H   0  0  0  0  0  0  0  0  0  0  0  0
  1  2  1  0  0  0  0
  2  3  1  0  0  0  0
  2  4  1  0  0  0  0
  2  5  1  0  0  0  0
  5  6  2  0  0  0  0
  5  7  1  0  0  0  0
  7  8  1  0  0  0  0
  7  9  1  0  0  0  0
  9 10  1  0  0  0  0
  9 11  1  0  0  0  0
  9 24  1  0  0  0  0
 11 12  1  0  0  0  0
 11 13  1  0  0  0  0
 11 14  1  0  0  0  0
 14 15  1  0  0  0  0
 14 16  1  0  0  0  0
 14 20  1  0  0  0  0
 16 17  1  0  0  0  0
 16 18  1  0  0  0  0
 16 19  1  0  0  0  0
 20 21  1  0  0  0  0
 20 22  1  0  0  0  0
 20 23  1  0  0  0  0
 24 25  2  0  0  0  0
 24 26  1  0  0  0  0
 26 27  1  0  0  0  0
 26 28  1  0  0  0  0
 28 29  1  0  0  0  0
 28 30  1  0  0  0  0
 28 31  1  0  0  0  0
M  END
$$$$

  -OEChem-04042216013D

 31 30  0     1  0  0  0  0  0999 V2000
   -2.9677   -4.1400    0.2220 H   0  0  0  0  0  0  0  0  0  0  0  0
   -2.8301   -3.1762   -0.2766 C   0  0  0  0  0  0  0  0  0  0  0  0
   -3.5949   -2.4832    0.0814 H   0  0  0  0  0  0  0  0  0  0  0  0
   -2.9497   -3.3182   -1.3533 H   0  0  0  0  0  0  0  0  0  0  0  0
   -1.4484   -2.6267    0.0246 C   0  0  0  0  0  0  0  0  0  0  0  0
   -0.6967   -3.2540    0.7471 O   0  0  0  0  0  0  0  0  0  0  0  0
   -1.0565   -1.4261   -0.5376 N   0  0  0  0  0  0  0  0  0  0  0  0
   -1.7004   -1.0068   -1.2010 H   0  0  0  0  0  0  0  0  0  0  0  0
    0.2820   -0.8171   -0.3850 C   0  0  1  0  0  0  0  0  0  0  0  0
    1.0517   -1.4986   -0.7636 H   0  0  0  0  0  0  0  0  0  0  0  0
    0.2202    0.4427   -1.2924 C   0  0  0  0  0  0  0  0  0  0  0  0
   -0.0858    0.1234   -2.2943 H   0  0  0  0  0  0  0  0  0  0  0  0
   -0.5932    1.0633   -0.9011 H   0  0  0  0  0  0  0  0  0  0  0  0
    1.4418    1.3965   -1.4400 C   0  0  0  0  0  0  0  0  0  0  0  0
    1.0511    2.3957   -1.6611 H   0  0  0  0  0  0  0  0  0  0  0  0
    2.3941    1.5279   -0.2474 C   0  0  0  0  0  0  0  0  0  0  0  0
    2.9355    0.5941   -0.0713 H   0  0  0  0  0  0  0  0  0  0  0  0
    3.1342    2.3098   -0.4441 H   0  0  0  0  0  0  0  0  0  0  0  0
    1.8465    1.8102    0.6561 H   0  0  0  0  0  0  0  0  0  0  0  0
    2.2789    0.9399   -2.6440 C   0  0  0  0  0  0  0  0  0  0  0  0
    1.6779    0.9527   -3.5586 H   0  0  0  0  0  0  0  0  0  0  0  0
    3.1340    1.6071   -2.7927 H   0  0  0  0  0  0  0  0  0  0  0  0
    2.6553   -0.0766   -2.4884 H   0  0  0  0  0  0  0  0  0  0  0  0
    0.5894   -0.5399    1.1097 C   0  0  0  0  0  0  0  0  0  0  0  0
    1.6731   -0.8360    1.5962 O   0  0  0  0  0  0  0  0  0  0  0  0
   -0.3737    0.0398    1.9181 N   0  0  0  0  0  0  0  0  0  0  0  0
   -1.3034    0.1191    1.5214 H   0  0  0  0  0  0  0  0  0  0  0  0
   -0.2122    0.1822    3.3596 C   0  0  0  0  0  0  0  0  0  0  0  0
    0.6780    0.7774    3.5894 H   0  0  0  0  0  0  0  0  0  0  0  0
   -1.0830    0.6858    3.7900 H   0  0  0  0  0  0  0  0  0  0  0  0
   -0.1102   -0.8011    3.8308 H   0  0  0  0  0  0  0  0  0  0  0  0
  1  2  1  0  0  0  0
  2  3  1  0  0  0  0
  2  4  1  0  0  0  0
  2  5  1  0  0  0  0
  5  6  2  0  0  0  0
  5  7  1  0  0  0  0
  7  8  1  0  0  0  0
  7  9  1  0  0  0  0
  9 10  1  0  0  0  0
  9 11  1  0  0  0  0
  9 24  1  0  0  0  0
 11 12  1  0  0  0  0
 11 13  1  0  0  0  0
 11 14  1  0  0  0  0
 14 15  1  0  0  0  0
 14 16  1  0  0  0  0
 14 20  1  0  0  0  0
 16 17  1  0  0  0  0
 16 18  1  0  0  0  0
 16 19  1  0  0  0  0
 20 21  1  0  0  0  0
 20 22  1  0  0  0  0
 20 23  1  0  0  0  0
 24 25  2  0  0  0  0
 24 26  1  0  0  0  0
 26 27  1  0  0  0  0
 26 28  1  0  0  0  0
 28 29  1  0  0  0  0
 28 30  1  0  0  0  0
 28 31  1  0  0  0  0
M  END
$$$$

  -OEChem-04042216013D

 31 30  0     1  0  0  0  0  0999 V2000
   -2.9697   -4.1358    0.2244 H   0  0  0  0  0  0  0  0  0  0  0  0
   -2.8300   -3.1737   -0.2769 C   0  0  0  0  0  0  0  0  0  0  0  0
   -3.5945   -2.4784    0.0775 H   0  0  0  0  0  0  0  0  0  0  0  0
   -2.9479   -3.3190   -1.3534 H   0  0  0  0  0  0  0  0  0  0  0  0
   -1.4481   -2.6251    0.0245 C   0  0  0  0  0  0  0  0  0  0  0  0
   -0.6974   -3.2513    0.7490 O   0  0  0  0  0  0  0  0  0  0  0  0
   -1.0540   -1.4274   -0.5422 N   0  0  0  0  0  0  0  0  0  0  0  0
   -1.6964   -1.0097   -1.2081 H   0  0  0  0  0  0  0  0  0  0  0  0
    0.2853   -0.8204   -0.3911 C   0  0  1  0  0  0  0  0  0  0  0  0
    1.0542   -1.5022   -0.7706 H   0  0  0  0  0  0  0  0  0  0  0  0
    0.2233    0.4431   -1.2917 C   0  0  0  0  0  0  0  0  0  0  0  0
   -0.0851    0.1196   -2.2915 H   0  0  0  0  0  0  0  0  0  0  0  0
   -0.5916    1.0629   -0.9023 H   0  0  0  0  0  0  0  0  0  0  0  0
    1.4491    1.3969   -1.4375 C   0  0  0  0  0  0  0  0  0  0  0  0
    1.0777    2.4258   -1.3803 H   0  0  0  0  0  0  0  0  0  0  0  0
    2.5828    1.2624   -0.4153 C   0  0  0  0  0  0  0  0  0  0  0  0
    2.9852    0.2449   -0.4074 H   0  0  0  0  0  0  0  0  0  0  0  0
    3.4005    1.9467   -0.6622 H   0  0  0  0  0  0  0  0  0  0  0  0
    2.2307    1.5255    0.5859 H   0  0  0  0  0  0  0  0  0  0  0  0
    2.0652    1.2011   -2.8315 C   0  0  0  0  0  0  0  0  0  0  0  0
    1.3236    1.3989   -3.6119 H   0  0  0  0  0  0  0  0  0  0  0  0
    2.9034    1.8884   -2.9832 H   0  0  0  0  0  0  0  0  0  0  0  0
    2.4317    0.1760   -2.9487 H   0  0  0  0  0  0  0  0  0  0  0  0
    0.5924   -0.5382    1.1030 C   0  0  0  0  0  0  0  0  0  0  0  0
    1.6726   -0.8413    1.5935 O   0  0  0  0  0  0  0  0  0  0  0  0
   -0.3699    0.0463    1.9086 N   0  0  0  0  0  0  0  0  0  0  0  0
   -1.2989    0.1268    1.5104 H   0  0  0  0  0  0  0  0  0  0  0  0
   -0.2113    0.1855    3.3505 C   0  0  0  0  0  0  0  0  0  0  0  0
    0.6826    0.7739    3.5831 H   0  0  0  0  0  0  0  0  0  0  0  0
   -1.0794    0.6945    3.7797 H   0  0  0  0  0  0  0  0  0  0  0  0
   -0.1172   -0.7991    3.8206 H   0  0  0  0  0  0  0  0  0  0  0  0
  1  2  1  0  0  0  0
  2  3  1  0  0  0  0
  2  4  1  0  0  0  0
  2  5  1  0  0  0  0
  5  6  2  0  0  0  0
  5  7  1  0  0  0  0
  7  8  1  0  0  0  0
  7  9  1  0  0  0  0
  9 10  1  0  0  0  0
  9 11  1  0  0  0  0
  9 24  1  0  0  0  0
 11 12  1  0  0  0  0
 11 13  1  0  0  0  0
 11 14  1  0  0  0  0
 14 15  1  0  0  0  0
 14 16  1  0  0  0  0
 14 20  1  0  0  0  0
 16 17  1  0  0  0  0
 16 18  1  0  0  0  0
 16 19  1  0  0  0  0
 20 21  1  0  0  0  0
 20 22  1  0  0  0  0
 20 23  1  0  0  0  0
 24 25  2  0  0  0  0
 24 26  1  0  0  0  0
 26 27  1  0  0  0  0
 26 28  1  0  0  0  0
 28 29  1  0  0  0  0
 28 30  1  0  0  0  0
 28 31  1  0  0  0  0
M  END
$$$$

  -OEChem-04042216013D

 31 30  0     1  0  0  0  0  0999 V2000
   -2.9712   -4.1370    0.2297 H   0  0  0  0  0  0  0  0  0  0  0  0
   -2.8325   -3.1778   -0.2774 C   0  0  0  0  0  0  0  0  0  0  0  0
   -3.5995   -2.4822    0.0708 H   0  0  0  0  0  0  0  0  0  0  0  0
   -2.9476   -3.3304   -1.3531 H   0  0  0  0  0  0  0  0  0  0  0  0
   -1.4527   -2.6242    0.0242 C   0  0  0  0  0  0  0  0  0  0  0  0
   -0.7037   -3.2435    0.7563 O   0  0  0  0  0  0  0  0  0  0  0  0
   -1.0586   -1.4301   -0.5499 N   0  0  0  0  0  0  0  0  0  0  0  0
   -1.6993   -1.0182   -1.2210 H   0  0  0  0  0  0  0  0  0  0  0  0
    0.2813   -0.8241   -0.4026 C   0  0  1  0  0  0  0  0  0  0  0  0
    1.0461   -1.5092   -0.7841 H   0  0  0  0  0  0  0  0  0  0  0  0
    0.2217    0.4424   -1.2963 C   0  0  0  0  0  0  0  0  0  0  0  0
   -0.0656    0.1054   -2.2983 H   0  0  0  0  0  0  0  0  0  0  0  0
   -0.6026    1.0631   -0.9290 H   0  0  0  0  0  0  0  0  0  0  0  0
    1.4568    1.3862   -1.4323 C   0  0  0  0  0  0  0  0  0  0  0  0
    1.1535    2.3788   -1.0815 H   0  0  0  0  0  0  0  0  0  0  0  0
    2.7222    1.0078   -0.6508 C   0  0  0  0  0  0  0  0  0  0  0  0
    2.9782   -0.0459   -0.7980 H   0  0  0  0  0  0  0  0  0  0  0  0
    3.5725    1.6124   -0.9811 H   0  0  0  0  0  0  0  0  0  0  0  0
    2.5868    1.2054    0.4152 H   0  0  0  0  0  0  0  0  0  0  0  0
    1.8313    1.5173   -2.9166 C   0  0  0  0  0  0  0  0  0  0  0  0
    0.9721    1.8632   -3.4998 H   0  0  0  0  0  0  0  0  0  0  0  0
    2.6409    2.2424   -3.0470 H   0  0  0  0  0  0  0  0  0  0  0  0
    2.1613    0.5530   -3.3169 H   0  0  0  0  0  0  0  0  0  0  0  0
    0.5994   -0.5297    1.0867 C   0  0  0  0  0  0  0  0  0  0  0  0
    1.6787   -0.8400    1.5741 O   0  0  0  0  0  0  0  0  0  0  0  0
   -0.3561    0.0637    1.8938 N   0  0  0  0  0  0  0  0  0  0  0  0
   -1.2866    0.1457    1.4995 H   0  0  0  0  0  0  0  0  0  0  0  0
   -0.1911    0.2088    3.3345 C   0  0  0  0  0  0  0  0  0  0  0  0
    0.7080    0.7914    3.5611 H   0  0  0  0  0  0  0  0  0  0  0  0
   -1.0536    0.7268    3.7642 H   0  0  0  0  0  0  0  0  0  0  0  0
   -0.1029   -0.7743    3.8091 H   0  0  0  0  0  0  0  0  0  0  0  0
  1  2  1  0  0  0  0
  2  3  1  0  0  0  0
  2  4  1  0  0  0  0
  2  5  1  0  0  0  0
  5  6  2  0  0  0  0
  5  7  1  0  0  0  0
  7  8  1  0  0  0  0
  7  9  1  0  0  0  0
  9 10  1  0  0  0  0
  9 11  1  0  0  0  0
  9 24  1  0  0  0  0
 11 12  1  0  0  0  0
 11 13  1  0  0  0  0
 11 14  1  0  0  0  0
 14 15  1  0  0  0  0
 14 16  1  0  0  0  0
 14 20  1  0  0  0  0
 16 17  1  0  0  0  0
 16 18  1  0  0  0  0
 16 19  1  0  0  0  0
 20 21  1  0  0  0  0
 20 22  1  0  0  0  0
 20 23  1  0  0  0  0
 24 25  2  0  0  0  0
 24 26  1  0  0  0  0
 26 27  1  0  0  0  0
 26 28  1  0  0  0  0
 28 29  1  0  0  0  0
 28 30  1  0  0  0  0
 28 31  1  0  0  0  0
M  END
$$$$

  -OEChem-04042216013D

 31 30  0     1  0  0  0  0  0999 V2000
   -2.9673   -4.1428    0.2349 H   0  0  0  0  0  0  0  0  0  0  0  0
   -2.8352   -3.1804   -0.2680 C   0  0  0  0  0  0  0  0  0  0  0  0
   -3.6010   -2.4886    0.0907 H   0  0  0  0  0  0  0  0  0  0  0  0
   -2.9587   -3.3270   -1.3437 H   0  0  0  0  0  0  0  0  0  0  0  0
   -1.4547   -2.6238    0.0253 C   0  0  0  0  0  0  0  0  0  0  0  0
   -0.7044   -3.2342    0.7635 O   0  0  0  0  0  0  0  0  0  0  0  0
   -1.0630   -1.4342   -0.5598 N   0  0  0  0  0  0  0  0  0  0  0  0
   -1.7047   -1.0299   -1.2346 H   0  0  0  0  0  0  0  0  0  0  0  0
    0.2769   -0.8267   -0.4215 C   0  0  1  0  0  0  0  0  0  0  0  0
    1.0378   -1.5146   -0.8051 H   0  0  0  0  0  0  0  0  0  0  0  0
    0.2153    0.4454   -1.3032 C   0  0  0  0  0  0  0  0  0  0  0  0
   -0.0484    0.1037   -2.3101 H   0  0  0  0  0  0  0  0  0  0  0  0
   -0.6150    1.0676   -0.9526 H   0  0  0  0  0  0  0  0  0  0  0  0
    1.4600    1.3726   -1.4261 C   0  0  0  0  0  0  0  0  0  0  0  0
    1.2704    2.2564   -0.8068 H   0  0  0  0  0  0  0  0  0  0  0  0
    2.8023    0.7945   -0.9539 C   0  0  0  0  0  0  0  0  0  0  0  0
    2.9350   -0.2332   -1.3049 H   0  0  0  0  0  0  0  0  0  0  0  0
    3.6331    1.3942   -1.3384 H   0  0  0  0  0  0  0  0  0  0  0  0
    2.8746    0.8190    0.1344 H   0  0  0  0  0  0  0  0  0  0  0  0
    1.6008    1.8481   -2.8791 C   0  0  0  0  0  0  0  0  0  0  0  0
    0.6688    2.3074   -3.2231 H   0  0  0  0  0  0  0  0  0  0  0  0
    2.3978    2.5938   -2.9629 H   0  0  0  0  0  0  0  0  0  0  0  0
    1.8418    1.0078   -3.5383 H   0  0  0  0  0  0  0  0  0  0  0  0
    0.6075   -0.5173    1.0613 C   0  0  0  0  0  0  0  0  0  0  0  0
    1.6920   -0.8155    1.5432 O   0  0  0  0  0  0  0  0  0  0  0  0
   -0.3422    0.0842    1.8690 N   0  0  0  0  0  0  0  0  0  0  0  0
   -1.2762    0.1588    1.4816 H   0  0  0  0  0  0  0  0  0  0  0  0
   -0.1662    0.2442    3.3067 C   0  0  0  0  0  0  0  0  0  0  0  0
    0.7220    0.8483    3.5193 H   0  0  0  0  0  0  0  0  0  0  0  0
   -1.0358    0.7463    3.7408 H   0  0  0  0  0  0  0  0  0  0  0  0
   -0.0514   -0.7328    3.7880 H   0  0  0  0  0  0  0  0  0  0  0  0
  1  2  1  0  0  0  0
  2  3  1  0  0  0  0
  2  4  1  0  0  0  0
  2  5  1  0  0  0  0
  5  6  2  0  0  0  0
  5  7  1  0  0  0  0
  7  8  1  0  0  0  0
  7  9  1  0  0  0  0
  9 10  1  0  0  0  0
  9 11  1  0  0  0  0
  9 24  1  0  0  0  0
 11 12  1  0  0  0  0
 11 13  1  0  0  0  0
 11 14  1  0  0  0  0
 14 15  1  0  0  0  0
 14 16  1  0  0  0  0
 14 20  1  0  0  0  0
 16 17  1  0  0  0  0
 16 18  1  0  0  0  0
 16 19  1  0  0  0  0
 20 21  1  0  0  0  0
 20 22  1  0  0  0  0
 20 23  1  0  0  0  0
 24 25  2  0  0  0  0
 24 26  1  0  0  0  0
 26 27  1  0  0  0  0
 26 28  1  0  0  0  0
 28 29  1  0  0  0  0
 28 30  1  0  0  0  0
 28 31  1  0  0  0  0
M  END
$$$$

  -OEChem-04042216013D

 31 30  0     1  0  0  0  0  0999 V2000
   -2.9437   -4.1539    0.2631 H   0  0  0  0  0  0  0  0  0  0  0  0
   -2.8207   -3.1981   -0.2544 C   0  0  0  0  0  0  0  0  0  0  0  0
   -3.5904   -2.5069    0.0967 H   0  0  0  0  0  0  0  0  0  0  0  0
   -2.9471   -3.3616   -1.3274 H   0  0  0  0  0  0  0  0  0  0  0  0
   -1.4434   -2.6270    0.0259 C   0  0  0  0  0  0  0  0  0  0  0  0
   -0.6846   -3.2226    0.7676 O   0  0  0  0  0  0  0  0  0  0  0  0
   -1.0647   -1.4398   -0.5721 N   0  0  0  0  0  0  0  0  0  0  0  0
   -1.7100   -1.0510   -1.2527 H   0  0  0  0  0  0  0  0  0  0  0  0
    0.2729   -0.8240   -0.4505 C   0  0  1  0  0  0  0  0  0  0  0  0
    1.0368   -1.5034   -0.8433 H   0  0  0  0  0  0  0  0  0  0  0  0
    0.1964    0.4616   -1.3072 C   0  0  0  0  0  0  0  0  0  0  0  0
   -0.0660    0.1420   -2.3216 H   0  0  0  0  0  0  0  0  0  0  0  0
   -0.6282    1.0829   -0.9411 H   0  0  0  0  0  0  0  0  0  0  0  0
    1.4528    1.3656   -1.4111 C   0  0  0  0  0  0  0  0  0  0  0  0
    1.4168    2.0762   -0.5778 H   0  0  0  0  0  0  0  0  0  0  0  0
    2.8007    0.6350   -1.3049 C   0  0  0  0  0  0  0  0  0  0  0  0
    2.8237   -0.2282   -1.9771 H   0  0  0  0  0  0  0  0  0  0  0  0
    3.6177    1.3078   -1.5834 H   0  0  0  0  0  0  0  0  0  0  0  0
    2.9995    0.2961   -0.2891 H   0  0  0  0  0  0  0  0  0  0  0  0
    1.4002    2.1680   -2.7175 C   0  0  0  0  0  0  0  0  0  0  0  0
    0.4563    2.7174   -2.7902 H   0  0  0  0  0  0  0  0  0  0  0  0
    2.2204    2.8919   -2.7543 H   0  0  0  0  0  0  0  0  0  0  0  0
    1.4859    1.5036   -3.5834 H   0  0  0  0  0  0  0  0  0  0  0  0
    0.6129   -0.5023    1.0292 C   0  0  0  0  0  0  0  0  0  0  0  0
    1.7148   -0.7496    1.4995 O   0  0  0  0  0  0  0  0  0  0  0  0
   -0.3368    0.0991    1.8376 N   0  0  0  0  0  0  0  0  0  0  0  0
   -1.2783    0.1431    1.4638 H   0  0  0  0  0  0  0  0  0  0  0  0
   -0.1417    0.3008    3.2679 C   0  0  0  0  0  0  0  0  0  0  0  0
    0.7399    0.9241    3.4508 H   0  0  0  0  0  0  0  0  0  0  0  0
   -1.0126    0.8009    3.7018 H   0  0  0  0  0  0  0  0  0  0  0  0
   -0.0044   -0.6609    3.7736 H   0  0  0  0  0  0  0  0  0  0  0  0
  1  2  1  0  0  0  0
  2  3  1  0  0  0  0
  2  4  1  0  0  0  0
  2  5  1  0  0  0  0
  5  6  2  0  0  0  0
  5  7  1  0  0  0  0
  7  8  1  0  0  0  0
  7  9  1  0  0  0  0
  9 10  1  0  0  0  0
  9 11  1  0  0  0  0
  9 24  1  0  0  0  0
 11 12  1  0  0  0  0
 11 13  1  0  0  0  0
 11 14  1  0  0  0  0
 14 15  1  0  0  0  0
 14 16  1  0  0  0  0
 14 20  1  0  0  0  0
 16 17  1  0  0  0  0
 16 18  1  0  0  0  0
 16 19  1  0  0  0  0
 20 21  1  0  0  0  0
 20 22  1  0  0  0  0
 20 23  1  0  0  0  0
 24 25  2  0  0  0  0
 24 26  1  0  0  0  0
 26 27  1  0  0  0  0
 26 28  1  0  0  0  0
 28 29  1  0  0  0  0
 28 30  1  0  0  0  0
 28 31  1  0  0  0  0
M  END
$$$$

  -OEChem-04042216013D

 31 30  0     1  0  0  0  0  0999 V2000
   -2.8860   -4.2256    0.2170 H   0  0  0  0  0  0  0  0  0  0  0  0
   -2.8000   -3.2571   -0.2843 C   0  0  0  0  0  0  0  0  0  0  0  0
   -3.5930   -2.6006    0.0812 H   0  0  0  0  0  0  0  0  0  0  0  0
   -2.9248   -3.4072   -1.3594 H   0  0  0  0  0  0  0  0  0  0  0  0
   -1.4426   -2.6417    0.0005 C   0  0  0  0  0  0  0  0  0  0  0  0
   -0.6639   -3.2142    0.7403 O   0  0  0  0  0  0  0  0  0  0  0  0
   -1.1018   -1.4388   -0.5883 N   0  0  0  0  0  0  0  0  0  0  0  0
   -1.7598   -1.0632   -1.2642 H   0  0  0  0  0  0  0  0  0  0  0  0
    0.2228   -0.7964   -0.4759 C   0  0  1  0  0  0  0  0  0  0  0  0
    0.9850   -1.4687   -0.8840 H   0  0  0  0  0  0  0  0  0  0  0  0
    0.1439    0.4934   -1.3212 C   0  0  0  0  0  0  0  0  0  0  0  0
   -0.1111    0.1998   -2.3450 H   0  0  0  0  0  0  0  0  0  0  0  0
   -0.6752    1.1155   -0.9449 H   0  0  0  0  0  0  0  0  0  0  0  0
    1.4211    1.3643   -1.3772 C   0  0  0  0  0  0  0  0  0  0  0  0
    1.5279    1.8760   -0.4142 H   0  0  0  0  0  0  0  0  0  0  0  0
    2.7096    0.5600   -1.6149 C   0  0  0  0  0  0  0  0  0  0  0  0
    2.6224   -0.0391   -2.5265 H   0  0  0  0  0  0  0  0  0  0  0  0
    3.5613    1.2378   -1.7270 H   0  0  0  0  0  0  0  0  0  0  0  0
    2.9310   -0.1093   -0.7818 H   0  0  0  0  0  0  0  0  0  0  0  0
    1.2675    2.4287   -2.4692 C   0  0  0  0  0  0  0  0  0  0  0  0
    0.3684    3.0279   -2.2947 H   0  0  0  0  0  0  0  0  0  0  0  0
    2.1315    3.1007   -2.4699 H   0  0  0  0  0  0  0  0  0  0  0  0
    1.1902    1.9623   -3.4566 H   0  0  0  0  0  0  0  0  0  0  0  0
    0.6038   -0.4744    0.9925 C   0  0  0  0  0  0  0  0  0  0  0  0
    1.7542   -0.6033    1.3893 O   0  0  0  0  0  0  0  0  0  0  0  0
   -0.3306    0.1035    1.8342 N   0  0  0  0  0  0  0  0  0  0  0  0
   -1.2931    0.0841    1.5154 H   0  0  0  0  0  0  0  0  0  0  0  0
   -0.0613    0.3834    3.2389 C   0  0  0  0  0  0  0  0  0  0  0  0
    0.7880    1.0678    3.3375 H   0  0  0  0  0  0  0  0  0  0  0  0
   -0.9341    0.8488    3.7066 H   0  0  0  0  0  0  0  0  0  0  0  0
    0.1689   -0.5431    3.7753 H   0  0  0  0  0  0  0  0  0  0  0  0
  1  2  1  0  0  0  0
  2  3  1  0  0  0  0
  2  4  1  0  0  0  0
  2  5  1  0  0  0  0
  5  6  2  0  0  0  0
  5  7  1  0  0  0  0
  7  8  1  0  0  0  0
  7  9  1  0  0  0  0
  9 10  1  0  0  0  0
  9 11  1  0  0  0  0
  9 24  1  0  0  0  0
 11 12  1  0  0  0  0
 11 13  1  0  0  0  0
 11 14  1  0  0  0  0
 14 15  1  0  0  0  0
 14 16  1  0  0  0  0
 14 20  1  0  0  0  0
 16 17  1  0  0  0  0
 16 18  1  0  0  0  0
 16 19  1  0  0  0  0
 20 21  1  0  0  0  0
 20 22  1  0  0  0  0
 20 23  1  0  0  0  0
 24 25  2  0  0  0  0
 24 26  1  0  0  0  0
 26 27  1  0  0  0  0
 26 28  1  0  0  0  0
 28 29  1  0  0  0  0
 28 30  1  0  0  0  0
 28 31  1  0  0  0  0
M  END
$$$$

  -OEChem-04042216013D

 31 30  0     1  0  0  0  0  0999 V2000
   -2.8427   -4.2632    0.1696 H   0  0  0  0  0  0  0  0  0  0  0  0
   -2.7811   -3.2866   -0.3194 C   0  0  0  0  0  0  0  0  0  0  0  0
   -3.5890   -2.6539    0.0557 H   0  0  0  0  0  0  0  0  0  0  0  0
   -2.9045   -3.4257   -1.3962 H   0  0  0  0  0  0  0  0  0  0  0  0
   -1.4387   -2.6419   -0.0283 C   0  0  0  0  0  0  0  0  0  0  0  0
   -0.6463   -3.2022    0.7065 O   0  0  0  0  0  0  0  0  0  0  0  0
   -1.1296   -1.4206   -0.5958 N   0  0  0  0  0  0  0  0  0  0  0  0
   -1.7941   -1.0524   -1.2696 H   0  0  0  0  0  0  0  0  0  0  0  0
    0.1824   -0.7558   -0.4790 C   0  0  1  0  0  0  0  0  0  0  0  0
    0.9442   -1.4245   -0.8932 H   0  0  0  0  0  0  0  0  0  0  0  0
    0.1075    0.5265   -1.3353 C   0  0  0  0  0  0  0  0  0  0  0  0
   -0.1382    0.2441   -2.3645 H   0  0  0  0  0  0  0  0  0  0  0  0
   -0.7119    1.1481   -0.9590 H   0  0  0  0  0  0  0  0  0  0  0  0
    1.3944    1.3808   -1.3528 C   0  0  0  0  0  0  0  0  0  0  0  0
    1.6307    1.7099   -0.3351 H   0  0  0  0  0  0  0  0  0  0  0  0
    2.5961    0.6019   -1.9062 C   0  0  0  0  0  0  0  0  0  0  0  0
    2.3700    0.1936   -2.8962 H   0  0  0  0  0  0  0  0  0  0  0  0
    3.4669    1.2592   -1.9923 H   0  0  0  0  0  0  0  0  0  0  0  0
    2.8667   -0.2229   -1.2409 H   0  0  0  0  0  0  0  0  0  0  0  0
    1.1605    2.6280   -2.2128 C   0  0  0  0  0  0  0  0  0  0  0  0
    0.3207    3.2102   -1.8210 H   0  0  0  0  0  0  0  0  0  0  0  0
    2.0500    3.2659   -2.2079 H   0  0  0  0  0  0  0  0  0  0  0  0
    0.9390    2.3491   -3.2480 H   0  0  0  0  0  0  0  0  0  0  0  0
    0.5947   -0.4450    0.9805 C   0  0  0  0  0  0  0  0  0  0  0  0
    1.7688   -0.5194    1.3194 O   0  0  0  0  0  0  0  0  0  0  0  0
   -0.3242    0.1055    1.8566 N   0  0  0  0  0  0  0  0  0  0  0  0
   -1.2978    0.0460    1.5786 H   0  0  0  0  0  0  0  0  0  0  0  0
   -0.0093    0.3965    3.2496 C   0  0  0  0  0  0  0  0  0  0  0  0
    0.8193    1.1097    3.3150 H   0  0  0  0  0  0  0  0  0  0  0  0
   -0.8784    0.8326    3.7514 H   0  0  0  0  0  0  0  0  0  0  0  0
    0.2729   -0.5211    3.7767 H   0  0  0  0  0  0  0  0  0  0  0  0
  1  2  1  0  0  0  0
  2  3  1  0  0  0  0
  2  4  1  0  0  0  0
  2  5  1  0  0  0  0
  5  6  2  0  0  0  0
  5  7  1  0  0  0  0
  7  8  1  0  0  0  0
  7  9  1  0  0  0  0
  9 10  1  0  0  0  0
  9 11  1  0  0  0  0
  9 24  1  0  0  0  0
 11 12  1  0  0  0  0
 11 13  1  0  0  0  0
 11 14  1  0  0  0  0
 14 15  1  0  0  0  0
 14 16  1  0  0  0  0
 14 20  1  0  0  0  0
 16 17  1  0  0  0  0
 16 18  1  0  0  0  0
 16 19  1  0  0  0  0
 20 21  1  0  0  0  0
 20 22  1  0  0  0  0
 20 23  1  0  0  0  0
 24 25  2  0  0  0  0
 24 26  1  0  0  0  0
 26 27  1  0  0  0  0
 26 28  1  0  0  0  0
 28 29  1  0  0  0  0
 28 30  1  0  0  0  0
 28 31  1  0  0  0  0
M  END
$$$$

  -OEChem-04042216013D

 31 30  0     1  0  0  0  0  0999 V2000
   -2.8253   -4.2640    0.1549 H   0  0  0  0  0  0  0  0  0  0  0  0
   -2.7678   -3.2835   -0.3267 C   0  0  0  0  0  0  0  0  0  0  0  0
   -3.5788   -2.6575    0.0528 H   0  0  0  0  0  0  0  0  0  0  0  0
   -2.8902   -3.4155   -1.4043 H   0  0  0  0  0  0  0  0  0  0  0  0
   -1.4284   -2.6347   -0.0309 C   0  0  0  0  0  0  0  0  0  0  0  0
   -0.6330   -3.1971    0.6988 O   0  0  0  0  0  0  0  0  0  0  0  0
   -1.1247   -1.4084   -0.5905 N   0  0  0  0  0  0  0  0  0  0  0  0
   -1.7930   -1.0369   -1.2586 H   0  0  0  0  0  0  0  0  0  0  0  0
    0.1843   -0.7376   -0.4704 C   0  0  1  0  0  0  0  0  0  0  0  0
    0.9528   -1.3993   -0.8841 H   0  0  0  0  0  0  0  0  0  0  0  0
    0.1033    0.5393   -1.3353 C   0  0  0  0  0  0  0  0  0  0  0  0
   -0.1518    0.2628   -2.3637 H   0  0  0  0  0  0  0  0  0  0  0  0
   -0.7168    1.1539   -0.9488 H   0  0  0  0  0  0  0  0  0  0  0  0
    1.3896    1.3954   -1.3475 C   0  0  0  0  0  0  0  0  0  0  0  0
    1.7740    1.5328   -0.3322 H   0  0  0  0  0  0  0  0  0  0  0  0
    2.4723    0.7414   -2.2155 C   0  0  0  0  0  0  0  0  0  0  0  0
    2.1138    0.5874   -3.2381 H   0  0  0  0  0  0  0  0  0  0  0  0
    3.3637    1.3754   -2.2522 H   0  0  0  0  0  0  0  0  0  0  0  0
    2.7644   -0.2269   -1.7982 H   0  0  0  0  0  0  0  0  0  0  0  0
    1.0706    2.7817   -1.9200 C   0  0  0  0  0  0  0  0  0  0  0  0
    0.3220    3.2877   -1.3024 H   0  0  0  0  0  0  0  0  0  0  0  0
    1.9721    3.4020   -1.9389 H   0  0  0  0  0  0  0  0  0  0  0  0
    0.6836    2.7004   -2.9408 H   0  0  0  0  0  0  0  0  0  0  0  0
    0.5939   -0.4349    0.9914 C   0  0  0  0  0  0  0  0  0  0  0  0
    1.7674   -0.5176    1.3314 O   0  0  0  0  0  0  0  0  0  0  0  0
   -0.3270    0.1047    1.8717 N   0  0  0  0  0  0  0  0  0  0  0  0
   -1.2997    0.0497    1.5900 H   0  0  0  0  0  0  0  0  0  0  0  0
   -0.0158    0.3732    3.2699 C   0  0  0  0  0  0  0  0  0  0  0  0
    0.8126    1.0852    3.3487 H   0  0  0  0  0  0  0  0  0  0  0  0
   -0.8863    0.8008    3.7762 H   0  0  0  0  0  0  0  0  0  0  0  0
    0.2652   -0.5525    3.7833 H   0  0  0  0  0  0  0  0  0  0  0  0
  1  2  1  0  0  0  0
  2  3  1  0  0  0  0
  2  4  1  0  0  0  0
  2  5  1  0  0  0  0
  5  6  2  0  0  0  0
  5  7  1  0  0  0  0
  7  8  1  0  0  0  0
  7  9  1  0  0  0  0
  9 10  1  0  0  0  0
  9 11  1  0  0  0  0
  9 24  1  0  0  0  0
 11 12  1  0  0  0  0
 11 13  1  0  0  0  0
 11 14  1  0  0  0  0
 14 15  1  0  0  0  0
 14 16  1  0  0  0  0
 14 20  1  0  0  0  0
 16 17  1  0  0  0  0
 16 18  1  0  0  0  0
 16 19  1  0  0  0  0
 20 21  1  0  0  0  0
 20 22  1  0  0  0  0
 20 23  1  0  0  0  0
 24 25  2  0  0  0  0
 24 26  1  0  0  0  0
 26 27  1  0  0  0  0
 26 28  1  0  0  0  0
 28 29  1  0  0  0  0
 28 30  1  0  0  0  0
 28 31  1  0  0  0  0
M  END
$$$$

  -OEChem-04042216013D

 31 30  0     1  0  0  0  0  0999 V2000
   -2.8204   -4.2510    0.1769 H   0  0  0  0  0  0  0  0  0  0  0  0
   -2.7597   -3.2726   -0.3084 C   0  0  0  0  0  0  0  0  0  0  0  0
   -3.5635   -2.6398    0.0752 H   0  0  0  0  0  0  0  0  0  0  0  0
   -2.8910   -3.4067   -1.3847 H   0  0  0  0  0  0  0  0  0  0  0  0
   -1.4136   -2.6328   -0.0248 C   0  0  0  0  0  0  0  0  0  0  0  0
   -0.6162   -3.2007    0.6983 O   0  0  0  0  0  0  0  0  0  0  0  0
   -1.1067   -1.4090   -0.5883 N   0  0  0  0  0  0  0  0  0  0  0  0
   -1.7794   -1.0326   -1.2492 H   0  0  0  0  0  0  0  0  0  0  0  0
    0.2028   -0.7384   -0.4700 C   0  0  1  0  0  0  0  0  0  0  0  0
    0.9786   -1.3919   -0.8839 H   0  0  0  0  0  0  0  0  0  0  0  0
    0.1119    0.5391   -1.3326 C   0  0  0  0  0  0  0  0  0  0  0  0
   -0.1589    0.2682   -2.3586 H   0  0  0  0  0  0  0  0  0  0  0  0
   -0.7080    1.1459   -0.9333 H   0  0  0  0  0  0  0  0  0  0  0  0
    1.3979    1.4003   -1.3509 C   0  0  0  0  0  0  0  0  0  0  0  0
    1.9417    1.3240   -0.4054 H   0  0  0  0  0  0  0  0  0  0  0  0
    2.3168    0.9561   -2.4953 C   0  0  0  0  0  0  0  0  0  0  0  0
    1.8189    1.0676   -3.4638 H   0  0  0  0  0  0  0  0  0  0  0  0
    3.2305    1.5586   -2.5044 H   0  0  0  0  0  0  0  0  0  0  0  0
    2.6011   -0.0928   -2.3678 H   0  0  0  0  0  0  0  0  0  0  0  0
    1.0318    2.8744   -1.5615 C   0  0  0  0  0  0  0  0  0  0  0  0
    0.4133    3.2360   -0.7340 H   0  0  0  0  0  0  0  0  0  0  0  0
    1.9366    3.4890   -1.6036 H   0  0  0  0  0  0  0  0  0  0  0  0
    0.4774    3.0068   -2.4962 H   0  0  0  0  0  0  0  0  0  0  0  0
    0.5965   -0.4371    0.9972 C   0  0  0  0  0  0  0  0  0  0  0  0
    1.7609   -0.5431    1.3608 O   0  0  0  0  0  0  0  0  0  0  0  0
   -0.3358    0.1019    1.8660 N   0  0  0  0  0  0  0  0  0  0  0  0
   -1.3033    0.0610    1.5645 H   0  0  0  0  0  0  0  0  0  0  0  0
   -0.0495    0.3531    3.2725 C   0  0  0  0  0  0  0  0  0  0  0  0
    0.7794    1.0613    3.3746 H   0  0  0  0  0  0  0  0  0  0  0  0
   -0.9281    0.7777    3.7675 H   0  0  0  0  0  0  0  0  0  0  0  0
    0.2192   -0.5796    3.7799 H   0  0  0  0  0  0  0  0  0  0  0  0
  1  2  1  0  0  0  0
  2  3  1  0  0  0  0
  2  4  1  0  0  0  0
  2  5  1  0  0  0  0
  5  6  2  0  0  0  0
  5  7  1  0  0  0  0
  7  8  1  0  0  0  0
  7  9  1  0  0  0  0
  9 10  1  0  0  0  0
  9 11  1  0  0  0  0
  9 24  1  0  0  0  0
 11 12  1  0  0  0  0
 11 13  1  0  0  0  0
 11 14  1  0  0  0  0
 14 15  1  0  0  0  0
 14 16  1  0  0  0  0
 14 20  1  0  0  0  0
 16 17  1  0  0  0  0
 16 18  1  0  0  0  0
 16 19  1  0  0  0  0
 20 21  1  0  0  0  0
 20 22  1  0  0  0  0
 20 23  1  0  0  0  0
 24 25  2  0  0  0  0
 24 26  1  0  0  0  0
 26 27  1  0  0  0  0
 26 28  1  0  0  0  0
 28 29  1  0  0  0  0
 28 30  1  0  0  0  0
 28 31  1  0  0  0  0
M  END
$$$$

  -OEChem-04042216013D

 31 30  0     1  0  0  0  0  0999 V2000
   -2.8151   -4.2552    0.1877 H   0  0  0  0  0  0  0  0  0  0  0  0
   -2.7564   -3.2783   -0.3008 C   0  0  0  0  0  0  0  0  0  0  0  0
   -3.5610   -2.6456    0.0810 H   0  0  0  0  0  0  0  0  0  0  0  0
   -2.8875   -3.4163   -1.3767 H   0  0  0  0  0  0  0  0  0  0  0  0
   -1.4115   -2.6352   -0.0191 C   0  0  0  0  0  0  0  0  0  0  0  0
   -0.6152   -3.1974    0.7097 O   0  0  0  0  0  0  0  0  0  0  0  0
   -1.1049   -1.4149   -0.5905 N   0  0  0  0  0  0  0  0  0  0  0  0
   -1.7763   -1.0444   -1.2560 H   0  0  0  0  0  0  0  0  0  0  0  0
    0.2045   -0.7431   -0.4760 C   0  0  1  0  0  0  0  0  0  0  0  0
    0.9830   -1.3937   -0.8896 H   0  0  0  0  0  0  0  0  0  0  0  0
    0.1088    0.5355   -1.3356 C   0  0  0  0  0  0  0  0  0  0  0  0
   -0.1621    0.2582   -2.3598 H   0  0  0  0  0  0  0  0  0  0  0  0
   -0.7161    1.1394   -0.9426 H   0  0  0  0  0  0  0  0  0  0  0  0
    1.3985    1.3958   -1.3549 C   0  0  0  0  0  0  0  0  0  0  0  0
    2.0819    1.0985   -0.5554 H   0  0  0  0  0  0  0  0  0  0  0  0
    2.1298    1.2244   -2.6914 C   0  0  0  0  0  0  0  0  0  0  0  0
    1.5052    1.5613   -3.5248 H   0  0  0  0  0  0  0  0  0  0  0  0
    3.0565    1.8069   -2.6952 H   0  0  0  0  0  0  0  0  0  0  0  0
    2.3866    0.1723   -2.8498 H   0  0  0  0  0  0  0  0  0  0  0  0
    1.0563    2.8767   -1.1537 C   0  0  0  0  0  0  0  0  0  0  0  0
    0.5782    3.0272   -0.1805 H   0  0  0  0  0  0  0  0  0  0  0  0
    1.9657    3.4850   -1.1840 H   0  0  0  0  0  0  0  0  0  0  0  0
    0.3762    3.2279   -1.9365 H   0  0  0  0  0  0  0  0  0  0  0  0
    0.5932   -0.4342    0.9919 C   0  0  0  0  0  0  0  0  0  0  0  0
    1.7545   -0.5447    1.3639 O   0  0  0  0  0  0  0  0  0  0  0  0
   -0.3423    0.1088    1.8549 N   0  0  0  0  0  0  0  0  0  0  0  0
   -1.3088    0.0664    1.5504 H   0  0  0  0  0  0  0  0  0  0  0  0
   -0.0607    0.3653    3.2614 C   0  0  0  0  0  0  0  0  0  0  0  0
    0.7709    1.0704    3.3635 H   0  0  0  0  0  0  0  0  0  0  0  0
   -0.9391    0.7960    3.7510 H   0  0  0  0  0  0  0  0  0  0  0  0
    0.2022   -0.5661    3.7740 H   0  0  0  0  0  0  0  0  0  0  0  0
  1  2  1  0  0  0  0
  2  3  1  0  0  0  0
  2  4  1  0  0  0  0
  2  5  1  0  0  0  0
  5  6  2  0  0  0  0
  5  7  1  0  0  0  0
  7  8  1  0  0  0  0
  7  9  1  0  0  0  0
  9 10  1  0  0  0  0
  9 11  1  0  0  0  0
  9 24  1  0  0  0  0
 11 12  1  0  0  0  0
 11 13  1  0  0  0  0
 11 14  1  0  0  0  0
 14 15  1  0  0  0  0
 14 16  1  0  0  0  0
 14 20  1  0  0  0  0
 16 17  1  0  0  0  0
 16 18  1  0  0  0  0
 16 19  1  0  0  0  0
 20 21  1  0  0  0  0
 20 22  1  0  0  0  0
 20 23  1  0  0  0  0
 24 25  2  0  0  0  0
 24 26  1  0  0  0  0
 26 27  1  0  0  0  0
 26 28  1  0  0  0  0
 28 29  1  0  0  0  0
 28 30  1  0  0  0  0
 28 31  1  0  0  0  0
M  END
$$$$

  -OEChem-04042216013D

 31 30  0     1  0  0  0  0  0999 V2000
   -2.8098   -4.2668    0.1933 H   0  0  0  0  0  0  0  0  0  0  0  0
   -2.7553   -3.2914   -0.2986 C   0  0  0  0  0  0  0  0  0  0  0  0
   -3.5632   -2.6610    0.0803 H   0  0  0  0  0  0  0  0  0  0  0  0
   -2.8845   -3.4338   -1.3742 H   0  0  0  0  0  0  0  0  0  0  0  0
   -1.4139   -2.6408   -0.0178 C   0  0  0  0  0  0  0  0  0  0  0  0
   -0.6148   -3.1963    0.7131 O   0  0  0  0  0  0  0  0  0  0  0  0
   -1.1122   -1.4225   -0.5958 N   0  0  0  0  0  0  0  0  0  0  0  0
   -1.7864   -1.0567   -1.2611 H   0  0  0  0  0  0  0  0  0  0  0  0
    0.1953   -0.7465   -0.4870 C   0  0  1  0  0  0  0  0  0  0  0  0
    0.9745   -1.3954   -0.9024 H   0  0  0  0  0  0  0  0  0  0  0  0
    0.0948    0.5343   -1.3404 C   0  0  0  0  0  0  0  0  0  0  0  0
   -0.1616    0.2445   -2.3648 H   0  0  0  0  0  0  0  0  0  0  0  0
   -0.7367    1.1409   -0.9664 H   0  0  0  0  0  0  0  0  0  0  0  0
    1.3897    1.3864   -1.3530 C   0  0  0  0  0  0  0  0  0  0  0  0
    2.1731    0.8931   -0.7696 H   0  0  0  0  0  0  0  0  0  0  0  0
    1.9243    1.5308   -2.7826 C   0  0  0  0  0  0  0  0  0  0  0  0
    1.1934    2.0377   -3.4207 H   0  0  0  0  0  0  0  0  0  0  0  0
    2.8507    2.1138   -2.7852 H   0  0  0  0  0  0  0  0  0  0  0  0
    2.1386    0.5460   -3.2097 H   0  0  0  0  0  0  0  0  0  0  0  0
    1.1398    2.7694   -0.7411 C   0  0  0  0  0  0  0  0  0  0  0  0
    0.7926    2.6698    0.2922 H   0  0  0  0  0  0  0  0  0  0  0  0
    2.0645    3.3549   -0.7356 H   0  0  0  0  0  0  0  0  0  0  0  0
    0.3846    3.3171   -1.3135 H   0  0  0  0  0  0  0  0  0  0  0  0
    0.5896   -0.4275    0.9773 C   0  0  0  0  0  0  0  0  0  0  0  0
    1.7551   -0.5169    1.3416 O   0  0  0  0  0  0  0  0  0  0  0  0
   -0.3454    0.1181    1.8393 N   0  0  0  0  0  0  0  0  0  0  0  0
   -1.3131    0.0669    1.5402 H   0  0  0  0  0  0  0  0  0  0  0  0
   -0.0572    0.4013    3.2393 C   0  0  0  0  0  0  0  0  0  0  0  0
    0.7698    1.1141    3.3240 H   0  0  0  0  0  0  0  0  0  0  0  0
   -0.9361    0.8343    3.7264 H   0  0  0  0  0  0  0  0  0  0  0  0
    0.2152   -0.5191    3.7666 H   0  0  0  0  0  0  0  0  0  0  0  0
  1  2  1  0  0  0  0
  2  3  1  0  0  0  0
  2  4  1  0  0  0  0
  2  5  1  0  0  0  0
  5  6  2  0  0  0  0
  5  7  1  0  0  0  0
  7  8  1  0  0  0  0
  7  9  1  0  0  0  0
  9 10  1  0  0  0  0
  9 11  1  0  0  0  0
  9 24  1  0  0  0  0
 11 12  1  0  0  0  0
 11 13  1  0  0  0  0
 11 14  1  0  0  0  0
 14 15  1  0  0  0  0
 14 16  1  0  0  0  0
 14 20  1  0  0  0  0
 16 17  1  0  0  0  0
 16 18  1  0  0  0  0
 16 19  1  0  0  0  0
 20 21  1  0  0  0  0
 20 22  1  0  0  0  0
 20 23  1  0  0  0  0
 24 25  2  0  0  0  0
 24 26  1  0  0  0  0
 26 27  1  0  0  0  0
 26 28  1  0  0  0  0
 28 29  1  0  0  0  0
 28 30  1  0  0  0  0
 28 31  1  0  0  0  0
M  END
$$$$

  -OEChem-04042216013D

 31 30  0     1  0  0  0  0  0999 V2000
   -2.8116   -4.2746    0.1755 H   0  0  0  0  0  0  0  0  0  0  0  0
   -2.7611   -3.2956   -0.3097 C   0  0  0  0  0  0  0  0  0  0  0  0
   -3.5708   -2.6708    0.0743 H   0  0  0  0  0  0  0  0  0  0  0  0
   -2.8915   -3.4309   -1.3859 H   0  0  0  0  0  0  0  0  0  0  0  0
   -1.4214   -2.6421   -0.0269 C   0  0  0  0  0  0  0  0  0  0  0  0
   -0.6174   -3.2009    0.6963 O   0  0  0  0  0  0  0  0  0  0  0  0
   -1.1268   -1.4162   -0.5922 N   0  0  0  0  0  0  0  0  0  0  0  0
   -1.8030   -1.0469   -1.2536 H   0  0  0  0  0  0  0  0  0  0  0  0
    0.1782   -0.7368   -0.4786 C   0  0  1  0  0  0  0  0  0  0  0  0
    0.9546   -1.3893   -0.8937 H   0  0  0  0  0  0  0  0  0  0  0  0
    0.0900    0.5401   -1.3404 C   0  0  0  0  0  0  0  0  0  0  0  0
   -0.1412    0.2324   -2.3657 H   0  0  0  0  0  0  0  0  0  0  0  0
   -0.7470    1.1565   -0.9954 H   0  0  0  0  0  0  0  0  0  0  0  0
    1.3873    1.3857   -1.3412 C   0  0  0  0  0  0  0  0  0  0  0  0
    2.2237    0.7762   -0.9817 H   0  0  0  0  0  0  0  0  0  0  0  0
    1.7319    1.8330   -2.7670 C   0  0  0  0  0  0  0  0  0  0  0  0
    0.9251    2.4424   -3.1868 H   0  0  0  0  0  0  0  0  0  0  0  0
    2.6521    2.4260   -2.7678 H   0  0  0  0  0  0  0  0  0  0  0  0
    1.8864    0.9633   -3.4134 H   0  0  0  0  0  0  0  0  0  0  0  0
    1.2529    2.6185   -0.4366 C   0  0  0  0  0  0  0  0  0  0  0  0
    1.0273    2.3221    0.5915 H   0  0  0  0  0  0  0  0  0  0  0  0
    2.1894    3.1849   -0.4279 H   0  0  0  0  0  0  0  0  0  0  0  0
    0.4533    3.2756   -0.7928 H   0  0  0  0  0  0  0  0  0  0  0  0
    0.5821   -0.4294    0.9840 C   0  0  0  0  0  0  0  0  0  0  0  0
    1.7555   -0.4941    1.3276 O   0  0  0  0  0  0  0  0  0  0  0  0
   -0.3472    0.1052    1.8590 N   0  0  0  0  0  0  0  0  0  0  0  0
   -1.3185    0.0437    1.5736 H   0  0  0  0  0  0  0  0  0  0  0  0
   -0.0419    0.3953    3.2539 C   0  0  0  0  0  0  0  0  0  0  0  0
    0.7770    1.1190    3.3243 H   0  0  0  0  0  0  0  0  0  0  0  0
   -0.9188    0.8180    3.7532 H   0  0  0  0  0  0  0  0  0  0  0  0
    0.2502   -0.5203    3.7792 H   0  0  0  0  0  0  0  0  0  0  0  0
  1  2  1  0  0  0  0
  2  3  1  0  0  0  0
  2  4  1  0  0  0  0
  2  5  1  0  0  0  0
  5  6  2  0  0  0  0
  5  7  1  0  0  0  0
  7  8  1  0  0  0  0
  7  9  1  0  0  0  0
  9 10  1  0  0  0  0
  9 11  1  0  0  0  0
  9 24  1  0  0  0  0
 11 12  1  0  0  0  0
 11 13  1  0  0  0  0
 11 14  1  0  0  0  0
 14 15  1  0  0  0  0
 14 16  1  0  0  0  0
 14 20  1  0  0  0  0
 16 17  1  0  0  0  0
 16 18  1  0  0  0  0
 16 19  1  0  0  0  0
 20 21  1  0  0  0  0
 20 22  1  0  0  0  0
 20 23  1  0  0  0  0
 24 25  2  0  0  0  0
 24 26  1  0  0  0  0
 26 27  1  0  0  0  0
 26 28  1  0  0  0  0
 28 29  1  0  0  0  0
 28 30  1  0  0  0  0
 28 31  1  0  0  0  0
M  END
$$$$

  -OEChem-04042216013D

 31 30  0     1  0  0  0  0  0999 V2000
   -2.8449   -4.2488    0.1459 H   0  0  0  0  0  0  0  0  0  0  0  0
   -2.7795   -3.2647   -0.3268 C   0  0  0  0  0  0  0  0  0  0  0  0
   -3.5785   -2.6322    0.0672 H   0  0  0  0  0  0  0  0  0  0  0  0
   -2.9139   -3.3839   -1.4045 H   0  0  0  0  0  0  0  0  0  0  0  0
   -1.4293   -2.6360   -0.0378 C   0  0  0  0  0  0  0  0  0  0  0  0
   -0.6302   -3.2196    0.6712 O   0  0  0  0  0  0  0  0  0  0  0  0
   -1.1204   -1.4034   -0.5800 N   0  0  0  0  0  0  0  0  0  0  0  0
   -1.7990   -1.0058   -1.2222 H   0  0  0  0  0  0  0  0  0  0  0  0
    0.1879   -0.7342   -0.4454 C   0  0  1  0  0  0  0  0  0  0  0  0
    0.9610   -1.3962   -0.8515 H   0  0  0  0  0  0  0  0  0  0  0  0
    0.1248    0.5321   -1.3280 C   0  0  0  0  0  0  0  0  0  0  0  0
   -0.0827    0.2016   -2.3512 H   0  0  0  0  0  0  0  0  0  0  0  0
   -0.7190    1.1546   -1.0124 H   0  0  0  0  0  0  0  0  0  0  0  0
    1.4114    1.3936   -1.3351 C   0  0  0  0  0  0  0  0  0  0  0  0
    2.2862    0.7484   -1.1942 H   0  0  0  0  0  0  0  0  0  0  0  0
    1.5416    2.1037   -2.6895 C   0  0  0  0  0  0  0  0  0  0  0  0
    0.6738    2.7444   -2.8760 H   0  0  0  0  0  0  0  0  0  0  0  0
    2.4432    2.7241   -2.7109 H   0  0  0  0  0  0  0  0  0  0  0  0
    1.6158    1.3716   -3.4997 H   0  0  0  0  0  0  0  0  0  0  0  0
    1.3983    2.4798   -0.2450 C   0  0  0  0  0  0  0  0  0  0  0  0
    1.3846    2.0465    0.7564 H   0  0  0  0  0  0  0  0  0  0  0  0
    2.2958    3.1015   -0.3214 H   0  0  0  0  0  0  0  0  0  0  0  0
    0.5212    3.1255   -0.3535 H   0  0  0  0  0  0  0  0  0  0  0  0
    0.5825   -0.4530    1.0223 C   0  0  0  0  0  0  0  0  0  0  0  0
    1.7519   -0.5489    1.3728 O   0  0  0  0  0  0  0  0  0  0  0  0
   -0.3471    0.0738    1.9017 N   0  0  0  0  0  0  0  0  0  0  0  0
   -1.3166    0.0355    1.6063 H   0  0  0  0  0  0  0  0  0  0  0  0
   -0.0495    0.3187    3.3070 C   0  0  0  0  0  0  0  0  0  0  0  0
    0.7729    1.0349    3.4053 H   0  0  0  0  0  0  0  0  0  0  0  0
   -0.9272    0.7306    3.8139 H   0  0  0  0  0  0  0  0  0  0  0  0
    0.2346   -0.6143    3.8052 H   0  0  0  0  0  0  0  0  0  0  0  0
  1  2  1  0  0  0  0
  2  3  1  0  0  0  0
  2  4  1  0  0  0  0
  2  5  1  0  0  0  0
  5  6  2  0  0  0  0
  5  7  1  0  0  0  0
  7  8  1  0  0  0  0
  7  9  1  0  0  0  0
  9 10  1  0  0  0  0
  9 11  1  0  0  0  0
  9 24  1  0  0  0  0
 11 12  1  0  0  0  0
 11 13  1  0  0  0  0
 11 14  1  0  0  0  0
 14 15  1  0  0  0  0
 14 16  1  0  0  0  0
 14 20  1  0  0  0  0
 16 17  1  0  0  0  0
 16 18  1  0  0  0  0
 16 19  1  0  0  0  0
 20 21  1  0  0  0  0
 20 22  1  0  0  0  0
 20 23  1  0  0  0  0
 24 25  2  0  0  0  0
 24 26  1  0  0  0  0
 26 27  1  0  0  0  0
 26 28  1  0  0  0  0
 28 29  1  0  0  0  0
 28 30  1  0  0  0  0
 28 31  1  0  0  0  0
M  END
$$$$

  -OEChem-04042216013D

 31 30  0     1  0  0  0  0  0999 V2000
   -2.8914   -4.2013    0.1178 H   0  0  0  0  0  0  0  0  0  0  0  0
   -2.7968   -3.2169   -0.3496 C   0  0  0  0  0  0  0  0  0  0  0  0
   -3.5909   -2.5696    0.0300 H   0  0  0  0  0  0  0  0  0  0  0  0
   -2.9111   -3.3296   -1.4304 H   0  0  0  0  0  0  0  0  0  0  0  0
   -1.4402   -2.6172   -0.0307 C   0  0  0  0  0  0  0  0  0  0  0  0
   -0.6679   -3.2222    0.6895 O   0  0  0  0  0  0  0  0  0  0  0  0
   -1.0943   -1.3909   -0.5657 N   0  0  0  0  0  0  0  0  0  0  0  0
   -1.7520   -0.9798   -1.2208 H   0  0  0  0  0  0  0  0  0  0  0  0
    0.2263   -0.7499   -0.4086 C   0  0  1  0  0  0  0  0  0  0  0  0
    0.9964   -1.4223   -0.8029 H   0  0  0  0  0  0  0  0  0  0  0  0
    0.1783    0.5107   -1.3041 C   0  0  0  0  0  0  0  0  0  0  0  0
   -0.0309    0.1696   -2.3235 H   0  0  0  0  0  0  0  0  0  0  0  0
   -0.6662    1.1337   -0.9910 H   0  0  0  0  0  0  0  0  0  0  0  0
    1.4456    1.4010   -1.3470 C   0  0  0  0  0  0  0  0  0  0  0  0
    2.3323    0.7698   -1.4741 H   0  0  0  0  0  0  0  0  0  0  0  0
    1.3247    2.3460   -2.5524 C   0  0  0  0  0  0  0  0  0  0  0  0
    0.4505    2.9970   -2.4494 H   0  0  0  0  0  0  0  0  0  0  0  0
    2.2174    2.9734   -2.6395 H   0  0  0  0  0  0  0  0  0  0  0  0
    1.2253    1.7740   -3.4801 H   0  0  0  0  0  0  0  0  0  0  0  0
    1.6281    2.2921   -0.1038 C   0  0  0  0  0  0  0  0  0  0  0  0
    1.9946    1.7219    0.7502 H   0  0  0  0  0  0  0  0  0  0  0  0
    2.3669    3.0754   -0.3000 H   0  0  0  0  0  0  0  0  0  0  0  0
    0.6841    2.7716    0.1725 H   0  0  0  0  0  0  0  0  0  0  0  0
    0.5910   -0.4833    1.0694 C   0  0  0  0  0  0  0  0  0  0  0  0
    1.7311   -0.6840    1.4685 O   0  0  0  0  0  0  0  0  0  0  0  0
   -0.3464    0.0603    1.9299 N   0  0  0  0  0  0  0  0  0  0  0  0
   -1.3040    0.0781    1.5966 H   0  0  0  0  0  0  0  0  0  0  0  0
   -0.0938    0.2477    3.3526 C   0  0  0  0  0  0  0  0  0  0  0  0
    0.7568    0.9204    3.5053 H   0  0  0  0  0  0  0  0  0  0  0  0
   -0.9708    0.6859    3.8382 H   0  0  0  0  0  0  0  0  0  0  0  0
    0.1259   -0.7124    3.8315 H   0  0  0  0  0  0  0  0  0  0  0  0
  1  2  1  0  0  0  0
  2  3  1  0  0  0  0
  2  4  1  0  0  0  0
  2  5  1  0  0  0  0
  5  6  2  0  0  0  0
  5  7  1  0  0  0  0
  7  8  1  0  0  0  0
  7  9  1  0  0  0  0
  9 10  1  0  0  0  0
  9 11  1  0  0  0  0
  9 24  1  0  0  0  0
 11 12  1  0  0  0  0
 11 13  1  0  0  0  0
 11 14  1  0  0  0  0
 14 15  1  0  0  0  0
 14 16  1  0  0  0  0
 14 20  1  0  0  0  0
 16 17  1  0  0  0  0
 16 18  1  0  0  0  0
 16 19  1  0  0  0  0
 20 21  1  0  0  0  0
 20 22  1  0  0  0  0
 20 23  1  0  0  0  0
 24 25  2  0  0  0  0
 24 26  1  0  0  0  0
 26 27  1  0  0  0  0
 26 28  1  0  0  0  0
 28 29  1  0  0  0  0
 28 30  1  0  0  0  0
 28 31  1  0  0  0  0
M  END
$$$$

  -OEChem-04042216013D

 31 30  0     1  0  0  0  0  0999 V2000
   -2.9015   -4.1708    0.1892 H   0  0  0  0  0  0  0  0  0  0  0  0
   -2.7984   -3.1939   -0.2920 C   0  0  0  0  0  0  0  0  0  0  0  0
   -3.5741   -2.5288    0.0945 H   0  0  0  0  0  0  0  0  0  0  0  0
   -2.9353   -3.3178   -1.3690 H   0  0  0  0  0  0  0  0  0  0  0  0
   -1.4261   -2.6136   -0.0051 C   0  0  0  0  0  0  0  0  0  0  0  0
   -0.6541   -3.2207    0.7133 O   0  0  0  0  0  0  0  0  0  0  0  0
   -1.0653   -1.4052   -0.5705 N   0  0  0  0  0  0  0  0  0  0  0  0
   -1.7278   -0.9920   -1.2192 H   0  0  0  0  0  0  0  0  0  0  0  0
    0.2595   -0.7680   -0.4234 C   0  0  1  0  0  0  0  0  0  0  0  0
    1.0316   -1.4415   -0.8115 H   0  0  0  0  0  0  0  0  0  0  0  0
    0.1935    0.4973   -1.3140 C   0  0  0  0  0  0  0  0  0  0  0  0
   -0.2768    0.2173   -2.2629 H   0  0  0  0  0  0  0  0  0  0  0  0
   -0.4642    1.2256   -0.8272 H   0  0  0  0  0  0  0  0  0  0  0  0
    1.5295    1.1965   -1.6652 C   0  0  0  0  0  0  0  0  0  0  0  0
    2.1531    0.4998   -2.2358 H   0  0  0  0  0  0  0  0  0  0  0  0
    1.2148    2.4118   -2.5492 C   0  0  0  0  0  0  0  0  0  0  0  0
    0.6180    3.1469   -1.9994 H   0  0  0  0  0  0  0  0  0  0  0  0
    2.1398    2.8939   -2.8817 H   0  0  0  0  0  0  0  0  0  0  0  0
    0.6559    2.1044   -3.4386 H   0  0  0  0  0  0  0  0  0  0  0  0
    2.3387    1.6906   -0.4589 C   0  0  0  0  0  0  0  0  0  0  0  0
    2.8743    0.8613    0.0074 H   0  0  0  0  0  0  0  0  0  0  0  0
    3.0912    2.4213   -0.7714 H   0  0  0  0  0  0  0  0  0  0  0  0
    1.6870    2.1629    0.2828 H   0  0  0  0  0  0  0  0  0  0  0  0
    0.5958   -0.4712    1.0601 C   0  0  0  0  0  0  0  0  0  0  0  0
    1.7016   -0.7256    1.5187 O   0  0  0  0  0  0  0  0  0  0  0  0
   -0.3599    0.0964    1.8849 N   0  0  0  0  0  0  0  0  0  0  0  0
   -1.3017    0.1449    1.5124 H   0  0  0  0  0  0  0  0  0  0  0  0
   -0.1636    0.2648    3.3193 C   0  0  0  0  0  0  0  0  0  0  0  0
    0.6931    0.9183    3.5148 H   0  0  0  0  0  0  0  0  0  0  0  0
   -1.0514    0.7159    3.7725 H   0  0  0  0  0  0  0  0  0  0  0  0
    0.0161   -0.7044    3.7969 H   0  0  0  0  0  0  0  0  0  0  0  0
  1  2  1  0  0  0  0
  2  3  1  0  0  0  0
  2  4  1  0  0  0  0
  2  5  1  0  0  0  0
  5  6  2  0  0  0  0
  5  7  1  0  0  0  0
  7  8  1  0  0  0  0
  7  9  1  0  0  0  0
  9 10  1  0  0  0  0
  9 11  1  0  0  0  0
  9 24  1  0  0  0  0
 11 12  1  0  0  0  0
 11 13  1  0  0  0  0
 11 14  1  0  0  0  0
 14 15  1  0  0  0  0
 14 16  1  0  0  0  0
 14 20  1  0  0  0  0
 16 17  1  0  0  0  0
 16 18  1  0  0  0  0
 16 19  1  0  0  0  0
 20 21  1  0  0  0  0
 20 22  1  0  0  0  0
 20 23  1  0  0  0  0
 24 25  2  0  0  0  0
 24 26  1  0  0  0  0
 26 27  1  0  0  0  0
 26 28  1  0  0  0  0
 28 29  1  0  0  0  0
 28 30  1  0  0  0  0
 28 31  1  0  0  0  0
M  END
$$$$

  -OEChem-04042216013D

 31 30  0     1  0  0  0  0  0999 V2000
   -2.9309   -4.1491    0.2175 H   0  0  0  0  0  0  0  0  0  0  0  0
   -2.8090   -3.1867   -0.2876 C   0  0  0  0  0  0  0  0  0  0  0  0
   -3.5833   -2.5030    0.0679 H   0  0  0  0  0  0  0  0  0  0  0  0
   -2.9291   -3.3372   -1.3630 H   0  0  0  0  0  0  0  0  0  0  0  0
   -1.4351   -2.6145    0.0068 C   0  0  0  0  0  0  0  0  0  0  0  0
   -0.6726   -3.2238    0.7335 O   0  0  0  0  0  0  0  0  0  0  0  0
   -1.0619   -1.4119   -0.5631 N   0  0  0  0  0  0  0  0  0  0  0  0
   -1.7133   -1.0036   -1.2262 H   0  0  0  0  0  0  0  0  0  0  0  0
    0.2689   -0.7867   -0.4157 C   0  0  1  0  0  0  0  0  0  0  0  0
    1.0383   -1.4637   -0.8029 H   0  0  0  0  0  0  0  0  0  0  0  0
    0.2049    0.4837   -1.3019 C   0  0  0  0  0  0  0  0  0  0  0  0
   -0.2841    0.2229   -2.2467 H   0  0  0  0  0  0  0  0  0  0  0  0
   -0.4432    1.2041   -0.7910 H   0  0  0  0  0  0  0  0  0  0  0  0
    1.5312    1.1974   -1.6731 C   0  0  0  0  0  0  0  0  0  0  0  0
    2.0171    0.6185   -2.4660 H   0  0  0  0  0  0  0  0  0  0  0  0
    1.1966    2.5938   -2.2157 C   0  0  0  0  0  0  0  0  0  0  0  0
    0.7539    3.2188   -1.4335 H   0  0  0  0  0  0  0  0  0  0  0  0
    2.1012    3.0885   -2.5834 H   0  0  0  0  0  0  0  0  0  0  0  0
    0.4878    2.5208   -3.0465 H   0  0  0  0  0  0  0  0  0  0  0  0
    2.5474    1.3648   -0.5387 C   0  0  0  0  0  0  0  0  0  0  0  0
    2.9897    0.3996   -0.2793 H   0  0  0  0  0  0  0  0  0  0  0  0
    3.3649    2.0223   -0.8504 H   0  0  0  0  0  0  0  0  0  0  0  0
    2.0771    1.8004    0.3483 H   0  0  0  0  0  0  0  0  0  0  0  0
    0.5930   -0.4916    1.0728 C   0  0  0  0  0  0  0  0  0  0  0  0
    1.6907   -0.7528    1.5469 O   0  0  0  0  0  0  0  0  0  0  0  0
   -0.3668    0.0851    1.8869 N   0  0  0  0  0  0  0  0  0  0  0  0
   -1.3051    0.1367    1.5061 H   0  0  0  0  0  0  0  0  0  0  0  0
   -0.1828    0.2593    3.3221 C   0  0  0  0  0  0  0  0  0  0  0  0
    0.7017    0.8728    3.5236 H   0  0  0  0  0  0  0  0  0  0  0  0
   -1.0537    0.7583    3.7574 H   0  0  0  0  0  0  0  0  0  0  0  0
   -0.0568   -0.7124    3.8115 H   0  0  0  0  0  0  0  0  0  0  0  0
  1  2  1  0  0  0  0
  2  3  1  0  0  0  0
  2  4  1  0  0  0  0
  2  5  1  0  0  0  0
  5  6  2  0  0  0  0
  5  7  1  0  0  0  0
  7  8  1  0  0  0  0
  7  9  1  0  0  0  0
  9 10  1  0  0  0  0
  9 11  1  0  0  0  0
  9 24  1  0  0  0  0
 11 12  1  0  0  0  0
 11 13  1  0  0  0  0
 11 14  1  0  0  0  0
 14 15  1  0  0  0  0
 14 16  1  0  0  0  0
 14 20  1  0  0  0  0
 16 17  1  0  0  0  0
 16 18  1  0  0  0  0
 16 19  1  0  0  0  0
 20 21  1  0  0  0  0
 20 22  1  0  0  0  0
 20 23  1  0  0  0  0
 24 25  2  0  0  0  0
 24 26  1  0  0  0  0
 26 27  1  0  0  0  0
 26 28  1  0  0  0  0
 28 29  1  0  0  0  0
 28 30  1  0  0  0  0
 28 31  1  0  0  0  0
M  END
$$$$

  -OEChem-04042216013D

 31 30  0     1  0  0  0  0  0999 V2000
   -2.9413   -4.1579    0.2142 H   0  0  0  0  0  0  0  0  0  0  0  0
   -2.8226   -3.1890   -0.2792 C   0  0  0  0  0  0  0  0  0  0  0  0
   -3.5941   -2.5097    0.0907 H   0  0  0  0  0  0  0  0  0  0  0  0
   -2.9504   -3.3256   -1.3556 H   0  0  0  0  0  0  0  0  0  0  0  0
   -1.4462   -2.6211    0.0128 C   0  0  0  0  0  0  0  0  0  0  0  0
   -0.6846   -3.2319    0.7390 O   0  0  0  0  0  0  0  0  0  0  0  0
   -1.0694   -1.4207   -0.5594 N   0  0  0  0  0  0  0  0  0  0  0  0
   -1.7218   -1.0096   -1.2198 H   0  0  0  0  0  0  0  0  0  0  0  0
    0.2625   -0.7977   -0.4119 C   0  0  1  0  0  0  0  0  0  0  0  0
    1.0277   -1.4801   -0.7973 H   0  0  0  0  0  0  0  0  0  0  0  0
    0.2065    0.4729   -1.2990 C   0  0  0  0  0  0  0  0  0  0  0  0
   -0.2867    0.2172   -2.2429 H   0  0  0  0  0  0  0  0  0  0  0  0
   -0.4435    1.1892   -0.7851 H   0  0  0  0  0  0  0  0  0  0  0  0
    1.5316    1.1937   -1.6765 C   0  0  0  0  0  0  0  0  0  0  0  0
    1.8691    0.7787   -2.6324 H   0  0  0  0  0  0  0  0  0  0  0  0
    1.2562    2.6925   -1.8611 C   0  0  0  0  0  0  0  0  0  0  0  0
    0.9516    3.1513   -0.9148 H   0  0  0  0  0  0  0  0  0  0  0  0
    2.1542    3.2051   -2.2206 H   0  0  0  0  0  0  0  0  0  0  0  0
    0.4594    2.8455   -2.5957 H   0  0  0  0  0  0  0  0  0  0  0  0
    2.6993    1.0497   -0.6945 C   0  0  0  0  0  0  0  0  0  0  0  0
    2.9895    0.0004   -0.5893 H   0  0  0  0  0  0  0  0  0  0  0  0
    3.5724    1.5971   -1.0634 H   0  0  0  0  0  0  0  0  0  0  0  0
    2.4371    1.4542    0.2879 H   0  0  0  0  0  0  0  0  0  0  0  0
    0.5878   -0.4985    1.0760 C   0  0  0  0  0  0  0  0  0  0  0  0
    1.6857   -0.7592    1.5503 O   0  0  0  0  0  0  0  0  0  0  0  0
   -0.3705    0.0827    1.8887 N   0  0  0  0  0  0  0  0  0  0  0  0
   -1.3087    0.1355    1.5077 H   0  0  0  0  0  0  0  0  0  0  0  0
   -0.1860    0.2571    3.3238 C   0  0  0  0  0  0  0  0  0  0  0  0
    0.6841    0.8912    3.5234 H   0  0  0  0  0  0  0  0  0  0  0  0
   -1.0672    0.7329    3.7640 H   0  0  0  0  0  0  0  0  0  0  0  0
   -0.0348   -0.7126    3.8100 H   0  0  0  0  0  0  0  0  0  0  0  0
  1  2  1  0  0  0  0
  2  3  1  0  0  0  0
  2  4  1  0  0  0  0
  2  5  1  0  0  0  0
  5  6  2  0  0  0  0
  5  7  1  0  0  0  0
  7  8  1  0  0  0  0
  7  9  1  0  0  0  0
  9 10  1  0  0  0  0
  9 11  1  0  0  0  0
  9 24  1  0  0  0  0
 11 12  1  0  0  0  0
 11 13  1  0  0  0  0
 11 14  1  0  0  0  0
 14 15  1  0  0  0  0
 14 16  1  0  0  0  0
 14 20  1  0  0  0  0
 16 17  1  0  0  0  0
 16 18  1  0  0  0  0
 16 19  1  0  0  0  0
 20 21  1  0  0  0  0
 20 22  1  0  0  0  0
 20 23  1  0  0  0  0
 24 25  2  0  0  0  0
 24 26  1  0  0  0  0
 26 27  1  0  0  0  0
 26 28  1  0  0  0  0
 28 29  1  0  0  0  0
 28 30  1  0  0  0  0
 28 31  1  0  0  0  0
M  END
$$$$

  -OEChem-04042216013D

 31 30  0     1  0  0  0  0  0999 V2000
   -2.9522   -4.1722    0.2076 H   0  0  0  0  0  0  0  0  0  0  0  0
   -2.8345   -3.2020   -0.2839 C   0  0  0  0  0  0  0  0  0  0  0  0
   -3.6112   -2.5262    0.0820 H   0  0  0  0  0  0  0  0  0  0  0  0
   -2.9550   -3.3382   -1.3613 H   0  0  0  0  0  0  0  0  0  0  0  0
   -1.4625   -2.6281    0.0168 C   0  0  0  0  0  0  0  0  0  0  0  0
   -0.7060   -3.2312    0.7550 O   0  0  0  0  0  0  0  0  0  0  0  0
   -1.0847   -1.4297   -0.5589 N   0  0  0  0  0  0  0  0  0  0  0  0
   -1.7318   -1.0252   -1.2284 H   0  0  0  0  0  0  0  0  0  0  0  0
    0.2472   -0.8078   -0.4105 C   0  0  1  0  0  0  0  0  0  0  0  0
    1.0039   -1.4995   -0.7950 H   0  0  0  0  0  0  0  0  0  0  0  0
    0.2002    0.4636   -1.2951 C   0  0  0  0  0  0  0  0  0  0  0  0
   -0.2826    0.2012   -2.2424 H   0  0  0  0  0  0  0  0  0  0  0  0
   -0.4624    1.1778   -0.7943 H   0  0  0  0  0  0  0  0  0  0  0  0
    1.5280    1.1866   -1.6703 C   0  0  0  0  0  0  0  0  0  0  0  0
    1.7125    0.9850   -2.7311 H   0  0  0  0  0  0  0  0  0  0  0  0
    1.3603    2.7014   -1.4902 C   0  0  0  0  0  0  0  0  0  0  0  0
    1.1873    2.9489   -0.4378 H   0  0  0  0  0  0  0  0  0  0  0  0
    2.2587    3.2286   -1.8268 H   0  0  0  0  0  0  0  0  0  0  0  0
    0.5116    3.0642   -2.0786 H   0  0  0  0  0  0  0  0  0  0  0  0
    2.7965    0.7589   -0.9204 C   0  0  0  0  0  0  0  0  0  0  0  0
    2.9402   -0.3240   -0.9679 H   0  0  0  0  0  0  0  0  0  0  0  0
    3.6737    1.2297   -1.3748 H   0  0  0  0  0  0  0  0  0  0  0  0
    2.7566    1.0721    0.1264 H   0  0  0  0  0  0  0  0  0  0  0  0
    0.5853   -0.4981    1.0710 C   0  0  0  0  0  0  0  0  0  0  0  0
    1.6882   -0.7550    1.5354 O   0  0  0  0  0  0  0  0  0  0  0  0
   -0.3647    0.0913    1.8873 N   0  0  0  0  0  0  0  0  0  0  0  0
   -1.3069    0.1380    1.5157 H   0  0  0  0  0  0  0  0  0  0  0  0
   -0.1677    0.2737    3.3197 C   0  0  0  0  0  0  0  0  0  0  0  0
    0.7048    0.9081    3.5086 H   0  0  0  0  0  0  0  0  0  0  0  0
   -1.0447    0.7528    3.7648 H   0  0  0  0  0  0  0  0  0  0  0  0
   -0.0133   -0.6935    3.8099 H   0  0  0  0  0  0  0  0  0  0  0  0
  1  2  1  0  0  0  0
  2  3  1  0  0  0  0
  2  4  1  0  0  0  0
  2  5  1  0  0  0  0
  5  6  2  0  0  0  0
  5  7  1  0  0  0  0
  7  8  1  0  0  0  0
  7  9  1  0  0  0  0
  9 10  1  0  0  0  0
  9 11  1  0  0  0  0
  9 24  1  0  0  0  0
 11 12  1  0  0  0  0
 11 13  1  0  0  0  0
 11 14  1  0  0  0  0
 14 15  1  0  0  0  0
 14 16  1  0  0  0  0
 14 20  1  0  0  0  0
 16 17  1  0  0  0  0
 16 18  1  0  0  0  0
 16 19  1  0  0  0  0
 20 21  1  0  0  0  0
 20 22  1  0  0  0  0
 20 23  1  0  0  0  0
 24 25  2  0  0  0  0
 24 26  1  0  0  0  0
 26 27  1  0  0  0  0
 26 28  1  0  0  0  0
 28 29  1  0  0  0  0
 28 30  1  0  0  0  0
 28 31  1  0  0  0  0
M  END
$$$$

  -OEChem-04042216013D

 31 30  0     1  0  0  0  0  0999 V2000
   -2.9482   -4.1920    0.2079 H   0  0  0  0  0  0  0  0  0  0  0  0
   -2.8336   -3.2235   -0.2875 C   0  0  0  0  0  0  0  0  0  0  0  0
   -3.6229   -2.5542    0.0625 H   0  0  0  0  0  0  0  0  0  0  0  0
   -2.9363   -3.3671   -1.3658 H   0  0  0  0  0  0  0  0  0  0  0  0
   -1.4725   -2.6331    0.0302 C   0  0  0  0  0  0  0  0  0  0  0  0
   -0.7235   -3.2192    0.7893 O   0  0  0  0  0  0  0  0  0  0  0  0
   -1.0952   -1.4392   -0.5547 N   0  0  0  0  0  0  0  0  0  0  0  0
   -1.7334   -1.0510   -1.2423 H   0  0  0  0  0  0  0  0  0  0  0  0
    0.2362   -0.8164   -0.4095 C   0  0  1  0  0  0  0  0  0  0  0  0
    0.9893   -1.5122   -0.7917 H   0  0  0  0  0  0  0  0  0  0  0  0
    0.1896    0.4629   -1.2804 C   0  0  0  0  0  0  0  0  0  0  0  0
   -0.2776    0.1903   -2.2328 H   0  0  0  0  0  0  0  0  0  0  0  0
   -0.4861    1.1766   -0.7969 H   0  0  0  0  0  0  0  0  0  0  0  0
    1.5214    1.1809   -1.6484 C   0  0  0  0  0  0  0  0  0  0  0  0
    1.5401    1.2511   -2.7415 H   0  0  0  0  0  0  0  0  0  0  0  0
    1.5150    2.6172   -1.1104 C   0  0  0  0  0  0  0  0  0  0  0  0
    1.4840    2.6158   -0.0159 H   0  0  0  0  0  0  0  0  0  0  0  0
    2.4160    3.1495   -1.4314 H   0  0  0  0  0  0  0  0  0  0  0  0
    0.6445    3.1648   -1.4849 H   0  0  0  0  0  0  0  0  0  0  0  0
    2.8312    0.4874   -1.2480 C   0  0  0  0  0  0  0  0  0  0  0  0
    2.8363   -0.5597   -1.5626 H   0  0  0  0  0  0  0  0  0  0  0  0
    3.6760    0.9849   -1.7341 H   0  0  0  0  0  0  0  0  0  0  0  0
    2.9954    0.5409   -0.1702 H   0  0  0  0  0  0  0  0  0  0  0  0
    0.5815   -0.4920    1.0665 C   0  0  0  0  0  0  0  0  0  0  0  0
    1.6937   -0.7203    1.5223 O   0  0  0  0  0  0  0  0  0  0  0  0
   -0.3657    0.1061    1.8797 N   0  0  0  0  0  0  0  0  0  0  0  0
   -1.3113    0.1397    1.5147 H   0  0  0  0  0  0  0  0  0  0  0  0
   -0.1575    0.3213    3.3061 C   0  0  0  0  0  0  0  0  0  0  0  0
    0.7186    0.9563    3.4745 H   0  0  0  0  0  0  0  0  0  0  0  0
   -1.0295    0.8146    3.7458 H   0  0  0  0  0  0  0  0  0  0  0  0
   -0.0034   -0.6347    3.8179 H   0  0  0  0  0  0  0  0  0  0  0  0
  1  2  1  0  0  0  0
  2  3  1  0  0  0  0
  2  4  1  0  0  0  0
  2  5  1  0  0  0  0
  5  6  2  0  0  0  0
  5  7  1  0  0  0  0
  7  8  1  0  0  0  0
  7  9  1  0  0  0  0
  9 10  1  0  0  0  0
  9 11  1  0  0  0  0
  9 24  1  0  0  0  0
 11 12  1  0  0  0  0
 11 13  1  0  0  0  0
 11 14  1  0  0  0  0
 14 15  1  0  0  0  0
 14 16  1  0  0  0  0
 14 20  1  0  0  0  0
 16 17  1  0  0  0  0
 16 18  1  0  0  0  0
 16 19  1  0  0  0  0
 20 21  1  0  0  0  0
 20 22  1  0  0  0  0
 20 23  1  0  0  0  0
 24 25  2  0  0  0  0
 24 26  1  0  0  0  0
 26 27  1  0  0  0  0
 26 28  1  0  0  0  0
 28 29  1  0  0  0  0
 28 30  1  0  0  0  0
 28 31  1  0  0  0  0
M  END
$$$$

  -OEChem-04042216013D

 31 30  0     1  0  0  0  0  0999 V2000
   -2.9246   -4.2215    0.2163 H   0  0  0  0  0  0  0  0  0  0  0  0
   -2.8256   -3.2536   -0.2838 C   0  0  0  0  0  0  0  0  0  0  0  0
   -3.6192   -2.5919    0.0710 H   0  0  0  0  0  0  0  0  0  0  0  0
   -2.9369   -3.4026   -1.3605 H   0  0  0  0  0  0  0  0  0  0  0  0
   -1.4683   -2.6471    0.0197 C   0  0  0  0  0  0  0  0  0  0  0  0
   -0.7066   -3.2221    0.7751 O   0  0  0  0  0  0  0  0  0  0  0  0
   -1.1095   -1.4480   -0.5663 N   0  0  0  0  0  0  0  0  0  0  0  0
   -1.7538   -1.0677   -1.2525 H   0  0  0  0  0  0  0  0  0  0  0  0
    0.2163   -0.8128   -0.4269 C   0  0  1  0  0  0  0  0  0  0  0  0
    0.9714   -1.5040   -0.8136 H   0  0  0  0  0  0  0  0  0  0  0  0
    0.1717    0.4764   -1.2805 C   0  0  0  0  0  0  0  0  0  0  0  0
   -0.2811    0.2083   -2.2410 H   0  0  0  0  0  0  0  0  0  0  0  0
   -0.5041    1.1956   -0.8058 H   0  0  0  0  0  0  0  0  0  0  0  0
    1.5190    1.1704   -1.6208 C   0  0  0  0  0  0  0  0  0  0  0  0
    1.4267    1.5174   -2.6558 H   0  0  0  0  0  0  0  0  0  0  0  0
    1.7108    2.4316   -0.7706 C   0  0  0  0  0  0  0  0  0  0  0  0
    1.7954    2.1706    0.2892 H   0  0  0  0  0  0  0  0  0  0  0  0
    2.6227    2.9573   -1.0707 H   0  0  0  0  0  0  0  0  0  0  0  0
    0.8655    3.1151   -0.8965 H   0  0  0  0  0  0  0  0  0  0  0  0
    2.7708    0.2822   -1.5852 C   0  0  0  0  0  0  0  0  0  0  0  0
    2.6197   -0.6193   -2.1865 H   0  0  0  0  0  0  0  0  0  0  0  0
    3.6249    0.8259   -2.0006 H   0  0  0  0  0  0  0  0  0  0  0  0
    3.0289   -0.0109   -0.5659 H   0  0  0  0  0  0  0  0  0  0  0  0
    0.5752   -0.4847    1.0448 C   0  0  0  0  0  0  0  0  0  0  0  0
    1.7134   -0.6341    1.4677 O   0  0  0  0  0  0  0  0  0  0  0  0
   -0.3698    0.1043    1.8669 N   0  0  0  0  0  0  0  0  0  0  0  0
   -1.3258    0.0958    1.5287 H   0  0  0  0  0  0  0  0  0  0  0  0
   -0.1259    0.3870    3.2757 C   0  0  0  0  0  0  0  0  0  0  0  0
    0.7280    1.0631    3.3890 H   0  0  0  0  0  0  0  0  0  0  0  0
   -1.0033    0.8632    3.7233 H   0  0  0  0  0  0  0  0  0  0  0  0
    0.0838   -0.5397    3.8204 H   0  0  0  0  0  0  0  0  0  0  0  0
  1  2  1  0  0  0  0
  2  3  1  0  0  0  0
  2  4  1  0  0  0  0
  2  5  1  0  0  0  0
  5  6  2  0  0  0  0
  5  7  1  0  0  0  0
  7  8  1  0  0  0  0
  7  9  1  0  0  0  0
  9 10  1  0  0  0  0
  9 11  1  0  0  0  0
  9 24  1  0  0  0  0
 11 12  1  0  0  0  0
 11 13  1  0  0  0  0
 11 14  1  0  0  0  0
 14 15  1  0  0  0  0
 14 16  1  0  0  0  0
 14 20  1  0  0  0  0
 16 17  1  0  0  0  0
 16 18  1  0  0  0  0
 16 19  1  0  0  0  0
 20 21  1  0  0  0  0
 20 22  1  0  0  0  0
 20 23  1  0  0  0  0
 24 25  2  0  0  0  0
 24 26  1  0  0  0  0
 26 27  1  0  0  0  0
 26 28  1  0  0  0  0
 28 29  1  0  0  0  0
 28 30  1  0  0  0  0
 28 31  1  0  0  0  0
M  END
$$$$

  -OEChem-04042216013D

 31 30  0     1  0  0  0  0  0999 V2000
   -2.9167   -4.2305    0.1955 H   0  0  0  0  0  0  0  0  0  0  0  0
   -2.8274   -3.2586   -0.2985 C   0  0  0  0  0  0  0  0  0  0  0  0
   -3.6234   -2.6047    0.0655 H   0  0  0  0  0  0  0  0  0  0  0  0
   -2.9440   -3.4012   -1.3755 H   0  0  0  0  0  0  0  0  0  0  0  0
   -1.4726   -2.6452    0.0018 C   0  0  0  0  0  0  0  0  0  0  0  0
   -0.7025   -3.2214    0.7476 O   0  0  0  0  0  0  0  0  0  0  0  0
   -1.1261   -1.4365   -0.5715 N   0  0  0  0  0  0  0  0  0  0  0  0
   -1.7784   -1.0492   -1.2463 H   0  0  0  0  0  0  0  0  0  0  0  0
    0.1964   -0.7961   -0.4314 C   0  0  1  0  0  0  0  0  0  0  0  0
    0.9446   -1.4945   -0.8188 H   0  0  0  0  0  0  0  0  0  0  0  0
    0.1600    0.4792   -1.3084 C   0  0  0  0  0  0  0  0  0  0  0  0
   -0.2835    0.1984   -2.2694 H   0  0  0  0  0  0  0  0  0  0  0  0
   -0.5132    1.2111   -0.8497 H   0  0  0  0  0  0  0  0  0  0  0  0
    1.5112    1.1639   -1.6404 C   0  0  0  0  0  0  0  0  0  0  0  0
    1.3614    1.7045   -2.5813 H   0  0  0  0  0  0  0  0  0  0  0  0
    1.8921    2.2168   -0.5910 C   0  0  0  0  0  0  0  0  0  0  0  0
    2.1122    1.7549    0.3745 H   0  0  0  0  0  0  0  0  0  0  0  0
    2.7822    2.7650   -0.9149 H   0  0  0  0  0  0  0  0  0  0  0  0
    1.0791    2.9364   -0.4548 H   0  0  0  0  0  0  0  0  0  0  0  0
    2.6739    0.1874   -1.8635 C   0  0  0  0  0  0  0  0  0  0  0  0
    2.3944   -0.5791   -2.5928 H   0  0  0  0  0  0  0  0  0  0  0  0
    3.5467    0.7241   -2.2483 H   0  0  0  0  0  0  0  0  0  0  0  0
    2.9648   -0.3036   -0.9302 H   0  0  0  0  0  0  0  0  0  0  0  0
    0.5797   -0.4778    1.0331 C   0  0  0  0  0  0  0  0  0  0  0  0
    1.7303   -0.6265    1.4231 O   0  0  0  0  0  0  0  0  0  0  0  0
   -0.3497    0.1009    1.8793 N   0  0  0  0  0  0  0  0  0  0  0  0
   -1.3130    0.0893    1.5626 H   0  0  0  0  0  0  0  0  0  0  0  0
   -0.0755    0.3737    3.2840 C   0  0  0  0  0  0  0  0  0  0  0  0
    0.7758    1.0555    3.3824 H   0  0  0  0  0  0  0  0  0  0  0  0
   -0.9458    0.8392    3.7561 H   0  0  0  0  0  0  0  0  0  0  0  0
    0.1537   -0.5558    3.8159 H   0  0  0  0  0  0  0  0  0  0  0  0
  1  2  1  0  0  0  0
  2  3  1  0  0  0  0
  2  4  1  0  0  0  0
  2  5  1  0  0  0  0
  5  6  2  0  0  0  0
  5  7  1  0  0  0  0
  7  8  1  0  0  0  0
  7  9  1  0  0  0  0
  9 10  1  0  0  0  0
  9 11  1  0  0  0  0
  9 24  1  0  0  0  0
 11 12  1  0  0  0  0
 11 13  1  0  0  0  0
 11 14  1  0  0  0  0
 14 15  1  0  0  0  0
 14 16  1  0  0  0  0
 14 20  1  0  0  0  0
 16 17  1  0  0  0  0
 16 18  1  0  0  0  0
 16 19  1  0  0  0  0
 20 21  1  0  0  0  0
 20 22  1  0  0  0  0
 20 23  1  0  0  0  0
 24 25  2  0  0  0  0
 24 26  1  0  0  0  0
 26 27  1  0  0  0  0
 26 28  1  0  0  0  0
 28 29  1  0  0  0  0
 28 30  1  0  0  0  0
 28 31  1  0  0  0  0
M  END
$$$$

  -OEChem-04042216013D

 31 30  0     1  0  0  0  0  0999 V2000
   -2.9238   -4.2120    0.1954 H   0  0  0  0  0  0  0  0  0  0  0  0
   -2.8283   -3.2388   -0.2949 C   0  0  0  0  0  0  0  0  0  0  0  0
   -3.6219   -2.5824    0.0695 H   0  0  0  0  0  0  0  0  0  0  0  0
   -2.9430   -3.3769   -1.3726 H   0  0  0  0  0  0  0  0  0  0  0  0
   -1.4711   -2.6331    0.0109 C   0  0  0  0  0  0  0  0  0  0  0  0
   -0.7073   -3.2140    0.7594 O   0  0  0  0  0  0  0  0  0  0  0  0
   -1.1155   -1.4275   -0.5634 N   0  0  0  0  0  0  0  0  0  0  0  0
   -1.7624   -1.0402   -1.2433 H   0  0  0  0  0  0  0  0  0  0  0  0
    0.2097   -0.7922   -0.4208 C   0  0  1  0  0  0  0  0  0  0  0  0
    0.9604   -1.4919   -0.8014 H   0  0  0  0  0  0  0  0  0  0  0  0
    0.1688    0.4692   -1.3197 C   0  0  0  0  0  0  0  0  0  0  0  0
   -0.2848    0.1805   -2.2738 H   0  0  0  0  0  0  0  0  0  0  0  0
   -0.4968    1.2075   -0.8606 H   0  0  0  0  0  0  0  0  0  0  0  0
    1.5086    1.1639   -1.6696 C   0  0  0  0  0  0  0  0  0  0  0  0
    1.2857    1.8759   -2.4716 H   0  0  0  0  0  0  0  0  0  0  0  0
    2.1005    1.9741   -0.5085 C   0  0  0  0  0  0  0  0  0  0  0  0
    2.5825    1.3285    0.2284 H   0  0  0  0  0  0  0  0  0  0  0  0
    2.8585    2.6663   -0.8880 H   0  0  0  0  0  0  0  0  0  0  0  0
    1.3228    2.5592   -0.0087 H   0  0  0  0  0  0  0  0  0  0  0  0
    2.5585    0.1790   -2.1997 C   0  0  0  0  0  0  0  0  0  0  0  0
    2.1420   -0.4242   -3.0122 H   0  0  0  0  0  0  0  0  0  0  0  0
    3.4246    0.7251   -2.5860 H   0  0  0  0  0  0  0  0  0  0  0  0
    2.9065   -0.4910   -1.4070 H   0  0  0  0  0  0  0  0  0  0  0  0
    0.5832   -0.4747    1.0459 C   0  0  0  0  0  0  0  0  0  0  0  0
    1.7163   -0.6838    1.4588 O   0  0  0  0  0  0  0  0  0  0  0  0
   -0.3481    0.1084    1.8870 N   0  0  0  0  0  0  0  0  0  0  0  0
   -1.3058    0.1204    1.5539 H   0  0  0  0  0  0  0  0  0  0  0  0
   -0.0962    0.3311    3.3047 C   0  0  0  0  0  0  0  0  0  0  0  0
    0.7747    0.9809    3.4412 H   0  0  0  0  0  0  0  0  0  0  0  0
   -0.9608    0.8117    3.7721 H   0  0  0  0  0  0  0  0  0  0  0  0
    0.0910   -0.6207    3.8132 H   0  0  0  0  0  0  0  0  0  0  0  0
  1  2  1  0  0  0  0
  2  3  1  0  0  0  0
  2  4  1  0  0  0  0
  2  5  1  0  0  0  0
  5  6  2  0  0  0  0
  5  7  1  0  0  0  0
  7  8  1  0  0  0  0
  7  9  1  0  0  0  0
  9 10  1  0  0  0  0
  9 11  1  0  0  0  0
  9 24  1  0  0  0  0
 11 12  1  0  0  0  0
 11 13  1  0  0  0  0
 11 14  1  0  0  0  0
 14 15  1  0  0  0  0
 14 16  1  0  0  0  0
 14 20  1  0  0  0  0
 16 17  1  0  0  0  0
 16 18  1  0  0  0  0
 16 19  1  0  0  0  0
 20 21  1  0  0  0  0
 20 22  1  0  0  0  0
 20 23  1  0  0  0  0
 24 25  2  0  0  0  0
 24 26  1  0  0  0  0
 26 27  1  0  0  0  0
 26 28  1  0  0  0  0
 28 29  1  0  0  0  0
 28 30  1  0  0  0  0
 28 31  1  0  0  0  0
M  END
$$$$

  -OEChem-04042216013D

 31 30  0     1  0  0  0  0  0999 V2000
   -2.9279   -4.1883    0.2225 H   0  0  0  0  0  0  0  0  0  0  0  0
   -2.8234   -3.2170   -0.2697 C   0  0  0  0  0  0  0  0  0  0  0  0
   -3.6030   -2.5482    0.1028 H   0  0  0  0  0  0  0  0  0  0  0  0
   -2.9518   -3.3542   -1.3462 H   0  0  0  0  0  0  0  0  0  0  0  0
   -1.4544   -2.6307    0.0201 C   0  0  0  0  0  0  0  0  0  0  0  0
   -0.6872   -3.2266    0.7529 O   0  0  0  0  0  0  0  0  0  0  0  0
   -1.0916   -1.4290   -0.5578 N   0  0  0  0  0  0  0  0  0  0  0  0
   -1.7475   -1.0278   -1.2206 H   0  0  0  0  0  0  0  0  0  0  0  0
    0.2357   -0.7965   -0.4184 C   0  0  1  0  0  0  0  0  0  0  0  0
    0.9952   -1.4879   -0.7972 H   0  0  0  0  0  0  0  0  0  0  0  0
    0.1795    0.4623   -1.3220 C   0  0  0  0  0  0  0  0  0  0  0  0
   -0.3018    0.1839   -2.2656 H   0  0  0  0  0  0  0  0  0  0  0  0
   -0.4703    1.1994   -0.8386 H   0  0  0  0  0  0  0  0  0  0  0  0
    1.5064    1.1697   -1.6931 C   0  0  0  0  0  0  0  0  0  0  0  0
    1.2360    2.0368   -2.3056 H   0  0  0  0  0  0  0  0  0  0  0  0
    2.3122    1.6928   -0.4989 C   0  0  0  0  0  0  0  0  0  0  0  0
    2.8671    0.8884   -0.0105 H   0  0  0  0  0  0  0  0  0  0  0  0
    3.0398    2.4359   -0.8389 H   0  0  0  0  0  0  0  0  0  0  0  0
    1.6537    2.1689    0.2341 H   0  0  0  0  0  0  0  0  0  0  0  0
    2.4000    0.2558   -2.5418 C   0  0  0  0  0  0  0  0  0  0  0  0
    1.8509   -0.1189   -3.4110 H   0  0  0  0  0  0  0  0  0  0  0  0
    3.2725    0.8105   -2.9009 H   0  0  0  0  0  0  0  0  0  0  0  0
    2.7555   -0.5993   -1.9586 H   0  0  0  0  0  0  0  0  0  0  0  0
    0.5873   -0.4828    1.0570 C   0  0  0  0  0  0  0  0  0  0  0  0
    1.7020   -0.7224    1.5015 O   0  0  0  0  0  0  0  0  0  0  0  0
   -0.3564    0.1000    1.8850 N   0  0  0  0  0  0  0  0  0  0  0  0
   -1.3043    0.1393    1.5270 H   0  0  0  0  0  0  0  0  0  0  0  0
   -0.1373    0.2968    3.3122 C   0  0  0  0  0  0  0  0  0  0  0  0
    0.7313    0.9419    3.4809 H   0  0  0  0  0  0  0  0  0  0  0  0
   -1.0118    0.7705    3.7680 H   0  0  0  0  0  0  0  0  0  0  0  0
    0.0359   -0.6643    3.8081 H   0  0  0  0  0  0  0  0  0  0  0  0
  1  2  1  0  0  0  0
  2  3  1  0  0  0  0
  2  4  1  0  0  0  0
  2  5  1  0  0  0  0
  5  6  2  0  0  0  0
  5  7  1  0  0  0  0
  7  8  1  0  0  0  0
  7  9  1  0  0  0  0
  9 10  1  0  0  0  0
  9 11  1  0  0  0  0
  9 24  1  0  0  0  0
 11 12  1  0  0  0  0
 11 13  1  0  0  0  0
 11 14  1  0  0  0  0
 14 15  1  0  0  0  0
 14 16  1  0  0  0  0
 14 20  1  0  0  0  0
 16 17  1  0  0  0  0
 16 18  1  0  0  0  0
 16 19  1  0  0  0  0
 20 21  1  0  0  0  0
 20 22  1  0  0  0  0
 20 23  1  0  0  0  0
 24 25  2  0  0  0  0
 24 26  1  0  0  0  0
 26 27  1  0  0  0  0
 26 28  1  0  0  0  0
 28 29  1  0  0  0  0
 28 30  1  0  0  0  0
 28 31  1  0  0  0  0
M  END
$$$$

  -OEChem-04042216013D

 31 30  0     1  0  0  0  0  0999 V2000
   -2.9236   -4.1766    0.2437 H   0  0  0  0  0  0  0  0  0  0  0  0
   -2.8152   -3.2098   -0.2565 C   0  0  0  0  0  0  0  0  0  0  0  0
   -3.5919   -2.5352    0.1113 H   0  0  0  0  0  0  0  0  0  0  0  0
   -2.9454   -3.3546   -1.3317 H   0  0  0  0  0  0  0  0  0  0  0  0
   -1.4433   -2.6272    0.0274 C   0  0  0  0  0  0  0  0  0  0  0  0
   -0.6751   -3.2256    0.7572 O   0  0  0  0  0  0  0  0  0  0  0  0
   -1.0791   -1.4266   -0.5529 N   0  0  0  0  0  0  0  0  0  0  0  0
   -1.7327   -1.0303   -1.2209 H   0  0  0  0  0  0  0  0  0  0  0  0
    0.2507   -0.7960   -0.4201 C   0  0  1  0  0  0  0  0  0  0  0  0
    1.0152   -1.4792   -0.8049 H   0  0  0  0  0  0  0  0  0  0  0  0
    0.1825    0.4671   -1.3185 C   0  0  0  0  0  0  0  0  0  0  0  0
   -0.3304    0.2055   -2.2503 H   0  0  0  0  0  0  0  0  0  0  0  0
   -0.4492    1.2007   -0.8066 H   0  0  0  0  0  0  0  0  0  0  0  0
    1.5017    1.1848   -1.7065 C   0  0  0  0  0  0  0  0  0  0  0  0
    1.2293    2.1703   -2.0995 H   0  0  0  0  0  0  0  0  0  0  0  0
    2.5067    1.4019   -0.5715 C   0  0  0  0  0  0  0  0  0  0  0  0
    2.9881    0.4627   -0.2856 H   0  0  0  0  0  0  0  0  0  0  0  0
    3.2915    2.0925   -0.8949 H   0  0  0  0  0  0  0  0  0  0  0  0
    2.0136    1.8362    0.3035 H   0  0  0  0  0  0  0  0  0  0  0  0
    2.2042    0.4047   -2.8264 C   0  0  0  0  0  0  0  0  0  0  0  0
    1.5452    0.2978   -3.6935 H   0  0  0  0  0  0  0  0  0  0  0  0
    3.1071    0.9325   -3.1490 H   0  0  0  0  0  0  0  0  0  0  0  0
    2.4927   -0.5940   -2.4835 H   0  0  0  0  0  0  0  0  0  0  0  0
    0.5910   -0.4889    1.0614 C   0  0  0  0  0  0  0  0  0  0  0  0
    1.6974   -0.7374    1.5219 O   0  0  0  0  0  0  0  0  0  0  0  0
   -0.3614    0.0907    1.8818 N   0  0  0  0  0  0  0  0  0  0  0  0
   -1.3044    0.1326    1.5117 H   0  0  0  0  0  0  0  0  0  0  0  0
   -0.1624    0.2704    3.3143 C   0  0  0  0  0  0  0  0  0  0  0  0
    0.7096    0.9052    3.5031 H   0  0  0  0  0  0  0  0  0  0  0  0
   -1.0393    0.7477    3.7616 H   0  0  0  0  0  0  0  0  0  0  0  0
   -0.0062   -0.6976    3.8022 H   0  0  0  0  0  0  0  0  0  0  0  0
  1  2  1  0  0  0  0
  2  3  1  0  0  0  0
  2  4  1  0  0  0  0
  2  5  1  0  0  0  0
  5  6  2  0  0  0  0
  5  7  1  0  0  0  0
  7  8  1  0  0  0  0
  7  9  1  0  0  0  0
  9 10  1  0  0  0  0
  9 11  1  0  0  0  0
  9 24  1  0  0  0  0
 11 12  1  0  0  0  0
 11 13  1  0  0  0  0
 11 14  1  0  0  0  0
 14 15  1  0  0  0  0
 14 16  1  0  0  0  0
 14 20  1  0  0  0  0
 16 17  1  0  0  0  0
 16 18  1  0  0  0  0
 16 19  1  0  0  0  0
 20 21  1  0  0  0  0
 20 22  1  0  0  0  0
 20 23  1  0  0  0  0
 24 25  2  0  0  0  0
 24 26  1  0  0  0  0
 26 27  1  0  0  0  0
 26 28  1  0  0  0  0
 28 29  1  0  0  0  0
 28 30  1  0  0  0  0
 28 31  1  0  0  0  0
M  END
$$$$

  -OEChem-04042216013D

 31 30  0     1  0  0  0  0  0999 V2000
   -2.9221   -4.1756    0.2435 H   0  0  0  0  0  0  0  0  0  0  0  0
   -2.8125   -3.2100   -0.2589 C   0  0  0  0  0  0  0  0  0  0  0  0
   -3.5888   -2.5337    0.1066 H   0  0  0  0  0  0  0  0  0  0  0  0
   -2.9416   -3.3574   -1.3338 H   0  0  0  0  0  0  0  0  0  0  0  0
   -1.4405   -2.6279    0.0250 C   0  0  0  0  0  0  0  0  0  0  0  0
   -0.6716   -3.2278    0.7528 O   0  0  0  0  0  0  0  0  0  0  0  0
   -1.0772   -1.4268   -0.5548 N   0  0  0  0  0  0  0  0  0  0  0  0
   -1.7319   -1.0305   -1.2219 H   0  0  0  0  0  0  0  0  0  0  0  0
    0.2527   -0.7961   -0.4237 C   0  0  1  0  0  0  0  0  0  0  0  0
    1.0176   -1.4758   -0.8146 H   0  0  0  0  0  0  0  0  0  0  0  0
    0.1815    0.4708   -1.3168 C   0  0  0  0  0  0  0  0  0  0  0  0
   -0.3508    0.2191   -2.2404 H   0  0  0  0  0  0  0  0  0  0  0  0
   -0.4409    1.2015   -0.7895 H   0  0  0  0  0  0  0  0  0  0  0  0
    1.4995    1.1956   -1.7101 C   0  0  0  0  0  0  0  0  0  0  0  0
    1.2646    2.2546   -1.8622 H   0  0  0  0  0  0  0  0  0  0  0  0
    2.6551    1.1099   -0.7078 C   0  0  0  0  0  0  0  0  0  0  0  0
    2.9910    0.0766   -0.5785 H   0  0  0  0  0  0  0  0  0  0  0  0
    3.5068    1.6982   -1.0631 H   0  0  0  0  0  0  0  0  0  0  0  0
    2.3522    1.5171    0.2613 H   0  0  0  0  0  0  0  0  0  0  0  0
    2.0038    0.6255   -3.0439 C   0  0  0  0  0  0  0  0  0  0  0  0
    1.2563    0.7661   -3.8309 H   0  0  0  0  0  0  0  0  0  0  0  0
    2.9216    1.1340   -3.3561 H   0  0  0  0  0  0  0  0  0  0  0  0
    2.2151   -0.4448   -2.9505 H   0  0  0  0  0  0  0  0  0  0  0  0
    0.5922   -0.4916    1.0596 C   0  0  0  0  0  0  0  0  0  0  0  0
    1.6960   -0.7468    1.5231 O   0  0  0  0  0  0  0  0  0  0  0  0
   -0.3609    0.0863    1.8804 N   0  0  0  0  0  0  0  0  0  0  0  0
   -1.3031    0.1317    1.5085 H   0  0  0  0  0  0  0  0  0  0  0  0
   -0.1649    0.2589    3.3142 C   0  0  0  0  0  0  0  0  0  0  0  0
    0.7107    0.8871    3.5088 H   0  0  0  0  0  0  0  0  0  0  0  0
   -1.0398    0.7405    3.7607 H   0  0  0  0  0  0  0  0  0  0  0  0
   -0.0164   -0.7120    3.7986 H   0  0  0  0  0  0  0  0  0  0  0  0
  1  2  1  0  0  0  0
  2  3  1  0  0  0  0
  2  4  1  0  0  0  0
  2  5  1  0  0  0  0
  5  6  2  0  0  0  0
  5  7  1  0  0  0  0
  7  8  1  0  0  0  0
  7  9  1  0  0  0  0
  9 10  1  0  0  0  0
  9 11  1  0  0  0  0
  9 24  1  0  0  0  0
 11 12  1  0  0  0  0
 11 13  1  0  0  0  0
 11 14  1  0  0  0  0
 14 15  1  0  0  0  0
 14 16  1  0  0  0  0
 14 20  1  0  0  0  0
 16 17  1  0  0  0  0
 16 18  1  0  0  0  0
 16 19  1  0  0  0  0
 20 21  1  0  0  0  0
 20 22  1  0  0  0  0
 20 23  1  0  0  0  0
 24 25  2  0  0  0  0
 24 26  1  0  0  0  0
 26 27  1  0  0  0  0
 26 28  1  0  0  0  0
 28 29  1  0  0  0  0
 28 30  1  0  0  0  0
 28 31  1  0  0  0  0
M  END
$$$$

  -OEChem-04042216013D

 31 30  0     1  0  0  0  0  0999 V2000
   -2.9352   -4.1788    0.2362 H   0  0  0  0  0  0  0  0  0  0  0  0
   -2.8222   -3.2142   -0.2673 C   0  0  0  0  0  0  0  0  0  0  0  0
   -3.5989   -2.5362    0.0943 H   0  0  0  0  0  0  0  0  0  0  0  0
   -2.9476   -3.3634   -1.3424 H   0  0  0  0  0  0  0  0  0  0  0  0
   -1.4505   -2.6330    0.0205 C   0  0  0  0  0  0  0  0  0  0  0  0
   -0.6844   -3.2322    0.7517 O   0  0  0  0  0  0  0  0  0  0  0  0
   -1.0844   -1.4328   -0.5589 N   0  0  0  0  0  0  0  0  0  0  0  0
   -1.7363   -1.0362   -1.2283 H   0  0  0  0  0  0  0  0  0  0  0  0
    0.2459   -0.8039   -0.4250 C   0  0  1  0  0  0  0  0  0  0  0  0
    1.0049   -1.4899   -0.8163 H   0  0  0  0  0  0  0  0  0  0  0  0
    0.1823    0.4644   -1.3151 C   0  0  0  0  0  0  0  0  0  0  0  0
   -0.3502    0.2065   -2.2368 H   0  0  0  0  0  0  0  0  0  0  0  0
   -0.4442    1.1951   -0.7928 H   0  0  0  0  0  0  0  0  0  0  0  0
    1.5030    1.1929   -1.7066 C   0  0  0  0  0  0  0  0  0  0  0  0
    1.3374    2.2699   -1.5932 H   0  0  0  0  0  0  0  0  0  0  0  0
    2.7613    0.8305   -0.9069 C   0  0  0  0  0  0  0  0  0  0  0  0
    2.9536   -0.2463   -0.9278 H   0  0  0  0  0  0  0  0  0  0  0  0
    3.6364    1.3379   -1.3247 H   0  0  0  0  0  0  0  0  0  0  0  0
    2.6600    1.1612    0.1299 H   0  0  0  0  0  0  0  0  0  0  0  0
    1.8061    0.9195   -3.1879 C   0  0  0  0  0  0  0  0  0  0  0  0
    0.9792    1.2596   -3.8193 H   0  0  0  0  0  0  0  0  0  0  0  0
    2.7094    1.4527   -3.5012 H   0  0  0  0  0  0  0  0  0  0  0  0
    1.9587   -0.1514   -3.3573 H   0  0  0  0  0  0  0  0  0  0  0  0
    0.5928   -0.4948    1.0548 C   0  0  0  0  0  0  0  0  0  0  0  0
    1.6988   -0.7505    1.5123 O   0  0  0  0  0  0  0  0  0  0  0  0
   -0.3553    0.0880    1.8782 N   0  0  0  0  0  0  0  0  0  0  0  0
   -1.2994    0.1329    1.5111 H   0  0  0  0  0  0  0  0  0  0  0  0
   -0.1519    0.2666    3.3103 C   0  0  0  0  0  0  0  0  0  0  0  0
    0.7268    0.8927    3.4980 H   0  0  0  0  0  0  0  0  0  0  0  0
   -1.0232    0.7535    3.7583 H   0  0  0  0  0  0  0  0  0  0  0  0
   -0.0048   -0.7026    3.7986 H   0  0  0  0  0  0  0  0  0  0  0  0
  1  2  1  0  0  0  0
  2  3  1  0  0  0  0
  2  4  1  0  0  0  0
  2  5  1  0  0  0  0
  5  6  2  0  0  0  0
  5  7  1  0  0  0  0
  7  8  1  0  0  0  0
  7  9  1  0  0  0  0
  9 10  1  0  0  0  0
  9 11  1  0  0  0  0
  9 24  1  0  0  0  0
 11 12  1  0  0  0  0
 11 13  1  0  0  0  0
 11 14  1  0  0  0  0
 14 15  1  0  0  0  0
 14 16  1  0  0  0  0
 14 20  1  0  0  0  0
 16 17  1  0  0  0  0
 16 18  1  0  0  0  0
 16 19  1  0  0  0  0
 20 21  1  0  0  0  0
 20 22  1  0  0  0  0
 20 23  1  0  0  0  0
 24 25  2  0  0  0  0
 24 26  1  0  0  0  0
 26 27  1  0  0  0  0
 26 28  1  0  0  0  0
 28 29  1  0  0  0  0
 28 30  1  0  0  0  0
 28 31  1  0  0  0  0
M  END
$$$$

  -OEChem-04042216013D

 31 30  0     1  0  0  0  0  0999 V2000
   -2.9463   -4.1845    0.2401 H   0  0  0  0  0  0  0  0  0  0  0  0
   -2.8354   -3.2183   -0.2608 C   0  0  0  0  0  0  0  0  0  0  0  0
   -3.6122   -2.5420    0.1043 H   0  0  0  0  0  0  0  0  0  0  0  0
   -2.9624   -3.3648   -1.3361 H   0  0  0  0  0  0  0  0  0  0  0  0
   -1.4635   -2.6369    0.0260 C   0  0  0  0  0  0  0  0  0  0  0  0
   -0.7018   -3.2301    0.7669 O   0  0  0  0  0  0  0  0  0  0  0  0
   -1.0922   -1.4423   -0.5621 N   0  0  0  0  0  0  0  0  0  0  0  0
   -1.7421   -1.0470   -1.2346 H   0  0  0  0  0  0  0  0  0  0  0  0
    0.2406   -0.8179   -0.4298 C   0  0  1  0  0  0  0  0  0  0  0  0
    0.9916   -1.5144   -0.8159 H   0  0  0  0  0  0  0  0  0  0  0  0
    0.1869    0.4522   -1.3166 C   0  0  0  0  0  0  0  0  0  0  0  0
   -0.3245    0.1730   -2.2441 H   0  0  0  0  0  0  0  0  0  0  0  0
   -0.4554    1.1860   -0.8183 H   0  0  0  0  0  0  0  0  0  0  0  0
    1.5125    1.1756   -1.7063 C   0  0  0  0  0  0  0  0  0  0  0  0
    1.4549    2.1964   -1.3130 H   0  0  0  0  0  0  0  0  0  0  0  0
    2.8214    0.5714   -1.1768 C   0  0  0  0  0  0  0  0  0  0  0  0
    2.8925   -0.4948   -1.4094 H   0  0  0  0  0  0  0  0  0  0  0  0
    3.6817    1.0735   -1.6302 H   0  0  0  0  0  0  0  0  0  0  0  0
    2.9017    0.7142   -0.0978 H   0  0  0  0  0  0  0  0  0  0  0  0
    1.6134    1.2754   -3.2359 C   0  0  0  0  0  0  0  0  0  0  0  0
    0.7318    1.7777   -3.6462 H   0  0  0  0  0  0  0  0  0  0  0  0
    2.4966    1.8531   -3.5265 H   0  0  0  0  0  0  0  0  0  0  0  0
    1.6889    0.2785   -3.6823 H   0  0  0  0  0  0  0  0  0  0  0  0
    0.5938   -0.4961    1.0449 C   0  0  0  0  0  0  0  0  0  0  0  0
    1.7014   -0.7467    1.5005 O   0  0  0  0  0  0  0  0  0  0  0  0
   -0.3489    0.0991    1.8654 N   0  0  0  0  0  0  0  0  0  0  0  0
   -1.2951    0.1392    1.5032 H   0  0  0  0  0  0  0  0  0  0  0  0
   -0.1388    0.2903    3.2947 C   0  0  0  0  0  0  0  0  0  0  0  0
    0.7372    0.9230    3.4719 H   0  0  0  0  0  0  0  0  0  0  0  0
   -1.0106    0.7752    3.7439 H   0  0  0  0  0  0  0  0  0  0  0  0
    0.0171   -0.6738    3.7901 H   0  0  0  0  0  0  0  0  0  0  0  0
  1  2  1  0  0  0  0
  2  3  1  0  0  0  0
  2  4  1  0  0  0  0
  2  5  1  0  0  0  0
  5  6  2  0  0  0  0
  5  7  1  0  0  0  0
  7  8  1  0  0  0  0
  7  9  1  0  0  0  0
  9 10  1  0  0  0  0
  9 11  1  0  0  0  0
  9 24  1  0  0  0  0
 11 12  1  0  0  0  0
 11 13  1  0  0  0  0
 11 14  1  0  0  0  0
 14 15  1  0  0  0  0
 14 16  1  0  0  0  0
 14 20  1  0  0  0  0
 16 17  1  0  0  0  0
 16 18  1  0  0  0  0
 16 19  1  0  0  0  0
 20 21  1  0  0  0  0
 20 22  1  0  0  0  0
 20 23  1  0  0  0  0
 24 25  2  0  0  0  0
 24 26  1  0  0  0  0
 26 27  1  0  0  0  0
 26 28  1  0  0  0  0
 28 29  1  0  0  0  0
 28 30  1  0  0  0  0
 28 31  1  0  0  0  0
M  END
$$$$

  -OEChem-04042216013D

 31 30  0     1  0  0  0  0  0999 V2000
   -2.9427   -4.1955    0.2568 H   0  0  0  0  0  0  0  0  0  0  0  0
   -2.8352   -3.2340   -0.2536 C   0  0  0  0  0  0  0  0  0  0  0  0
   -3.6137   -2.5567    0.1055 H   0  0  0  0  0  0  0  0  0  0  0  0
   -2.9628   -3.3913   -1.3272 H   0  0  0  0  0  0  0  0  0  0  0  0
   -1.4649   -2.6458    0.0266 C   0  0  0  0  0  0  0  0  0  0  0  0
   -0.6996   -3.2302    0.7708 O   0  0  0  0  0  0  0  0  0  0  0  0
   -1.0986   -1.4546   -0.5709 N   0  0  0  0  0  0  0  0  0  0  0  0
   -1.7501   -1.0667   -1.2461 H   0  0  0  0  0  0  0  0  0  0  0  0
    0.2345   -0.8298   -0.4496 C   0  0  1  0  0  0  0  0  0  0  0  0
    0.9843   -1.5250   -0.8401 H   0  0  0  0  0  0  0  0  0  0  0  0
    0.1789    0.4522   -1.3159 C   0  0  0  0  0  0  0  0  0  0  0  0
   -0.3175    0.1727   -2.2514 H   0  0  0  0  0  0  0  0  0  0  0  0
   -0.4684    1.1858   -0.8238 H   0  0  0  0  0  0  0  0  0  0  0  0
    1.5115    1.1593   -1.6975 C   0  0  0  0  0  0  0  0  0  0  0  0
    1.6018    2.0399   -1.0518 H   0  0  0  0  0  0  0  0  0  0  0  0
    2.8010    0.3481   -1.4980 C   0  0  0  0  0  0  0  0  0  0  0  0
    2.7407   -0.6130   -2.0175 H   0  0  0  0  0  0  0  0  0  0  0  0
    3.6578    0.8983   -1.8991 H   0  0  0  0  0  0  0  0  0  0  0  0
    3.0013    0.1706   -0.4416 H   0  0  0  0  0  0  0  0  0  0  0  0
    1.4445    1.6502   -3.1500 C   0  0  0  0  0  0  0  0  0  0  0  0
    0.5585    2.2747   -3.3016 H   0  0  0  0  0  0  0  0  0  0  0  0
    2.3284    2.2485   -3.3929 H   0  0  0  0  0  0  0  0  0  0  0  0
    1.3987    0.8030   -3.8421 H   0  0  0  0  0  0  0  0  0  0  0  0
    0.5966   -0.4991    1.0218 C   0  0  0  0  0  0  0  0  0  0  0  0
    1.7198   -0.7004    1.4624 O   0  0  0  0  0  0  0  0  0  0  0  0
   -0.3433    0.1005    1.8423 N   0  0  0  0  0  0  0  0  0  0  0  0
   -1.2953    0.1180    1.4936 H   0  0  0  0  0  0  0  0  0  0  0  0
   -0.1127    0.3439    3.2606 C   0  0  0  0  0  0  0  0  0  0  0  0
    0.7583    0.9925    3.4017 H   0  0  0  0  0  0  0  0  0  0  0  0
   -0.9828    0.8347    3.7065 H   0  0  0  0  0  0  0  0  0  0  0  0
    0.0624   -0.6005    3.7868 H   0  0  0  0  0  0  0  0  0  0  0  0
  1  2  1  0  0  0  0
  2  3  1  0  0  0  0
  2  4  1  0  0  0  0
  2  5  1  0  0  0  0
  5  6  2  0  0  0  0
  5  7  1  0  0  0  0
  7  8  1  0  0  0  0
  7  9  1  0  0  0  0
  9 10  1  0  0  0  0
  9 11  1  0  0  0  0
  9 24  1  0  0  0  0
 11 12  1  0  0  0  0
 11 13  1  0  0  0  0
 11 14  1  0  0  0  0
 14 15  1  0  0  0  0
 14 16  1  0  0  0  0
 14 20  1  0  0  0  0
 16 17  1  0  0  0  0
 16 18  1  0  0  0  0
 16 19  1  0  0  0  0
 20 21  1  0  0  0  0
 20 22  1  0  0  0  0
 20 23  1  0  0  0  0
 24 25  2  0  0  0  0
 24 26  1  0  0  0  0
 26 27  1  0  0  0  0
 26 28  1  0  0  0  0
 28 29  1  0  0  0  0
 28 30  1  0  0  0  0
 28 31  1  0  0  0  0
M  END
$$$$

  -OEChem-04042216013D

 31 30  0     1  0  0  0  0  0999 V2000
   -2.9078   -4.2402    0.2359 H   0  0  0  0  0  0  0  0  0  0  0  0
   -2.8240   -3.2737   -0.2697 C   0  0  0  0  0  0  0  0  0  0  0  0
   -3.6111   -2.6131    0.1016 H   0  0  0  0  0  0  0  0  0  0  0  0
   -2.9598   -3.4266   -1.3430 H   0  0  0  0  0  0  0  0  0  0  0  0
   -1.4629   -2.6606    0.0004 C   0  0  0  0  0  0  0  0  0  0  0  0
   -0.6792   -3.2300    0.7375 O   0  0  0  0  0  0  0  0  0  0  0  0
   -1.1271   -1.4574   -0.5899 N   0  0  0  0  0  0  0  0  0  0  0  0
   -1.7898   -1.0786   -1.2595 H   0  0  0  0  0  0  0  0  0  0  0  0
    0.1960   -0.8129   -0.4768 C   0  0  1  0  0  0  0  0  0  0  0  0
    0.9417   -1.5053   -0.8798 H   0  0  0  0  0  0  0  0  0  0  0  0
    0.1413    0.4769   -1.3266 C   0  0  0  0  0  0  0  0  0  0  0  0
   -0.3403    0.2119   -2.2738 H   0  0  0  0  0  0  0  0  0  0  0  0
   -0.5033    1.2116   -0.8324 H   0  0  0  0  0  0  0  0  0  0  0  0
    1.4915    1.1569   -1.6741 C   0  0  0  0  0  0  0  0  0  0  0  0
    1.7277    1.8463   -0.8558 H   0  0  0  0  0  0  0  0  0  0  0  0
    2.6934    0.2075   -1.8035 C   0  0  0  0  0  0  0  0  0  0  0  0
    2.4835   -0.5785   -2.5356 H   0  0  0  0  0  0  0  0  0  0  0  0
    3.5772    0.7609   -2.1360 H   0  0  0  0  0  0  0  0  0  0  0  0
    2.9414   -0.2593   -0.8483 H   0  0  0  0  0  0  0  0  0  0  0  0
    1.3419    1.9805   -2.9588 C   0  0  0  0  0  0  0  0  0  0  0  0
    0.5148    2.6907   -2.8623 H   0  0  0  0  0  0  0  0  0  0  0  0
    2.2573    2.5466   -3.1576 H   0  0  0  0  0  0  0  0  0  0  0  0
    1.1453    1.3288   -3.8161 H   0  0  0  0  0  0  0  0  0  0  0  0
    0.5929   -0.4821    0.9843 C   0  0  0  0  0  0  0  0  0  0  0  0
    1.7526   -0.5838    1.3609 O   0  0  0  0  0  0  0  0  0  0  0  0
   -0.3343    0.0998    1.8315 N   0  0  0  0  0  0  0  0  0  0  0  0
   -1.3014    0.0624    1.5284 H   0  0  0  0  0  0  0  0  0  0  0  0
   -0.0487    0.4019    3.2285 C   0  0  0  0  0  0  0  0  0  0  0  0
    0.7926    1.0987    3.3062 H   0  0  0  0  0  0  0  0  0  0  0  0
   -0.9210    0.8623    3.7019 H   0  0  0  0  0  0  0  0  0  0  0  0
    0.2007   -0.5143    3.7742 H   0  0  0  0  0  0  0  0  0  0  0  0
  1  2  1  0  0  0  0
  2  3  1  0  0  0  0
  2  4  1  0  0  0  0
  2  5  1  0  0  0  0
  5  6  2  0  0  0  0
  5  7  1  0  0  0  0
  7  8  1  0  0  0  0
  7  9  1  0  0  0  0
  9 10  1  0  0  0  0
  9 11  1  0  0  0  0
  9 24  1  0  0  0  0
 11 12  1  0  0  0  0
 11 13  1  0  0  0  0
 11 14  1  0  0  0  0
 14 15  1  0  0  0  0
 14 16  1  0  0  0  0
 14 20  1  0  0  0  0
 16 17  1  0  0  0  0
 16 18  1  0  0  0  0
 16 19  1  0  0  0  0
 20 21  1  0  0  0  0
 20 22  1  0  0  0  0
 20 23  1  0  0  0  0
 24 25  2  0  0  0  0
 24 26  1  0  0  0  0
 26 27  1  0  0  0  0
 26 28  1  0  0  0  0
 28 29  1  0  0  0  0
 28 30  1  0  0  0  0
 28 31  1  0  0  0  0
M  END
$$$$

  -OEChem-04042216013D

 31 30  0     1  0  0  0  0  0999 V2000
   -2.8703   -4.2801    0.1820 H   0  0  0  0  0  0  0  0  0  0  0  0
   -2.8098   -3.3061   -0.3120 C   0  0  0  0  0  0  0  0  0  0  0  0
   -3.6143   -2.6703    0.0649 H   0  0  0  0  0  0  0  0  0  0  0  0
   -2.9389   -3.4494   -1.3875 H   0  0  0  0  0  0  0  0  0  0  0  0
   -1.4653   -2.6622   -0.0308 C   0  0  0  0  0  0  0  0  0  0  0  0
   -0.6709   -3.2178    0.7056 O   0  0  0  0  0  0  0  0  0  0  0  0
   -1.1580   -1.4426   -0.6025 N   0  0  0  0  0  0  0  0  0  0  0  0
   -1.8252   -1.0733   -1.2732 H   0  0  0  0  0  0  0  0  0  0  0  0
    0.1540   -0.7781   -0.4873 C   0  0  1  0  0  0  0  0  0  0  0  0
    0.8962   -1.4678   -0.8995 H   0  0  0  0  0  0  0  0  0  0  0  0
    0.0995    0.5090   -1.3376 C   0  0  0  0  0  0  0  0  0  0  0  0
   -0.3698    0.2566   -2.2943 H   0  0  0  0  0  0  0  0  0  0  0  0
   -0.5442    1.2433   -0.8417 H   0  0  0  0  0  0  0  0  0  0  0  0
    1.4650    1.1675   -1.6479 C   0  0  0  0  0  0  0  0  0  0  0  0
    1.8225    1.6561   -0.7345 H   0  0  0  0  0  0  0  0  0  0  0  0
    2.5526    0.1781   -2.0933 C   0  0  0  0  0  0  0  0  0  0  0  0
    2.1929   -0.4439   -2.9188 H   0  0  0  0  0  0  0  0  0  0  0  0
    3.4429    0.7187   -2.4291 H   0  0  0  0  0  0  0  0  0  0  0  0
    2.8554   -0.4712   -1.2667 H   0  0  0  0  0  0  0  0  0  0  0  0
    1.2771    2.2440   -2.7230 C   0  0  0  0  0  0  0  0  0  0  0  0
    0.5220    2.9708   -2.4076 H   0  0  0  0  0  0  0  0  0  0  0  0
    2.2162    2.7795   -2.8940 H   0  0  0  0  0  0  0  0  0  0  0  0
    0.9565    1.7956   -3.6687 H   0  0  0  0  0  0  0  0  0  0  0  0
    0.5877   -0.4537    0.9614 C   0  0  0  0  0  0  0  0  0  0  0  0
    1.7700   -0.4987    1.2752 O   0  0  0  0  0  0  0  0  0  0  0  0
   -0.3198    0.1063    1.8431 N   0  0  0  0  0  0  0  0  0  0  0  0
   -1.2977    0.0302    1.5850 H   0  0  0  0  0  0  0  0  0  0  0  0
    0.0170    0.4281    3.2241 C   0  0  0  0  0  0  0  0  0  0  0  0
    0.8421    1.1471    3.2605 H   0  0  0  0  0  0  0  0  0  0  0  0
   -0.8461    0.8699    3.7309 H   0  0  0  0  0  0  0  0  0  0  0  0
    0.3137   -0.4763    3.7656 H   0  0  0  0  0  0  0  0  0  0  0  0
  1  2  1  0  0  0  0
  2  3  1  0  0  0  0
  2  4  1  0  0  0  0
  2  5  1  0  0  0  0
  5  6  2  0  0  0  0
  5  7  1  0  0  0  0
  7  8  1  0  0  0  0
  7  9  1  0  0  0  0
  9 10  1  0  0  0  0
  9 11  1  0  0  0  0
  9 24  1  0  0  0  0
 11 12  1  0  0  0  0
 11 13  1  0  0  0  0
 11 14  1  0  0  0  0
 14 15  1  0  0  0  0
 14 16  1  0  0  0  0
 14 20  1  0  0  0  0
 16 17  1  0  0  0  0
 16 18  1  0  0  0  0
 16 19  1  0  0  0  0
 20 21  1  0  0  0  0
 20 22  1  0  0  0  0
 20 23  1  0  0  0  0
 24 25  2  0  0  0  0
 24 26  1  0  0  0  0
 26 27  1  0  0  0  0
 26 28  1  0  0  0  0
 28 29  1  0  0  0  0
 28 30  1  0  0  0  0
 28 31  1  0  0  0  0
M  END
$$$$

  -OEChem-04042216013D

 31 30  0     1  0  0  0  0  0999 V2000
   -2.8446   -4.2856    0.1621 H   0  0  0  0  0  0  0  0  0  0  0  0
   -2.7923   -3.3086   -0.3270 C   0  0  0  0  0  0  0  0  0  0  0  0
   -3.6035   -2.6821    0.0515 H   0  0  0  0  0  0  0  0  0  0  0  0
   -2.9186   -3.4487   -1.4031 H   0  0  0  0  0  0  0  0  0  0  0  0
   -1.4538   -2.6540   -0.0414 C   0  0  0  0  0  0  0  0  0  0  0  0
   -0.6537   -3.2086    0.6895 O   0  0  0  0  0  0  0  0  0  0  0  0
   -1.1579   -1.4276   -0.6042 N   0  0  0  0  0  0  0  0  0  0  0  0
   -1.8316   -1.0569   -1.2673 H   0  0  0  0  0  0  0  0  0  0  0  0
    0.1490   -0.7536   -0.4884 C   0  0  1  0  0  0  0  0  0  0  0  0
    0.8978   -1.4340   -0.9038 H   0  0  0  0  0  0  0  0  0  0  0  0
    0.0854    0.5318   -1.3402 C   0  0  0  0  0  0  0  0  0  0  0  0
   -0.3883    0.2937   -2.2985 H   0  0  0  0  0  0  0  0  0  0  0  0
   -0.5533    1.2613   -0.8309 H   0  0  0  0  0  0  0  0  0  0  0  0
    1.4560    1.1808   -1.6362 C   0  0  0  0  0  0  0  0  0  0  0  0
    1.9357    1.4560   -0.6905 H   0  0  0  0  0  0  0  0  0  0  0  0
    2.4033    0.2474   -2.4041 C   0  0  0  0  0  0  0  0  0  0  0  0
    1.9122   -0.1555   -3.2952 H   0  0  0  0  0  0  0  0  0  0  0  0
    3.2998    0.7910   -2.7182 H   0  0  0  0  0  0  0  0  0  0  0  0
    2.7272   -0.5849   -1.7727 H   0  0  0  0  0  0  0  0  0  0  0  0
    1.2374    2.4618   -2.4503 C   0  0  0  0  0  0  0  0  0  0  0  0
    0.5852    3.1530   -1.9071 H   0  0  0  0  0  0  0  0  0  0  0  0
    2.1920    2.9657   -2.6320 H   0  0  0  0  0  0  0  0  0  0  0  0
    0.7763    2.2330   -3.4165 H   0  0  0  0  0  0  0  0  0  0  0  0
    0.5868   -0.4367    0.9601 C   0  0  0  0  0  0  0  0  0  0  0  0
    1.7714   -0.4814    1.2659 O   0  0  0  0  0  0  0  0  0  0  0  0
   -0.3193    0.1095    1.8517 N   0  0  0  0  0  0  0  0  0  0  0  0
   -1.2982    0.0320    1.5974 H   0  0  0  0  0  0  0  0  0  0  0  0
    0.0233    0.4179    3.2342 C   0  0  0  0  0  0  0  0  0  0  0  0
    0.8438    1.1423    3.2740 H   0  0  0  0  0  0  0  0  0  0  0  0
   -0.8402    0.8474    3.7509 H   0  0  0  0  0  0  0  0  0  0  0  0
    0.3289   -0.4909    3.7633 H   0  0  0  0  0  0  0  0  0  0  0  0
  1  2  1  0  0  0  0
  2  3  1  0  0  0  0
  2  4  1  0  0  0  0
  2  5  1  0  0  0  0
  5  6  2  0  0  0  0
  5  7  1  0  0  0  0
  7  8  1  0  0  0  0
  7  9  1  0  0  0  0
  9 10  1  0  0  0  0
  9 11  1  0  0  0  0
  9 24  1  0  0  0  0
 11 12  1  0  0  0  0
 11 13  1  0  0  0  0
 11 14  1  0  0  0  0
 14 15  1  0  0  0  0
 14 16  1  0  0  0  0
 14 20  1  0  0  0  0
 16 17  1  0  0  0  0
 16 18  1  0  0  0  0
 16 19  1  0  0  0  0
 20 21  1  0  0  0  0
 20 22  1  0  0  0  0
 20 23  1  0  0  0  0
 24 25  2  0  0  0  0
 24 26  1  0  0  0  0
 26 27  1  0  0  0  0
 26 28  1  0  0  0  0
 28 29  1  0  0  0  0
 28 30  1  0  0  0  0
 28 31  1  0  0  0  0
M  END
$$$$

  -OEChem-04042216013D

 31 30  0     1  0  0  0  0  0999 V2000
   -2.8184   -4.2866    0.1570 H   0  0  0  0  0  0  0  0  0  0  0  0
   -2.7706   -3.3079   -0.3292 C   0  0  0  0  0  0  0  0  0  0  0  0
   -3.5867   -2.6875    0.0486 H   0  0  0  0  0  0  0  0  0  0  0  0
   -2.8928   -3.4451   -1.4061 H   0  0  0  0  0  0  0  0  0  0  0  0
   -1.4368   -2.6461   -0.0384 C   0  0  0  0  0  0  0  0  0  0  0  0
   -0.6341   -3.1990    0.6909 O   0  0  0  0  0  0  0  0  0  0  0  0
   -1.1465   -1.4178   -0.6005 N   0  0  0  0  0  0  0  0  0  0  0  0
   -1.8208   -1.0519   -1.2657 H   0  0  0  0  0  0  0  0  0  0  0  0
    0.1581   -0.7384   -0.4874 C   0  0  1  0  0  0  0  0  0  0  0  0
    0.9178   -1.4049   -0.9076 H   0  0  0  0  0  0  0  0  0  0  0  0
    0.0780    0.5471   -1.3370 C   0  0  0  0  0  0  0  0  0  0  0  0
   -0.4103    0.3244   -2.2915 H   0  0  0  0  0  0  0  0  0  0  0  0
   -0.5542    1.2693   -0.8094 H   0  0  0  0  0  0  0  0  0  0  0  0
    1.4520    1.1888   -1.6288 C   0  0  0  0  0  0  0  0  0  0  0  0
    2.0491    1.2338   -0.7123 H   0  0  0  0  0  0  0  0  0  0  0  0
    2.2272    0.3991   -2.6926 C   0  0  0  0  0  0  0  0  0  0  0  0
    1.6462    0.3169   -3.6164 H   0  0  0  0  0  0  0  0  0  0  0  0
    3.1728    0.9005   -2.9215 H   0  0  0  0  0  0  0  0  0  0  0  0
    2.4605   -0.6082   -2.3361 H   0  0  0  0  0  0  0  0  0  0  0  0
    1.2441    2.6224   -2.1309 C   0  0  0  0  0  0  0  0  0  0  0  0
    0.7269    3.2211   -1.3746 H   0  0  0  0  0  0  0  0  0  0  0  0
    2.2083    3.0966   -2.3392 H   0  0  0  0  0  0  0  0  0  0  0  0
    0.6476    2.6284   -3.0488 H   0  0  0  0  0  0  0  0  0  0  0  0
    0.5891   -0.4253    0.9649 C   0  0  0  0  0  0  0  0  0  0  0  0
    1.7699   -0.4836    1.2833 O   0  0  0  0  0  0  0  0  0  0  0  0
   -0.3234    0.1133    1.8543 N   0  0  0  0  0  0  0  0  0  0  0  0
   -1.3001    0.0402    1.5908 H   0  0  0  0  0  0  0  0  0  0  0  0
    0.0078    0.4059    3.2428 C   0  0  0  0  0  0  0  0  0  0  0  0
    0.8293    1.1281    3.2974 H   0  0  0  0  0  0  0  0  0  0  0  0
   -0.8591    0.8318    3.7567 H   0  0  0  0  0  0  0  0  0  0  0  0
    0.3075   -0.5092    3.7645 H   0  0  0  0  0  0  0  0  0  0  0  0
  1  2  1  0  0  0  0
  2  3  1  0  0  0  0
  2  4  1  0  0  0  0
  2  5  1  0  0  0  0
  5  6  2  0  0  0  0
  5  7  1  0  0  0  0
  7  8  1  0  0  0  0
  7  9  1  0  0  0  0
  9 10  1  0  0  0  0
  9 11  1  0  0  0  0
  9 24  1  0  0  0  0
 11 12  1  0  0  0  0
 11 13  1  0  0  0  0
 11 14  1  0  0  0  0
 14 15  1  0  0  0  0
 14 16  1  0  0  0  0
 14 20  1  0  0  0  0
 16 17  1  0  0  0  0
 16 18  1  0  0  0  0
 16 19  1  0  0  0  0
 20 21  1  0  0  0  0
 20 22  1  0  0  0  0
 20 23  1  0  0  0  0
 24 25  2  0  0  0  0
 24 26  1  0  0  0  0
 26 27  1  0  0  0  0
 26 28  1  0  0  0  0
 28 29  1  0  0  0  0
 28 30  1  0  0  0  0
 28 31  1  0  0  0  0
M  END
$$$$

  -OEChem-04042216013D

 31 30  0     1  0  0  0  0  0999 V2000
   -2.7965   -4.2869    0.1718 H   0  0  0  0  0  0  0  0  0  0  0  0
   -2.7554   -3.3077   -0.3139 C   0  0  0  0  0  0  0  0  0  0  0  0
   -3.5673   -2.6888    0.0752 H   0  0  0  0  0  0  0  0  0  0  0  0
   -2.8913   -3.4439   -1.3895 H   0  0  0  0  0  0  0  0  0  0  0  0
   -1.4188   -2.6447   -0.0383 C   0  0  0  0  0  0  0  0  0  0  0  0
   -0.6087   -3.1962    0.6836 O   0  0  0  0  0  0  0  0  0  0  0  0
   -1.1361   -1.4154   -0.6021 N   0  0  0  0  0  0  0  0  0  0  0  0
   -1.8174   -1.0504   -1.2605 H   0  0  0  0  0  0  0  0  0  0  0  0
    0.1648   -0.7277   -0.4923 C   0  0  1  0  0  0  0  0  0  0  0  0
    0.9345   -1.3814   -0.9172 H   0  0  0  0  0  0  0  0  0  0  0  0
    0.0735    0.5565   -1.3416 C   0  0  0  0  0  0  0  0  0  0  0  0
   -0.4237    0.3390   -2.2927 H   0  0  0  0  0  0  0  0  0  0  0  0
   -0.5579    1.2736   -0.8063 H   0  0  0  0  0  0  0  0  0  0  0  0
    1.4524    1.1930   -1.6286 C   0  0  0  0  0  0  0  0  0  0  0  0
    2.1456    0.9983   -0.8046 H   0  0  0  0  0  0  0  0  0  0  0  0
    2.0458    0.6271   -2.9249 C   0  0  0  0  0  0  0  0  0  0  0  0
    1.4013    0.8511   -3.7807 H   0  0  0  0  0  0  0  0  0  0  0  0
    3.0329    1.0616   -3.1116 H   0  0  0  0  0  0  0  0  0  0  0  0
    2.1598   -0.4585   -2.8495 H   0  0  0  0  0  0  0  0  0  0  0  0
    1.3059    2.7121   -1.7732 C   0  0  0  0  0  0  0  0  0  0  0  0
    0.9273    3.1486   -0.8435 H   0  0  0  0  0  0  0  0  0  0  0  0
    2.2761    3.1688   -1.9929 H   0  0  0  0  0  0  0  0  0  0  0  0
    0.6127    2.9600   -2.5834 H   0  0  0  0  0  0  0  0  0  0  0  0
    0.5862   -0.4151    0.9642 C   0  0  0  0  0  0  0  0  0  0  0  0
    1.7631   -0.4782    1.2953 O   0  0  0  0  0  0  0  0  0  0  0  0
   -0.3348    0.1155    1.8500 N   0  0  0  0  0  0  0  0  0  0  0  0
   -1.3090    0.0414    1.5778 H   0  0  0  0  0  0  0  0  0  0  0  0
   -0.0169    0.3922    3.2450 C   0  0  0  0  0  0  0  0  0  0  0  0
    0.8039    1.1136    3.3156 H   0  0  0  0  0  0  0  0  0  0  0  0
   -0.8886    0.8121    3.7558 H   0  0  0  0  0  0  0  0  0  0  0  0
    0.2781   -0.5285    3.7594 H   0  0  0  0  0  0  0  0  0  0  0  0
  1  2  1  0  0  0  0
  2  3  1  0  0  0  0
  2  4  1  0  0  0  0
  2  5  1  0  0  0  0
  5  6  2  0  0  0  0
  5  7  1  0  0  0  0
  7  8  1  0  0  0  0
  7  9  1  0  0  0  0
  9 10  1  0  0  0  0
  9 11  1  0  0  0  0
  9 24  1  0  0  0  0
 11 12  1  0  0  0  0
 11 13  1  0  0  0  0
 11 14  1  0  0  0  0
 14 15  1  0  0  0  0
 14 16  1  0  0  0  0
 14 20  1  0  0  0  0
 16 17  1  0  0  0  0
 16 18  1  0  0  0  0
 16 19  1  0  0  0  0
 20 21  1  0  0  0  0
 20 22  1  0  0  0  0
 20 23  1  0  0  0  0
 24 25  2  0  0  0  0
 24 26  1  0  0  0  0
 26 27  1  0  0  0  0
 26 28  1  0  0  0  0
 28 29  1  0  0  0  0
 28 30  1  0  0  0  0
 28 31  1  0  0  0  0
M  END
$$$$

  -OEChem-04042216013D

 31 30  0     1  0  0  0  0  0999 V2000
   -2.7920   -4.2993    0.1652 H   0  0  0  0  0  0  0  0  0  0  0  0
   -2.7537   -3.3200   -0.3205 C   0  0  0  0  0  0  0  0  0  0  0  0
   -3.5739   -2.7065    0.0596 H   0  0  0  0  0  0  0  0  0  0  0  0
   -2.8775   -3.4579   -1.3972 H   0  0  0  0  0  0  0  0  0  0  0  0
   -1.4247   -2.6470   -0.0328 C   0  0  0  0  0  0  0  0  0  0  0  0
   -0.6170   -3.1919    0.6967 O   0  0  0  0  0  0  0  0  0  0  0  0
   -1.1438   -1.4192   -0.6007 N   0  0  0  0  0  0  0  0  0  0  0  0
   -1.8224   -1.0606   -1.2653 H   0  0  0  0  0  0  0  0  0  0  0  0
    0.1571   -0.7311   -0.4952 C   0  0  1  0  0  0  0  0  0  0  0  0
    0.9259   -1.3833   -0.9245 H   0  0  0  0  0  0  0  0  0  0  0  0
    0.0639    0.5550   -1.3395 C   0  0  0  0  0  0  0  0  0  0  0  0
   -0.4340    0.3331   -2.2892 H   0  0  0  0  0  0  0  0  0  0  0  0
   -0.5722    1.2716   -0.8088 H   0  0  0  0  0  0  0  0  0  0  0  0
    1.4485    1.1859   -1.6258 C   0  0  0  0  0  0  0  0  0  0  0  0
    2.2089    0.7581   -0.9647 H   0  0  0  0  0  0  0  0  0  0  0  0
    1.8691    0.9220   -3.0767 C   0  0  0  0  0  0  0  0  0  0  0  0
    1.1628    1.3799   -3.7767 H   0  0  0  0  0  0  0  0  0  0  0  0
    2.8636    1.3383   -3.2658 H   0  0  0  0  0  0  0  0  0  0  0  0
    1.9060   -0.1546   -3.2710 H   0  0  0  0  0  0  0  0  0  0  0  0
    1.4070    2.6981   -1.3790 C   0  0  0  0  0  0  0  0  0  0  0  0
    1.1497    2.9051   -0.3353 H   0  0  0  0  0  0  0  0  0  0  0  0
    2.3857    3.1435   -1.5836 H   0  0  0  0  0  0  0  0  0  0  0  0
    0.6640    3.1766   -2.0250 H   0  0  0  0  0  0  0  0  0  0  0  0
    0.5832   -0.4134    0.9592 C   0  0  0  0  0  0  0  0  0  0  0  0
    1.7618   -0.4698    1.2860 O   0  0  0  0  0  0  0  0  0  0  0  0
   -0.3358    0.1203    1.8454 N   0  0  0  0  0  0  0  0  0  0  0  0
   -1.3110    0.0442    1.5771 H   0  0  0  0  0  0  0  0  0  0  0  0
   -0.0120    0.4170    3.2350 C   0  0  0  0  0  0  0  0  0  0  0  0
    0.8065    1.1425    3.2920 H   0  0  0  0  0  0  0  0  0  0  0  0
   -0.8829    0.8408    3.7440 H   0  0  0  0  0  0  0  0  0  0  0  0
    0.2887   -0.4958    3.7601 H   0  0  0  0  0  0  0  0  0  0  0  0
  1  2  1  0  0  0  0
  2  3  1  0  0  0  0
  2  4  1  0  0  0  0
  2  5  1  0  0  0  0
  5  6  2  0  0  0  0
  5  7  1  0  0  0  0
  7  8  1  0  0  0  0
  7  9  1  0  0  0  0
  9 10  1  0  0  0  0
  9 11  1  0  0  0  0
  9 24  1  0  0  0  0
 11 12  1  0  0  0  0
 11 13  1  0  0  0  0
 11 14  1  0  0  0  0
 14 15  1  0  0  0  0
 14 16  1  0  0  0  0
 14 20  1  0  0  0  0
 16 17  1  0  0  0  0
 16 18  1  0  0  0  0
 16 19  1  0  0  0  0
 20 21  1  0  0  0  0
 20 22  1  0  0  0  0
 20 23  1  0  0  0  0
 24 25  2  0  0  0  0
 24 26  1  0  0  0  0
 26 27  1  0  0  0  0
 26 28  1  0  0  0  0
 28 29  1  0  0  0  0
 28 30  1  0  0  0  0
 28 31  1  0  0  0  0
M  END
$$$$

  -OEChem-04042216013D

 31 30  0     1  0  0  0  0  0999 V2000
   -2.7952   -4.3006    0.1837 H   0  0  0  0  0  0  0  0  0  0  0  0
   -2.7590   -3.3250   -0.3095 C   0  0  0  0  0  0  0  0  0  0  0  0
   -3.5730   -2.7061    0.0750 H   0  0  0  0  0  0  0  0  0  0  0  0
   -2.8947   -3.4700   -1.3839 H   0  0  0  0  0  0  0  0  0  0  0  0
   -1.4254   -2.6542   -0.0397 C   0  0  0  0  0  0  0  0  0  0  0  0
   -0.6093   -3.1986    0.6811 O   0  0  0  0  0  0  0  0  0  0  0  0
   -1.1516   -1.4250   -0.6076 N   0  0  0  0  0  0  0  0  0  0  0  0
   -1.8370   -1.0646   -1.2644 H   0  0  0  0  0  0  0  0  0  0  0  0
    0.1459   -0.7310   -0.5026 C   0  0  1  0  0  0  0  0  0  0  0  0
    0.9143   -1.3841   -0.9321 H   0  0  0  0  0  0  0  0  0  0  0  0
    0.0546    0.5552   -1.3453 C   0  0  0  0  0  0  0  0  0  0  0  0
   -0.4274    0.3155   -2.2989 H   0  0  0  0  0  0  0  0  0  0  0  0
   -0.5944    1.2756   -0.8359 H   0  0  0  0  0  0  0  0  0  0  0  0
    1.4431    1.1828   -1.6233 C   0  0  0  0  0  0  0  0  0  0  0  0
    2.2298    0.5646   -1.1770 H   0  0  0  0  0  0  0  0  0  0  0  0
    1.7145    1.2581   -3.1302 C   0  0  0  0  0  0  0  0  0  0  0  0
    0.9660    1.8821   -3.6287 H   0  0  0  0  0  0  0  0  0  0  0  0
    2.7041    1.6870   -3.3170 H   0  0  0  0  0  0  0  0  0  0  0  0
    1.6865    0.2570   -3.5717 H   0  0  0  0  0  0  0  0  0  0  0  0
    1.5357    2.5838   -1.0076 C   0  0  0  0  0  0  0  0  0  0  0  0
    1.3779    2.5337    0.0746 H   0  0  0  0  0  0  0  0  0  0  0  0
    2.5256    3.0141   -1.1888 H   0  0  0  0  0  0  0  0  0  0  0  0
    0.7826    3.2494   -1.4410 H   0  0  0  0  0  0  0  0  0  0  0  0
    0.5785   -0.4088    0.9478 C   0  0  0  0  0  0  0  0  0  0  0  0
    1.7615   -0.4432    1.2614 O   0  0  0  0  0  0  0  0  0  0  0  0
   -0.3381    0.1224    1.8377 N   0  0  0  0  0  0  0  0  0  0  0  0
   -1.3148    0.0381    1.5773 H   0  0  0  0  0  0  0  0  0  0  0  0
   -0.0052    0.4358    3.2212 C   0  0  0  0  0  0  0  0  0  0  0  0
    0.8070    1.1692    3.2632 H   0  0  0  0  0  0  0  0  0  0  0  0
   -0.8755    0.8565    3.7336 H   0  0  0  0  0  0  0  0  0  0  0  0
    0.3085   -0.4687    3.7530 H   0  0  0  0  0  0  0  0  0  0  0  0
  1  2  1  0  0  0  0
  2  3  1  0  0  0  0
  2  4  1  0  0  0  0
  2  5  1  0  0  0  0
  5  6  2  0  0  0  0
  5  7  1  0  0  0  0
  7  8  1  0  0  0  0
  7  9  1  0  0  0  0
  9 10  1  0  0  0  0
  9 11  1  0  0  0  0
  9 24  1  0  0  0  0
 11 12  1  0  0  0  0
 11 13  1  0  0  0  0
 11 14  1  0  0  0  0
 14 15  1  0  0  0  0
 14 16  1  0  0  0  0
 14 20  1  0  0  0  0
 16 17  1  0  0  0  0
 16 18  1  0  0  0  0
 16 19  1  0  0  0  0
 20 21  1  0  0  0  0
 20 22  1  0  0  0  0
 20 23  1  0  0  0  0
 24 25  2  0  0  0  0
 24 26  1  0  0  0  0
 26 27  1  0  0  0  0
 26 28  1  0  0  0  0
 28 29  1  0  0  0  0
 28 30  1  0  0  0  0
 28 31  1  0  0  0  0
M  END
$$$$

  -OEChem-04042216013D

 31 30  0     1  0  0  0  0  0999 V2000
   -2.8066   -4.3005    0.1555 H   0  0  0  0  0  0  0  0  0  0  0  0
   -2.7658   -3.3223   -0.3323 C   0  0  0  0  0  0  0  0  0  0  0  0
   -3.5878   -2.7081    0.0428 H   0  0  0  0  0  0  0  0  0  0  0  0
   -2.8852   -3.4627   -1.4093 H   0  0  0  0  0  0  0  0  0  0  0  0
   -1.4380   -2.6487   -0.0394 C   0  0  0  0  0  0  0  0  0  0  0  0
   -0.6308   -3.1954    0.6898 O   0  0  0  0  0  0  0  0  0  0  0  0
   -1.1587   -1.4165   -0.5984 N   0  0  0  0  0  0  0  0  0  0  0  0
   -1.8372   -1.0549   -1.2617 H   0  0  0  0  0  0  0  0  0  0  0  0
    0.1411   -0.7274   -0.4856 C   0  0  1  0  0  0  0  0  0  0  0  0
    0.9053   -1.3870   -0.9116 H   0  0  0  0  0  0  0  0  0  0  0  0
    0.0599    0.5536   -1.3402 C   0  0  0  0  0  0  0  0  0  0  0  0
   -0.4032    0.2909   -2.2972 H   0  0  0  0  0  0  0  0  0  0  0  0
   -0.5993    1.2825   -0.8566 H   0  0  0  0  0  0  0  0  0  0  0  0
    1.4466    1.1839   -1.6164 C   0  0  0  0  0  0  0  0  0  0  0  0
    2.2344    0.4528   -1.4025 H   0  0  0  0  0  0  0  0  0  0  0  0
    1.5703    1.5868   -3.0909 C   0  0  0  0  0  0  0  0  0  0  0  0
    0.7949    2.3109   -3.3604 H   0  0  0  0  0  0  0  0  0  0  0  0
    2.5491    2.0382   -3.2816 H   0  0  0  0  0  0  0  0  0  0  0  0
    1.4688    0.7085   -3.7360 H   0  0  0  0  0  0  0  0  0  0  0  0
    1.6759    2.4185   -0.7335 C   0  0  0  0  0  0  0  0  0  0  0  0
    1.6091    2.1559    0.3262 H   0  0  0  0  0  0  0  0  0  0  0  0
    2.6711    2.8355   -0.9167 H   0  0  0  0  0  0  0  0  0  0  0  0
    0.9310    3.1915   -0.9472 H   0  0  0  0  0  0  0  0  0  0  0  0
    0.5782   -0.4127    0.9638 C   0  0  0  0  0  0  0  0  0  0  0  0
    1.7626   -0.4594    1.2708 O   0  0  0  0  0  0  0  0  0  0  0  0
   -0.3312    0.1185    1.8610 N   0  0  0  0  0  0  0  0  0  0  0  0
   -1.3099    0.0414    1.6058 H   0  0  0  0  0  0  0  0  0  0  0  0
    0.0129    0.4289    3.2425 C   0  0  0  0  0  0  0  0  0  0  0  0
    0.8279    1.1594    3.2797 H   0  0  0  0  0  0  0  0  0  0  0  0
   -0.8519    0.8520    3.7621 H   0  0  0  0  0  0  0  0  0  0  0  0
    0.3275   -0.4774    3.7705 H   0  0  0  0  0  0  0  0  0  0  0  0
  1  2  1  0  0  0  0
  2  3  1  0  0  0  0
  2  4  1  0  0  0  0
  2  5  1  0  0  0  0
  5  6  2  0  0  0  0
  5  7  1  0  0  0  0
  7  8  1  0  0  0  0
  7  9  1  0  0  0  0
  9 10  1  0  0  0  0
  9 11  1  0  0  0  0
  9 24  1  0  0  0  0
 11 12  1  0  0  0  0
 11 13  1  0  0  0  0
 11 14  1  0  0  0  0
 14 15  1  0  0  0  0
 14 16  1  0  0  0  0
 14 20  1  0  0  0  0
 16 17  1  0  0  0  0
 16 18  1  0  0  0  0
 16 19  1  0  0  0  0
 20 21  1  0  0  0  0
 20 22  1  0  0  0  0
 20 23  1  0  0  0  0
 24 25  2  0  0  0  0
 24 26  1  0  0  0  0
 26 27  1  0  0  0  0
 26 28  1  0  0  0  0
 28 29  1  0  0  0  0
 28 30  1  0  0  0  0
 28 31  1  0  0  0  0
M  END
$$$$

  -OEChem-04042216013D

 31 30  0     1  0  0  0  0  0999 V2000
   -2.8376   -4.2533    0.1516 H   0  0  0  0  0  0  0  0  0  0  0  0
   -2.7771   -3.2706   -0.3251 C   0  0  0  0  0  0  0  0  0  0  0  0
   -3.5813   -2.6410    0.0632 H   0  0  0  0  0  0  0  0  0  0  0  0
   -2.9075   -3.3955   -1.4027 H   0  0  0  0  0  0  0  0  0  0  0  0
   -1.4315   -2.6323   -0.0348 C   0  0  0  0  0  0  0  0  0  0  0  0
   -0.6338   -3.2052    0.6842 O   0  0  0  0  0  0  0  0  0  0  0  0
   -1.1268   -1.4023   -0.5852 N   0  0  0  0  0  0  0  0  0  0  0  0
   -1.8029   -1.0157   -1.2366 H   0  0  0  0  0  0  0  0  0  0  0  0
    0.1796   -0.7287   -0.4538 C   0  0  1  0  0  0  0  0  0  0  0  0
    0.9468   -1.3951   -0.8636 H   0  0  0  0  0  0  0  0  0  0  0  0
    0.1078    0.5380   -1.3354 C   0  0  0  0  0  0  0  0  0  0  0  0
   -0.3399    0.2464   -2.2914 H   0  0  0  0  0  0  0  0  0  0  0  0
   -0.5632    1.2715   -0.8759 H   0  0  0  0  0  0  0  0  0  0  0  0
    1.4786    1.1927   -1.6292 C   0  0  0  0  0  0  0  0  0  0  0  0
    2.2578    0.4228   -1.6536 H   0  0  0  0  0  0  0  0  0  0  0  0
    1.4346    1.8872   -2.9971 C   0  0  0  0  0  0  0  0  0  0  0  0
    0.6503    2.6506   -3.0191 H   0  0  0  0  0  0  0  0  0  0  0  0
    2.3942    2.3675   -3.2131 H   0  0  0  0  0  0  0  0  0  0  0  0
    1.2352    1.1589   -3.7894 H   0  0  0  0  0  0  0  0  0  0  0  0
    1.8487    2.2551   -0.5812 C   0  0  0  0  0  0  0  0  0  0  0  0
    1.9539    1.8185    0.4131 H   0  0  0  0  0  0  0  0  0  0  0  0
    2.8035    2.7236   -0.8395 H   0  0  0  0  0  0  0  0  0  0  0  0
    1.0828    3.0356   -0.5349 H   0  0  0  0  0  0  0  0  0  0  0  0
    0.5859   -0.4303    1.0071 C   0  0  0  0  0  0  0  0  0  0  0  0
    1.7507   -0.5616    1.3606 O   0  0  0  0  0  0  0  0  0  0  0  0
   -0.3353    0.1047    1.8900 N   0  0  0  0  0  0  0  0  0  0  0  0
   -1.3064    0.0716    1.5991 H   0  0  0  0  0  0  0  0  0  0  0  0
   -0.0317    0.3366    3.2962 C   0  0  0  0  0  0  0  0  0  0  0  0
    0.8070    1.0334    3.3970 H   0  0  0  0  0  0  0  0  0  0  0  0
   -0.8994    0.7661    3.8056 H   0  0  0  0  0  0  0  0  0  0  0  0
    0.2309   -0.6050    3.7900 H   0  0  0  0  0  0  0  0  0  0  0  0
  1  2  1  0  0  0  0
  2  3  1  0  0  0  0
  2  4  1  0  0  0  0
  2  5  1  0  0  0  0
  5  6  2  0  0  0  0
  5  7  1  0  0  0  0
  7  8  1  0  0  0  0
  7  9  1  0  0  0  0
  9 10  1  0  0  0  0
  9 11  1  0  0  0  0
  9 24  1  0  0  0  0
 11 12  1  0  0  0  0
 11 13  1  0  0  0  0
 11 14  1  0  0  0  0
 14 15  1  0  0  0  0
 14 16  1  0  0  0  0
 14 20  1  0  0  0  0
 16 17  1  0  0  0  0
 16 18  1  0  0  0  0
 16 19  1  0  0  0  0
 20 21  1  0  0  0  0
 20 22  1  0  0  0  0
 20 23  1  0  0  0  0
 24 25  2  0  0  0  0
 24 26  1  0  0  0  0
 26 27  1  0  0  0  0
 26 28  1  0  0  0  0
 28 29  1  0  0  0  0
 28 30  1  0  0  0  0
 28 31  1  0  0  0  0
M  END
$$$$

  -OEChem-04042216013D

 31 30  0     1  0  0  0  0  0999 V2000
   -2.8697   -4.2038    0.1729 H   0  0  0  0  0  0  0  0  0  0  0  0
   -2.7852   -3.2251   -0.3083 C   0  0  0  0  0  0  0  0  0  0  0  0
   -3.5761   -2.5756    0.0741 H   0  0  0  0  0  0  0  0  0  0  0  0
   -2.9143   -3.3522   -1.3858 H   0  0  0  0  0  0  0  0  0  0  0  0
   -1.4265   -2.6172   -0.0153 C   0  0  0  0  0  0  0  0  0  0  0  0
   -0.6459   -3.2080    0.7076 O   0  0  0  0  0  0  0  0  0  0  0  0
   -1.0887   -1.4000   -0.5758 N   0  0  0  0  0  0  0  0  0  0  0  0
   -1.7542   -1.0014   -1.2308 H   0  0  0  0  0  0  0  0  0  0  0  0
    0.2290   -0.7480   -0.4346 C   0  0  1  0  0  0  0  0  0  0  0  0
    0.9993   -1.4190   -0.8305 H   0  0  0  0  0  0  0  0  0  0  0  0
    0.1606    0.5169   -1.3228 C   0  0  0  0  0  0  0  0  0  0  0  0
   -0.2956    0.2236   -2.2746 H   0  0  0  0  0  0  0  0  0  0  0  0
   -0.5065    1.2492   -0.8560 H   0  0  0  0  0  0  0  0  0  0  0  0
    1.5115    1.1977   -1.6500 C   0  0  0  0  0  0  0  0  0  0  0  0
    2.2359    0.4369   -1.9606 H   0  0  0  0  0  0  0  0  0  0  0  0
    1.2965    2.1737   -2.8161 C   0  0  0  0  0  0  0  0  0  0  0  0
    0.5786    2.9532   -2.5411 H   0  0  0  0  0  0  0  0  0  0  0  0
    2.2407    2.6531   -3.0935 H   0  0  0  0  0  0  0  0  0  0  0  0
    0.9170    1.6446   -3.6957 H   0  0  0  0  0  0  0  0  0  0  0  0
    2.0999    1.9980   -0.4772 C   0  0  0  0  0  0  0  0  0  0  0  0
    2.5493    1.3359    0.2635 H   0  0  0  0  0  0  0  0  0  0  0  0
    2.8913    2.6675   -0.8284 H   0  0  0  0  0  0  0  0  0  0  0  0
    1.3282    2.6024    0.0094 H   0  0  0  0  0  0  0  0  0  0  0  0
    0.5934   -0.4500    1.0394 C   0  0  0  0  0  0  0  0  0  0  0  0
    1.7202   -0.6756    1.4608 O   0  0  0  0  0  0  0  0  0  0  0  0
   -0.3490    0.1054    1.8870 N   0  0  0  0  0  0  0  0  0  0  0  0
   -1.3029    0.1260    1.5436 H   0  0  0  0  0  0  0  0  0  0  0  0
   -0.1139    0.2873    3.3135 C   0  0  0  0  0  0  0  0  0  0  0  0
    0.7461    0.9446    3.4793 H   0  0  0  0  0  0  0  0  0  0  0  0
   -0.9902    0.7405    3.7867 H   0  0  0  0  0  0  0  0  0  0  0  0
    0.0814   -0.6773    3.7943 H   0  0  0  0  0  0  0  0  0  0  0  0
  1  2  1  0  0  0  0
  2  3  1  0  0  0  0
  2  4  1  0  0  0  0
  2  5  1  0  0  0  0
  5  6  2  0  0  0  0
  5  7  1  0  0  0  0
  7  8  1  0  0  0  0
  7  9  1  0  0  0  0
  9 10  1  0  0  0  0
  9 11  1  0  0  0  0
  9 24  1  0  0  0  0
 11 12  1  0  0  0  0
 11 13  1  0  0  0  0
 11 14  1  0  0  0  0
 14 15  1  0  0  0  0
 14 16  1  0  0  0  0
 14 20  1  0  0  0  0
 16 17  1  0  0  0  0
 16 18  1  0  0  0  0
 16 19  1  0  0  0  0
 20 21  1  0  0  0  0
 20 22  1  0  0  0  0
 20 23  1  0  0  0  0
 24 25  2  0  0  0  0
 24 26  1  0  0  0  0
 26 27  1  0  0  0  0
 26 28  1  0  0  0  0
 28 29  1  0  0  0  0
 28 30  1  0  0  0  0
 28 31  1  0  0  0  0
M  END
$$$$

  -OEChem-04042216013D

 31 30  0     1  0  0  0  0  0999 V2000
   -2.8519   -4.2201    0.2169 H   0  0  0  0  0  0  0  0  0  0  0  0
   -2.7777   -3.2459   -0.2752 C   0  0  0  0  0  0  0  0  0  0  0  0
   -3.5692   -2.5975    0.1079 H   0  0  0  0  0  0  0  0  0  0  0  0
   -2.9163   -3.3851   -1.3501 H   0  0  0  0  0  0  0  0  0  0  0  0
   -1.4197   -2.6264   -0.0020 C   0  0  0  0  0  0  0  0  0  0  0  0
   -0.6277   -3.2042    0.7191 O   0  0  0  0  0  0  0  0  0  0  0  0
   -1.0943   -1.4141   -0.5800 N   0  0  0  0  0  0  0  0  0  0  0  0
   -1.7676   -1.0284   -1.2345 H   0  0  0  0  0  0  0  0  0  0  0  0
    0.2206   -0.7520   -0.4582 C   0  0  1  0  0  0  0  0  0  0  0  0
    0.9895   -1.4219   -0.8587 H   0  0  0  0  0  0  0  0  0  0  0  0
    0.1485    0.5265   -1.3293 C   0  0  0  0  0  0  0  0  0  0  0  0
   -0.5427    0.3474   -2.1596 H   0  0  0  0  0  0  0  0  0  0  0  0
   -0.2720    1.3420   -0.7308 H   0  0  0  0  0  0  0  0  0  0  0  0
    1.4852    0.9891   -1.9535 C   0  0  0  0  0  0  0  0  0  0  0  0
    1.8482    0.2054   -2.6274 H   0  0  0  0  0  0  0  0  0  0  0  0
    1.2301    2.2580   -2.7777 C   0  0  0  0  0  0  0  0  0  0  0  0
    0.8915    3.0760   -2.1336 H   0  0  0  0  0  0  0  0  0  0  0  0
    2.1461    2.5735   -3.2871 H   0  0  0  0  0  0  0  0  0  0  0  0
    0.4654    2.0740   -3.5387 H   0  0  0  0  0  0  0  0  0  0  0  0
    2.5858    1.2854   -0.9284 C   0  0  0  0  0  0  0  0  0  0  0  0
    2.9876    0.3546   -0.5208 H   0  0  0  0  0  0  0  0  0  0  0  0
    3.4167    1.8201   -1.3990 H   0  0  0  0  0  0  0  0  0  0  0  0
    2.1998    1.8989   -0.1083 H   0  0  0  0  0  0  0  0  0  0  0  0
    0.5861   -0.4379    1.0157 C   0  0  0  0  0  0  0  0  0  0  0  0
    1.7211   -0.6115    1.4384 O   0  0  0  0  0  0  0  0  0  0  0  0
   -0.3634    0.1180    1.8556 N   0  0  0  0  0  0  0  0  0  0  0  0
   -1.3191    0.1106    1.5166 H   0  0  0  0  0  0  0  0  0  0  0  0
   -0.1259    0.3371    3.2766 C   0  0  0  0  0  0  0  0  0  0  0  0
    0.7227    1.0135    3.4233 H   0  0  0  0  0  0  0  0  0  0  0  0
   -1.0080    0.7852    3.7434 H   0  0  0  0  0  0  0  0  0  0  0  0
    0.0894   -0.6123    3.7785 H   0  0  0  0  0  0  0  0  0  0  0  0
  1  2  1  0  0  0  0
  2  3  1  0  0  0  0
  2  4  1  0  0  0  0
  2  5  1  0  0  0  0
  5  6  2  0  0  0  0
  5  7  1  0  0  0  0
  7  8  1  0  0  0  0
  7  9  1  0  0  0  0
  9 10  1  0  0  0  0
  9 11  1  0  0  0  0
  9 24  1  0  0  0  0
 11 12  1  0  0  0  0
 11 13  1  0  0  0  0
 11 14  1  0  0  0  0
 14 15  1  0  0  0  0
 14 16  1  0  0  0  0
 14 20  1  0  0  0  0
 16 17  1  0  0  0  0
 16 18  1  0  0  0  0
 16 19  1  0  0  0  0
 20 21  1  0  0  0  0
 20 22  1  0  0  0  0
 20 23  1  0  0  0  0
 24 25  2  0  0  0  0
 24 26  1  0  0  0  0
 26 27  1  0  0  0  0
 26 28  1  0  0  0  0
 28 29  1  0  0  0  0
 28 30  1  0  0  0  0
 28 31  1  0  0  0  0
M  END
$$$$

  -OEChem-04042216013D

 31 30  0     1  0  0  0  0  0999 V2000
   -2.8768   -4.2138    0.2123 H   0  0  0  0  0  0  0  0  0  0  0  0
   -2.7936   -3.2409   -0.2806 C   0  0  0  0  0  0  0  0  0  0  0  0
   -3.5847   -2.5882    0.0955 H   0  0  0  0  0  0  0  0  0  0  0  0
   -2.9242   -3.3807   -1.3563 H   0  0  0  0  0  0  0  0  0  0  0  0
   -1.4352   -2.6277    0.0034 C   0  0  0  0  0  0  0  0  0  0  0  0
   -0.6534   -3.2070    0.7344 O   0  0  0  0  0  0  0  0  0  0  0  0
   -1.0984   -1.4187   -0.5749 N   0  0  0  0  0  0  0  0  0  0  0  0
   -1.7618   -1.0342   -1.2402 H   0  0  0  0  0  0  0  0  0  0  0  0
    0.2213   -0.7669   -0.4492 C   0  0  1  0  0  0  0  0  0  0  0  0
    0.9834   -1.4457   -0.8474 H   0  0  0  0  0  0  0  0  0  0  0  0
    0.1601    0.5097   -1.3257 C   0  0  0  0  0  0  0  0  0  0  0  0
   -0.5379    0.3454   -2.1533 H   0  0  0  0  0  0  0  0  0  0  0  0
   -0.2531    1.3202   -0.7156 H   0  0  0  0  0  0  0  0  0  0  0  0
    1.4924    0.9818   -1.9589 C   0  0  0  0  0  0  0  0  0  0  0  0
    1.7176    0.3319   -2.8113 H   0  0  0  0  0  0  0  0  0  0  0  0
    1.3183    2.4212   -2.4609 C   0  0  0  0  0  0  0  0  0  0  0  0
    1.1332    3.1047   -1.6259 H   0  0  0  0  0  0  0  0  0  0  0  0
    2.2186    2.7538   -2.9873 H   0  0  0  0  0  0  0  0  0  0  0  0
    0.4745    2.4834   -3.1553 H   0  0  0  0  0  0  0  0  0  0  0  0
    2.7018    0.9542   -1.0168 C   0  0  0  0  0  0  0  0  0  0  0  0
    2.9694   -0.0748   -0.7613 H   0  0  0  0  0  0  0  0  0  0  0  0
    3.5720    1.4096   -1.4996 H   0  0  0  0  0  0  0  0  0  0  0  0
    2.4906    1.5084   -0.0968 H   0  0  0  0  0  0  0  0  0  0  0  0
    0.5866   -0.4530    1.0254 C   0  0  0  0  0  0  0  0  0  0  0  0
    1.7199   -0.6332    1.4506 O   0  0  0  0  0  0  0  0  0  0  0  0
   -0.3600    0.1120    1.8625 N   0  0  0  0  0  0  0  0  0  0  0  0
   -1.3154    0.1092    1.5225 H   0  0  0  0  0  0  0  0  0  0  0  0
   -0.1235    0.3325    3.2835 C   0  0  0  0  0  0  0  0  0  0  0  0
    0.7292    1.0036    3.4305 H   0  0  0  0  0  0  0  0  0  0  0  0
   -1.0035    0.7873    3.7479 H   0  0  0  0  0  0  0  0  0  0  0  0
    0.0843   -0.6174    3.7874 H   0  0  0  0  0  0  0  0  0  0  0  0
  1  2  1  0  0  0  0
  2  3  1  0  0  0  0
  2  4  1  0  0  0  0
  2  5  1  0  0  0  0
  5  6  2  0  0  0  0
  5  7  1  0  0  0  0
  7  8  1  0  0  0  0
  7  9  1  0  0  0  0
  9 10  1  0  0  0  0
  9 11  1  0  0  0  0
  9 24  1  0  0  0  0
 11 12  1  0  0  0  0
 11 13  1  0  0  0  0
 11 14  1  0  0  0  0
 14 15  1  0  0  0  0
 14 16  1  0  0  0  0
 14 20  1  0  0  0  0
 16 17  1  0  0  0  0
 16 18  1  0  0  0  0
 16 19  1  0  0  0  0
 20 21  1  0  0  0  0
 20 22  1  0  0  0  0
 20 23  1  0  0  0  0
 24 25  2  0  0  0  0
 24 26  1  0  0  0  0
 26 27  1  0  0  0  0
 26 28  1  0  0  0  0
 28 29  1  0  0  0  0
 28 30  1  0  0  0  0
 28 31  1  0  0  0  0
M  END
$$$$

  -OEChem-04042216013D

 31 30  0     1  0  0  0  0  0999 V2000
   -2.9099   -4.2103    0.2168 H   0  0  0  0  0  0  0  0  0  0  0  0
   -2.8201   -3.2382   -0.2768 C   0  0  0  0  0  0  0  0  0  0  0  0
   -3.6012   -2.5768    0.1053 H   0  0  0  0  0  0  0  0  0  0  0  0
   -2.9600   -3.3765   -1.3515 H   0  0  0  0  0  0  0  0  0  0  0  0
   -1.4536   -2.6390   -0.0027 C   0  0  0  0  0  0  0  0  0  0  0  0
   -0.6743   -3.2237    0.7267 O   0  0  0  0  0  0  0  0  0  0  0  0
   -1.1098   -1.4307   -0.5784 N   0  0  0  0  0  0  0  0  0  0  0  0
   -1.7722   -1.0375   -1.2398 H   0  0  0  0  0  0  0  0  0  0  0  0
    0.2120   -0.7855   -0.4448 C   0  0  1  0  0  0  0  0  0  0  0  0
    0.9614   -1.4795   -0.8385 H   0  0  0  0  0  0  0  0  0  0  0  0
    0.1693    0.4888   -1.3268 C   0  0  0  0  0  0  0  0  0  0  0  0
   -0.5255    0.3272   -2.1576 H   0  0  0  0  0  0  0  0  0  0  0  0
   -0.2523    1.2953   -0.7169 H   0  0  0  0  0  0  0  0  0  0  0  0
    1.5015    0.9746   -1.9622 C   0  0  0  0  0  0  0  0  0  0  0  0
    1.5955    0.5085   -2.9490 H   0  0  0  0  0  0  0  0  0  0  0  0
    1.4520    2.5005   -2.1245 C   0  0  0  0  0  0  0  0  0  0  0  0
    1.4011    2.9951   -1.1489 H   0  0  0  0  0  0  0  0  0  0  0  0
    2.3443    2.8584   -2.6478 H   0  0  0  0  0  0  0  0  0  0  0  0
    0.5742    2.7924   -2.7092 H   0  0  0  0  0  0  0  0  0  0  0  0
    2.7787    0.6474   -1.1744 C   0  0  0  0  0  0  0  0  0  0  0  0
    2.9103   -0.4317   -1.0593 H   0  0  0  0  0  0  0  0  0  0  0  0
    3.6563    1.0301   -1.7044 H   0  0  0  0  0  0  0  0  0  0  0  0
    2.7528    1.1115   -0.1839 H   0  0  0  0  0  0  0  0  0  0  0  0
    0.5824   -0.4703    1.0272 C   0  0  0  0  0  0  0  0  0  0  0  0
    1.7187   -0.6479    1.4452 O   0  0  0  0  0  0  0  0  0  0  0  0
   -0.3586    0.1015    1.8658 N   0  0  0  0  0  0  0  0  0  0  0  0
   -1.3156    0.0999    1.5304 H   0  0  0  0  0  0  0  0  0  0  0  0
   -0.1134    0.3324    3.2837 C   0  0  0  0  0  0  0  0  0  0  0  0
    0.7366    1.0092    3.4200 H   0  0  0  0  0  0  0  0  0  0  0  0
   -0.9928    0.7854    3.7509 H   0  0  0  0  0  0  0  0  0  0  0  0
    0.1035   -0.6128    3.7926 H   0  0  0  0  0  0  0  0  0  0  0  0
  1  2  1  0  0  0  0
  2  3  1  0  0  0  0
  2  4  1  0  0  0  0
  2  5  1  0  0  0  0
  5  6  2  0  0  0  0
  5  7  1  0  0  0  0
  7  8  1  0  0  0  0
  7  9  1  0  0  0  0
  9 10  1  0  0  0  0
  9 11  1  0  0  0  0
  9 24  1  0  0  0  0
 11 12  1  0  0  0  0
 11 13  1  0  0  0  0
 11 14  1  0  0  0  0
 14 15  1  0  0  0  0
 14 16  1  0  0  0  0
 14 20  1  0  0  0  0
 16 17  1  0  0  0  0
 16 18  1  0  0  0  0
 16 19  1  0  0  0  0
 20 21  1  0  0  0  0
 20 22  1  0  0  0  0
 20 23  1  0  0  0  0
 24 25  2  0  0  0  0
 24 26  1  0  0  0  0
 26 27  1  0  0  0  0
 26 28  1  0  0  0  0
 28 29  1  0  0  0  0
 28 30  1  0  0  0  0
 28 31  1  0  0  0  0
M  END
$$$$

  -OEChem-04042216013D

 31 30  0     1  0  0  0  0  0999 V2000
   -2.9323   -4.2200    0.2074 H   0  0  0  0  0  0  0  0  0  0  0  0
   -2.8358   -3.2501   -0.2890 C   0  0  0  0  0  0  0  0  0  0  0  0
   -3.6287   -2.5905    0.0711 H   0  0  0  0  0  0  0  0  0  0  0  0
   -2.9502   -3.3948   -1.3659 H   0  0  0  0  0  0  0  0  0  0  0  0
   -1.4784   -2.6429    0.0123 C   0  0  0  0  0  0  0  0  0  0  0  0
   -0.7128   -3.2194    0.7626 O   0  0  0  0  0  0  0  0  0  0  0  0
   -1.1249   -1.4398   -0.5682 N   0  0  0  0  0  0  0  0  0  0  0  0
   -1.7750   -1.0560   -1.2471 H   0  0  0  0  0  0  0  0  0  0  0  0
    0.2006   -0.8024   -0.4326 C   0  0  1  0  0  0  0  0  0  0  0  0
    0.9386   -1.5111   -0.8179 H   0  0  0  0  0  0  0  0  0  0  0  0
    0.1721    0.4740   -1.3130 C   0  0  0  0  0  0  0  0  0  0  0  0
   -0.5183    0.3070   -2.1464 H   0  0  0  0  0  0  0  0  0  0  0  0
   -0.2638    1.2785   -0.7106 H   0  0  0  0  0  0  0  0  0  0  0  0
    1.5017    0.9713   -1.9556 C   0  0  0  0  0  0  0  0  0  0  0  0
    1.4490    0.7540   -3.0280 H   0  0  0  0  0  0  0  0  0  0  0  0
    1.6178    2.4910   -1.7720 C   0  0  0  0  0  0  0  0  0  0  0  0
    1.6957    2.7472   -0.7102 H   0  0  0  0  0  0  0  0  0  0  0  0
    2.5053    2.8730   -2.2865 H   0  0  0  0  0  0  0  0  0  0  0  0
    0.7400    2.9940   -2.1895 H   0  0  0  0  0  0  0  0  0  0  0  0
    2.8047    0.3426   -1.4369 C   0  0  0  0  0  0  0  0  0  0  0  0
    2.8052   -0.7426   -1.5664 H   0  0  0  0  0  0  0  0  0  0  0  0
    3.6577    0.7385   -1.9967 H   0  0  0  0  0  0  0  0  0  0  0  0
    2.9609    0.5791   -0.3815 H   0  0  0  0  0  0  0  0  0  0  0  0
    0.5779   -0.4778    1.0347 C   0  0  0  0  0  0  0  0  0  0  0  0
    1.7184   -0.6457    1.4445 O   0  0  0  0  0  0  0  0  0  0  0  0
   -0.3560    0.1077    1.8719 N   0  0  0  0  0  0  0  0  0  0  0  0
   -1.3152    0.1061    1.5424 H   0  0  0  0  0  0  0  0  0  0  0  0
   -0.1002    0.3625    3.2839 C   0  0  0  0  0  0  0  0  0  0  0  0
    0.7596    1.0300    3.4034 H   0  0  0  0  0  0  0  0  0  0  0  0
   -0.9708    0.8366    3.7467 H   0  0  0  0  0  0  0  0  0  0  0  0
    0.1060   -0.5758    3.8096 H   0  0  0  0  0  0  0  0  0  0  0  0
  1  2  1  0  0  0  0
  2  3  1  0  0  0  0
  2  4  1  0  0  0  0
  2  5  1  0  0  0  0
  5  6  2  0  0  0  0
  5  7  1  0  0  0  0
  7  8  1  0  0  0  0
  7  9  1  0  0  0  0
  9 10  1  0  0  0  0
  9 11  1  0  0  0  0
  9 24  1  0  0  0  0
 11 12  1  0  0  0  0
 11 13  1  0  0  0  0
 11 14  1  0  0  0  0
 14 15  1  0  0  0  0
 14 16  1  0  0  0  0
 14 20  1  0  0  0  0
 16 17  1  0  0  0  0
 16 18  1  0  0  0  0
 16 19  1  0  0  0  0
 20 21  1  0  0  0  0
 20 22  1  0  0  0  0
 20 23  1  0  0  0  0
 24 25  2  0  0  0  0
 24 26  1  0  0  0  0
 26 27  1  0  0  0  0
 26 28  1  0  0  0  0
 28 29  1  0  0  0  0
 28 30  1  0  0  0  0
 28 31  1  0  0  0  0
M  END
$$$$

  -OEChem-04042216013D

 31 30  0     1  0  0  0  0  0999 V2000
   -2.9233   -4.2446    0.2098 H   0  0  0  0  0  0  0  0  0  0  0  0
   -2.8341   -3.2758   -0.2902 C   0  0  0  0  0  0  0  0  0  0  0  0
   -3.6342   -2.6220    0.0648 H   0  0  0  0  0  0  0  0  0  0  0  0
   -2.9439   -3.4258   -1.3669 H   0  0  0  0  0  0  0  0  0  0  0  0
   -1.4833   -2.6556    0.0138 C   0  0  0  0  0  0  0  0  0  0  0  0
   -0.7170   -3.2203    0.7725 O   0  0  0  0  0  0  0  0  0  0  0  0
   -1.1370   -1.4519   -0.5698 N   0  0  0  0  0  0  0  0  0  0  0  0
   -1.7844   -1.0777   -1.2565 H   0  0  0  0  0  0  0  0  0  0  0  0
    0.1858   -0.8095   -0.4354 C   0  0  1  0  0  0  0  0  0  0  0  0
    0.9242   -1.5187   -0.8177 H   0  0  0  0  0  0  0  0  0  0  0  0
    0.1638    0.4786   -1.2970 C   0  0  0  0  0  0  0  0  0  0  0  0
   -0.5119    0.3026   -2.1404 H   0  0  0  0  0  0  0  0  0  0  0  0
   -0.2895    1.2823   -0.7067 H   0  0  0  0  0  0  0  0  0  0  0  0
    1.4999    0.9719   -1.9278 C   0  0  0  0  0  0  0  0  0  0  0  0
    1.3278    1.0583   -3.0062 H   0  0  0  0  0  0  0  0  0  0  0  0
    1.8273    2.3793   -1.4134 C   0  0  0  0  0  0  0  0  0  0  0  0
    2.0058    2.3596   -0.3331 H   0  0  0  0  0  0  0  0  0  0  0  0
    2.7242    2.7680   -1.9058 H   0  0  0  0  0  0  0  0  0  0  0  0
    1.0008    3.0666   -1.6195 H   0  0  0  0  0  0  0  0  0  0  0  0
    2.7306    0.0681   -1.7598 C   0  0  0  0  0  0  0  0  0  0  0  0
    2.5452   -0.9234   -2.1830 H   0  0  0  0  0  0  0  0  0  0  0  0
    3.5858    0.4998   -2.2886 H   0  0  0  0  0  0  0  0  0  0  0  0
    3.0072   -0.0371   -0.7084 H   0  0  0  0  0  0  0  0  0  0  0  0
    0.5719   -0.4770    1.0271 C   0  0  0  0  0  0  0  0  0  0  0  0
    1.7288   -0.5812    1.4112 O   0  0  0  0  0  0  0  0  0  0  0  0
   -0.3601    0.1086    1.8660 N   0  0  0  0  0  0  0  0  0  0  0  0
   -1.3257    0.0692    1.5583 H   0  0  0  0  0  0  0  0  0  0  0  0
   -0.0803    0.4224    3.2613 C   0  0  0  0  0  0  0  0  0  0  0  0
    0.7671    1.1119    3.3366 H   0  0  0  0  0  0  0  0  0  0  0  0
   -0.9509    0.8961    3.7244 H   0  0  0  0  0  0  0  0  0  0  0  0
    0.1578   -0.4902    3.8180 H   0  0  0  0  0  0  0  0  0  0  0  0
  1  2  1  0  0  0  0
  2  3  1  0  0  0  0
  2  4  1  0  0  0  0
  2  5  1  0  0  0  0
  5  6  2  0  0  0  0
  5  7  1  0  0  0  0
  7  8  1  0  0  0  0
  7  9  1  0  0  0  0
  9 10  1  0  0  0  0
  9 11  1  0  0  0  0
  9 24  1  0  0  0  0
 11 12  1  0  0  0  0
 11 13  1  0  0  0  0
 11 14  1  0  0  0  0
 14 15  1  0  0  0  0
 14 16  1  0  0  0  0
 14 20  1  0  0  0  0
 16 17  1  0  0  0  0
 16 18  1  0  0  0  0
 16 19  1  0  0  0  0
 20 21  1  0  0  0  0
 20 22  1  0  0  0  0
 20 23  1  0  0  0  0
 24 25  2  0  0  0  0
 24 26  1  0  0  0  0
 26 27  1  0  0  0  0
 26 28  1  0  0  0  0
 28 29  1  0  0  0  0
 28 30  1  0  0  0  0
 28 31  1  0  0  0  0
M  END
$$$$

  -OEChem-04042216013D

 31 30  0     1  0  0  0  0  0999 V2000
   -2.9149   -4.2680    0.1913 H   0  0  0  0  0  0  0  0  0  0  0  0
   -2.8353   -3.2977   -0.3076 C   0  0  0  0  0  0  0  0  0  0  0  0
   -3.6431   -2.6531    0.0467 H   0  0  0  0  0  0  0  0  0  0  0  0
   -2.9421   -3.4478   -1.3847 H   0  0  0  0  0  0  0  0  0  0  0  0
   -1.4915   -2.6627   -0.0017 C   0  0  0  0  0  0  0  0  0  0  0  0
   -0.7161   -3.2214    0.7525 O   0  0  0  0  0  0  0  0  0  0  0  0
   -1.1605   -1.4511   -0.5772 N   0  0  0  0  0  0  0  0  0  0  0  0
   -1.8138   -1.0785   -1.2593 H   0  0  0  0  0  0  0  0  0  0  0  0
    0.1577   -0.8002   -0.4443 C   0  0  1  0  0  0  0  0  0  0  0  0
    0.8892   -1.5151   -0.8289 H   0  0  0  0  0  0  0  0  0  0  0  0
    0.1448    0.4868   -1.3069 C   0  0  0  0  0  0  0  0  0  0  0  0
   -0.5137    0.2988   -2.1611 H   0  0  0  0  0  0  0  0  0  0  0  0
   -0.3169    1.2995   -0.7358 H   0  0  0  0  0  0  0  0  0  0  0  0
    1.4935    0.9619   -1.9179 C   0  0  0  0  0  0  0  0  0  0  0  0
    1.2753    1.3106   -2.9333 H   0  0  0  0  0  0  0  0  0  0  0  0
    2.0238    2.1743   -1.1423 C   0  0  0  0  0  0  0  0  0  0  0  0
    2.2403    1.9020   -0.1042 H   0  0  0  0  0  0  0  0  0  0  0  0
    2.9448    2.5480   -1.6006 H   0  0  0  0  0  0  0  0  0  0  0  0
    1.2889    2.9854   -1.1445 H   0  0  0  0  0  0  0  0  0  0  0  0
    2.5946   -0.1007   -2.0455 C   0  0  0  0  0  0  0  0  0  0  0  0
    2.2306   -0.9648   -2.6095 H   0  0  0  0  0  0  0  0  0  0  0  0
    3.4552    0.3131   -2.5797 H   0  0  0  0  0  0  0  0  0  0  0  0
    2.9379   -0.4358   -1.0622 H   0  0  0  0  0  0  0  0  0  0  0  0
    0.5730   -0.4683    1.0080 C   0  0  0  0  0  0  0  0  0  0  0  0
    1.7480   -0.5305    1.3449 O   0  0  0  0  0  0  0  0  0  0  0  0
   -0.3421    0.1099    1.8699 N   0  0  0  0  0  0  0  0  0  0  0  0
   -1.3164    0.0500    1.5943 H   0  0  0  0  0  0  0  0  0  0  0  0
   -0.0229    0.4502    3.2505 C   0  0  0  0  0  0  0  0  0  0  0  0
    0.8107    1.1593    3.2879 H   0  0  0  0  0  0  0  0  0  0  0  0
   -0.8880    0.9116    3.7360 H   0  0  0  0  0  0  0  0  0  0  0  0
    0.2535   -0.4489    3.8113 H   0  0  0  0  0  0  0  0  0  0  0  0
  1  2  1  0  0  0  0
  2  3  1  0  0  0  0
  2  4  1  0  0  0  0
  2  5  1  0  0  0  0
  5  6  2  0  0  0  0
  5  7  1  0  0  0  0
  7  8  1  0  0  0  0
  7  9  1  0  0  0  0
  9 10  1  0  0  0  0
  9 11  1  0  0  0  0
  9 24  1  0  0  0  0
 11 12  1  0  0  0  0
 11 13  1  0  0  0  0
 11 14  1  0  0  0  0
 14 15  1  0  0  0  0
 14 16  1  0  0  0  0
 14 20  1  0  0  0  0
 16 17  1  0  0  0  0
 16 18  1  0  0  0  0
 16 19  1  0  0  0  0
 20 21  1  0  0  0  0
 20 22  1  0  0  0  0
 20 23  1  0  0  0  0
 24 25  2  0  0  0  0
 24 26  1  0  0  0  0
 26 27  1  0  0  0  0
 26 28  1  0  0  0  0
 28 29  1  0  0  0  0
 28 30  1  0  0  0  0
 28 31  1  0  0  0  0
M  END
$$$$

  -OEChem-04042216013D

 31 30  0     1  0  0  0  0  0999 V2000
   -2.9121   -4.2556    0.1913 H   0  0  0  0  0  0  0  0  0  0  0  0
   -2.8322   -3.2838   -0.3043 C   0  0  0  0  0  0  0  0  0  0  0  0
   -3.6359   -2.6379    0.0568 H   0  0  0  0  0  0  0  0  0  0  0  0
   -2.9449   -3.4292   -1.3813 H   0  0  0  0  0  0  0  0  0  0  0  0
   -1.4851   -2.6547   -0.0025 C   0  0  0  0  0  0  0  0  0  0  0  0
   -0.7099   -3.2178    0.7482 O   0  0  0  0  0  0  0  0  0  0  0  0
   -1.1529   -1.4424   -0.5761 N   0  0  0  0  0  0  0  0  0  0  0  0
   -1.8074   -1.0660   -1.2548 H   0  0  0  0  0  0  0  0  0  0  0  0
    0.1651   -0.7913   -0.4413 C   0  0  1  0  0  0  0  0  0  0  0  0
    0.9000   -1.5051   -0.8216 H   0  0  0  0  0  0  0  0  0  0  0  0
    0.1436    0.4851   -1.3217 C   0  0  0  0  0  0  0  0  0  0  0  0
   -0.5130    0.2848   -2.1748 H   0  0  0  0  0  0  0  0  0  0  0  0
   -0.3161    1.3057   -0.7608 H   0  0  0  0  0  0  0  0  0  0  0  0
    1.4875    0.9590   -1.9352 C   0  0  0  0  0  0  0  0  0  0  0  0
    1.2354    1.5232   -2.8396 H   0  0  0  0  0  0  0  0  0  0  0  0
    2.2169    1.9301   -0.9980 C   0  0  0  0  0  0  0  0  0  0  0  0
    2.5461    1.4260   -0.0859 H   0  0  0  0  0  0  0  0  0  0  0  0
    3.0995    2.3428   -1.4962 H   0  0  0  0  0  0  0  0  0  0  0  0
    1.5625    2.7615   -0.7192 H   0  0  0  0  0  0  0  0  0  0  0  0
    2.4368   -0.1706   -2.3565 C   0  0  0  0  0  0  0  0  0  0  0  0
    1.9085   -0.9061   -2.9709 H   0  0  0  0  0  0  0  0  0  0  0  0
    3.2654    0.2353   -2.9452 H   0  0  0  0  0  0  0  0  0  0  0  0
    2.8597   -0.6761   -1.4823 H   0  0  0  0  0  0  0  0  0  0  0  0
    0.5768   -0.4619    1.0115 C   0  0  0  0  0  0  0  0  0  0  0  0
    1.7435   -0.5751    1.3638 O   0  0  0  0  0  0  0  0  0  0  0  0
   -0.3376    0.1151    1.8747 N   0  0  0  0  0  0  0  0  0  0  0  0
   -1.3098    0.0761    1.5885 H   0  0  0  0  0  0  0  0  0  0  0  0
   -0.0269    0.4159    3.2660 C   0  0  0  0  0  0  0  0  0  0  0  0
    0.8211    1.1059    3.3286 H   0  0  0  0  0  0  0  0  0  0  0  0
   -0.8876    0.8838    3.7531 H   0  0  0  0  0  0  0  0  0  0  0  0
    0.2243   -0.5018    3.8082 H   0  0  0  0  0  0  0  0  0  0  0  0
  1  2  1  0  0  0  0
  2  3  1  0  0  0  0
  2  4  1  0  0  0  0
  2  5  1  0  0  0  0
  5  6  2  0  0  0  0
  5  7  1  0  0  0  0
  7  8  1  0  0  0  0
  7  9  1  0  0  0  0
  9 10  1  0  0  0  0
  9 11  1  0  0  0  0
  9 24  1  0  0  0  0
 11 12  1  0  0  0  0
 11 13  1  0  0  0  0
 11 14  1  0  0  0  0
 14 15  1  0  0  0  0
 14 16  1  0  0  0  0
 14 20  1  0  0  0  0
 16 17  1  0  0  0  0
 16 18  1  0  0  0  0
 16 19  1  0  0  0  0
 20 21  1  0  0  0  0
 20 22  1  0  0  0  0
 20 23  1  0  0  0  0
 24 25  2  0  0  0  0
 24 26  1  0  0  0  0
 26 27  1  0  0  0  0
 26 28  1  0  0  0  0
 28 29  1  0  0  0  0
 28 30  1  0  0  0  0
 28 31  1  0  0  0  0
M  END
$$$$

  -OEChem-04042216013D

 31 30  0     1  0  0  0  0  0999 V2000
   -2.9074   -4.2323    0.2256 H   0  0  0  0  0  0  0  0  0  0  0  0
   -2.8222   -3.2636   -0.2754 C   0  0  0  0  0  0  0  0  0  0  0  0
   -3.6170   -2.6085    0.0890 H   0  0  0  0  0  0  0  0  0  0  0  0
   -2.9449   -3.4132   -1.3508 H   0  0  0  0  0  0  0  0  0  0  0  0
   -1.4668   -2.6456    0.0123 C   0  0  0  0  0  0  0  0  0  0  0  0
   -0.6903   -3.2146    0.7570 O   0  0  0  0  0  0  0  0  0  0  0  0
   -1.1285   -1.4394   -0.5706 N   0  0  0  0  0  0  0  0  0  0  0  0
   -1.7867   -1.0605   -1.2443 H   0  0  0  0  0  0  0  0  0  0  0  0
    0.1915   -0.7902   -0.4412 C   0  0  1  0  0  0  0  0  0  0  0  0
    0.9385   -1.4927   -0.8199 H   0  0  0  0  0  0  0  0  0  0  0  0
    0.1545    0.4834   -1.3252 C   0  0  0  0  0  0  0  0  0  0  0  0
   -0.5193    0.2926   -2.1669 H   0  0  0  0  0  0  0  0  0  0  0  0
   -0.2856    1.3061   -0.7521 H   0  0  0  0  0  0  0  0  0  0  0  0
    1.4890    0.9578   -1.9517 C   0  0  0  0  0  0  0  0  0  0  0  0
    1.2240    1.7227   -2.6896 H   0  0  0  0  0  0  0  0  0  0  0  0
    2.4167    1.6288   -0.9321 C   0  0  0  0  0  0  0  0  0  0  0  0
    2.8773    0.8910   -0.2711 H   0  0  0  0  0  0  0  0  0  0  0  0
    3.2196    2.1611   -1.4512 H   0  0  0  0  0  0  0  0  0  0  0  0
    1.8646    2.3504   -0.3222 H   0  0  0  0  0  0  0  0  0  0  0  0
    2.2416   -0.1535   -2.6962 C   0  0  0  0  0  0  0  0  0  0  0  0
    1.5655   -0.6910   -3.3681 H   0  0  0  0  0  0  0  0  0  0  0  0
    3.0493    0.2786   -3.2952 H   0  0  0  0  0  0  0  0  0  0  0  0
    2.6865   -0.8691   -1.9981 H   0  0  0  0  0  0  0  0  0  0  0  0
    0.5793   -0.4593    1.0199 C   0  0  0  0  0  0  0  0  0  0  0  0
    1.7283   -0.6133    1.4117 O   0  0  0  0  0  0  0  0  0  0  0  0
   -0.3496    0.1200    1.8666 N   0  0  0  0  0  0  0  0  0  0  0  0
   -1.3136    0.1025    1.5519 H   0  0  0  0  0  0  0  0  0  0  0  0
   -0.0763    0.3844    3.2733 C   0  0  0  0  0  0  0  0  0  0  0  0
    0.7810    1.0578    3.3774 H   0  0  0  0  0  0  0  0  0  0  0  0
   -0.9435    0.8563    3.7448 H   0  0  0  0  0  0  0  0  0  0  0  0
    0.1424   -0.5496    3.8015 H   0  0  0  0  0  0  0  0  0  0  0  0
  1  2  1  0  0  0  0
  2  3  1  0  0  0  0
  2  4  1  0  0  0  0
  2  5  1  0  0  0  0
  5  6  2  0  0  0  0
  5  7  1  0  0  0  0
  7  8  1  0  0  0  0
  7  9  1  0  0  0  0
  9 10  1  0  0  0  0
  9 11  1  0  0  0  0
  9 24  1  0  0  0  0
 11 12  1  0  0  0  0
 11 13  1  0  0  0  0
 11 14  1  0  0  0  0
 14 15  1  0  0  0  0
 14 16  1  0  0  0  0
 14 20  1  0  0  0  0
 16 17  1  0  0  0  0
 16 18  1  0  0  0  0
 16 19  1  0  0  0  0
 20 21  1  0  0  0  0
 20 22  1  0  0  0  0
 20 23  1  0  0  0  0
 24 25  2  0  0  0  0
 24 26  1  0  0  0  0
 26 27  1  0  0  0  0
 26 28  1  0  0  0  0
 28 29  1  0  0  0  0
 28 30  1  0  0  0  0
 28 31  1  0  0  0  0
M  END
$$$$

  -OEChem-04042216013D

 31 30  0     1  0  0  0  0  0999 V2000
   -2.8959   -4.2263    0.2345 H   0  0  0  0  0  0  0  0  0  0  0  0
   -2.8107   -3.2572   -0.2655 C   0  0  0  0  0  0  0  0  0  0  0  0
   -3.6039   -2.6016    0.1014 H   0  0  0  0  0  0  0  0  0  0  0  0
   -2.9363   -3.4057   -1.3406 H   0  0  0  0  0  0  0  0  0  0  0  0
   -1.4536   -2.6412    0.0193 C   0  0  0  0  0  0  0  0  0  0  0  0
   -0.6741   -3.2140    0.7579 O   0  0  0  0  0  0  0  0  0  0  0  0
   -1.1154   -1.4363   -0.5665 N   0  0  0  0  0  0  0  0  0  0  0  0
   -1.7759   -1.0583   -1.2384 H   0  0  0  0  0  0  0  0  0  0  0  0
    0.2057   -0.7868   -0.4453 C   0  0  1  0  0  0  0  0  0  0  0  0
    0.9615   -1.4777   -0.8303 H   0  0  0  0  0  0  0  0  0  0  0  0
    0.1518    0.4875   -1.3280 C   0  0  0  0  0  0  0  0  0  0  0  0
   -0.5464    0.3149   -2.1535 H   0  0  0  0  0  0  0  0  0  0  0  0
   -0.2623    1.3089   -0.7338 H   0  0  0  0  0  0  0  0  0  0  0  0
    1.4791    0.9623   -1.9670 C   0  0  0  0  0  0  0  0  0  0  0  0
    1.2500    1.8835   -2.5134 H   0  0  0  0  0  0  0  0  0  0  0  0
    2.5686    1.3001   -0.9445 C   0  0  0  0  0  0  0  0  0  0  0  0
    3.0066    0.3913   -0.5232 H   0  0  0  0  0  0  0  0  0  0  0  0
    3.3713    1.8671   -1.4259 H   0  0  0  0  0  0  0  0  0  0  0  0
    2.1600    1.9071   -0.1305 H   0  0  0  0  0  0  0  0  0  0  0  0
    2.0217   -0.0546   -2.9811 C   0  0  0  0  0  0  0  0  0  0  0  0
    1.2514   -0.3148   -3.7135 H   0  0  0  0  0  0  0  0  0  0  0  0
    2.8750    0.3712   -3.5182 H   0  0  0  0  0  0  0  0  0  0  0  0
    2.3559   -0.9710   -2.4861 H   0  0  0  0  0  0  0  0  0  0  0  0
    0.5847   -0.4600    1.0212 C   0  0  0  0  0  0  0  0  0  0  0  0
    1.7268   -0.6242    1.4284 O   0  0  0  0  0  0  0  0  0  0  0  0
   -0.3505    0.1158    1.8635 N   0  0  0  0  0  0  0  0  0  0  0  0
   -1.3111    0.1082    1.5382 H   0  0  0  0  0  0  0  0  0  0  0  0
   -0.0897    0.3685    3.2750 C   0  0  0  0  0  0  0  0  0  0  0  0
    0.7707    1.0356    3.3924 H   0  0  0  0  0  0  0  0  0  0  0  0
   -0.9582    0.8423    3.7419 H   0  0  0  0  0  0  0  0  0  0  0  0
    0.1185   -0.5704    3.7989 H   0  0  0  0  0  0  0  0  0  0  0  0
  1  2  1  0  0  0  0
  2  3  1  0  0  0  0
  2  4  1  0  0  0  0
  2  5  1  0  0  0  0
  5  6  2  0  0  0  0
  5  7  1  0  0  0  0
  7  8  1  0  0  0  0
  7  9  1  0  0  0  0
  9 10  1  0  0  0  0
  9 11  1  0  0  0  0
  9 24  1  0  0  0  0
 11 12  1  0  0  0  0
 11 13  1  0  0  0  0
 11 14  1  0  0  0  0
 14 15  1  0  0  0  0
 14 16  1  0  0  0  0
 14 20  1  0  0  0  0
 16 17  1  0  0  0  0
 16 18  1  0  0  0  0
 16 19  1  0  0  0  0
 20 21  1  0  0  0  0
 20 22  1  0  0  0  0
 20 23  1  0  0  0  0
 24 25  2  0  0  0  0
 24 26  1  0  0  0  0
 26 27  1  0  0  0  0
 26 28  1  0  0  0  0
 28 29  1  0  0  0  0
 28 30  1  0  0  0  0
 28 31  1  0  0  0  0
M  END
$$$$

  -OEChem-04042216013D

 31 30  0     1  0  0  0  0  0999 V2000
   -2.8817   -4.2223    0.2357 H   0  0  0  0  0  0  0  0  0  0  0  0
   -2.8003   -3.2514   -0.2614 C   0  0  0  0  0  0  0  0  0  0  0  0
   -3.5897   -2.5966    0.1150 H   0  0  0  0  0  0  0  0  0  0  0  0
   -2.9353   -3.3958   -1.3360 H   0  0  0  0  0  0  0  0  0  0  0  0
   -1.4405   -2.6372    0.0135 C   0  0  0  0  0  0  0  0  0  0  0  0
   -0.6524   -3.2163    0.7378 O   0  0  0  0  0  0  0  0  0  0  0  0
   -1.1085   -1.4287   -0.5686 N   0  0  0  0  0  0  0  0  0  0  0  0
   -1.7772   -1.0449   -1.2289 H   0  0  0  0  0  0  0  0  0  0  0  0
    0.2113   -0.7757   -0.4525 C   0  0  1  0  0  0  0  0  0  0  0  0
    0.9702   -1.4585   -0.8483 H   0  0  0  0  0  0  0  0  0  0  0  0
    0.1464    0.4993   -1.3337 C   0  0  0  0  0  0  0  0  0  0  0  0
   -0.5730    0.3429   -2.1444 H   0  0  0  0  0  0  0  0  0  0  0  0
   -0.2478    1.3173   -0.7217 H   0  0  0  0  0  0  0  0  0  0  0  0
    1.4700    0.9787   -1.9804 C   0  0  0  0  0  0  0  0  0  0  0  0
    1.3117    2.0054   -2.3277 H   0  0  0  0  0  0  0  0  0  0  0  0
    2.6800    0.9835   -1.0403 C   0  0  0  0  0  0  0  0  0  0  0  0
    2.9819   -0.0349   -0.7780 H   0  0  0  0  0  0  0  0  0  0  0  0
    3.5307    1.4727   -1.5248 H   0  0  0  0  0  0  0  0  0  0  0  0
    2.4497    1.5345   -0.1234 H   0  0  0  0  0  0  0  0  0  0  0  0
    1.8036    0.1124   -3.2030 C   0  0  0  0  0  0  0  0  0  0  0  0
    0.9827    0.1362   -3.9261 H   0  0  0  0  0  0  0  0  0  0  0  0
    2.7046    0.4873   -3.6989 H   0  0  0  0  0  0  0  0  0  0  0  0
    1.9791   -0.9274   -2.9103 H   0  0  0  0  0  0  0  0  0  0  0  0
    0.5881   -0.4583    1.0184 C   0  0  0  0  0  0  0  0  0  0  0  0
    1.7274   -0.6293    1.4310 O   0  0  0  0  0  0  0  0  0  0  0  0
   -0.3508    0.1077    1.8636 N   0  0  0  0  0  0  0  0  0  0  0  0
   -1.3099    0.1024    1.5340 H   0  0  0  0  0  0  0  0  0  0  0  0
   -0.0986    0.3382    3.2807 C   0  0  0  0  0  0  0  0  0  0  0  0
    0.7548    1.0114    3.4142 H   0  0  0  0  0  0  0  0  0  0  0  0
   -0.9740    0.7951    3.7517 H   0  0  0  0  0  0  0  0  0  0  0  0
    0.1163   -0.6076    3.7894 H   0  0  0  0  0  0  0  0  0  0  0  0
  1  2  1  0  0  0  0
  2  3  1  0  0  0  0
  2  4  1  0  0  0  0
  2  5  1  0  0  0  0
  5  6  2  0  0  0  0
  5  7  1  0  0  0  0
  7  8  1  0  0  0  0
  7  9  1  0  0  0  0
  9 10  1  0  0  0  0
  9 11  1  0  0  0  0
  9 24  1  0  0  0  0
 11 12  1  0  0  0  0
 11 13  1  0  0  0  0
 11 14  1  0  0  0  0
 14 15  1  0  0  0  0
 14 16  1  0  0  0  0
 14 20  1  0  0  0  0
 16 17  1  0  0  0  0
 16 18  1  0  0  0  0
 16 19  1  0  0  0  0
 20 21  1  0  0  0  0
 20 22  1  0  0  0  0
 20 23  1  0  0  0  0
 24 25  2  0  0  0  0
 24 26  1  0  0  0  0
 26 27  1  0  0  0  0
 26 28  1  0  0  0  0
 28 29  1  0  0  0  0
 28 30  1  0  0  0  0
 28 31  1  0  0  0  0
M  END
$$$$

  -OEChem-04042216013D

 31 30  0     1  0  0  0  0  0999 V2000
   -2.8879   -4.2304    0.2162 H   0  0  0  0  0  0  0  0  0  0  0  0
   -2.8063   -3.2605   -0.2832 C   0  0  0  0  0  0  0  0  0  0  0  0
   -3.6061   -2.6104    0.0790 H   0  0  0  0  0  0  0  0  0  0  0  0
   -2.9242   -3.4098   -1.3591 H   0  0  0  0  0  0  0  0  0  0  0  0
   -1.4551   -2.6356    0.0103 C   0  0  0  0  0  0  0  0  0  0  0  0
   -0.6744   -3.2074    0.7483 O   0  0  0  0  0  0  0  0  0  0  0  0
   -1.1227   -1.4250   -0.5674 N   0  0  0  0  0  0  0  0  0  0  0  0
   -1.7820   -1.0495   -1.2421 H   0  0  0  0  0  0  0  0  0  0  0  0
    0.1986   -0.7756   -0.4482 C   0  0  1  0  0  0  0  0  0  0  0  0
    0.9466   -1.4663   -0.8511 H   0  0  0  0  0  0  0  0  0  0  0  0
    0.1413    0.4998   -1.3293 C   0  0  0  0  0  0  0  0  0  0  0  0
   -0.5908    0.3538   -2.1302 H   0  0  0  0  0  0  0  0  0  0  0  0
   -0.2445    1.3151   -0.7082 H   0  0  0  0  0  0  0  0  0  0  0  0
    1.4644    0.9898   -1.9798 C   0  0  0  0  0  0  0  0  0  0  0  0
    1.3948    2.0756   -2.1062 H   0  0  0  0  0  0  0  0  0  0  0  0
    2.7498    0.6832   -1.1991 C   0  0  0  0  0  0  0  0  0  0  0  0
    2.9069   -0.3930   -1.0822 H   0  0  0  0  0  0  0  0  0  0  0  0
    3.6172    1.0941   -1.7251 H   0  0  0  0  0  0  0  0  0  0  0  0
    2.7110    1.1484   -0.2099 H   0  0  0  0  0  0  0  0  0  0  0  0
    1.6062    0.3569   -3.3717 C   0  0  0  0  0  0  0  0  0  0  0  0
    0.7584    0.6295   -4.0078 H   0  0  0  0  0  0  0  0  0  0  0  0
    2.5210    0.7071   -3.8603 H   0  0  0  0  0  0  0  0  0  0  0  0
    1.6494   -0.7345   -3.2966 H   0  0  0  0  0  0  0  0  0  0  0  0
    0.5868   -0.4612    1.0195 C   0  0  0  0  0  0  0  0  0  0  0  0
    1.7291   -0.6367    1.4220 O   0  0  0  0  0  0  0  0  0  0  0  0
   -0.3444    0.1067    1.8717 N   0  0  0  0  0  0  0  0  0  0  0  0
   -1.3062    0.0992    1.5499 H   0  0  0  0  0  0  0  0  0  0  0  0
   -0.0826    0.3310    3.2879 C   0  0  0  0  0  0  0  0  0  0  0  0
    0.7784    0.9949    3.4191 H   0  0  0  0  0  0  0  0  0  0  0  0
   -0.9509    0.7962    3.7641 H   0  0  0  0  0  0  0  0  0  0  0  0
    0.1245   -0.6184    3.7930 H   0  0  0  0  0  0  0  0  0  0  0  0
  1  2  1  0  0  0  0
  2  3  1  0  0  0  0
  2  4  1  0  0  0  0
  2  5  1  0  0  0  0
  5  6  2  0  0  0  0
  5  7  1  0  0  0  0
  7  8  1  0  0  0  0
  7  9  1  0  0  0  0
  9 10  1  0  0  0  0
  9 11  1  0  0  0  0
  9 24  1  0  0  0  0
 11 12  1  0  0  0  0
 11 13  1  0  0  0  0
 11 14  1  0  0  0  0
 14 15  1  0  0  0  0
 14 16  1  0  0  0  0
 14 20  1  0  0  0  0
 16 17  1  0  0  0  0
 16 18  1  0  0  0  0
 16 19  1  0  0  0  0
 20 21  1  0  0  0  0
 20 22  1  0  0  0  0
 20 23  1  0  0  0  0
 24 25  2  0  0  0  0
 24 26  1  0  0  0  0
 26 27  1  0  0  0  0
 26 28  1  0  0  0  0
 28 29  1  0  0  0  0
 28 30  1  0  0  0  0
 28 31  1  0  0  0  0
M  END
$$$$

  -OEChem-04042216013D

 31 30  0     1  0  0  0  0  0999 V2000
   -2.9119   -4.2317    0.2217 H   0  0  0  0  0  0  0  0  0  0  0  0
   -2.8249   -3.2630   -0.2788 C   0  0  0  0  0  0  0  0  0  0  0  0
   -3.6219   -2.6085    0.0816 H   0  0  0  0  0  0  0  0  0  0  0  0
   -2.9418   -3.4126   -1.3548 H   0  0  0  0  0  0  0  0  0  0  0  0
   -1.4713   -2.6446    0.0159 C   0  0  0  0  0  0  0  0  0  0  0  0
   -0.6958   -3.2174    0.7588 O   0  0  0  0  0  0  0  0  0  0  0  0
   -1.1315   -1.4374   -0.5644 N   0  0  0  0  0  0  0  0  0  0  0  0
   -1.7866   -1.0608   -1.2424 H   0  0  0  0  0  0  0  0  0  0  0  0
    0.1923   -0.7937   -0.4421 C   0  0  1  0  0  0  0  0  0  0  0  0
    0.9308   -1.4966   -0.8375 H   0  0  0  0  0  0  0  0  0  0  0  0
    0.1485    0.4817   -1.3246 C   0  0  0  0  0  0  0  0  0  0  0  0
   -0.5845    0.3282   -2.1235 H   0  0  0  0  0  0  0  0  0  0  0  0
   -0.2435    1.2979   -0.7086 H   0  0  0  0  0  0  0  0  0  0  0  0
    1.4715    0.9814   -1.9797 C   0  0  0  0  0  0  0  0  0  0  0  0
    1.5149    2.0683   -1.8504 H   0  0  0  0  0  0  0  0  0  0  0  0
    2.7819    0.3980   -1.4289 C   0  0  0  0  0  0  0  0  0  0  0  0
    2.8188   -0.6899   -1.5323 H   0  0  0  0  0  0  0  0  0  0  0  0
    3.6360    0.8146   -1.9720 H   0  0  0  0  0  0  0  0  0  0  0  0
    2.9053    0.6645   -0.3768 H   0  0  0  0  0  0  0  0  0  0  0  0
    1.4345    0.6894   -3.4876 C   0  0  0  0  0  0  0  0  0  0  0  0
    0.5736    1.1786   -3.9541 H   0  0  0  0  0  0  0  0  0  0  0  0
    2.3398    1.0658   -3.9744 H   0  0  0  0  0  0  0  0  0  0  0  0
    1.3656   -0.3883   -3.6684 H   0  0  0  0  0  0  0  0  0  0  0  0
    0.5813   -0.4744    1.0236 C   0  0  0  0  0  0  0  0  0  0  0  0
    1.7248   -0.6445    1.4240 O   0  0  0  0  0  0  0  0  0  0  0  0
   -0.3477    0.1017    1.8728 N   0  0  0  0  0  0  0  0  0  0  0  0
   -1.3097    0.0970    1.5518 H   0  0  0  0  0  0  0  0  0  0  0  0
   -0.0817    0.3418    3.2856 C   0  0  0  0  0  0  0  0  0  0  0  0
    0.7799    1.0068    3.4060 H   0  0  0  0  0  0  0  0  0  0  0  0
   -0.9482    0.8125    3.7594 H   0  0  0  0  0  0  0  0  0  0  0  0
    0.1269   -0.6017    3.8010 H   0  0  0  0  0  0  0  0  0  0  0  0
  1  2  1  0  0  0  0
  2  3  1  0  0  0  0
  2  4  1  0  0  0  0
  2  5  1  0  0  0  0
  5  6  2  0  0  0  0
  5  7  1  0  0  0  0
  7  8  1  0  0  0  0
  7  9  1  0  0  0  0
  9 10  1  0  0  0  0
  9 11  1  0  0  0  0
  9 24  1  0  0  0  0
 11 12  1  0  0  0  0
 11 13  1  0  0  0  0
 11 14  1  0  0  0  0
 14 15  1  0  0  0  0
 14 16  1  0  0  0  0
 14 20  1  0  0  0  0
 16 17  1  0  0  0  0
 16 18  1  0  0  0  0
 16 19  1  0  0  0  0
 20 21  1  0  0  0  0
 20 22  1  0  0  0  0
 20 23  1  0  0  0  0
 24 25  2  0  0  0  0
 24 26  1  0  0  0  0
 26 27  1  0  0  0  0
 26 28  1  0  0  0  0
 28 29  1  0  0  0  0
 28 30  1  0  0  0  0
 28 31  1  0  0  0  0
M  END
$$$$

  -OEChem-04042216013D

 31 30  0     1  0  0  0  0  0999 V2000
   -2.9273   -4.2425    0.2434 H   0  0  0  0  0  0  0  0  0  0  0  0
   -2.8390   -3.2763   -0.2622 C   0  0  0  0  0  0  0  0  0  0  0  0
   -3.6328   -2.6174    0.0977 H   0  0  0  0  0  0  0  0  0  0  0  0
   -2.9602   -3.4307   -1.3370 H   0  0  0  0  0  0  0  0  0  0  0  0
   -1.4822   -2.6607    0.0249 C   0  0  0  0  0  0  0  0  0  0  0  0
   -0.7088   -3.2286    0.7736 O   0  0  0  0  0  0  0  0  0  0  0  0
   -1.1378   -1.4598   -0.5657 N   0  0  0  0  0  0  0  0  0  0  0  0
   -1.7914   -1.0869   -1.2471 H   0  0  0  0  0  0  0  0  0  0  0  0
    0.1884   -0.8198   -0.4487 C   0  0  1  0  0  0  0  0  0  0  0  0
    0.9241   -1.5288   -0.8377 H   0  0  0  0  0  0  0  0  0  0  0  0
    0.1529    0.4632   -1.3204 C   0  0  0  0  0  0  0  0  0  0  0  0
   -0.5681    0.2933   -2.1267 H   0  0  0  0  0  0  0  0  0  0  0  0
   -0.2541    1.2816   -0.7170 H   0  0  0  0  0  0  0  0  0  0  0  0
    1.4771    0.9602   -1.9772 C   0  0  0  0  0  0  0  0  0  0  0  0
    1.6739    1.9618   -1.5790 H   0  0  0  0  0  0  0  0  0  0  0  0
    2.7414    0.1288   -1.7112 C   0  0  0  0  0  0  0  0  0  0  0  0
    2.6292   -0.8927   -2.0861 H   0  0  0  0  0  0  0  0  0  0  0  0
    3.6004    0.5807   -2.2166 H   0  0  0  0  0  0  0  0  0  0  0  0
    2.9721    0.0965   -0.6451 H   0  0  0  0  0  0  0  0  0  0  0  0
    1.2939    1.0920   -3.4961 C   0  0  0  0  0  0  0  0  0  0  0  0
    0.4526    1.7541   -3.7241 H   0  0  0  0  0  0  0  0  0  0  0  0
    2.1928    1.5159   -3.9549 H   0  0  0  0  0  0  0  0  0  0  0  0
    1.1026    0.1132   -3.9476 H   0  0  0  0  0  0  0  0  0  0  0  0
    0.5795   -0.4888    1.0140 C   0  0  0  0  0  0  0  0  0  0  0  0
    1.7308   -0.6219    1.4054 O   0  0  0  0  0  0  0  0  0  0  0  0
   -0.3486    0.0980    1.8570 N   0  0  0  0  0  0  0  0  0  0  0  0
   -1.3136    0.0718    1.5461 H   0  0  0  0  0  0  0  0  0  0  0  0
   -0.0717    0.3844    3.2590 C   0  0  0  0  0  0  0  0  0  0  0  0
    0.7824    1.0638    3.3506 H   0  0  0  0  0  0  0  0  0  0  0  0
   -0.9394    0.8585    3.7271 H   0  0  0  0  0  0  0  0  0  0  0  0
    0.1543   -0.5403    3.8004 H   0  0  0  0  0  0  0  0  0  0  0  0
  1  2  1  0  0  0  0
  2  3  1  0  0  0  0
  2  4  1  0  0  0  0
  2  5  1  0  0  0  0
  5  6  2  0  0  0  0
  5  7  1  0  0  0  0
  7  8  1  0  0  0  0
  7  9  1  0  0  0  0
  9 10  1  0  0  0  0
  9 11  1  0  0  0  0
  9 24  1  0  0  0  0
 11 12  1  0  0  0  0
 11 13  1  0  0  0  0
 11 14  1  0  0  0  0
 14 15  1  0  0  0  0
 14 16  1  0  0  0  0
 14 20  1  0  0  0  0
 16 17  1  0  0  0  0
 16 18  1  0  0  0  0
 16 19  1  0  0  0  0
 20 21  1  0  0  0  0
 20 22  1  0  0  0  0
 20 23  1  0  0  0  0
 24 25  2  0  0  0  0
 24 26  1  0  0  0  0
 26 27  1  0  0  0  0
 26 28  1  0  0  0  0
 28 29  1  0  0  0  0
 28 30  1  0  0  0  0
 28 31  1  0  0  0  0
M  END
$$$$

  -OEChem-04042216013D

 31 30  0     1  0  0  0  0  0999 V2000
   -2.9179   -4.2738    0.2323 H   0  0  0  0  0  0  0  0  0  0  0  0
   -2.8427   -3.3058   -0.2715 C   0  0  0  0  0  0  0  0  0  0  0  0
   -3.6408   -2.6559    0.0951 H   0  0  0  0  0  0  0  0  0  0  0  0
   -2.9698   -3.4590   -1.3459 H   0  0  0  0  0  0  0  0  0  0  0  0
   -1.4908   -2.6764    0.0084 C   0  0  0  0  0  0  0  0  0  0  0  0
   -0.7066   -3.2348    0.7535 O   0  0  0  0  0  0  0  0  0  0  0  0
   -1.1644   -1.4688   -0.5779 N   0  0  0  0  0  0  0  0  0  0  0  0
   -1.8263   -1.0975   -1.2522 H   0  0  0  0  0  0  0  0  0  0  0  0
    0.1561   -0.8182   -0.4658 C   0  0  1  0  0  0  0  0  0  0  0  0
    0.8853   -1.5309   -0.8594 H   0  0  0  0  0  0  0  0  0  0  0  0
    0.1289    0.4693   -1.3278 C   0  0  0  0  0  0  0  0  0  0  0  0
   -0.5693    0.2861   -2.1512 H   0  0  0  0  0  0  0  0  0  0  0  0
   -0.2945    1.2907   -0.7399 H   0  0  0  0  0  0  0  0  0  0  0  0
    1.4649    0.9503   -1.9653 C   0  0  0  0  0  0  0  0  0  0  0  0
    1.8176    1.7915   -1.3584 H   0  0  0  0  0  0  0  0  0  0  0  0
    2.6178   -0.0653   -1.9935 C   0  0  0  0  0  0  0  0  0  0  0  0
    2.3312   -0.9617   -2.5520 H   0  0  0  0  0  0  0  0  0  0  0  0
    3.4951    0.3736   -2.4790 H   0  0  0  0  0  0  0  0  0  0  0  0
    2.9131   -0.3555   -0.9821 H   0  0  0  0  0  0  0  0  0  0  0  0
    1.2141    1.4715   -3.3864 C   0  0  0  0  0  0  0  0  0  0  0  0
    0.4382    2.2434   -3.3782 H   0  0  0  0  0  0  0  0  0  0  0  0
    2.1277    1.9106   -3.7994 H   0  0  0  0  0  0  0  0  0  0  0  0
    0.8926    0.6581   -4.0446 H   0  0  0  0  0  0  0  0  0  0  0  0
    0.5769   -0.4836    0.9857 C   0  0  0  0  0  0  0  0  0  0  0  0
    1.7511   -0.5467    1.3243 O   0  0  0  0  0  0  0  0  0  0  0  0
   -0.3374    0.0960    1.8478 N   0  0  0  0  0  0  0  0  0  0  0  0
   -1.3116    0.0334    1.5726 H   0  0  0  0  0  0  0  0  0  0  0  0
   -0.0201    0.4273    3.2310 C   0  0  0  0  0  0  0  0  0  0  0  0
    0.8136    1.1360    3.2745 H   0  0  0  0  0  0  0  0  0  0  0  0
   -0.8862    0.8852    3.7179 H   0  0  0  0  0  0  0  0  0  0  0  0
    0.2552   -0.4754    3.7865 H   0  0  0  0  0  0  0  0  0  0  0  0
  1  2  1  0  0  0  0
  2  3  1  0  0  0  0
  2  4  1  0  0  0  0
  2  5  1  0  0  0  0
  5  6  2  0  0  0  0
  5  7  1  0  0  0  0
  7  8  1  0  0  0  0
  7  9  1  0  0  0  0
  9 10  1  0  0  0  0
  9 11  1  0  0  0  0
  9 24  1  0  0  0  0
 11 12  1  0  0  0  0
 11 13  1  0  0  0  0
 11 14  1  0  0  0  0
 14 15  1  0  0  0  0
 14 16  1  0  0  0  0
 14 20  1  0  0  0  0
 16 17  1  0  0  0  0
 16 18  1  0  0  0  0
 16 19  1  0  0  0  0
 20 21  1  0  0  0  0
 20 22  1  0  0  0  0
 20 23  1  0  0  0  0
 24 25  2  0  0  0  0
 24 26  1  0  0  0  0
 26 27  1  0  0  0  0
 26 28  1  0  0  0  0
 28 29  1  0  0  0  0
 28 30  1  0  0  0  0
 28 31  1  0  0  0  0
M  END
$$$$

  -OEChem-04042216013D

 31 30  0     1  0  0  0  0  0999 V2000
   -2.8981   -4.3042    0.1858 H   0  0  0  0  0  0  0  0  0  0  0  0
   -2.8377   -3.3313   -0.3103 C   0  0  0  0  0  0  0  0  0  0  0  0
   -3.6479   -2.6977    0.0580 H   0  0  0  0  0  0  0  0  0  0  0  0
   -2.9580   -3.4784   -1.3862 H   0  0  0  0  0  0  0  0  0  0  0  0
   -1.4982   -2.6810   -0.0203 C   0  0  0  0  0  0  0  0  0  0  0  0
   -0.7074   -3.2295    0.7255 O   0  0  0  0  0  0  0  0  0  0  0  0
   -1.1927   -1.4610   -0.5915 N   0  0  0  0  0  0  0  0  0  0  0  0
   -1.8581   -1.0950   -1.2654 H   0  0  0  0  0  0  0  0  0  0  0  0
    0.1198   -0.7969   -0.4766 C   0  0  1  0  0  0  0  0  0  0  0  0
    0.8446   -1.5101   -0.8758 H   0  0  0  0  0  0  0  0  0  0  0  0
    0.0952    0.4901   -1.3363 C   0  0  0  0  0  0  0  0  0  0  0  0
   -0.5849    0.3047   -2.1744 H   0  0  0  0  0  0  0  0  0  0  0  0
   -0.3357    1.3122   -0.7549 H   0  0  0  0  0  0  0  0  0  0  0  0
    1.4439    0.9556   -1.9477 C   0  0  0  0  0  0  0  0  0  0  0  0
    1.9270    1.6014   -1.2060 H   0  0  0  0  0  0  0  0  0  0  0  0
    2.4503   -0.1583   -2.2733 C   0  0  0  0  0  0  0  0  0  0  0  0
    1.9905   -0.9209   -2.9096 H   0  0  0  0  0  0  0  0  0  0  0  0
    3.3165    0.2543   -2.7998 H   0  0  0  0  0  0  0  0  0  0  0  0
    2.8179   -0.6310   -1.3575 H   0  0  0  0  0  0  0  0  0  0  0  0
    1.1793    1.7944   -3.2039 C   0  0  0  0  0  0  0  0  0  0  0  0
    0.4922    2.6155   -2.9764 H   0  0  0  0  0  0  0  0  0  0  0  0
    2.1132    2.2247   -3.5789 H   0  0  0  0  0  0  0  0  0  0  0  0
    0.7397    1.1786   -3.9950 H   0  0  0  0  0  0  0  0  0  0  0  0
    0.5724   -0.4663    0.9634 C   0  0  0  0  0  0  0  0  0  0  0  0
    1.7625   -0.4865    1.2493 O   0  0  0  0  0  0  0  0  0  0  0  0
   -0.3228    0.0986    1.8543 N   0  0  0  0  0  0  0  0  0  0  0  0
   -1.3052    0.0059    1.6193 H   0  0  0  0  0  0  0  0  0  0  0  0
    0.0407    0.4531    3.2203 C   0  0  0  0  0  0  0  0  0  0  0  0
    0.8634    1.1759    3.2234 H   0  0  0  0  0  0  0  0  0  0  0  0
   -0.8137    0.9034    3.7344 H   0  0  0  0  0  0  0  0  0  0  0  0
    0.3520   -0.4376    3.7759 H   0  0  0  0  0  0  0  0  0  0  0  0
  1  2  1  0  0  0  0
  2  3  1  0  0  0  0
  2  4  1  0  0  0  0
  2  5  1  0  0  0  0
  5  6  2  0  0  0  0
  5  7  1  0  0  0  0
  7  8  1  0  0  0  0
  7  9  1  0  0  0  0
  9 10  1  0  0  0  0
  9 11  1  0  0  0  0
  9 24  1  0  0  0  0
 11 12  1  0  0  0  0
 11 13  1  0  0  0  0
 11 14  1  0  0  0  0
 14 15  1  0  0  0  0
 14 16  1  0  0  0  0
 14 20  1  0  0  0  0
 16 17  1  0  0  0  0
 16 18  1  0  0  0  0
 16 19  1  0  0  0  0
 20 21  1  0  0  0  0
 20 22  1  0  0  0  0
 20 23  1  0  0  0  0
 24 25  2  0  0  0  0
 24 26  1  0  0  0  0
 26 27  1  0  0  0  0
 26 28  1  0  0  0  0
 28 29  1  0  0  0  0
 28 30  1  0  0  0  0
 28 31  1  0  0  0  0
M  END
$$$$

  -OEChem-04042216013D

 31 30  0     1  0  0  0  0  0999 V2000
   -2.8760   -4.3109    0.1556 H   0  0  0  0  0  0  0  0  0  0  0  0
   -2.8232   -3.3339   -0.3333 C   0  0  0  0  0  0  0  0  0  0  0  0
   -3.6408   -2.7108    0.0365 H   0  0  0  0  0  0  0  0  0  0  0  0
   -2.9382   -3.4747   -1.4107 H   0  0  0  0  0  0  0  0  0  0  0  0
   -1.4907   -2.6727   -0.0348 C   0  0  0  0  0  0  0  0  0  0  0  0
   -0.6963   -3.2194    0.7085 O   0  0  0  0  0  0  0  0  0  0  0  0
   -1.1949   -1.4466   -0.5980 N   0  0  0  0  0  0  0  0  0  0  0  0
   -1.8621   -1.0835   -1.2717 H   0  0  0  0  0  0  0  0  0  0  0  0
    0.1137   -0.7752   -0.4831 C   0  0  1  0  0  0  0  0  0  0  0  0
    0.8441   -1.4790   -0.8884 H   0  0  0  0  0  0  0  0  0  0  0  0
    0.0792    0.5138   -1.3366 C   0  0  0  0  0  0  0  0  0  0  0  0
   -0.5999    0.3416   -2.1783 H   0  0  0  0  0  0  0  0  0  0  0  0
   -0.3445    1.3323   -0.7449 H   0  0  0  0  0  0  0  0  0  0  0  0
    1.4334    0.9661   -1.9353 C   0  0  0  0  0  0  0  0  0  0  0  0
    2.0347    1.3907   -1.1235 H   0  0  0  0  0  0  0  0  0  0  0  0
    2.2616   -0.1593   -2.5742 C   0  0  0  0  0  0  0  0  0  0  0  0
    1.6461   -0.7505   -3.2593 H   0  0  0  0  0  0  0  0  0  0  0  0
    3.1023    0.2589   -3.1369 H   0  0  0  0  0  0  0  0  0  0  0  0
    2.6790   -0.8199   -1.8084 H   0  0  0  0  0  0  0  0  0  0  0  0
    1.1819    2.0692   -2.9703 C   0  0  0  0  0  0  0  0  0  0  0  0
    0.6153    2.8911   -2.5218 H   0  0  0  0  0  0  0  0  0  0  0  0
    2.1312    2.4704   -3.3385 H   0  0  0  0  0  0  0  0  0  0  0  0
    0.6164    1.6788   -3.8224 H   0  0  0  0  0  0  0  0  0  0  0  0
    0.5741   -0.4505    0.9553 C   0  0  0  0  0  0  0  0  0  0  0  0
    1.7674   -0.4634    1.2286 O   0  0  0  0  0  0  0  0  0  0  0  0
   -0.3171    0.1037    1.8569 N   0  0  0  0  0  0  0  0  0  0  0  0
   -1.3009    0.0065    1.6291 H   0  0  0  0  0  0  0  0  0  0  0  0
    0.0553    0.4517    3.2221 C   0  0  0  0  0  0  0  0  0  0  0  0
    0.8707    1.1828    3.2234 H   0  0  0  0  0  0  0  0  0  0  0  0
   -0.7988    0.8892    3.7472 H   0  0  0  0  0  0  0  0  0  0  0  0
    0.3807   -0.4399    3.7682 H   0  0  0  0  0  0  0  0  0  0  0  0
  1  2  1  0  0  0  0
  2  3  1  0  0  0  0
  2  4  1  0  0  0  0
  2  5  1  0  0  0  0
  5  6  2  0  0  0  0
  5  7  1  0  0  0  0
  7  8  1  0  0  0  0
  7  9  1  0  0  0  0
  9 10  1  0  0  0  0
  9 11  1  0  0  0  0
  9 24  1  0  0  0  0
 11 12  1  0  0  0  0
 11 13  1  0  0  0  0
 11 14  1  0  0  0  0
 14 15  1  0  0  0  0
 14 16  1  0  0  0  0
 14 20  1  0  0  0  0
 16 17  1  0  0  0  0
 16 18  1  0  0  0  0
 16 19  1  0  0  0  0
 20 21  1  0  0  0  0
 20 22  1  0  0  0  0
 20 23  1  0  0  0  0
 24 25  2  0  0  0  0
 24 26  1  0  0  0  0
 26 27  1  0  0  0  0
 26 28  1  0  0  0  0
 28 29  1  0  0  0  0
 28 30  1  0  0  0  0
 28 31  1  0  0  0  0
M  END
$$$$

  -OEChem-04042216013D

 31 30  0     1  0  0  0  0  0999 V2000
   -2.8452   -4.3161    0.1339 H   0  0  0  0  0  0  0  0  0  0  0  0
   -2.8012   -3.3359   -0.3496 C   0  0  0  0  0  0  0  0  0  0  0  0
   -3.6269   -2.7237    0.0207 H   0  0  0  0  0  0  0  0  0  0  0  0
   -2.9107   -3.4720   -1.4283 H   0  0  0  0  0  0  0  0  0  0  0  0
   -1.4769   -2.6622   -0.0426 C   0  0  0  0  0  0  0  0  0  0  0  0
   -0.6788   -3.2058    0.6988 O   0  0  0  0  0  0  0  0  0  0  0  0
   -1.1905   -1.4316   -0.6007 N   0  0  0  0  0  0  0  0  0  0  0  0
   -1.8575   -1.0748   -1.2781 H   0  0  0  0  0  0  0  0  0  0  0  0
    0.1147   -0.7538   -0.4876 C   0  0  1  0  0  0  0  0  0  0  0  0
    0.8559   -1.4429   -0.8995 H   0  0  0  0  0  0  0  0  0  0  0  0
    0.0656    0.5387   -1.3332 C   0  0  0  0  0  0  0  0  0  0  0  0
   -0.6215    0.3879   -2.1722 H   0  0  0  0  0  0  0  0  0  0  0  0
   -0.3445    1.3505   -0.7229 H   0  0  0  0  0  0  0  0  0  0  0  0
    1.4254    0.9752   -1.9224 C   0  0  0  0  0  0  0  0  0  0  0  0
    2.1238    1.1583   -1.0979 H   0  0  0  0  0  0  0  0  0  0  0  0
    2.0492   -0.0737   -2.8567 C   0  0  0  0  0  0  0  0  0  0  0  0
    1.3217   -0.4069   -3.6031 H   0  0  0  0  0  0  0  0  0  0  0  0
    2.9121    0.3501   -3.3798 H   0  0  0  0  0  0  0  0  0  0  0  0
    2.4025   -0.9427   -2.2954 H   0  0  0  0  0  0  0  0  0  0  0  0
    1.2383    2.2879   -2.6925 C   0  0  0  0  0  0  0  0  0  0  0  0
    0.8166    3.0582   -2.0392 H   0  0  0  0  0  0  0  0  0  0  0  0
    2.2006    2.6501   -3.0681 H   0  0  0  0  0  0  0  0  0  0  0  0
    0.5647    2.1450   -3.5435 H   0  0  0  0  0  0  0  0  0  0  0  0
    0.5748   -0.4362    0.9533 C   0  0  0  0  0  0  0  0  0  0  0  0
    1.7679   -0.4485    1.2272 O   0  0  0  0  0  0  0  0  0  0  0  0
   -0.3175    0.1070    1.8607 N   0  0  0  0  0  0  0  0  0  0  0  0
   -1.3013    0.0085    1.6338 H   0  0  0  0  0  0  0  0  0  0  0  0
    0.0562    0.4468    3.2278 C   0  0  0  0  0  0  0  0  0  0  0  0
    0.8658    1.1843    3.2322 H   0  0  0  0  0  0  0  0  0  0  0  0
   -0.7996    0.8732    3.7596 H   0  0  0  0  0  0  0  0  0  0  0  0
    0.3903   -0.4469    3.7655 H   0  0  0  0  0  0  0  0  0  0  0  0
  1  2  1  0  0  0  0
  2  3  1  0  0  0  0
  2  4  1  0  0  0  0
  2  5  1  0  0  0  0
  5  6  2  0  0  0  0
  5  7  1  0  0  0  0
  7  8  1  0  0  0  0
  7  9  1  0  0  0  0
  9 10  1  0  0  0  0
  9 11  1  0  0  0  0
  9 24  1  0  0  0  0
 11 12  1  0  0  0  0
 11 13  1  0  0  0  0
 11 14  1  0  0  0  0
 14 15  1  0  0  0  0
 14 16  1  0  0  0  0
 14 20  1  0  0  0  0
 16 17  1  0  0  0  0
 16 18  1  0  0  0  0
 16 19  1  0  0  0  0
 20 21  1  0  0  0  0
 20 22  1  0  0  0  0
 20 23  1  0  0  0  0
 24 25  2  0  0  0  0
 24 26  1  0  0  0  0
 26 27  1  0  0  0  0
 26 28  1  0  0  0  0
 28 29  1  0  0  0  0
 28 30  1  0  0  0  0
 28 31  1  0  0  0  0
M  END
$$$$

  -OEChem-04042216013D

 31 30  0     1  0  0  0  0  0999 V2000
   -2.8057   -4.3146    0.1530 H   0  0  0  0  0  0  0  0  0  0  0  0
   -2.7720   -3.3364   -0.3353 C   0  0  0  0  0  0  0  0  0  0  0  0
   -3.5939   -2.7253    0.0452 H   0  0  0  0  0  0  0  0  0  0  0  0
   -2.8978   -3.4776   -1.4114 H   0  0  0  0  0  0  0  0  0  0  0  0
   -1.4449   -2.6580   -0.0518 C   0  0  0  0  0  0  0  0  0  0  0  0
   -0.6300   -3.2018    0.6709 O   0  0  0  0  0  0  0  0  0  0  0  0
   -1.1762   -1.4218   -0.6066 N   0  0  0  0  0  0  0  0  0  0  0  0
   -1.8594   -1.0608   -1.2654 H   0  0  0  0  0  0  0  0  0  0  0  0
    0.1213   -0.7283   -0.4984 C   0  0  1  0  0  0  0  0  0  0  0  0
    0.8775   -1.3971   -0.9203 H   0  0  0  0  0  0  0  0  0  0  0  0
    0.0508    0.5653   -1.3383 C   0  0  0  0  0  0  0  0  0  0  0  0
   -0.6439    0.4290   -2.1738 H   0  0  0  0  0  0  0  0  0  0  0  0
   -0.3513    1.3707   -0.7140 H   0  0  0  0  0  0  0  0  0  0  0  0
    1.4193    0.9847   -1.9150 C   0  0  0  0  0  0  0  0  0  0  0  0
    2.1826    0.9130   -1.1322 H   0  0  0  0  0  0  0  0  0  0  0  0
    1.8350    0.0981   -3.0987 C   0  0  0  0  0  0  0  0  0  0  0  0
    1.0806    0.1295   -3.8910 H   0  0  0  0  0  0  0  0  0  0  0  0
    2.7868    0.4441   -3.5136 H   0  0  0  0  0  0  0  0  0  0  0  0
    1.9654   -0.9409   -2.7848 H   0  0  0  0  0  0  0  0  0  0  0  0
    1.3497    2.4428   -2.3830 C   0  0  0  0  0  0  0  0  0  0  0  0
    1.1034    3.1013   -1.5440 H   0  0  0  0  0  0  0  0  0  0  0  0
    2.3150    2.7584   -2.7911 H   0  0  0  0  0  0  0  0  0  0  0  0
    0.5870    2.5656   -3.1584 H   0  0  0  0  0  0  0  0  0  0  0  0
    0.5747   -0.4158    0.9462 C   0  0  0  0  0  0  0  0  0  0  0  0
    1.7657   -0.4256    1.2289 O   0  0  0  0  0  0  0  0  0  0  0  0
   -0.3280    0.1090    1.8541 N   0  0  0  0  0  0  0  0  0  0  0  0
   -1.3092    0.0082    1.6171 H   0  0  0  0  0  0  0  0  0  0  0  0
    0.0320    0.4244    3.2305 C   0  0  0  0  0  0  0  0  0  0  0  0
    0.8384    1.1648    3.2561 H   0  0  0  0  0  0  0  0  0  0  0  0
   -0.8304    0.8368    3.7624 H   0  0  0  0  0  0  0  0  0  0  0  0
    0.3653   -0.4778    3.7541 H   0  0  0  0  0  0  0  0  0  0  0  0
  1  2  1  0  0  0  0
  2  3  1  0  0  0  0
  2  4  1  0  0  0  0
  2  5  1  0  0  0  0
  5  6  2  0  0  0  0
  5  7  1  0  0  0  0
  7  8  1  0  0  0  0
  7  9  1  0  0  0  0
  9 10  1  0  0  0  0
  9 11  1  0  0  0  0
  9 24  1  0  0  0  0
 11 12  1  0  0  0  0
 11 13  1  0  0  0  0
 11 14  1  0  0  0  0
 14 15  1  0  0  0  0
 14 16  1  0  0  0  0
 14 20  1  0  0  0  0
 16 17  1  0  0  0  0
 16 18  1  0  0  0  0
 16 19  1  0  0  0  0
 20 21  1  0  0  0  0
 20 22  1  0  0  0  0
 20 23  1  0  0  0  0
 24 25  2  0  0  0  0
 24 26  1  0  0  0  0
 26 27  1  0  0  0  0
 26 28  1  0  0  0  0
 28 29  1  0  0  0  0
 28 30  1  0  0  0  0
 28 31  1  0  0  0  0
M  END
$$$$

  -OEChem-04042216013D

 31 30  0     1  0  0  0  0  0999 V2000
   -2.7827   -4.3237    0.1362 H   0  0  0  0  0  0  0  0  0  0  0  0
   -2.7570   -3.3420   -0.3457 C   0  0  0  0  0  0  0  0  0  0  0  0
   -3.5851   -2.7406    0.0368 H   0  0  0  0  0  0  0  0  0  0  0  0
   -2.8790   -3.4771   -1.4230 H   0  0  0  0  0  0  0  0  0  0  0  0
   -1.4367   -2.6534   -0.0551 C   0  0  0  0  0  0  0  0  0  0  0  0
   -0.6202   -3.1918    0.6699 O   0  0  0  0  0  0  0  0  0  0  0  0
   -1.1760   -1.4138   -0.6062 N   0  0  0  0  0  0  0  0  0  0  0  0
   -1.8595   -1.0584   -1.2675 H   0  0  0  0  0  0  0  0  0  0  0  0
    0.1179   -0.7136   -0.4997 C   0  0  1  0  0  0  0  0  0  0  0  0
    0.8782   -1.3714   -0.9352 H   0  0  0  0  0  0  0  0  0  0  0  0
    0.0382    0.5799   -1.3362 C   0  0  0  0  0  0  0  0  0  0  0  0
   -0.6632    0.4527   -2.1673 H   0  0  0  0  0  0  0  0  0  0  0  0
   -0.3599    1.3820   -0.7049 H   0  0  0  0  0  0  0  0  0  0  0  0
    1.4162    0.9848   -1.9033 C   0  0  0  0  0  0  0  0  0  0  0  0
    2.2124    0.6668   -1.2209 H   0  0  0  0  0  0  0  0  0  0  0  0
    1.6445    0.3459   -3.2793 C   0  0  0  0  0  0  0  0  0  0  0  0
    0.8883    0.6810   -3.9962 H   0  0  0  0  0  0  0  0  0  0  0  0
    2.6319    0.6186   -3.6647 H   0  0  0  0  0  0  0  0  0  0  0  0
    1.5962   -0.7449   -3.2066 H   0  0  0  0  0  0  0  0  0  0  0  0
    1.4933    2.5091   -2.0454 C   0  0  0  0  0  0  0  0  0  0  0  0
    1.3867    2.9885   -1.0671 H   0  0  0  0  0  0  0  0  0  0  0  0
    2.4601    2.8040   -2.4653 H   0  0  0  0  0  0  0  0  0  0  0  0
    0.7002    2.8780   -2.7035 H   0  0  0  0  0  0  0  0  0  0  0  0
    0.5728   -0.4044    0.9455 C   0  0  0  0  0  0  0  0  0  0  0  0
    1.7639   -0.4124    1.2282 O   0  0  0  0  0  0  0  0  0  0  0  0
   -0.3315    0.1116    1.8564 N   0  0  0  0  0  0  0  0  0  0  0  0
   -1.3123    0.0050    1.6205 H   0  0  0  0  0  0  0  0  0  0  0  0
    0.0288    0.4241    3.2333 C   0  0  0  0  0  0  0  0  0  0  0  0
    0.8298    1.1705    3.2600 H   0  0  0  0  0  0  0  0  0  0  0  0
   -0.8357    0.8282    3.7683 H   0  0  0  0  0  0  0  0  0  0  0  0
    0.3699   -0.4775    3.7529 H   0  0  0  0  0  0  0  0  0  0  0  0
  1  2  1  0  0  0  0
  2  3  1  0  0  0  0
  2  4  1  0  0  0  0
  2  5  1  0  0  0  0
  5  6  2  0  0  0  0
  5  7  1  0  0  0  0
  7  8  1  0  0  0  0
  7  9  1  0  0  0  0
  9 10  1  0  0  0  0
  9 11  1  0  0  0  0
  9 24  1  0  0  0  0
 11 12  1  0  0  0  0
 11 13  1  0  0  0  0
 11 14  1  0  0  0  0
 14 15  1  0  0  0  0
 14 16  1  0  0  0  0
 14 20  1  0  0  0  0
 16 17  1  0  0  0  0
 16 18  1  0  0  0  0
 16 19  1  0  0  0  0
 20 21  1  0  0  0  0
 20 22  1  0  0  0  0
 20 23  1  0  0  0  0
 24 25  2  0  0  0  0
 24 26  1  0  0  0  0
 26 27  1  0  0  0  0
 26 28  1  0  0  0  0
 28 29  1  0  0  0  0
 28 30  1  0  0  0  0
 28 31  1  0  0  0  0
M  END
$$$$

  -OEChem-04042216013D

 31 30  0     1  0  0  0  0  0999 V2000
   -2.7824   -4.3318    0.1357 H   0  0  0  0  0  0  0  0  0  0  0  0
   -2.7610   -3.3500   -0.3459 C   0  0  0  0  0  0  0  0  0  0  0  0
   -3.5914   -2.7523    0.0375 H   0  0  0  0  0  0  0  0  0  0  0  0
   -2.8836   -3.4858   -1.4230 H   0  0  0  0  0  0  0  0  0  0  0  0
   -1.4431   -2.6563   -0.0560 C   0  0  0  0  0  0  0  0  0  0  0  0
   -0.6229   -3.1936    0.6657 O   0  0  0  0  0  0  0  0  0  0  0  0
   -1.1867   -1.4153   -0.6061 N   0  0  0  0  0  0  0  0  0  0  0  0
   -1.8731   -1.0591   -1.2640 H   0  0  0  0  0  0  0  0  0  0  0  0
    0.1061   -0.7127   -0.5003 C   0  0  1  0  0  0  0  0  0  0  0  0
    0.8628   -1.3733   -0.9386 H   0  0  0  0  0  0  0  0  0  0  0  0
    0.0308    0.5795   -1.3379 C   0  0  0  0  0  0  0  0  0  0  0  0
   -0.6676    0.4439   -2.1702 H   0  0  0  0  0  0  0  0  0  0  0  0
   -0.3773    1.3827   -0.7145 H   0  0  0  0  0  0  0  0  0  0  0  0
    1.4148    0.9813   -1.9014 C   0  0  0  0  0  0  0  0  0  0  0  0
    2.2100    0.4385   -1.3779 H   0  0  0  0  0  0  0  0  0  0  0  0
    1.5028    0.6640   -3.3992 C   0  0  0  0  0  0  0  0  0  0  0  0
    0.7538    1.2293   -3.9629 H   0  0  0  0  0  0  0  0  0  0  0  0
    2.4941    0.9218   -3.7848 H   0  0  0  0  0  0  0  0  0  0  0  0
    1.3361   -0.4041   -3.5703 H   0  0  0  0  0  0  0  0  0  0  0  0
    1.6550    2.4807   -1.6910 C   0  0  0  0  0  0  0  0  0  0  0  0
    1.6396    2.7210   -0.6230 H   0  0  0  0  0  0  0  0  0  0  0  0
    2.6319    2.7699   -2.0911 H   0  0  0  0  0  0  0  0  0  0  0  0
    0.8832    3.0719   -2.1940 H   0  0  0  0  0  0  0  0  0  0  0  0
    0.5686   -0.4014    0.9421 C   0  0  0  0  0  0  0  0  0  0  0  0
    1.7621   -0.3993    1.2144 O   0  0  0  0  0  0  0  0  0  0  0  0
   -0.3309    0.1139    1.8582 N   0  0  0  0  0  0  0  0  0  0  0  0
   -1.3132    0.0061    1.6290 H   0  0  0  0  0  0  0  0  0  0  0  0
    0.0379    0.4388    3.2302 C   0  0  0  0  0  0  0  0  0  0  0  0
    0.8370    1.1876    3.2458 H   0  0  0  0  0  0  0  0  0  0  0  0
   -0.8242    0.8450    3.7675 H   0  0  0  0  0  0  0  0  0  0  0  0
    0.3848   -0.4576    3.7549 H   0  0  0  0  0  0  0  0  0  0  0  0
  1  2  1  0  0  0  0
  2  3  1  0  0  0  0
  2  4  1  0  0  0  0
  2  5  1  0  0  0  0
  5  6  2  0  0  0  0
  5  7  1  0  0  0  0
  7  8  1  0  0  0  0
  7  9  1  0  0  0  0
  9 10  1  0  0  0  0
  9 11  1  0  0  0  0
  9 24  1  0  0  0  0
 11 12  1  0  0  0  0
 11 13  1  0  0  0  0
 11 14  1  0  0  0  0
 14 15  1  0  0  0  0
 14 16  1  0  0  0  0
 14 20  1  0  0  0  0
 16 17  1  0  0  0  0
 16 18  1  0  0  0  0
 16 19  1  0  0  0  0
 20 21  1  0  0  0  0
 20 22  1  0  0  0  0
 20 23  1  0  0  0  0
 24 25  2  0  0  0  0
 24 26  1  0  0  0  0
 26 27  1  0  0  0  0
 26 28  1  0  0  0  0
 28 29  1  0  0  0  0
 28 30  1  0  0  0  0
 28 31  1  0  0  0  0
M  END
$$$$

  -OEChem-04042216013D

 31 30  0     1  0  0  0  0  0999 V2000
   -2.7936   -4.3331    0.1381 H   0  0  0  0  0  0  0  0  0  0  0  0
   -2.7690   -3.3517   -0.3445 C   0  0  0  0  0  0  0  0  0  0  0  0
   -3.5983   -2.7514    0.0370 H   0  0  0  0  0  0  0  0  0  0  0  0
   -2.8906   -3.4878   -1.4219 H   0  0  0  0  0  0  0  0  0  0  0  0
   -1.4502   -2.6602   -0.0525 C   0  0  0  0  0  0  0  0  0  0  0  0
   -0.6337   -3.1954    0.6748 O   0  0  0  0  0  0  0  0  0  0  0  0
   -1.1900   -1.4211   -0.6048 N   0  0  0  0  0  0  0  0  0  0  0  0
   -1.8738   -1.0663   -1.2661 H   0  0  0  0  0  0  0  0  0  0  0  0
    0.1038   -0.7201   -0.4982 C   0  0  1  0  0  0  0  0  0  0  0  0
    0.8566   -1.3871   -0.9330 H   0  0  0  0  0  0  0  0  0  0  0  0
    0.0320    0.5723   -1.3372 C   0  0  0  0  0  0  0  0  0  0  0  0
   -0.6577    0.4156   -2.1730 H   0  0  0  0  0  0  0  0  0  0  0  0
   -0.3930    1.3797   -0.7310 H   0  0  0  0  0  0  0  0  0  0  0  0
    1.4142    0.9817   -1.9042 C   0  0  0  0  0  0  0  0  0  0  0  0
    2.1775    0.2576   -1.5981 H   0  0  0  0  0  0  0  0  0  0  0  0
    1.3867    1.0238   -3.4366 C   0  0  0  0  0  0  0  0  0  0  0  0
    0.6509    1.7524   -3.7916 H   0  0  0  0  0  0  0  0  0  0  0  0
    2.3699    1.3051   -3.8267 H   0  0  0  0  0  0  0  0  0  0  0  0
    1.1275    0.0395   -3.8388 H   0  0  0  0  0  0  0  0  0  0  0  0
    1.8276    2.3541   -1.3599 C   0  0  0  0  0  0  0  0  0  0  0  0
    1.8792    2.3283   -0.2666 H   0  0  0  0  0  0  0  0  0  0  0  0
    2.8145    2.6340   -1.7415 H   0  0  0  0  0  0  0  0  0  0  0  0
    1.1086    3.1237   -1.6581 H   0  0  0  0  0  0  0  0  0  0  0  0
    0.5699   -0.4031    0.9407 C   0  0  0  0  0  0  0  0  0  0  0  0
    1.7649   -0.3949    1.2064 O   0  0  0  0  0  0  0  0  0  0  0  0
   -0.3266    0.1180    1.8566 N   0  0  0  0  0  0  0  0  0  0  0  0
   -1.3097    0.0048    1.6334 H   0  0  0  0  0  0  0  0  0  0  0  0
    0.0478    0.4569    3.2235 C   0  0  0  0  0  0  0  0  0  0  0  0
    0.8444    1.2083    3.2278 H   0  0  0  0  0  0  0  0  0  0  0  0
   -0.8132    0.8659    3.7607 H   0  0  0  0  0  0  0  0  0  0  0  0
    0.3999   -0.4333    3.7554 H   0  0  0  0  0  0  0  0  0  0  0  0
  1  2  1  0  0  0  0
  2  3  1  0  0  0  0
  2  4  1  0  0  0  0
  2  5  1  0  0  0  0
  5  6  2  0  0  0  0
  5  7  1  0  0  0  0
  7  8  1  0  0  0  0
  7  9  1  0  0  0  0
  9 10  1  0  0  0  0
  9 11  1  0  0  0  0
  9 24  1  0  0  0  0
 11 12  1  0  0  0  0
 11 13  1  0  0  0  0
 11 14  1  0  0  0  0
 14 15  1  0  0  0  0
 14 16  1  0  0  0  0
 14 20  1  0  0  0  0
 16 17  1  0  0  0  0
 16 18  1  0  0  0  0
 16 19  1  0  0  0  0
 20 21  1  0  0  0  0
 20 22  1  0  0  0  0
 20 23  1  0  0  0  0
 24 25  2  0  0  0  0
 24 26  1  0  0  0  0
 26 27  1  0  0  0  0
 26 28  1  0  0  0  0
 28 29  1  0  0  0  0
 28 30  1  0  0  0  0
 28 31  1  0  0  0  0
M  END
$$$$

  -OEChem-04042216013D

 31 30  0     1  0  0  0  0  0999 V2000
   -2.8019   -4.3117    0.1554 H   0  0  0  0  0  0  0  0  0  0  0  0
   -2.7696   -3.3325   -0.3310 C   0  0  0  0  0  0  0  0  0  0  0  0
   -3.5914   -2.7226    0.0513 H   0  0  0  0  0  0  0  0  0  0  0  0
   -2.8968   -3.4720   -1.4072 H   0  0  0  0  0  0  0  0  0  0  0  0
   -1.4427   -2.6532   -0.0469 C   0  0  0  0  0  0  0  0  0  0  0  0
   -0.6266   -3.1973    0.6743 O   0  0  0  0  0  0  0  0  0  0  0  0
   -1.1749   -1.4161   -0.6005 N   0  0  0  0  0  0  0  0  0  0  0  0
   -1.8609   -1.0528   -1.2550 H   0  0  0  0  0  0  0  0  0  0  0  0
    0.1210   -0.7188   -0.4889 C   0  0  1  0  0  0  0  0  0  0  0  0
    0.8756   -1.3892   -0.9144 H   0  0  0  0  0  0  0  0  0  0  0  0
    0.0498    0.5679   -1.3402 C   0  0  0  0  0  0  0  0  0  0  0  0
   -0.6280    0.3835   -2.1801 H   0  0  0  0  0  0  0  0  0  0  0  0
   -0.3907    1.3826   -0.7554 H   0  0  0  0  0  0  0  0  0  0  0  0
    1.4253    0.9890   -1.9133 C   0  0  0  0  0  0  0  0  0  0  0  0
    2.1306    0.1533   -1.8491 H   0  0  0  0  0  0  0  0  0  0  0  0
    1.2982    1.3799   -3.3907 C   0  0  0  0  0  0  0  0  0  0  0  0
    0.5934    2.2087   -3.5125 H   0  0  0  0  0  0  0  0  0  0  0  0
    2.2702    1.6893   -3.7879 H   0  0  0  0  0  0  0  0  0  0  0  0
    0.9437    0.5291   -3.9810 H   0  0  0  0  0  0  0  0  0  0  0  0
    2.0054    2.1692   -1.1232 C   0  0  0  0  0  0  0  0  0  0  0  0
    2.1220    1.9072   -0.0676 H   0  0  0  0  0  0  0  0  0  0  0  0
    2.9899    2.4415   -1.5162 H   0  0  0  0  0  0  0  0  0  0  0  0
    1.3501    3.0432   -1.1934 H   0  0  0  0  0  0  0  0  0  0  0  0
    0.5742   -0.4030    0.9543 C   0  0  0  0  0  0  0  0  0  0  0  0
    1.7630   -0.4376    1.2438 O   0  0  0  0  0  0  0  0  0  0  0  0
   -0.3277    0.1213    1.8628 N   0  0  0  0  0  0  0  0  0  0  0  0
   -1.3087    0.0353    1.6197 H   0  0  0  0  0  0  0  0  0  0  0  0
    0.0293    0.4259    3.2425 C   0  0  0  0  0  0  0  0  0  0  0  0
    0.8414    1.1599    3.2761 H   0  0  0  0  0  0  0  0  0  0  0  0
   -0.8324    0.8421    3.7728 H   0  0  0  0  0  0  0  0  0  0  0  0
    0.3531   -0.4819    3.7625 H   0  0  0  0  0  0  0  0  0  0  0  0
  1  2  1  0  0  0  0
  2  3  1  0  0  0  0
  2  4  1  0  0  0  0
  2  5  1  0  0  0  0
  5  6  2  0  0  0  0
  5  7  1  0  0  0  0
  7  8  1  0  0  0  0
  7  9  1  0  0  0  0
  9 10  1  0  0  0  0
  9 11  1  0  0  0  0
  9 24  1  0  0  0  0
 11 12  1  0  0  0  0
 11 13  1  0  0  0  0
 11 14  1  0  0  0  0
 14 15  1  0  0  0  0
 14 16  1  0  0  0  0
 14 20  1  0  0  0  0
 16 17  1  0  0  0  0
 16 18  1  0  0  0  0
 16 19  1  0  0  0  0
 20 21  1  0  0  0  0
 20 22  1  0  0  0  0
 20 23  1  0  0  0  0
 24 25  2  0  0  0  0
 24 26  1  0  0  0  0
 26 27  1  0  0  0  0
 26 28  1  0  0  0  0
 28 29  1  0  0  0  0
 28 30  1  0  0  0  0
 28 31  1  0  0  0  0
M  END
$$$$

  -OEChem-04042216013D

 31 30  0     1  0  0  0  0  0999 V2000
   -2.8184   -4.2707    0.1608 H   0  0  0  0  0  0  0  0  0  0  0  0
   -2.7689   -3.2890   -0.3190 C   0  0  0  0  0  0  0  0  0  0  0  0
   -3.5817   -2.6681    0.0652 H   0  0  0  0  0  0  0  0  0  0  0  0
   -2.8949   -3.4189   -1.3966 H   0  0  0  0  0  0  0  0  0  0  0  0
   -1.4319   -2.6337   -0.0273 C   0  0  0  0  0  0  0  0  0  0  0  0
   -0.6297   -3.1934    0.6970 O   0  0  0  0  0  0  0  0  0  0  0  0
   -1.1380   -1.4051   -0.5866 N   0  0  0  0  0  0  0  0  0  0  0  0
   -1.8154   -1.0326   -1.2447 H   0  0  0  0  0  0  0  0  0  0  0  0
    0.1655   -0.7228   -0.4667 C   0  0  1  0  0  0  0  0  0  0  0  0
    0.9271   -1.3940   -0.8784 H   0  0  0  0  0  0  0  0  0  0  0  0
    0.0905    0.5532   -1.3385 C   0  0  0  0  0  0  0  0  0  0  0  0
   -0.5837    0.3477   -2.1766 H   0  0  0  0  0  0  0  0  0  0  0  0
   -0.3563    1.3738   -0.7674 H   0  0  0  0  0  0  0  0  0  0  0  0
    1.4506    0.9921   -1.9314 C   0  0  0  0  0  0  0  0  0  0  0  0
    2.0759    0.1115   -2.1147 H   0  0  0  0  0  0  0  0  0  0  0  0
    1.2291    1.7044   -3.2725 C   0  0  0  0  0  0  0  0  0  0  0  0
    0.5947    2.5870   -3.1418 H   0  0  0  0  0  0  0  0  0  0  0  0
    2.1860    2.0239   -3.6973 H   0  0  0  0  0  0  0  0  0  0  0  0
    0.7484    1.0316   -3.9894 H   0  0  0  0  0  0  0  0  0  0  0  0
    2.2001    1.9492   -0.9937 C   0  0  0  0  0  0  0  0  0  0  0  0
    2.4595    1.4579   -0.0543 H   0  0  0  0  0  0  0  0  0  0  0  0
    3.1309    2.2858   -1.4606 H   0  0  0  0  0  0  0  0  0  0  0  0
    1.5887    2.8285   -0.7681 H   0  0  0  0  0  0  0  0  0  0  0  0
    0.5828   -0.4116    0.9896 C   0  0  0  0  0  0  0  0  0  0  0  0
    1.7478   -0.5414    1.3411 O   0  0  0  0  0  0  0  0  0  0  0  0
   -0.3352    0.1245    1.8752 N   0  0  0  0  0  0  0  0  0  0  0  0
   -1.3074    0.0883    1.5884 H   0  0  0  0  0  0  0  0  0  0  0  0
   -0.0269    0.3615    3.2798 C   0  0  0  0  0  0  0  0  0  0  0  0
    0.8139    1.0567    3.3758 H   0  0  0  0  0  0  0  0  0  0  0  0
   -0.8921    0.7957    3.7897 H   0  0  0  0  0  0  0  0  0  0  0  0
    0.2350   -0.5785    3.7771 H   0  0  0  0  0  0  0  0  0  0  0  0
  1  2  1  0  0  0  0
  2  3  1  0  0  0  0
  2  4  1  0  0  0  0
  2  5  1  0  0  0  0
  5  6  2  0  0  0  0
  5  7  1  0  0  0  0
  7  8  1  0  0  0  0
  7  9  1  0  0  0  0
  9 10  1  0  0  0  0
  9 11  1  0  0  0  0
  9 24  1  0  0  0  0
 11 12  1  0  0  0  0
 11 13  1  0  0  0  0
 11 14  1  0  0  0  0
 14 15  1  0  0  0  0
 14 16  1  0  0  0  0
 14 20  1  0  0  0  0
 16 17  1  0  0  0  0
 16 18  1  0  0  0  0
 16 19  1  0  0  0  0
 20 21  1  0  0  0  0
 20 22  1  0  0  0  0
 20 23  1  0  0  0  0
 24 25  2  0  0  0  0
 24 26  1  0  0  0  0
 26 27  1  0  0  0  0
 26 28  1  0  0  0  0
 28 29  1  0  0  0  0
 28 30  1  0  0  0  0
 28 31  1  0  0  0  0
M  END
$$$$

  -OEChem-04042216013D

 31 30  0     1  0  0  0  0  0999 V2000
   -2.8325   -4.2378    0.2082 H   0  0  0  0  0  0  0  0  0  0  0  0
   -2.7701   -3.2622   -0.2826 C   0  0  0  0  0  0  0  0  0  0  0  0
   -3.5681   -2.6234    0.1032 H   0  0  0  0  0  0  0  0  0  0  0  0
   -2.9091   -3.4017   -1.3572 H   0  0  0  0  0  0  0  0  0  0  0  0
   -1.4187   -2.6277   -0.0114 C   0  0  0  0  0  0  0  0  0  0  0  0
   -0.6200   -3.1976    0.7086 O   0  0  0  0  0  0  0  0  0  0  0  0
   -1.1074   -1.4095   -0.5854 N   0  0  0  0  0  0  0  0  0  0  0  0
   -1.7837   -1.0303   -1.2408 H   0  0  0  0  0  0  0  0  0  0  0  0
    0.2029   -0.7381   -0.4649 C   0  0  1  0  0  0  0  0  0  0  0  0
    0.9715   -1.4065   -0.8685 H   0  0  0  0  0  0  0  0  0  0  0  0
    0.1285    0.5406   -1.3343 C   0  0  0  0  0  0  0  0  0  0  0  0
   -0.5529    0.3443   -2.1685 H   0  0  0  0  0  0  0  0  0  0  0  0
   -0.3071    1.3593   -0.7514 H   0  0  0  0  0  0  0  0  0  0  0  0
    1.4743    0.9940   -1.9461 C   0  0  0  0  0  0  0  0  0  0  0  0
    1.9746    0.1302   -2.3973 H   0  0  0  0  0  0  0  0  0  0  0  0
    1.1983    2.0164   -3.0571 C   0  0  0  0  0  0  0  0  0  0  0  0
    0.6979    2.9014   -2.6510 H   0  0  0  0  0  0  0  0  0  0  0  0
    2.1348    2.3325   -3.5277 H   0  0  0  0  0  0  0  0  0  0  0  0
    0.5612    1.5799   -3.8325 H   0  0  0  0  0  0  0  0  0  0  0  0
    2.4222    1.6282   -0.9198 C   0  0  0  0  0  0  0  0  0  0  0  0
    2.8611    0.8636   -0.2764 H   0  0  0  0  0  0  0  0  0  0  0  0
    3.2473    2.1403   -1.4245 H   0  0  0  0  0  0  0  0  0  0  0  0
    1.8931    2.3560   -0.2968 H   0  0  0  0  0  0  0  0  0  0  0  0
    0.5839   -0.4236    1.0030 C   0  0  0  0  0  0  0  0  0  0  0  0
    1.7265   -0.5931    1.4065 O   0  0  0  0  0  0  0  0  0  0  0  0
   -0.3571    0.1248    1.8571 N   0  0  0  0  0  0  0  0  0  0  0  0
   -1.3175    0.1135    1.5314 H   0  0  0  0  0  0  0  0  0  0  0  0
   -0.1008    0.3425    3.2750 C   0  0  0  0  0  0  0  0  0  0  0  0
    0.7483    1.0204    3.4111 H   0  0  0  0  0  0  0  0  0  0  0  0
   -0.9773    0.7882    3.7544 H   0  0  0  0  0  0  0  0  0  0  0  0
    0.1230   -0.6071    3.7726 H   0  0  0  0  0  0  0  0  0  0  0  0
  1  2  1  0  0  0  0
  2  3  1  0  0  0  0
  2  4  1  0  0  0  0
  2  5  1  0  0  0  0
  5  6  2  0  0  0  0
  5  7  1  0  0  0  0
  7  8  1  0  0  0  0
  7  9  1  0  0  0  0
  9 10  1  0  0  0  0
  9 11  1  0  0  0  0
  9 24  1  0  0  0  0
 11 12  1  0  0  0  0
 11 13  1  0  0  0  0
 11 14  1  0  0  0  0
 14 15  1  0  0  0  0
 14 16  1  0  0  0  0
 14 20  1  0  0  0  0
 16 17  1  0  0  0  0
 16 18  1  0  0  0  0
 16 19  1  0  0  0  0
 20 21  1  0  0  0  0
 20 22  1  0  0  0  0
 20 23  1  0  0  0  0
 24 25  2  0  0  0  0
 24 26  1  0  0  0  0
 26 27  1  0  0  0  0
 26 28  1  0  0  0  0
 28 29  1  0  0  0  0
 28 30  1  0  0  0  0
 28 31  1  0  0  0  0
M  END
$$$$

  -OEChem-04042216013D

 31 30  0     1  0  0  0  0  0999 V2000
   -2.8160   -4.2806    0.1811 H   0  0  0  0  0  0  0  0  0  0  0  0
   -2.7676   -3.3039   -0.3089 C   0  0  0  0  0  0  0  0  0  0  0  0
   -3.5849   -2.6824    0.0642 H   0  0  0  0  0  0  0  0  0  0  0  0
   -2.8869   -3.4459   -1.3857 H   0  0  0  0  0  0  0  0  0  0  0  0
   -1.4351   -2.6399   -0.0168 C   0  0  0  0  0  0  0  0  0  0  0  0
   -0.6342   -3.1900    0.7165 O   0  0  0  0  0  0  0  0  0  0  0  0
   -1.1425   -1.4160   -0.5872 N   0  0  0  0  0  0  0  0  0  0  0  0
   -1.8144   -1.0574   -1.2586 H   0  0  0  0  0  0  0  0  0  0  0  0
    0.1643   -0.7371   -0.4785 C   0  0  1  0  0  0  0  0  0  0  0  0
    0.9230   -1.4099   -0.8928 H   0  0  0  0  0  0  0  0  0  0  0  0
    0.1023    0.5547   -1.3312 C   0  0  0  0  0  0  0  0  0  0  0  0
   -0.7686    0.5127   -1.9935 H   0  0  0  0  0  0  0  0  0  0  0  0
   -0.0414    1.4189   -0.6732 H   0  0  0  0  0  0  0  0  0  0  0  0
    1.3454    0.7882   -2.2175 C   0  0  0  0  0  0  0  0  0  0  0  0
    1.4351   -0.0409   -2.9280 H   0  0  0  0  0  0  0  0  0  0  0  0
    1.1614    2.0902   -3.0074 C   0  0  0  0  0  0  0  0  0  0  0  0
    1.0894    2.9474   -2.3299 H   0  0  0  0  0  0  0  0  0  0  0  0
    2.0092    2.2508   -3.6811 H   0  0  0  0  0  0  0  0  0  0  0  0
    0.2500    2.0462   -3.6116 H   0  0  0  0  0  0  0  0  0  0  0  0
    2.6483    0.8801   -1.4119 C   0  0  0  0  0  0  0  0  0  0  0  0
    2.9110   -0.0930   -0.9882 H   0  0  0  0  0  0  0  0  0  0  0  0
    3.4757    1.1940   -2.0556 H   0  0  0  0  0  0  0  0  0  0  0  0
    2.5499    1.6037   -0.5965 H   0  0  0  0  0  0  0  0  0  0  0  0
    0.5777   -0.4228    0.9814 C   0  0  0  0  0  0  0  0  0  0  0  0
    1.7480   -0.4985    1.3311 O   0  0  0  0  0  0  0  0  0  0  0  0
   -0.3486    0.1175    1.8564 N   0  0  0  0  0  0  0  0  0  0  0  0
   -1.3203    0.0553    1.5725 H   0  0  0  0  0  0  0  0  0  0  0  0
   -0.0433    0.4037    3.2524 C   0  0  0  0  0  0  0  0  0  0  0  0
    0.7831    1.1184    3.3254 H   0  0  0  0  0  0  0  0  0  0  0  0
   -0.9168    0.8362    3.7494 H   0  0  0  0  0  0  0  0  0  0  0  0
    0.2374   -0.5151    3.7782 H   0  0  0  0  0  0  0  0  0  0  0  0
  1  2  1  0  0  0  0
  2  3  1  0  0  0  0
  2  4  1  0  0  0  0
  2  5  1  0  0  0  0
  5  6  2  0  0  0  0
  5  7  1  0  0  0  0
  7  8  1  0  0  0  0
  7  9  1  0  0  0  0
  9 10  1  0  0  0  0
  9 11  1  0  0  0  0
  9 24  1  0  0  0  0
 11 12  1  0  0  0  0
 11 13  1  0  0  0  0
 11 14  1  0  0  0  0
 14 15  1  0  0  0  0
 14 16  1  0  0  0  0
 14 20  1  0  0  0  0
 16 17  1  0  0  0  0
 16 18  1  0  0  0  0
 16 19  1  0  0  0  0
 20 21  1  0  0  0  0
 20 22  1  0  0  0  0
 20 23  1  0  0  0  0
 24 25  2  0  0  0  0
 24 26  1  0  0  0  0
 26 27  1  0  0  0  0
 26 28  1  0  0  0  0
 28 29  1  0  0  0  0
 28 30  1  0  0  0  0
 28 31  1  0  0  0  0
M  END
$$$$

  -OEChem-04042216013D

 31 30  0     1  0  0  0  0  0999 V2000
   -2.8553   -4.2752    0.1700 H   0  0  0  0  0  0  0  0  0  0  0  0
   -2.7971   -3.2967   -0.3155 C   0  0  0  0  0  0  0  0  0  0  0  0
   -3.6106   -2.6702    0.0577 H   0  0  0  0  0  0  0  0  0  0  0  0
   -2.9140   -3.4328   -1.3934 H   0  0  0  0  0  0  0  0  0  0  0  0
   -1.4599   -2.6453   -0.0160 C   0  0  0  0  0  0  0  0  0  0  0  0
   -0.6684   -3.2019    0.7225 O   0  0  0  0  0  0  0  0  0  0  0  0
   -1.1526   -1.4244   -0.5846 N   0  0  0  0  0  0  0  0  0  0  0  0
   -1.8170   -1.0596   -1.2601 H   0  0  0  0  0  0  0  0  0  0  0  0
    0.1593   -0.7572   -0.4672 C   0  0  1  0  0  0  0  0  0  0  0  0
    0.9028   -1.4499   -0.8736 H   0  0  0  0  0  0  0  0  0  0  0  0
    0.1182    0.5255   -1.3364 C   0  0  0  0  0  0  0  0  0  0  0  0
   -0.7507    0.4935   -2.0016 H   0  0  0  0  0  0  0  0  0  0  0  0
   -0.0243    1.3872   -0.6747 H   0  0  0  0  0  0  0  0  0  0  0  0
    1.3616    0.7721   -2.2251 C   0  0  0  0  0  0  0  0  0  0  0  0
    1.3232    0.0923   -3.0830 H   0  0  0  0  0  0  0  0  0  0  0  0
    1.3344    2.2243   -2.7204 C   0  0  0  0  0  0  0  0  0  0  0  0
    1.4162    2.9239   -1.8820 H   0  0  0  0  0  0  0  0  0  0  0  0
    2.1655    2.4090   -3.4083 H   0  0  0  0  0  0  0  0  0  0  0  0
    0.4002    2.4274   -3.2530 H   0  0  0  0  0  0  0  0  0  0  0  0
    2.7007    0.5636   -1.4998 C   0  0  0  0  0  0  0  0  0  0  0  0
    2.8481   -0.4853   -1.2293 H   0  0  0  0  0  0  0  0  0  0  0  0
    3.5335    0.8550   -2.1473 H   0  0  0  0  0  0  0  0  0  0  0  0
    2.7446    1.1702   -0.5896 H   0  0  0  0  0  0  0  0  0  0  0  0
    0.5768   -0.4410    0.9901 C   0  0  0  0  0  0  0  0  0  0  0  0
    1.7483   -0.5220    1.3347 O   0  0  0  0  0  0  0  0  0  0  0  0
   -0.3425    0.1115    1.8644 N   0  0  0  0  0  0  0  0  0  0  0  0
   -1.3156    0.0553    1.5837 H   0  0  0  0  0  0  0  0  0  0  0  0
   -0.0302    0.4026    3.2579 C   0  0  0  0  0  0  0  0  0  0  0  0
    0.8021    1.1111    3.3244 H   0  0  0  0  0  0  0  0  0  0  0  0
   -0.8984    0.8442    3.7561 H   0  0  0  0  0  0  0  0  0  0  0  0
    0.2453   -0.5157    3.7872 H   0  0  0  0  0  0  0  0  0  0  0  0
  1  2  1  0  0  0  0
  2  3  1  0  0  0  0
  2  4  1  0  0  0  0
  2  5  1  0  0  0  0
  5  6  2  0  0  0  0
  5  7  1  0  0  0  0
  7  8  1  0  0  0  0
  7  9  1  0  0  0  0
  9 10  1  0  0  0  0
  9 11  1  0  0  0  0
  9 24  1  0  0  0  0
 11 12  1  0  0  0  0
 11 13  1  0  0  0  0
 11 14  1  0  0  0  0
 14 15  1  0  0  0  0
 14 16  1  0  0  0  0
 14 20  1  0  0  0  0
 16 17  1  0  0  0  0
 16 18  1  0  0  0  0
 16 19  1  0  0  0  0
 20 21  1  0  0  0  0
 20 22  1  0  0  0  0
 20 23  1  0  0  0  0
 24 25  2  0  0  0  0
 24 26  1  0  0  0  0
 26 27  1  0  0  0  0
 26 28  1  0  0  0  0
 28 29  1  0  0  0  0
 28 30  1  0  0  0  0
 28 31  1  0  0  0  0
M  END
$$$$

  -OEChem-04042216013D

 31 30  0     1  0  0  0  0  0999 V2000
   -2.8980   -4.2639    0.1861 H   0  0  0  0  0  0  0  0  0  0  0  0
   -2.8260   -3.2895   -0.3057 C   0  0  0  0  0  0  0  0  0  0  0  0
   -3.6323   -2.6500    0.0611 H   0  0  0  0  0  0  0  0  0  0  0  0
   -2.9418   -3.4315   -1.3828 H   0  0  0  0  0  0  0  0  0  0  0  0
   -1.4819   -2.6529   -0.0064 C   0  0  0  0  0  0  0  0  0  0  0  0
   -0.7013   -3.2132    0.7408 O   0  0  0  0  0  0  0  0  0  0  0  0
   -1.1579   -1.4382   -0.5795 N   0  0  0  0  0  0  0  0  0  0  0  0
   -1.8152   -1.0679   -1.2587 H   0  0  0  0  0  0  0  0  0  0  0  0
    0.1594   -0.7830   -0.4552 C   0  0  1  0  0  0  0  0  0  0  0  0
    0.8905   -1.4946   -0.8465 H   0  0  0  0  0  0  0  0  0  0  0  0
    0.1374    0.4955   -1.3348 C   0  0  0  0  0  0  0  0  0  0  0  0
   -0.7322    0.4685   -1.9994 H   0  0  0  0  0  0  0  0  0  0  0  0
   -0.0122    1.3521   -0.6684 H   0  0  0  0  0  0  0  0  0  0  0  0
    1.3756    0.7667   -2.2345 C   0  0  0  0  0  0  0  0  0  0  0  0
    1.2049    0.3000   -3.2106 H   0  0  0  0  0  0  0  0  0  0  0  0
    1.5334    2.2841   -2.4118 C   0  0  0  0  0  0  0  0  0  0  0  0
    1.7568    2.7681   -1.4552 H   0  0  0  0  0  0  0  0  0  0  0  0
    2.3470    2.5057   -3.1098 H   0  0  0  0  0  0  0  0  0  0  0  0
    0.6127    2.7174   -2.8144 H   0  0  0  0  0  0  0  0  0  0  0  0
    2.7179    0.2476   -1.6894 C   0  0  0  0  0  0  0  0  0  0  0  0
    2.7427   -0.8443   -1.6541 H   0  0  0  0  0  0  0  0  0  0  0  0
    3.5386    0.5687   -2.3385 H   0  0  0  0  0  0  0  0  0  0  0  0
    2.9065    0.6401   -0.6858 H   0  0  0  0  0  0  0  0  0  0  0  0
    0.5729   -0.4604    1.0012 C   0  0  0  0  0  0  0  0  0  0  0  0
    1.7428   -0.5474    1.3493 O   0  0  0  0  0  0  0  0  0  0  0  0
   -0.3452    0.1074    1.8669 N   0  0  0  0  0  0  0  0  0  0  0  0
   -1.3175    0.0584    1.5822 H   0  0  0  0  0  0  0  0  0  0  0  0
   -0.0362    0.4105    3.2585 C   0  0  0  0  0  0  0  0  0  0  0  0
    0.8015    1.1129    3.3214 H   0  0  0  0  0  0  0  0  0  0  0  0
   -0.9030    0.8645    3.7479 H   0  0  0  0  0  0  0  0  0  0  0  0
    0.2296   -0.5041    3.7990 H   0  0  0  0  0  0  0  0  0  0  0  0
  1  2  1  0  0  0  0
  2  3  1  0  0  0  0
  2  4  1  0  0  0  0
  2  5  1  0  0  0  0
  5  6  2  0  0  0  0
  5  7  1  0  0  0  0
  7  8  1  0  0  0  0
  7  9  1  0  0  0  0
  9 10  1  0  0  0  0
  9 11  1  0  0  0  0
  9 24  1  0  0  0  0
 11 12  1  0  0  0  0
 11 13  1  0  0  0  0
 11 14  1  0  0  0  0
 14 15  1  0  0  0  0
 14 16  1  0  0  0  0
 14 20  1  0  0  0  0
 16 17  1  0  0  0  0
 16 18  1  0  0  0  0
 16 19  1  0  0  0  0
 20 21  1  0  0  0  0
 20 22  1  0  0  0  0
 20 23  1  0  0  0  0
 24 25  2  0  0  0  0
 24 26  1  0  0  0  0
 26 27  1  0  0  0  0
 26 28  1  0  0  0  0
 28 29  1  0  0  0  0
 28 30  1  0  0  0  0
 28 31  1  0  0  0  0
M  END
$$$$

  -OEChem-04042216013D

 31 30  0     1  0  0  0  0  0999 V2000
   -2.9116   -4.2673    0.2065 H   0  0  0  0  0  0  0  0  0  0  0  0
   -2.8360   -3.2969   -0.2925 C   0  0  0  0  0  0  0  0  0  0  0  0
   -3.6416   -2.6526    0.0678 H   0  0  0  0  0  0  0  0  0  0  0  0
   -2.9501   -3.4466   -1.3687 H   0  0  0  0  0  0  0  0  0  0  0  0
   -1.4907   -2.6616    0.0050 C   0  0  0  0  0  0  0  0  0  0  0  0
   -0.7135   -3.2173    0.7595 O   0  0  0  0  0  0  0  0  0  0  0  0
   -1.1629   -1.4510   -0.5745 N   0  0  0  0  0  0  0  0  0  0  0  0
   -1.8148   -1.0863   -1.2620 H   0  0  0  0  0  0  0  0  0  0  0  0
    0.1554   -0.7982   -0.4491 C   0  0  1  0  0  0  0  0  0  0  0  0
    0.8841   -1.5180   -0.8263 H   0  0  0  0  0  0  0  0  0  0  0  0
    0.1456    0.4856   -1.3236 C   0  0  0  0  0  0  0  0  0  0  0  0
   -0.7202    0.4532   -1.9927 H   0  0  0  0  0  0  0  0  0  0  0  0
   -0.0226    1.3400   -0.6586 H   0  0  0  0  0  0  0  0  0  0  0  0
    1.3816    0.7735   -2.2283 C   0  0  0  0  0  0  0  0  0  0  0  0
    1.0881    0.5867   -3.2669 H   0  0  0  0  0  0  0  0  0  0  0  0
    1.7696    2.2527   -2.0913 C   0  0  0  0  0  0  0  0  0  0  0  0
    2.1000    2.4723   -1.0704 H   0  0  0  0  0  0  0  0  0  0  0  0
    2.5833    2.5021   -2.7796 H   0  0  0  0  0  0  0  0  0  0  0  0
    0.9154    2.8951   -2.3276 H   0  0  0  0  0  0  0  0  0  0  0  0
    2.6433   -0.0628   -1.9563 C   0  0  0  0  0  0  0  0  0  0  0  0
    2.4754   -1.1159   -2.1986 H   0  0  0  0  0  0  0  0  0  0  0  0
    3.4710    0.2867   -2.5811 H   0  0  0  0  0  0  0  0  0  0  0  0
    2.9510    0.0204   -0.9103 H   0  0  0  0  0  0  0  0  0  0  0  0
    0.5672   -0.4668    1.0055 C   0  0  0  0  0  0  0  0  0  0  0  0
    1.7410   -0.5259    1.3463 O   0  0  0  0  0  0  0  0  0  0  0  0
   -0.3520    0.1087    1.8651 N   0  0  0  0  0  0  0  0  0  0  0  0
   -1.3254    0.0411    1.5877 H   0  0  0  0  0  0  0  0  0  0  0  0
   -0.0388    0.4396    3.2494 C   0  0  0  0  0  0  0  0  0  0  0  0
    0.7945    1.1487    3.2950 H   0  0  0  0  0  0  0  0  0  0  0  0
   -0.9062    0.8968    3.7345 H   0  0  0  0  0  0  0  0  0  0  0  0
    0.2357   -0.4631    3.8053 H   0  0  0  0  0  0  0  0  0  0  0  0
  1  2  1  0  0  0  0
  2  3  1  0  0  0  0
  2  4  1  0  0  0  0
  2  5  1  0  0  0  0
  5  6  2  0  0  0  0
  5  7  1  0  0  0  0
  7  8  1  0  0  0  0
  7  9  1  0  0  0  0
  9 10  1  0  0  0  0
  9 11  1  0  0  0  0
  9 24  1  0  0  0  0
 11 12  1  0  0  0  0
 11 13  1  0  0  0  0
 11 14  1  0  0  0  0
 14 15  1  0  0  0  0
 14 16  1  0  0  0  0
 14 20  1  0  0  0  0
 16 17  1  0  0  0  0
 16 18  1  0  0  0  0
 16 19  1  0  0  0  0
 20 21  1  0  0  0  0
 20 22  1  0  0  0  0
 20 23  1  0  0  0  0
 24 25  2  0  0  0  0
 24 26  1  0  0  0  0
 26 27  1  0  0  0  0
 26 28  1  0  0  0  0
 28 29  1  0  0  0  0
 28 30  1  0  0  0  0
 28 31  1  0  0  0  0
M  END
$$$$

  -OEChem-04042216013D

 31 30  0     1  0  0  0  0  0999 V2000
   -2.9131   -4.2860    0.1968 H   0  0  0  0  0  0  0  0  0  0  0  0
   -2.8395   -3.3179   -0.3070 C   0  0  0  0  0  0  0  0  0  0  0  0
   -3.6559   -2.6793    0.0381 H   0  0  0  0  0  0  0  0  0  0  0  0
   -2.9371   -3.4745   -1.3840 H   0  0  0  0  0  0  0  0  0  0  0  0
   -1.5046   -2.6681    0.0048 C   0  0  0  0  0  0  0  0  0  0  0  0
   -0.7294   -3.2139    0.7686 O   0  0  0  0  0  0  0  0  0  0  0  0
   -1.1833   -1.4550   -0.5727 N   0  0  0  0  0  0  0  0  0  0  0  0
   -1.8316   -1.0980   -1.2678 H   0  0  0  0  0  0  0  0  0  0  0  0
    0.1334   -0.8000   -0.4467 C   0  0  1  0  0  0  0  0  0  0  0  0
    0.8560   -1.5283   -0.8179 H   0  0  0  0  0  0  0  0  0  0  0  0
    0.1374    0.4865   -1.3175 C   0  0  0  0  0  0  0  0  0  0  0  0
   -0.7152    0.4354   -2.0019 H   0  0  0  0  0  0  0  0  0  0  0  0
   -0.0560    1.3468   -0.6674 H   0  0  0  0  0  0  0  0  0  0  0  0
    1.3806    0.7725   -2.2133 C   0  0  0  0  0  0  0  0  0  0  0  0
    1.0245    0.8806   -3.2437 H   0  0  0  0  0  0  0  0  0  0  0  0
    2.0072    2.1107   -1.7986 C   0  0  0  0  0  0  0  0  0  0  0  0
    2.3743    2.0580   -0.7681 H   0  0  0  0  0  0  0  0  0  0  0  0
    2.8469    2.3621   -2.4540 H   0  0  0  0  0  0  0  0  0  0  0  0
    1.2706    2.9173   -1.8664 H   0  0  0  0  0  0  0  0  0  0  0  0
    2.4833   -0.2975   -2.2321 C   0  0  0  0  0  0  0  0  0  0  0  0
    2.0954   -1.2450   -2.6183 H   0  0  0  0  0  0  0  0  0  0  0  0
    3.3044    0.0160   -2.8843 H   0  0  0  0  0  0  0  0  0  0  0  0
    2.8897   -0.4585   -1.2286 H   0  0  0  0  0  0  0  0  0  0  0  0
    0.5646   -0.4640    0.9993 C   0  0  0  0  0  0  0  0  0  0  0  0
    1.7492   -0.4899    1.3061 O   0  0  0  0  0  0  0  0  0  0  0  0
   -0.3419    0.1129    1.8711 N   0  0  0  0  0  0  0  0  0  0  0  0
   -1.3203    0.0287    1.6171 H   0  0  0  0  0  0  0  0  0  0  0  0
   -0.0012    0.4708    3.2421 C   0  0  0  0  0  0  0  0  0  0  0  0
    0.8220    1.1929    3.2566 H   0  0  0  0  0  0  0  0  0  0  0  0
   -0.8638    0.9227    3.7409 H   0  0  0  0  0  0  0  0  0  0  0  0
    0.3003   -0.4185    3.8055 H   0  0  0  0  0  0  0  0  0  0  0  0
  1  2  1  0  0  0  0
  2  3  1  0  0  0  0
  2  4  1  0  0  0  0
  2  5  1  0  0  0  0
  5  6  2  0  0  0  0
  5  7  1  0  0  0  0
  7  8  1  0  0  0  0
  7  9  1  0  0  0  0
  9 10  1  0  0  0  0
  9 11  1  0  0  0  0
  9 24  1  0  0  0  0
 11 12  1  0  0  0  0
 11 13  1  0  0  0  0
 11 14  1  0  0  0  0
 14 15  1  0  0  0  0
 14 16  1  0  0  0  0
 14 20  1  0  0  0  0
 16 17  1  0  0  0  0
 16 18  1  0  0  0  0
 16 19  1  0  0  0  0
 20 21  1  0  0  0  0
 20 22  1  0  0  0  0
 20 23  1  0  0  0  0
 24 25  2  0  0  0  0
 24 26  1  0  0  0  0
 26 27  1  0  0  0  0
 26 28  1  0  0  0  0
 28 29  1  0  0  0  0
 28 30  1  0  0  0  0
 28 31  1  0  0  0  0
M  END
$$$$

  -OEChem-04042216013D

 31 30  0     1  0  0  0  0  0999 V2000
   -2.9070   -4.2922    0.1929 H   0  0  0  0  0  0  0  0  0  0  0  0
   -2.8342   -3.3265   -0.3156 C   0  0  0  0  0  0  0  0  0  0  0  0
   -3.6577   -2.6905    0.0177 H   0  0  0  0  0  0  0  0  0  0  0  0
   -2.9199   -3.4902   -1.3924 H   0  0  0  0  0  0  0  0  0  0  0  0
   -1.5062   -2.6671    0.0058 C   0  0  0  0  0  0  0  0  0  0  0  0
   -0.7333   -3.2067    0.7764 O   0  0  0  0  0  0  0  0  0  0  0  0
   -1.1885   -1.4528   -0.5712 N   0  0  0  0  0  0  0  0  0  0  0  0
   -1.8335   -1.1027   -1.2727 H   0  0  0  0  0  0  0  0  0  0  0  0
    0.1270   -0.7949   -0.4455 C   0  0  1  0  0  0  0  0  0  0  0  0
    0.8527   -1.5216   -0.8135 H   0  0  0  0  0  0  0  0  0  0  0  0
    0.1318    0.4916   -1.3155 C   0  0  0  0  0  0  0  0  0  0  0  0
   -0.7122    0.4248   -2.0092 H   0  0  0  0  0  0  0  0  0  0  0  0
   -0.0726    1.3598   -0.6794 H   0  0  0  0  0  0  0  0  0  0  0  0
    1.3788    0.7678   -2.2038 C   0  0  0  0  0  0  0  0  0  0  0  0
    1.0081    1.1550   -3.1591 H   0  0  0  0  0  0  0  0  0  0  0  0
    2.2281    1.8786   -1.5736 C   0  0  0  0  0  0  0  0  0  0  0  0
    2.6060    1.5639   -0.5953 H   0  0  0  0  0  0  0  0  0  0  0  0
    3.0827    2.1170   -2.2144 H   0  0  0  0  0  0  0  0  0  0  0  0
    1.6361    2.7895   -1.4421 H   0  0  0  0  0  0  0  0  0  0  0  0
    2.2715   -0.4376   -2.5316 C   0  0  0  0  0  0  0  0  0  0  0  0
    1.6776   -1.2497   -2.9622 H   0  0  0  0  0  0  0  0  0  0  0  0
    3.0350   -0.1519   -3.2618 H   0  0  0  0  0  0  0  0  0  0  0  0
    2.7824   -0.8037   -1.6349 H   0  0  0  0  0  0  0  0  0  0  0  0
    0.5648   -0.4565    0.9969 C   0  0  0  0  0  0  0  0  0  0  0  0
    1.7522   -0.4794    1.2936 O   0  0  0  0  0  0  0  0  0  0  0  0
   -0.3367    0.1199    1.8740 N   0  0  0  0  0  0  0  0  0  0  0  0
   -1.3169    0.0320    1.6279 H   0  0  0  0  0  0  0  0  0  0  0  0
    0.0137    0.4767    3.2426 C   0  0  0  0  0  0  0  0  0  0  0  0
    0.8326    1.2037    3.2520 H   0  0  0  0  0  0  0  0  0  0  0  0
   -0.8475    0.9222    3.7494 H   0  0  0  0  0  0  0  0  0  0  0  0
    0.3252   -0.4122    3.8012 H   0  0  0  0  0  0  0  0  0  0  0  0
  1  2  1  0  0  0  0
  2  3  1  0  0  0  0
  2  4  1  0  0  0  0
  2  5  1  0  0  0  0
  5  6  2  0  0  0  0
  5  7  1  0  0  0  0
  7  8  1  0  0  0  0
  7  9  1  0  0  0  0
  9 10  1  0  0  0  0
  9 11  1  0  0  0  0
  9 24  1  0  0  0  0
 11 12  1  0  0  0  0
 11 13  1  0  0  0  0
 11 14  1  0  0  0  0
 14 15  1  0  0  0  0
 14 16  1  0  0  0  0
 14 20  1  0  0  0  0
 16 17  1  0  0  0  0
 16 18  1  0  0  0  0
 16 19  1  0  0  0  0
 20 21  1  0  0  0  0
 20 22  1  0  0  0  0
 20 23  1  0  0  0  0
 24 25  2  0  0  0  0
 24 26  1  0  0  0  0
 26 27  1  0  0  0  0
 26 28  1  0  0  0  0
 28 29  1  0  0  0  0
 28 30  1  0  0  0  0
 28 31  1  0  0  0  0
M  END
$$$$

  -OEChem-04042216013D

 31 30  0     1  0  0  0  0  0999 V2000
   -2.8924   -4.2806    0.2062 H   0  0  0  0  0  0  0  0  0  0  0  0
   -2.8201   -3.3146   -0.3017 C   0  0  0  0  0  0  0  0  0  0  0  0
   -3.6386   -2.6761    0.0389 H   0  0  0  0  0  0  0  0  0  0  0  0
   -2.9152   -3.4772   -1.3780 H   0  0  0  0  0  0  0  0  0  0  0  0
   -1.4867   -2.6607    0.0095 C   0  0  0  0  0  0  0  0  0  0  0  0
   -0.7080   -3.2073    0.7690 O   0  0  0  0  0  0  0  0  0  0  0  0
   -1.1682   -1.4477   -0.5701 N   0  0  0  0  0  0  0  0  0  0  0  0
   -1.8202   -1.0911   -1.2618 H   0  0  0  0  0  0  0  0  0  0  0  0
    0.1473   -0.7885   -0.4477 C   0  0  1  0  0  0  0  0  0  0  0  0
    0.8854   -1.5025   -0.8176 H   0  0  0  0  0  0  0  0  0  0  0  0
    0.1360    0.4978   -1.3180 C   0  0  0  0  0  0  0  0  0  0  0  0
   -0.7127    0.4312   -2.0063 H   0  0  0  0  0  0  0  0  0  0  0  0
   -0.0553    1.3700   -0.6833 H   0  0  0  0  0  0  0  0  0  0  0  0
    1.3776    0.7644   -2.2084 C   0  0  0  0  0  0  0  0  0  0  0  0
    1.0320    1.3905   -3.0383 H   0  0  0  0  0  0  0  0  0  0  0  0
    2.4263    1.5842   -1.4484 C   0  0  0  0  0  0  0  0  0  0  0  0
    2.8259    1.0152   -0.6037 H   0  0  0  0  0  0  0  0  0  0  0  0
    3.2572    1.8451   -2.1110 H   0  0  0  0  0  0  0  0  0  0  0  0
    1.9890    2.5119   -1.0673 H   0  0  0  0  0  0  0  0  0  0  0  0
    2.0219   -0.4814   -2.8326 C   0  0  0  0  0  0  0  0  0  0  0  0
    1.2572   -1.1302   -3.2707 H   0  0  0  0  0  0  0  0  0  0  0  0
    2.7153   -0.1851   -3.6257 H   0  0  0  0  0  0  0  0  0  0  0  0
    2.5880   -1.0503   -2.0884 H   0  0  0  0  0  0  0  0  0  0  0  0
    0.5697   -0.4532    1.0014 C   0  0  0  0  0  0  0  0  0  0  0  0
    1.7485   -0.5085    1.3264 O   0  0  0  0  0  0  0  0  0  0  0  0
   -0.3421    0.1197    1.8704 N   0  0  0  0  0  0  0  0  0  0  0  0
   -1.3181    0.0516    1.6025 H   0  0  0  0  0  0  0  0  0  0  0  0
   -0.0153    0.4549    3.2504 C   0  0  0  0  0  0  0  0  0  0  0  0
    0.8126    1.1708    3.2858 H   0  0  0  0  0  0  0  0  0  0  0  0
   -0.8809    0.9057    3.7448 H   0  0  0  0  0  0  0  0  0  0  0  0
    0.2727   -0.4449    3.8041 H   0  0  0  0  0  0  0  0  0  0  0  0
  1  2  1  0  0  0  0
  2  3  1  0  0  0  0
  2  4  1  0  0  0  0
  2  5  1  0  0  0  0
  5  6  2  0  0  0  0
  5  7  1  0  0  0  0
  7  8  1  0  0  0  0
  7  9  1  0  0  0  0
  9 10  1  0  0  0  0
  9 11  1  0  0  0  0
  9 24  1  0  0  0  0
 11 12  1  0  0  0  0
 11 13  1  0  0  0  0
 11 14  1  0  0  0  0
 14 15  1  0  0  0  0
 14 16  1  0  0  0  0
 14 20  1  0  0  0  0
 16 17  1  0  0  0  0
 16 18  1  0  0  0  0
 16 19  1  0  0  0  0
 20 21  1  0  0  0  0
 20 22  1  0  0  0  0
 20 23  1  0  0  0  0
 24 25  2  0  0  0  0
 24 26  1  0  0  0  0
 26 27  1  0  0  0  0
 26 28  1  0  0  0  0
 28 29  1  0  0  0  0
 28 30  1  0  0  0  0
 28 31  1  0  0  0  0
M  END
$$$$

  -OEChem-04042216013D

 31 30  0     1  0  0  0  0  0999 V2000
   -2.8755   -4.2690    0.2265 H   0  0  0  0  0  0  0  0  0  0  0  0
   -2.8053   -3.3037   -0.2832 C   0  0  0  0  0  0  0  0  0  0  0  0
   -3.6175   -2.6620    0.0662 H   0  0  0  0  0  0  0  0  0  0  0  0
   -2.9130   -3.4663   -1.3582 H   0  0  0  0  0  0  0  0  0  0  0  0
   -1.4664   -2.6544    0.0126 C   0  0  0  0  0  0  0  0  0  0  0  0
   -0.6814   -3.2040    0.7633 O   0  0  0  0  0  0  0  0  0  0  0  0
   -1.1512   -1.4426   -0.5716 N   0  0  0  0  0  0  0  0  0  0  0  0
   -1.8102   -1.0849   -1.2561 H   0  0  0  0  0  0  0  0  0  0  0  0
    0.1636   -0.7801   -0.4574 C   0  0  1  0  0  0  0  0  0  0  0  0
    0.9138   -1.4790   -0.8348 H   0  0  0  0  0  0  0  0  0  0  0  0
    0.1355    0.5072   -1.3237 C   0  0  0  0  0  0  0  0  0  0  0  0
   -0.7248    0.4564   -1.9986 H   0  0  0  0  0  0  0  0  0  0  0  0
   -0.0282    1.3792   -0.6813 H   0  0  0  0  0  0  0  0  0  0  0  0
    1.3725    0.7612   -2.2173 C   0  0  0  0  0  0  0  0  0  0  0  0
    1.0996    1.5815   -2.8903 H   0  0  0  0  0  0  0  0  0  0  0  0
    2.5763    1.2409   -1.3997 C   0  0  0  0  0  0  0  0  0  0  0  0
    2.9706    0.4333   -0.7764 H   0  0  0  0  0  0  0  0  0  0  0  0
    3.3754    1.5776   -2.0671 H   0  0  0  0  0  0  0  0  0  0  0  0
    2.2954    2.0765   -0.7513 H   0  0  0  0  0  0  0  0  0  0  0  0
    1.7584   -0.4346   -3.1001 C   0  0  0  0  0  0  0  0  0  0  0  0
    0.8718   -0.8535   -3.5859 H   0  0  0  0  0  0  0  0  0  0  0  0
    2.4566   -0.1119   -3.8788 H   0  0  0  0  0  0  0  0  0  0  0  0
    2.2469   -1.2219   -2.5186 H   0  0  0  0  0  0  0  0  0  0  0  0
    0.5742   -0.4470    0.9970 C   0  0  0  0  0  0  0  0  0  0  0  0
    1.7456   -0.5200    1.3434 O   0  0  0  0  0  0  0  0  0  0  0  0
   -0.3469    0.1211    1.8595 N   0  0  0  0  0  0  0  0  0  0  0  0
   -1.3194    0.0599    1.5778 H   0  0  0  0  0  0  0  0  0  0  0  0
   -0.0377    0.4353    3.2484 C   0  0  0  0  0  0  0  0  0  0  0  0
    0.7950    1.1443    3.3049 H   0  0  0  0  0  0  0  0  0  0  0  0
   -0.9067    0.8861    3.7369 H   0  0  0  0  0  0  0  0  0  0  0  0
    0.2360   -0.4742    3.7935 H   0  0  0  0  0  0  0  0  0  0  0  0
  1  2  1  0  0  0  0
  2  3  1  0  0  0  0
  2  4  1  0  0  0  0
  2  5  1  0  0  0  0
  5  6  2  0  0  0  0
  5  7  1  0  0  0  0
  7  8  1  0  0  0  0
  7  9  1  0  0  0  0
  9 10  1  0  0  0  0
  9 11  1  0  0  0  0
  9 24  1  0  0  0  0
 11 12  1  0  0  0  0
 11 13  1  0  0  0  0
 11 14  1  0  0  0  0
 14 15  1  0  0  0  0
 14 16  1  0  0  0  0
 14 20  1  0  0  0  0
 16 17  1  0  0  0  0
 16 18  1  0  0  0  0
 16 19  1  0  0  0  0
 20 21  1  0  0  0  0
 20 22  1  0  0  0  0
 20 23  1  0  0  0  0
 24 25  2  0  0  0  0
 24 26  1  0  0  0  0
 26 27  1  0  0  0  0
 26 28  1  0  0  0  0
 28 29  1  0  0  0  0
 28 30  1  0  0  0  0
 28 31  1  0  0  0  0
M  END
$$$$

  -OEChem-04042216013D

 31 30  0     1  0  0  0  0  0999 V2000
   -2.8584   -4.2703    0.2242 H   0  0  0  0  0  0  0  0  0  0  0  0
   -2.7965   -3.2995   -0.2762 C   0  0  0  0  0  0  0  0  0  0  0  0
   -3.6010   -2.6605    0.0957 H   0  0  0  0  0  0  0  0  0  0  0  0
   -2.9250   -3.4502   -1.3506 H   0  0  0  0  0  0  0  0  0  0  0  0
   -1.4513   -2.6554    0.0015 C   0  0  0  0  0  0  0  0  0  0  0  0
   -0.6567   -3.2101    0.7382 O   0  0  0  0  0  0  0  0  0  0  0  0
   -1.1440   -1.4395   -0.5783 N   0  0  0  0  0  0  0  0  0  0  0  0
   -1.8110   -1.0779   -1.2528 H   0  0  0  0  0  0  0  0  0  0  0  0
    0.1683   -0.7714   -0.4694 C   0  0  1  0  0  0  0  0  0  0  0  0
    0.9237   -1.4587   -0.8604 H   0  0  0  0  0  0  0  0  0  0  0  0
    0.1240    0.5178   -1.3317 C   0  0  0  0  0  0  0  0  0  0  0  0
   -0.7508    0.4868   -1.9891 H   0  0  0  0  0  0  0  0  0  0  0  0
   -0.0120    1.3850   -0.6763 H   0  0  0  0  0  0  0  0  0  0  0  0
    1.3579    0.7682   -2.2284 C   0  0  0  0  0  0  0  0  0  0  0  0
    1.1937    1.7266   -2.7326 H   0  0  0  0  0  0  0  0  0  0  0  0
    2.6563    0.8916   -1.4233 C   0  0  0  0  0  0  0  0  0  0  0  0
    2.9507   -0.0734   -1.0001 H   0  0  0  0  0  0  0  0  0  0  0  0
    3.4680    1.2413   -2.0683 H   0  0  0  0  0  0  0  0  0  0  0  0
    2.5341    1.6092   -0.6059 H   0  0  0  0  0  0  0  0  0  0  0  0
    1.5096   -0.3054   -3.3159 C   0  0  0  0  0  0  0  0  0  0  0  0
    0.5793   -0.4083   -3.8827 H   0  0  0  0  0  0  0  0  0  0  0  0
    2.3052   -0.0228   -4.0124 H   0  0  0  0  0  0  0  0  0  0  0  0
    1.7653   -1.2783   -2.8867 H   0  0  0  0  0  0  0  0  0  0  0  0
    0.5805   -0.4461    0.9874 C   0  0  0  0  0  0  0  0  0  0  0  0
    1.7524   -0.5144    1.3334 O   0  0  0  0  0  0  0  0  0  0  0  0
   -0.3426    0.1112    1.8550 N   0  0  0  0  0  0  0  0  0  0  0  0
   -1.3150    0.0475    1.5735 H   0  0  0  0  0  0  0  0  0  0  0  0
   -0.0332    0.4182    3.2457 C   0  0  0  0  0  0  0  0  0  0  0  0
    0.7987    1.1280    3.3057 H   0  0  0  0  0  0  0  0  0  0  0  0
   -0.9025    0.8654    3.7371 H   0  0  0  0  0  0  0  0  0  0  0  0
    0.2418   -0.4937    3.7862 H   0  0  0  0  0  0  0  0  0  0  0  0
  1  2  1  0  0  0  0
  2  3  1  0  0  0  0
  2  4  1  0  0  0  0
  2  5  1  0  0  0  0
  5  6  2  0  0  0  0
  5  7  1  0  0  0  0
  7  8  1  0  0  0  0
  7  9  1  0  0  0  0
  9 10  1  0  0  0  0
  9 11  1  0  0  0  0
  9 24  1  0  0  0  0
 11 12  1  0  0  0  0
 11 13  1  0  0  0  0
 11 14  1  0  0  0  0
 14 15  1  0  0  0  0
 14 16  1  0  0  0  0
 14 20  1  0  0  0  0
 16 17  1  0  0  0  0
 16 18  1  0  0  0  0
 16 19  1  0  0  0  0
 20 21  1  0  0  0  0
 20 22  1  0  0  0  0
 20 23  1  0  0  0  0
 24 25  2  0  0  0  0
 24 26  1  0  0  0  0
 26 27  1  0  0  0  0
 26 28  1  0  0  0  0
 28 29  1  0  0  0  0
 28 30  1  0  0  0  0
 28 31  1  0  0  0  0
M  END
$$$$

  -OEChem-04042216013D

 31 30  0     1  0  0  0  0  0999 V2000
   -2.8572   -4.2753    0.1932 H   0  0  0  0  0  0  0  0  0  0  0  0
   -2.7965   -3.3017   -0.3019 C   0  0  0  0  0  0  0  0  0  0  0  0
   -3.6087   -2.6698    0.0648 H   0  0  0  0  0  0  0  0  0  0  0  0
   -2.9135   -3.4482   -1.3784 H   0  0  0  0  0  0  0  0  0  0  0  0
   -1.4585   -2.6496   -0.0083 C   0  0  0  0  0  0  0  0  0  0  0  0
   -0.6649   -3.2045    0.7294 O   0  0  0  0  0  0  0  0  0  0  0  0
   -1.1544   -1.4285   -0.5785 N   0  0  0  0  0  0  0  0  0  0  0  0
   -1.8180   -1.0688   -1.2575 H   0  0  0  0  0  0  0  0  0  0  0  0
    0.1581   -0.7616   -0.4679 C   0  0  1  0  0  0  0  0  0  0  0  0
    0.9018   -1.4537   -0.8740 H   0  0  0  0  0  0  0  0  0  0  0  0
    0.1126    0.5257   -1.3331 C   0  0  0  0  0  0  0  0  0  0  0  0
   -0.7737    0.5120   -1.9755 H   0  0  0  0  0  0  0  0  0  0  0  0
   -0.0052    1.3873   -0.6672 H   0  0  0  0  0  0  0  0  0  0  0  0
    1.3451    0.7846   -2.2334 C   0  0  0  0  0  0  0  0  0  0  0  0
    1.3003    1.8271   -2.5661 H   0  0  0  0  0  0  0  0  0  0  0  0
    2.6929    0.5682   -1.5305 C   0  0  0  0  0  0  0  0  0  0  0  0
    2.8546   -0.4831   -1.2756 H   0  0  0  0  0  0  0  0  0  0  0  0
    3.5117    0.8858   -2.1833 H   0  0  0  0  0  0  0  0  0  0  0  0
    2.7407    1.1627   -0.6130 H   0  0  0  0  0  0  0  0  0  0  0  0
    1.2869   -0.1147   -3.4758 C   0  0  0  0  0  0  0  0  0  0  0  0
    0.3621    0.0611   -4.0337 H   0  0  0  0  0  0  0  0  0  0  0  0
    2.1308    0.0998   -4.1391 H   0  0  0  0  0  0  0  0  0  0  0  0
    1.3285   -1.1719   -3.1957 H   0  0  0  0  0  0  0  0  0  0  0  0
    0.5818   -0.4464    0.9877 C   0  0  0  0  0  0  0  0  0  0  0  0
    1.7561   -0.5199    1.3243 O   0  0  0  0  0  0  0  0  0  0  0  0
   -0.3345    0.1053    1.8658 N   0  0  0  0  0  0  0  0  0  0  0  0
   -1.3090    0.0447    1.5908 H   0  0  0  0  0  0  0  0  0  0  0  0
   -0.0161    0.3999    3.2571 C   0  0  0  0  0  0  0  0  0  0  0  0
    0.8143    1.1111    3.3185 H   0  0  0  0  0  0  0  0  0  0  0  0
   -0.8833    0.8401    3.7584 H   0  0  0  0  0  0  0  0  0  0  0  0
    0.2646   -0.5164    3.7871 H   0  0  0  0  0  0  0  0  0  0  0  0
  1  2  1  0  0  0  0
  2  3  1  0  0  0  0
  2  4  1  0  0  0  0
  2  5  1  0  0  0  0
  5  6  2  0  0  0  0
  5  7  1  0  0  0  0
  7  8  1  0  0  0  0
  7  9  1  0  0  0  0
  9 10  1  0  0  0  0
  9 11  1  0  0  0  0
  9 24  1  0  0  0  0
 11 12  1  0  0  0  0
 11 13  1  0  0  0  0
 11 14  1  0  0  0  0
 14 15  1  0  0  0  0
 14 16  1  0  0  0  0
 14 20  1  0  0  0  0
 16 17  1  0  0  0  0
 16 18  1  0  0  0  0
 16 19  1  0  0  0  0
 20 21  1  0  0  0  0
 20 22  1  0  0  0  0
 20 23  1  0  0  0  0
 24 25  2  0  0  0  0
 24 26  1  0  0  0  0
 26 27  1  0  0  0  0
 26 28  1  0  0  0  0
 28 29  1  0  0  0  0
 28 30  1  0  0  0  0
 28 31  1  0  0  0  0
M  END
$$$$

  -OEChem-04042216013D

 31 30  0     1  0  0  0  0  0999 V2000
   -2.8824   -4.2711    0.1933 H   0  0  0  0  0  0  0  0  0  0  0  0
   -2.8143   -3.2981   -0.3017 C   0  0  0  0  0  0  0  0  0  0  0  0
   -3.6253   -2.6618    0.0607 H   0  0  0  0  0  0  0  0  0  0  0  0
   -2.9264   -3.4446   -1.3787 H   0  0  0  0  0  0  0  0  0  0  0  0
   -1.4743   -2.6529   -0.0014 C   0  0  0  0  0  0  0  0  0  0  0  0
   -0.6881   -3.2102    0.7423 O   0  0  0  0  0  0  0  0  0  0  0  0
   -1.1606   -1.4342   -0.5715 N   0  0  0  0  0  0  0  0  0  0  0  0
   -1.8190   -1.0714   -1.2538 H   0  0  0  0  0  0  0  0  0  0  0  0
    0.1549   -0.7739   -0.4557 C   0  0  1  0  0  0  0  0  0  0  0  0
    0.8876   -1.4788   -0.8560 H   0  0  0  0  0  0  0  0  0  0  0  0
    0.1188    0.5097   -1.3280 C   0  0  0  0  0  0  0  0  0  0  0  0
   -0.7773    0.5045   -1.9567 H   0  0  0  0  0  0  0  0  0  0  0  0
    0.0086    1.3683   -0.6566 H   0  0  0  0  0  0  0  0  0  0  0  0
    1.3472    0.7889   -2.2369 C   0  0  0  0  0  0  0  0  0  0  0  0
    1.4296    1.8740   -2.3620 H   0  0  0  0  0  0  0  0  0  0  0  0
    2.6968    0.2669   -1.7171 C   0  0  0  0  0  0  0  0  0  0  0  0
    2.7365   -0.8256   -1.6962 H   0  0  0  0  0  0  0  0  0  0  0  0
    3.5057    0.6167   -2.3662 H   0  0  0  0  0  0  0  0  0  0  0  0
    2.8883    0.6487   -0.7104 H   0  0  0  0  0  0  0  0  0  0  0  0
    1.1056    0.1656   -3.6187 C   0  0  0  0  0  0  0  0  0  0  0  0
    0.2052    0.5850   -4.0784 H   0  0  0  0  0  0  0  0  0  0  0  0
    1.9513    0.3696   -4.2831 H   0  0  0  0  0  0  0  0  0  0  0  0
    0.9824   -0.9192   -3.5365 H   0  0  0  0  0  0  0  0  0  0  0  0
    0.5773   -0.4576    0.9995 C   0  0  0  0  0  0  0  0  0  0  0  0
    1.7506   -0.5360    1.3382 O   0  0  0  0  0  0  0  0  0  0  0  0
   -0.3384    0.1010    1.8737 N   0  0  0  0  0  0  0  0  0  0  0  0
   -1.3122    0.0420    1.5962 H   0  0  0  0  0  0  0  0  0  0  0  0
   -0.0239    0.3933    3.2665 C   0  0  0  0  0  0  0  0  0  0  0  0
    0.8090    1.1015    3.3318 H   0  0  0  0  0  0  0  0  0  0  0  0
   -0.8918    0.8358    3.7649 H   0  0  0  0  0  0  0  0  0  0  0  0
    0.2515   -0.5244    3.7969 H   0  0  0  0  0  0  0  0  0  0  0  0
  1  2  1  0  0  0  0
  2  3  1  0  0  0  0
  2  4  1  0  0  0  0
  2  5  1  0  0  0  0
  5  6  2  0  0  0  0
  5  7  1  0  0  0  0
  7  8  1  0  0  0  0
  7  9  1  0  0  0  0
  9 10  1  0  0  0  0
  9 11  1  0  0  0  0
  9 24  1  0  0  0  0
 11 12  1  0  0  0  0
 11 13  1  0  0  0  0
 11 14  1  0  0  0  0
 14 15  1  0  0  0  0
 14 16  1  0  0  0  0
 14 20  1  0  0  0  0
 16 17  1  0  0  0  0
 16 18  1  0  0  0  0
 16 19  1  0  0  0  0
 20 21  1  0  0  0  0
 20 22  1  0  0  0  0
 20 23  1  0  0  0  0
 24 25  2  0  0  0  0
 24 26  1  0  0  0  0
 26 27  1  0  0  0  0
 26 28  1  0  0  0  0
 28 29  1  0  0  0  0
 28 30  1  0  0  0  0
 28 31  1  0  0  0  0
M  END
$$$$

  -OEChem-04042216013D

 31 30  0     1  0  0  0  0  0999 V2000
   -2.9025   -4.2817    0.2110 H   0  0  0  0  0  0  0  0  0  0  0  0
   -2.8321   -3.3103   -0.2870 C   0  0  0  0  0  0  0  0  0  0  0  0
   -3.6419   -2.6712    0.0728 H   0  0  0  0  0  0  0  0  0  0  0  0
   -2.9443   -3.4596   -1.3636 H   0  0  0  0  0  0  0  0  0  0  0  0
   -1.4910   -2.6671    0.0128 C   0  0  0  0  0  0  0  0  0  0  0  0
   -0.7106   -3.2206    0.7654 O   0  0  0  0  0  0  0  0  0  0  0  0
   -1.1703   -1.4536   -0.5647 N   0  0  0  0  0  0  0  0  0  0  0  0
   -1.8241   -1.0933   -1.2527 H   0  0  0  0  0  0  0  0  0  0  0  0
    0.1482   -0.7988   -0.4493 C   0  0  1  0  0  0  0  0  0  0  0  0
    0.8768   -1.5134   -0.8371 H   0  0  0  0  0  0  0  0  0  0  0  0
    0.1253    0.4873   -1.3211 C   0  0  0  0  0  0  0  0  0  0  0  0
   -0.7731    0.4786   -1.9464 H   0  0  0  0  0  0  0  0  0  0  0  0
    0.0095    1.3462   -0.6512 H   0  0  0  0  0  0  0  0  0  0  0  0
    1.3519    0.7778   -2.2365 C   0  0  0  0  0  0  0  0  0  0  0  0
    1.5984    1.8393   -2.1227 H   0  0  0  0  0  0  0  0  0  0  0  0
    2.6320   -0.0233   -1.9487 C   0  0  0  0  0  0  0  0  0  0  0  0
    2.5044   -1.0849   -2.1800 H   0  0  0  0  0  0  0  0  0  0  0  0
    3.4544    0.3555   -2.5636 H   0  0  0  0  0  0  0  0  0  0  0  0
    2.9250    0.0822   -0.9010 H   0  0  0  0  0  0  0  0  0  0  0  0
    0.9704    0.5383   -3.7041 C   0  0  0  0  0  0  0  0  0  0  0  0
    0.1311    1.1788   -3.9925 H   0  0  0  0  0  0  0  0  0  0  0  0
    1.8142    0.7703   -4.3616 H   0  0  0  0  0  0  0  0  0  0  0  0
    0.6840   -0.5065   -3.8616 H   0  0  0  0  0  0  0  0  0  0  0  0
    0.5693   -0.4741    1.0042 C   0  0  0  0  0  0  0  0  0  0  0  0
    1.7450   -0.5362    1.3377 O   0  0  0  0  0  0  0  0  0  0  0  0
   -0.3448    0.0951    1.8732 N   0  0  0  0  0  0  0  0  0  0  0  0
   -1.3198    0.0287    1.6014 H   0  0  0  0  0  0  0  0  0  0  0  0
   -0.0230    0.4163    3.2577 C   0  0  0  0  0  0  0  0  0  0  0  0
    0.8094    1.1263    3.3032 H   0  0  0  0  0  0  0  0  0  0  0  0
   -0.8877    0.8687    3.7521 H   0  0  0  0  0  0  0  0  0  0  0  0
    0.2568   -0.4901    3.8049 H   0  0  0  0  0  0  0  0  0  0  0  0
  1  2  1  0  0  0  0
  2  3  1  0  0  0  0
  2  4  1  0  0  0  0
  2  5  1  0  0  0  0
  5  6  2  0  0  0  0
  5  7  1  0  0  0  0
  7  8  1  0  0  0  0
  7  9  1  0  0  0  0
  9 10  1  0  0  0  0
  9 11  1  0  0  0  0
  9 24  1  0  0  0  0
 11 12  1  0  0  0  0
 11 13  1  0  0  0  0
 11 14  1  0  0  0  0
 14 15  1  0  0  0  0
 14 16  1  0  0  0  0
 14 20  1  0  0  0  0
 16 17  1  0  0  0  0
 16 18  1  0  0  0  0
 16 19  1  0  0  0  0
 20 21  1  0  0  0  0
 20 22  1  0  0  0  0
 20 23  1  0  0  0  0
 24 25  2  0  0  0  0
 24 26  1  0  0  0  0
 26 27  1  0  0  0  0
 26 28  1  0  0  0  0
 28 29  1  0  0  0  0
 28 30  1  0  0  0  0
 28 31  1  0  0  0  0
M  END
$$$$

  -OEChem-04042216013D

 31 30  0     1  0  0  0  0  0999 V2000
   -2.9118   -4.3066    0.2103 H   0  0  0  0  0  0  0  0  0  0  0  0
   -2.8453   -3.3365   -0.2906 C   0  0  0  0  0  0  0  0  0  0  0  0
   -3.6612   -2.7016    0.0628 H   0  0  0  0  0  0  0  0  0  0  0  0
   -2.9509   -3.4902   -1.3672 H   0  0  0  0  0  0  0  0  0  0  0  0
   -1.5098   -2.6838    0.0135 C   0  0  0  0  0  0  0  0  0  0  0  0
   -0.7281   -3.2290    0.7712 O   0  0  0  0  0  0  0  0  0  0  0  0
   -1.1947   -1.4696   -0.5650 N   0  0  0  0  0  0  0  0  0  0  0  0
   -1.8475   -1.1155   -1.2574 H   0  0  0  0  0  0  0  0  0  0  0  0
    0.1227   -0.8129   -0.4513 C   0  0  1  0  0  0  0  0  0  0  0  0
    0.8439   -1.5377   -0.8333 H   0  0  0  0  0  0  0  0  0  0  0  0
    0.1133    0.4748   -1.3214 C   0  0  0  0  0  0  0  0  0  0  0  0
   -0.7736    0.4428   -1.9621 H   0  0  0  0  0  0  0  0  0  0  0  0
   -0.0277    1.3399   -0.6642 H   0  0  0  0  0  0  0  0  0  0  0  0
    1.3462    0.7637   -2.2314 C   0  0  0  0  0  0  0  0  0  0  0  0
    1.7717    1.7156   -1.8947 H   0  0  0  0  0  0  0  0  0  0  0  0
    2.4901   -0.2616   -2.1968 C   0  0  0  0  0  0  0  0  0  0  0  0
    2.1619   -1.2303   -2.5861 H   0  0  0  0  0  0  0  0  0  0  0  0
    3.3252    0.0859   -2.8130 H   0  0  0  0  0  0  0  0  0  0  0  0
    2.8620   -0.3932   -1.1765 H   0  0  0  0  0  0  0  0  0  0  0  0
    0.8978    0.9421   -3.6884 C   0  0  0  0  0  0  0  0  0  0  0  0
    0.1493    1.7372   -3.7638 H   0  0  0  0  0  0  0  0  0  0  0  0
    1.7490    1.2156   -4.3199 H   0  0  0  0  0  0  0  0  0  0  0  0
    0.4637    0.0140   -4.0740 H   0  0  0  0  0  0  0  0  0  0  0  0
    0.5633   -0.4804    0.9934 C   0  0  0  0  0  0  0  0  0  0  0  0
    1.7495   -0.5064    1.2934 O   0  0  0  0  0  0  0  0  0  0  0  0
   -0.3383    0.0927    1.8728 N   0  0  0  0  0  0  0  0  0  0  0  0
   -1.3186    0.0062    1.6266 H   0  0  0  0  0  0  0  0  0  0  0  0
    0.0115    0.4516    3.2411 C   0  0  0  0  0  0  0  0  0  0  0  0
    0.8367    1.1718    3.2506 H   0  0  0  0  0  0  0  0  0  0  0  0
   -0.8472    0.9067    3.7435 H   0  0  0  0  0  0  0  0  0  0  0  0
    0.3133   -0.4382    3.8036 H   0  0  0  0  0  0  0  0  0  0  0  0
  1  2  1  0  0  0  0
  2  3  1  0  0  0  0
  2  4  1  0  0  0  0
  2  5  1  0  0  0  0
  5  6  2  0  0  0  0
  5  7  1  0  0  0  0
  7  8  1  0  0  0  0
  7  9  1  0  0  0  0
  9 10  1  0  0  0  0
  9 11  1  0  0  0  0
  9 24  1  0  0  0  0
 11 12  1  0  0  0  0
 11 13  1  0  0  0  0
 11 14  1  0  0  0  0
 14 15  1  0  0  0  0
 14 16  1  0  0  0  0
 14 20  1  0  0  0  0
 16 17  1  0  0  0  0
 16 18  1  0  0  0  0
 16 19  1  0  0  0  0
 20 21  1  0  0  0  0
 20 22  1  0  0  0  0
 20 23  1  0  0  0  0
 24 25  2  0  0  0  0
 24 26  1  0  0  0  0
 26 27  1  0  0  0  0
 26 28  1  0  0  0  0
 28 29  1  0  0  0  0
 28 30  1  0  0  0  0
 28 31  1  0  0  0  0
M  END
$$$$

  -OEChem-04042216013D

 31 30  0     1  0  0  0  0  0999 V2000
   -2.9109   -4.3211    0.2057 H   0  0  0  0  0  0  0  0  0  0  0  0
   -2.8488   -3.3532   -0.3002 C   0  0  0  0  0  0  0  0  0  0  0  0
   -3.6728   -2.7236    0.0439 H   0  0  0  0  0  0  0  0  0  0  0  0
   -2.9453   -3.5138   -1.3767 H   0  0  0  0  0  0  0  0  0  0  0  0
   -1.5207   -2.6880    0.0095 C   0  0  0  0  0  0  0  0  0  0  0  0
   -0.7379   -3.2268    0.7706 O   0  0  0  0  0  0  0  0  0  0  0  0
   -1.2123   -1.4715   -0.5682 N   0  0  0  0  0  0  0  0  0  0  0  0
   -1.8652   -1.1219   -1.2627 H   0  0  0  0  0  0  0  0  0  0  0  0
    0.1037   -0.8117   -0.4572 C   0  0  1  0  0  0  0  0  0  0  0  0
    0.8220   -1.5401   -0.8364 H   0  0  0  0  0  0  0  0  0  0  0  0
    0.0998    0.4760   -1.3271 C   0  0  0  0  0  0  0  0  0  0  0  0
   -0.7742    0.4225   -1.9845 H   0  0  0  0  0  0  0  0  0  0  0  0
   -0.0603    1.3475   -0.6830 H   0  0  0  0  0  0  0  0  0  0  0  0
    1.3362    0.7582   -2.2309 C   0  0  0  0  0  0  0  0  0  0  0  0
    1.9234    1.5337   -1.7264 H   0  0  0  0  0  0  0  0  0  0  0  0
    2.2988   -0.4142   -2.4708 C   0  0  0  0  0  0  0  0  0  0  0  0
    1.7738   -1.2622   -2.9216 H   0  0  0  0  0  0  0  0  0  0  0  0
    3.1047   -0.1111   -3.1465 H   0  0  0  0  0  0  0  0  0  0  0  0
    2.7596   -0.7347   -1.5310 H   0  0  0  0  0  0  0  0  0  0  0  0
    0.8815    1.3224   -3.5835 C   0  0  0  0  0  0  0  0  0  0  0  0
    0.2395    2.1966   -3.4360 H   0  0  0  0  0  0  0  0  0  0  0  0
    1.7464    1.6316   -4.1789 H   0  0  0  0  0  0  0  0  0  0  0  0
    0.3233    0.5689   -4.1483 H   0  0  0  0  0  0  0  0  0  0  0  0
    0.5596   -0.4760    0.9801 C   0  0  0  0  0  0  0  0  0  0  0  0
    1.7519   -0.4874    1.2570 O   0  0  0  0  0  0  0  0  0  0  0  0
   -0.3319    0.0967    1.8696 N   0  0  0  0  0  0  0  0  0  0  0  0
   -1.3153    0.0074    1.6370 H   0  0  0  0  0  0  0  0  0  0  0  0
    0.0374    0.4658    3.2301 C   0  0  0  0  0  0  0  0  0  0  0  0
    0.8544    1.1949    3.2216 H   0  0  0  0  0  0  0  0  0  0  0  0
   -0.8172    0.9137    3.7459 H   0  0  0  0  0  0  0  0  0  0  0  0
    0.3594   -0.4178    3.7912 H   0  0  0  0  0  0  0  0  0  0  0  0
  1  2  1  0  0  0  0
  2  3  1  0  0  0  0
  2  4  1  0  0  0  0
  2  5  1  0  0  0  0
  5  6  2  0  0  0  0
  5  7  1  0  0  0  0
  7  8  1  0  0  0  0
  7  9  1  0  0  0  0
  9 10  1  0  0  0  0
  9 11  1  0  0  0  0
  9 24  1  0  0  0  0
 11 12  1  0  0  0  0
 11 13  1  0  0  0  0
 11 14  1  0  0  0  0
 14 15  1  0  0  0  0
 14 16  1  0  0  0  0
 14 20  1  0  0  0  0
 16 17  1  0  0  0  0
 16 18  1  0  0  0  0
 16 19  1  0  0  0  0
 20 21  1  0  0  0  0
 20 22  1  0  0  0  0
 20 23  1  0  0  0  0
 24 25  2  0  0  0  0
 24 26  1  0  0  0  0
 26 27  1  0  0  0  0
 26 28  1  0  0  0  0
 28 29  1  0  0  0  0
 28 30  1  0  0  0  0
 28 31  1  0  0  0  0
M  END
$$$$

  -OEChem-04042216013D

 31 30  0     1  0  0  0  0  0999 V2000
   -2.8992   -4.3216    0.1933 H   0  0  0  0  0  0  0  0  0  0  0  0
   -2.8420   -3.3512   -0.3084 C   0  0  0  0  0  0  0  0  0  0  0  0
   -3.6644   -2.7243    0.0441 H   0  0  0  0  0  0  0  0  0  0  0  0
   -2.9451   -3.5070   -1.3849 H   0  0  0  0  0  0  0  0  0  0  0  0
   -1.5132   -2.6849   -0.0043 C   0  0  0  0  0  0  0  0  0  0  0  0
   -0.7244   -3.2249    0.7497 O   0  0  0  0  0  0  0  0  0  0  0  0
   -1.2118   -1.4649   -0.5778 N   0  0  0  0  0  0  0  0  0  0  0  0
   -1.8708   -1.1124   -1.2651 H   0  0  0  0  0  0  0  0  0  0  0  0
    0.1017   -0.7998   -0.4686 C   0  0  1  0  0  0  0  0  0  0  0  0
    0.8265   -1.5196   -0.8510 H   0  0  0  0  0  0  0  0  0  0  0  0
    0.0907    0.4911   -1.3309 C   0  0  0  0  0  0  0  0  0  0  0  0
   -0.7765    0.4332   -1.9964 H   0  0  0  0  0  0  0  0  0  0  0  0
   -0.0729    1.3622   -0.6871 H   0  0  0  0  0  0  0  0  0  0  0  0
    1.3283    0.7648   -2.2286 C   0  0  0  0  0  0  0  0  0  0  0  0
    2.0486    1.3245   -1.6214 H   0  0  0  0  0  0  0  0  0  0  0  0
    2.0707   -0.4752   -2.7499 C   0  0  0  0  0  0  0  0  0  0  0  0
    1.3715   -1.1779   -3.2139 H   0  0  0  0  0  0  0  0  0  0  0  0
    2.8166   -0.1868   -3.4970 H   0  0  0  0  0  0  0  0  0  0  0  0
    2.6018   -0.9805   -1.9373 H   0  0  0  0  0  0  0  0  0  0  0  0
    0.9183    1.6522   -3.4110 C   0  0  0  0  0  0  0  0  0  0  0  0
    0.4166    2.5567   -3.0531 H   0  0  0  0  0  0  0  0  0  0  0  0
    1.7998    1.9552   -3.9846 H   0  0  0  0  0  0  0  0  0  0  0  0
    0.2378    1.1159   -4.0800 H   0  0  0  0  0  0  0  0  0  0  0  0
    0.5606   -0.4682    0.9685 C   0  0  0  0  0  0  0  0  0  0  0  0
    1.7544   -0.4708    1.2389 O   0  0  0  0  0  0  0  0  0  0  0  0
   -0.3302    0.0969    1.8637 N   0  0  0  0  0  0  0  0  0  0  0  0
   -1.3141   -0.0013    1.6367 H   0  0  0  0  0  0  0  0  0  0  0  0
    0.0429    0.4630    3.2241 C   0  0  0  0  0  0  0  0  0  0  0  0
    0.8576    1.1947    3.2141 H   0  0  0  0  0  0  0  0  0  0  0  0
   -0.8113    0.9068    3.7443 H   0  0  0  0  0  0  0  0  0  0  0  0
    0.3694   -0.4211    3.7817 H   0  0  0  0  0  0  0  0  0  0  0  0
  1  2  1  0  0  0  0
  2  3  1  0  0  0  0
  2  4  1  0  0  0  0
  2  5  1  0  0  0  0
  5  6  2  0  0  0  0
  5  7  1  0  0  0  0
  7  8  1  0  0  0  0
  7  9  1  0  0  0  0
  9 10  1  0  0  0  0
  9 11  1  0  0  0  0
  9 24  1  0  0  0  0
 11 12  1  0  0  0  0
 11 13  1  0  0  0  0
 11 14  1  0  0  0  0
 14 15  1  0  0  0  0
 14 16  1  0  0  0  0
 14 20  1  0  0  0  0
 16 17  1  0  0  0  0
 16 18  1  0  0  0  0
 16 19  1  0  0  0  0
 20 21  1  0  0  0  0
 20 22  1  0  0  0  0
 20 23  1  0  0  0  0
 24 25  2  0  0  0  0
 24 26  1  0  0  0  0
 26 27  1  0  0  0  0
 26 28  1  0  0  0  0
 28 29  1  0  0  0  0
 28 30  1  0  0  0  0
 28 31  1  0  0  0  0
M  END
$$$$

  -OEChem-04042216013D

 31 30  0     1  0  0  0  0  0999 V2000
   -2.8746   -4.3171    0.1808 H   0  0  0  0  0  0  0  0  0  0  0  0
   -2.8240   -3.3443   -0.3169 C   0  0  0  0  0  0  0  0  0  0  0  0
   -3.6450   -2.7209    0.0450 H   0  0  0  0  0  0  0  0  0  0  0  0
   -2.9348   -3.4953   -1.3933 H   0  0  0  0  0  0  0  0  0  0  0  0
   -1.4951   -2.6755   -0.0203 C   0  0  0  0  0  0  0  0  0  0  0  0
   -0.6972   -3.2176    0.7224 O   0  0  0  0  0  0  0  0  0  0  0  0
   -1.2045   -1.4501   -0.5879 N   0  0  0  0  0  0  0  0  0  0  0  0
   -1.8717   -1.0950   -1.2658 H   0  0  0  0  0  0  0  0  0  0  0  0
    0.1045   -0.7767   -0.4814 C   0  0  1  0  0  0  0  0  0  0  0  0
    0.8404   -1.4809   -0.8728 H   0  0  0  0  0  0  0  0  0  0  0  0
    0.0795    0.5185   -1.3325 C   0  0  0  0  0  0  0  0  0  0  0  0
   -0.7867    0.4723   -2.0004 H   0  0  0  0  0  0  0  0  0  0  0  0
   -0.0743    1.3847   -0.6797 H   0  0  0  0  0  0  0  0  0  0  0  0
    1.3210    0.7752   -2.2209 C   0  0  0  0  0  0  0  0  0  0  0  0
    2.1407    1.0931   -1.5665 H   0  0  0  0  0  0  0  0  0  0  0  0
    1.8149   -0.4493   -3.0087 C   0  0  0  0  0  0  0  0  0  0  0  0
    0.9773   -0.9556   -3.4984 H   0  0  0  0  0  0  0  0  0  0  0  0
    2.5313   -0.1439   -3.7777 H   0  0  0  0  0  0  0  0  0  0  0  0
    2.3270   -1.1593   -2.3531 H   0  0  0  0  0  0  0  0  0  0  0  0
    1.0143    1.9218   -3.1922 C   0  0  0  0  0  0  0  0  0  0  0  0
    0.6837    2.8092   -2.6433 H   0  0  0  0  0  0  0  0  0  0  0  0
    1.9093    2.1884   -3.7631 H   0  0  0  0  0  0  0  0  0  0  0  0
    0.2273    1.6332   -3.8961 H   0  0  0  0  0  0  0  0  0  0  0  0
    0.5644   -0.4520    0.9571 C   0  0  0  0  0  0  0  0  0  0  0  0
    1.7587   -0.4495    1.2256 O   0  0  0  0  0  0  0  0  0  0  0  0
   -0.3292    0.1000    1.8574 N   0  0  0  0  0  0  0  0  0  0  0  0
   -1.3122   -0.0027    1.6288 H   0  0  0  0  0  0  0  0  0  0  0  0
    0.0405    0.4482    3.2232 C   0  0  0  0  0  0  0  0  0  0  0  0
    0.8496    1.1861    3.2255 H   0  0  0  0  0  0  0  0  0  0  0  0
   -0.8175    0.8769    3.7495 H   0  0  0  0  0  0  0  0  0  0  0  0
    0.3733   -0.4422    3.7670 H   0  0  0  0  0  0  0  0  0  0  0  0
  1  2  1  0  0  0  0
  2  3  1  0  0  0  0
  2  4  1  0  0  0  0
  2  5  1  0  0  0  0
  5  6  2  0  0  0  0
  5  7  1  0  0  0  0
  7  8  1  0  0  0  0
  7  9  1  0  0  0  0
  9 10  1  0  0  0  0
  9 11  1  0  0  0  0
  9 24  1  0  0  0  0
 11 12  1  0  0  0  0
 11 13  1  0  0  0  0
 11 14  1  0  0  0  0
 14 15  1  0  0  0  0
 14 16  1  0  0  0  0
 14 20  1  0  0  0  0
 16 17  1  0  0  0  0
 16 18  1  0  0  0  0
 16 19  1  0  0  0  0
 20 21  1  0  0  0  0
 20 22  1  0  0  0  0
 20 23  1  0  0  0  0
 24 25  2  0  0  0  0
 24 26  1  0  0  0  0
 26 27  1  0  0  0  0
 26 28  1  0  0  0  0
 28 29  1  0  0  0  0
 28 30  1  0  0  0  0
 28 31  1  0  0  0  0
M  END
$$$$

  -OEChem-04042216013D

 31 30  0     1  0  0  0  0  0999 V2000
   -2.8378   -4.3231    0.1584 H   0  0  0  0  0  0  0  0  0  0  0  0
   -2.7994   -3.3460   -0.3317 C   0  0  0  0  0  0  0  0  0  0  0  0
   -3.6237   -2.7333    0.0409 H   0  0  0  0  0  0  0  0  0  0  0  0
   -2.9169   -3.4895   -1.4085 H   0  0  0  0  0  0  0  0  0  0  0  0
   -1.4741   -2.6677   -0.0389 C   0  0  0  0  0  0  0  0  0  0  0  0
   -0.6661   -3.2090    0.6936 O   0  0  0  0  0  0  0  0  0  0  0  0
   -1.1984   -1.4345   -0.5971 N   0  0  0  0  0  0  0  0  0  0  0  0
   -1.8705   -1.0819   -1.2715 H   0  0  0  0  0  0  0  0  0  0  0  0
    0.1041   -0.7494   -0.4909 C   0  0  1  0  0  0  0  0  0  0  0  0
    0.8535   -1.4340   -0.8940 H   0  0  0  0  0  0  0  0  0  0  0  0
    0.0612    0.5503   -1.3306 C   0  0  0  0  0  0  0  0  0  0  0  0
   -0.8080    0.5230   -1.9956 H   0  0  0  0  0  0  0  0  0  0  0  0
   -0.0780    1.4086   -0.6641 H   0  0  0  0  0  0  0  0  0  0  0  0
    1.3111    0.7857   -2.2063 C   0  0  0  0  0  0  0  0  0  0  0  0
    2.1879    0.8471   -1.5514 H   0  0  0  0  0  0  0  0  0  0  0  0
    1.5544   -0.3333   -3.2333 C   0  0  0  0  0  0  0  0  0  0  0  0
    0.6457   -0.5291   -3.8109 H   0  0  0  0  0  0  0  0  0  0  0  0
    2.3491   -0.0428   -3.9277 H   0  0  0  0  0  0  0  0  0  0  0  0
    1.8687   -1.2612   -2.7490 H   0  0  0  0  0  0  0  0  0  0  0  0
    1.1650    2.1232   -2.9415 C   0  0  0  0  0  0  0  0  0  0  0  0
    1.0224    2.9392   -2.2259 H   0  0  0  0  0  0  0  0  0  0  0  0
    2.0649    2.3374   -3.5267 H   0  0  0  0  0  0  0  0  0  0  0  0
    0.3064    2.1003   -3.6201 H   0  0  0  0  0  0  0  0  0  0  0  0
    0.5646   -0.4345    0.9503 C   0  0  0  0  0  0  0  0  0  0  0  0
    1.7594   -0.4263    1.2166 O   0  0  0  0  0  0  0  0  0  0  0  0
   -0.3303    0.0997    1.8603 N   0  0  0  0  0  0  0  0  0  0  0  0
   -1.3135   -0.0057    1.6339 H   0  0  0  0  0  0  0  0  0  0  0  0
    0.0427    0.4377    3.2278 C   0  0  0  0  0  0  0  0  0  0  0  0
    0.8461    1.1820    3.2335 H   0  0  0  0  0  0  0  0  0  0  0  0
   -0.8159    0.8547    3.7623 H   0  0  0  0  0  0  0  0  0  0  0  0
    0.3856   -0.4548    3.7618 H   0  0  0  0  0  0  0  0  0  0  0  0
  1  2  1  0  0  0  0
  2  3  1  0  0  0  0
  2  4  1  0  0  0  0
  2  5  1  0  0  0  0
  5  6  2  0  0  0  0
  5  7  1  0  0  0  0
  7  8  1  0  0  0  0
  7  9  1  0  0  0  0
  9 10  1  0  0  0  0
  9 11  1  0  0  0  0
  9 24  1  0  0  0  0
 11 12  1  0  0  0  0
 11 13  1  0  0  0  0
 11 14  1  0  0  0  0
 14 15  1  0  0  0  0
 14 16  1  0  0  0  0
 14 20  1  0  0  0  0
 16 17  1  0  0  0  0
 16 18  1  0  0  0  0
 16 19  1  0  0  0  0
 20 21  1  0  0  0  0
 20 22  1  0  0  0  0
 20 23  1  0  0  0  0
 24 25  2  0  0  0  0
 24 26  1  0  0  0  0
 26 27  1  0  0  0  0
 26 28  1  0  0  0  0
 28 29  1  0  0  0  0
 28 30  1  0  0  0  0
 28 31  1  0  0  0  0
M  END
$$$$

  -OEChem-04042216013D

 31 30  0     1  0  0  0  0  0999 V2000
   -2.7906   -4.3391    0.1197 H   0  0  0  0  0  0  0  0  0  0  0  0
   -2.7675   -3.3569   -0.3609 C   0  0  0  0  0  0  0  0  0  0  0  0
   -3.6035   -2.7621    0.0145 H   0  0  0  0  0  0  0  0  0  0  0  0
   -2.8783   -3.4921   -1.4394 H   0  0  0  0  0  0  0  0  0  0  0  0
   -1.4554   -2.6589   -0.0563 C   0  0  0  0  0  0  0  0  0  0  0  0
   -0.6399   -3.1951    0.6716 O   0  0  0  0  0  0  0  0  0  0  0  0
   -1.1986   -1.4160   -0.6015 N   0  0  0  0  0  0  0  0  0  0  0  0
   -1.8774   -1.0659   -1.2704 H   0  0  0  0  0  0  0  0  0  0  0  0
    0.0962   -0.7167   -0.4955 C   0  0  1  0  0  0  0  0  0  0  0  0
    0.8533   -1.3839   -0.9195 H   0  0  0  0  0  0  0  0  0  0  0  0
    0.0348    0.5850   -1.3275 C   0  0  0  0  0  0  0  0  0  0  0  0
   -0.8366    0.5727   -1.9902 H   0  0  0  0  0  0  0  0  0  0  0  0
   -0.0940    1.4375   -0.6513 H   0  0  0  0  0  0  0  0  0  0  0  0
    1.2985    0.7925   -2.1858 C   0  0  0  0  0  0  0  0  0  0  0  0
    2.1859    0.5930   -1.5737 H   0  0  0  0  0  0  0  0  0  0  0  0
    1.3094   -0.1398   -3.4068 C   0  0  0  0  0  0  0  0  0  0  0  0
    0.4344    0.0409   -4.0392 H   0  0  0  0  0  0  0  0  0  0  0  0
    2.2101    0.0317   -4.0046 H   0  0  0  0  0  0  0  0  0  0  0  0
    1.3040   -1.1895   -3.1005 H   0  0  0  0  0  0  0  0  0  0  0  0
    1.3622    2.2470   -2.6654 C   0  0  0  0  0  0  0  0  0  0  0  0
    1.4024    2.9291   -1.8103 H   0  0  0  0  0  0  0  0  0  0  0  0
    2.2584    2.4092   -3.2725 H   0  0  0  0  0  0  0  0  0  0  0  0
    0.4833    2.4954   -3.2687 H   0  0  0  0  0  0  0  0  0  0  0  0
    0.5646   -0.4124    0.9453 C   0  0  0  0  0  0  0  0  0  0  0  0
    1.7614   -0.3920    1.2017 O   0  0  0  0  0  0  0  0  0  0  0  0
   -0.3297    0.1010    1.8677 N   0  0  0  0  0  0  0  0  0  0  0  0
   -1.3134   -0.0150    1.6485 H   0  0  0  0  0  0  0  0  0  0  0  0
    0.0502    0.4309    3.2352 C   0  0  0  0  0  0  0  0  0  0  0  0
    0.8427    1.1865    3.2414 H   0  0  0  0  0  0  0  0  0  0  0  0
   -0.8099    0.8304    3.7808 H   0  0  0  0  0  0  0  0  0  0  0  0
    0.4101   -0.4619    3.7574 H   0  0  0  0  0  0  0  0  0  0  0  0
  1  2  1  0  0  0  0
  2  3  1  0  0  0  0
  2  4  1  0  0  0  0
  2  5  1  0  0  0  0
  5  6  2  0  0  0  0
  5  7  1  0  0  0  0
  7  8  1  0  0  0  0
  7  9  1  0  0  0  0
  9 10  1  0  0  0  0
  9 11  1  0  0  0  0
  9 24  1  0  0  0  0
 11 12  1  0  0  0  0
 11 13  1  0  0  0  0
 11 14  1  0  0  0  0
 14 15  1  0  0  0  0
 14 16  1  0  0  0  0
 14 20  1  0  0  0  0
 16 17  1  0  0  0  0
 16 18  1  0  0  0  0
 16 19  1  0  0  0  0
 20 21  1  0  0  0  0
 20 22  1  0  0  0  0
 20 23  1  0  0  0  0
 24 25  2  0  0  0  0
 24 26  1  0  0  0  0
 26 27  1  0  0  0  0
 26 28  1  0  0  0  0
 28 29  1  0  0  0  0
 28 30  1  0  0  0  0
 28 31  1  0  0  0  0
M  END
$$$$

  -OEChem-04042216013D

 31 30  0     1  0  0  0  0  0999 V2000
   -2.7817   -4.3349    0.1156 H   0  0  0  0  0  0  0  0  0  0  0  0
   -2.7626   -3.3503   -0.3606 C   0  0  0  0  0  0  0  0  0  0  0  0
   -3.5947   -2.7569    0.0258 H   0  0  0  0  0  0  0  0  0  0  0  0
   -2.8845   -3.4800   -1.4387 H   0  0  0  0  0  0  0  0  0  0  0  0
   -1.4468   -2.6545   -0.0664 C   0  0  0  0  0  0  0  0  0  0  0  0
   -0.6244   -3.1942    0.6510 O   0  0  0  0  0  0  0  0  0  0  0  0
   -1.1961   -1.4075   -0.6050 N   0  0  0  0  0  0  0  0  0  0  0  0
   -1.8832   -1.0495   -1.2612 H   0  0  0  0  0  0  0  0  0  0  0  0
    0.0951   -0.7025   -0.4961 C   0  0  1  0  0  0  0  0  0  0  0  0
    0.8504   -1.3668   -0.9310 H   0  0  0  0  0  0  0  0  0  0  0  0
    0.0293    0.5971   -1.3291 C   0  0  0  0  0  0  0  0  0  0  0  0
   -0.8434    0.5902   -1.9900 H   0  0  0  0  0  0  0  0  0  0  0  0
   -0.1005    1.4467   -0.6498 H   0  0  0  0  0  0  0  0  0  0  0  0
    1.3032    0.7939   -2.1778 C   0  0  0  0  0  0  0  0  0  0  0  0
    2.1682    0.3610   -1.6617 H   0  0  0  0  0  0  0  0  0  0  0  0
    1.1428    0.1358   -3.5543 C   0  0  0  0  0  0  0  0  0  0  0  0
    0.3130    0.5856   -4.1086 H   0  0  0  0  0  0  0  0  0  0  0  0
    2.0582    0.2574   -4.1420 H   0  0  0  0  0  0  0  0  0  0  0  0
    0.9478   -0.9354   -3.4435 H   0  0  0  0  0  0  0  0  0  0  0  0
    1.5706    2.2906   -2.3750 C   0  0  0  0  0  0  0  0  0  0  0  0
    1.7371    2.7780   -1.4090 H   0  0  0  0  0  0  0  0  0  0  0  0
    2.4633    2.4407   -2.9902 H   0  0  0  0  0  0  0  0  0  0  0  0
    0.7217    2.7745   -2.8684 H   0  0  0  0  0  0  0  0  0  0  0  0
    0.5635   -0.4034    0.9458 C   0  0  0  0  0  0  0  0  0  0  0  0
    1.7599   -0.3828    1.2036 O   0  0  0  0  0  0  0  0  0  0  0  0
   -0.3333    0.1006    1.8708 N   0  0  0  0  0  0  0  0  0  0  0  0
   -1.3161   -0.0196    1.6497 H   0  0  0  0  0  0  0  0  0  0  0  0
    0.0430    0.4182    3.2423 C   0  0  0  0  0  0  0  0  0  0  0  0
    0.8344    1.1749    3.2575 H   0  0  0  0  0  0  0  0  0  0  0  0
   -0.8189    0.8112    3.7895 H   0  0  0  0  0  0  0  0  0  0  0  0
    0.4030   -0.4789    3.7569 H   0  0  0  0  0  0  0  0  0  0  0  0
  1  2  1  0  0  0  0
  2  3  1  0  0  0  0
  2  4  1  0  0  0  0
  2  5  1  0  0  0  0
  5  6  2  0  0  0  0
  5  7  1  0  0  0  0
  7  8  1  0  0  0  0
  7  9  1  0  0  0  0
  9 10  1  0  0  0  0
  9 11  1  0  0  0  0
  9 24  1  0  0  0  0
 11 12  1  0  0  0  0
 11 13  1  0  0  0  0
 11 14  1  0  0  0  0
 14 15  1  0  0  0  0
 14 16  1  0  0  0  0
 14 20  1  0  0  0  0
 16 17  1  0  0  0  0
 16 18  1  0  0  0  0
 16 19  1  0  0  0  0
 20 21  1  0  0  0  0
 20 22  1  0  0  0  0
 20 23  1  0  0  0  0
 24 25  2  0  0  0  0
 24 26  1  0  0  0  0
 26 27  1  0  0  0  0
 26 28  1  0  0  0  0
 28 29  1  0  0  0  0
 28 30  1  0  0  0  0
 28 31  1  0  0  0  0
M  END
$$$$

  -OEChem-04042216013D

 31 30  0     1  0  0  0  0  0999 V2000
   -2.7909   -4.3392    0.1126 H   0  0  0  0  0  0  0  0  0  0  0  0
   -2.7709   -3.3540   -0.3622 C   0  0  0  0  0  0  0  0  0  0  0  0
   -3.6045   -2.7616    0.0221 H   0  0  0  0  0  0  0  0  0  0  0  0
   -2.8892   -3.4825   -1.4409 H   0  0  0  0  0  0  0  0  0  0  0  0
   -1.4566   -2.6573   -0.0619 C   0  0  0  0  0  0  0  0  0  0  0  0
   -0.6374   -3.1953    0.6605 O   0  0  0  0  0  0  0  0  0  0  0  0
   -1.2032   -1.4113   -0.6016 N   0  0  0  0  0  0  0  0  0  0  0  0
   -1.8866   -1.0558   -1.2629 H   0  0  0  0  0  0  0  0  0  0  0  0
    0.0891   -0.7083   -0.4914 C   0  0  1  0  0  0  0  0  0  0  0  0
    0.8382   -1.3807   -0.9234 H   0  0  0  0  0  0  0  0  0  0  0  0
    0.0292    0.5897   -1.3285 C   0  0  0  0  0  0  0  0  0  0  0  0
   -0.8434    0.5741   -1.9896 H   0  0  0  0  0  0  0  0  0  0  0  0
   -0.1137    1.4410   -0.6537 H   0  0  0  0  0  0  0  0  0  0  0  0
    1.3057    0.7918   -2.1797 C   0  0  0  0  0  0  0  0  0  0  0  0
    2.1132    0.1461   -1.8171 H   0  0  0  0  0  0  0  0  0  0  0  0
    1.0285    0.4758   -3.6545 C   0  0  0  0  0  0  0  0  0  0  0  0
    0.2614    1.1438   -4.0591 H   0  0  0  0  0  0  0  0  0  0  0  0
    1.9406    0.5962   -4.2475 H   0  0  0  0  0  0  0  0  0  0  0  0
    0.6841   -0.5575   -3.7619 H   0  0  0  0  0  0  0  0  0  0  0  0
    1.7874    2.2432   -2.0666 C   0  0  0  0  0  0  0  0  0  0  0  0
    2.0263    2.4833   -1.0255 H   0  0  0  0  0  0  0  0  0  0  0  0
    2.6906    2.3936   -2.6663 H   0  0  0  0  0  0  0  0  0  0  0  0
    1.0168    2.9370   -2.4175 H   0  0  0  0  0  0  0  0  0  0  0  0
    0.5626   -0.4047    0.9475 C   0  0  0  0  0  0  0  0  0  0  0  0
    1.7605   -0.3797    1.1985 O   0  0  0  0  0  0  0  0  0  0  0  0
   -0.3299    0.1045    1.8737 N   0  0  0  0  0  0  0  0  0  0  0  0
   -1.3137   -0.0195    1.6595 H   0  0  0  0  0  0  0  0  0  0  0  0
    0.0536    0.4319    3.2410 C   0  0  0  0  0  0  0  0  0  0  0  0
    0.8476    1.1860    3.2471 H   0  0  0  0  0  0  0  0  0  0  0  0
   -0.8048    0.8325    3.7885 H   0  0  0  0  0  0  0  0  0  0  0  0
    0.4129   -0.4623    3.7614 H   0  0  0  0  0  0  0  0  0  0  0  0
  1  2  1  0  0  0  0
  2  3  1  0  0  0  0
  2  4  1  0  0  0  0
  2  5  1  0  0  0  0
  5  6  2  0  0  0  0
  5  7  1  0  0  0  0
  7  8  1  0  0  0  0
  7  9  1  0  0  0  0
  9 10  1  0  0  0  0
  9 11  1  0  0  0  0
  9 24  1  0  0  0  0
 11 12  1  0  0  0  0
 11 13  1  0  0  0  0
 11 14  1  0  0  0  0
 14 15  1  0  0  0  0
 14 16  1  0  0  0  0
 14 20  1  0  0  0  0
 16 17  1  0  0  0  0
 16 18  1  0  0  0  0
 16 19  1  0  0  0  0
 20 21  1  0  0  0  0
 20 22  1  0  0  0  0
 20 23  1  0  0  0  0
 24 25  2  0  0  0  0
 24 26  1  0  0  0  0
 26 27  1  0  0  0  0
 26 28  1  0  0  0  0
 28 29  1  0  0  0  0
 28 30  1  0  0  0  0
 28 31  1  0  0  0  0
M  END
$$$$

  -OEChem-04042216013D

 31 30  0     1  0  0  0  0  0999 V2000
   -2.7963   -4.3357    0.1384 H   0  0  0  0  0  0  0  0  0  0  0  0
   -2.7742   -3.3542   -0.3441 C   0  0  0  0  0  0  0  0  0  0  0  0
   -3.6029   -2.7547    0.0402 H   0  0  0  0  0  0  0  0  0  0  0  0
   -2.8986   -3.4902   -1.4212 H   0  0  0  0  0  0  0  0  0  0  0  0
   -1.4554   -2.6617   -0.0558 C   0  0  0  0  0  0  0  0  0  0  0  0
   -0.6346   -3.1986    0.6656 O   0  0  0  0  0  0  0  0  0  0  0  0
   -1.2011   -1.4185   -0.6015 N   0  0  0  0  0  0  0  0  0  0  0  0
   -1.8858   -1.0636   -1.2620 H   0  0  0  0  0  0  0  0  0  0  0  0
    0.0917   -0.7156   -0.4935 C   0  0  1  0  0  0  0  0  0  0  0  0
    0.8391   -1.3937   -0.9187 H   0  0  0  0  0  0  0  0  0  0  0  0
    0.0343    0.5824   -1.3325 C   0  0  0  0  0  0  0  0  0  0  0  0
   -0.8350    0.5446   -1.9966 H   0  0  0  0  0  0  0  0  0  0  0  0
   -0.1285    1.4399   -0.6699 H   0  0  0  0  0  0  0  0  0  0  0  0
    1.3070    0.7969   -2.1915 C   0  0  0  0  0  0  0  0  0  0  0  0
    2.0151   -0.0249   -2.0416 H   0  0  0  0  0  0  0  0  0  0  0  0
    0.9559    0.8557   -3.6830 C   0  0  0  0  0  0  0  0  0  0  0  0
    0.2687    1.6828   -3.8877 H   0  0  0  0  0  0  0  0  0  0  0  0
    1.8610    1.0004   -4.2812 H   0  0  0  0  0  0  0  0  0  0  0  0
    0.4826   -0.0794   -3.9986 H   0  0  0  0  0  0  0  0  0  0  0  0
    2.0112    2.0944   -1.7784 C   0  0  0  0  0  0  0  0  0  0  0  0
    2.2918    2.0525   -0.7208 H   0  0  0  0  0  0  0  0  0  0  0  0
    2.9220    2.2383   -2.3680 H   0  0  0  0  0  0  0  0  0  0  0  0
    1.3569    2.9583   -1.9326 H   0  0  0  0  0  0  0  0  0  0  0  0
    0.5628   -0.4058    0.9448 C   0  0  0  0  0  0  0  0  0  0  0  0
    1.7600   -0.3831    1.1986 O   0  0  0  0  0  0  0  0  0  0  0  0
   -0.3307    0.1083    1.8676 N   0  0  0  0  0  0  0  0  0  0  0  0
   -1.3146   -0.0104    1.6503 H   0  0  0  0  0  0  0  0  0  0  0  0
    0.0504    0.4406    3.2344 C   0  0  0  0  0  0  0  0  0  0  0  0
    0.8462    1.1929    3.2392 H   0  0  0  0  0  0  0  0  0  0  0  0
   -0.8082    0.8454    3.7784 H   0  0  0  0  0  0  0  0  0  0  0  0
    0.4065   -0.4519    3.7597 H   0  0  0  0  0  0  0  0  0  0  0  0
  1  2  1  0  0  0  0
  2  3  1  0  0  0  0
  2  4  1  0  0  0  0
  2  5  1  0  0  0  0
  5  6  2  0  0  0  0
  5  7  1  0  0  0  0
  7  8  1  0  0  0  0
  7  9  1  0  0  0  0
  9 10  1  0  0  0  0
  9 11  1  0  0  0  0
  9 24  1  0  0  0  0
 11 12  1  0  0  0  0
 11 13  1  0  0  0  0
 11 14  1  0  0  0  0
 14 15  1  0  0  0  0
 14 16  1  0  0  0  0
 14 20  1  0  0  0  0
 16 17  1  0  0  0  0
 16 18  1  0  0  0  0
 16 19  1  0  0  0  0
 20 21  1  0  0  0  0
 20 22  1  0  0  0  0
 20 23  1  0  0  0  0
 24 25  2  0  0  0  0
 24 26  1  0  0  0  0
 26 27  1  0  0  0  0
 26 28  1  0  0  0  0
 28 29  1  0  0  0  0
 28 30  1  0  0  0  0
 28 31  1  0  0  0  0
M  END
$$$$

  -OEChem-04042216013D

 31 30  0     1  0  0  0  0  0999 V2000
   -2.7950   -4.3246    0.1553 H   0  0  0  0  0  0  0  0  0  0  0  0
   -2.7681   -3.3455   -0.3315 C   0  0  0  0  0  0  0  0  0  0  0  0
   -3.5951   -2.7413    0.0487 H   0  0  0  0  0  0  0  0  0  0  0  0
   -2.8909   -3.4856   -1.4081 H   0  0  0  0  0  0  0  0  0  0  0  0
   -1.4467   -2.6572   -0.0446 C   0  0  0  0  0  0  0  0  0  0  0  0
   -0.6279   -3.1971    0.6766 O   0  0  0  0  0  0  0  0  0  0  0  0
   -1.1856   -1.4184   -0.5977 N   0  0  0  0  0  0  0  0  0  0  0  0
   -1.8714   -1.0618   -1.2561 H   0  0  0  0  0  0  0  0  0  0  0  0
    0.1095   -0.7180   -0.4916 C   0  0  1  0  0  0  0  0  0  0  0  0
    0.8621   -1.3938   -0.9106 H   0  0  0  0  0  0  0  0  0  0  0  0
    0.0474    0.5799   -1.3337 C   0  0  0  0  0  0  0  0  0  0  0  0
   -0.8187    0.5196   -2.0006 H   0  0  0  0  0  0  0  0  0  0  0  0
   -0.1274    1.4450   -0.6845 H   0  0  0  0  0  0  0  0  0  0  0  0
    1.3107    0.8039   -2.2016 C   0  0  0  0  0  0  0  0  0  0  0  0
    1.8809   -0.1266   -2.2889 H   0  0  0  0  0  0  0  0  0  0  0  0
    0.9237    1.2326   -3.6218 C   0  0  0  0  0  0  0  0  0  0  0  0
    0.3417    2.1595   -3.5995 H   0  0  0  0  0  0  0  0  0  0  0  0
    1.8206    1.4000   -4.2265 H   0  0  0  0  0  0  0  0  0  0  0  0
    0.3257    0.4545   -4.1063 H   0  0  0  0  0  0  0  0  0  0  0  0
    2.2209    1.8613   -1.5662 C   0  0  0  0  0  0  0  0  0  0  0  0
    2.5235    1.5515   -0.5613 H   0  0  0  0  0  0  0  0  0  0  0  0
    3.1251    1.9966   -2.1678 H   0  0  0  0  0  0  0  0  0  0  0  0
    1.7054    2.8242   -1.4935 H   0  0  0  0  0  0  0  0  0  0  0  0
    0.5678   -0.4047    0.9506 C   0  0  0  0  0  0  0  0  0  0  0  0
    1.7599   -0.4133    1.2280 O   0  0  0  0  0  0  0  0  0  0  0  0
   -0.3327    0.1148    1.8634 N   0  0  0  0  0  0  0  0  0  0  0  0
   -1.3146    0.0173    1.6282 H   0  0  0  0  0  0  0  0  0  0  0  0
    0.0316    0.4314    3.2383 C   0  0  0  0  0  0  0  0  0  0  0  0
    0.8346    1.1758    3.2605 H   0  0  0  0  0  0  0  0  0  0  0  0
   -0.8306    0.8398    3.7739 H   0  0  0  0  0  0  0  0  0  0  0  0
    0.3714   -0.4693    3.7605 H   0  0  0  0  0  0  0  0  0  0  0  0
  1  2  1  0  0  0  0
  2  3  1  0  0  0  0
  2  4  1  0  0  0  0
  2  5  1  0  0  0  0
  5  6  2  0  0  0  0
  5  7  1  0  0  0  0
  7  8  1  0  0  0  0
  7  9  1  0  0  0  0
  9 10  1  0  0  0  0
  9 11  1  0  0  0  0
  9 24  1  0  0  0  0
 11 12  1  0  0  0  0
 11 13  1  0  0  0  0
 11 14  1  0  0  0  0
 14 15  1  0  0  0  0
 14 16  1  0  0  0  0
 14 20  1  0  0  0  0
 16 17  1  0  0  0  0
 16 18  1  0  0  0  0
 16 19  1  0  0  0  0
 20 21  1  0  0  0  0
 20 22  1  0  0  0  0
 20 23  1  0  0  0  0
 24 25  2  0  0  0  0
 24 26  1  0  0  0  0
 26 27  1  0  0  0  0
 26 28  1  0  0  0  0
 28 29  1  0  0  0  0
 28 30  1  0  0  0  0
 28 31  1  0  0  0  0
M  END
$$$$

  -OEChem-04042216013D

 31 30  0     1  0  0  0  0  0999 V2000
   -2.7930   -4.3004    0.1657 H   0  0  0  0  0  0  0  0  0  0  0  0
   -2.7582   -3.3191   -0.3163 C   0  0  0  0  0  0  0  0  0  0  0  0
   -3.5783   -2.7089    0.0693 H   0  0  0  0  0  0  0  0  0  0  0  0
   -2.8864   -3.4533   -1.3931 H   0  0  0  0  0  0  0  0  0  0  0  0
   -1.4296   -2.6445   -0.0304 C   0  0  0  0  0  0  0  0  0  0  0  0
   -0.6166   -3.1918    0.6916 O   0  0  0  0  0  0  0  0  0  0  0  0
   -1.1557   -1.4122   -0.5916 N   0  0  0  0  0  0  0  0  0  0  0  0
   -1.8368   -1.0549   -1.2542 H   0  0  0  0  0  0  0  0  0  0  0  0
    0.1428   -0.7177   -0.4847 C   0  0  1  0  0  0  0  0  0  0  0  0
    0.9052   -1.3862   -0.8989 H   0  0  0  0  0  0  0  0  0  0  0  0
    0.0698    0.5761   -1.3337 C   0  0  0  0  0  0  0  0  0  0  0  0
   -0.7964    0.5051   -1.9993 H   0  0  0  0  0  0  0  0  0  0  0  0
   -0.1035    1.4459   -0.6907 H   0  0  0  0  0  0  0  0  0  0  0  0
    1.3224    0.8048   -2.2112 C   0  0  0  0  0  0  0  0  0  0  0  0
    1.7335   -0.1607   -2.5246 H   0  0  0  0  0  0  0  0  0  0  0  0
    0.9428    1.5709   -3.4846 C   0  0  0  0  0  0  0  0  0  0  0  0
    0.5137    2.5463   -3.2342 H   0  0  0  0  0  0  0  0  0  0  0  0
    1.8266    1.7303   -4.1106 H   0  0  0  0  0  0  0  0  0  0  0  0
    0.2101    1.0058   -4.0692 H   0  0  0  0  0  0  0  0  0  0  0  0
    2.4082    1.5753   -1.4510 C   0  0  0  0  0  0  0  0  0  0  0  0
    2.7604    0.9996   -0.5918 H   0  0  0  0  0  0  0  0  0  0  0  0
    3.2667    1.7651   -2.1026 H   0  0  0  0  0  0  0  0  0  0  0  0
    2.0249    2.5363   -1.0938 H   0  0  0  0  0  0  0  0  0  0  0  0
    0.5738   -0.4044    0.9677 C   0  0  0  0  0  0  0  0  0  0  0  0
    1.7522   -0.4682    1.2913 O   0  0  0  0  0  0  0  0  0  0  0  0
   -0.3425    0.1210    1.8615 N   0  0  0  0  0  0  0  0  0  0  0  0
   -1.3186    0.0496    1.5950 H   0  0  0  0  0  0  0  0  0  0  0  0
   -0.0141    0.4017    3.2534 C   0  0  0  0  0  0  0  0  0  0  0  0
    0.8059    1.1248    3.3157 H   0  0  0  0  0  0  0  0  0  0  0  0
   -0.8824    0.8213    3.7702 H   0  0  0  0  0  0  0  0  0  0  0  0
    0.2868   -0.5173    3.7675 H   0  0  0  0  0  0  0  0  0  0  0  0
  1  2  1  0  0  0  0
  2  3  1  0  0  0  0
  2  4  1  0  0  0  0
  2  5  1  0  0  0  0
  5  6  2  0  0  0  0
  5  7  1  0  0  0  0
  7  8  1  0  0  0  0
  7  9  1  0  0  0  0
  9 10  1  0  0  0  0
  9 11  1  0  0  0  0
  9 24  1  0  0  0  0
 11 12  1  0  0  0  0
 11 13  1  0  0  0  0
 11 14  1  0  0  0  0
 14 15  1  0  0  0  0
 14 16  1  0  0  0  0
 14 20  1  0  0  0  0
 16 17  1  0  0  0  0
 16 18  1  0  0  0  0
 16 19  1  0  0  0  0
 20 21  1  0  0  0  0
 20 22  1  0  0  0  0
 20 23  1  0  0  0  0
 24 25  2  0  0  0  0
 24 26  1  0  0  0  0
 26 27  1  0  0  0  0
 26 28  1  0  0  0  0
 28 29  1  0  0  0  0
 28 30  1  0  0  0  0
 28 31  1  0  0  0  0
M  END
$$$$

  -OEChem-04042216013D

 31 30  0     1  0  0  0  0  0999 V2000
   -2.7955   -4.2845    0.1918 H   0  0  0  0  0  0  0  0  0  0  0  0
   -2.7560   -3.3069   -0.2973 C   0  0  0  0  0  0  0  0  0  0  0  0
   -3.5706   -2.6885    0.0872 H   0  0  0  0  0  0  0  0  0  0  0  0
   -2.8886   -3.4478   -1.3727 H   0  0  0  0  0  0  0  0  0  0  0  0
   -1.4218   -2.6394   -0.0205 C   0  0  0  0  0  0  0  0  0  0  0  0
   -0.6118   -3.1874    0.7043 O   0  0  0  0  0  0  0  0  0  0  0  0
   -1.1399   -1.4128   -0.5908 N   0  0  0  0  0  0  0  0  0  0  0  0
   -1.8193   -1.0552   -1.2553 H   0  0  0  0  0  0  0  0  0  0  0  0
    0.1623   -0.7238   -0.4859 C   0  0  1  0  0  0  0  0  0  0  0  0
    0.9284   -1.3885   -0.9000 H   0  0  0  0  0  0  0  0  0  0  0  0
    0.0901    0.5708   -1.3327 C   0  0  0  0  0  0  0  0  0  0  0  0
   -0.7793    0.5118   -1.9954 H   0  0  0  0  0  0  0  0  0  0  0  0
   -0.0673    1.4389   -0.6831 H   0  0  0  0  0  0  0  0  0  0  0  0
    1.3356    0.8004   -2.2159 C   0  0  0  0  0  0  0  0  0  0  0  0
    1.5764   -0.1282   -2.7448 H   0  0  0  0  0  0  0  0  0  0  0  0
    1.0250    1.8699   -3.2700 C   0  0  0  0  0  0  0  0  0  0  0  0
    0.7774    2.8224   -2.7908 H   0  0  0  0  0  0  0  0  0  0  0  0
    1.8899    2.0244   -3.9227 H   0  0  0  0  0  0  0  0  0  0  0  0
    0.1795    1.5621   -3.8930 H   0  0  0  0  0  0  0  0  0  0  0  0
    2.5604    1.2273   -1.3983 C   0  0  0  0  0  0  0  0  0  0  0  0
    2.9219    0.3972   -0.7862 H   0  0  0  0  0  0  0  0  0  0  0  0
    3.3767    1.5297   -2.0615 H   0  0  0  0  0  0  0  0  0  0  0  0
    2.3167    2.0688   -0.7420 H   0  0  0  0  0  0  0  0  0  0  0  0
    0.5753   -0.4088    0.9729 C   0  0  0  0  0  0  0  0  0  0  0  0
    1.7458   -0.4835    1.3216 O   0  0  0  0  0  0  0  0  0  0  0  0
   -0.3536    0.1228    1.8503 N   0  0  0  0  0  0  0  0  0  0  0  0
   -1.3250    0.0553    1.5662 H   0  0  0  0  0  0  0  0  0  0  0  0
   -0.0500    0.3959    3.2491 C   0  0  0  0  0  0  0  0  0  0  0  0
    0.7751    1.1114    3.3296 H   0  0  0  0  0  0  0  0  0  0  0  0
   -0.9245    0.8215    3.7502 H   0  0  0  0  0  0  0  0  0  0  0  0
    0.2326   -0.5277    3.7653 H   0  0  0  0  0  0  0  0  0  0  0  0
  1  2  1  0  0  0  0
  2  3  1  0  0  0  0
  2  4  1  0  0  0  0
  2  5  1  0  0  0  0
  5  6  2  0  0  0  0
  5  7  1  0  0  0  0
  7  8  1  0  0  0  0
  7  9  1  0  0  0  0
  9 10  1  0  0  0  0
  9 11  1  0  0  0  0
  9 24  1  0  0  0  0
 11 12  1  0  0  0  0
 11 13  1  0  0  0  0
 11 14  1  0  0  0  0
 14 15  1  0  0  0  0
 14 16  1  0  0  0  0
 14 20  1  0  0  0  0
 16 17  1  0  0  0  0
 16 18  1  0  0  0  0
 16 19  1  0  0  0  0
 20 21  1  0  0  0  0
 20 22  1  0  0  0  0
 20 23  1  0  0  0  0
 24 25  2  0  0  0  0
 24 26  1  0  0  0  0
 26 27  1  0  0  0  0
 26 28  1  0  0  0  0
 28 29  1  0  0  0  0
 28 30  1  0  0  0  0
 28 31  1  0  0  0  0
M  END
$$$$

  -OEChem-04042216013D

 31 30  0     1  0  0  0  0  0999 V2000
   -2.8193   -4.3146    0.1355 H   0  0  0  0  0  0  0  0  0  0  0  0
   -2.7809   -3.3324   -0.3444 C   0  0  0  0  0  0  0  0  0  0  0  0
   -3.6099   -2.7260    0.0282 H   0  0  0  0  0  0  0  0  0  0  0  0
   -2.8905   -3.4658   -1.4233 H   0  0  0  0  0  0  0  0  0  0  0  0
   -1.4600   -2.6525   -0.0363 C   0  0  0  0  0  0  0  0  0  0  0  0
   -0.6575   -3.1947    0.7013 O   0  0  0  0  0  0  0  0  0  0  0  0
   -1.1797   -1.4197   -0.5930 N   0  0  0  0  0  0  0  0  0  0  0  0
   -1.8483   -1.0672   -1.2708 H   0  0  0  0  0  0  0  0  0  0  0  0
    0.1234   -0.7352   -0.4828 C   0  0  1  0  0  0  0  0  0  0  0  0
    0.8716   -1.4184   -0.8969 H   0  0  0  0  0  0  0  0  0  0  0  0
    0.0779    0.5603   -1.3305 C   0  0  0  0  0  0  0  0  0  0  0  0
   -0.9119    0.6705   -1.7848 H   0  0  0  0  0  0  0  0  0  0  0  0
    0.2209    1.4290   -0.6777 H   0  0  0  0  0  0  0  0  0  0  0  0
    1.1351    0.6034   -2.4542 C   0  0  0  0  0  0  0  0  0  0  0  0
    0.9676   -0.2326   -3.1418 H   0  0  0  0  0  0  0  0  0  0  0  0
    0.9948    1.9221   -3.2247 C   0  0  0  0  0  0  0  0  0  0  0  0
    1.1697    2.7775   -2.5640 H   0  0  0  0  0  0  0  0  0  0  0  0
    1.7177    1.9640   -4.0456 H   0  0  0  0  0  0  0  0  0  0  0  0
   -0.0095    2.0109   -3.6506 H   0  0  0  0  0  0  0  0  0  0  0  0
    2.5697    0.5216   -1.9053 C   0  0  0  0  0  0  0  0  0  0  0  0
    2.7695   -0.4549   -1.4559 H   0  0  0  0  0  0  0  0  0  0  0  0
    3.2953    0.6701   -2.7111 H   0  0  0  0  0  0  0  0  0  0  0  0
    2.7348    1.2914   -1.1444 H   0  0  0  0  0  0  0  0  0  0  0  0
    0.5714   -0.4245    0.9642 C   0  0  0  0  0  0  0  0  0  0  0  0
    1.7617   -0.4305    1.2497 O   0  0  0  0  0  0  0  0  0  0  0  0
   -0.3326    0.1078    1.8662 N   0  0  0  0  0  0  0  0  0  0  0  0
   -1.3134    0.0081    1.6271 H   0  0  0  0  0  0  0  0  0  0  0  0
    0.0244    0.4345    3.2408 C   0  0  0  0  0  0  0  0  0  0  0  0
    0.8333    1.1723    3.2622 H   0  0  0  0  0  0  0  0  0  0  0  0
   -0.8383    0.8552    3.7660 H   0  0  0  0  0  0  0  0  0  0  0  0
    0.3527   -0.4639    3.7740 H   0  0  0  0  0  0  0  0  0  0  0  0
  1  2  1  0  0  0  0
  2  3  1  0  0  0  0
  2  4  1  0  0  0  0
  2  5  1  0  0  0  0
  5  6  2  0  0  0  0
  5  7  1  0  0  0  0
  7  8  1  0  0  0  0
  7  9  1  0  0  0  0
  9 10  1  0  0  0  0
  9 11  1  0  0  0  0
  9 24  1  0  0  0  0
 11 12  1  0  0  0  0
 11 13  1  0  0  0  0
 11 14  1  0  0  0  0
 14 15  1  0  0  0  0
 14 16  1  0  0  0  0
 14 20  1  0  0  0  0
 16 17  1  0  0  0  0
 16 18  1  0  0  0  0
 16 19  1  0  0  0  0
 20 21  1  0  0  0  0
 20 22  1  0  0  0  0
 20 23  1  0  0  0  0
 24 25  2  0  0  0  0
 24 26  1  0  0  0  0
 26 27  1  0  0  0  0
 26 28  1  0  0  0  0
 28 29  1  0  0  0  0
 28 30  1  0  0  0  0
 28 31  1  0  0  0  0
M  END
$$$$

  -OEChem-04042216013D

 31 30  0     1  0  0  0  0  0999 V2000
   -2.8591   -4.3064    0.1554 H   0  0  0  0  0  0  0  0  0  0  0  0
   -2.8080   -3.3287   -0.3326 C   0  0  0  0  0  0  0  0  0  0  0  0
   -3.6334   -2.7113    0.0296 H   0  0  0  0  0  0  0  0  0  0  0  0
   -2.9112   -3.4699   -1.4111 H   0  0  0  0  0  0  0  0  0  0  0  0
   -1.4826   -2.6592   -0.0202 C   0  0  0  0  0  0  0  0  0  0  0  0
   -0.6934   -3.2020    0.7312 O   0  0  0  0  0  0  0  0  0  0  0  0
   -1.1838   -1.4347   -0.5862 N   0  0  0  0  0  0  0  0  0  0  0  0
   -1.8399   -1.0845   -1.2775 H   0  0  0  0  0  0  0  0  0  0  0  0
    0.1267   -0.7650   -0.4710 C   0  0  1  0  0  0  0  0  0  0  0  0
    0.8615   -1.4695   -0.8667 H   0  0  0  0  0  0  0  0  0  0  0  0
    0.1009    0.5235   -1.3348 C   0  0  0  0  0  0  0  0  0  0  0  0
   -0.8887    0.6522   -1.7846 H   0  0  0  0  0  0  0  0  0  0  0  0
    0.2537    1.3838   -0.6733 H   0  0  0  0  0  0  0  0  0  0  0  0
    1.1529    0.5923   -2.4690 C   0  0  0  0  0  0  0  0  0  0  0  0
    0.8417   -0.0625   -3.2900 H   0  0  0  0  0  0  0  0  0  0  0  0
    1.2393    2.0415   -2.9685 C   0  0  0  0  0  0  0  0  0  0  0  0
    1.5956    2.7074   -2.1757 H   0  0  0  0  0  0  0  0  0  0  0  0
    1.9278    2.1137   -3.8164 H   0  0  0  0  0  0  0  0  0  0  0  0
    0.2557    2.3895   -3.2987 H   0  0  0  0  0  0  0  0  0  0  0  0
    2.5704    0.1889   -2.0220 C   0  0  0  0  0  0  0  0  0  0  0  0
    2.6452   -0.8868   -1.8448 H   0  0  0  0  0  0  0  0  0  0  0  0
    3.3011    0.4400   -2.7972 H   0  0  0  0  0  0  0  0  0  0  0  0
    2.8487    0.7153   -1.1031 H   0  0  0  0  0  0  0  0  0  0  0  0
    0.5684   -0.4454    0.9761 C   0  0  0  0  0  0  0  0  0  0  0  0
    1.7569   -0.4599    1.2685 O   0  0  0  0  0  0  0  0  0  0  0  0
   -0.3361    0.1067    1.8657 N   0  0  0  0  0  0  0  0  0  0  0  0
   -1.3161    0.0123    1.6212 H   0  0  0  0  0  0  0  0  0  0  0  0
    0.0146    0.4510    3.2379 C   0  0  0  0  0  0  0  0  0  0  0  0
    0.8327    1.1790    3.2542 H   0  0  0  0  0  0  0  0  0  0  0  0
   -0.8469    0.8910    3.7490 H   0  0  0  0  0  0  0  0  0  0  0  0
    0.3274   -0.4426    3.7885 H   0  0  0  0  0  0  0  0  0  0  0  0
  1  2  1  0  0  0  0
  2  3  1  0  0  0  0
  2  4  1  0  0  0  0
  2  5  1  0  0  0  0
  5  6  2  0  0  0  0
  5  7  1  0  0  0  0
  7  8  1  0  0  0  0
  7  9  1  0  0  0  0
  9 10  1  0  0  0  0
  9 11  1  0  0  0  0
  9 24  1  0  0  0  0
 11 12  1  0  0  0  0
 11 13  1  0  0  0  0
 11 14  1  0  0  0  0
 14 15  1  0  0  0  0
 14 16  1  0  0  0  0
 14 20  1  0  0  0  0
 16 17  1  0  0  0  0
 16 18  1  0  0  0  0
 16 19  1  0  0  0  0
 20 21  1  0  0  0  0
 20 22  1  0  0  0  0
 20 23  1  0  0  0  0
 24 25  2  0  0  0  0
 24 26  1  0  0  0  0
 26 27  1  0  0  0  0
 26 28  1  0  0  0  0
 28 29  1  0  0  0  0
 28 30  1  0  0  0  0
 28 31  1  0  0  0  0
M  END
$$$$

  -OEChem-04042216013D

 31 30  0     1  0  0  0  0  0999 V2000
   -2.8907   -4.2925    0.1910 H   0  0  0  0  0  0  0  0  0  0  0  0
   -2.8254   -3.3206   -0.3065 C   0  0  0  0  0  0  0  0  0  0  0  0
   -3.6426   -2.6885    0.0490 H   0  0  0  0  0  0  0  0  0  0  0  0
   -2.9303   -3.4708   -1.3837 H   0  0  0  0  0  0  0  0  0  0  0  0
   -1.4915   -2.6662    0.0003 C   0  0  0  0  0  0  0  0  0  0  0  0
   -0.7129   -3.2091    0.7627 O   0  0  0  0  0  0  0  0  0  0  0  0
   -1.1772   -1.4512   -0.5775 N   0  0  0  0  0  0  0  0  0  0  0  0
   -1.8253   -1.1025   -1.2769 H   0  0  0  0  0  0  0  0  0  0  0  0
    0.1378   -0.7908   -0.4596 C   0  0  1  0  0  0  0  0  0  0  0  0
    0.8723   -1.5063   -0.8323 H   0  0  0  0  0  0  0  0  0  0  0  0
    0.1222    0.4956   -1.3322 C   0  0  0  0  0  0  0  0  0  0  0  0
   -0.8694    0.6338   -1.7745 H   0  0  0  0  0  0  0  0  0  0  0  0
    0.2729    1.3491   -0.6614 H   0  0  0  0  0  0  0  0  0  0  0  0
    1.1656    0.5951   -2.4806 C   0  0  0  0  0  0  0  0  0  0  0  0
    0.7235    0.1821   -3.3934 H   0  0  0  0  0  0  0  0  0  0  0  0
    1.5087    2.0756   -2.7054 C   0  0  0  0  0  0  0  0  0  0  0  0
    2.0086    2.4973   -1.8270 H   0  0  0  0  0  0  0  0  0  0  0  0
    2.1718    2.1895   -3.5689 H   0  0  0  0  0  0  0  0  0  0  0  0
    0.5985    2.6520   -2.8984 H   0  0  0  0  0  0  0  0  0  0  0  0
    2.4971   -0.1334   -2.2216 C   0  0  0  0  0  0  0  0  0  0  0  0
    2.3745   -1.2172   -2.2960 H   0  0  0  0  0  0  0  0  0  0  0  0
    3.2444    0.1573   -2.9666 H   0  0  0  0  0  0  0  0  0  0  0  0
    2.8878    0.1143   -1.2292 H   0  0  0  0  0  0  0  0  0  0  0  0
    0.5650   -0.4601    0.9894 C   0  0  0  0  0  0  0  0  0  0  0  0
    1.7500   -0.4781    1.2953 O   0  0  0  0  0  0  0  0  0  0  0  0
   -0.3459    0.1079    1.8621 N   0  0  0  0  0  0  0  0  0  0  0  0
   -1.3236    0.0161    1.6077 H   0  0  0  0  0  0  0  0  0  0  0  0
   -0.0093    0.4611    3.2351 C   0  0  0  0  0  0  0  0  0  0  0  0
    0.8134    1.1837    3.2542 H   0  0  0  0  0  0  0  0  0  0  0  0
   -0.8736    0.9111    3.7326 H   0  0  0  0  0  0  0  0  0  0  0  0
    0.2908   -0.4304    3.7958 H   0  0  0  0  0  0  0  0  0  0  0  0
  1  2  1  0  0  0  0
  2  3  1  0  0  0  0
  2  4  1  0  0  0  0
  2  5  1  0  0  0  0
  5  6  2  0  0  0  0
  5  7  1  0  0  0  0
  7  8  1  0  0  0  0
  7  9  1  0  0  0  0
  9 10  1  0  0  0  0
  9 11  1  0  0  0  0
  9 24  1  0  0  0  0
 11 12  1  0  0  0  0
 11 13  1  0  0  0  0
 11 14  1  0  0  0  0
 14 15  1  0  0  0  0
 14 16  1  0  0  0  0
 14 20  1  0  0  0  0
 16 17  1  0  0  0  0
 16 18  1  0  0  0  0
 16 19  1  0  0  0  0
 20 21  1  0  0  0  0
 20 22  1  0  0  0  0
 20 23  1  0  0  0  0
 24 25  2  0  0  0  0
 24 26  1  0  0  0  0
 26 27  1  0  0  0  0
 26 28  1  0  0  0  0
 28 29  1  0  0  0  0
 28 30  1  0  0  0  0
 28 31  1  0  0  0  0
M  END
$$$$

  -OEChem-04042216013D

 31 30  0     1  0  0  0  0  0999 V2000
   -2.9028   -4.2952    0.2102 H   0  0  0  0  0  0  0  0  0  0  0  0
   -2.8358   -3.3251   -0.2907 C   0  0  0  0  0  0  0  0  0  0  0  0
   -3.6497   -2.6887    0.0648 H   0  0  0  0  0  0  0  0  0  0  0  0
   -2.9441   -3.4784   -1.3670 H   0  0  0  0  0  0  0  0  0  0  0  0
   -1.4987   -2.6745    0.0111 C   0  0  0  0  0  0  0  0  0  0  0  0
   -0.7213   -3.2176    0.7745 O   0  0  0  0  0  0  0  0  0  0  0  0
   -1.1790   -1.4633   -0.5716 N   0  0  0  0  0  0  0  0  0  0  0  0
   -1.8259   -1.1132   -1.2715 H   0  0  0  0  0  0  0  0  0  0  0  0
    0.1373   -0.8056   -0.4510 C   0  0  1  0  0  0  0  0  0  0  0  0
    0.8716   -1.5290   -0.8067 H   0  0  0  0  0  0  0  0  0  0  0  0
    0.1323    0.4824   -1.3247 C   0  0  0  0  0  0  0  0  0  0  0  0
   -0.8581    0.6115   -1.7725 H   0  0  0  0  0  0  0  0  0  0  0  0
    0.2625    1.3371   -0.6513 H   0  0  0  0  0  0  0  0  0  0  0  0
    1.1740    0.6033   -2.4784 C   0  0  0  0  0  0  0  0  0  0  0  0
    0.6433    0.4752   -3.4277 H   0  0  0  0  0  0  0  0  0  0  0  0
    1.7961    2.0074   -2.4505 C   0  0  0  0  0  0  0  0  0  0  0  0
    2.3702    2.1584   -1.5300 H   0  0  0  0  0  0  0  0  0  0  0  0
    2.4674    2.1475   -3.3037 H   0  0  0  0  0  0  0  0  0  0  0  0
    1.0150    2.7722   -2.5042 H   0  0  0  0  0  0  0  0  0  0  0  0
    2.3328   -0.4073   -2.4597 C   0  0  0  0  0  0  0  0  0  0  0  0
    1.9687   -1.4186   -2.6631 H   0  0  0  0  0  0  0  0  0  0  0  0
    3.0664   -0.1618   -3.2341 H   0  0  0  0  0  0  0  0  0  0  0  0
    2.8420   -0.3972   -1.4902 H   0  0  0  0  0  0  0  0  0  0  0  0
    0.5608   -0.4674    0.9970 C   0  0  0  0  0  0  0  0  0  0  0  0
    1.7465   -0.4784    1.3009 O   0  0  0  0  0  0  0  0  0  0  0  0
   -0.3509    0.1083    1.8641 N   0  0  0  0  0  0  0  0  0  0  0  0
   -1.3285    0.0136    1.6100 H   0  0  0  0  0  0  0  0  0  0  0  0
   -0.0147    0.4744    3.2341 C   0  0  0  0  0  0  0  0  0  0  0  0
    0.8107    1.1940    3.2475 H   0  0  0  0  0  0  0  0  0  0  0  0
   -0.8780    0.9328    3.7257 H   0  0  0  0  0  0  0  0  0  0  0  0
    0.2816   -0.4120    3.8049 H   0  0  0  0  0  0  0  0  0  0  0  0
  1  2  1  0  0  0  0
  2  3  1  0  0  0  0
  2  4  1  0  0  0  0
  2  5  1  0  0  0  0
  5  6  2  0  0  0  0
  5  7  1  0  0  0  0
  7  8  1  0  0  0  0
  7  9  1  0  0  0  0
  9 10  1  0  0  0  0
  9 11  1  0  0  0  0
  9 24  1  0  0  0  0
 11 12  1  0  0  0  0
 11 13  1  0  0  0  0
 11 14  1  0  0  0  0
 14 15  1  0  0  0  0
 14 16  1  0  0  0  0
 14 20  1  0  0  0  0
 16 17  1  0  0  0  0
 16 18  1  0  0  0  0
 16 19  1  0  0  0  0
 20 21  1  0  0  0  0
 20 22  1  0  0  0  0
 20 23  1  0  0  0  0
 24 25  2  0  0  0  0
 24 26  1  0  0  0  0
 26 27  1  0  0  0  0
 26 28  1  0  0  0  0
 28 29  1  0  0  0  0
 28 30  1  0  0  0  0
 28 31  1  0  0  0  0
M  END
$$$$

  -OEChem-04042216013D

 31 30  0     1  0  0  0  0  0999 V2000
   -2.9015   -4.3002    0.2121 H   0  0  0  0  0  0  0  0  0  0  0  0
   -2.8280   -3.3371   -0.3013 C   0  0  0  0  0  0  0  0  0  0  0  0
   -3.6559   -2.7020    0.0226 H   0  0  0  0  0  0  0  0  0  0  0  0
   -2.9057   -3.5070   -1.3779 H   0  0  0  0  0  0  0  0  0  0  0  0
   -1.5039   -2.6725    0.0254 C   0  0  0  0  0  0  0  0  0  0  0  0
   -0.7360   -3.2054    0.8055 O   0  0  0  0  0  0  0  0  0  0  0  0
   -1.1824   -1.4638   -0.5611 N   0  0  0  0  0  0  0  0  0  0  0  0
   -1.8200   -1.1255   -1.2753 H   0  0  0  0  0  0  0  0  0  0  0  0
    0.1352   -0.8084   -0.4409 C   0  0  1  0  0  0  0  0  0  0  0  0
    0.8720   -1.5324   -0.7900 H   0  0  0  0  0  0  0  0  0  0  0  0
    0.1364    0.4827   -1.3109 C   0  0  0  0  0  0  0  0  0  0  0  0
   -0.8515    0.5934   -1.7690 H   0  0  0  0  0  0  0  0  0  0  0  0
    0.2435    1.3462   -0.6449 H   0  0  0  0  0  0  0  0  0  0  0  0
    1.1775    0.6063   -2.4651 C   0  0  0  0  0  0  0  0  0  0  0  0
    0.6168    0.7857   -3.3887 H   0  0  0  0  0  0  0  0  0  0  0  0
    2.0707    1.8304   -2.2225 C   0  0  0  0  0  0  0  0  0  0  0  0
    2.6472    1.7068   -1.2995 H   0  0  0  0  0  0  0  0  0  0  0  0
    2.7701    1.9668   -3.0533 H   0  0  0  0  0  0  0  0  0  0  0  0
    1.4642    2.7375   -2.1368 H   0  0  0  0  0  0  0  0  0  0  0  0
    2.0790   -0.6103   -2.7230 C   0  0  0  0  0  0  0  0  0  0  0  0
    1.4768   -1.4941   -2.9553 H   0  0  0  0  0  0  0  0  0  0  0  0
    2.7361   -0.4193   -3.5774 H   0  0  0  0  0  0  0  0  0  0  0  0
    2.7083   -0.8223   -1.8521 H   0  0  0  0  0  0  0  0  0  0  0  0
    0.5599   -0.4658    1.0057 C   0  0  0  0  0  0  0  0  0  0  0  0
    1.7462   -0.4776    1.3075 O   0  0  0  0  0  0  0  0  0  0  0  0
   -0.3487    0.1151    1.8726 N   0  0  0  0  0  0  0  0  0  0  0  0
   -1.3271    0.0238    1.6208 H   0  0  0  0  0  0  0  0  0  0  0  0
   -0.0084    0.4880    3.2394 C   0  0  0  0  0  0  0  0  0  0  0  0
    0.8094    1.2164    3.2464 H   0  0  0  0  0  0  0  0  0  0  0  0
   -0.8737    0.9382    3.7346 H   0  0  0  0  0  0  0  0  0  0  0  0
    0.2999   -0.3944    3.8098 H   0  0  0  0  0  0  0  0  0  0  0  0
  1  2  1  0  0  0  0
  2  3  1  0  0  0  0
  2  4  1  0  0  0  0
  2  5  1  0  0  0  0
  5  6  2  0  0  0  0
  5  7  1  0  0  0  0
  7  8  1  0  0  0  0
  7  9  1  0  0  0  0
  9 10  1  0  0  0  0
  9 11  1  0  0  0  0
  9 24  1  0  0  0  0
 11 12  1  0  0  0  0
 11 13  1  0  0  0  0
 11 14  1  0  0  0  0
 14 15  1  0  0  0  0
 14 16  1  0  0  0  0
 14 20  1  0  0  0  0
 16 17  1  0  0  0  0
 16 18  1  0  0  0  0
 16 19  1  0  0  0  0
 20 21  1  0  0  0  0
 20 22  1  0  0  0  0
 20 23  1  0  0  0  0
 24 25  2  0  0  0  0
 24 26  1  0  0  0  0
 26 27  1  0  0  0  0
 26 28  1  0  0  0  0
 28 29  1  0  0  0  0
 28 30  1  0  0  0  0
 28 31  1  0  0  0  0
M  END
$$$$

  -OEChem-04042216013D

 31 30  0     1  0  0  0  0  0999 V2000
   -2.8841   -4.3033    0.2181 H   0  0  0  0  0  0  0  0  0  0  0  0
   -2.8151   -3.3390   -0.2938 C   0  0  0  0  0  0  0  0  0  0  0  0
   -3.6405   -2.7049    0.0382 H   0  0  0  0  0  0  0  0  0  0  0  0
   -2.9019   -3.5068   -1.3699 H   0  0  0  0  0  0  0  0  0  0  0  0
   -1.4889   -2.6737    0.0234 C   0  0  0  0  0  0  0  0  0  0  0  0
   -0.7150   -3.2063    0.7977 O   0  0  0  0  0  0  0  0  0  0  0  0
   -1.1742   -1.4630   -0.5629 N   0  0  0  0  0  0  0  0  0  0  0  0
   -1.8174   -1.1241   -1.2715 H   0  0  0  0  0  0  0  0  0  0  0  0
    0.1399   -0.8001   -0.4448 C   0  0  1  0  0  0  0  0  0  0  0  0
    0.8870   -1.5133   -0.7955 H   0  0  0  0  0  0  0  0  0  0  0  0
    0.1377    0.4936   -1.3080 C   0  0  0  0  0  0  0  0  0  0  0  0
   -0.8467    0.5872   -1.7775 H   0  0  0  0  0  0  0  0  0  0  0  0
    0.2328    1.3662   -0.6520 H   0  0  0  0  0  0  0  0  0  0  0  0
    1.1834    0.6026   -2.4541 C   0  0  0  0  0  0  0  0  0  0  0  0
    0.6673    1.0656   -3.3021 H   0  0  0  0  0  0  0  0  0  0  0  0
    2.3094    1.5612   -2.0486 C   0  0  0  0  0  0  0  0  0  0  0  0
    2.8401    1.1774   -1.1708 H   0  0  0  0  0  0  0  0  0  0  0  0
    3.0273    1.6761   -2.8667 H   0  0  0  0  0  0  0  0  0  0  0  0
    1.9065    2.5499   -1.8080 H   0  0  0  0  0  0  0  0  0  0  0  0
    1.7767   -0.7151   -2.9731 C   0  0  0  0  0  0  0  0  0  0  0  0
    0.9820   -1.4351   -3.1919 H   0  0  0  0  0  0  0  0  0  0  0  0
    2.3368   -0.5353   -3.8959 H   0  0  0  0  0  0  0  0  0  0  0  0
    2.4656   -1.1521   -2.2431 H   0  0  0  0  0  0  0  0  0  0  0  0
    0.5611   -0.4573    1.0023 C   0  0  0  0  0  0  0  0  0  0  0  0
    1.7468   -0.4647    1.3068 O   0  0  0  0  0  0  0  0  0  0  0  0
   -0.3521    0.1169    1.8687 N   0  0  0  0  0  0  0  0  0  0  0  0
   -1.3293    0.0201    1.6144 H   0  0  0  0  0  0  0  0  0  0  0  0
   -0.0170    0.4836    3.2386 C   0  0  0  0  0  0  0  0  0  0  0  0
    0.7983    1.2147    3.2520 H   0  0  0  0  0  0  0  0  0  0  0  0
   -0.8853    0.9279    3.7342 H   0  0  0  0  0  0  0  0  0  0  0  0
    0.2933   -0.4006    3.8052 H   0  0  0  0  0  0  0  0  0  0  0  0
  1  2  1  0  0  0  0
  2  3  1  0  0  0  0
  2  4  1  0  0  0  0
  2  5  1  0  0  0  0
  5  6  2  0  0  0  0
  5  7  1  0  0  0  0
  7  8  1  0  0  0  0
  7  9  1  0  0  0  0
  9 10  1  0  0  0  0
  9 11  1  0  0  0  0
  9 24  1  0  0  0  0
 11 12  1  0  0  0  0
 11 13  1  0  0  0  0
 11 14  1  0  0  0  0
 14 15  1  0  0  0  0
 14 16  1  0  0  0  0
 14 20  1  0  0  0  0
 16 17  1  0  0  0  0
 16 18  1  0  0  0  0
 16 19  1  0  0  0  0
 20 21  1  0  0  0  0
 20 22  1  0  0  0  0
 20 23  1  0  0  0  0
 24 25  2  0  0  0  0
 24 26  1  0  0  0  0
 26 27  1  0  0  0  0
 26 28  1  0  0  0  0
 28 29  1  0  0  0  0
 28 30  1  0  0  0  0
 28 31  1  0  0  0  0
M  END
$$$$

  -OEChem-04042216013D

 31 30  0     1  0  0  0  0  0999 V2000
   -2.8630   -4.3081    0.2053 H   0  0  0  0  0  0  0  0  0  0  0  0
   -2.8006   -3.3407   -0.3018 C   0  0  0  0  0  0  0  0  0  0  0  0
   -3.6279   -2.7124    0.0364 H   0  0  0  0  0  0  0  0  0  0  0  0
   -2.8902   -3.5031   -1.3787 H   0  0  0  0  0  0  0  0  0  0  0  0
   -1.4764   -2.6705    0.0143 C   0  0  0  0  0  0  0  0  0  0  0  0
   -0.6970   -3.2041    0.7824 O   0  0  0  0  0  0  0  0  0  0  0  0
   -1.1687   -1.4563   -0.5685 N   0  0  0  0  0  0  0  0  0  0  0  0
   -1.8155   -1.1187   -1.2745 H   0  0  0  0  0  0  0  0  0  0  0  0
    0.1436   -0.7891   -0.4547 C   0  0  1  0  0  0  0  0  0  0  0  0
    0.8995   -1.4878   -0.8181 H   0  0  0  0  0  0  0  0  0  0  0  0
    0.1301    0.5082   -1.3084 C   0  0  0  0  0  0  0  0  0  0  0  0
   -0.8553    0.6066   -1.7750 H   0  0  0  0  0  0  0  0  0  0  0  0
    0.2409    1.3824   -0.6571 H   0  0  0  0  0  0  0  0  0  0  0  0
    1.1760    0.5941   -2.4483 C   0  0  0  0  0  0  0  0  0  0  0  0
    0.7646    1.2876   -3.1898 H   0  0  0  0  0  0  0  0  0  0  0  0
    2.4762    1.2235   -1.9362 C   0  0  0  0  0  0  0  0  0  0  0  0
    2.9268    0.5951   -1.1611 H   0  0  0  0  0  0  0  0  0  0  0  0
    3.1948    1.3335   -2.7543 H   0  0  0  0  0  0  0  0  0  0  0  0
    2.2856    2.2143   -1.5122 H   0  0  0  0  0  0  0  0  0  0  0  0
    1.4568   -0.7228   -3.1872 C   0  0  0  0  0  0  0  0  0  0  0  0
    0.5211   -1.2446   -3.4099 H   0  0  0  0  0  0  0  0  0  0  0  0
    1.9685   -0.5173   -4.1325 H   0  0  0  0  0  0  0  0  0  0  0  0
    2.0997   -1.3828   -2.5971 H   0  0  0  0  0  0  0  0  0  0  0  0
    0.5672   -0.4524    0.9936 C   0  0  0  0  0  0  0  0  0  0  0  0
    1.7531   -0.4584    1.2975 O   0  0  0  0  0  0  0  0  0  0  0  0
   -0.3465    0.1137    1.8650 N   0  0  0  0  0  0  0  0  0  0  0  0
   -1.3239    0.0186    1.6105 H   0  0  0  0  0  0  0  0  0  0  0  0
   -0.0099    0.4821    3.2342 C   0  0  0  0  0  0  0  0  0  0  0  0
    0.8041    1.2146    3.2455 H   0  0  0  0  0  0  0  0  0  0  0  0
   -0.8779    0.9260    3.7308 H   0  0  0  0  0  0  0  0  0  0  0  0
    0.3023   -0.4010    3.8014 H   0  0  0  0  0  0  0  0  0  0  0  0
  1  2  1  0  0  0  0
  2  3  1  0  0  0  0
  2  4  1  0  0  0  0
  2  5  1  0  0  0  0
  5  6  2  0  0  0  0
  5  7  1  0  0  0  0
  7  8  1  0  0  0  0
  7  9  1  0  0  0  0
  9 10  1  0  0  0  0
  9 11  1  0  0  0  0
  9 24  1  0  0  0  0
 11 12  1  0  0  0  0
 11 13  1  0  0  0  0
 11 14  1  0  0  0  0
 14 15  1  0  0  0  0
 14 16  1  0  0  0  0
 14 20  1  0  0  0  0
 16 17  1  0  0  0  0
 16 18  1  0  0  0  0
 16 19  1  0  0  0  0
 20 21  1  0  0  0  0
 20 22  1  0  0  0  0
 20 23  1  0  0  0  0
 24 25  2  0  0  0  0
 24 26  1  0  0  0  0
 26 27  1  0  0  0  0
 26 28  1  0  0  0  0
 28 29  1  0  0  0  0
 28 30  1  0  0  0  0
 28 31  1  0  0  0  0
M  END
$$$$

  -OEChem-04042216013D

 31 30  0     1  0  0  0  0  0999 V2000
   -2.8424   -4.3061    0.2014 H   0  0  0  0  0  0  0  0  0  0  0  0
   -2.7871   -3.3375   -0.3039 C   0  0  0  0  0  0  0  0  0  0  0  0
   -3.6141   -2.7130    0.0422 H   0  0  0  0  0  0  0  0  0  0  0  0
   -2.8842   -3.4978   -1.3803 H   0  0  0  0  0  0  0  0  0  0  0  0
   -1.4630   -2.6639    0.0041 C   0  0  0  0  0  0  0  0  0  0  0  0
   -0.6748   -3.1988    0.7621 O   0  0  0  0  0  0  0  0  0  0  0  0
   -1.1646   -1.4459   -0.5754 N   0  0  0  0  0  0  0  0  0  0  0  0
   -1.8168   -1.1078   -1.2760 H   0  0  0  0  0  0  0  0  0  0  0  0
    0.1457   -0.7743   -0.4679 C   0  0  1  0  0  0  0  0  0  0  0  0
    0.9061   -1.4618   -0.8470 H   0  0  0  0  0  0  0  0  0  0  0  0
    0.1180    0.5241   -1.3163 C   0  0  0  0  0  0  0  0  0  0  0  0
   -0.8711    0.6367   -1.7712 H   0  0  0  0  0  0  0  0  0  0  0  0
    0.2548    1.3956   -0.6663 H   0  0  0  0  0  0  0  0  0  0  0  0
    1.1618    0.5896   -2.4530 C   0  0  0  0  0  0  0  0  0  0  0  0
    0.8939    1.4528   -3.0717 H   0  0  0  0  0  0  0  0  0  0  0  0
    2.5642    0.8578   -1.8956 C   0  0  0  0  0  0  0  0  0  0  0  0
    2.9023    0.0217   -1.2753 H   0  0  0  0  0  0  0  0  0  0  0  0
    3.2786    0.9911   -2.7138 H   0  0  0  0  0  0  0  0  0  0  0  0
    2.5683    1.7657   -1.2844 H   0  0  0  0  0  0  0  0  0  0  0  0
    1.1556   -0.6409   -3.3722 C   0  0  0  0  0  0  0  0  0  0  0  0
    0.1324   -0.8894   -3.6698 H   0  0  0  0  0  0  0  0  0  0  0  0
    1.7348   -0.4315   -4.2769 H   0  0  0  0  0  0  0  0  0  0  0  0
    1.6009   -1.5123   -2.8843 H   0  0  0  0  0  0  0  0  0  0  0  0
    0.5745   -0.4443    0.9809 C   0  0  0  0  0  0  0  0  0  0  0  0
    1.7606   -0.4524    1.2835 O   0  0  0  0  0  0  0  0  0  0  0  0
   -0.3384    0.1131    1.8585 N   0  0  0  0  0  0  0  0  0  0  0  0
   -1.3160    0.0174    1.6052 H   0  0  0  0  0  0  0  0  0  0  0  0
   -0.0002    0.4667    3.2312 C   0  0  0  0  0  0  0  0  0  0  0  0
    0.8119    1.2011    3.2497 H   0  0  0  0  0  0  0  0  0  0  0  0
   -0.8685    0.9023    3.7346 H   0  0  0  0  0  0  0  0  0  0  0  0
    0.3154   -0.4222    3.7874 H   0  0  0  0  0  0  0  0  0  0  0  0
  1  2  1  0  0  0  0
  2  3  1  0  0  0  0
  2  4  1  0  0  0  0
  2  5  1  0  0  0  0
  5  6  2  0  0  0  0
  5  7  1  0  0  0  0
  7  8  1  0  0  0  0
  7  9  1  0  0  0  0
  9 10  1  0  0  0  0
  9 11  1  0  0  0  0
  9 24  1  0  0  0  0
 11 12  1  0  0  0  0
 11 13  1  0  0  0  0
 11 14  1  0  0  0  0
 14 15  1  0  0  0  0
 14 16  1  0  0  0  0
 14 20  1  0  0  0  0
 16 17  1  0  0  0  0
 16 18  1  0  0  0  0
 16 19  1  0  0  0  0
 20 21  1  0  0  0  0
 20 22  1  0  0  0  0
 20 23  1  0  0  0  0
 24 25  2  0  0  0  0
 24 26  1  0  0  0  0
 26 27  1  0  0  0  0
 26 28  1  0  0  0  0
 28 29  1  0  0  0  0
 28 30  1  0  0  0  0
 28 31  1  0  0  0  0
M  END
$$$$

  -OEChem-04042216013D

 31 30  0     1  0  0  0  0  0999 V2000
   -2.8373   -4.3080    0.1817 H   0  0  0  0  0  0  0  0  0  0  0  0
   -2.7872   -3.3355   -0.3167 C   0  0  0  0  0  0  0  0  0  0  0  0
   -3.6129   -2.7150    0.0396 H   0  0  0  0  0  0  0  0  0  0  0  0
   -2.8916   -3.4881   -1.3936 H   0  0  0  0  0  0  0  0  0  0  0  0
   -1.4622   -2.6615   -0.0126 C   0  0  0  0  0  0  0  0  0  0  0  0
   -0.6671   -3.2012    0.7349 O   0  0  0  0  0  0  0  0  0  0  0  0
   -1.1713   -1.4370   -0.5820 N   0  0  0  0  0  0  0  0  0  0  0  0
   -1.8295   -1.0935   -1.2745 H   0  0  0  0  0  0  0  0  0  0  0  0
    0.1371   -0.7622   -0.4743 C   0  0  1  0  0  0  0  0  0  0  0  0
    0.8888   -1.4512   -0.8694 H   0  0  0  0  0  0  0  0  0  0  0  0
    0.1016    0.5344   -1.3252 C   0  0  0  0  0  0  0  0  0  0  0  0
   -0.8913    0.6615   -1.7682 H   0  0  0  0  0  0  0  0  0  0  0  0
    0.2594    1.4005   -0.6729 H   0  0  0  0  0  0  0  0  0  0  0  0
    1.1462    0.5980   -2.4605 C   0  0  0  0  0  0  0  0  0  0  0  0
    1.0351    1.5723   -2.9489 H   0  0  0  0  0  0  0  0  0  0  0  0
    2.5843    0.5074   -1.9299 C   0  0  0  0  0  0  0  0  0  0  0  0
    2.7974   -0.4811   -1.5128 H   0  0  0  0  0  0  0  0  0  0  0  0
    3.2967    0.6956   -2.7390 H   0  0  0  0  0  0  0  0  0  0  0  0
    2.7492    1.2548   -1.1474 H   0  0  0  0  0  0  0  0  0  0  0  0
    0.8997   -0.4857   -3.5193 C   0  0  0  0  0  0  0  0  0  0  0  0
   -0.1252   -0.4221   -3.8973 H   0  0  0  0  0  0  0  0  0  0  0  0
    1.5846   -0.3498   -4.3621 H   0  0  0  0  0  0  0  0  0  0  0  0
    1.0577   -1.4876   -3.1099 H   0  0  0  0  0  0  0  0  0  0  0  0
    0.5777   -0.4416    0.9732 C   0  0  0  0  0  0  0  0  0  0  0  0
    1.7664   -0.4494    1.2656 O   0  0  0  0  0  0  0  0  0  0  0  0
   -0.3289    0.1062    1.8632 N   0  0  0  0  0  0  0  0  0  0  0  0
   -1.3085    0.0132    1.6167 H   0  0  0  0  0  0  0  0  0  0  0  0
    0.0198    0.4484    3.2362 C   0  0  0  0  0  0  0  0  0  0  0  0
    0.8316    1.1831    3.2545 H   0  0  0  0  0  0  0  0  0  0  0  0
   -0.8448    0.8792    3.7499 H   0  0  0  0  0  0  0  0  0  0  0  0
    0.3404   -0.4447    3.7829 H   0  0  0  0  0  0  0  0  0  0  0  0
  1  2  1  0  0  0  0
  2  3  1  0  0  0  0
  2  4  1  0  0  0  0
  2  5  1  0  0  0  0
  5  6  2  0  0  0  0
  5  7  1  0  0  0  0
  7  8  1  0  0  0  0
  7  9  1  0  0  0  0
  9 10  1  0  0  0  0
  9 11  1  0  0  0  0
  9 24  1  0  0  0  0
 11 12  1  0  0  0  0
 11 13  1  0  0  0  0
 11 14  1  0  0  0  0
 14 15  1  0  0  0  0
 14 16  1  0  0  0  0
 14 20  1  0  0  0  0
 16 17  1  0  0  0  0
 16 18  1  0  0  0  0
 16 19  1  0  0  0  0
 20 21  1  0  0  0  0
 20 22  1  0  0  0  0
 20 23  1  0  0  0  0
 24 25  2  0  0  0  0
 24 26  1  0  0  0  0
 26 27  1  0  0  0  0
 26 28  1  0  0  0  0
 28 29  1  0  0  0  0
 28 30  1  0  0  0  0
 28 31  1  0  0  0  0
M  END
$$$$

  -OEChem-04042216013D

 31 30  0     1  0  0  0  0  0999 V2000
   -2.8548   -4.3040    0.1737 H   0  0  0  0  0  0  0  0  0  0  0  0
   -2.8013   -3.3306   -0.3224 C   0  0  0  0  0  0  0  0  0  0  0  0
   -3.6270   -2.7095    0.0326 H   0  0  0  0  0  0  0  0  0  0  0  0
   -2.9024   -3.4806   -1.4000 H   0  0  0  0  0  0  0  0  0  0  0  0
   -1.4760   -2.6602   -0.0124 C   0  0  0  0  0  0  0  0  0  0  0  0
   -0.6857   -3.2026    0.7382 O   0  0  0  0  0  0  0  0  0  0  0  0
   -1.1784   -1.4358   -0.5789 N   0  0  0  0  0  0  0  0  0  0  0  0
   -1.8327   -1.0878   -1.2729 H   0  0  0  0  0  0  0  0  0  0  0  0
    0.1323   -0.7662   -0.4657 C   0  0  1  0  0  0  0  0  0  0  0  0
    0.8713   -1.4663   -0.8622 H   0  0  0  0  0  0  0  0  0  0  0  0
    0.0999    0.5261   -1.3244 C   0  0  0  0  0  0  0  0  0  0  0  0
   -0.8981    0.6707   -1.7503 H   0  0  0  0  0  0  0  0  0  0  0  0
    0.2742    1.3842   -0.6660 H   0  0  0  0  0  0  0  0  0  0  0  0
    1.1415    0.6098   -2.4654 C   0  0  0  0  0  0  0  0  0  0  0  0
    1.1841    1.6526   -2.7980 H   0  0  0  0  0  0  0  0  0  0  0  0
    2.5601    0.1835   -2.0521 C   0  0  0  0  0  0  0  0  0  0  0  0
    2.6402   -0.8975   -1.9094 H   0  0  0  0  0  0  0  0  0  0  0  0
    3.2755    0.4705   -2.8289 H   0  0  0  0  0  0  0  0  0  0  0  0
    2.8500    0.6815   -1.1215 H   0  0  0  0  0  0  0  0  0  0  0  0
    0.6917   -0.2550   -3.6499 C   0  0  0  0  0  0  0  0  0  0  0  0
   -0.2879    0.0715   -4.0124 H   0  0  0  0  0  0  0  0  0  0  0  0
    1.4063   -0.1704   -4.4747 H   0  0  0  0  0  0  0  0  0  0  0  0
    0.6221   -1.3079   -3.3590 H   0  0  0  0  0  0  0  0  0  0  0  0
    0.5740   -0.4479    0.9815 C   0  0  0  0  0  0  0  0  0  0  0  0
    1.7623   -0.4658    1.2747 O   0  0  0  0  0  0  0  0  0  0  0  0
   -0.3301    0.1036    1.8719 N   0  0  0  0  0  0  0  0  0  0  0  0
   -1.3101    0.0140    1.6256 H   0  0  0  0  0  0  0  0  0  0  0  0
    0.0203    0.4375    3.2465 C   0  0  0  0  0  0  0  0  0  0  0  0
    0.8353    1.1686    3.2681 H   0  0  0  0  0  0  0  0  0  0  0  0
   -0.8423    0.8690    3.7629 H   0  0  0  0  0  0  0  0  0  0  0  0
    0.3374   -0.4600    3.7880 H   0  0  0  0  0  0  0  0  0  0  0  0
  1  2  1  0  0  0  0
  2  3  1  0  0  0  0
  2  4  1  0  0  0  0
  2  5  1  0  0  0  0
  5  6  2  0  0  0  0
  5  7  1  0  0  0  0
  7  8  1  0  0  0  0
  7  9  1  0  0  0  0
  9 10  1  0  0  0  0
  9 11  1  0  0  0  0
  9 24  1  0  0  0  0
 11 12  1  0  0  0  0
 11 13  1  0  0  0  0
 11 14  1  0  0  0  0
 14 15  1  0  0  0  0
 14 16  1  0  0  0  0
 14 20  1  0  0  0  0
 16 17  1  0  0  0  0
 16 18  1  0  0  0  0
 16 19  1  0  0  0  0
 20 21  1  0  0  0  0
 20 22  1  0  0  0  0
 20 23  1  0  0  0  0
 24 25  2  0  0  0  0
 24 26  1  0  0  0  0
 26 27  1  0  0  0  0
 26 28  1  0  0  0  0
 28 29  1  0  0  0  0
 28 30  1  0  0  0  0
 28 31  1  0  0  0  0
M  END
$$$$

  -OEChem-04042216013D

 31 30  0     1  0  0  0  0  0999 V2000
   -2.8799   -4.2996    0.1897 H   0  0  0  0  0  0  0  0  0  0  0  0
   -2.8165   -3.3274   -0.3077 C   0  0  0  0  0  0  0  0  0  0  0  0
   -3.6368   -2.6978    0.0450 H   0  0  0  0  0  0  0  0  0  0  0  0
   -2.9170   -3.4778   -1.3852 H   0  0  0  0  0  0  0  0  0  0  0  0
   -1.4858   -2.6685    0.0036 C   0  0  0  0  0  0  0  0  0  0  0  0
   -0.7038   -3.2126    0.7617 O   0  0  0  0  0  0  0  0  0  0  0  0
   -1.1764   -1.4500   -0.5690 N   0  0  0  0  0  0  0  0  0  0  0  0
   -1.8257   -1.1015   -1.2674 H   0  0  0  0  0  0  0  0  0  0  0  0
    0.1374   -0.7877   -0.4532 C   0  0  1  0  0  0  0  0  0  0  0  0
    0.8731   -1.4978   -0.8342 H   0  0  0  0  0  0  0  0  0  0  0  0
    0.1113    0.5033   -1.3176 C   0  0  0  0  0  0  0  0  0  0  0  0
   -0.8928    0.6622   -1.7235 H   0  0  0  0  0  0  0  0  0  0  0  0
    0.2983    1.3546   -0.6537 H   0  0  0  0  0  0  0  0  0  0  0  0
    1.1459    0.6116   -2.4698 C   0  0  0  0  0  0  0  0  0  0  0  0
    1.3653    1.6747   -2.6177 H   0  0  0  0  0  0  0  0  0  0  0  0
    2.4785   -0.1187   -2.2342 C   0  0  0  0  0  0  0  0  0  0  0  0
    2.3704   -1.2036   -2.3237 H   0  0  0  0  0  0  0  0  0  0  0  0
    3.2152    0.2038   -2.9764 H   0  0  0  0  0  0  0  0  0  0  0  0
    2.8726    0.1176   -1.2407 H   0  0  0  0  0  0  0  0  0  0  0  0
    0.5266    0.0657   -3.7630 C   0  0  0  0  0  0  0  0  0  0  0  0
   -0.3718    0.6318   -4.0278 H   0  0  0  0  0  0  0  0  0  0  0  0
    1.2373    0.1492   -4.5915 H   0  0  0  0  0  0  0  0  0  0  0  0
    0.2529   -0.9878   -3.6450 H   0  0  0  0  0  0  0  0  0  0  0  0
    0.5696   -0.4637    0.9956 C   0  0  0  0  0  0  0  0  0  0  0  0
    1.7559   -0.4826    1.2966 O   0  0  0  0  0  0  0  0  0  0  0  0
   -0.3386    0.0981    1.8753 N   0  0  0  0  0  0  0  0  0  0  0  0
   -1.3173    0.0092    1.6229 H   0  0  0  0  0  0  0  0  0  0  0  0
    0.0025    0.4392    3.2503 C   0  0  0  0  0  0  0  0  0  0  0  0
    0.8214    1.1660    3.2733 H   0  0  0  0  0  0  0  0  0  0  0  0
   -0.8621    0.8790    3.7564 H   0  0  0  0  0  0  0  0  0  0  0  0
    0.3102   -0.4564    3.8005 H   0  0  0  0  0  0  0  0  0  0  0  0
  1  2  1  0  0  0  0
  2  3  1  0  0  0  0
  2  4  1  0  0  0  0
  2  5  1  0  0  0  0
  5  6  2  0  0  0  0
  5  7  1  0  0  0  0
  7  8  1  0  0  0  0
  7  9  1  0  0  0  0
  9 10  1  0  0  0  0
  9 11  1  0  0  0  0
  9 24  1  0  0  0  0
 11 12  1  0  0  0  0
 11 13  1  0  0  0  0
 11 14  1  0  0  0  0
 14 15  1  0  0  0  0
 14 16  1  0  0  0  0
 14 20  1  0  0  0  0
 16 17  1  0  0  0  0
 16 18  1  0  0  0  0
 16 19  1  0  0  0  0
 20 21  1  0  0  0  0
 20 22  1  0  0  0  0
 20 23  1  0  0  0  0
 24 25  2  0  0  0  0
 24 26  1  0  0  0  0
 26 27  1  0  0  0  0
 26 28  1  0  0  0  0
 28 29  1  0  0  0  0
 28 30  1  0  0  0  0
 28 31  1  0  0  0  0
M  END
$$$$

  -OEChem-04042216013D

 31 30  0     1  0  0  0  0  0999 V2000
   -2.8992   -4.3100    0.2020 H   0  0  0  0  0  0  0  0  0  0  0  0
   -2.8316   -3.3400   -0.2989 C   0  0  0  0  0  0  0  0  0  0  0  0
   -3.6545   -2.7086    0.0447 H   0  0  0  0  0  0  0  0  0  0  0  0
   -2.9243   -3.4956   -1.3764 H   0  0  0  0  0  0  0  0  0  0  0  0
   -1.5027   -2.6805    0.0194 C   0  0  0  0  0  0  0  0  0  0  0  0
   -0.7291   -3.2195    0.7898 O   0  0  0  0  0  0  0  0  0  0  0  0
   -1.1858   -1.4668   -0.5593 N   0  0  0  0  0  0  0  0  0  0  0  0
   -1.8278   -1.1236   -1.2669 H   0  0  0  0  0  0  0  0  0  0  0  0
    0.1312   -0.8100   -0.4434 C   0  0  1  0  0  0  0  0  0  0  0  0
    0.8642   -1.5297   -0.8093 H   0  0  0  0  0  0  0  0  0  0  0  0
    0.1158    0.4816   -1.3117 C   0  0  0  0  0  0  0  0  0  0  0  0
   -0.8913    0.6392   -1.7106 H   0  0  0  0  0  0  0  0  0  0  0  0
    0.2995    1.3326   -0.6465 H   0  0  0  0  0  0  0  0  0  0  0  0
    1.1479    0.6056   -2.4713 C   0  0  0  0  0  0  0  0  0  0  0  0
    1.5669    1.6172   -2.4286 H   0  0  0  0  0  0  0  0  0  0  0  0
    2.3256   -0.3814   -2.4464 C   0  0  0  0  0  0  0  0  0  0  0  0
    1.9951   -1.4028   -2.6598 H   0  0  0  0  0  0  0  0  0  0  0  0
    3.0647   -0.1021   -3.2036 H   0  0  0  0  0  0  0  0  0  0  0  0
    2.8205   -0.3620   -1.4698 H   0  0  0  0  0  0  0  0  0  0  0  0
    0.4298    0.4489   -3.8189 C   0  0  0  0  0  0  0  0  0  0  0  0
   -0.3458    1.2128   -3.9321 H   0  0  0  0  0  0  0  0  0  0  0  0
    1.1386    0.5610   -4.6457 H   0  0  0  0  0  0  0  0  0  0  0  0
   -0.0376   -0.5382   -3.8935 H   0  0  0  0  0  0  0  0  0  0  0  0
    0.5632   -0.4787    1.0037 C   0  0  0  0  0  0  0  0  0  0  0  0
    1.7508   -0.4897    1.3001 O   0  0  0  0  0  0  0  0  0  0  0  0
   -0.3426    0.0930    1.8794 N   0  0  0  0  0  0  0  0  0  0  0  0
   -1.3220   -0.0015    1.6322 H   0  0  0  0  0  0  0  0  0  0  0  0
    0.0030    0.4546    3.2480 C   0  0  0  0  0  0  0  0  0  0  0  0
    0.8240    1.1793    3.2579 H   0  0  0  0  0  0  0  0  0  0  0  0
   -0.8590    0.9050    3.7490 H   0  0  0  0  0  0  0  0  0  0  0  0
    0.3091   -0.4330    3.8116 H   0  0  0  0  0  0  0  0  0  0  0  0
  1  2  1  0  0  0  0
  2  3  1  0  0  0  0
  2  4  1  0  0  0  0
  2  5  1  0  0  0  0
  5  6  2  0  0  0  0
  5  7  1  0  0  0  0
  7  8  1  0  0  0  0
  7  9  1  0  0  0  0
  9 10  1  0  0  0  0
  9 11  1  0  0  0  0
  9 24  1  0  0  0  0
 11 12  1  0  0  0  0
 11 13  1  0  0  0  0
 11 14  1  0  0  0  0
 14 15  1  0  0  0  0
 14 16  1  0  0  0  0
 14 20  1  0  0  0  0
 16 17  1  0  0  0  0
 16 18  1  0  0  0  0
 16 19  1  0  0  0  0
 20 21  1  0  0  0  0
 20 22  1  0  0  0  0
 20 23  1  0  0  0  0
 24 25  2  0  0  0  0
 24 26  1  0  0  0  0
 26 27  1  0  0  0  0
 26 28  1  0  0  0  0
 28 29  1  0  0  0  0
 28 30  1  0  0  0  0
 28 31  1  0  0  0  0
M  END
$$$$

  -OEChem-04042216013D

 31 30  0     1  0  0  0  0  0999 V2000
   -2.9089   -4.3161    0.2245 H   0  0  0  0  0  0  0  0  0  0  0  0
   -2.8391   -3.3513   -0.2864 C   0  0  0  0  0  0  0  0  0  0  0  0
   -3.6643   -2.7172    0.0462 H   0  0  0  0  0  0  0  0  0  0  0  0
   -2.9252   -3.5176   -1.3628 H   0  0  0  0  0  0  0  0  0  0  0  0
   -1.5124   -2.6878    0.0322 C   0  0  0  0  0  0  0  0  0  0  0  0
   -0.7401   -3.2219    0.8071 O   0  0  0  0  0  0  0  0  0  0  0  0
   -1.1939   -1.4785   -0.5548 N   0  0  0  0  0  0  0  0  0  0  0  0
   -1.8326   -1.1422   -1.2690 H   0  0  0  0  0  0  0  0  0  0  0  0
    0.1250   -0.8243   -0.4431 C   0  0  1  0  0  0  0  0  0  0  0  0
    0.8579   -1.5485   -0.7998 H   0  0  0  0  0  0  0  0  0  0  0  0
    0.1163    0.4678   -1.3118 C   0  0  0  0  0  0  0  0  0  0  0  0
   -0.8909    0.6050   -1.7181 H   0  0  0  0  0  0  0  0  0  0  0  0
    0.2812    1.3273   -0.6524 H   0  0  0  0  0  0  0  0  0  0  0  0
    1.1462    0.5948   -2.4758 C   0  0  0  0  0  0  0  0  0  0  0  0
    1.7658    1.4729   -2.2618 H   0  0  0  0  0  0  0  0  0  0  0  0
    2.1097   -0.5835   -2.6832 C   0  0  0  0  0  0  0  0  0  0  0  0
    1.5632   -1.4987   -2.9324 H   0  0  0  0  0  0  0  0  0  0  0  0
    2.8018   -0.3664   -3.5029 H   0  0  0  0  0  0  0  0  0  0  0  0
    2.7059   -0.7549   -1.7809 H   0  0  0  0  0  0  0  0  0  0  0  0
    0.4086    0.8546   -3.7969 C   0  0  0  0  0  0  0  0  0  0  0  0
   -0.2202    1.7468   -3.7153 H   0  0  0  0  0  0  0  0  0  0  0  0
    1.1240    1.0170   -4.6093 H   0  0  0  0  0  0  0  0  0  0  0  0
   -0.2257    0.0016   -4.0584 H   0  0  0  0  0  0  0  0  0  0  0  0
    0.5582   -0.4851    1.0015 C   0  0  0  0  0  0  0  0  0  0  0  0
    1.7463   -0.4959    1.2962 O   0  0  0  0  0  0  0  0  0  0  0  0
   -0.3456    0.0946    1.8741 N   0  0  0  0  0  0  0  0  0  0  0  0
   -1.3252    0.0043    1.6263 H   0  0  0  0  0  0  0  0  0  0  0  0
    0.0014    0.4639    3.2403 C   0  0  0  0  0  0  0  0  0  0  0  0
    0.8212    1.1899    3.2448 H   0  0  0  0  0  0  0  0  0  0  0  0
   -0.8604    0.9157    3.7406 H   0  0  0  0  0  0  0  0  0  0  0  0
    0.3101   -0.4201    3.8082 H   0  0  0  0  0  0  0  0  0  0  0  0
  1  2  1  0  0  0  0
  2  3  1  0  0  0  0
  2  4  1  0  0  0  0
  2  5  1  0  0  0  0
  5  6  2  0  0  0  0
  5  7  1  0  0  0  0
  7  8  1  0  0  0  0
  7  9  1  0  0  0  0
  9 10  1  0  0  0  0
  9 11  1  0  0  0  0
  9 24  1  0  0  0  0
 11 12  1  0  0  0  0
 11 13  1  0  0  0  0
 11 14  1  0  0  0  0
 14 15  1  0  0  0  0
 14 16  1  0  0  0  0
 14 20  1  0  0  0  0
 16 17  1  0  0  0  0
 16 18  1  0  0  0  0
 16 19  1  0  0  0  0
 20 21  1  0  0  0  0
 20 22  1  0  0  0  0
 20 23  1  0  0  0  0
 24 25  2  0  0  0  0
 24 26  1  0  0  0  0
 26 27  1  0  0  0  0
 26 28  1  0  0  0  0
 28 29  1  0  0  0  0
 28 30  1  0  0  0  0
 28 31  1  0  0  0  0
M  END
$$$$

  -OEChem-04042216013D

 31 30  0     1  0  0  0  0  0999 V2000
   -2.9065   -4.3224    0.2329 H   0  0  0  0  0  0  0  0  0  0  0  0
   -2.8399   -3.3584   -0.2799 C   0  0  0  0  0  0  0  0  0  0  0  0
   -3.6650   -2.7249    0.0545 H   0  0  0  0  0  0  0  0  0  0  0  0
   -2.9299   -3.5271   -1.3557 H   0  0  0  0  0  0  0  0  0  0  0  0
   -1.5133   -2.6918    0.0328 C   0  0  0  0  0  0  0  0  0  0  0  0
   -0.7373   -3.2229    0.8061 O   0  0  0  0  0  0  0  0  0  0  0  0
   -1.1990   -1.4831   -0.5579 N   0  0  0  0  0  0  0  0  0  0  0  0
   -1.8403   -1.1507   -1.2715 H   0  0  0  0  0  0  0  0  0  0  0  0
    0.1191   -0.8259   -0.4527 C   0  0  1  0  0  0  0  0  0  0  0  0
    0.8566   -1.5452   -0.8097 H   0  0  0  0  0  0  0  0  0  0  0  0
    0.1095    0.4685   -1.3172 C   0  0  0  0  0  0  0  0  0  0  0  0
   -0.8945    0.5827   -1.7382 H   0  0  0  0  0  0  0  0  0  0  0  0
    0.2556    1.3369   -0.6650 H   0  0  0  0  0  0  0  0  0  0  0  0
    1.1376    0.5891   -2.4807 C   0  0  0  0  0  0  0  0  0  0  0  0
    1.9292    1.2648   -2.1378 H   0  0  0  0  0  0  0  0  0  0  0  0
    1.8396   -0.7049   -2.9193 C   0  0  0  0  0  0  0  0  0  0  0  0
    1.1069   -1.4795   -3.1665 H   0  0  0  0  0  0  0  0  0  0  0  0
    2.4575   -0.5214   -3.8038 H   0  0  0  0  0  0  0  0  0  0  0  0
    2.5012   -1.0732   -2.1288 H   0  0  0  0  0  0  0  0  0  0  0  0
    0.4674    1.2372   -3.6996 C   0  0  0  0  0  0  0  0  0  0  0  0
    0.0085    2.1910   -3.4206 H   0  0  0  0  0  0  0  0  0  0  0  0
    1.2056    1.4313   -4.4841 H   0  0  0  0  0  0  0  0  0  0  0  0
   -0.3083    0.5816   -4.1079 H   0  0  0  0  0  0  0  0  0  0  0  0
    0.5553   -0.4834    0.9902 C   0  0  0  0  0  0  0  0  0  0  0  0
    1.7445   -0.4900    1.2809 O   0  0  0  0  0  0  0  0  0  0  0  0
   -0.3472    0.0957    1.8645 N   0  0  0  0  0  0  0  0  0  0  0  0
   -1.3276   -0.0030    1.6229 H   0  0  0  0  0  0  0  0  0  0  0  0
    0.0051    0.4709    3.2279 C   0  0  0  0  0  0  0  0  0  0  0  0
    0.8245    1.1973    3.2261 H   0  0  0  0  0  0  0  0  0  0  0  0
   -0.8546    0.9242    3.7303 H   0  0  0  0  0  0  0  0  0  0  0  0
    0.3164   -0.4108    3.7979 H   0  0  0  0  0  0  0  0  0  0  0  0
  1  2  1  0  0  0  0
  2  3  1  0  0  0  0
  2  4  1  0  0  0  0
  2  5  1  0  0  0  0
  5  6  2  0  0  0  0
  5  7  1  0  0  0  0
  7  8  1  0  0  0  0
  7  9  1  0  0  0  0
  9 10  1  0  0  0  0
  9 11  1  0  0  0  0
  9 24  1  0  0  0  0
 11 12  1  0  0  0  0
 11 13  1  0  0  0  0
 11 14  1  0  0  0  0
 14 15  1  0  0  0  0
 14 16  1  0  0  0  0
 14 20  1  0  0  0  0
 16 17  1  0  0  0  0
 16 18  1  0  0  0  0
 16 19  1  0  0  0  0
 20 21  1  0  0  0  0
 20 22  1  0  0  0  0
 20 23  1  0  0  0  0
 24 25  2  0  0  0  0
 24 26  1  0  0  0  0
 26 27  1  0  0  0  0
 26 28  1  0  0  0  0
 28 29  1  0  0  0  0
 28 30  1  0  0  0  0
 28 31  1  0  0  0  0
M  END
$$$$

  -OEChem-04042216013D

 31 30  0     1  0  0  0  0  0999 V2000
   -2.8934   -4.3127    0.2327 H   0  0  0  0  0  0  0  0  0  0  0  0
   -2.8276   -3.3531   -0.2882 C   0  0  0  0  0  0  0  0  0  0  0  0
   -3.6542   -2.7181    0.0389 H   0  0  0  0  0  0  0  0  0  0  0  0
   -2.9146   -3.5307   -1.3628 H   0  0  0  0  0  0  0  0  0  0  0  0
   -1.5028   -2.6820    0.0216 C   0  0  0  0  0  0  0  0  0  0  0  0
   -0.7209   -3.2126    0.7892 O   0  0  0  0  0  0  0  0  0  0  0  0
   -1.1975   -1.4697   -0.5660 N   0  0  0  0  0  0  0  0  0  0  0  0
   -1.8446   -1.1374   -1.2743 H   0  0  0  0  0  0  0  0  0  0  0  0
    0.1183   -0.8074   -0.4668 C   0  0  1  0  0  0  0  0  0  0  0  0
    0.8641   -1.5140   -0.8334 H   0  0  0  0  0  0  0  0  0  0  0  0
    0.0995    0.4902   -1.3220 C   0  0  0  0  0  0  0  0  0  0  0  0
   -0.9017    0.5969   -1.7516 H   0  0  0  0  0  0  0  0  0  0  0  0
    0.2434    1.3606   -0.6718 H   0  0  0  0  0  0  0  0  0  0  0  0
    1.1266    0.5940   -2.4816 C   0  0  0  0  0  0  0  0  0  0  0  0
    2.0421    1.0307   -2.0668 H   0  0  0  0  0  0  0  0  0  0  0  0
    1.5340   -0.7363   -3.1364 C   0  0  0  0  0  0  0  0  0  0  0  0
    0.6501   -1.3374   -3.3711 H   0  0  0  0  0  0  0  0  0  0  0  0
    2.0819   -0.5520   -4.0658 H   0  0  0  0  0  0  0  0  0  0  0  0
    2.1940   -1.3104   -2.4795 H   0  0  0  0  0  0  0  0  0  0  0  0
    0.5915    1.5534   -3.5525 C   0  0  0  0  0  0  0  0  0  0  0  0
    0.3252    2.5157   -3.1036 H   0  0  0  0  0  0  0  0  0  0  0  0
    1.3525    1.7339   -4.3182 H   0  0  0  0  0  0  0  0  0  0  0  0
   -0.2964    1.1357   -4.0377 H   0  0  0  0  0  0  0  0  0  0  0  0
    0.5578   -0.4710    0.9766 C   0  0  0  0  0  0  0  0  0  0  0  0
    1.7477   -0.4753    1.2640 O   0  0  0  0  0  0  0  0  0  0  0  0
   -0.3444    0.0990    1.8574 N   0  0  0  0  0  0  0  0  0  0  0  0
   -1.3248    0.0002    1.6161 H   0  0  0  0  0  0  0  0  0  0  0  0
    0.0084    0.4583    3.2250 C   0  0  0  0  0  0  0  0  0  0  0  0
    0.8186    1.1950    3.2313 H   0  0  0  0  0  0  0  0  0  0  0  0
   -0.8551    0.8928    3.7374 H   0  0  0  0  0  0  0  0  0  0  0  0
    0.3333   -0.4278    3.7804 H   0  0  0  0  0  0  0  0  0  0  0  0
  1  2  1  0  0  0  0
  2  3  1  0  0  0  0
  2  4  1  0  0  0  0
  2  5  1  0  0  0  0
  5  6  2  0  0  0  0
  5  7  1  0  0  0  0
  7  8  1  0  0  0  0
  7  9  1  0  0  0  0
  9 10  1  0  0  0  0
  9 11  1  0  0  0  0
  9 24  1  0  0  0  0
 11 12  1  0  0  0  0
 11 13  1  0  0  0  0
 11 14  1  0  0  0  0
 14 15  1  0  0  0  0
 14 16  1  0  0  0  0
 14 20  1  0  0  0  0
 16 17  1  0  0  0  0
 16 18  1  0  0  0  0
 16 19  1  0  0  0  0
 20 21  1  0  0  0  0
 20 22  1  0  0  0  0
 20 23  1  0  0  0  0
 24 25  2  0  0  0  0
 24 26  1  0  0  0  0
 26 27  1  0  0  0  0
 26 28  1  0  0  0  0
 28 29  1  0  0  0  0
 28 30  1  0  0  0  0
 28 31  1  0  0  0  0
M  END
$$$$

  -OEChem-04042216013D

 31 30  0     1  0  0  0  0  0999 V2000
   -2.8605   -4.3157    0.2063 H   0  0  0  0  0  0  0  0  0  0  0  0
   -2.8088   -3.3476   -0.3002 C   0  0  0  0  0  0  0  0  0  0  0  0
   -3.6333   -2.7229    0.0511 H   0  0  0  0  0  0  0  0  0  0  0  0
   -2.9137   -3.5084   -1.3758 H   0  0  0  0  0  0  0  0  0  0  0  0
   -1.4825   -2.6736   -0.0028 C   0  0  0  0  0  0  0  0  0  0  0  0
   -0.6846   -3.2116    0.7430 O   0  0  0  0  0  0  0  0  0  0  0  0
   -1.1921   -1.4521   -0.5791 N   0  0  0  0  0  0  0  0  0  0  0  0
   -1.8541   -1.1087   -1.2681 H   0  0  0  0  0  0  0  0  0  0  0  0
    0.1182   -0.7790   -0.4819 C   0  0  1  0  0  0  0  0  0  0  0  0
    0.8745   -1.4678   -0.8631 H   0  0  0  0  0  0  0  0  0  0  0  0
    0.0861    0.5239   -1.3233 C   0  0  0  0  0  0  0  0  0  0  0  0
   -0.9131    0.6402   -1.7553 H   0  0  0  0  0  0  0  0  0  0  0  0
    0.2417    1.3882   -0.6676 H   0  0  0  0  0  0  0  0  0  0  0  0
    1.1184    0.6056   -2.4731 C   0  0  0  0  0  0  0  0  0  0  0  0
    2.1038    0.7851   -2.0284 H   0  0  0  0  0  0  0  0  0  0  0  0
    1.2245   -0.6720   -3.3238 C   0  0  0  0  0  0  0  0  0  0  0  0
    0.2293   -1.0280   -3.6078 H   0  0  0  0  0  0  0  0  0  0  0  0
    1.7936   -0.4734   -4.2374 H   0  0  0  0  0  0  0  0  0  0  0  0
    1.7455   -1.4683   -2.7859 H   0  0  0  0  0  0  0  0  0  0  0  0
    0.7758    1.7985   -3.3739 C   0  0  0  0  0  0  0  0  0  0  0  0
    0.7163    2.7181   -2.7830 H   0  0  0  0  0  0  0  0  0  0  0  0
    1.5473    1.9340   -4.1385 H   0  0  0  0  0  0  0  0  0  0  0  0
   -0.1852    1.6424   -3.8742 H   0  0  0  0  0  0  0  0  0  0  0  0
    0.5616   -0.4557    0.9632 C   0  0  0  0  0  0  0  0  0  0  0  0
    1.7526   -0.4527    1.2463 O   0  0  0  0  0  0  0  0  0  0  0  0
   -0.3427    0.0955    1.8536 N   0  0  0  0  0  0  0  0  0  0  0  0
   -1.3231   -0.0064    1.6132 H   0  0  0  0  0  0  0  0  0  0  0  0
    0.0103    0.4411    3.2244 C   0  0  0  0  0  0  0  0  0  0  0  0
    0.8177    1.1807    3.2385 H   0  0  0  0  0  0  0  0  0  0  0  0
   -0.8549    0.8672    3.7409 H   0  0  0  0  0  0  0  0  0  0  0  0
    0.3387   -0.4495    3.7704 H   0  0  0  0  0  0  0  0  0  0  0  0
  1  2  1  0  0  0  0
  2  3  1  0  0  0  0
  2  4  1  0  0  0  0
  2  5  1  0  0  0  0
  5  6  2  0  0  0  0
  5  7  1  0  0  0  0
  7  8  1  0  0  0  0
  7  9  1  0  0  0  0
  9 10  1  0  0  0  0
  9 11  1  0  0  0  0
  9 24  1  0  0  0  0
 11 12  1  0  0  0  0
 11 13  1  0  0  0  0
 11 14  1  0  0  0  0
 14 15  1  0  0  0  0
 14 16  1  0  0  0  0
 14 20  1  0  0  0  0
 16 17  1  0  0  0  0
 16 18  1  0  0  0  0
 16 19  1  0  0  0  0
 20 21  1  0  0  0  0
 20 22  1  0  0  0  0
 20 23  1  0  0  0  0
 24 25  2  0  0  0  0
 24 26  1  0  0  0  0
 26 27  1  0  0  0  0
 26 28  1  0  0  0  0
 28 29  1  0  0  0  0
 28 30  1  0  0  0  0
 28 31  1  0  0  0  0
M  END
$$$$

  -OEChem-04042216013D

 31 30  0     1  0  0  0  0  0999 V2000
   -2.8232   -4.3218    0.1649 H   0  0  0  0  0  0  0  0  0  0  0  0
   -2.7832   -3.3471   -0.3299 C   0  0  0  0  0  0  0  0  0  0  0  0
   -3.6118   -2.7344    0.0327 H   0  0  0  0  0  0  0  0  0  0  0  0
   -2.8918   -3.4959   -1.4069 H   0  0  0  0  0  0  0  0  0  0  0  0
   -1.4619   -2.6641   -0.0302 C   0  0  0  0  0  0  0  0  0  0  0  0
   -0.6543   -3.2039    0.7038 O   0  0  0  0  0  0  0  0  0  0  0  0
   -1.1871   -1.4320   -0.5912 N   0  0  0  0  0  0  0  0  0  0  0  0
   -1.8552   -1.0870   -1.2735 H   0  0  0  0  0  0  0  0  0  0  0  0
    0.1160   -0.7463   -0.4907 C   0  0  1  0  0  0  0  0  0  0  0  0
    0.8815   -1.4164   -0.8921 H   0  0  0  0  0  0  0  0  0  0  0  0
    0.0648    0.5613   -1.3196 C   0  0  0  0  0  0  0  0  0  0  0  0
   -0.9324    0.6890   -1.7529 H   0  0  0  0  0  0  0  0  0  0  0  0
    0.2300    1.4186   -0.6572 H   0  0  0  0  0  0  0  0  0  0  0  0
    1.1068    0.6175   -2.4556 C   0  0  0  0  0  0  0  0  0  0  0  0
    2.1066    0.5357   -2.0145 H   0  0  0  0  0  0  0  0  0  0  0  0
    0.9332   -0.5199   -3.4763 C   0  0  0  0  0  0  0  0  0  0  0  0
   -0.0861   -0.5248   -3.8750 H   0  0  0  0  0  0  0  0  0  0  0  0
    1.6297   -0.3879   -4.3102 H   0  0  0  0  0  0  0  0  0  0  0  0
    1.1359   -1.4962   -3.0289 H   0  0  0  0  0  0  0  0  0  0  0  0
    1.0049    1.9682   -3.1736 C   0  0  0  0  0  0  0  0  0  0  0  0
    1.1614    2.7887   -2.4662 H   0  0  0  0  0  0  0  0  0  0  0  0
    1.7667    2.0429   -3.9560 H   0  0  0  0  0  0  0  0  0  0  0  0
    0.0197    2.0887   -3.6351 H   0  0  0  0  0  0  0  0  0  0  0  0
    0.5651   -0.4365    0.9559 C   0  0  0  0  0  0  0  0  0  0  0  0
    1.7578   -0.4260    1.2312 O   0  0  0  0  0  0  0  0  0  0  0  0
   -0.3384    0.0936    1.8598 N   0  0  0  0  0  0  0  0  0  0  0  0
   -1.3193   -0.0122    1.6237 H   0  0  0  0  0  0  0  0  0  0  0  0
    0.0204    0.4246    3.2329 C   0  0  0  0  0  0  0  0  0  0  0  0
    0.8200    1.1727    3.2516 H   0  0  0  0  0  0  0  0  0  0  0  0
   -0.8456    0.8340    3.7614 H   0  0  0  0  0  0  0  0  0  0  0  0
    0.3618   -0.4700    3.7642 H   0  0  0  0  0  0  0  0  0  0  0  0
  1  2  1  0  0  0  0
  2  3  1  0  0  0  0
  2  4  1  0  0  0  0
  2  5  1  0  0  0  0
  5  6  2  0  0  0  0
  5  7  1  0  0  0  0
  7  8  1  0  0  0  0
  7  9  1  0  0  0  0
  9 10  1  0  0  0  0
  9 11  1  0  0  0  0
  9 24  1  0  0  0  0
 11 12  1  0  0  0  0
 11 13  1  0  0  0  0
 11 14  1  0  0  0  0
 14 15  1  0  0  0  0
 14 16  1  0  0  0  0
 14 20  1  0  0  0  0
 16 17  1  0  0  0  0
 16 18  1  0  0  0  0
 16 19  1  0  0  0  0
 20 21  1  0  0  0  0
 20 22  1  0  0  0  0
 20 23  1  0  0  0  0
 24 25  2  0  0  0  0
 24 26  1  0  0  0  0
 26 27  1  0  0  0  0
 26 28  1  0  0  0  0
 28 29  1  0  0  0  0
 28 30  1  0  0  0  0
 28 31  1  0  0  0  0
M  END
$$$$

  -OEChem-04042216013D

 31 30  0     1  0  0  0  0  0999 V2000
   -2.7913   -4.3288    0.1113 H   0  0  0  0  0  0  0  0  0  0  0  0
   -2.7645   -3.3448   -0.3657 C   0  0  0  0  0  0  0  0  0  0  0  0
   -3.5995   -2.7485    0.0097 H   0  0  0  0  0  0  0  0  0  0  0  0
   -2.8738   -3.4753   -1.4450 H   0  0  0  0  0  0  0  0  0  0  0  0
   -1.4510   -2.6516   -0.0563 C   0  0  0  0  0  0  0  0  0  0  0  0
   -0.6399   -3.1905    0.6745 O   0  0  0  0  0  0  0  0  0  0  0  0
   -1.1889   -1.4091   -0.5994 N   0  0  0  0  0  0  0  0  0  0  0  0
   -1.8615   -1.0604   -1.2754 H   0  0  0  0  0  0  0  0  0  0  0  0
    0.1080   -0.7138   -0.4914 C   0  0  1  0  0  0  0  0  0  0  0  0
    0.8712   -1.3766   -0.9137 H   0  0  0  0  0  0  0  0  0  0  0  0
    0.0464    0.5943   -1.3157 C   0  0  0  0  0  0  0  0  0  0  0  0
   -0.9479    0.7328   -1.7525 H   0  0  0  0  0  0  0  0  0  0  0  0
    0.2166    1.4464   -0.6476 H   0  0  0  0  0  0  0  0  0  0  0  0
    1.1055    0.6237   -2.4344 C   0  0  0  0  0  0  0  0  0  0  0  0
    2.0705    0.2964   -2.0308 H   0  0  0  0  0  0  0  0  0  0  0  0
    0.7017   -0.2931   -3.5979 C   0  0  0  0  0  0  0  0  0  0  0  0
   -0.2529    0.0247   -4.0292 H   0  0  0  0  0  0  0  0  0  0  0  0
    1.4631   -0.2652   -4.3836 H   0  0  0  0  0  0  0  0  0  0  0  0
    0.6019   -1.3287   -3.2593 H   0  0  0  0  0  0  0  0  0  0  0  0
    1.2640    2.0558   -2.9579 C   0  0  0  0  0  0  0  0  0  0  0  0
    1.5889    2.7224   -2.1528 H   0  0  0  0  0  0  0  0  0  0  0  0
    2.0159    2.0900   -3.7525 H   0  0  0  0  0  0  0  0  0  0  0  0
    0.3163    2.4296   -3.3587 H   0  0  0  0  0  0  0  0  0  0  0  0
    0.5647   -0.4185    0.9554 C   0  0  0  0  0  0  0  0  0  0  0  0
    1.7594   -0.3998    1.2213 O   0  0  0  0  0  0  0  0  0  0  0  0
   -0.3367    0.0925    1.8723 N   0  0  0  0  0  0  0  0  0  0  0  0
   -1.3184   -0.0260    1.6451 H   0  0  0  0  0  0  0  0  0  0  0  0
    0.0310    0.4086    3.2464 C   0  0  0  0  0  0  0  0  0  0  0  0
    0.8252    1.1622    3.2672 H   0  0  0  0  0  0  0  0  0  0  0  0
   -0.8332    0.8052    3.7875 H   0  0  0  0  0  0  0  0  0  0  0  0
    0.3836   -0.4899    3.7637 H   0  0  0  0  0  0  0  0  0  0  0  0
  1  2  1  0  0  0  0
  2  3  1  0  0  0  0
  2  4  1  0  0  0  0
  2  5  1  0  0  0  0
  5  6  2  0  0  0  0
  5  7  1  0  0  0  0
  7  8  1  0  0  0  0
  7  9  1  0  0  0  0
  9 10  1  0  0  0  0
  9 11  1  0  0  0  0
  9 24  1  0  0  0  0
 11 12  1  0  0  0  0
 11 13  1  0  0  0  0
 11 14  1  0  0  0  0
 14 15  1  0  0  0  0
 14 16  1  0  0  0  0
 14 20  1  0  0  0  0
 16 17  1  0  0  0  0
 16 18  1  0  0  0  0
 16 19  1  0  0  0  0
 20 21  1  0  0  0  0
 20 22  1  0  0  0  0
 20 23  1  0  0  0  0
 24 25  2  0  0  0  0
 24 26  1  0  0  0  0
 26 27  1  0  0  0  0
 26 28  1  0  0  0  0
 28 29  1  0  0  0  0
 28 30  1  0  0  0  0
 28 31  1  0  0  0  0
M  END
$$$$

  -OEChem-04042216013D

 31 30  0     1  0  0  0  0  0999 V2000
   -2.7944   -4.3263    0.0988 H   0  0  0  0  0  0  0  0  0  0  0  0
   -2.7669   -3.3400   -0.3731 C   0  0  0  0  0  0  0  0  0  0  0  0
   -3.6023   -2.7459    0.0046 H   0  0  0  0  0  0  0  0  0  0  0  0
   -2.8743   -3.4648   -1.4532 H   0  0  0  0  0  0  0  0  0  0  0  0
   -1.4534   -2.6491   -0.0590 C   0  0  0  0  0  0  0  0  0  0  0  0
   -0.6437   -3.1912    0.6709 O   0  0  0  0  0  0  0  0  0  0  0  0
   -1.1891   -1.4056   -0.5990 N   0  0  0  0  0  0  0  0  0  0  0  0
   -1.8610   -1.0537   -1.2740 H   0  0  0  0  0  0  0  0  0  0  0  0
    0.1078   -0.7111   -0.4860 C   0  0  1  0  0  0  0  0  0  0  0  0
    0.8654   -1.3790   -0.9101 H   0  0  0  0  0  0  0  0  0  0  0  0
    0.0469    0.5953   -1.3134 C   0  0  0  0  0  0  0  0  0  0  0  0
   -0.9480    0.7402   -1.7465 H   0  0  0  0  0  0  0  0  0  0  0  0
    0.2149    1.4435   -0.6402 H   0  0  0  0  0  0  0  0  0  0  0  0
    1.1130    0.6225   -2.4297 C   0  0  0  0  0  0  0  0  0  0  0  0
    2.0060    0.0704   -2.1155 H   0  0  0  0  0  0  0  0  0  0  0  0
    0.5508    0.0107   -3.7185 C   0  0  0  0  0  0  0  0  0  0  0  0
   -0.3115    0.5811   -4.0783 H   0  0  0  0  0  0  0  0  0  0  0  0
    1.3155    0.0071   -4.5016 H   0  0  0  0  0  0  0  0  0  0  0  0
    0.2368   -1.0228   -3.5421 H   0  0  0  0  0  0  0  0  0  0  0  0
    1.5309    2.0700   -2.7172 C   0  0  0  0  0  0  0  0  0  0  0  0
    1.9705    2.5256   -1.8241 H   0  0  0  0  0  0  0  0  0  0  0  0
    2.2780    2.0993   -3.5165 H   0  0  0  0  0  0  0  0  0  0  0  0
    0.6678    2.6688   -3.0250 H   0  0  0  0  0  0  0  0  0  0  0  0
    0.5654   -0.4161    0.9603 C   0  0  0  0  0  0  0  0  0  0  0  0
    1.7602   -0.3987    1.2255 O   0  0  0  0  0  0  0  0  0  0  0  0
   -0.3357    0.0953    1.8770 N   0  0  0  0  0  0  0  0  0  0  0  0
   -1.3172   -0.0231    1.6494 H   0  0  0  0  0  0  0  0  0  0  0  0
    0.0315    0.4078    3.2522 C   0  0  0  0  0  0  0  0  0  0  0  0
    0.8278    1.1593    3.2762 H   0  0  0  0  0  0  0  0  0  0  0  0
   -0.8322    0.8052    3.7935 H   0  0  0  0  0  0  0  0  0  0  0  0
    0.3811   -0.4932    3.7672 H   0  0  0  0  0  0  0  0  0  0  0  0
  1  2  1  0  0  0  0
  2  3  1  0  0  0  0
  2  4  1  0  0  0  0
  2  5  1  0  0  0  0
  5  6  2  0  0  0  0
  5  7  1  0  0  0  0
  7  8  1  0  0  0  0
  7  9  1  0  0  0  0
  9 10  1  0  0  0  0
  9 11  1  0  0  0  0
  9 24  1  0  0  0  0
 11 12  1  0  0  0  0
 11 13  1  0  0  0  0
 11 14  1  0  0  0  0
 14 15  1  0  0  0  0
 14 16  1  0  0  0  0
 14 20  1  0  0  0  0
 16 17  1  0  0  0  0
 16 18  1  0  0  0  0
 16 19  1  0  0  0  0
 20 21  1  0  0  0  0
 20 22  1  0  0  0  0
 20 23  1  0  0  0  0
 24 25  2  0  0  0  0
 24 26  1  0  0  0  0
 26 27  1  0  0  0  0
 26 28  1  0  0  0  0
 28 29  1  0  0  0  0
 28 30  1  0  0  0  0
 28 31  1  0  0  0  0
M  END
$$$$

  -OEChem-04042216013D

 31 30  0     1  0  0  0  0  0999 V2000
   -2.8070   -4.3216    0.1200 H   0  0  0  0  0  0  0  0  0  0  0  0
   -2.7738   -3.3384   -0.3581 C   0  0  0  0  0  0  0  0  0  0  0  0
   -3.6045   -2.7364    0.0176 H   0  0  0  0  0  0  0  0  0  0  0  0
   -2.8847   -3.4690   -1.4372 H   0  0  0  0  0  0  0  0  0  0  0  0
   -1.4557   -2.6535   -0.0500 C   0  0  0  0  0  0  0  0  0  0  0  0
   -0.6486   -3.1951    0.6831 O   0  0  0  0  0  0  0  0  0  0  0  0
   -1.1861   -1.4137   -0.5958 N   0  0  0  0  0  0  0  0  0  0  0  0
   -1.8571   -1.0610   -1.2712 H   0  0  0  0  0  0  0  0  0  0  0  0
    0.1125   -0.7226   -0.4841 C   0  0  1  0  0  0  0  0  0  0  0  0
    0.8678   -1.3976   -0.8997 H   0  0  0  0  0  0  0  0  0  0  0  0
    0.0545    0.5831   -1.3152 C   0  0  0  0  0  0  0  0  0  0  0  0
   -0.9434    0.7226   -1.7435 H   0  0  0  0  0  0  0  0  0  0  0  0
    0.2120    1.4333   -0.6419 H   0  0  0  0  0  0  0  0  0  0  0  0
    1.1176    0.6227   -2.4404 C   0  0  0  0  0  0  0  0  0  0  0  0
    1.8934   -0.1309   -2.2689 H   0  0  0  0  0  0  0  0  0  0  0  0
    0.4632    0.3731   -3.8046 C   0  0  0  0  0  0  0  0  0  0  0  0
   -0.2820    1.1435   -4.0276 H   0  0  0  0  0  0  0  0  0  0  0  0
    1.2187    0.3824   -4.5966 H   0  0  0  0  0  0  0  0  0  0  0  0
   -0.0304   -0.6037   -3.8141 H   0  0  0  0  0  0  0  0  0  0  0  0
    1.8041    1.9942   -2.4680 C   0  0  0  0  0  0  0  0  0  0  0  0
    2.3135    2.1835   -1.5176 H   0  0  0  0  0  0  0  0  0  0  0  0
    2.5508    2.0319   -3.2674 H   0  0  0  0  0  0  0  0  0  0  0  0
    1.0729    2.7913   -2.6369 H   0  0  0  0  0  0  0  0  0  0  0  0
    0.5656   -0.4229    0.9626 C   0  0  0  0  0  0  0  0  0  0  0  0
    1.7595   -0.4081    1.2327 O   0  0  0  0  0  0  0  0  0  0  0  0
   -0.3375    0.0949    1.8737 N   0  0  0  0  0  0  0  0  0  0  0  0
   -1.3186   -0.0195    1.6425 H   0  0  0  0  0  0  0  0  0  0  0  0
    0.0258    0.4147    3.2480 C   0  0  0  0  0  0  0  0  0  0  0  0
    0.8237    1.1643    3.2690 H   0  0  0  0  0  0  0  0  0  0  0  0
   -0.8387    0.8177    3.7838 H   0  0  0  0  0  0  0  0  0  0  0  0
    0.3722   -0.4834    3.7701 H   0  0  0  0  0  0  0  0  0  0  0  0
  1  2  1  0  0  0  0
  2  3  1  0  0  0  0
  2  4  1  0  0  0  0
  2  5  1  0  0  0  0
  5  6  2  0  0  0  0
  5  7  1  0  0  0  0
  7  8  1  0  0  0  0
  7  9  1  0  0  0  0
  9 10  1  0  0  0  0
  9 11  1  0  0  0  0
  9 24  1  0  0  0  0
 11 12  1  0  0  0  0
 11 13  1  0  0  0  0
 11 14  1  0  0  0  0
 14 15  1  0  0  0  0
 14 16  1  0  0  0  0
 14 20  1  0  0  0  0
 16 17  1  0  0  0  0
 16 18  1  0  0  0  0
 16 19  1  0  0  0  0
 20 21  1  0  0  0  0
 20 22  1  0  0  0  0
 20 23  1  0  0  0  0
 24 25  2  0  0  0  0
 24 26  1  0  0  0  0
 26 27  1  0  0  0  0
 26 28  1  0  0  0  0
 28 29  1  0  0  0  0
 28 30  1  0  0  0  0
 28 31  1  0  0  0  0
M  END
$$$$

  -OEChem-04042216013D

 31 30  0     1  0  0  0  0  0999 V2000
   -2.8006   -4.3346    0.1310 H   0  0  0  0  0  0  0  0  0  0  0  0
   -2.7722   -3.3532   -0.3512 C   0  0  0  0  0  0  0  0  0  0  0  0
   -3.6073   -2.7546    0.0202 H   0  0  0  0  0  0  0  0  0  0  0  0
   -2.8802   -3.4897   -1.4300 H   0  0  0  0  0  0  0  0  0  0  0  0
   -1.4582   -2.6594   -0.0434 C   0  0  0  0  0  0  0  0  0  0  0  0
   -0.6506   -3.1937    0.6947 O   0  0  0  0  0  0  0  0  0  0  0  0
   -1.1922   -1.4207   -0.5943 N   0  0  0  0  0  0  0  0  0  0  0  0
   -1.8643   -1.0729   -1.2712 H   0  0  0  0  0  0  0  0  0  0  0  0
    0.1057   -0.7262   -0.4870 C   0  0  1  0  0  0  0  0  0  0  0  0
    0.8618   -1.4031   -0.8971 H   0  0  0  0  0  0  0  0  0  0  0  0
    0.0499    0.5811   -1.3181 C   0  0  0  0  0  0  0  0  0  0  0  0
   -0.9488    0.6991   -1.7511 H   0  0  0  0  0  0  0  0  0  0  0  0
    0.1864    1.4401   -0.6515 H   0  0  0  0  0  0  0  0  0  0  0  0
    1.1102    0.6305   -2.4487 C   0  0  0  0  0  0  0  0  0  0  0  0
    1.7081   -0.2861   -2.4588 H   0  0  0  0  0  0  0  0  0  0  0  0
    0.4353    0.7651   -3.8185 C   0  0  0  0  0  0  0  0  0  0  0  0
   -0.1526    1.6870   -3.8723 H   0  0  0  0  0  0  0  0  0  0  0  0
    1.1882    0.7868   -4.6128 H   0  0  0  0  0  0  0  0  0  0  0  0
   -0.2291   -0.0854   -4.0000 H   0  0  0  0  0  0  0  0  0  0  0  0
    2.0695    1.8061   -2.2286 C   0  0  0  0  0  0  0  0  0  0  0  0
    2.5738    1.7066   -1.2617 H   0  0  0  0  0  0  0  0  0  0  0  0
    2.8334    1.8274   -3.0121 H   0  0  0  0  0  0  0  0  0  0  0  0
    1.5288    2.7579   -2.2445 H   0  0  0  0  0  0  0  0  0  0  0  0
    0.5631   -0.4190    0.9569 C   0  0  0  0  0  0  0  0  0  0  0  0
    1.7583   -0.3971    1.2206 O   0  0  0  0  0  0  0  0  0  0  0  0
   -0.3366    0.1012    1.8702 N   0  0  0  0  0  0  0  0  0  0  0  0
   -1.3187   -0.0175    1.6455 H   0  0  0  0  0  0  0  0  0  0  0  0
    0.0341    0.4333    3.2399 C   0  0  0  0  0  0  0  0  0  0  0  0
    0.8330    1.1823    3.2507 H   0  0  0  0  0  0  0  0  0  0  0  0
   -0.8274    0.8422    3.7762 H   0  0  0  0  0  0  0  0  0  0  0  0
    0.3818   -0.4605    3.7687 H   0  0  0  0  0  0  0  0  0  0  0  0
  1  2  1  0  0  0  0
  2  3  1  0  0  0  0
  2  4  1  0  0  0  0
  2  5  1  0  0  0  0
  5  6  2  0  0  0  0
  5  7  1  0  0  0  0
  7  8  1  0  0  0  0
  7  9  1  0  0  0  0
  9 10  1  0  0  0  0
  9 11  1  0  0  0  0
  9 24  1  0  0  0  0
 11 12  1  0  0  0  0
 11 13  1  0  0  0  0
 11 14  1  0  0  0  0
 14 15  1  0  0  0  0
 14 16  1  0  0  0  0
 14 20  1  0  0  0  0
 16 17  1  0  0  0  0
 16 18  1  0  0  0  0
 16 19  1  0  0  0  0
 20 21  1  0  0  0  0
 20 22  1  0  0  0  0
 20 23  1  0  0  0  0
 24 25  2  0  0  0  0
 24 26  1  0  0  0  0
 26 27  1  0  0  0  0
 26 28  1  0  0  0  0
 28 29  1  0  0  0  0
 28 30  1  0  0  0  0
 28 31  1  0  0  0  0
M  END
$$$$

  -OEChem-04042216013D

 31 30  0     1  0  0  0  0  0999 V2000
   -2.7892   -4.3290    0.1525 H   0  0  0  0  0  0  0  0  0  0  0  0
   -2.7621   -3.3499   -0.3345 C   0  0  0  0  0  0  0  0  0  0  0  0
   -3.5922   -2.7473    0.0417 H   0  0  0  0  0  0  0  0  0  0  0  0
   -2.8801   -3.4912   -1.4114 H   0  0  0  0  0  0  0  0  0  0  0  0
   -1.4436   -2.6584   -0.0423 C   0  0  0  0  0  0  0  0  0  0  0  0
   -0.6276   -3.1950    0.6846 O   0  0  0  0  0  0  0  0  0  0  0  0
   -1.1829   -1.4203   -0.5969 N   0  0  0  0  0  0  0  0  0  0  0  0
   -1.8615   -1.0731   -1.2677 H   0  0  0  0  0  0  0  0  0  0  0  0
    0.1132   -0.7212   -0.4939 C   0  0  1  0  0  0  0  0  0  0  0  0
    0.8762   -1.3902   -0.9049 H   0  0  0  0  0  0  0  0  0  0  0  0
    0.0514    0.5883   -1.3206 C   0  0  0  0  0  0  0  0  0  0  0  0
   -0.9467    0.6844   -1.7596 H   0  0  0  0  0  0  0  0  0  0  0  0
    0.1741    1.4570   -0.6637 H   0  0  0  0  0  0  0  0  0  0  0  0
    1.1068    0.6390   -2.4525 C   0  0  0  0  0  0  0  0  0  0  0  0
    1.4914   -0.3656   -2.6560 H   0  0  0  0  0  0  0  0  0  0  0  0
    0.4782    1.1443   -3.7558 C   0  0  0  0  0  0  0  0  0  0  0  0
    0.0645    2.1486   -3.6198 H   0  0  0  0  0  0  0  0  0  0  0  0
    1.2297    1.1831   -4.5507 H   0  0  0  0  0  0  0  0  0  0  0  0
   -0.3256    0.4746   -4.0771 H   0  0  0  0  0  0  0  0  0  0  0  0
    2.2882    1.5271   -2.0476 C   0  0  0  0  0  0  0  0  0  0  0  0
    2.7453    1.1536   -1.1254 H   0  0  0  0  0  0  0  0  0  0  0  0
    3.0506    1.5282   -2.8327 H   0  0  0  0  0  0  0  0  0  0  0  0
    1.9602    2.5580   -1.8812 H   0  0  0  0  0  0  0  0  0  0  0  0
    0.5654   -0.4122    0.9513 C   0  0  0  0  0  0  0  0  0  0  0  0
    1.7586   -0.3961    1.2241 O   0  0  0  0  0  0  0  0  0  0  0  0
   -0.3395    0.1051    1.8611 N   0  0  0  0  0  0  0  0  0  0  0  0
   -1.3203   -0.0064    1.6274 H   0  0  0  0  0  0  0  0  0  0  0  0
    0.0217    0.4307    3.2348 C   0  0  0  0  0  0  0  0  0  0  0  0
    0.8181    1.1820    3.2543 H   0  0  0  0  0  0  0  0  0  0  0  0
   -0.8444    0.8337    3.7682 H   0  0  0  0  0  0  0  0  0  0  0  0
    0.3689   -0.4649    3.7608 H   0  0  0  0  0  0  0  0  0  0  0  0
  1  2  1  0  0  0  0
  2  3  1  0  0  0  0
  2  4  1  0  0  0  0
  2  5  1  0  0  0  0
  5  6  2  0  0  0  0
  5  7  1  0  0  0  0
  7  8  1  0  0  0  0
  7  9  1  0  0  0  0
  9 10  1  0  0  0  0
  9 11  1  0  0  0  0
  9 24  1  0  0  0  0
 11 12  1  0  0  0  0
 11 13  1  0  0  0  0
 11 14  1  0  0  0  0
 14 15  1  0  0  0  0
 14 16  1  0  0  0  0
 14 20  1  0  0  0  0
 16 17  1  0  0  0  0
 16 18  1  0  0  0  0
 16 19  1  0  0  0  0
 20 21  1  0  0  0  0
 20 22  1  0  0  0  0
 20 23  1  0  0  0  0
 24 25  2  0  0  0  0
 24 26  1  0  0  0  0
 26 27  1  0  0  0  0
 26 28  1  0  0  0  0
 28 29  1  0  0  0  0
 28 30  1  0  0  0  0
 28 31  1  0  0  0  0
M  END
$$$$

  -OEChem-04042216013D

 31 30  0     1  0  0  0  0  0999 V2000
   -2.7746   -4.3263    0.1457 H   0  0  0  0  0  0  0  0  0  0  0  0
   -2.7514   -3.3450   -0.3370 C   0  0  0  0  0  0  0  0  0  0  0  0
   -3.5832   -2.7469    0.0426 H   0  0  0  0  0  0  0  0  0  0  0  0
   -2.8697   -3.4813   -1.4146 H   0  0  0  0  0  0  0  0  0  0  0  0
   -1.4349   -2.6509   -0.0425 C   0  0  0  0  0  0  0  0  0  0  0  0
   -0.6176   -3.1876    0.6828 O   0  0  0  0  0  0  0  0  0  0  0  0
   -1.1758   -1.4123   -0.5966 N   0  0  0  0  0  0  0  0  0  0  0  0
   -1.8552   -1.0656   -1.2667 H   0  0  0  0  0  0  0  0  0  0  0  0
    0.1194   -0.7111   -0.4944 C   0  0  1  0  0  0  0  0  0  0  0  0
    0.8859   -1.3732   -0.9109 H   0  0  0  0  0  0  0  0  0  0  0  0
    0.0522    0.5973   -1.3214 C   0  0  0  0  0  0  0  0  0  0  0  0
   -0.9440    0.6866   -1.7661 H   0  0  0  0  0  0  0  0  0  0  0  0
    0.1769    1.4706   -0.6711 H   0  0  0  0  0  0  0  0  0  0  0  0
    1.1070    0.6384   -2.4490 C   0  0  0  0  0  0  0  0  0  0  0  0
    1.2783   -0.3756   -2.8258 H   0  0  0  0  0  0  0  0  0  0  0  0
    0.5958    1.4715   -3.6296 C   0  0  0  0  0  0  0  0  0  0  0  0
    0.3886    2.4991   -3.3143 H   0  0  0  0  0  0  0  0  0  0  0  0
    1.3434    1.4970   -4.4285 H   0  0  0  0  0  0  0  0  0  0  0  0
   -0.3232    1.0381   -4.0364 H   0  0  0  0  0  0  0  0  0  0  0  0
    2.4383    1.1964   -1.9334 C   0  0  0  0  0  0  0  0  0  0  0  0
    2.8238    0.5757   -1.1189 H   0  0  0  0  0  0  0  0  0  0  0  0
    3.1827    1.2069   -2.7354 H   0  0  0  0  0  0  0  0  0  0  0  0
    2.3137    2.2186   -1.5624 H   0  0  0  0  0  0  0  0  0  0  0  0
    0.5678   -0.4041    0.9535 C   0  0  0  0  0  0  0  0  0  0  0  0
    1.7587   -0.4010    1.2363 O   0  0  0  0  0  0  0  0  0  0  0  0
   -0.3399    0.1102    1.8623 N   0  0  0  0  0  0  0  0  0  0  0  0
   -1.3198    0.0000    1.6243 H   0  0  0  0  0  0  0  0  0  0  0  0
    0.0156    0.4257    3.2399 C   0  0  0  0  0  0  0  0  0  0  0  0
    0.8163    1.1722    3.2685 H   0  0  0  0  0  0  0  0  0  0  0  0
   -0.8509    0.8309    3.7707 H   0  0  0  0  0  0  0  0  0  0  0  0
    0.3544   -0.4751    3.7624 H   0  0  0  0  0  0  0  0  0  0  0  0
  1  2  1  0  0  0  0
  2  3  1  0  0  0  0
  2  4  1  0  0  0  0
  2  5  1  0  0  0  0
  5  6  2  0  0  0  0
  5  7  1  0  0  0  0
  7  8  1  0  0  0  0
  7  9  1  0  0  0  0
  9 10  1  0  0  0  0
  9 11  1  0  0  0  0
  9 24  1  0  0  0  0
 11 12  1  0  0  0  0
 11 13  1  0  0  0  0
 11 14  1  0  0  0  0
 14 15  1  0  0  0  0
 14 16  1  0  0  0  0
 14 20  1  0  0  0  0
 16 17  1  0  0  0  0
 16 18  1  0  0  0  0
 16 19  1  0  0  0  0
 20 21  1  0  0  0  0
 20 22  1  0  0  0  0
 20 23  1  0  0  0  0
 24 25  2  0  0  0  0
 24 26  1  0  0  0  0
 26 27  1  0  0  0  0
 26 28  1  0  0  0  0
 28 29  1  0  0  0  0
 28 30  1  0  0  0  0
 28 31  1  0  0  0  0
M  END
$$$$

  -OEChem-04042216013D

 31 30  0     1  0  0  0  0  0999 V2000
   -2.7852   -4.3153    0.1456 H   0  0  0  0  0  0  0  0  0  0  0  0
   -2.7559   -3.3330   -0.3348 C   0  0  0  0  0  0  0  0  0  0  0  0
   -3.5827   -2.7297    0.0478 H   0  0  0  0  0  0  0  0  0  0  0  0
   -2.8777   -3.4665   -1.4124 H   0  0  0  0  0  0  0  0  0  0  0  0
   -1.4341   -2.6484   -0.0415 C   0  0  0  0  0  0  0  0  0  0  0  0
   -0.6207   -3.1888    0.6854 O   0  0  0  0  0  0  0  0  0  0  0  0
   -1.1682   -1.4118   -0.5967 N   0  0  0  0  0  0  0  0  0  0  0  0
   -1.8451   -1.0628   -1.2680 H   0  0  0  0  0  0  0  0  0  0  0  0
    0.1288   -0.7149   -0.4924 C   0  0  1  0  0  0  0  0  0  0  0  0
    0.8931   -1.3785   -0.9118 H   0  0  0  0  0  0  0  0  0  0  0  0
    0.0637    0.5894   -1.3242 C   0  0  0  0  0  0  0  0  0  0  0  0
   -0.9301    0.6853   -1.7729 H   0  0  0  0  0  0  0  0  0  0  0  0
    0.1986    1.4618   -0.6749 H   0  0  0  0  0  0  0  0  0  0  0  0
    1.1184    0.6252   -2.4484 C   0  0  0  0  0  0  0  0  0  0  0  0
    1.1034   -0.3293   -2.9860 H   0  0  0  0  0  0  0  0  0  0  0  0
    0.7744    1.7338   -3.4491 C   0  0  0  0  0  0  0  0  0  0  0  0
    0.7695    2.7108   -2.9552 H   0  0  0  0  0  0  0  0  0  0  0  0
    1.5104    1.7574   -4.2590 H   0  0  0  0  0  0  0  0  0  0  0  0
   -0.2123    1.5606   -3.8900 H   0  0  0  0  0  0  0  0  0  0  0  0
    2.5281    0.8535   -1.8873 C   0  0  0  0  0  0  0  0  0  0  0  0
    2.8282    0.0226   -1.2424 H   0  0  0  0  0  0  0  0  0  0  0  0
    3.2550    0.9276   -2.7020 H   0  0  0  0  0  0  0  0  0  0  0  0
    2.5669    1.7779   -1.3022 H   0  0  0  0  0  0  0  0  0  0  0  0
    0.5715   -0.4081    0.9575 C   0  0  0  0  0  0  0  0  0  0  0  0
    1.7604   -0.4095    1.2485 O   0  0  0  0  0  0  0  0  0  0  0  0
   -0.3398    0.1097    1.8607 N   0  0  0  0  0  0  0  0  0  0  0  0
   -1.3187    0.0050    1.6163 H   0  0  0  0  0  0  0  0  0  0  0  0
    0.0086    0.4208    3.2410 C   0  0  0  0  0  0  0  0  0  0  0  0
    0.8129    1.1633    3.2756 H   0  0  0  0  0  0  0  0  0  0  0  0
   -0.8591    0.8293    3.7675 H   0  0  0  0  0  0  0  0  0  0  0  0
    0.3401   -0.4824    3.7642 H   0  0  0  0  0  0  0  0  0  0  0  0
  1  2  1  0  0  0  0
  2  3  1  0  0  0  0
  2  4  1  0  0  0  0
  2  5  1  0  0  0  0
  5  6  2  0  0  0  0
  5  7  1  0  0  0  0
  7  8  1  0  0  0  0
  7  9  1  0  0  0  0
  9 10  1  0  0  0  0
  9 11  1  0  0  0  0
  9 24  1  0  0  0  0
 11 12  1  0  0  0  0
 11 13  1  0  0  0  0
 11 14  1  0  0  0  0
 14 15  1  0  0  0  0
 14 16  1  0  0  0  0
 14 20  1  0  0  0  0
 16 17  1  0  0  0  0
 16 18  1  0  0  0  0
 16 19  1  0  0  0  0
 20 21  1  0  0  0  0
 20 22  1  0  0  0  0
 20 23  1  0  0  0  0
 24 25  2  0  0  0  0
 24 26  1  0  0  0  0
 26 27  1  0  0  0  0
 26 28  1  0  0  0  0
 28 29  1  0  0  0  0
 28 30  1  0  0  0  0
 28 31  1  0  0  0  0
M  END
$$$$

  -OEChem-04042216013D

 31 30  0     1  0  0  0  0  0999 V2000
   -2.8396   -4.3071    0.1513 H   0  0  0  0  0  0  0  0  0  0  0  0
   -2.7885   -3.3307   -0.3393 C   0  0  0  0  0  0  0  0  0  0  0  0
   -3.6162   -2.7137    0.0187 H   0  0  0  0  0  0  0  0  0  0  0  0
   -2.8889   -3.4751   -1.4177 H   0  0  0  0  0  0  0  0  0  0  0  0
   -1.4651   -2.6579   -0.0252 C   0  0  0  0  0  0  0  0  0  0  0  0
   -0.6775   -3.1963    0.7312 O   0  0  0  0  0  0  0  0  0  0  0  0
   -1.1695   -1.4335   -0.5925 N   0  0  0  0  0  0  0  0  0  0  0  0
   -1.8221   -1.0902   -1.2906 H   0  0  0  0  0  0  0  0  0  0  0  0
    0.1384   -0.7592   -0.4790 C   0  0  1  0  0  0  0  0  0  0  0  0
    0.8932   -1.4433   -0.8743 H   0  0  0  0  0  0  0  0  0  0  0  0
    0.0923    0.5413   -1.3184 C   0  0  0  0  0  0  0  0  0  0  0  0
   -0.9481    0.8176   -1.5169 H   0  0  0  0  0  0  0  0  0  0  0  0
    0.5257    1.3603   -0.7324 H   0  0  0  0  0  0  0  0  0  0  0  0
    0.8639    0.4609   -2.6534 C   0  0  0  0  0  0  0  0  0  0  0  0
    0.4316   -0.3292   -3.2766 H   0  0  0  0  0  0  0  0  0  0  0  0
    0.7341    1.8054   -3.3808 C   0  0  0  0  0  0  0  0  0  0  0  0
    1.1767    2.6122   -2.7875 H   0  0  0  0  0  0  0  0  0  0  0  0
    1.2430    1.7676   -4.3491 H   0  0  0  0  0  0  0  0  0  0  0  0
   -0.3193    2.0430   -3.5594 H   0  0  0  0  0  0  0  0  0  0  0  0
    2.3637    0.1796   -2.4512 C   0  0  0  0  0  0  0  0  0  0  0  0
    2.5368   -0.8371   -2.0902 H   0  0  0  0  0  0  0  0  0  0  0  0
    2.9019    0.2871   -3.3981 H   0  0  0  0  0  0  0  0  0  0  0  0
    2.7928    0.8812   -1.7285 H   0  0  0  0  0  0  0  0  0  0  0  0
    0.5707   -0.4404    0.9705 C   0  0  0  0  0  0  0  0  0  0  0  0
    1.7598   -0.4403    1.2616 O   0  0  0  0  0  0  0  0  0  0  0  0
   -0.3393    0.1067    1.8576 N   0  0  0  0  0  0  0  0  0  0  0  0
   -1.3181    0.0022    1.6124 H   0  0  0  0  0  0  0  0  0  0  0  0
    0.0058    0.4463    3.2322 C   0  0  0  0  0  0  0  0  0  0  0  0
    0.8165    1.1822    3.2538 H   0  0  0  0  0  0  0  0  0  0  0  0
   -0.8607    0.8745    3.7449 H   0  0  0  0  0  0  0  0  0  0  0  0
    0.3264   -0.4479    3.7772 H   0  0  0  0  0  0  0  0  0  0  0  0
  1  2  1  0  0  0  0
  2  3  1  0  0  0  0
  2  4  1  0  0  0  0
  2  5  1  0  0  0  0
  5  6  2  0  0  0  0
  5  7  1  0  0  0  0
  7  8  1  0  0  0  0
  7  9  1  0  0  0  0
  9 10  1  0  0  0  0
  9 11  1  0  0  0  0
  9 24  1  0  0  0  0
 11 12  1  0  0  0  0
 11 13  1  0  0  0  0
 11 14  1  0  0  0  0
 14 15  1  0  0  0  0
 14 16  1  0  0  0  0
 14 20  1  0  0  0  0
 16 17  1  0  0  0  0
 16 18  1  0  0  0  0
 16 19  1  0  0  0  0
 20 21  1  0  0  0  0
 20 22  1  0  0  0  0
 20 23  1  0  0  0  0
 24 25  2  0  0  0  0
 24 26  1  0  0  0  0
 26 27  1  0  0  0  0
 26 28  1  0  0  0  0
 28 29  1  0  0  0  0
 28 30  1  0  0  0  0
 28 31  1  0  0  0  0
M  END
$$$$

  -OEChem-04042216013D

 31 30  0     1  0  0  0  0  0999 V2000
   -2.8628   -4.3019    0.1873 H   0  0  0  0  0  0  0  0  0  0  0  0
   -2.8024   -3.3305   -0.3116 C   0  0  0  0  0  0  0  0  0  0  0  0
   -3.6249   -2.7027    0.0392 H   0  0  0  0  0  0  0  0  0  0  0  0
   -2.9018   -3.4834   -1.3889 H   0  0  0  0  0  0  0  0  0  0  0  0
   -1.4739   -2.6669   -0.0009 C   0  0  0  0  0  0  0  0  0  0  0  0
   -0.6946   -3.2035    0.7653 O   0  0  0  0  0  0  0  0  0  0  0  0
   -1.1640   -1.4528   -0.5830 N   0  0  0  0  0  0  0  0  0  0  0  0
   -1.8101   -1.1124   -1.2885 H   0  0  0  0  0  0  0  0  0  0  0  0
    0.1490   -0.7888   -0.4697 C   0  0  1  0  0  0  0  0  0  0  0  0
    0.9024   -1.4853   -0.8410 H   0  0  0  0  0  0  0  0  0  0  0  0
    0.1131    0.5077   -1.3210 C   0  0  0  0  0  0  0  0  0  0  0  0
   -0.9237    0.8053   -1.5085 H   0  0  0  0  0  0  0  0  0  0  0  0
    0.5611    1.3123   -0.7261 H   0  0  0  0  0  0  0  0  0  0  0  0
    0.8759    0.4585   -2.6682 C   0  0  0  0  0  0  0  0  0  0  0  0
    0.2899   -0.1192   -3.3908 H   0  0  0  0  0  0  0  0  0  0  0  0
    1.0484    1.8946   -3.1835 C   0  0  0  0  0  0  0  0  0  0  0  0
    1.6777    2.4794   -2.5044 H   0  0  0  0  0  0  0  0  0  0  0  0
    1.5162    1.8929   -4.1731 H   0  0  0  0  0  0  0  0  0  0  0  0
    0.0755    2.3887   -3.2686 H   0  0  0  0  0  0  0  0  0  0  0  0
    2.2818   -0.1603   -2.5678 C   0  0  0  0  0  0  0  0  0  0  0  0
    2.2296   -1.2480   -2.4715 H   0  0  0  0  0  0  0  0  0  0  0  0
    2.8617    0.0559   -3.4706 H   0  0  0  0  0  0  0  0  0  0  0  0
    2.8211    0.2457   -1.7054 H   0  0  0  0  0  0  0  0  0  0  0  0
    0.5671   -0.4574    0.9817 C   0  0  0  0  0  0  0  0  0  0  0  0
    1.7526   -0.4622    1.2870 O   0  0  0  0  0  0  0  0  0  0  0  0
   -0.3494    0.1073    1.8508 N   0  0  0  0  0  0  0  0  0  0  0  0
   -1.3261    0.0087    1.5947 H   0  0  0  0  0  0  0  0  0  0  0  0
   -0.0173    0.4686    3.2229 C   0  0  0  0  0  0  0  0  0  0  0  0
    0.8005    1.1966    3.2405 H   0  0  0  0  0  0  0  0  0  0  0  0
   -0.8853    0.9152    3.7170 H   0  0  0  0  0  0  0  0  0  0  0  0
    0.2878   -0.4182    3.7883 H   0  0  0  0  0  0  0  0  0  0  0  0
  1  2  1  0  0  0  0
  2  3  1  0  0  0  0
  2  4  1  0  0  0  0
  2  5  1  0  0  0  0
  5  6  2  0  0  0  0
  5  7  1  0  0  0  0
  7  8  1  0  0  0  0
  7  9  1  0  0  0  0
  9 10  1  0  0  0  0
  9 11  1  0  0  0  0
  9 24  1  0  0  0  0
 11 12  1  0  0  0  0
 11 13  1  0  0  0  0
 11 14  1  0  0  0  0
 14 15  1  0  0  0  0
 14 16  1  0  0  0  0
 14 20  1  0  0  0  0
 16 17  1  0  0  0  0
 16 18  1  0  0  0  0
 16 19  1  0  0  0  0
 20 21  1  0  0  0  0
 20 22  1  0  0  0  0
 20 23  1  0  0  0  0
 24 25  2  0  0  0  0
 24 26  1  0  0  0  0
 26 27  1  0  0  0  0
 26 28  1  0  0  0  0
 28 29  1  0  0  0  0
 28 30  1  0  0  0  0
 28 31  1  0  0  0  0
M  END
$$$$

  -OEChem-04042216013D

 31 30  0     1  0  0  0  0  0999 V2000
   -2.8882   -4.2952    0.2143 H   0  0  0  0  0  0  0  0  0  0  0  0
   -2.8133   -3.3322   -0.2991 C   0  0  0  0  0  0  0  0  0  0  0  0
   -3.6384   -2.6945    0.0270 H   0  0  0  0  0  0  0  0  0  0  0  0
   -2.8943   -3.5017   -1.3755 H   0  0  0  0  0  0  0  0  0  0  0  0
   -1.4865   -2.6709    0.0244 C   0  0  0  0  0  0  0  0  0  0  0  0
   -0.7213   -3.2024    0.8080 O   0  0  0  0  0  0  0  0  0  0  0  0
   -1.1609   -1.4670   -0.5700 N   0  0  0  0  0  0  0  0  0  0  0  0
   -1.7932   -1.1366   -1.2924 H   0  0  0  0  0  0  0  0  0  0  0  0
    0.1574   -0.8134   -0.4554 C   0  0  1  0  0  0  0  0  0  0  0  0
    0.9118   -1.5189   -0.8060 H   0  0  0  0  0  0  0  0  0  0  0  0
    0.1287    0.4807   -1.3154 C   0  0  0  0  0  0  0  0  0  0  0  0
   -0.9063    0.7904   -1.4929 H   0  0  0  0  0  0  0  0  0  0  0  0
    0.5802    1.2759   -0.7111 H   0  0  0  0  0  0  0  0  0  0  0  0
    0.8825    0.4622   -2.6747 C   0  0  0  0  0  0  0  0  0  0  0  0
    0.1838    0.1435   -3.4553 H   0  0  0  0  0  0  0  0  0  0  0  0
    1.3736    1.8837   -2.9865 C   0  0  0  0  0  0  0  0  0  0  0  0
    2.1241    2.2058   -2.2568 H   0  0  0  0  0  0  0  0  0  0  0  0
    1.8213    1.9250   -3.9845 H   0  0  0  0  0  0  0  0  0  0  0  0
    0.5372    2.5892   -2.9598 H   0  0  0  0  0  0  0  0  0  0  0  0
    2.1108   -0.4617   -2.7319 C   0  0  0  0  0  0  0  0  0  0  0  0
    1.8069   -1.5121   -2.7577 H   0  0  0  0  0  0  0  0  0  0  0  0
    2.6938   -0.2696   -3.6382 H   0  0  0  0  0  0  0  0  0  0  0  0
    2.7588   -0.2979   -1.8642 H   0  0  0  0  0  0  0  0  0  0  0  0
    0.5656   -0.4691    0.9963 C   0  0  0  0  0  0  0  0  0  0  0  0
    1.7484   -0.4801    1.3116 O   0  0  0  0  0  0  0  0  0  0  0  0
   -0.3524    0.1135    1.8521 N   0  0  0  0  0  0  0  0  0  0  0  0
   -1.3278    0.0219    1.5889 H   0  0  0  0  0  0  0  0  0  0  0  0
   -0.0276    0.4855    3.2234 C   0  0  0  0  0  0  0  0  0  0  0  0
    0.7925    1.2111    3.2403 H   0  0  0  0  0  0  0  0  0  0  0  0
   -0.8972    0.9386    3.7088 H   0  0  0  0  0  0  0  0  0  0  0  0
    0.2713   -0.3976    3.7978 H   0  0  0  0  0  0  0  0  0  0  0  0
  1  2  1  0  0  0  0
  2  3  1  0  0  0  0
  2  4  1  0  0  0  0
  2  5  1  0  0  0  0
  5  6  2  0  0  0  0
  5  7  1  0  0  0  0
  7  8  1  0  0  0  0
  7  9  1  0  0  0  0
  9 10  1  0  0  0  0
  9 11  1  0  0  0  0
  9 24  1  0  0  0  0
 11 12  1  0  0  0  0
 11 13  1  0  0  0  0
 11 14  1  0  0  0  0
 14 15  1  0  0  0  0
 14 16  1  0  0  0  0
 14 20  1  0  0  0  0
 16 17  1  0  0  0  0
 16 18  1  0  0  0  0
 16 19  1  0  0  0  0
 20 21  1  0  0  0  0
 20 22  1  0  0  0  0
 20 23  1  0  0  0  0
 24 25  2  0  0  0  0
 24 26  1  0  0  0  0
 26 27  1  0  0  0  0
 26 28  1  0  0  0  0
 28 29  1  0  0  0  0
 28 30  1  0  0  0  0
 28 31  1  0  0  0  0
M  END
$$$$

  -OEChem-04042216013D

 31 30  0     1  0  0  0  0  0999 V2000
   -2.8918   -4.2933    0.2352 H   0  0  0  0  0  0  0  0  0  0  0  0
   -2.8122   -3.3343   -0.2847 C   0  0  0  0  0  0  0  0  0  0  0  0
   -3.6369   -2.6923    0.0337 H   0  0  0  0  0  0  0  0  0  0  0  0
   -2.8892   -3.5113   -1.3601 H   0  0  0  0  0  0  0  0  0  0  0  0
   -1.4851   -2.6744    0.0393 C   0  0  0  0  0  0  0  0  0  0  0  0
   -0.7231   -3.2046    0.8270 O   0  0  0  0  0  0  0  0  0  0  0  0
   -1.1555   -1.4738   -0.5596 N   0  0  0  0  0  0  0  0  0  0  0  0
   -1.7852   -1.1453   -1.2853 H   0  0  0  0  0  0  0  0  0  0  0  0
    0.1638   -0.8219   -0.4444 C   0  0  1  0  0  0  0  0  0  0  0  0
    0.9229   -1.5282   -0.7835 H   0  0  0  0  0  0  0  0  0  0  0  0
    0.1399    0.4739   -1.3050 C   0  0  0  0  0  0  0  0  0  0  0  0
   -0.8969    0.7763   -1.4844 H   0  0  0  0  0  0  0  0  0  0  0  0
    0.5775    1.2725   -0.6947 H   0  0  0  0  0  0  0  0  0  0  0  0
    0.8916    0.4716   -2.6704 C   0  0  0  0  0  0  0  0  0  0  0  0
    0.1371    0.4466   -3.4636 H   0  0  0  0  0  0  0  0  0  0  0  0
    1.7015    1.7686   -2.8118 C   0  0  0  0  0  0  0  0  0  0  0  0
    2.4921    1.8154   -2.0553 H   0  0  0  0  0  0  0  0  0  0  0  0
    2.1653    1.8264   -3.8015 H   0  0  0  0  0  0  0  0  0  0  0  0
    1.0500    2.6397   -2.6898 H   0  0  0  0  0  0  0  0  0  0  0  0
    1.8492   -0.7039   -2.9201 C   0  0  0  0  0  0  0  0  0  0  0  0
    1.2989   -1.6489   -2.9597 H   0  0  0  0  0  0  0  0  0  0  0  0
    2.3623   -0.5798   -3.8790 H   0  0  0  0  0  0  0  0  0  0  0  0
    2.6073   -0.7624   -2.1320 H   0  0  0  0  0  0  0  0  0  0  0  0
    0.5643   -0.4736    1.0087 C   0  0  0  0  0  0  0  0  0  0  0  0
    1.7451   -0.4868    1.3315 O   0  0  0  0  0  0  0  0  0  0  0  0
   -0.3578    0.1131    1.8572 N   0  0  0  0  0  0  0  0  0  0  0  0
   -1.3316    0.0239    1.5877 H   0  0  0  0  0  0  0  0  0  0  0  0
   -0.0414    0.4882    3.2292 C   0  0  0  0  0  0  0  0  0  0  0  0
    0.7792    1.2132    3.2493 H   0  0  0  0  0  0  0  0  0  0  0  0
   -0.9136    0.9435    3.7076 H   0  0  0  0  0  0  0  0  0  0  0  0
    0.2526   -0.3939    3.8078 H   0  0  0  0  0  0  0  0  0  0  0  0
  1  2  1  0  0  0  0
  2  3  1  0  0  0  0
  2  4  1  0  0  0  0
  2  5  1  0  0  0  0
  5  6  2  0  0  0  0
  5  7  1  0  0  0  0
  7  8  1  0  0  0  0
  7  9  1  0  0  0  0
  9 10  1  0  0  0  0
  9 11  1  0  0  0  0
  9 24  1  0  0  0  0
 11 12  1  0  0  0  0
 11 13  1  0  0  0  0
 11 14  1  0  0  0  0
 14 15  1  0  0  0  0
 14 16  1  0  0  0  0
 14 20  1  0  0  0  0
 16 17  1  0  0  0  0
 16 18  1  0  0  0  0
 16 19  1  0  0  0  0
 20 21  1  0  0  0  0
 20 22  1  0  0  0  0
 20 23  1  0  0  0  0
 24 25  2  0  0  0  0
 24 26  1  0  0  0  0
 26 27  1  0  0  0  0
 26 28  1  0  0  0  0
 28 29  1  0  0  0  0
 28 30  1  0  0  0  0
 28 31  1  0  0  0  0
M  END
$$$$

  -OEChem-04042216013D

 31 30  0     1  0  0  0  0  0999 V2000
   -2.8794   -4.3010    0.2334 H   0  0  0  0  0  0  0  0  0  0  0  0
   -2.8019   -3.3411   -0.2853 C   0  0  0  0  0  0  0  0  0  0  0  0
   -3.6295   -2.7023    0.0317 H   0  0  0  0  0  0  0  0  0  0  0  0
   -2.8760   -3.5169   -1.3611 H   0  0  0  0  0  0  0  0  0  0  0  0
   -1.4780   -2.6767    0.0427 C   0  0  0  0  0  0  0  0  0  0  0  0
   -0.7155   -3.2050    0.8311 O   0  0  0  0  0  0  0  0  0  0  0  0
   -1.1511   -1.4747   -0.5548 N   0  0  0  0  0  0  0  0  0  0  0  0
   -1.7803   -1.1485   -1.2819 H   0  0  0  0  0  0  0  0  0  0  0  0
    0.1667   -0.8193   -0.4393 C   0  0  1  0  0  0  0  0  0  0  0  0
    0.9322   -1.5188   -0.7790 H   0  0  0  0  0  0  0  0  0  0  0  0
    0.1453    0.4796   -1.2941 C   0  0  0  0  0  0  0  0  0  0  0  0
   -0.8950    0.7616   -1.4862 H   0  0  0  0  0  0  0  0  0  0  0  0
    0.5587    1.2916   -0.6849 H   0  0  0  0  0  0  0  0  0  0  0  0
    0.9009    0.4740   -2.6573 C   0  0  0  0  0  0  0  0  0  0  0  0
    0.1704    0.7520   -3.4247 H   0  0  0  0  0  0  0  0  0  0  0  0
    1.9964    1.5486   -2.6589 C   0  0  0  0  0  0  0  0  0  0  0  0
    2.7499    1.3295   -1.8950 H   0  0  0  0  0  0  0  0  0  0  0  0
    2.4920    1.5896   -3.6339 H   0  0  0  0  0  0  0  0  0  0  0  0
    1.5672    2.5345   -2.4536 H   0  0  0  0  0  0  0  0  0  0  0  0
    1.5155   -0.8623   -3.1006 C   0  0  0  0  0  0  0  0  0  0  0  0
    0.7589   -1.6529   -3.1057 H   0  0  0  0  0  0  0  0  0  0  0  0
    1.9167   -0.7736   -4.1151 H   0  0  0  0  0  0  0  0  0  0  0  0
    2.3361   -1.1553   -2.4378 H   0  0  0  0  0  0  0  0  0  0  0  0
    0.5649   -0.4719    1.0147 C   0  0  0  0  0  0  0  0  0  0  0  0
    1.7456   -0.4802    1.3384 O   0  0  0  0  0  0  0  0  0  0  0  0
   -0.3599    0.1111    1.8629 N   0  0  0  0  0  0  0  0  0  0  0  0
   -1.3332    0.0198    1.5923 H   0  0  0  0  0  0  0  0  0  0  0  0
   -0.0456    0.4908    3.2343 C   0  0  0  0  0  0  0  0  0  0  0  0
    0.7724    1.2186    3.2531 H   0  0  0  0  0  0  0  0  0  0  0  0
   -0.9197    0.9445    3.7109 H   0  0  0  0  0  0  0  0  0  0  0  0
    0.2516   -0.3883    3.8156 H   0  0  0  0  0  0  0  0  0  0  0  0
  1  2  1  0  0  0  0
  2  3  1  0  0  0  0
  2  4  1  0  0  0  0
  2  5  1  0  0  0  0
  5  6  2  0  0  0  0
  5  7  1  0  0  0  0
  7  8  1  0  0  0  0
  7  9  1  0  0  0  0
  9 10  1  0  0  0  0
  9 11  1  0  0  0  0
  9 24  1  0  0  0  0
 11 12  1  0  0  0  0
 11 13  1  0  0  0  0
 11 14  1  0  0  0  0
 14 15  1  0  0  0  0
 14 16  1  0  0  0  0
 14 20  1  0  0  0  0
 16 17  1  0  0  0  0
 16 18  1  0  0  0  0
 16 19  1  0  0  0  0
 20 21  1  0  0  0  0
 20 22  1  0  0  0  0
 20 23  1  0  0  0  0
 24 25  2  0  0  0  0
 24 26  1  0  0  0  0
 26 27  1  0  0  0  0
 26 28  1  0  0  0  0
 28 29  1  0  0  0  0
 28 30  1  0  0  0  0
 28 31  1  0  0  0  0
M  END
$$$$

  -OEChem-04042216013D

 31 30  0     1  0  0  0  0  0999 V2000
   -2.8559   -4.3078    0.2330 H   0  0  0  0  0  0  0  0  0  0  0  0
   -2.7883   -3.3455   -0.2827 C   0  0  0  0  0  0  0  0  0  0  0  0
   -3.6162   -2.7122    0.0448 H   0  0  0  0  0  0  0  0  0  0  0  0
   -2.8720   -3.5182   -1.3584 H   0  0  0  0  0  0  0  0  0  0  0  0
   -1.4647   -2.6754    0.0350 C   0  0  0  0  0  0  0  0  0  0  0  0
   -0.6927   -3.2029    0.8146 O   0  0  0  0  0  0  0  0  0  0  0  0
   -1.1497   -1.4688   -0.5595 N   0  0  0  0  0  0  0  0  0  0  0  0
   -1.7870   -1.1413   -1.2790 H   0  0  0  0  0  0  0  0  0  0  0  0
    0.1641   -0.8045   -0.4468 C   0  0  1  0  0  0  0  0  0  0  0  0
    0.9367   -1.4926   -0.7962 H   0  0  0  0  0  0  0  0  0  0  0  0
    0.1425    0.4953   -1.2954 C   0  0  0  0  0  0  0  0  0  0  0  0
   -0.8995    0.7594   -1.5031 H   0  0  0  0  0  0  0  0  0  0  0  0
    0.5408    1.3208   -0.6943 H   0  0  0  0  0  0  0  0  0  0  0  0
    0.9057    0.4661   -2.6490 C   0  0  0  0  0  0  0  0  0  0  0  0
    0.2820    1.0117   -3.3654 H   0  0  0  0  0  0  0  0  0  0  0  0
    2.2236    1.2416   -2.5369 C   0  0  0  0  0  0  0  0  0  0  0  0
    2.8797    0.7747   -1.7947 H   0  0  0  0  0  0  0  0  0  0  0  0
    2.7423    1.2554   -3.5005 H   0  0  0  0  0  0  0  0  0  0  0  0
    2.0371    2.2770   -2.2350 H   0  0  0  0  0  0  0  0  0  0  0  0
    1.1551   -0.9215   -3.2595 C   0  0  0  0  0  0  0  0  0  0  0  0
    0.2366   -1.5163   -3.2534 H   0  0  0  0  0  0  0  0  0  0  0  0
    1.4867   -0.8173   -4.2973 H   0  0  0  0  0  0  0  0  0  0  0  0
    1.9344   -1.4617   -2.7132 H   0  0  0  0  0  0  0  0  0  0  0  0
    0.5659   -0.4602    1.0067 C   0  0  0  0  0  0  0  0  0  0  0  0
    1.7479   -0.4611    1.3254 O   0  0  0  0  0  0  0  0  0  0  0  0
   -0.3591    0.1129    1.8615 N   0  0  0  0  0  0  0  0  0  0  0  0
   -1.3328    0.0152    1.5946 H   0  0  0  0  0  0  0  0  0  0  0  0
   -0.0424    0.4826    3.2351 C   0  0  0  0  0  0  0  0  0  0  0  0
    0.7715    1.2149    3.2577 H   0  0  0  0  0  0  0  0  0  0  0  0
   -0.9178    0.9267    3.7183 H   0  0  0  0  0  0  0  0  0  0  0  0
    0.2612   -0.4001    3.8076 H   0  0  0  0  0  0  0  0  0  0  0  0
  1  2  1  0  0  0  0
  2  3  1  0  0  0  0
  2  4  1  0  0  0  0
  2  5  1  0  0  0  0
  5  6  2  0  0  0  0
  5  7  1  0  0  0  0
  7  8  1  0  0  0  0
  7  9  1  0  0  0  0
  9 10  1  0  0  0  0
  9 11  1  0  0  0  0
  9 24  1  0  0  0  0
 11 12  1  0  0  0  0
 11 13  1  0  0  0  0
 11 14  1  0  0  0  0
 14 15  1  0  0  0  0
 14 16  1  0  0  0  0
 14 20  1  0  0  0  0
 16 17  1  0  0  0  0
 16 18  1  0  0  0  0
 16 19  1  0  0  0  0
 20 21  1  0  0  0  0
 20 22  1  0  0  0  0
 20 23  1  0  0  0  0
 24 25  2  0  0  0  0
 24 26  1  0  0  0  0
 26 27  1  0  0  0  0
 26 28  1  0  0  0  0
 28 29  1  0  0  0  0
 28 30  1  0  0  0  0
 28 31  1  0  0  0  0
M  END
$$$$

  -OEChem-04042216013D

 31 30  0     1  0  0  0  0  0999 V2000
   -2.8355   -4.3153    0.2132 H   0  0  0  0  0  0  0  0  0  0  0  0
   -2.7767   -3.3491   -0.2962 C   0  0  0  0  0  0  0  0  0  0  0  0
   -3.6069   -2.7232    0.0394 H   0  0  0  0  0  0  0  0  0  0  0  0
   -2.8638   -3.5144   -1.3728 H   0  0  0  0  0  0  0  0  0  0  0  0
   -1.4562   -2.6727    0.0205 C   0  0  0  0  0  0  0  0  0  0  0  0
   -0.6753   -3.2013    0.7905 O   0  0  0  0  0  0  0  0  0  0  0  0
   -1.1528   -1.4600   -0.5672 N   0  0  0  0  0  0  0  0  0  0  0  0
   -1.7964   -1.1316   -1.2805 H   0  0  0  0  0  0  0  0  0  0  0  0
    0.1580   -0.7893   -0.4592 C   0  0  1  0  0  0  0  0  0  0  0  0
    0.9337   -1.4664   -0.8260 H   0  0  0  0  0  0  0  0  0  0  0  0
    0.1296    0.5128   -1.2996 C   0  0  0  0  0  0  0  0  0  0  0  0
   -0.9119    0.7758   -1.5105 H   0  0  0  0  0  0  0  0  0  0  0  0
    0.5346    1.3419   -0.7082 H   0  0  0  0  0  0  0  0  0  0  0  0
    0.8949    0.4563   -2.6443 C   0  0  0  0  0  0  0  0  0  0  0  0
    0.4340    1.2087   -3.2935 H   0  0  0  0  0  0  0  0  0  0  0  0
    2.3544    0.8823   -2.4498 C   0  0  0  0  0  0  0  0  0  0  0  0
    2.8666    0.1958   -1.7677 H   0  0  0  0  0  0  0  0  0  0  0  0
    2.8834    0.8800   -3.4078 H   0  0  0  0  0  0  0  0  0  0  0  0
    2.4091    1.8922   -2.0314 H   0  0  0  0  0  0  0  0  0  0  0  0
    0.8035   -0.8844   -3.3897 C   0  0  0  0  0  0  0  0  0  0  0  0
   -0.2318   -1.2373   -3.4177 H   0  0  0  0  0  0  0  0  0  0  0  0
    1.1504   -0.7601   -4.4202 H   0  0  0  0  0  0  0  0  0  0  0  0
    1.4260   -1.6502   -2.9181 H   0  0  0  0  0  0  0  0  0  0  0  0
    0.5711   -0.4527    0.9922 C   0  0  0  0  0  0  0  0  0  0  0  0
    1.7560   -0.4503    1.3003 O   0  0  0  0  0  0  0  0  0  0  0  0
   -0.3495    0.1096    1.8586 N   0  0  0  0  0  0  0  0  0  0  0  0
   -1.3251    0.0100    1.5989 H   0  0  0  0  0  0  0  0  0  0  0  0
   -0.0215    0.4775    3.2300 C   0  0  0  0  0  0  0  0  0  0  0  0
    0.7888    1.2137    3.2462 H   0  0  0  0  0  0  0  0  0  0  0  0
   -0.8939    0.9161    3.7233 H   0  0  0  0  0  0  0  0  0  0  0  0
    0.2925   -0.4051    3.7970 H   0  0  0  0  0  0  0  0  0  0  0  0
  1  2  1  0  0  0  0
  2  3  1  0  0  0  0
  2  4  1  0  0  0  0
  2  5  1  0  0  0  0
  5  6  2  0  0  0  0
  5  7  1  0  0  0  0
  7  8  1  0  0  0  0
  7  9  1  0  0  0  0
  9 10  1  0  0  0  0
  9 11  1  0  0  0  0
  9 24  1  0  0  0  0
 11 12  1  0  0  0  0
 11 13  1  0  0  0  0
 11 14  1  0  0  0  0
 14 15  1  0  0  0  0
 14 16  1  0  0  0  0
 14 20  1  0  0  0  0
 16 17  1  0  0  0  0
 16 18  1  0  0  0  0
 16 19  1  0  0  0  0
 20 21  1  0  0  0  0
 20 22  1  0  0  0  0
 20 23  1  0  0  0  0
 24 25  2  0  0  0  0
 24 26  1  0  0  0  0
 26 27  1  0  0  0  0
 26 28  1  0  0  0  0
 28 29  1  0  0  0  0
 28 30  1  0  0  0  0
 28 31  1  0  0  0  0
M  END
$$$$

  -OEChem-04042216013D

 31 30  0     1  0  0  0  0  0999 V2000
   -2.8260   -4.3170    0.1908 H   0  0  0  0  0  0  0  0  0  0  0  0
   -2.7740   -3.3472   -0.3124 C   0  0  0  0  0  0  0  0  0  0  0  0
   -3.6055   -2.7274    0.0316 H   0  0  0  0  0  0  0  0  0  0  0  0
   -2.8665   -3.5059   -1.3895 H   0  0  0  0  0  0  0  0  0  0  0  0
   -1.4546   -2.6675    0.0020 C   0  0  0  0  0  0  0  0  0  0  0  0
   -0.6683   -3.1980    0.7651 O   0  0  0  0  0  0  0  0  0  0  0  0
   -1.1591   -1.4484   -0.5764 N   0  0  0  0  0  0  0  0  0  0  0  0
   -1.8057   -1.1184   -1.2862 H   0  0  0  0  0  0  0  0  0  0  0  0
    0.1501   -0.7746   -0.4706 C   0  0  1  0  0  0  0  0  0  0  0  0
    0.9207   -1.4490   -0.8555 H   0  0  0  0  0  0  0  0  0  0  0  0
    0.1121    0.5284   -1.3077 C   0  0  0  0  0  0  0  0  0  0  0  0
   -0.9282    0.8012   -1.5116 H   0  0  0  0  0  0  0  0  0  0  0  0
    0.5354    1.3534   -0.7234 H   0  0  0  0  0  0  0  0  0  0  0  0
    0.8768    0.4554   -2.6473 C   0  0  0  0  0  0  0  0  0  0  0  0
    0.6032    1.3489   -3.2189 H   0  0  0  0  0  0  0  0  0  0  0  0
    2.3924    0.5144   -2.4180 C   0  0  0  0  0  0  0  0  0  0  0  0
    2.7378   -0.3554   -1.8506 H   0  0  0  0  0  0  0  0  0  0  0  0
    2.9204    0.5329   -3.3763 H   0  0  0  0  0  0  0  0  0  0  0  0
    2.6607    1.4178   -1.8614 H   0  0  0  0  0  0  0  0  0  0  0  0
    0.4958   -0.7649   -3.4988 C   0  0  0  0  0  0  0  0  0  0  0  0
   -0.5910   -0.8277   -3.6090 H   0  0  0  0  0  0  0  0  0  0  0  0
    0.9368   -0.6761   -4.4966 H   0  0  0  0  0  0  0  0  0  0  0  0
    0.8565   -1.6960   -3.0525 H   0  0  0  0  0  0  0  0  0  0  0  0
    0.5772   -0.4475    0.9788 C   0  0  0  0  0  0  0  0  0  0  0  0
    1.7652   -0.4436    1.2743 O   0  0  0  0  0  0  0  0  0  0  0  0
   -0.3363    0.1057    1.8584 N   0  0  0  0  0  0  0  0  0  0  0  0
   -1.3140    0.0025    1.6085 H   0  0  0  0  0  0  0  0  0  0  0  0
    0.0036    0.4622    3.2299 C   0  0  0  0  0  0  0  0  0  0  0  0
    0.8128    1.1999    3.2453 H   0  0  0  0  0  0  0  0  0  0  0  0
   -0.8653    0.8950    3.7347 H   0  0  0  0  0  0  0  0  0  0  0  0
    0.3241   -0.4247    3.7866 H   0  0  0  0  0  0  0  0  0  0  0  0
  1  2  1  0  0  0  0
  2  3  1  0  0  0  0
  2  4  1  0  0  0  0
  2  5  1  0  0  0  0
  5  6  2  0  0  0  0
  5  7  1  0  0  0  0
  7  8  1  0  0  0  0
  7  9  1  0  0  0  0
  9 10  1  0  0  0  0
  9 11  1  0  0  0  0
  9 24  1  0  0  0  0
 11 12  1  0  0  0  0
 11 13  1  0  0  0  0
 11 14  1  0  0  0  0
 14 15  1  0  0  0  0
 14 16  1  0  0  0  0
 14 20  1  0  0  0  0
 16 17  1  0  0  0  0
 16 18  1  0  0  0  0
 16 19  1  0  0  0  0
 20 21  1  0  0  0  0
 20 22  1  0  0  0  0
 20 23  1  0  0  0  0
 24 25  2  0  0  0  0
 24 26  1  0  0  0  0
 26 27  1  0  0  0  0
 26 28  1  0  0  0  0
 28 29  1  0  0  0  0
 28 30  1  0  0  0  0
 28 31  1  0  0  0  0
M  END
$$$$

  -OEChem-04042216013D

 31 30  0     1  0  0  0  0  0999 V2000
   -2.8379   -4.3168    0.1711 H   0  0  0  0  0  0  0  0  0  0  0  0
   -2.7835   -3.3453   -0.3286 C   0  0  0  0  0  0  0  0  0  0  0  0
   -3.6174   -2.7272    0.0121 H   0  0  0  0  0  0  0  0  0  0  0  0
   -2.8688   -3.5009   -1.4067 H   0  0  0  0  0  0  0  0  0  0  0  0
   -1.4667   -2.6653   -0.0039 C   0  0  0  0  0  0  0  0  0  0  0  0
   -0.6844   -3.1977    0.7620 O   0  0  0  0  0  0  0  0  0  0  0  0
   -1.1685   -1.4444   -0.5771 N   0  0  0  0  0  0  0  0  0  0  0  0
   -1.8107   -1.1135   -1.2906 H   0  0  0  0  0  0  0  0  0  0  0  0
    0.1425   -0.7751   -0.4673 C   0  0  1  0  0  0  0  0  0  0  0  0
    0.8987   -1.4607   -0.8580 H   0  0  0  0  0  0  0  0  0  0  0  0
    0.1037    0.5260   -1.3091 C   0  0  0  0  0  0  0  0  0  0  0  0
   -0.9345    0.8162   -1.4998 H   0  0  0  0  0  0  0  0  0  0  0  0
    0.5471    1.3408   -0.7252 H   0  0  0  0  0  0  0  0  0  0  0  0
    0.8673    0.4636   -2.6500 C   0  0  0  0  0  0  0  0  0  0  0  0
    0.7821    1.4493   -3.1200 H   0  0  0  0  0  0  0  0  0  0  0  0
    2.3629    0.1642   -2.4625 C   0  0  0  0  0  0  0  0  0  0  0  0
    2.5344   -0.8655   -2.1373 H   0  0  0  0  0  0  0  0  0  0  0  0
    2.8953    0.3122   -3.4070 H   0  0  0  0  0  0  0  0  0  0  0  0
    2.7952    0.8393   -1.7171 H   0  0  0  0  0  0  0  0  0  0  0  0
    0.2429   -0.5695   -3.5968 C   0  0  0  0  0  0  0  0  0  0  0  0
   -0.8190   -0.3537   -3.7490 H   0  0  0  0  0  0  0  0  0  0  0  0
    0.7418   -0.5388   -4.5706 H   0  0  0  0  0  0  0  0  0  0  0  0
    0.3391   -1.5825   -3.1940 H   0  0  0  0  0  0  0  0  0  0  0  0
    0.5760   -0.4526    0.9810 C   0  0  0  0  0  0  0  0  0  0  0  0
    1.7654   -0.4530    1.2711 O   0  0  0  0  0  0  0  0  0  0  0  0
   -0.3317    0.1016    1.8659 N   0  0  0  0  0  0  0  0  0  0  0  0
   -1.3112    0.0017    1.6214 H   0  0  0  0  0  0  0  0  0  0  0  0
    0.0172    0.4588    3.2351 C   0  0  0  0  0  0  0  0  0  0  0  0
    0.8282    1.1946    3.2450 H   0  0  0  0  0  0  0  0  0  0  0  0
   -0.8476    0.8942    3.7445 H   0  0  0  0  0  0  0  0  0  0  0  0
    0.3394   -0.4278    3.7911 H   0  0  0  0  0  0  0  0  0  0  0  0
  1  2  1  0  0  0  0
  2  3  1  0  0  0  0
  2  4  1  0  0  0  0
  2  5  1  0  0  0  0
  5  6  2  0  0  0  0
  5  7  1  0  0  0  0
  7  8  1  0  0  0  0
  7  9  1  0  0  0  0
  9 10  1  0  0  0  0
  9 11  1  0  0  0  0
  9 24  1  0  0  0  0
 11 12  1  0  0  0  0
 11 13  1  0  0  0  0
 11 14  1  0  0  0  0
 14 15  1  0  0  0  0
 14 16  1  0  0  0  0
 14 20  1  0  0  0  0
 16 17  1  0  0  0  0
 16 18  1  0  0  0  0
 16 19  1  0  0  0  0
 20 21  1  0  0  0  0
 20 22  1  0  0  0  0
 20 23  1  0  0  0  0
 24 25  2  0  0  0  0
 24 26  1  0  0  0  0
 26 27  1  0  0  0  0
 26 28  1  0  0  0  0
 28 29  1  0  0  0  0
 28 30  1  0  0  0  0
 28 31  1  0  0  0  0
M  END
$$$$

  -OEChem-04042216013D

 31 30  0     1  0  0  0  0  0999 V2000
   -2.8582   -4.3057    0.1947 H   0  0  0  0  0  0  0  0  0  0  0  0
   -2.7962   -3.3367   -0.3090 C   0  0  0  0  0  0  0  0  0  0  0  0
   -3.6226   -2.7091    0.0332 H   0  0  0  0  0  0  0  0  0  0  0  0
   -2.8880   -3.4954   -1.3862 H   0  0  0  0  0  0  0  0  0  0  0  0
   -1.4712   -2.6692    0.0081 C   0  0  0  0  0  0  0  0  0  0  0  0
   -0.6934   -3.2049    0.7763 O   0  0  0  0  0  0  0  0  0  0  0  0
   -1.1621   -1.4538   -0.5712 N   0  0  0  0  0  0  0  0  0  0  0  0
   -1.8029   -1.1183   -1.2839 H   0  0  0  0  0  0  0  0  0  0  0  0
    0.1512   -0.7898   -0.4589 C   0  0  1  0  0  0  0  0  0  0  0  0
    0.9054   -1.4833   -0.8359 H   0  0  0  0  0  0  0  0  0  0  0  0
    0.1123    0.5086   -1.3075 C   0  0  0  0  0  0  0  0  0  0  0  0
   -0.9242    0.8180   -1.4771 H   0  0  0  0  0  0  0  0  0  0  0  0
    0.5752    1.3114   -0.7226 H   0  0  0  0  0  0  0  0  0  0  0  0
    0.8691    0.4706   -2.6565 C   0  0  0  0  0  0  0  0  0  0  0  0
    0.9827    1.5053   -2.9978 H   0  0  0  0  0  0  0  0  0  0  0  0
    2.2697   -0.1584   -2.5761 C   0  0  0  0  0  0  0  0  0  0  0  0
    2.2235   -1.2489   -2.5041 H   0  0  0  0  0  0  0  0  0  0  0  0
    2.8412    0.0922   -3.4750 H   0  0  0  0  0  0  0  0  0  0  0  0
    2.8118    0.2286   -1.7073 H   0  0  0  0  0  0  0  0  0  0  0  0
    0.0434   -0.2926   -3.6994 C   0  0  0  0  0  0  0  0  0  0  0  0
   -0.9393    0.1723   -3.8247 H   0  0  0  0  0  0  0  0  0  0  0  0
    0.5526   -0.2813   -4.6684 H   0  0  0  0  0  0  0  0  0  0  0  0
   -0.0992   -1.3345   -3.3954 H   0  0  0  0  0  0  0  0  0  0  0  0
    0.5743   -0.4613    0.9913 C   0  0  0  0  0  0  0  0  0  0  0  0
    1.7608   -0.4682    1.2925 O   0  0  0  0  0  0  0  0  0  0  0  0
   -0.3389    0.1017    1.8649 N   0  0  0  0  0  0  0  0  0  0  0  0
   -1.3161    0.0056    1.6101 H   0  0  0  0  0  0  0  0  0  0  0  0
   -0.0039    0.4510    3.2393 C   0  0  0  0  0  0  0  0  0  0  0  0
    0.8118    1.1813    3.2617 H   0  0  0  0  0  0  0  0  0  0  0  0
   -0.8718    0.8899    3.7403 H   0  0  0  0  0  0  0  0  0  0  0  0
    0.3053   -0.4405    3.7950 H   0  0  0  0  0  0  0  0  0  0  0  0
  1  2  1  0  0  0  0
  2  3  1  0  0  0  0
  2  4  1  0  0  0  0
  2  5  1  0  0  0  0
  5  6  2  0  0  0  0
  5  7  1  0  0  0  0
  7  8  1  0  0  0  0
  7  9  1  0  0  0  0
  9 10  1  0  0  0  0
  9 11  1  0  0  0  0
  9 24  1  0  0  0  0
 11 12  1  0  0  0  0
 11 13  1  0  0  0  0
 11 14  1  0  0  0  0
 14 15  1  0  0  0  0
 14 16  1  0  0  0  0
 14 20  1  0  0  0  0
 16 17  1  0  0  0  0
 16 18  1  0  0  0  0
 16 19  1  0  0  0  0
 20 21  1  0  0  0  0
 20 22  1  0  0  0  0
 20 23  1  0  0  0  0
 24 25  2  0  0  0  0
 24 26  1  0  0  0  0
 26 27  1  0  0  0  0
 26 28  1  0  0  0  0
 28 29  1  0  0  0  0
 28 30  1  0  0  0  0
 28 31  1  0  0  0  0
M  END
$$$$

  -OEChem-04042216013D

 31 30  0     1  0  0  0  0  0999 V2000
   -2.8808   -4.3027    0.2083 H   0  0  0  0  0  0  0  0  0  0  0  0
   -2.8072   -3.3373   -0.3009 C   0  0  0  0  0  0  0  0  0  0  0  0
   -3.6331   -2.7022    0.0284 H   0  0  0  0  0  0  0  0  0  0  0  0
   -2.8884   -3.5024   -1.3780 H   0  0  0  0  0  0  0  0  0  0  0  0
   -1.4812   -2.6758    0.0253 C   0  0  0  0  0  0  0  0  0  0  0  0
   -0.7144   -3.2111    0.8049 O   0  0  0  0  0  0  0  0  0  0  0  0
   -1.1578   -1.4678   -0.5617 N   0  0  0  0  0  0  0  0  0  0  0  0
   -1.7895   -1.1348   -1.2835 H   0  0  0  0  0  0  0  0  0  0  0  0
    0.1602   -0.8140   -0.4465 C   0  0  1  0  0  0  0  0  0  0  0  0
    0.9146   -1.5155   -0.8060 H   0  0  0  0  0  0  0  0  0  0  0  0
    0.1248    0.4847   -1.2980 C   0  0  0  0  0  0  0  0  0  0  0  0
   -0.9100    0.8117   -1.4432 H   0  0  0  0  0  0  0  0  0  0  0  0
    0.6049    1.2750   -0.7097 H   0  0  0  0  0  0  0  0  0  0  0  0
    0.8729    0.4731   -2.6579 C   0  0  0  0  0  0  0  0  0  0  0  0
    1.2017    1.4979   -2.8625 H   0  0  0  0  0  0  0  0  0  0  0  0
    2.1049   -0.4428   -2.7292 C   0  0  0  0  0  0  0  0  0  0  0  0
    1.8200   -1.4988   -2.7658 H   0  0  0  0  0  0  0  0  0  0  0  0
    2.6828   -0.2212   -3.6318 H   0  0  0  0  0  0  0  0  0  0  0  0
    2.7523   -0.2787   -1.8614 H   0  0  0  0  0  0  0  0  0  0  0  0
   -0.0977    0.0515   -3.7687 C   0  0  0  0  0  0  0  0  0  0  0  0
   -0.9477    0.7391   -3.8177 H   0  0  0  0  0  0  0  0  0  0  0  0
    0.4064    0.0649   -4.7404 H   0  0  0  0  0  0  0  0  0  0  0  0
   -0.4759   -0.9597   -3.5878 H   0  0  0  0  0  0  0  0  0  0  0  0
    0.5720   -0.4791    1.0059 C   0  0  0  0  0  0  0  0  0  0  0  0
    1.7554   -0.4928    1.3191 O   0  0  0  0  0  0  0  0  0  0  0  0
   -0.3453    0.0971    1.8666 N   0  0  0  0  0  0  0  0  0  0  0  0
   -1.3208    0.0072    1.6030 H   0  0  0  0  0  0  0  0  0  0  0  0
   -0.0206    0.4580    3.2405 C   0  0  0  0  0  0  0  0  0  0  0  0
    0.7981    1.1849    3.2633 H   0  0  0  0  0  0  0  0  0  0  0  0
   -0.8910    0.9056    3.7294 H   0  0  0  0  0  0  0  0  0  0  0  0
    0.2798   -0.4292    3.8079 H   0  0  0  0  0  0  0  0  0  0  0  0
  1  2  1  0  0  0  0
  2  3  1  0  0  0  0
  2  4  1  0  0  0  0
  2  5  1  0  0  0  0
  5  6  2  0  0  0  0
  5  7  1  0  0  0  0
  7  8  1  0  0  0  0
  7  9  1  0  0  0  0
  9 10  1  0  0  0  0
  9 11  1  0  0  0  0
  9 24  1  0  0  0  0
 11 12  1  0  0  0  0
 11 13  1  0  0  0  0
 11 14  1  0  0  0  0
 14 15  1  0  0  0  0
 14 16  1  0  0  0  0
 14 20  1  0  0  0  0
 16 17  1  0  0  0  0
 16 18  1  0  0  0  0
 16 19  1  0  0  0  0
 20 21  1  0  0  0  0
 20 22  1  0  0  0  0
 20 23  1  0  0  0  0
 24 25  2  0  0  0  0
 24 26  1  0  0  0  0
 26 27  1  0  0  0  0
 26 28  1  0  0  0  0
 28 29  1  0  0  0  0
 28 30  1  0  0  0  0
 28 31  1  0  0  0  0
M  END
$$$$

  -OEChem-04042216013D

 31 30  0     1  0  0  0  0  0999 V2000
   -2.8922   -4.3084    0.2283 H   0  0  0  0  0  0  0  0  0  0  0  0
   -2.8173   -3.3426   -0.2798 C   0  0  0  0  0  0  0  0  0  0  0  0
   -3.6387   -2.7046    0.0547 H   0  0  0  0  0  0  0  0  0  0  0  0
   -2.9046   -3.5052   -1.3567 H   0  0  0  0  0  0  0  0  0  0  0  0
   -1.4874   -2.6865    0.0406 C   0  0  0  0  0  0  0  0  0  0  0  0
   -0.7247   -3.2191    0.8260 O   0  0  0  0  0  0  0  0  0  0  0  0
   -1.1578   -1.4846   -0.5554 N   0  0  0  0  0  0  0  0  0  0  0  0
   -1.7866   -1.1551   -1.2814 H   0  0  0  0  0  0  0  0  0  0  0  0
    0.1621   -0.8344   -0.4417 C   0  0  1  0  0  0  0  0  0  0  0  0
    0.9193   -1.5394   -0.7879 H   0  0  0  0  0  0  0  0  0  0  0  0
    0.1332    0.4641   -1.2963 C   0  0  0  0  0  0  0  0  0  0  0  0
   -0.9027    0.7922   -1.4306 H   0  0  0  0  0  0  0  0  0  0  0  0
    0.6135    1.2528   -0.7062 H   0  0  0  0  0  0  0  0  0  0  0  0
    0.8776    0.4679   -2.6633 C   0  0  0  0  0  0  0  0  0  0  0  0
    1.4331    1.4100   -2.7340 H   0  0  0  0  0  0  0  0  0  0  0  0
    1.8751   -0.6760   -2.9007 C   0  0  0  0  0  0  0  0  0  0  0  0
    1.3639   -1.6422   -2.9598 H   0  0  0  0  0  0  0  0  0  0  0  0
    2.4116   -0.5182   -3.8416 H   0  0  0  0  0  0  0  0  0  0  0  0
    2.6144   -0.7108   -2.0938 H   0  0  0  0  0  0  0  0  0  0  0  0
   -0.1514    0.4417   -3.8015 C   0  0  0  0  0  0  0  0  0  0  0  0
   -0.8199    1.3058   -3.7340 H   0  0  0  0  0  0  0  0  0  0  0  0
    0.3514    0.4781   -4.7732 H   0  0  0  0  0  0  0  0  0  0  0  0
   -0.7536   -0.4712   -3.7559 H   0  0  0  0  0  0  0  0  0  0  0  0
    0.5653   -0.4912    1.0118 C   0  0  0  0  0  0  0  0  0  0  0  0
    1.7471   -0.5034    1.3311 O   0  0  0  0  0  0  0  0  0  0  0  0
   -0.3552    0.0935    1.8636 N   0  0  0  0  0  0  0  0  0  0  0  0
   -1.3297   -0.0009    1.5980 H   0  0  0  0  0  0  0  0  0  0  0  0
   -0.0357    0.4647    3.2360 C   0  0  0  0  0  0  0  0  0  0  0  0
    0.7886    1.1854    3.2570 H   0  0  0  0  0  0  0  0  0  0  0  0
   -0.9052    0.9237    3.7157 H   0  0  0  0  0  0  0  0  0  0  0  0
    0.2543   -0.4196    3.8130 H   0  0  0  0  0  0  0  0  0  0  0  0
  1  2  1  0  0  0  0
  2  3  1  0  0  0  0
  2  4  1  0  0  0  0
  2  5  1  0  0  0  0
  5  6  2  0  0  0  0
  5  7  1  0  0  0  0
  7  8  1  0  0  0  0
  7  9  1  0  0  0  0
  9 10  1  0  0  0  0
  9 11  1  0  0  0  0
  9 24  1  0  0  0  0
 11 12  1  0  0  0  0
 11 13  1  0  0  0  0
 11 14  1  0  0  0  0
 14 15  1  0  0  0  0
 14 16  1  0  0  0  0
 14 20  1  0  0  0  0
 16 17  1  0  0  0  0
 16 18  1  0  0  0  0
 16 19  1  0  0  0  0
 20 21  1  0  0  0  0
 20 22  1  0  0  0  0
 20 23  1  0  0  0  0
 24 25  2  0  0  0  0
 24 26  1  0  0  0  0
 26 27  1  0  0  0  0
 26 28  1  0  0  0  0
 28 29  1  0  0  0  0
 28 30  1  0  0  0  0
 28 31  1  0  0  0  0
M  END
$$$$

  -OEChem-04042216013D

 31 30  0     1  0  0  0  0  0999 V2000
   -2.9007   -4.3083    0.2480 H   0  0  0  0  0  0  0  0  0  0  0  0
   -2.8212   -3.3494   -0.2722 C   0  0  0  0  0  0  0  0  0  0  0  0
   -3.6456   -2.7071    0.0467 H   0  0  0  0  0  0  0  0  0  0  0  0
   -2.8993   -3.5263   -1.3476 H   0  0  0  0  0  0  0  0  0  0  0  0
   -1.4936   -2.6896    0.0508 C   0  0  0  0  0  0  0  0  0  0  0  0
   -0.7323   -3.2182    0.8402 O   0  0  0  0  0  0  0  0  0  0  0  0
   -1.1625   -1.4908   -0.5509 N   0  0  0  0  0  0  0  0  0  0  0  0
   -1.7882   -1.1678   -1.2825 H   0  0  0  0  0  0  0  0  0  0  0  0
    0.1589   -0.8416   -0.4427 C   0  0  1  0  0  0  0  0  0  0  0  0
    0.9189   -1.5453   -0.7859 H   0  0  0  0  0  0  0  0  0  0  0  0
    0.1304    0.4572   -1.2974 C   0  0  0  0  0  0  0  0  0  0  0  0
   -0.9112    0.7651   -1.4369 H   0  0  0  0  0  0  0  0  0  0  0  0
    0.5942    1.2579   -0.7099 H   0  0  0  0  0  0  0  0  0  0  0  0
    0.8715    0.4583   -2.6683 C   0  0  0  0  0  0  0  0  0  0  0  0
    1.6397    1.2384   -2.6248 H   0  0  0  0  0  0  0  0  0  0  0  0
    1.5802   -0.8443   -3.0693 C   0  0  0  0  0  0  0  0  0  0  0  0
    0.8734   -1.6793   -3.1065 H   0  0  0  0  0  0  0  0  0  0  0  0
    2.0371   -0.7387   -4.0582 H   0  0  0  0  0  0  0  0  0  0  0  0
    2.3792   -1.0810   -2.3596 H   0  0  0  0  0  0  0  0  0  0  0  0
   -0.1138    0.8353   -3.7830 C   0  0  0  0  0  0  0  0  0  0  0  0
   -0.5774    1.8042   -3.5722 H   0  0  0  0  0  0  0  0  0  0  0  0
    0.4050    0.9099   -4.7441 H   0  0  0  0  0  0  0  0  0  0  0  0
   -0.9024    0.0813   -3.8717 H   0  0  0  0  0  0  0  0  0  0  0  0
    0.5634   -0.4935    1.0090 C   0  0  0  0  0  0  0  0  0  0  0  0
    1.7453   -0.5053    1.3282 O   0  0  0  0  0  0  0  0  0  0  0  0
   -0.3563    0.0953    1.8586 N   0  0  0  0  0  0  0  0  0  0  0  0
   -1.3309    0.0027    1.5925 H   0  0  0  0  0  0  0  0  0  0  0  0
   -0.0362    0.4700    3.2298 C   0  0  0  0  0  0  0  0  0  0  0  0
    0.7851    1.1941    3.2475 H   0  0  0  0  0  0  0  0  0  0  0  0
   -0.9068    0.9257    3.7105 H   0  0  0  0  0  0  0  0  0  0  0  0
    0.2590   -0.4123    3.8076 H   0  0  0  0  0  0  0  0  0  0  0  0
  1  2  1  0  0  0  0
  2  3  1  0  0  0  0
  2  4  1  0  0  0  0
  2  5  1  0  0  0  0
  5  6  2  0  0  0  0
  5  7  1  0  0  0  0
  7  8  1  0  0  0  0
  7  9  1  0  0  0  0
  9 10  1  0  0  0  0
  9 11  1  0  0  0  0
  9 24  1  0  0  0  0
 11 12  1  0  0  0  0
 11 13  1  0  0  0  0
 11 14  1  0  0  0  0
 14 15  1  0  0  0  0
 14 16  1  0  0  0  0
 14 20  1  0  0  0  0
 16 17  1  0  0  0  0
 16 18  1  0  0  0  0
 16 19  1  0  0  0  0
 20 21  1  0  0  0  0
 20 22  1  0  0  0  0
 20 23  1  0  0  0  0
 24 25  2  0  0  0  0
 24 26  1  0  0  0  0
 26 27  1  0  0  0  0
 26 28  1  0  0  0  0
 28 29  1  0  0  0  0
 28 30  1  0  0  0  0
 28 31  1  0  0  0  0
M  END
$$$$

  -OEChem-04042216013D

 31 30  0     1  0  0  0  0  0999 V2000
   -2.8865   -4.3171    0.2568 H   0  0  0  0  0  0  0  0  0  0  0  0
   -2.8178   -3.3552   -0.2595 C   0  0  0  0  0  0  0  0  0  0  0  0
   -3.6397   -2.7175    0.0746 H   0  0  0  0  0  0  0  0  0  0  0  0
   -2.9114   -3.5272   -1.3345 H   0  0  0  0  0  0  0  0  0  0  0  0
   -1.4882   -2.6922    0.0470 C   0  0  0  0  0  0  0  0  0  0  0  0
   -0.7130   -3.2220    0.8219 O   0  0  0  0  0  0  0  0  0  0  0  0
   -1.1695   -1.4906   -0.5554 N   0  0  0  0  0  0  0  0  0  0  0  0
   -1.8094   -1.1620   -1.2722 H   0  0  0  0  0  0  0  0  0  0  0  0
    0.1491   -0.8342   -0.4560 C   0  0  1  0  0  0  0  0  0  0  0  0
    0.9144   -1.5291   -0.8058 H   0  0  0  0  0  0  0  0  0  0  0  0
    0.1193    0.4661   -1.3056 C   0  0  0  0  0  0  0  0  0  0  0  0
   -0.9264    0.7514   -1.4603 H   0  0  0  0  0  0  0  0  0  0  0  0
    0.5655    1.2798   -0.7222 H   0  0  0  0  0  0  0  0  0  0  0  0
    0.8597    0.4536   -2.6742 C   0  0  0  0  0  0  0  0  0  0  0  0
    1.7968    1.0060   -2.5420 H   0  0  0  0  0  0  0  0  0  0  0  0
    1.2432   -0.9279   -3.2283 C   0  0  0  0  0  0  0  0  0  0  0  0
    0.3750   -1.5941   -3.2447 H   0  0  0  0  0  0  0  0  0  0  0  0
    1.6244   -0.8355   -4.2501 H   0  0  0  0  0  0  0  0  0  0  0  0
    2.0346   -1.3830   -2.6254 H   0  0  0  0  0  0  0  0  0  0  0  0
    0.0214    1.2009   -3.7191 C   0  0  0  0  0  0  0  0  0  0  0  0
   -0.2180    2.2089   -3.3657 H   0  0  0  0  0  0  0  0  0  0  0  0
    0.5751    1.2923   -4.6590 H   0  0  0  0  0  0  0  0  0  0  0  0
   -0.9140    0.6681   -3.9176 H   0  0  0  0  0  0  0  0  0  0  0  0
    0.5596   -0.4873    0.9943 C   0  0  0  0  0  0  0  0  0  0  0  0
    1.7427   -0.4958    1.3085 O   0  0  0  0  0  0  0  0  0  0  0  0
   -0.3587    0.0943    1.8504 N   0  0  0  0  0  0  0  0  0  0  0  0
   -1.3341   -0.0010    1.5887 H   0  0  0  0  0  0  0  0  0  0  0  0
   -0.0338    0.4680    3.2209 C   0  0  0  0  0  0  0  0  0  0  0  0
    0.7863    1.1936    3.2371 H   0  0  0  0  0  0  0  0  0  0  0  0
   -0.9036    0.9219    3.7051 H   0  0  0  0  0  0  0  0  0  0  0  0
    0.2651   -0.4144    3.7966 H   0  0  0  0  0  0  0  0  0  0  0  0
  1  2  1  0  0  0  0
  2  3  1  0  0  0  0
  2  4  1  0  0  0  0
  2  5  1  0  0  0  0
  5  6  2  0  0  0  0
  5  7  1  0  0  0  0
  7  8  1  0  0  0  0
  7  9  1  0  0  0  0
  9 10  1  0  0  0  0
  9 11  1  0  0  0  0
  9 24  1  0  0  0  0
 11 12  1  0  0  0  0
 11 13  1  0  0  0  0
 11 14  1  0  0  0  0
 14 15  1  0  0  0  0
 14 16  1  0  0  0  0
 14 20  1  0  0  0  0
 16 17  1  0  0  0  0
 16 18  1  0  0  0  0
 16 19  1  0  0  0  0
 20 21  1  0  0  0  0
 20 22  1  0  0  0  0
 20 23  1  0  0  0  0
 24 25  2  0  0  0  0
 24 26  1  0  0  0  0
 26 27  1  0  0  0  0
 26 28  1  0  0  0  0
 28 29  1  0  0  0  0
 28 30  1  0  0  0  0
 28 31  1  0  0  0  0
M  END
$$$$

  -OEChem-04042216013D

 31 30  0     1  0  0  0  0  0999 V2000
   -2.8664   -4.3218    0.2378 H   0  0  0  0  0  0  0  0  0  0  0  0
   -2.8077   -3.3568   -0.2737 C   0  0  0  0  0  0  0  0  0  0  0  0
   -3.6320   -2.7268    0.0685 H   0  0  0  0  0  0  0  0  0  0  0  0
   -2.9056   -3.5235   -1.3490 H   0  0  0  0  0  0  0  0  0  0  0  0
   -1.4815   -2.6859    0.0296 C   0  0  0  0  0  0  0  0  0  0  0  0
   -0.6971   -3.2164    0.7946 O   0  0  0  0  0  0  0  0  0  0  0  0
   -1.1764   -1.4767   -0.5645 N   0  0  0  0  0  0  0  0  0  0  0  0
   -1.8232   -1.1477   -1.2748 H   0  0  0  0  0  0  0  0  0  0  0  0
    0.1389   -0.8130   -0.4700 C   0  0  1  0  0  0  0  0  0  0  0  0
    0.9092   -1.4951   -0.8361 H   0  0  0  0  0  0  0  0  0  0  0  0
    0.1033    0.4910   -1.3095 C   0  0  0  0  0  0  0  0  0  0  0  0
   -0.9432    0.7660   -1.4769 H   0  0  0  0  0  0  0  0  0  0  0  0
    0.5433    1.3092   -0.7277 H   0  0  0  0  0  0  0  0  0  0  0  0
    0.8449    0.4588   -2.6717 C   0  0  0  0  0  0  0  0  0  0  0  0
    1.8842    0.7522   -2.4863 H   0  0  0  0  0  0  0  0  0  0  0  0
    0.8909   -0.9138   -3.3647 C   0  0  0  0  0  0  0  0  0  0  0  0
   -0.1072   -1.3613   -3.3998 H   0  0  0  0  0  0  0  0  0  0  0  0
    1.2567   -0.8082   -4.3908 H   0  0  0  0  0  0  0  0  0  0  0  0
    1.5705   -1.5968   -2.8481 H   0  0  0  0  0  0  0  0  0  0  0  0
    0.2236    1.4946   -3.6169 C   0  0  0  0  0  0  0  0  0  0  0  0
    0.2132    2.4826   -3.1458 H   0  0  0  0  0  0  0  0  0  0  0  0
    0.8042    1.5639   -4.5421 H   0  0  0  0  0  0  0  0  0  0  0  0
   -0.8042    1.2183   -3.8725 H   0  0  0  0  0  0  0  0  0  0  0  0
    0.5594   -0.4770    0.9800 C   0  0  0  0  0  0  0  0  0  0  0  0
    1.7453   -0.4808    1.2837 O   0  0  0  0  0  0  0  0  0  0  0  0
   -0.3545    0.0910    1.8500 N   0  0  0  0  0  0  0  0  0  0  0  0
   -1.3319   -0.0055    1.5959 H   0  0  0  0  0  0  0  0  0  0  0  0
   -0.0183    0.4605    3.2191 C   0  0  0  0  0  0  0  0  0  0  0  0
    0.7975    1.1909    3.2298 H   0  0  0  0  0  0  0  0  0  0  0  0
   -0.8857    0.9073    3.7139 H   0  0  0  0  0  0  0  0  0  0  0  0
    0.2915   -0.4223    3.7883 H   0  0  0  0  0  0  0  0  0  0  0  0
  1  2  1  0  0  0  0
  2  3  1  0  0  0  0
  2  4  1  0  0  0  0
  2  5  1  0  0  0  0
  5  6  2  0  0  0  0
  5  7  1  0  0  0  0
  7  8  1  0  0  0  0
  7  9  1  0  0  0  0
  9 10  1  0  0  0  0
  9 11  1  0  0  0  0
  9 24  1  0  0  0  0
 11 12  1  0  0  0  0
 11 13  1  0  0  0  0
 11 14  1  0  0  0  0
 14 15  1  0  0  0  0
 14 16  1  0  0  0  0
 14 20  1  0  0  0  0
 16 17  1  0  0  0  0
 16 18  1  0  0  0  0
 16 19  1  0  0  0  0
 20 21  1  0  0  0  0
 20 22  1  0  0  0  0
 20 23  1  0  0  0  0
 24 25  2  0  0  0  0
 24 26  1  0  0  0  0
 26 27  1  0  0  0  0
 26 28  1  0  0  0  0
 28 29  1  0  0  0  0
 28 30  1  0  0  0  0
 28 31  1  0  0  0  0
M  END
$$$$

  -OEChem-04042216013D

 31 30  0     1  0  0  0  0  0999 V2000
   -2.8416   -4.3169    0.2026 H   0  0  0  0  0  0  0  0  0  0  0  0
   -2.7924   -3.3439   -0.2947 C   0  0  0  0  0  0  0  0  0  0  0  0
   -3.6141   -2.7217    0.0679 H   0  0  0  0  0  0  0  0  0  0  0  0
   -2.9041   -3.4944   -1.3712 H   0  0  0  0  0  0  0  0  0  0  0  0
   -1.4639   -2.6739    0.0015 C   0  0  0  0  0  0  0  0  0  0  0  0
   -0.6688   -3.2115    0.7505 O   0  0  0  0  0  0  0  0  0  0  0  0
   -1.1715   -1.4549   -0.5784 N   0  0  0  0  0  0  0  0  0  0  0  0
   -1.8283   -1.1188   -1.2760 H   0  0  0  0  0  0  0  0  0  0  0  0
    0.1380   -0.7805   -0.4830 C   0  0  1  0  0  0  0  0  0  0  0  0
    0.9152   -1.4462   -0.8690 H   0  0  0  0  0  0  0  0  0  0  0  0
    0.0879    0.5276   -1.3108 C   0  0  0  0  0  0  0  0  0  0  0  0
   -0.9572    0.8042   -1.4850 H   0  0  0  0  0  0  0  0  0  0  0  0
    0.5320    1.3435   -0.7289 H   0  0  0  0  0  0  0  0  0  0  0  0
    0.8347    0.4707   -2.6632 C   0  0  0  0  0  0  0  0  0  0  0  0
    1.9100    0.5027   -2.4555 H   0  0  0  0  0  0  0  0  0  0  0  0
    0.5605   -0.8056   -3.4770 C   0  0  0  0  0  0  0  0  0  0  0  0
   -0.5162   -0.9555   -3.6017 H   0  0  0  0  0  0  0  0  0  0  0  0
    1.0149   -0.7240   -4.4694 H   0  0  0  0  0  0  0  0  0  0  0  0
    0.9847   -1.6904   -2.9955 H   0  0  0  0  0  0  0  0  0  0  0  0
    0.4701    1.7031   -3.4986 C   0  0  0  0  0  0  0  0  0  0  0  0
    0.6891    2.6197   -2.9421 H   0  0  0  0  0  0  0  0  0  0  0  0
    1.0504    1.7202   -4.4265 H   0  0  0  0  0  0  0  0  0  0  0  0
   -0.5941    1.6963   -3.7547 H   0  0  0  0  0  0  0  0  0  0  0  0
    0.5652   -0.4582    0.9680 C   0  0  0  0  0  0  0  0  0  0  0  0
    1.7530   -0.4572    1.2646 O   0  0  0  0  0  0  0  0  0  0  0  0
   -0.3484    0.0906    1.8504 N   0  0  0  0  0  0  0  0  0  0  0  0
   -1.3261   -0.0124    1.5998 H   0  0  0  0  0  0  0  0  0  0  0  0
   -0.0092    0.4334    3.2256 C   0  0  0  0  0  0  0  0  0  0  0  0
    0.8017    1.1690    3.2489 H   0  0  0  0  0  0  0  0  0  0  0  0
   -0.8776    0.8632    3.7334 H   0  0  0  0  0  0  0  0  0  0  0  0
    0.3090   -0.4591    3.7745 H   0  0  0  0  0  0  0  0  0  0  0  0
  1  2  1  0  0  0  0
  2  3  1  0  0  0  0
  2  4  1  0  0  0  0
  2  5  1  0  0  0  0
  5  6  2  0  0  0  0
  5  7  1  0  0  0  0
  7  8  1  0  0  0  0
  7  9  1  0  0  0  0
  9 10  1  0  0  0  0
  9 11  1  0  0  0  0
  9 24  1  0  0  0  0
 11 12  1  0  0  0  0
 11 13  1  0  0  0  0
 11 14  1  0  0  0  0
 14 15  1  0  0  0  0
 14 16  1  0  0  0  0
 14 20  1  0  0  0  0
 16 17  1  0  0  0  0
 16 18  1  0  0  0  0
 16 19  1  0  0  0  0
 20 21  1  0  0  0  0
 20 22  1  0  0  0  0
 20 23  1  0  0  0  0
 24 25  2  0  0  0  0
 24 26  1  0  0  0  0
 26 27  1  0  0  0  0
 26 28  1  0  0  0  0
 28 29  1  0  0  0  0
 28 30  1  0  0  0  0
 28 31  1  0  0  0  0
M  END
$$$$

  -OEChem-04042216013D

 31 30  0     1  0  0  0  0  0999 V2000
   -2.8153   -4.3185    0.1460 H   0  0  0  0  0  0  0  0  0  0  0  0
   -2.7755   -3.3392   -0.3396 C   0  0  0  0  0  0  0  0  0  0  0  0
   -3.6060   -2.7310    0.0267 H   0  0  0  0  0  0  0  0  0  0  0  0
   -2.8804   -3.4787   -1.4182 H   0  0  0  0  0  0  0  0  0  0  0  0
   -1.4564   -2.6567   -0.0300 C   0  0  0  0  0  0  0  0  0  0  0  0
   -0.6559   -3.1964    0.7116 O   0  0  0  0  0  0  0  0  0  0  0  0
   -1.1762   -1.4257   -0.5906 N   0  0  0  0  0  0  0  0  0  0  0  0
   -1.8371   -1.0834   -1.2813 H   0  0  0  0  0  0  0  0  0  0  0  0
    0.1287   -0.7434   -0.4883 C   0  0  1  0  0  0  0  0  0  0  0  0
    0.9025   -1.4018   -0.8978 H   0  0  0  0  0  0  0  0  0  0  0  0
    0.0713    0.5683   -1.3067 C   0  0  0  0  0  0  0  0  0  0  0  0
   -0.9695    0.8556   -1.4889 H   0  0  0  0  0  0  0  0  0  0  0  0
    0.5233    1.3770   -0.7210 H   0  0  0  0  0  0  0  0  0  0  0  0
    0.8325    0.4802   -2.6447 C   0  0  0  0  0  0  0  0  0  0  0  0
    1.8844    0.2544   -2.4351 H   0  0  0  0  0  0  0  0  0  0  0  0
    0.2716   -0.6173   -3.5619 C   0  0  0  0  0  0  0  0  0  0  0  0
   -0.7928   -0.4503   -3.7543 H   0  0  0  0  0  0  0  0  0  0  0  0
    0.8012   -0.6161   -4.5198 H   0  0  0  0  0  0  0  0  0  0  0  0
    0.3939   -1.6076   -3.1143 H   0  0  0  0  0  0  0  0  0  0  0  0
    0.7614    1.8315   -3.3647 C   0  0  0  0  0  0  0  0  0  0  0  0
    1.1853    2.6215   -2.7368 H   0  0  0  0  0  0  0  0  0  0  0  0
    1.3302    1.7962   -4.2992 H   0  0  0  0  0  0  0  0  0  0  0  0
   -0.2757    2.0916   -3.5990 H   0  0  0  0  0  0  0  0  0  0  0  0
    0.5666   -0.4389    0.9628 C   0  0  0  0  0  0  0  0  0  0  0  0
    1.7572   -0.4335    1.2470 O   0  0  0  0  0  0  0  0  0  0  0  0
   -0.3423    0.0909    1.8615 N   0  0  0  0  0  0  0  0  0  0  0  0
   -1.3214   -0.0222    1.6214 H   0  0  0  0  0  0  0  0  0  0  0  0
    0.0081    0.4112    3.2392 C   0  0  0  0  0  0  0  0  0  0  0  0
    0.8125    1.1539    3.2689 H   0  0  0  0  0  0  0  0  0  0  0  0
   -0.8590    0.8229    3.7641 H   0  0  0  0  0  0  0  0  0  0  0  0
    0.3399   -0.4890    3.7670 H   0  0  0  0  0  0  0  0  0  0  0  0
  1  2  1  0  0  0  0
  2  3  1  0  0  0  0
  2  4  1  0  0  0  0
  2  5  1  0  0  0  0
  5  6  2  0  0  0  0
  5  7  1  0  0  0  0
  7  8  1  0  0  0  0
  7  9  1  0  0  0  0
  9 10  1  0  0  0  0
  9 11  1  0  0  0  0
  9 24  1  0  0  0  0
 11 12  1  0  0  0  0
 11 13  1  0  0  0  0
 11 14  1  0  0  0  0
 14 15  1  0  0  0  0
 14 16  1  0  0  0  0
 14 20  1  0  0  0  0
 16 17  1  0  0  0  0
 16 18  1  0  0  0  0
 16 19  1  0  0  0  0
 20 21  1  0  0  0  0
 20 22  1  0  0  0  0
 20 23  1  0  0  0  0
 24 25  2  0  0  0  0
 24 26  1  0  0  0  0
 26 27  1  0  0  0  0
 26 28  1  0  0  0  0
 28 29  1  0  0  0  0
 28 30  1  0  0  0  0
 28 31  1  0  0  0  0
M  END
$$$$

  -OEChem-04042216013D

 31 30  0     1  0  0  0  0  0999 V2000
   -2.8098   -4.3100    0.1115 H   0  0  0  0  0  0  0  0  0  0  0  0
   -2.7695   -3.3268   -0.3660 C   0  0  0  0  0  0  0  0  0  0  0  0
   -3.6010   -2.7222    0.0038 H   0  0  0  0  0  0  0  0  0  0  0  0
   -2.8726   -3.4573   -1.4459 H   0  0  0  0  0  0  0  0  0  0  0  0
   -1.4513   -2.6464   -0.0477 C   0  0  0  0  0  0  0  0  0  0  0  0
   -0.6526   -3.1910    0.6924 O   0  0  0  0  0  0  0  0  0  0  0  0
   -1.1709   -1.4108   -0.5976 N   0  0  0  0  0  0  0  0  0  0  0  0
   -1.8303   -1.0637   -1.2874 H   0  0  0  0  0  0  0  0  0  0  0  0
    0.1325   -0.7276   -0.4867 C   0  0  1  0  0  0  0  0  0  0  0  0
    0.9031   -1.3855   -0.9041 H   0  0  0  0  0  0  0  0  0  0  0  0
    0.0694    0.5854   -1.3017 C   0  0  0  0  0  0  0  0  0  0  0  0
   -0.9681    0.8846   -1.4831 H   0  0  0  0  0  0  0  0  0  0  0  0
    0.5273    1.3866   -0.7102 H   0  0  0  0  0  0  0  0  0  0  0  0
    0.8400    0.4819   -2.6326 C   0  0  0  0  0  0  0  0  0  0  0  0
    1.8183    0.0209   -2.4556 H   0  0  0  0  0  0  0  0  0  0  0  0
    0.0587   -0.3539   -3.6552 C   0  0  0  0  0  0  0  0  0  0  0  0
   -0.9236    0.0885   -3.8488 H   0  0  0  0  0  0  0  0  0  0  0  0
    0.6078   -0.4066   -4.6006 H   0  0  0  0  0  0  0  0  0  0  0  0
   -0.0842   -1.3751   -3.2896 H   0  0  0  0  0  0  0  0  0  0  0  0
    1.0678    1.8850   -3.2076 C   0  0  0  0  0  0  0  0  0  0  0  0
    1.6538    2.4931   -2.5112 H   0  0  0  0  0  0  0  0  0  0  0  0
    1.6168    1.8252   -4.1527 H   0  0  0  0  0  0  0  0  0  0  0  0
    0.1132    2.3885   -3.3913 H   0  0  0  0  0  0  0  0  0  0  0  0
    0.5703   -0.4321    0.9663 C   0  0  0  0  0  0  0  0  0  0  0  0
    1.7606   -0.4281    1.2518 O   0  0  0  0  0  0  0  0  0  0  0  0
   -0.3399    0.0906    1.8677 N   0  0  0  0  0  0  0  0  0  0  0  0
   -1.3187   -0.0191    1.6251 H   0  0  0  0  0  0  0  0  0  0  0  0
    0.0083    0.3992    3.2487 C   0  0  0  0  0  0  0  0  0  0  0  0
    0.8104    1.1439    3.2853 H   0  0  0  0  0  0  0  0  0  0  0  0
   -0.8606    0.8034    3.7766 H   0  0  0  0  0  0  0  0  0  0  0  0
    0.3423   -0.5050    3.7686 H   0  0  0  0  0  0  0  0  0  0  0  0
  1  2  1  0  0  0  0
  2  3  1  0  0  0  0
  2  4  1  0  0  0  0
  2  5  1  0  0  0  0
  5  6  2  0  0  0  0
  5  7  1  0  0  0  0
  7  8  1  0  0  0  0
  7  9  1  0  0  0  0
  9 10  1  0  0  0  0
  9 11  1  0  0  0  0
  9 24  1  0  0  0  0
 11 12  1  0  0  0  0
 11 13  1  0  0  0  0
 11 14  1  0  0  0  0
 14 15  1  0  0  0  0
 14 16  1  0  0  0  0
 14 20  1  0  0  0  0
 16 17  1  0  0  0  0
 16 18  1  0  0  0  0
 16 19  1  0  0  0  0
 20 21  1  0  0  0  0
 20 22  1  0  0  0  0
 20 23  1  0  0  0  0
 24 25  2  0  0  0  0
 24 26  1  0  0  0  0
 26 27  1  0  0  0  0
 26 28  1  0  0  0  0
 28 29  1  0  0  0  0
 28 30  1  0  0  0  0
 28 31  1  0  0  0  0
M  END
$$$$

  -OEChem-04042216013D

 31 30  0     1  0  0  0  0  0999 V2000
   -2.8141   -4.3062    0.1102 H   0  0  0  0  0  0  0  0  0  0  0  0
   -2.7705   -3.3232   -0.3676 C   0  0  0  0  0  0  0  0  0  0  0  0
   -3.6017   -2.7167   -0.0000 H   0  0  0  0  0  0  0  0  0  0  0  0
   -2.8717   -3.4541   -1.4477 H   0  0  0  0  0  0  0  0  0  0  0  0
   -1.4514   -2.6456   -0.0475 C   0  0  0  0  0  0  0  0  0  0  0  0
   -0.6556   -3.1910    0.6952 O   0  0  0  0  0  0  0  0  0  0  0  0
   -1.1667   -1.4110   -0.5977 N   0  0  0  0  0  0  0  0  0  0  0  0
   -1.8256   -1.0602   -1.2859 H   0  0  0  0  0  0  0  0  0  0  0  0
    0.1373   -0.7305   -0.4832 C   0  0  1  0  0  0  0  0  0  0  0  0
    0.9055   -1.3940   -0.8945 H   0  0  0  0  0  0  0  0  0  0  0  0
    0.0750    0.5820   -1.3002 C   0  0  0  0  0  0  0  0  0  0  0  0
   -0.9610    0.8897   -1.4761 H   0  0  0  0  0  0  0  0  0  0  0  0
    0.5343    1.3776   -0.7026 H   0  0  0  0  0  0  0  0  0  0  0  0
    0.8483    0.4806   -2.6334 C   0  0  0  0  0  0  0  0  0  0  0  0
    1.7041   -0.1952   -2.5287 H   0  0  0  0  0  0  0  0  0  0  0  0
   -0.0763   -0.0240   -3.7482 C   0  0  0  0  0  0  0  0  0  0  0  0
   -0.9189    0.6590   -3.8959 H   0  0  0  0  0  0  0  0  0  0  0  0
    0.4740   -0.1044   -4.6910 H   0  0  0  0  0  0  0  0  0  0  0  0
   -0.4688   -1.0140   -3.4969 H   0  0  0  0  0  0  0  0  0  0  0  0
    1.3852    1.8612   -3.0323 C   0  0  0  0  0  0  0  0  0  0  0  0
    2.0848    2.2318   -2.2762 H   0  0  0  0  0  0  0  0  0  0  0  0
    1.9169    1.8030   -3.9874 H   0  0  0  0  0  0  0  0  0  0  0  0
    0.5669    2.5814   -3.1328 H   0  0  0  0  0  0  0  0  0  0  0  0
    0.5707   -0.4345    0.9710 C   0  0  0  0  0  0  0  0  0  0  0  0
    1.7602   -0.4305    1.2597 O   0  0  0  0  0  0  0  0  0  0  0  0
   -0.3417    0.0906    1.8686 N   0  0  0  0  0  0  0  0  0  0  0  0
   -1.3200   -0.0179    1.6228 H   0  0  0  0  0  0  0  0  0  0  0  0
    0.0027    0.4009    3.2501 C   0  0  0  0  0  0  0  0  0  0  0  0
    0.8069    1.1432    3.2877 H   0  0  0  0  0  0  0  0  0  0  0  0
   -0.8668    0.8088    3.7740 H   0  0  0  0  0  0  0  0  0  0  0  0
    0.3324   -0.5031    3.7729 H   0  0  0  0  0  0  0  0  0  0  0  0
  1  2  1  0  0  0  0
  2  3  1  0  0  0  0
  2  4  1  0  0  0  0
  2  5  1  0  0  0  0
  5  6  2  0  0  0  0
  5  7  1  0  0  0  0
  7  8  1  0  0  0  0
  7  9  1  0  0  0  0
  9 10  1  0  0  0  0
  9 11  1  0  0  0  0
  9 24  1  0  0  0  0
 11 12  1  0  0  0  0
 11 13  1  0  0  0  0
 11 14  1  0  0  0  0
 14 15  1  0  0  0  0
 14 16  1  0  0  0  0
 14 20  1  0  0  0  0
 16 17  1  0  0  0  0
 16 18  1  0  0  0  0
 16 19  1  0  0  0  0
 20 21  1  0  0  0  0
 20 22  1  0  0  0  0
 20 23  1  0  0  0  0
 24 25  2  0  0  0  0
 24 26  1  0  0  0  0
 26 27  1  0  0  0  0
 26 28  1  0  0  0  0
 28 29  1  0  0  0  0
 28 30  1  0  0  0  0
 28 31  1  0  0  0  0
M  END
$$$$

  -OEChem-04042216013D

 31 30  0     1  0  0  0  0  0999 V2000
   -2.8146   -4.3097    0.1235 H   0  0  0  0  0  0  0  0  0  0  0  0
   -2.7716   -3.3274   -0.3557 C   0  0  0  0  0  0  0  0  0  0  0  0
   -3.6005   -2.7192    0.0142 H   0  0  0  0  0  0  0  0  0  0  0  0
   -2.8774   -3.4594   -1.4352 H   0  0  0  0  0  0  0  0  0  0  0  0
   -1.4502   -2.6510   -0.0412 C   0  0  0  0  0  0  0  0  0  0  0  0
   -0.6541   -3.1947    0.7024 O   0  0  0  0  0  0  0  0  0  0  0  0
   -1.1648   -1.4185   -0.5965 N   0  0  0  0  0  0  0  0  0  0  0  0
   -1.8218   -1.0728   -1.2893 H   0  0  0  0  0  0  0  0  0  0  0  0
    0.1391   -0.7373   -0.4830 C   0  0  1  0  0  0  0  0  0  0  0  0
    0.9091   -1.4031   -0.8863 H   0  0  0  0  0  0  0  0  0  0  0  0
    0.0759    0.5755   -1.3011 C   0  0  0  0  0  0  0  0  0  0  0  0
   -0.9634    0.8753   -1.4720 H   0  0  0  0  0  0  0  0  0  0  0  0
    0.5233    1.3759   -0.7006 H   0  0  0  0  0  0  0  0  0  0  0  0
    0.8472    0.4844   -2.6411 C   0  0  0  0  0  0  0  0  0  0  0  0
    1.5222   -0.3774   -2.6435 H   0  0  0  0  0  0  0  0  0  0  0  0
   -0.1352    0.3515   -3.8107 C   0  0  0  0  0  0  0  0  0  0  0  0
   -0.7929    1.2249   -3.8686 H   0  0  0  0  0  0  0  0  0  0  0  0
    0.4092    0.2649   -4.7564 H   0  0  0  0  0  0  0  0  0  0  0  0
   -0.7524   -0.5436   -3.6874 H   0  0  0  0  0  0  0  0  0  0  0  0
    1.7004    1.7412   -2.8526 C   0  0  0  0  0  0  0  0  0  0  0  0
    2.4389    1.8392   -2.0503 H   0  0  0  0  0  0  0  0  0  0  0  0
    2.2377    1.6816   -3.8043 H   0  0  0  0  0  0  0  0  0  0  0  0
    1.0740    2.6390   -2.8619 H   0  0  0  0  0  0  0  0  0  0  0  0
    0.5692   -0.4356    0.9713 C   0  0  0  0  0  0  0  0  0  0  0  0
    1.7582   -0.4309    1.2622 O   0  0  0  0  0  0  0  0  0  0  0  0
   -0.3441    0.0930    1.8659 N   0  0  0  0  0  0  0  0  0  0  0  0
   -1.3220   -0.0146    1.6185 H   0  0  0  0  0  0  0  0  0  0  0  0
   -0.0016    0.4082    3.2469 C   0  0  0  0  0  0  0  0  0  0  0  0
    0.8045    1.1486    3.2836 H   0  0  0  0  0  0  0  0  0  0  0  0
   -0.8709    0.8205    3.7676 H   0  0  0  0  0  0  0  0  0  0  0  0
    0.3251   -0.4942    3.7744 H   0  0  0  0  0  0  0  0  0  0  0  0
  1  2  1  0  0  0  0
  2  3  1  0  0  0  0
  2  4  1  0  0  0  0
  2  5  1  0  0  0  0
  5  6  2  0  0  0  0
  5  7  1  0  0  0  0
  7  8  1  0  0  0  0
  7  9  1  0  0  0  0
  9 10  1  0  0  0  0
  9 11  1  0  0  0  0
  9 24  1  0  0  0  0
 11 12  1  0  0  0  0
 11 13  1  0  0  0  0
 11 14  1  0  0  0  0
 14 15  1  0  0  0  0
 14 16  1  0  0  0  0
 14 20  1  0  0  0  0
 16 17  1  0  0  0  0
 16 18  1  0  0  0  0
 16 19  1  0  0  0  0
 20 21  1  0  0  0  0
 20 22  1  0  0  0  0
 20 23  1  0  0  0  0
 24 25  2  0  0  0  0
 24 26  1  0  0  0  0
 26 27  1  0  0  0  0
 26 28  1  0  0  0  0
 28 29  1  0  0  0  0
 28 30  1  0  0  0  0
 28 31  1  0  0  0  0
M  END
$$$$

  -OEChem-04042216013D

 31 30  0     1  0  0  0  0  0999 V2000
   -2.8065   -4.3153    0.1326 H   0  0  0  0  0  0  0  0  0  0  0  0
   -2.7659   -3.3341   -0.3491 C   0  0  0  0  0  0  0  0  0  0  0  0
   -3.5954   -2.7265    0.0204 H   0  0  0  0  0  0  0  0  0  0  0  0
   -2.8726   -3.4689   -1.4281 H   0  0  0  0  0  0  0  0  0  0  0  0
   -1.4456   -2.6541   -0.0380 C   0  0  0  0  0  0  0  0  0  0  0  0
   -0.6464   -3.1950    0.7042 O   0  0  0  0  0  0  0  0  0  0  0  0
   -1.1642   -1.4221   -0.5959 N   0  0  0  0  0  0  0  0  0  0  0  0
   -1.8238   -1.0794   -1.2876 H   0  0  0  0  0  0  0  0  0  0  0  0
    0.1383   -0.7367   -0.4864 C   0  0  1  0  0  0  0  0  0  0  0  0
    0.9126   -1.3982   -0.8890 H   0  0  0  0  0  0  0  0  0  0  0  0
    0.0706    0.5783   -1.3009 C   0  0  0  0  0  0  0  0  0  0  0  0
   -0.9741    0.8572   -1.4731 H   0  0  0  0  0  0  0  0  0  0  0  0
    0.4996    1.3909   -0.7032 H   0  0  0  0  0  0  0  0  0  0  0  0
    0.8380    0.4931   -2.6450 C   0  0  0  0  0  0  0  0  0  0  0  0
    1.2746   -0.5023   -2.7755 H   0  0  0  0  0  0  0  0  0  0  0  0
   -0.1138    0.7399   -3.8212 C   0  0  0  0  0  0  0  0  0  0  0  0
   -0.5615    1.7368   -3.7550 H   0  0  0  0  0  0  0  0  0  0  0  0
    0.4267    0.6649   -4.7701 H   0  0  0  0  0  0  0  0  0  0  0  0
   -0.9158   -0.0046   -3.8240 H   0  0  0  0  0  0  0  0  0  0  0  0
    1.9811    1.5139   -2.6817 C   0  0  0  0  0  0  0  0  0  0  0  0
    2.6790    1.3308   -1.8582 H   0  0  0  0  0  0  0  0  0  0  0  0
    2.5338    1.4339   -3.6230 H   0  0  0  0  0  0  0  0  0  0  0  0
    1.5943    2.5341   -2.5914 H   0  0  0  0  0  0  0  0  0  0  0  0
    0.5697   -0.4311    0.9666 C   0  0  0  0  0  0  0  0  0  0  0  0
    1.7592   -0.4218    1.2558 O   0  0  0  0  0  0  0  0  0  0  0  0
   -0.3441    0.0965    1.8613 N   0  0  0  0  0  0  0  0  0  0  0  0
   -1.3221   -0.0129    1.6148 H   0  0  0  0  0  0  0  0  0  0  0  0
   -0.0009    0.4171    3.2409 C   0  0  0  0  0  0  0  0  0  0  0  0
    0.8025    1.1604    3.2740 H   0  0  0  0  0  0  0  0  0  0  0  0
   -0.8711    0.8281    3.7613 H   0  0  0  0  0  0  0  0  0  0  0  0
    0.3295   -0.4824    3.7709 H   0  0  0  0  0  0  0  0  0  0  0  0
  1  2  1  0  0  0  0
  2  3  1  0  0  0  0
  2  4  1  0  0  0  0
  2  5  1  0  0  0  0
  5  6  2  0  0  0  0
  5  7  1  0  0  0  0
  7  8  1  0  0  0  0
  7  9  1  0  0  0  0
  9 10  1  0  0  0  0
  9 11  1  0  0  0  0
  9 24  1  0  0  0  0
 11 12  1  0  0  0  0
 11 13  1  0  0  0  0
 11 14  1  0  0  0  0
 14 15  1  0  0  0  0
 14 16  1  0  0  0  0
 14 20  1  0  0  0  0
 16 17  1  0  0  0  0
 16 18  1  0  0  0  0
 16 19  1  0  0  0  0
 20 21  1  0  0  0  0
 20 22  1  0  0  0  0
 20 23  1  0  0  0  0
 24 25  2  0  0  0  0
 24 26  1  0  0  0  0
 26 27  1  0  0  0  0
 26 28  1  0  0  0  0
 28 29  1  0  0  0  0
 28 30  1  0  0  0  0
 28 31  1  0  0  0  0
M  END
$$$$

  -OEChem-04042216013D

 31 30  0     1  0  0  0  0  0999 V2000
   -2.7887   -4.3180    0.1379 H   0  0  0  0  0  0  0  0  0  0  0  0
   -2.7555   -3.3369   -0.3449 C   0  0  0  0  0  0  0  0  0  0  0  0
   -3.5851   -2.7324    0.0297 H   0  0  0  0  0  0  0  0  0  0  0  0
   -2.8689   -3.4730   -1.4231 H   0  0  0  0  0  0  0  0  0  0  0  0
   -1.4356   -2.6521   -0.0440 C   0  0  0  0  0  0  0  0  0  0  0  0
   -0.6276   -3.1918    0.6895 O   0  0  0  0  0  0  0  0  0  0  0  0
   -1.1655   -1.4163   -0.5989 N   0  0  0  0  0  0  0  0  0  0  0  0
   -1.8350   -1.0706   -1.2795 H   0  0  0  0  0  0  0  0  0  0  0  0
    0.1330   -0.7227   -0.4930 C   0  0  1  0  0  0  0  0  0  0  0  0
    0.9103   -1.3767   -0.9030 H   0  0  0  0  0  0  0  0  0  0  0  0
    0.0614    0.5943   -1.3026 C   0  0  0  0  0  0  0  0  0  0  0  0
   -0.9871    0.8517   -1.4850 H   0  0  0  0  0  0  0  0  0  0  0  0
    0.4755    1.4196   -0.7115 H   0  0  0  0  0  0  0  0  0  0  0  0
    0.8298    0.5018   -2.6421 C   0  0  0  0  0  0  0  0  0  0  0  0
    1.0059   -0.5483   -2.8979 H   0  0  0  0  0  0  0  0  0  0  0  0
    0.0013    1.1015   -3.7834 C   0  0  0  0  0  0  0  0  0  0  0  0
   -0.2169    2.1564   -3.5884 H   0  0  0  0  0  0  0  0  0  0  0  0
    0.5482    1.0293   -4.7288 H   0  0  0  0  0  0  0  0  0  0  0  0
   -0.9451    0.5629   -3.8936 H   0  0  0  0  0  0  0  0  0  0  0  0
    2.1889    1.2019   -2.5358 C   0  0  0  0  0  0  0  0  0  0  0  0
    2.7790    0.7626   -1.7247 H   0  0  0  0  0  0  0  0  0  0  0  0
    2.7496    1.0900   -3.4690 H   0  0  0  0  0  0  0  0  0  0  0  0
    2.0610    2.2702   -2.3341 H   0  0  0  0  0  0  0  0  0  0  0  0
    0.5703   -0.4191    0.9583 C   0  0  0  0  0  0  0  0  0  0  0  0
    1.7611   -0.4029    1.2418 O   0  0  0  0  0  0  0  0  0  0  0  0
   -0.3431    0.0994    1.8587 N   0  0  0  0  0  0  0  0  0  0  0  0
   -1.3213   -0.0188    1.6170 H   0  0  0  0  0  0  0  0  0  0  0  0
    0.0038    0.4163    3.2381 C   0  0  0  0  0  0  0  0  0  0  0  0
    0.8037    1.1634    3.2716 H   0  0  0  0  0  0  0  0  0  0  0  0
   -0.8665    0.8210    3.7631 H   0  0  0  0  0  0  0  0  0  0  0  0
    0.3399   -0.4839    3.7633 H   0  0  0  0  0  0  0  0  0  0  0  0
  1  2  1  0  0  0  0
  2  3  1  0  0  0  0
  2  4  1  0  0  0  0
  2  5  1  0  0  0  0
  5  6  2  0  0  0  0
  5  7  1  0  0  0  0
  7  8  1  0  0  0  0
  7  9  1  0  0  0  0
  9 10  1  0  0  0  0
  9 11  1  0  0  0  0
  9 24  1  0  0  0  0
 11 12  1  0  0  0  0
 11 13  1  0  0  0  0
 11 14  1  0  0  0  0
 14 15  1  0  0  0  0
 14 16  1  0  0  0  0
 14 20  1  0  0  0  0
 16 17  1  0  0  0  0
 16 18  1  0  0  0  0
 16 19  1  0  0  0  0
 20 21  1  0  0  0  0
 20 22  1  0  0  0  0
 20 23  1  0  0  0  0
 24 25  2  0  0  0  0
 24 26  1  0  0  0  0
 26 27  1  0  0  0  0
 26 28  1  0  0  0  0
 28 29  1  0  0  0  0
 28 30  1  0  0  0  0
 28 31  1  0  0  0  0
M  END
$$$$

  -OEChem-04042216013D

 31 30  0     1  0  0  0  0  0999 V2000
   -2.7798   -4.3179    0.1260 H   0  0  0  0  0  0  0  0  0  0  0  0
   -2.7502   -3.3356   -0.3545 C   0  0  0  0  0  0  0  0  0  0  0  0
   -3.5817   -2.7348    0.0216 H   0  0  0  0  0  0  0  0  0  0  0  0
   -2.8629   -3.4690   -1.4331 H   0  0  0  0  0  0  0  0  0  0  0  0
   -1.4329   -2.6471   -0.0513 C   0  0  0  0  0  0  0  0  0  0  0  0
   -0.6214   -3.1877    0.6777 O   0  0  0  0  0  0  0  0  0  0  0  0
   -1.1682   -1.4080   -0.6012 N   0  0  0  0  0  0  0  0  0  0  0  0
   -1.8407   -1.0610   -1.2783 H   0  0  0  0  0  0  0  0  0  0  0  0
    0.1285   -0.7119   -0.4945 C   0  0  1  0  0  0  0  0  0  0  0  0
    0.9039   -1.3632   -0.9128 H   0  0  0  0  0  0  0  0  0  0  0  0
    0.0570    0.6039   -1.3039 C   0  0  0  0  0  0  0  0  0  0  0  0
   -0.9910    0.8536   -1.4983 H   0  0  0  0  0  0  0  0  0  0  0  0
    0.4682    1.4349   -0.7194 H   0  0  0  0  0  0  0  0  0  0  0  0
    0.8298    0.4982   -2.6348 C   0  0  0  0  0  0  0  0  0  0  0  0
    0.7671   -0.5297   -3.0088 H   0  0  0  0  0  0  0  0  0  0  0  0
    0.1970    1.4031   -3.6971 C   0  0  0  0  0  0  0  0  0  0  0  0
    0.2122    2.4480   -3.3708 H   0  0  0  0  0  0  0  0  0  0  0  0
    0.7484    1.3253   -4.6394 H   0  0  0  0  0  0  0  0  0  0  0  0
   -0.8408    1.1096   -3.8829 H   0  0  0  0  0  0  0  0  0  0  0  0
    2.3070    0.8549   -2.4327 C   0  0  0  0  0  0  0  0  0  0  0  0
    2.7588    0.2025   -1.6784 H   0  0  0  0  0  0  0  0  0  0  0  0
    2.8598    0.7315   -3.3691 H   0  0  0  0  0  0  0  0  0  0  0  0
    2.4132    1.8928   -2.1013 H   0  0  0  0  0  0  0  0  0  0  0  0
    0.5713   -0.4124    0.9557 C   0  0  0  0  0  0  0  0  0  0  0  0
    1.7632   -0.3985    1.2348 O   0  0  0  0  0  0  0  0  0  0  0  0
   -0.3388    0.1008    1.8625 N   0  0  0  0  0  0  0  0  0  0  0  0
   -1.3180   -0.0164    1.6251 H   0  0  0  0  0  0  0  0  0  0  0  0
    0.0156    0.4155    3.2404 C   0  0  0  0  0  0  0  0  0  0  0  0
    0.8149    1.1635    3.2698 H   0  0  0  0  0  0  0  0  0  0  0  0
   -0.8518    0.8185    3.7715 H   0  0  0  0  0  0  0  0  0  0  0  0
    0.3563   -0.4853    3.7617 H   0  0  0  0  0  0  0  0  0  0  0  0
  1  2  1  0  0  0  0
  2  3  1  0  0  0  0
  2  4  1  0  0  0  0
  2  5  1  0  0  0  0
  5  6  2  0  0  0  0
  5  7  1  0  0  0  0
  7  8  1  0  0  0  0
  7  9  1  0  0  0  0
  9 10  1  0  0  0  0
  9 11  1  0  0  0  0
  9 24  1  0  0  0  0
 11 12  1  0  0  0  0
 11 13  1  0  0  0  0
 11 14  1  0  0  0  0
 14 15  1  0  0  0  0
 14 16  1  0  0  0  0
 14 20  1  0  0  0  0
 16 17  1  0  0  0  0
 16 18  1  0  0  0  0
 16 19  1  0  0  0  0
 20 21  1  0  0  0  0
 20 22  1  0  0  0  0
 20 23  1  0  0  0  0
 24 25  2  0  0  0  0
 24 26  1  0  0  0  0
 26 27  1  0  0  0  0
 26 28  1  0  0  0  0
 28 29  1  0  0  0  0
 28 30  1  0  0  0  0
 28 31  1  0  0  0  0
M  END
$$$$

  -OEChem-04042216013D

 31 30  0     1  0  0  0  0  0999 V2000
   -2.8016   -4.3178    0.1204 H   0  0  0  0  0  0  0  0  0  0  0  0
   -2.7634   -3.3381   -0.3646 C   0  0  0  0  0  0  0  0  0  0  0  0
   -3.6003   -2.7352   -0.0047 H   0  0  0  0  0  0  0  0  0  0  0  0
   -2.8589   -3.4775   -1.4440 H   0  0  0  0  0  0  0  0  0  0  0  0
   -1.4506   -2.6483   -0.0440 C   0  0  0  0  0  0  0  0  0  0  0  0
   -0.6528   -3.1842    0.7033 O   0  0  0  0  0  0  0  0  0  0  0  0
   -1.1745   -1.4131   -0.5977 N   0  0  0  0  0  0  0  0  0  0  0  0
   -1.8358   -1.0705   -1.2879 H   0  0  0  0  0  0  0  0  0  0  0  0
    0.1274   -0.7264   -0.4882 C   0  0  1  0  0  0  0  0  0  0  0  0
    0.8913   -1.3917   -0.9041 H   0  0  0  0  0  0  0  0  0  0  0  0
    0.0682    0.5846   -1.3076 C   0  0  0  0  0  0  0  0  0  0  0  0
   -0.9760    0.8454   -1.5077 H   0  0  0  0  0  0  0  0  0  0  0  0
    0.4898    1.4118   -0.7251 H   0  0  0  0  0  0  0  0  0  0  0  0
    0.8425    0.4804   -2.6361 C   0  0  0  0  0  0  0  0  0  0  0  0
    0.5790   -0.4590   -3.1342 H   0  0  0  0  0  0  0  0  0  0  0  0
    0.4486    1.6403   -3.5576 C   0  0  0  0  0  0  0  0  0  0  0  0
    0.6818    2.6018   -3.0888 H   0  0  0  0  0  0  0  0  0  0  0  0
    0.9919    1.5752   -4.5057 H   0  0  0  0  0  0  0  0  0  0  0  0
   -0.6235    1.6096   -3.7753 H   0  0  0  0  0  0  0  0  0  0  0  0
    2.3602    0.5123   -2.3997 C   0  0  0  0  0  0  0  0  0  0  0  0
    2.6791   -0.3250   -1.7724 H   0  0  0  0  0  0  0  0  0  0  0  0
    2.8941    0.4430   -3.3524 H   0  0  0  0  0  0  0  0  0  0  0  0
    2.6541    1.4434   -1.9045 H   0  0  0  0  0  0  0  0  0  0  0  0
    0.5719   -0.4224    0.9607 C   0  0  0  0  0  0  0  0  0  0  0  0
    1.7641   -0.4137    1.2386 O   0  0  0  0  0  0  0  0  0  0  0  0
   -0.3333    0.1029    1.8654 N   0  0  0  0  0  0  0  0  0  0  0  0
   -1.3138   -0.0068    1.6293 H   0  0  0  0  0  0  0  0  0  0  0  0
    0.0250    0.4290    3.2400 C   0  0  0  0  0  0  0  0  0  0  0  0
    0.8248    1.1768    3.2607 H   0  0  0  0  0  0  0  0  0  0  0  0
   -0.8408    0.8370    3.7701 H   0  0  0  0  0  0  0  0  0  0  0  0
    0.3670   -0.4672    3.7683 H   0  0  0  0  0  0  0  0  0  0  0  0
  1  2  1  0  0  0  0
  2  3  1  0  0  0  0
  2  4  1  0  0  0  0
  2  5  1  0  0  0  0
  5  6  2  0  0  0  0
  5  7  1  0  0  0  0
  7  8  1  0  0  0  0
  7  9  1  0  0  0  0
  9 10  1  0  0  0  0
  9 11  1  0  0  0  0
  9 24  1  0  0  0  0
 11 12  1  0  0  0  0
 11 13  1  0  0  0  0
 11 14  1  0  0  0  0
 14 15  1  0  0  0  0
 14 16  1  0  0  0  0
 14 20  1  0  0  0  0
 16 17  1  0  0  0  0
 16 18  1  0  0  0  0
 16 19  1  0  0  0  0
 20 21  1  0  0  0  0
 20 22  1  0  0  0  0
 20 23  1  0  0  0  0
 24 25  2  0  0  0  0
 24 26  1  0  0  0  0
 26 27  1  0  0  0  0
 26 28  1  0  0  0  0
 28 29  1  0  0  0  0
 28 30  1  0  0  0  0
 28 31  1  0  0  0  0
M  END
$$$$

  -OEChem-04042216013D

 31 30  0     1  0  0  0  0  0999 V2000
   -2.8374   -4.3099    0.1594 H   0  0  0  0  0  0  0  0  0  0  0  0
   -2.7807   -3.3362   -0.3359 C   0  0  0  0  0  0  0  0  0  0  0  0
   -3.6111   -2.7161    0.0104 H   0  0  0  0  0  0  0  0  0  0  0  0
   -2.8707   -3.4866   -1.4145 H   0  0  0  0  0  0  0  0  0  0  0  0
   -1.4597   -2.6633   -0.0128 C   0  0  0  0  0  0  0  0  0  0  0  0
   -0.6812   -3.1979    0.7555 O   0  0  0  0  0  0  0  0  0  0  0  0
   -1.1523   -1.4473   -0.5920 N   0  0  0  0  0  0  0  0  0  0  0  0
   -1.7963   -1.1083   -1.3000 H   0  0  0  0  0  0  0  0  0  0  0  0
    0.1585   -0.7798   -0.4764 C   0  0  1  0  0  0  0  0  0  0  0  0
    0.9282   -1.4543   -0.8591 H   0  0  0  0  0  0  0  0  0  0  0  0
    0.1070    0.5255   -1.3021 C   0  0  0  0  0  0  0  0  0  0  0  0
   -0.9003    0.9516   -1.2516 H   0  0  0  0  0  0  0  0  0  0  0  0
    0.7823    1.2566   -0.8423 H   0  0  0  0  0  0  0  0  0  0  0  0
    0.5371    0.3667   -2.7774 C   0  0  0  0  0  0  0  0  0  0  0  0
   -0.1387   -0.3355   -3.2770 H   0  0  0  0  0  0  0  0  0  0  0  0
    0.4343    1.7322   -3.4690 C   0  0  0  0  0  0  0  0  0  0  0  0
    1.1196    2.4519   -3.0094 H   0  0  0  0  0  0  0  0  0  0  0  0
    0.6854    1.6434   -4.5307 H   0  0  0  0  0  0  0  0  0  0  0  0
   -0.5846    2.1242   -3.3920 H   0  0  0  0  0  0  0  0  0  0  0  0
    1.9812   -0.1410   -2.9299 C   0  0  0  0  0  0  0  0  0  0  0  0
    2.0614   -1.1964   -2.6568 H   0  0  0  0  0  0  0  0  0  0  0  0
    2.3111   -0.0466   -3.9694 H   0  0  0  0  0  0  0  0  0  0  0  0
    2.6626    0.4373   -2.2974 H   0  0  0  0  0  0  0  0  0  0  0  0
    0.5713   -0.4514    0.9769 C   0  0  0  0  0  0  0  0  0  0  0  0
    1.7562   -0.4540    1.2844 O   0  0  0  0  0  0  0  0  0  0  0  0
   -0.3477    0.1082    1.8469 N   0  0  0  0  0  0  0  0  0  0  0  0
   -1.3239    0.0066    1.5901 H   0  0  0  0  0  0  0  0  0  0  0  0
   -0.0174    0.4674    3.2201 C   0  0  0  0  0  0  0  0  0  0  0  0
    0.7973    1.1988    3.2407 H   0  0  0  0  0  0  0  0  0  0  0  0
   -0.8872    0.9089    3.7155 H   0  0  0  0  0  0  0  0  0  0  0  0
    0.2914   -0.4197    3.7829 H   0  0  0  0  0  0  0  0  0  0  0  0
  1  2  1  0  0  0  0
  2  3  1  0  0  0  0
  2  4  1  0  0  0  0
  2  5  1  0  0  0  0
  5  6  2  0  0  0  0
  5  7  1  0  0  0  0
  7  8  1  0  0  0  0
  7  9  1  0  0  0  0
  9 10  1  0  0  0  0
  9 11  1  0  0  0  0
  9 24  1  0  0  0  0
 11 12  1  0  0  0  0
 11 13  1  0  0  0  0
 11 14  1  0  0  0  0
 14 15  1  0  0  0  0
 14 16  1  0  0  0  0
 14 20  1  0  0  0  0
 16 17  1  0  0  0  0
 16 18  1  0  0  0  0
 16 19  1  0  0  0  0
 20 21  1  0  0  0  0
 20 22  1  0  0  0  0
 20 23  1  0  0  0  0
 24 25  2  0  0  0  0
 24 26  1  0  0  0  0
 26 27  1  0  0  0  0
 26 28  1  0  0  0  0
 28 29  1  0  0  0  0
 28 30  1  0  0  0  0
 28 31  1  0  0  0  0
M  END
$$$$

  -OEChem-04042216013D

 31 30  0     1  0  0  0  0  0999 V2000
   -2.8600   -4.2966    0.2106 H   0  0  0  0  0  0  0  0  0  0  0  0
   -2.7908   -3.3322   -0.3009 C   0  0  0  0  0  0  0  0  0  0  0  0
   -3.6128   -2.6960    0.0356 H   0  0  0  0  0  0  0  0  0  0  0  0
   -2.8823   -3.4986   -1.3770 H   0  0  0  0  0  0  0  0  0  0  0  0
   -1.4613   -2.6713    0.0112 C   0  0  0  0  0  0  0  0  0  0  0  0
   -0.6872   -3.2054    0.7844 O   0  0  0  0  0  0  0  0  0  0  0  0
   -1.1419   -1.4658   -0.5832 N   0  0  0  0  0  0  0  0  0  0  0  0
   -1.7822   -1.1295   -1.2961 H   0  0  0  0  0  0  0  0  0  0  0  0
    0.1723   -0.8047   -0.4691 C   0  0  1  0  0  0  0  0  0  0  0  0
    0.9451   -1.4865   -0.8303 H   0  0  0  0  0  0  0  0  0  0  0  0
    0.1220    0.4954   -1.3067 C   0  0  0  0  0  0  0  0  0  0  0  0
   -0.8773    0.9389   -1.2474 H   0  0  0  0  0  0  0  0  0  0  0  0
    0.8101    1.2115   -0.8422 H   0  0  0  0  0  0  0  0  0  0  0  0
    0.5447    0.3644   -2.7908 C   0  0  0  0  0  0  0  0  0  0  0  0
   -0.2687   -0.1091   -3.3507 H   0  0  0  0  0  0  0  0  0  0  0  0
    0.7922    1.7703   -3.3546 C   0  0  0  0  0  0  0  0  0  0  0  0
    1.6359    2.2508   -2.8481 H   0  0  0  0  0  0  0  0  0  0  0  0
    1.0137    1.7200   -4.4254 H   0  0  0  0  0  0  0  0  0  0  0  0
   -0.0957    2.3960   -3.2203 H   0  0  0  0  0  0  0  0  0  0  0  0
    1.8264   -0.4572   -3.0095 C   0  0  0  0  0  0  0  0  0  0  0  0
    1.6372   -1.5243   -2.8631 H   0  0  0  0  0  0  0  0  0  0  0  0
    2.1941   -0.3294   -4.0325 H   0  0  0  0  0  0  0  0  0  0  0  0
    2.6125   -0.1378   -2.3173 H   0  0  0  0  0  0  0  0  0  0  0  0
    0.5720   -0.4604    0.9845 C   0  0  0  0  0  0  0  0  0  0  0  0
    1.7526   -0.4710    1.3078 O   0  0  0  0  0  0  0  0  0  0  0  0
   -0.3533    0.1153    1.8370 N   0  0  0  0  0  0  0  0  0  0  0  0
   -1.3264    0.0249    1.5655 H   0  0  0  0  0  0  0  0  0  0  0  0
   -0.0402    0.4761    3.2136 C   0  0  0  0  0  0  0  0  0  0  0  0
    0.7767    1.2049    3.2437 H   0  0  0  0  0  0  0  0  0  0  0  0
   -0.9154    0.9208    3.6966 H   0  0  0  0  0  0  0  0  0  0  0  0
    0.2581   -0.4114    3.7817 H   0  0  0  0  0  0  0  0  0  0  0  0
  1  2  1  0  0  0  0
  2  3  1  0  0  0  0
  2  4  1  0  0  0  0
  2  5  1  0  0  0  0
  5  6  2  0  0  0  0
  5  7  1  0  0  0  0
  7  8  1  0  0  0  0
  7  9  1  0  0  0  0
  9 10  1  0  0  0  0
  9 11  1  0  0  0  0
  9 24  1  0  0  0  0
 11 12  1  0  0  0  0
 11 13  1  0  0  0  0
 11 14  1  0  0  0  0
 14 15  1  0  0  0  0
 14 16  1  0  0  0  0
 14 20  1  0  0  0  0
 16 17  1  0  0  0  0
 16 18  1  0  0  0  0
 16 19  1  0  0  0  0
 20 21  1  0  0  0  0
 20 22  1  0  0  0  0
 20 23  1  0  0  0  0
 24 25  2  0  0  0  0
 24 26  1  0  0  0  0
 26 27  1  0  0  0  0
 26 28  1  0  0  0  0
 28 29  1  0  0  0  0
 28 30  1  0  0  0  0
 28 31  1  0  0  0  0
M  END
$$$$

  -OEChem-04042216013D

 31 30  0     1  0  0  0  0  0999 V2000
   -2.8718   -4.2933    0.2345 H   0  0  0  0  0  0  0  0  0  0  0  0
   -2.7952   -3.3336   -0.2846 C   0  0  0  0  0  0  0  0  0  0  0  0
   -3.6166   -2.6910    0.0409 H   0  0  0  0  0  0  0  0  0  0  0  0
   -2.8807   -3.5088   -1.3597 H   0  0  0  0  0  0  0  0  0  0  0  0
   -1.4651   -2.6760    0.0308 C   0  0  0  0  0  0  0  0  0  0  0  0
   -0.7001   -3.2060    0.8158 O   0  0  0  0  0  0  0  0  0  0  0  0
   -1.1371   -1.4768   -0.5713 N   0  0  0  0  0  0  0  0  0  0  0  0
   -1.7696   -1.1471   -1.2941 H   0  0  0  0  0  0  0  0  0  0  0  0
    0.1796   -0.8206   -0.4577 C   0  0  1  0  0  0  0  0  0  0  0  0
    0.9560   -1.5057   -0.8050 H   0  0  0  0  0  0  0  0  0  0  0  0
    0.1324    0.4777   -1.3022 C   0  0  0  0  0  0  0  0  0  0  0  0
   -0.8623    0.9305   -1.2368 H   0  0  0  0  0  0  0  0  0  0  0  0
    0.8243    1.1849   -0.8296 H   0  0  0  0  0  0  0  0  0  0  0  0
    0.5503    0.3701   -2.7949 C   0  0  0  0  0  0  0  0  0  0  0  0
   -0.3470    0.1646   -3.3878 H   0  0  0  0  0  0  0  0  0  0  0  0
    1.1516    1.7090   -3.2455 C   0  0  0  0  0  0  0  0  0  0  0  0
    2.0837    1.9173   -2.7097 H   0  0  0  0  0  0  0  0  0  0  0  0
    1.3660    1.6912   -4.3187 H   0  0  0  0  0  0  0  0  0  0  0  0
    0.4489    2.5256   -3.0516 H   0  0  0  0  0  0  0  0  0  0  0  0
    1.5793   -0.7276   -3.1093 C   0  0  0  0  0  0  0  0  0  0  0  0
    1.1390   -1.7209   -2.9797 H   0  0  0  0  0  0  0  0  0  0  0  0
    1.9155   -0.6505   -4.1480 H   0  0  0  0  0  0  0  0  0  0  0  0
    2.4538   -0.6366   -2.4564 H   0  0  0  0  0  0  0  0  0  0  0  0
    0.5713   -0.4688    0.9966 C   0  0  0  0  0  0  0  0  0  0  0  0
    1.7500   -0.4818    1.3272 O   0  0  0  0  0  0  0  0  0  0  0  0
   -0.3569    0.1159    1.8399 N   0  0  0  0  0  0  0  0  0  0  0  0
   -1.3287    0.0256    1.5636 H   0  0  0  0  0  0  0  0  0  0  0  0
   -0.0505    0.4843    3.2160 C   0  0  0  0  0  0  0  0  0  0  0  0
    0.7686    1.2105    3.2455 H   0  0  0  0  0  0  0  0  0  0  0  0
   -0.9268    0.9353    3.6910 H   0  0  0  0  0  0  0  0  0  0  0  0
    0.2415   -0.4000    3.7923 H   0  0  0  0  0  0  0  0  0  0  0  0
  1  2  1  0  0  0  0
  2  3  1  0  0  0  0
  2  4  1  0  0  0  0
  2  5  1  0  0  0  0
  5  6  2  0  0  0  0
  5  7  1  0  0  0  0
  7  8  1  0  0  0  0
  7  9  1  0  0  0  0
  9 10  1  0  0  0  0
  9 11  1  0  0  0  0
  9 24  1  0  0  0  0
 11 12  1  0  0  0  0
 11 13  1  0  0  0  0
 11 14  1  0  0  0  0
 14 15  1  0  0  0  0
 14 16  1  0  0  0  0
 14 20  1  0  0  0  0
 16 17  1  0  0  0  0
 16 18  1  0  0  0  0
 16 19  1  0  0  0  0
 20 21  1  0  0  0  0
 20 22  1  0  0  0  0
 20 23  1  0  0  0  0
 24 25  2  0  0  0  0
 24 26  1  0  0  0  0
 26 27  1  0  0  0  0
 26 28  1  0  0  0  0
 28 29  1  0  0  0  0
 28 30  1  0  0  0  0
 28 31  1  0  0  0  0
M  END
$$$$

  -OEChem-04042216013D

 31 30  0     1  0  0  0  0  0999 V2000
   -2.8707   -4.2976    0.2414 H   0  0  0  0  0  0  0  0  0  0  0  0
   -2.7923   -3.3385   -0.2786 C   0  0  0  0  0  0  0  0  0  0  0  0
   -3.6161   -2.6964    0.0419 H   0  0  0  0  0  0  0  0  0  0  0  0
   -2.8722   -3.5149   -1.3540 H   0  0  0  0  0  0  0  0  0  0  0  0
   -1.4644   -2.6789    0.0422 C   0  0  0  0  0  0  0  0  0  0  0  0
   -0.7012   -3.2082    0.8292 O   0  0  0  0  0  0  0  0  0  0  0  0
   -1.1349   -1.4807   -0.5612 N   0  0  0  0  0  0  0  0  0  0  0  0
   -1.7642   -1.1546   -1.2883 H   0  0  0  0  0  0  0  0  0  0  0  0
    0.1823   -0.8254   -0.4477 C   0  0  1  0  0  0  0  0  0  0  0  0
    0.9613   -1.5094   -0.7925 H   0  0  0  0  0  0  0  0  0  0  0  0
    0.1399    0.4734   -1.2926 C   0  0  0  0  0  0  0  0  0  0  0  0
   -0.8574    0.9208   -1.2292 H   0  0  0  0  0  0  0  0  0  0  0  0
    0.8208    1.1855   -0.8116 H   0  0  0  0  0  0  0  0  0  0  0  0
    0.5586    0.3761   -2.7896 C   0  0  0  0  0  0  0  0  0  0  0  0
   -0.3521    0.4642   -3.3913 H   0  0  0  0  0  0  0  0  0  0  0  0
    1.4888    1.5440   -3.1466 C   0  0  0  0  0  0  0  0  0  0  0  0
    2.4273    1.4770   -2.5863 H   0  0  0  0  0  0  0  0  0  0  0  0
    1.7224    1.5352   -4.2159 H   0  0  0  0  0  0  0  0  0  0  0  0
    1.0092    2.4992   -2.9103 H   0  0  0  0  0  0  0  0  0  0  0  0
    1.2533   -0.9283   -3.2115 C   0  0  0  0  0  0  0  0  0  0  0  0
    0.5977   -1.7886   -3.0453 H   0  0  0  0  0  0  0  0  0  0  0  0
    1.4997   -0.8985   -4.2775 H   0  0  0  0  0  0  0  0  0  0  0  0
    2.1827   -1.0736   -2.6510 H   0  0  0  0  0  0  0  0  0  0  0  0
    0.5718   -0.4727    1.0073 C   0  0  0  0  0  0  0  0  0  0  0  0
    1.7498   -0.4845    1.3400 O   0  0  0  0  0  0  0  0  0  0  0  0
   -0.3584    0.1132    1.8474 N   0  0  0  0  0  0  0  0  0  0  0  0
   -1.3296    0.0217    1.5693 H   0  0  0  0  0  0  0  0  0  0  0  0
   -0.0545    0.4893    3.2220 C   0  0  0  0  0  0  0  0  0  0  0  0
    0.7653    1.2148    3.2489 H   0  0  0  0  0  0  0  0  0  0  0  0
   -0.9314    0.9441    3.6918 H   0  0  0  0  0  0  0  0  0  0  0  0
    0.2351   -0.3920    3.8039 H   0  0  0  0  0  0  0  0  0  0  0  0
  1  2  1  0  0  0  0
  2  3  1  0  0  0  0
  2  4  1  0  0  0  0
  2  5  1  0  0  0  0
  5  6  2  0  0  0  0
  5  7  1  0  0  0  0
  7  8  1  0  0  0  0
  7  9  1  0  0  0  0
  9 10  1  0  0  0  0
  9 11  1  0  0  0  0
  9 24  1  0  0  0  0
 11 12  1  0  0  0  0
 11 13  1  0  0  0  0
 11 14  1  0  0  0  0
 14 15  1  0  0  0  0
 14 16  1  0  0  0  0
 14 20  1  0  0  0  0
 16 17  1  0  0  0  0
 16 18  1  0  0  0  0
 16 19  1  0  0  0  0
 20 21  1  0  0  0  0
 20 22  1  0  0  0  0
 20 23  1  0  0  0  0
 24 25  2  0  0  0  0
 24 26  1  0  0  0  0
 26 27  1  0  0  0  0
 26 28  1  0  0  0  0
 28 29  1  0  0  0  0
 28 30  1  0  0  0  0
 28 31  1  0  0  0  0
M  END
$$$$

  -OEChem-04042216013D

 31 30  0     1  0  0  0  0  0999 V2000
   -2.8559   -4.3092    0.2410 H   0  0  0  0  0  0  0  0  0  0  0  0
   -2.7847   -3.3469   -0.2744 C   0  0  0  0  0  0  0  0  0  0  0  0
   -3.6114   -2.7113    0.0520 H   0  0  0  0  0  0  0  0  0  0  0  0
   -2.8672   -3.5187   -1.3503 H   0  0  0  0  0  0  0  0  0  0  0  0
   -1.4595   -2.6810    0.0454 C   0  0  0  0  0  0  0  0  0  0  0  0
   -0.6913   -3.2087    0.8286 O   0  0  0  0  0  0  0  0  0  0  0  0
   -1.1364   -1.4803   -0.5566 N   0  0  0  0  0  0  0  0  0  0  0  0
   -1.7700   -1.1538   -1.2799 H   0  0  0  0  0  0  0  0  0  0  0  0
    0.1793   -0.8207   -0.4452 C   0  0  1  0  0  0  0  0  0  0  0  0
    0.9607   -1.4991   -0.7972 H   0  0  0  0  0  0  0  0  0  0  0  0
    0.1436    0.4785   -1.2878 C   0  0  0  0  0  0  0  0  0  0  0  0
   -0.8622    0.9083   -1.2374 H   0  0  0  0  0  0  0  0  0  0  0  0
    0.8037    1.2067   -0.8028 H   0  0  0  0  0  0  0  0  0  0  0  0
    0.5682    0.3755   -2.7830 C   0  0  0  0  0  0  0  0  0  0  0  0
   -0.2697    0.7550   -3.3777 H   0  0  0  0  0  0  0  0  0  0  0  0
    1.7746    1.2836   -3.0568 C   0  0  0  0  0  0  0  0  0  0  0  0
    2.6429    0.9555   -2.4758 H   0  0  0  0  0  0  0  0  0  0  0  0
    2.0387    1.2607   -4.1187 H   0  0  0  0  0  0  0  0  0  0  0  0
    1.5441    2.3187   -2.7853 H   0  0  0  0  0  0  0  0  0  0  0  0
    0.8794   -1.0354   -3.3077 C   0  0  0  0  0  0  0  0  0  0  0  0
    0.0434   -1.7146   -3.1178 H   0  0  0  0  0  0  0  0  0  0  0  0
    1.0475   -1.0037   -4.3888 H   0  0  0  0  0  0  0  0  0  0  0  0
    1.7817   -1.4399   -2.8385 H   0  0  0  0  0  0  0  0  0  0  0  0
    0.5708   -0.4701    1.0098 C   0  0  0  0  0  0  0  0  0  0  0  0
    1.7496   -0.4784    1.3397 O   0  0  0  0  0  0  0  0  0  0  0  0
   -0.3592    0.1109    1.8538 N   0  0  0  0  0  0  0  0  0  0  0  0
   -1.3309    0.0160    1.5790 H   0  0  0  0  0  0  0  0  0  0  0  0
   -0.0524    0.4900    3.2272 C   0  0  0  0  0  0  0  0  0  0  0  0
    0.7653    1.2180    3.2509 H   0  0  0  0  0  0  0  0  0  0  0  0
   -0.9290    0.9431    3.6999 H   0  0  0  0  0  0  0  0  0  0  0  0
    0.2415   -0.3896    3.8093 H   0  0  0  0  0  0  0  0  0  0  0  0
  1  2  1  0  0  0  0
  2  3  1  0  0  0  0
  2  4  1  0  0  0  0
  2  5  1  0  0  0  0
  5  6  2  0  0  0  0
  5  7  1  0  0  0  0
  7  8  1  0  0  0  0
  7  9  1  0  0  0  0
  9 10  1  0  0  0  0
  9 11  1  0  0  0  0
  9 24  1  0  0  0  0
 11 12  1  0  0  0  0
 11 13  1  0  0  0  0
 11 14  1  0  0  0  0
 14 15  1  0  0  0  0
 14 16  1  0  0  0  0
 14 20  1  0  0  0  0
 16 17  1  0  0  0  0
 16 18  1  0  0  0  0
 16 19  1  0  0  0  0
 20 21  1  0  0  0  0
 20 22  1  0  0  0  0
 20 23  1  0  0  0  0
 24 25  2  0  0  0  0
 24 26  1  0  0  0  0
 26 27  1  0  0  0  0
 26 28  1  0  0  0  0
 28 29  1  0  0  0  0
 28 30  1  0  0  0  0
 28 31  1  0  0  0  0
M  END
$$$$

  -OEChem-04042216013D

 31 30  0     1  0  0  0  0  0999 V2000
   -2.8364   -4.3167    0.2437 H   0  0  0  0  0  0  0  0  0  0  0  0
   -2.7754   -3.3525   -0.2692 C   0  0  0  0  0  0  0  0  0  0  0  0
   -3.6018   -2.7220    0.0671 H   0  0  0  0  0  0  0  0  0  0  0  0
   -2.8676   -3.5216   -1.3446 H   0  0  0  0  0  0  0  0  0  0  0  0
   -1.4507   -2.6809    0.0402 C   0  0  0  0  0  0  0  0  0  0  0  0
   -0.6720   -3.2080    0.8135 O   0  0  0  0  0  0  0  0  0  0  0  0
   -1.1404   -1.4751   -0.5578 N   0  0  0  0  0  0  0  0  0  0  0  0
   -1.7821   -1.1475   -1.2734 H   0  0  0  0  0  0  0  0  0  0  0  0
    0.1717   -0.8068   -0.4519 C   0  0  1  0  0  0  0  0  0  0  0  0
    0.9557   -1.4764   -0.8167 H   0  0  0  0  0  0  0  0  0  0  0  0
    0.1390    0.4924   -1.2913 C   0  0  0  0  0  0  0  0  0  0  0  0
   -0.8743    0.9053   -1.2545 H   0  0  0  0  0  0  0  0  0  0  0  0
    0.7843    1.2368   -0.8104 H   0  0  0  0  0  0  0  0  0  0  0  0
    0.5695    0.3677   -2.7797 C   0  0  0  0  0  0  0  0  0  0  0  0
   -0.1170    0.9970   -3.3565 H   0  0  0  0  0  0  0  0  0  0  0  0
    1.9743    0.9498   -2.9782 C   0  0  0  0  0  0  0  0  0  0  0  0
    2.7078    0.3881   -2.3904 H   0  0  0  0  0  0  0  0  0  0  0  0
    2.2633    0.9015   -4.0328 H   0  0  0  0  0  0  0  0  0  0  0  0
    2.0050    1.9980   -2.6643 H   0  0  0  0  0  0  0  0  0  0  0  0
    0.4950   -1.0410   -3.3911 C   0  0  0  0  0  0  0  0  0  0  0  0
   -0.4926   -1.4820   -3.2295 H   0  0  0  0  0  0  0  0  0  0  0  0
    0.6672   -0.9868   -4.4706 H   0  0  0  0  0  0  0  0  0  0  0  0
    1.2548   -1.7024   -2.9646 H   0  0  0  0  0  0  0  0  0  0  0  0
    0.5716   -0.4604    1.0015 C   0  0  0  0  0  0  0  0  0  0  0  0
    1.7529   -0.4616    1.3227 O   0  0  0  0  0  0  0  0  0  0  0  0
   -0.3561    0.1101    1.8552 N   0  0  0  0  0  0  0  0  0  0  0  0
   -1.3292    0.0098    1.5870 H   0  0  0  0  0  0  0  0  0  0  0  0
   -0.0418    0.4795    3.2294 C   0  0  0  0  0  0  0  0  0  0  0  0
    0.7717    1.2123    3.2534 H   0  0  0  0  0  0  0  0  0  0  0  0
   -0.9179    0.9228    3.7119 H   0  0  0  0  0  0  0  0  0  0  0  0
    0.2618   -0.4033    3.8018 H   0  0  0  0  0  0  0  0  0  0  0  0
  1  2  1  0  0  0  0
  2  3  1  0  0  0  0
  2  4  1  0  0  0  0
  2  5  1  0  0  0  0
  5  6  2  0  0  0  0
  5  7  1  0  0  0  0
  7  8  1  0  0  0  0
  7  9  1  0  0  0  0
  9 10  1  0  0  0  0
  9 11  1  0  0  0  0
  9 24  1  0  0  0  0
 11 12  1  0  0  0  0
 11 13  1  0  0  0  0
 11 14  1  0  0  0  0
 14 15  1  0  0  0  0
 14 16  1  0  0  0  0
 14 20  1  0  0  0  0
 16 17  1  0  0  0  0
 16 18  1  0  0  0  0
 16 19  1  0  0  0  0
 20 21  1  0  0  0  0
 20 22  1  0  0  0  0
 20 23  1  0  0  0  0
 24 25  2  0  0  0  0
 24 26  1  0  0  0  0
 26 27  1  0  0  0  0
 26 28  1  0  0  0  0
 28 29  1  0  0  0  0
 28 30  1  0  0  0  0
 28 31  1  0  0  0  0
M  END
$$$$

  -OEChem-04042216013D

 31 30  0     1  0  0  0  0  0999 V2000
   -2.8221   -4.3252    0.2257 H   0  0  0  0  0  0  0  0  0  0  0  0
   -2.7699   -3.3563   -0.2794 C   0  0  0  0  0  0  0  0  0  0  0  0
   -3.5969   -2.7333    0.0695 H   0  0  0  0  0  0  0  0  0  0  0  0
   -2.8700   -3.5163   -1.3555 H   0  0  0  0  0  0  0  0  0  0  0  0
   -1.4465   -2.6799    0.0249 C   0  0  0  0  0  0  0  0  0  0  0  0
   -0.6592   -3.2084    0.7883 O   0  0  0  0  0  0  0  0  0  0  0  0
   -1.1488   -1.4666   -0.5645 N   0  0  0  0  0  0  0  0  0  0  0  0
   -1.7963   -1.1390   -1.2746 H   0  0  0  0  0  0  0  0  0  0  0  0
    0.1600   -0.7911   -0.4635 C   0  0  1  0  0  0  0  0  0  0  0  0
    0.9417   -1.4551   -0.8462 H   0  0  0  0  0  0  0  0  0  0  0  0
    0.1257    0.5107   -1.2976 C   0  0  0  0  0  0  0  0  0  0  0  0
   -0.8894    0.9195   -1.2671 H   0  0  0  0  0  0  0  0  0  0  0  0
    0.7713    1.2603   -0.8259 H   0  0  0  0  0  0  0  0  0  0  0  0
    0.5588    0.3625   -2.7779 C   0  0  0  0  0  0  0  0  0  0  0  0
    0.0734    1.1742   -3.3306 H   0  0  0  0  0  0  0  0  0  0  0  0
    2.0705    0.5798   -2.9160 C   0  0  0  0  0  0  0  0  0  0  0  0
    2.6212   -0.1798   -2.3519 H   0  0  0  0  0  0  0  0  0  0  0  0
    2.3708    0.5173   -3.9666 H   0  0  0  0  0  0  0  0  0  0  0  0
    2.3545    1.5670   -2.5378 H   0  0  0  0  0  0  0  0  0  0  0  0
    0.1370   -0.9528   -3.4505 C   0  0  0  0  0  0  0  0  0  0  0  0
   -0.9394   -1.1112   -3.3383 H   0  0  0  0  0  0  0  0  0  0  0  0
    0.3647   -0.9149   -4.5205 H   0  0  0  0  0  0  0  0  0  0  0  0
    0.6671   -1.8095   -3.0241 H   0  0  0  0  0  0  0  0  0  0  0  0
    0.5743   -0.4540    0.9871 C   0  0  0  0  0  0  0  0  0  0  0  0
    1.7593   -0.4498    1.2942 O   0  0  0  0  0  0  0  0  0  0  0  0
   -0.3472    0.1039    1.8554 N   0  0  0  0  0  0  0  0  0  0  0  0
   -1.3228   -0.0008    1.5979 H   0  0  0  0  0  0  0  0  0  0  0  0
   -0.0191    0.4670    3.2279 C   0  0  0  0  0  0  0  0  0  0  0  0
    0.7924    1.2022    3.2463 H   0  0  0  0  0  0  0  0  0  0  0  0
   -0.8914    0.9054    3.7219 H   0  0  0  0  0  0  0  0  0  0  0  0
    0.2936   -0.4178    3.7926 H   0  0  0  0  0  0  0  0  0  0  0  0
  1  2  1  0  0  0  0
  2  3  1  0  0  0  0
  2  4  1  0  0  0  0
  2  5  1  0  0  0  0
  5  6  2  0  0  0  0
  5  7  1  0  0  0  0
  7  8  1  0  0  0  0
  7  9  1  0  0  0  0
  9 10  1  0  0  0  0
  9 11  1  0  0  0  0
  9 24  1  0  0  0  0
 11 12  1  0  0  0  0
 11 13  1  0  0  0  0
 11 14  1  0  0  0  0
 14 15  1  0  0  0  0
 14 16  1  0  0  0  0
 14 20  1  0  0  0  0
 16 17  1  0  0  0  0
 16 18  1  0  0  0  0
 16 19  1  0  0  0  0
 20 21  1  0  0  0  0
 20 22  1  0  0  0  0
 20 23  1  0  0  0  0
 24 25  2  0  0  0  0
 24 26  1  0  0  0  0
 26 27  1  0  0  0  0
 26 28  1  0  0  0  0
 28 29  1  0  0  0  0
 28 30  1  0  0  0  0
 28 31  1  0  0  0  0
M  END
$$$$

  -OEChem-04042216013D

 31 30  0     1  0  0  0  0  0999 V2000
   -2.8257   -4.3192    0.2142 H   0  0  0  0  0  0  0  0  0  0  0  0
   -2.7736   -3.3521   -0.2943 C   0  0  0  0  0  0  0  0  0  0  0  0
   -3.6041   -2.7298    0.0474 H   0  0  0  0  0  0  0  0  0  0  0  0
   -2.8673   -3.5166   -1.3703 H   0  0  0  0  0  0  0  0  0  0  0  0
   -1.4531   -2.6719    0.0140 C   0  0  0  0  0  0  0  0  0  0  0  0
   -0.6618   -3.2032    0.7715 O   0  0  0  0  0  0  0  0  0  0  0  0
   -1.1590   -1.4548   -0.5692 N   0  0  0  0  0  0  0  0  0  0  0  0
   -1.8096   -1.1225   -1.2744 H   0  0  0  0  0  0  0  0  0  0  0  0
    0.1503   -0.7804   -0.4692 C   0  0  1  0  0  0  0  0  0  0  0  0
    0.9211   -1.4506   -0.8626 H   0  0  0  0  0  0  0  0  0  0  0  0
    0.1134    0.5213   -1.3036 C   0  0  0  0  0  0  0  0  0  0  0  0
   -0.8967    0.9417   -1.2678 H   0  0  0  0  0  0  0  0  0  0  0  0
    0.7750    1.2635   -0.8421 H   0  0  0  0  0  0  0  0  0  0  0  0
    0.5457    0.3639   -2.7801 C   0  0  0  0  0  0  0  0  0  0  0  0
    0.2741    1.2921   -3.2947 H   0  0  0  0  0  0  0  0  0  0  0  0
    2.0684    0.2087   -2.8944 C   0  0  0  0  0  0  0  0  0  0  0  0
    2.4075   -0.7174   -2.4209 H   0  0  0  0  0  0  0  0  0  0  0  0
    2.3690    0.1865   -3.9465 H   0  0  0  0  0  0  0  0  0  0  0  0
    2.5761    1.0498   -2.4121 H   0  0  0  0  0  0  0  0  0  0  0  0
   -0.1618   -0.7894   -3.5049 C   0  0  0  0  0  0  0  0  0  0  0  0
   -1.2472   -0.6925   -3.4072 H   0  0  0  0  0  0  0  0  0  0  0  0
    0.0880   -0.7722   -4.5704 H   0  0  0  0  0  0  0  0  0  0  0  0
    0.1441   -1.7592   -3.1003 H   0  0  0  0  0  0  0  0  0  0  0  0
    0.5756   -0.4506    0.9800 C   0  0  0  0  0  0  0  0  0  0  0  0
    1.7627   -0.4521    1.2792 O   0  0  0  0  0  0  0  0  0  0  0  0
   -0.3388    0.1037    1.8579 N   0  0  0  0  0  0  0  0  0  0  0  0
   -1.3161    0.0042    1.6046 H   0  0  0  0  0  0  0  0  0  0  0  0
   -0.0028    0.4509    3.2328 C   0  0  0  0  0  0  0  0  0  0  0  0
    0.8070    1.1878    3.2560 H   0  0  0  0  0  0  0  0  0  0  0  0
   -0.8731    0.8806    3.7375 H   0  0  0  0  0  0  0  0  0  0  0  0
    0.3152   -0.4400    3.7848 H   0  0  0  0  0  0  0  0  0  0  0  0
  1  2  1  0  0  0  0
  2  3  1  0  0  0  0
  2  4  1  0  0  0  0
  2  5  1  0  0  0  0
  5  6  2  0  0  0  0
  5  7  1  0  0  0  0
  7  8  1  0  0  0  0
  7  9  1  0  0  0  0
  9 10  1  0  0  0  0
  9 11  1  0  0  0  0
  9 24  1  0  0  0  0
 11 12  1  0  0  0  0
 11 13  1  0  0  0  0
 11 14  1  0  0  0  0
 14 15  1  0  0  0  0
 14 16  1  0  0  0  0
 14 20  1  0  0  0  0
 16 17  1  0  0  0  0
 16 18  1  0  0  0  0
 16 19  1  0  0  0  0
 20 21  1  0  0  0  0
 20 22  1  0  0  0  0
 20 23  1  0  0  0  0
 24 25  2  0  0  0  0
 24 26  1  0  0  0  0
 26 27  1  0  0  0  0
 26 28  1  0  0  0  0
 28 29  1  0  0  0  0
 28 30  1  0  0  0  0
 28 31  1  0  0  0  0
M  END
$$$$

  -OEChem-04042216013D

 31 30  0     1  0  0  0  0  0999 V2000
   -2.8410   -4.3256    0.1952 H   0  0  0  0  0  0  0  0  0  0  0  0
   -2.7812   -3.3583   -0.3121 C   0  0  0  0  0  0  0  0  0  0  0  0
   -3.6190   -2.7377    0.0147 H   0  0  0  0  0  0  0  0  0  0  0  0
   -2.8555   -3.5230   -1.3897 H   0  0  0  0  0  0  0  0  0  0  0  0
   -1.4676   -2.6758    0.0203 C   0  0  0  0  0  0  0  0  0  0  0  0
   -0.6924   -3.2028    0.7971 O   0  0  0  0  0  0  0  0  0  0  0  0
   -1.1611   -1.4625   -0.5644 N   0  0  0  0  0  0  0  0  0  0  0  0
   -1.7958   -1.1384   -1.2879 H   0  0  0  0  0  0  0  0  0  0  0  0
    0.1520   -0.7972   -0.4586 C   0  0  1  0  0  0  0  0  0  0  0  0
    0.9170   -1.4760   -0.8436 H   0  0  0  0  0  0  0  0  0  0  0  0
    0.1138    0.5052   -1.2939 C   0  0  0  0  0  0  0  0  0  0  0  0
   -0.8874    0.9452   -1.2419 H   0  0  0  0  0  0  0  0  0  0  0  0
    0.7956    1.2312   -0.8363 H   0  0  0  0  0  0  0  0  0  0  0  0
    0.5409    0.3677   -2.7736 C   0  0  0  0  0  0  0  0  0  0  0  0
    0.4936    1.3691   -3.2152 H   0  0  0  0  0  0  0  0  0  0  0  0
    1.9822   -0.1407   -2.9276 C   0  0  0  0  0  0  0  0  0  0  0  0
    2.0680   -1.1982   -2.6625 H   0  0  0  0  0  0  0  0  0  0  0  0
    2.3098   -0.0264   -3.9656 H   0  0  0  0  0  0  0  0  0  0  0  0
    2.6601    0.4348   -2.2892 H   0  0  0  0  0  0  0  0  0  0  0  0
   -0.4114   -0.5408   -3.5610 C   0  0  0  0  0  0  0  0  0  0  0  0
   -1.4448   -0.1982   -3.4507 H   0  0  0  0  0  0  0  0  0  0  0  0
   -0.1560   -0.5212   -4.6252 H   0  0  0  0  0  0  0  0  0  0  0  0
   -0.3444   -1.5760   -3.2128 H   0  0  0  0  0  0  0  0  0  0  0  0
    0.5748   -0.4644    0.9906 C   0  0  0  0  0  0  0  0  0  0  0  0
    1.7618   -0.4667    1.2901 O   0  0  0  0  0  0  0  0  0  0  0  0
   -0.3380    0.1003    1.8636 N   0  0  0  0  0  0  0  0  0  0  0  0
   -1.3159    0.0002    1.6130 H   0  0  0  0  0  0  0  0  0  0  0  0
    0.0023    0.4704    3.2314 C   0  0  0  0  0  0  0  0  0  0  0  0
    0.8154    1.2039    3.2390 H   0  0  0  0  0  0  0  0  0  0  0  0
   -0.8645    0.9138    3.7304 H   0  0  0  0  0  0  0  0  0  0  0  0
    0.3176   -0.4116    3.7986 H   0  0  0  0  0  0  0  0  0  0  0  0
  1  2  1  0  0  0  0
  2  3  1  0  0  0  0
  2  4  1  0  0  0  0
  2  5  1  0  0  0  0
  5  6  2  0  0  0  0
  5  7  1  0  0  0  0
  7  8  1  0  0  0  0
  7  9  1  0  0  0  0
  9 10  1  0  0  0  0
  9 11  1  0  0  0  0
  9 24  1  0  0  0  0
 11 12  1  0  0  0  0
 11 13  1  0  0  0  0
 11 14  1  0  0  0  0
 14 15  1  0  0  0  0
 14 16  1  0  0  0  0
 14 20  1  0  0  0  0
 16 17  1  0  0  0  0
 16 18  1  0  0  0  0
 16 19  1  0  0  0  0
 20 21  1  0  0  0  0
 20 22  1  0  0  0  0
 20 23  1  0  0  0  0
 24 25  2  0  0  0  0
 24 26  1  0  0  0  0
 26 27  1  0  0  0  0
 26 28  1  0  0  0  0
 28 29  1  0  0  0  0
 28 30  1  0  0  0  0
 28 31  1  0  0  0  0
M  END
$$$$

  -OEChem-04042216013D

 31 30  0     1  0  0  0  0  0999 V2000
   -2.8556   -4.3146    0.2174 H   0  0  0  0  0  0  0  0  0  0  0  0
   -2.7887   -3.3485   -0.2910 C   0  0  0  0  0  0  0  0  0  0  0  0
   -3.6156   -2.7175    0.0429 H   0  0  0  0  0  0  0  0  0  0  0  0
   -2.8746   -3.5125   -1.3677 H   0  0  0  0  0  0  0  0  0  0  0  0
   -1.4642   -2.6815    0.0289 C   0  0  0  0  0  0  0  0  0  0  0  0
   -0.6912   -3.2130    0.8048 O   0  0  0  0  0  0  0  0  0  0  0  0
   -1.1479   -1.4743   -0.5629 N   0  0  0  0  0  0  0  0  0  0  0  0
   -1.7828   -1.1458   -1.2841 H   0  0  0  0  0  0  0  0  0  0  0  0
    0.1665   -0.8132   -0.4544 C   0  0  1  0  0  0  0  0  0  0  0  0
    0.9356   -1.4954   -0.8231 H   0  0  0  0  0  0  0  0  0  0  0  0
    0.1228    0.4888   -1.2918 C   0  0  0  0  0  0  0  0  0  0  0  0
   -0.8696    0.9456   -1.2187 H   0  0  0  0  0  0  0  0  0  0  0  0
    0.8229    1.1994   -0.8374 H   0  0  0  0  0  0  0  0  0  0  0  0
    0.5427    0.3730   -2.7779 C   0  0  0  0  0  0  0  0  0  0  0  0
    0.7260    1.3896   -3.1428 H   0  0  0  0  0  0  0  0  0  0  0  0
    1.8210   -0.4484   -3.0052 C   0  0  0  0  0  0  0  0  0  0  0  0
    1.6405   -1.5193   -2.8736 H   0  0  0  0  0  0  0  0  0  0  0  0
    2.1881   -0.2930   -4.0244 H   0  0  0  0  0  0  0  0  0  0  0  0
    2.6041   -0.1344   -2.3075 H   0  0  0  0  0  0  0  0  0  0  0  0
   -0.5920   -0.2331   -3.6136 C   0  0  0  0  0  0  0  0  0  0  0  0
   -1.5116    0.3471   -3.4894 H   0  0  0  0  0  0  0  0  0  0  0  0
   -0.3245   -0.2256   -4.6750 H   0  0  0  0  0  0  0  0  0  0  0  0
   -0.7873   -1.2678   -3.3164 H   0  0  0  0  0  0  0  0  0  0  0  0
    0.5752   -0.4734    0.9976 C   0  0  0  0  0  0  0  0  0  0  0  0
    1.7585   -0.4806    1.3118 O   0  0  0  0  0  0  0  0  0  0  0  0
   -0.3454    0.0992    1.8571 N   0  0  0  0  0  0  0  0  0  0  0  0
   -1.3203    0.0040    1.5931 H   0  0  0  0  0  0  0  0  0  0  0  0
   -0.0227    0.4638    3.2306 C   0  0  0  0  0  0  0  0  0  0  0  0
    0.7938    1.1932    3.2520 H   0  0  0  0  0  0  0  0  0  0  0  0
   -0.8946    0.9097    3.7182 H   0  0  0  0  0  0  0  0  0  0  0  0
    0.2802   -0.4213    3.7999 H   0  0  0  0  0  0  0  0  0  0  0  0
  1  2  1  0  0  0  0
  2  3  1  0  0  0  0
  2  4  1  0  0  0  0
  2  5  1  0  0  0  0
  5  6  2  0  0  0  0
  5  7  1  0  0  0  0
  7  8  1  0  0  0  0
  7  9  1  0  0  0  0
  9 10  1  0  0  0  0
  9 11  1  0  0  0  0
  9 24  1  0  0  0  0
 11 12  1  0  0  0  0
 11 13  1  0  0  0  0
 11 14  1  0  0  0  0
 14 15  1  0  0  0  0
 14 16  1  0  0  0  0
 14 20  1  0  0  0  0
 16 17  1  0  0  0  0
 16 18  1  0  0  0  0
 16 19  1  0  0  0  0
 20 21  1  0  0  0  0
 20 22  1  0  0  0  0
 20 23  1  0  0  0  0
 24 25  2  0  0  0  0
 24 26  1  0  0  0  0
 26 27  1  0  0  0  0
 26 28  1  0  0  0  0
 28 29  1  0  0  0  0
 28 30  1  0  0  0  0
 28 31  1  0  0  0  0
M  END
$$$$

  -OEChem-04042216013D

 31 30  0     1  0  0  0  0  0999 V2000
   -2.8717   -4.3106    0.2235 H   0  0  0  0  0  0  0  0  0  0  0  0
   -2.7959   -3.3477   -0.2897 C   0  0  0  0  0  0  0  0  0  0  0  0
   -3.6225   -2.7107    0.0340 H   0  0  0  0  0  0  0  0  0  0  0  0
   -2.8738   -3.5174   -1.3664 H   0  0  0  0  0  0  0  0  0  0  0  0
   -1.4705   -2.6857    0.0376 C   0  0  0  0  0  0  0  0  0  0  0  0
   -0.7082   -3.2158    0.8250 O   0  0  0  0  0  0  0  0  0  0  0  0
   -1.1422   -1.4843   -0.5597 N   0  0  0  0  0  0  0  0  0  0  0  0
   -1.7717   -1.1542   -1.2849 H   0  0  0  0  0  0  0  0  0  0  0  0
    0.1755   -0.8307   -0.4472 C   0  0  1  0  0  0  0  0  0  0  0  0
    0.9478   -1.5161   -0.8033 H   0  0  0  0  0  0  0  0  0  0  0  0
    0.1309    0.4720   -1.2851 C   0  0  0  0  0  0  0  0  0  0  0  0
   -0.8535    0.9426   -1.1917 H   0  0  0  0  0  0  0  0  0  0  0  0
    0.8444    1.1697   -0.8313 H   0  0  0  0  0  0  0  0  0  0  0  0
    0.5449    0.3757   -2.7778 C   0  0  0  0  0  0  0  0  0  0  0  0
    0.9633    1.3462   -3.0668 H   0  0  0  0  0  0  0  0  0  0  0  0
    1.5868   -0.7055   -3.1010 C   0  0  0  0  0  0  0  0  0  0  0  0
    1.1658   -1.7103   -2.9950 H   0  0  0  0  0  0  0  0  0  0  0  0
    1.9365   -0.5927   -4.1320 H   0  0  0  0  0  0  0  0  0  0  0  0
    2.4518   -0.6109   -2.4367 H   0  0  0  0  0  0  0  0  0  0  0  0
   -0.6955    0.1182   -3.6433 C   0  0  0  0  0  0  0  0  0  0  0  0
   -1.4377    0.9087   -3.4953 H   0  0  0  0  0  0  0  0  0  0  0  0
   -0.4222    0.1033   -4.7032 H   0  0  0  0  0  0  0  0  0  0  0  0
   -1.1530   -0.8433   -3.3910 H   0  0  0  0  0  0  0  0  0  0  0  0
    0.5741   -0.4855    1.0068 C   0  0  0  0  0  0  0  0  0  0  0  0
    1.7543   -0.4989    1.3316 O   0  0  0  0  0  0  0  0  0  0  0  0
   -0.3498    0.0972    1.8559 N   0  0  0  0  0  0  0  0  0  0  0  0
   -1.3231    0.0040    1.5860 H   0  0  0  0  0  0  0  0  0  0  0  0
   -0.0356    0.4686    3.2296 C   0  0  0  0  0  0  0  0  0  0  0  0
    0.7835    1.1951    3.2527 H   0  0  0  0  0  0  0  0  0  0  0  0
   -0.9095    0.9205    3.7084 H   0  0  0  0  0  0  0  0  0  0  0  0
    0.2598   -0.4146    3.8056 H   0  0  0  0  0  0  0  0  0  0  0  0
  1  2  1  0  0  0  0
  2  3  1  0  0  0  0
  2  4  1  0  0  0  0
  2  5  1  0  0  0  0
  5  6  2  0  0  0  0
  5  7  1  0  0  0  0
  7  8  1  0  0  0  0
  7  9  1  0  0  0  0
  9 10  1  0  0  0  0
  9 11  1  0  0  0  0
  9 24  1  0  0  0  0
 11 12  1  0  0  0  0
 11 13  1  0  0  0  0
 11 14  1  0  0  0  0
 14 15  1  0  0  0  0
 14 16  1  0  0  0  0
 14 20  1  0  0  0  0
 16 17  1  0  0  0  0
 16 18  1  0  0  0  0
 16 19  1  0  0  0  0
 20 21  1  0  0  0  0
 20 22  1  0  0  0  0
 20 23  1  0  0  0  0
 24 25  2  0  0  0  0
 24 26  1  0  0  0  0
 26 27  1  0  0  0  0
 26 28  1  0  0  0  0
 28 29  1  0  0  0  0
 28 30  1  0  0  0  0
 28 31  1  0  0  0  0
M  END
$$$$

  -OEChem-04042216013D

 31 30  0     1  0  0  0  0  0999 V2000
   -2.8750   -4.3159    0.2272 H   0  0  0  0  0  0  0  0  0  0  0  0
   -2.8007   -3.3508   -0.2821 C   0  0  0  0  0  0  0  0  0  0  0  0
   -3.6253   -2.7145    0.0475 H   0  0  0  0  0  0  0  0  0  0  0  0
   -2.8826   -3.5156   -1.3591 H   0  0  0  0  0  0  0  0  0  0  0  0
   -1.4740   -2.6908    0.0434 C   0  0  0  0  0  0  0  0  0  0  0  0
   -0.7127   -3.2210    0.8318 O   0  0  0  0  0  0  0  0  0  0  0  0
   -1.1423   -1.4919   -0.5575 N   0  0  0  0  0  0  0  0  0  0  0  0
   -1.7680   -1.1653   -1.2875 H   0  0  0  0  0  0  0  0  0  0  0  0
    0.1769   -0.8411   -0.4447 C   0  0  1  0  0  0  0  0  0  0  0  0
    0.9521   -1.5266   -0.7947 H   0  0  0  0  0  0  0  0  0  0  0  0
    0.1343    0.4614   -1.2829 C   0  0  0  0  0  0  0  0  0  0  0  0
   -0.8498    0.9308   -1.1809 H   0  0  0  0  0  0  0  0  0  0  0  0
    0.8468    1.1593   -0.8281 H   0  0  0  0  0  0  0  0  0  0  0  0
    0.5466    0.3714   -2.7801 C   0  0  0  0  0  0  0  0  0  0  0  0
    1.1979    1.2250   -2.9979 H   0  0  0  0  0  0  0  0  0  0  0  0
    1.2935   -0.9045   -3.1980 C   0  0  0  0  0  0  0  0  0  0  0  0
    0.6673   -1.7922   -3.0622 H   0  0  0  0  0  0  0  0  0  0  0  0
    1.5787   -0.8471   -4.2532 H   0  0  0  0  0  0  0  0  0  0  0  0
    2.2092   -1.0202   -2.6094 H   0  0  0  0  0  0  0  0  0  0  0  0
   -0.7051    0.4988   -3.6588 C   0  0  0  0  0  0  0  0  0  0  0  0
   -1.2175    1.4454   -3.4600 H   0  0  0  0  0  0  0  0  0  0  0  0
   -0.4321    0.4779   -4.7187 H   0  0  0  0  0  0  0  0  0  0  0  0
   -1.4003   -0.3233   -3.4631 H   0  0  0  0  0  0  0  0  0  0  0  0
    0.5701   -0.4934    1.0102 C   0  0  0  0  0  0  0  0  0  0  0  0
    1.7492   -0.5063    1.3392 O   0  0  0  0  0  0  0  0  0  0  0  0
   -0.3564    0.0932    1.8539 N   0  0  0  0  0  0  0  0  0  0  0  0
   -1.3290    0.0015    1.5806 H   0  0  0  0  0  0  0  0  0  0  0  0
   -0.0461    0.4735    3.2258 C   0  0  0  0  0  0  0  0  0  0  0  0
    0.7775    1.1949    3.2467 H   0  0  0  0  0  0  0  0  0  0  0  0
   -0.9192    0.9349    3.6967 H   0  0  0  0  0  0  0  0  0  0  0  0
    0.2411   -0.4068    3.8104 H   0  0  0  0  0  0  0  0  0  0  0  0
  1  2  1  0  0  0  0
  2  3  1  0  0  0  0
  2  4  1  0  0  0  0
  2  5  1  0  0  0  0
  5  6  2  0  0  0  0
  5  7  1  0  0  0  0
  7  8  1  0  0  0  0
  7  9  1  0  0  0  0
  9 10  1  0  0  0  0
  9 11  1  0  0  0  0
  9 24  1  0  0  0  0
 11 12  1  0  0  0  0
 11 13  1  0  0  0  0
 11 14  1  0  0  0  0
 14 15  1  0  0  0  0
 14 16  1  0  0  0  0
 14 20  1  0  0  0  0
 16 17  1  0  0  0  0
 16 18  1  0  0  0  0
 16 19  1  0  0  0  0
 20 21  1  0  0  0  0
 20 22  1  0  0  0  0
 20 23  1  0  0  0  0
 24 25  2  0  0  0  0
 24 26  1  0  0  0  0
 26 27  1  0  0  0  0
 26 28  1  0  0  0  0
 28 29  1  0  0  0  0
 28 30  1  0  0  0  0
 28 31  1  0  0  0  0
M  END
$$$$

  -OEChem-04042216013D

 31 30  0     1  0  0  0  0  0999 V2000
   -2.8760   -4.3148    0.2505 H   0  0  0  0  0  0  0  0  0  0  0  0
   -2.8033   -3.3515   -0.2625 C   0  0  0  0  0  0  0  0  0  0  0  0
   -3.6236   -2.7120    0.0718 H   0  0  0  0  0  0  0  0  0  0  0  0
   -2.8942   -3.5197   -1.3383 H   0  0  0  0  0  0  0  0  0  0  0  0
   -1.4727   -2.6936    0.0500 C   0  0  0  0  0  0  0  0  0  0  0  0
   -0.7056   -3.2228    0.8334 O   0  0  0  0  0  0  0  0  0  0  0  0
   -1.1462   -1.4954   -0.5546 N   0  0  0  0  0  0  0  0  0  0  0  0
   -1.7778   -1.1689   -1.2797 H   0  0  0  0  0  0  0  0  0  0  0  0
    0.1715   -0.8401   -0.4481 C   0  0  1  0  0  0  0  0  0  0  0  0
    0.9498   -1.5211   -0.8008 H   0  0  0  0  0  0  0  0  0  0  0  0
    0.1270    0.4592   -1.2898 C   0  0  0  0  0  0  0  0  0  0  0  0
   -0.8677    0.9075   -1.1938 H   0  0  0  0  0  0  0  0  0  0  0  0
    0.8227    1.1738   -0.8350 H   0  0  0  0  0  0  0  0  0  0  0  0
    0.5385    0.3631   -2.7887 C   0  0  0  0  0  0  0  0  0  0  0  0
    1.3967    1.0276   -2.9391 H   0  0  0  0  0  0  0  0  0  0  0  0
    0.9529   -1.0293   -3.2917 C   0  0  0  0  0  0  0  0  0  0  0  0
    0.1555   -1.7603   -3.1267 H   0  0  0  0  0  0  0  0  0  0  0  0
    1.1694   -0.9959   -4.3641 H   0  0  0  0  0  0  0  0  0  0  0  0
    1.8604   -1.3683   -2.7828 H   0  0  0  0  0  0  0  0  0  0  0  0
   -0.6095    0.8771   -3.6679 C   0  0  0  0  0  0  0  0  0  0  0  0
   -0.8745    1.9021   -3.3896 H   0  0  0  0  0  0  0  0  0  0  0  0
   -0.3143    0.8781   -4.7220 H   0  0  0  0  0  0  0  0  0  0  0  0
   -1.4953    0.2439   -3.5559 H   0  0  0  0  0  0  0  0  0  0  0  0
    0.5672   -0.4884    1.0053 C   0  0  0  0  0  0  0  0  0  0  0  0
    1.7469   -0.4982    1.3323 O   0  0  0  0  0  0  0  0  0  0  0  0
   -0.3592    0.0967    1.8504 N   0  0  0  0  0  0  0  0  0  0  0  0
   -1.3316    0.0006    1.5781 H   0  0  0  0  0  0  0  0  0  0  0  0
   -0.0501    0.4682    3.2253 C   0  0  0  0  0  0  0  0  0  0  0  0
    0.7707    1.1927    3.2522 H   0  0  0  0  0  0  0  0  0  0  0  0
   -0.9253    0.9224    3.6997 H   0  0  0  0  0  0  0  0  0  0  0  0
    0.2405   -0.4153    3.8033 H   0  0  0  0  0  0  0  0  0  0  0  0
  1  2  1  0  0  0  0
  2  3  1  0  0  0  0
  2  4  1  0  0  0  0
  2  5  1  0  0  0  0
  5  6  2  0  0  0  0
  5  7  1  0  0  0  0
  7  8  1  0  0  0  0
  7  9  1  0  0  0  0
  9 10  1  0  0  0  0
  9 11  1  0  0  0  0
  9 24  1  0  0  0  0
 11 12  1  0  0  0  0
 11 13  1  0  0  0  0
 11 14  1  0  0  0  0
 14 15  1  0  0  0  0
 14 16  1  0  0  0  0
 14 20  1  0  0  0  0
 16 17  1  0  0  0  0
 16 18  1  0  0  0  0
 16 19  1  0  0  0  0
 20 21  1  0  0  0  0
 20 22  1  0  0  0  0
 20 23  1  0  0  0  0
 24 25  2  0  0  0  0
 24 26  1  0  0  0  0
 26 27  1  0  0  0  0
 26 28  1  0  0  0  0
 28 29  1  0  0  0  0
 28 30  1  0  0  0  0
 28 31  1  0  0  0  0
M  END
$$$$

  -OEChem-04042216013D

 31 30  0     1  0  0  0  0  0999 V2000
   -2.8600   -4.3337    0.2604 H   0  0  0  0  0  0  0  0  0  0  0  0
   -2.8019   -3.3693   -0.2524 C   0  0  0  0  0  0  0  0  0  0  0  0
   -3.6262   -2.7392    0.0897 H   0  0  0  0  0  0  0  0  0  0  0  0
   -2.9006   -3.5376   -1.3275 H   0  0  0  0  0  0  0  0  0  0  0  0
   -1.4753   -2.6980    0.0499 C   0  0  0  0  0  0  0  0  0  0  0  0
   -0.6961   -3.2226    0.8243 O   0  0  0  0  0  0  0  0  0  0  0  0
   -1.1636   -1.4954   -0.5544 N   0  0  0  0  0  0  0  0  0  0  0  0
   -1.8015   -1.1748   -1.2766 H   0  0  0  0  0  0  0  0  0  0  0  0
    0.1518   -0.8322   -0.4574 C   0  0  1  0  0  0  0  0  0  0  0  0
    0.9317   -1.5057   -0.8217 H   0  0  0  0  0  0  0  0  0  0  0  0
    0.1109    0.4681   -1.2956 C   0  0  0  0  0  0  0  0  0  0  0  0
   -0.8938    0.8962   -1.2139 H   0  0  0  0  0  0  0  0  0  0  0  0
    0.7899    1.1981   -0.8401 H   0  0  0  0  0  0  0  0  0  0  0  0
    0.5231    0.3601   -2.7913 C   0  0  0  0  0  0  0  0  0  0  0  0
    1.5345    0.7724   -2.8803 H   0  0  0  0  0  0  0  0  0  0  0  0
    0.5797   -1.0611   -3.3773 C   0  0  0  0  0  0  0  0  0  0  0  0
   -0.3689   -1.5845   -3.2263 H   0  0  0  0  0  0  0  0  0  0  0  0
    0.7782   -1.0179   -4.4528 H   0  0  0  0  0  0  0  0  0  0  0  0
    1.3857   -1.6423   -2.9205 H   0  0  0  0  0  0  0  0  0  0  0  0
   -0.4114    1.2259   -3.6458 C   0  0  0  0  0  0  0  0  0  0  0  0
   -0.4125    2.2582   -3.2814 H   0  0  0  0  0  0  0  0  0  0  0  0
   -0.0792    1.2333   -4.6887 H   0  0  0  0  0  0  0  0  0  0  0  0
   -1.4355    0.8413   -3.6103 H   0  0  0  0  0  0  0  0  0  0  0  0
    0.5595   -0.4828    0.9931 C   0  0  0  0  0  0  0  0  0  0  0  0
    1.7427   -0.4855    1.3075 O   0  0  0  0  0  0  0  0  0  0  0  0
   -0.3615    0.0941    1.8498 N   0  0  0  0  0  0  0  0  0  0  0  0
   -1.3368   -0.0077    1.5896 H   0  0  0  0  0  0  0  0  0  0  0  0
   -0.0361    0.4729    3.2191 C   0  0  0  0  0  0  0  0  0  0  0  0
    0.7835    1.1993    3.2320 H   0  0  0  0  0  0  0  0  0  0  0  0
   -0.9057    0.9281    3.7026 H   0  0  0  0  0  0  0  0  0  0  0  0
    0.2639   -0.4073    3.7976 H   0  0  0  0  0  0  0  0  0  0  0  0
  1  2  1  0  0  0  0
  2  3  1  0  0  0  0
  2  4  1  0  0  0  0
  2  5  1  0  0  0  0
  5  6  2  0  0  0  0
  5  7  1  0  0  0  0
  7  8  1  0  0  0  0
  7  9  1  0  0  0  0
  9 10  1  0  0  0  0
  9 11  1  0  0  0  0
  9 24  1  0  0  0  0
 11 12  1  0  0  0  0
 11 13  1  0  0  0  0
 11 14  1  0  0  0  0
 14 15  1  0  0  0  0
 14 16  1  0  0  0  0
 14 20  1  0  0  0  0
 16 17  1  0  0  0  0
 16 18  1  0  0  0  0
 16 19  1  0  0  0  0
 20 21  1  0  0  0  0
 20 22  1  0  0  0  0
 20 23  1  0  0  0  0
 24 25  2  0  0  0  0
 24 26  1  0  0  0  0
 26 27  1  0  0  0  0
 26 28  1  0  0  0  0
 28 29  1  0  0  0  0
 28 30  1  0  0  0  0
 28 31  1  0  0  0  0
M  END
$$$$

  -OEChem-04042216013D

 31 30  0     1  0  0  0  0  0999 V2000
   -2.8505   -4.3271    0.2479 H   0  0  0  0  0  0  0  0  0  0  0  0
   -2.7943   -3.3631   -0.2658 C   0  0  0  0  0  0  0  0  0  0  0  0
   -3.6203   -2.7345    0.0748 H   0  0  0  0  0  0  0  0  0  0  0  0
   -2.8920   -3.5327   -1.3407 H   0  0  0  0  0  0  0  0  0  0  0  0
   -1.4692   -2.6887    0.0356 C   0  0  0  0  0  0  0  0  0  0  0  0
   -0.6810   -3.2170    0.7982 O   0  0  0  0  0  0  0  0  0  0  0  0
   -1.1689   -1.4790   -0.5595 N   0  0  0  0  0  0  0  0  0  0  0  0
   -1.8200   -1.1494   -1.2656 H   0  0  0  0  0  0  0  0  0  0  0  0
    0.1430   -0.8082   -0.4693 C   0  0  1  0  0  0  0  0  0  0  0  0
    0.9240   -1.4721   -0.8521 H   0  0  0  0  0  0  0  0  0  0  0  0
    0.0959    0.4942   -1.3005 C   0  0  0  0  0  0  0  0  0  0  0  0
   -0.9143    0.9114   -1.2300 H   0  0  0  0  0  0  0  0  0  0  0  0
    0.7692    1.2318   -0.8486 H   0  0  0  0  0  0  0  0  0  0  0  0
    0.5064    0.3656   -2.7904 C   0  0  0  0  0  0  0  0  0  0  0  0
    1.5916    0.5090   -2.8425 H   0  0  0  0  0  0  0  0  0  0  0  0
    0.2121   -0.9969   -3.4412 C   0  0  0  0  0  0  0  0  0  0  0  0
   -0.8471   -1.2515   -3.3413 H   0  0  0  0  0  0  0  0  0  0  0  0
    0.4574   -0.9651   -4.5074 H   0  0  0  0  0  0  0  0  0  0  0  0
    0.8121   -1.7923   -2.9913 H   0  0  0  0  0  0  0  0  0  0  0  0
   -0.1586    1.4824   -3.6032 C   0  0  0  0  0  0  0  0  0  0  0  0
    0.0762    2.4599   -3.1699 H   0  0  0  0  0  0  0  0  0  0  0  0
    0.2039    1.4707   -4.6360 H   0  0  0  0  0  0  0  0  0  0  0  0
   -1.2460    1.3576   -3.6155 H   0  0  0  0  0  0  0  0  0  0  0  0
    0.5639   -0.4687    0.9794 C   0  0  0  0  0  0  0  0  0  0  0  0
    1.7501   -0.4672    1.2820 O   0  0  0  0  0  0  0  0  0  0  0  0
   -0.3526    0.0950    1.8493 N   0  0  0  0  0  0  0  0  0  0  0  0
   -1.3291   -0.0075    1.5943 H   0  0  0  0  0  0  0  0  0  0  0  0
   -0.0204    0.4536    3.2220 C   0  0  0  0  0  0  0  0  0  0  0  0
    0.7905    1.1894    3.2412 H   0  0  0  0  0  0  0  0  0  0  0  0
   -0.8917    0.8890    3.7202 H   0  0  0  0  0  0  0  0  0  0  0  0
    0.2945   -0.4330    3.7825 H   0  0  0  0  0  0  0  0  0  0  0  0
  1  2  1  0  0  0  0
  2  3  1  0  0  0  0
  2  4  1  0  0  0  0
  2  5  1  0  0  0  0
  5  6  2  0  0  0  0
  5  7  1  0  0  0  0
  7  8  1  0  0  0  0
  7  9  1  0  0  0  0
  9 10  1  0  0  0  0
  9 11  1  0  0  0  0
  9 24  1  0  0  0  0
 11 12  1  0  0  0  0
 11 13  1  0  0  0  0
 11 14  1  0  0  0  0
 14 15  1  0  0  0  0
 14 16  1  0  0  0  0
 14 20  1  0  0  0  0
 16 17  1  0  0  0  0
 16 18  1  0  0  0  0
 16 19  1  0  0  0  0
 20 21  1  0  0  0  0
 20 22  1  0  0  0  0
 20 23  1  0  0  0  0
 24 25  2  0  0  0  0
 24 26  1  0  0  0  0
 26 27  1  0  0  0  0
 26 28  1  0  0  0  0
 28 29  1  0  0  0  0
 28 30  1  0  0  0  0
 28 31  1  0  0  0  0
M  END
$$$$

  -OEChem-04042216013D

 31 30  0     1  0  0  0  0  0999 V2000
   -2.8373   -4.3226    0.2046 H   0  0  0  0  0  0  0  0  0  0  0  0
   -2.7883   -3.3523   -0.2978 C   0  0  0  0  0  0  0  0  0  0  0  0
   -3.6159   -2.7320    0.0544 H   0  0  0  0  0  0  0  0  0  0  0  0
   -2.8907   -3.5095   -1.3740 H   0  0  0  0  0  0  0  0  0  0  0  0
   -1.4654   -2.6741    0.0051 C   0  0  0  0  0  0  0  0  0  0  0  0
   -0.6708   -3.2069    0.7579 O   0  0  0  0  0  0  0  0  0  0  0  0
   -1.1758   -1.4535   -0.5730 N   0  0  0  0  0  0  0  0  0  0  0  0
   -1.8290   -1.1209   -1.2757 H   0  0  0  0  0  0  0  0  0  0  0  0
    0.1329   -0.7763   -0.4789 C   0  0  1  0  0  0  0  0  0  0  0  0
    0.9105   -1.4334   -0.8836 H   0  0  0  0  0  0  0  0  0  0  0  0
    0.0836    0.5304   -1.3012 C   0  0  0  0  0  0  0  0  0  0  0  0
   -0.9257    0.9511   -1.2418 H   0  0  0  0  0  0  0  0  0  0  0  0
    0.7599    1.2646   -0.8483 H   0  0  0  0  0  0  0  0  0  0  0  0
    0.5032    0.3763   -2.7815 C   0  0  0  0  0  0  0  0  0  0  0  0
    1.5919    0.2556   -2.8105 H   0  0  0  0  0  0  0  0  0  0  0  0
   -0.1129   -0.8436   -3.4852 C   0  0  0  0  0  0  0  0  0  0  0  0
   -1.2046   -0.8156   -3.4175 H   0  0  0  0  0  0  0  0  0  0  0  0
    0.1666   -0.8505   -4.5435 H   0  0  0  0  0  0  0  0  0  0  0  0
    0.2445   -1.7780   -3.0429 H   0  0  0  0  0  0  0  0  0  0  0  0
    0.1414    1.6527   -3.5485 C   0  0  0  0  0  0  0  0  0  0  0  0
    0.6035    2.5250   -3.0757 H   0  0  0  0  0  0  0  0  0  0  0  0
    0.5013    1.5925   -4.5804 H   0  0  0  0  0  0  0  0  0  0  0  0
   -0.9432    1.7995   -3.5668 H   0  0  0  0  0  0  0  0  0  0  0  0
    0.5640   -0.4548    0.9706 C   0  0  0  0  0  0  0  0  0  0  0  0
    1.7527   -0.4517    1.2630 O   0  0  0  0  0  0  0  0  0  0  0  0
   -0.3474    0.0912    1.8568 N   0  0  0  0  0  0  0  0  0  0  0  0
   -1.3257   -0.0139    1.6100 H   0  0  0  0  0  0  0  0  0  0  0  0
   -0.0039    0.4297    3.2320 C   0  0  0  0  0  0  0  0  0  0  0  0
    0.8037    1.1690    3.2551 H   0  0  0  0  0  0  0  0  0  0  0  0
   -0.8722    0.8529    3.7456 H   0  0  0  0  0  0  0  0  0  0  0  0
    0.3209   -0.4640    3.7754 H   0  0  0  0  0  0  0  0  0  0  0  0
  1  2  1  0  0  0  0
  2  3  1  0  0  0  0
  2  4  1  0  0  0  0
  2  5  1  0  0  0  0
  5  6  2  0  0  0  0
  5  7  1  0  0  0  0
  7  8  1  0  0  0  0
  7  9  1  0  0  0  0
  9 10  1  0  0  0  0
  9 11  1  0  0  0  0
  9 24  1  0  0  0  0
 11 12  1  0  0  0  0
 11 13  1  0  0  0  0
 11 14  1  0  0  0  0
 14 15  1  0  0  0  0
 14 16  1  0  0  0  0
 14 20  1  0  0  0  0
 16 17  1  0  0  0  0
 16 18  1  0  0  0  0
 16 19  1  0  0  0  0
 20 21  1  0  0  0  0
 20 22  1  0  0  0  0
 20 23  1  0  0  0  0
 24 25  2  0  0  0  0
 24 26  1  0  0  0  0
 26 27  1  0  0  0  0
 26 28  1  0  0  0  0
 28 29  1  0  0  0  0
 28 30  1  0  0  0  0
 28 31  1  0  0  0  0
M  END
$$$$

  -OEChem-04042216013D

 31 30  0     1  0  0  0  0  0999 V2000
   -2.8275   -4.3199    0.1536 H   0  0  0  0  0  0  0  0  0  0  0  0
   -2.7843   -3.3423   -0.3350 C   0  0  0  0  0  0  0  0  0  0  0  0
   -3.6183   -2.7334    0.0216 H   0  0  0  0  0  0  0  0  0  0  0  0
   -2.8797   -3.4852   -1.4141 H   0  0  0  0  0  0  0  0  0  0  0  0
   -1.4683   -2.6585   -0.0160 C   0  0  0  0  0  0  0  0  0  0  0  0
   -0.6731   -3.1966    0.7324 O   0  0  0  0  0  0  0  0  0  0  0  0
   -1.1820   -1.4311   -0.5811 N   0  0  0  0  0  0  0  0  0  0  0  0
   -1.8373   -1.0908   -1.2782 H   0  0  0  0  0  0  0  0  0  0  0  0
    0.1258   -0.7543   -0.4805 C   0  0  1  0  0  0  0  0  0  0  0  0
    0.8970   -1.4121   -0.8966 H   0  0  0  0  0  0  0  0  0  0  0  0
    0.0800    0.5552   -1.2979 C   0  0  0  0  0  0  0  0  0  0  0  0
   -0.9233    0.9907   -1.2463 H   0  0  0  0  0  0  0  0  0  0  0  0
    0.7661    1.2780   -0.8411 H   0  0  0  0  0  0  0  0  0  0  0  0
    0.5100    0.3789   -2.7701 C   0  0  0  0  0  0  0  0  0  0  0  0
    1.5410    0.0087   -2.7916 H   0  0  0  0  0  0  0  0  0  0  0  0
   -0.3763   -0.6131   -3.5369 C   0  0  0  0  0  0  0  0  0  0  0  0
   -1.4293   -0.3234   -3.4677 H   0  0  0  0  0  0  0  0  0  0  0  0
   -0.0925   -0.6365   -4.5939 H   0  0  0  0  0  0  0  0  0  0  0  0
   -0.2609   -1.6256   -3.1392 H   0  0  0  0  0  0  0  0  0  0  0  0
    0.4717    1.7402   -3.4749 C   0  0  0  0  0  0  0  0  0  0  0  0
    1.1243    2.4543   -2.9629 H   0  0  0  0  0  0  0  0  0  0  0  0
    0.8165    1.6449   -4.5093 H   0  0  0  0  0  0  0  0  0  0  0  0
   -0.5460    2.1432   -3.4837 H   0  0  0  0  0  0  0  0  0  0  0  0
    0.5635   -0.4462    0.9698 C   0  0  0  0  0  0  0  0  0  0  0  0
    1.7538   -0.4464    1.2561 O   0  0  0  0  0  0  0  0  0  0  0  0
   -0.3436    0.0911    1.8657 N   0  0  0  0  0  0  0  0  0  0  0  0
   -1.3233   -0.0124    1.6236 H   0  0  0  0  0  0  0  0  0  0  0  0
    0.0073    0.4190    3.2418 C   0  0  0  0  0  0  0  0  0  0  0  0
    0.8141    1.1592    3.2662 H   0  0  0  0  0  0  0  0  0  0  0  0
   -0.8587    0.8372    3.7635 H   0  0  0  0  0  0  0  0  0  0  0  0
    0.3363   -0.4788    3.7759 H   0  0  0  0  0  0  0  0  0  0  0  0
  1  2  1  0  0  0  0
  2  3  1  0  0  0  0
  2  4  1  0  0  0  0
  2  5  1  0  0  0  0
  5  6  2  0  0  0  0
  5  7  1  0  0  0  0
  7  8  1  0  0  0  0
  7  9  1  0  0  0  0
  9 10  1  0  0  0  0
  9 11  1  0  0  0  0
  9 24  1  0  0  0  0
 11 12  1  0  0  0  0
 11 13  1  0  0  0  0
 11 14  1  0  0  0  0
 14 15  1  0  0  0  0
 14 16  1  0  0  0  0
 14 20  1  0  0  0  0
 16 17  1  0  0  0  0
 16 18  1  0  0  0  0
 16 19  1  0  0  0  0
 20 21  1  0  0  0  0
 20 22  1  0  0  0  0
 20 23  1  0  0  0  0
 24 25  2  0  0  0  0
 24 26  1  0  0  0  0
 26 27  1  0  0  0  0
 26 28  1  0  0  0  0
 28 29  1  0  0  0  0
 28 30  1  0  0  0  0
 28 31  1  0  0  0  0
M  END
$$$$

  -OEChem-04042216013D

 31 30  0     1  0  0  0  0  0999 V2000
   -2.8315   -4.3044    0.1334 H   0  0  0  0  0  0  0  0  0  0  0  0
   -2.7821   -3.3250   -0.3513 C   0  0  0  0  0  0  0  0  0  0  0  0
   -3.6126   -2.7127    0.0080 H   0  0  0  0  0  0  0  0  0  0  0  0
   -2.8785   -3.4630   -1.4310 H   0  0  0  0  0  0  0  0  0  0  0  0
   -1.4623   -2.6499   -0.0300 C   0  0  0  0  0  0  0  0  0  0  0  0
   -0.6709   -3.1933    0.7185 O   0  0  0  0  0  0  0  0  0  0  0  0
   -1.1707   -1.4214   -0.5896 N   0  0  0  0  0  0  0  0  0  0  0  0
   -1.8251   -1.0742   -1.2842 H   0  0  0  0  0  0  0  0  0  0  0  0
    0.1371   -0.7471   -0.4821 C   0  0  1  0  0  0  0  0  0  0  0  0
    0.9084   -1.4052   -0.8976 H   0  0  0  0  0  0  0  0  0  0  0  0
    0.0871    0.5649   -1.2946 C   0  0  0  0  0  0  0  0  0  0  0  0
   -0.9098    1.0145   -1.2393 H   0  0  0  0  0  0  0  0  0  0  0  0
    0.7821    1.2764   -0.8340 H   0  0  0  0  0  0  0  0  0  0  0  0
    0.5196    0.3782   -2.7643 C   0  0  0  0  0  0  0  0  0  0  0  0
    1.4394   -0.2160   -2.8031 H   0  0  0  0  0  0  0  0  0  0  0  0
   -0.5671   -0.3184   -3.5946 C   0  0  0  0  0  0  0  0  0  0  0  0
   -1.5159    0.2229   -3.5255 H   0  0  0  0  0  0  0  0  0  0  0  0
   -0.2700   -0.3637   -4.6473 H   0  0  0  0  0  0  0  0  0  0  0  0
   -0.7199   -1.3438   -3.2468 H   0  0  0  0  0  0  0  0  0  0  0  0
    0.8093    1.7503   -3.3853 C   0  0  0  0  0  0  0  0  0  0  0  0
    1.6118    2.2560   -2.8389 H   0  0  0  0  0  0  0  0  0  0  0  0
    1.1258    1.6394   -4.4273 H   0  0  0  0  0  0  0  0  0  0  0  0
   -0.0831    2.3838   -3.3581 H   0  0  0  0  0  0  0  0  0  0  0  0
    0.5683   -0.4449    0.9713 C   0  0  0  0  0  0  0  0  0  0  0  0
    1.7569   -0.4486    1.2640 O   0  0  0  0  0  0  0  0  0  0  0  0
   -0.3430    0.0903    1.8640 N   0  0  0  0  0  0  0  0  0  0  0  0
   -1.3213   -0.0117    1.6157 H   0  0  0  0  0  0  0  0  0  0  0  0
    0.0005    0.4098    3.2437 C   0  0  0  0  0  0  0  0  0  0  0  0
    0.8068    1.1500    3.2770 H   0  0  0  0  0  0  0  0  0  0  0  0
   -0.8685    0.8244    3.7633 H   0  0  0  0  0  0  0  0  0  0  0  0
    0.3270   -0.4908    3.7742 H   0  0  0  0  0  0  0  0  0  0  0  0
  1  2  1  0  0  0  0
  2  3  1  0  0  0  0
  2  4  1  0  0  0  0
  2  5  1  0  0  0  0
  5  6  2  0  0  0  0
  5  7  1  0  0  0  0
  7  8  1  0  0  0  0
  7  9  1  0  0  0  0
  9 10  1  0  0  0  0
  9 11  1  0  0  0  0
  9 24  1  0  0  0  0
 11 12  1  0  0  0  0
 11 13  1  0  0  0  0
 11 14  1  0  0  0  0
 14 15  1  0  0  0  0
 14 16  1  0  0  0  0
 14 20  1  0  0  0  0
 16 17  1  0  0  0  0
 16 18  1  0  0  0  0
 16 19  1  0  0  0  0
 20 21  1  0  0  0  0
 20 22  1  0  0  0  0
 20 23  1  0  0  0  0
 24 25  2  0  0  0  0
 24 26  1  0  0  0  0
 26 27  1  0  0  0  0
 26 28  1  0  0  0  0
 28 29  1  0  0  0  0
 28 30  1  0  0  0  0
 28 31  1  0  0  0  0
M  END
$$$$

  -OEChem-04042216013D

 31 30  0     1  0  0  0  0  0999 V2000
   -2.8306   -4.2989    0.1136 H   0  0  0  0  0  0  0  0  0  0  0  0
   -2.7778   -3.3171   -0.3656 C   0  0  0  0  0  0  0  0  0  0  0  0
   -3.6073   -2.7043   -0.0050 H   0  0  0  0  0  0  0  0  0  0  0  0
   -2.8723   -3.4492   -1.4462 H   0  0  0  0  0  0  0  0  0  0  0  0
   -1.4568   -2.6471   -0.0382 C   0  0  0  0  0  0  0  0  0  0  0  0
   -0.6705   -3.1941    0.7132 O   0  0  0  0  0  0  0  0  0  0  0  0
   -1.1584   -1.4195   -0.5963 N   0  0  0  0  0  0  0  0  0  0  0  0
   -1.8096   -1.0692   -1.2922 H   0  0  0  0  0  0  0  0  0  0  0  0
    0.1499   -0.7481   -0.4814 C   0  0  1  0  0  0  0  0  0  0  0  0
    0.9241   -1.4056   -0.8913 H   0  0  0  0  0  0  0  0  0  0  0  0
    0.0918    0.5670   -1.2883 C   0  0  0  0  0  0  0  0  0  0  0  0
   -0.9024    1.0215   -1.2248 H   0  0  0  0  0  0  0  0  0  0  0  0
    0.7882    1.2741   -0.8229 H   0  0  0  0  0  0  0  0  0  0  0  0
    0.5234    0.3780   -2.7602 C   0  0  0  0  0  0  0  0  0  0  0  0
    1.2752   -0.4149   -2.8359 H   0  0  0  0  0  0  0  0  0  0  0  0
   -0.6823    0.0253   -3.6413 C   0  0  0  0  0  0  0  0  0  0  0  0
   -1.4456    0.8081   -3.5882 H   0  0  0  0  0  0  0  0  0  0  0  0
   -0.3705   -0.0840   -4.6849 H   0  0  0  0  0  0  0  0  0  0  0  0
   -1.1279   -0.9209   -3.3214 H   0  0  0  0  0  0  0  0  0  0  0  0
    1.1489    1.6750   -3.2899 C   0  0  0  0  0  0  0  0  0  0  0  0
    2.0411    1.9335   -2.7107 H   0  0  0  0  0  0  0  0  0  0  0  0
    1.4464    1.5563   -4.3366 H   0  0  0  0  0  0  0  0  0  0  0  0
    0.4375    2.5043   -3.2224 H   0  0  0  0  0  0  0  0  0  0  0  0
    0.5733   -0.4461    0.9746 C   0  0  0  0  0  0  0  0  0  0  0  0
    1.7601   -0.4541    1.2745 O   0  0  0  0  0  0  0  0  0  0  0  0
   -0.3417    0.0917    1.8623 N   0  0  0  0  0  0  0  0  0  0  0  0
   -1.3189   -0.0064    1.6082 H   0  0  0  0  0  0  0  0  0  0  0  0
   -0.0059    0.4093    3.2443 C   0  0  0  0  0  0  0  0  0  0  0  0
    0.8005    1.1491    3.2834 H   0  0  0  0  0  0  0  0  0  0  0  0
   -0.8775    0.8234    3.7596 H   0  0  0  0  0  0  0  0  0  0  0  0
    0.3165   -0.4925    3.7753 H   0  0  0  0  0  0  0  0  0  0  0  0
  1  2  1  0  0  0  0
  2  3  1  0  0  0  0
  2  4  1  0  0  0  0
  2  5  1  0  0  0  0
  5  6  2  0  0  0  0
  5  7  1  0  0  0  0
  7  8  1  0  0  0  0
  7  9  1  0  0  0  0
  9 10  1  0  0  0  0
  9 11  1  0  0  0  0
  9 24  1  0  0  0  0
 11 12  1  0  0  0  0
 11 13  1  0  0  0  0
 11 14  1  0  0  0  0
 14 15  1  0  0  0  0
 14 16  1  0  0  0  0
 14 20  1  0  0  0  0
 16 17  1  0  0  0  0
 16 18  1  0  0  0  0
 16 19  1  0  0  0  0
 20 21  1  0  0  0  0
 20 22  1  0  0  0  0
 20 23  1  0  0  0  0
 24 25  2  0  0  0  0
 24 26  1  0  0  0  0
 26 27  1  0  0  0  0
 26 28  1  0  0  0  0
 28 29  1  0  0  0  0
 28 30  1  0  0  0  0
 28 31  1  0  0  0  0
M  END
$$$$

  -OEChem-04042216013D

 31 30  0     1  0  0  0  0  0999 V2000
   -2.8218   -4.3033    0.1028 H   0  0  0  0  0  0  0  0  0  0  0  0
   -2.7716   -3.3204   -0.3749 C   0  0  0  0  0  0  0  0  0  0  0  0
   -3.6063   -2.7125   -0.0177 H   0  0  0  0  0  0  0  0  0  0  0  0
   -2.8598   -3.4514   -1.4561 H   0  0  0  0  0  0  0  0  0  0  0  0
   -1.4551   -2.6448   -0.0399 C   0  0  0  0  0  0  0  0  0  0  0  0
   -0.6717   -3.1884    0.7170 O   0  0  0  0  0  0  0  0  0  0  0  0
   -1.1562   -1.4173   -0.5980 N   0  0  0  0  0  0  0  0  0  0  0  0
   -1.8022   -1.0723   -1.3013 H   0  0  0  0  0  0  0  0  0  0  0  0
    0.1521   -0.7462   -0.4801 C   0  0  1  0  0  0  0  0  0  0  0  0
    0.9293   -1.4023   -0.8864 H   0  0  0  0  0  0  0  0  0  0  0  0
    0.0885    0.5696   -1.2846 C   0  0  0  0  0  0  0  0  0  0  0  0
   -0.9091    1.0161   -1.2165 H   0  0  0  0  0  0  0  0  0  0  0  0
    0.7760    1.2834   -0.8162 H   0  0  0  0  0  0  0  0  0  0  0  0
    0.5192    0.3810   -2.7596 C   0  0  0  0  0  0  0  0  0  0  0  0
    1.0441   -0.5714   -2.8877 H   0  0  0  0  0  0  0  0  0  0  0  0
   -0.7079    0.3984   -3.6792 C   0  0  0  0  0  0  0  0  0  0  0  0
   -1.2369    1.3541   -3.6052 H   0  0  0  0  0  0  0  0  0  0  0  0
   -0.4047    0.2503   -4.7206 H   0  0  0  0  0  0  0  0  0  0  0  0
   -1.3983   -0.4055   -3.4075 H   0  0  0  0  0  0  0  0  0  0  0  0
    1.4741    1.5031   -3.1862 C   0  0  0  0  0  0  0  0  0  0  0  0
    2.3797    1.4861   -2.5712 H   0  0  0  0  0  0  0  0  0  0  0  0
    1.7706    1.3750   -4.2320 H   0  0  0  0  0  0  0  0  0  0  0  0
    0.9963    2.4821   -3.0769 H   0  0  0  0  0  0  0  0  0  0  0  0
    0.5733   -0.4434    0.9765 C   0  0  0  0  0  0  0  0  0  0  0  0
    1.7599   -0.4506    1.2774 O   0  0  0  0  0  0  0  0  0  0  0  0
   -0.3420    0.0952    1.8633 N   0  0  0  0  0  0  0  0  0  0  0  0
   -1.3193   -0.0030    1.6092 H   0  0  0  0  0  0  0  0  0  0  0  0
   -0.0057    0.4143    3.2450 C   0  0  0  0  0  0  0  0  0  0  0  0
    0.8015    1.1534    3.2829 H   0  0  0  0  0  0  0  0  0  0  0  0
   -0.8767    0.8302    3.7602 H   0  0  0  0  0  0  0  0  0  0  0  0
    0.3162   -0.4871    3.7769 H   0  0  0  0  0  0  0  0  0  0  0  0
  1  2  1  0  0  0  0
  2  3  1  0  0  0  0
  2  4  1  0  0  0  0
  2  5  1  0  0  0  0
  5  6  2  0  0  0  0
  5  7  1  0  0  0  0
  7  8  1  0  0  0  0
  7  9  1  0  0  0  0
  9 10  1  0  0  0  0
  9 11  1  0  0  0  0
  9 24  1  0  0  0  0
 11 12  1  0  0  0  0
 11 13  1  0  0  0  0
 11 14  1  0  0  0  0
 14 15  1  0  0  0  0
 14 16  1  0  0  0  0
 14 20  1  0  0  0  0
 16 17  1  0  0  0  0
 16 18  1  0  0  0  0
 16 19  1  0  0  0  0
 20 21  1  0  0  0  0
 20 22  1  0  0  0  0
 20 23  1  0  0  0  0
 24 25  2  0  0  0  0
 24 26  1  0  0  0  0
 26 27  1  0  0  0  0
 26 28  1  0  0  0  0
 28 29  1  0  0  0  0
 28 30  1  0  0  0  0
 28 31  1  0  0  0  0
M  END
$$$$

  -OEChem-04042216013D

 31 30  0     1  0  0  0  0  0999 V2000
   -2.8077   -4.3079    0.1079 H   0  0  0  0  0  0  0  0  0  0  0  0
   -2.7634   -3.3248   -0.3699 C   0  0  0  0  0  0  0  0  0  0  0  0
   -3.5974   -2.7194   -0.0071 H   0  0  0  0  0  0  0  0  0  0  0  0
   -2.8584   -3.4562   -1.4506 H   0  0  0  0  0  0  0  0  0  0  0  0
   -1.4468   -2.6448   -0.0432 C   0  0  0  0  0  0  0  0  0  0  0  0
   -0.6561   -3.1871    0.7069 O   0  0  0  0  0  0  0  0  0  0  0  0
   -1.1569   -1.4141   -0.5997 N   0  0  0  0  0  0  0  0  0  0  0  0
   -1.8093   -1.0693   -1.2972 H   0  0  0  0  0  0  0  0  0  0  0  0
    0.1482   -0.7357   -0.4839 C   0  0  1  0  0  0  0  0  0  0  0  0
    0.9296   -1.3852   -0.8936 H   0  0  0  0  0  0  0  0  0  0  0  0
    0.0797    0.5819   -1.2840 C   0  0  0  0  0  0  0  0  0  0  0  0
   -0.9280    1.0061   -1.2191 H   0  0  0  0  0  0  0  0  0  0  0  0
    0.7486    1.3138   -0.8157 H   0  0  0  0  0  0  0  0  0  0  0  0
    0.5105    0.3909   -2.7594 C   0  0  0  0  0  0  0  0  0  0  0  0
    0.7616   -0.6586   -2.9466 H   0  0  0  0  0  0  0  0  0  0  0  0
   -0.6336    0.7727   -3.7054 C   0  0  0  0  0  0  0  0  0  0  0  0
   -0.9096    1.8240   -3.5746 H   0  0  0  0  0  0  0  0  0  0  0  0
   -0.3330    0.6204   -4.7468 H   0  0  0  0  0  0  0  0  0  0  0  0
   -1.5135    0.1529   -3.5089 H   0  0  0  0  0  0  0  0  0  0  0  0
    1.7495    1.2358   -3.0778 C   0  0  0  0  0  0  0  0  0  0  0  0
    2.5805    0.9513   -2.4242 H   0  0  0  0  0  0  0  0  0  0  0  0
    2.0612    1.0800   -4.1153 H   0  0  0  0  0  0  0  0  0  0  0  0
    1.5407    2.3008   -2.9335 H   0  0  0  0  0  0  0  0  0  0  0  0
    0.5725   -0.4336    0.9717 C   0  0  0  0  0  0  0  0  0  0  0  0
    1.7602   -0.4342    1.2685 O   0  0  0  0  0  0  0  0  0  0  0  0
   -0.3428    0.0979    1.8626 N   0  0  0  0  0  0  0  0  0  0  0  0
   -1.3202   -0.0043    1.6107 H   0  0  0  0  0  0  0  0  0  0  0  0
   -0.0042    0.4124    3.2447 C   0  0  0  0  0  0  0  0  0  0  0  0
    0.8026    1.1518    3.2835 H   0  0  0  0  0  0  0  0  0  0  0  0
   -0.8746    0.8257    3.7629 H   0  0  0  0  0  0  0  0  0  0  0  0
    0.3195   -0.4906    3.7728 H   0  0  0  0  0  0  0  0  0  0  0  0
  1  2  1  0  0  0  0
  2  3  1  0  0  0  0
  2  4  1  0  0  0  0
  2  5  1  0  0  0  0
  5  6  2  0  0  0  0
  5  7  1  0  0  0  0
  7  8  1  0  0  0  0
  7  9  1  0  0  0  0
  9 10  1  0  0  0  0
  9 11  1  0  0  0  0
  9 24  1  0  0  0  0
 11 12  1  0  0  0  0
 11 13  1  0  0  0  0
 11 14  1  0  0  0  0
 14 15  1  0  0  0  0
 14 16  1  0  0  0  0
 14 20  1  0  0  0  0
 16 17  1  0  0  0  0
 16 18  1  0  0  0  0
 16 19  1  0  0  0  0
 20 21  1  0  0  0  0
 20 22  1  0  0  0  0
 20 23  1  0  0  0  0
 24 25  2  0  0  0  0
 24 26  1  0  0  0  0
 26 27  1  0  0  0  0
 26 28  1  0  0  0  0
 28 29  1  0  0  0  0
 28 30  1  0  0  0  0
 28 31  1  0  0  0  0
M  END
$$$$

  -OEChem-04042216013D

 31 30  0     1  0  0  0  0  0999 V2000
   -2.7963   -4.3038    0.1170 H   0  0  0  0  0  0  0  0  0  0  0  0
   -2.7561   -3.3220   -0.3633 C   0  0  0  0  0  0  0  0  0  0  0  0
   -3.5852   -2.7151    0.0078 H   0  0  0  0  0  0  0  0  0  0  0  0
   -2.8637   -3.4551   -1.4423 H   0  0  0  0  0  0  0  0  0  0  0  0
   -1.4354   -2.6434   -0.0526 C   0  0  0  0  0  0  0  0  0  0  0  0
   -0.6342   -3.1879    0.6848 O   0  0  0  0  0  0  0  0  0  0  0  0
   -1.1552   -1.4083   -0.6042 N   0  0  0  0  0  0  0  0  0  0  0  0
   -1.8187   -1.0561   -1.2876 H   0  0  0  0  0  0  0  0  0  0  0  0
    0.1461   -0.7223   -0.4896 C   0  0  1  0  0  0  0  0  0  0  0  0
    0.9287   -1.3656   -0.9077 H   0  0  0  0  0  0  0  0  0  0  0  0
    0.0739    0.5962   -1.2867 C   0  0  0  0  0  0  0  0  0  0  0  0
   -0.9432    0.9983   -1.2303 H   0  0  0  0  0  0  0  0  0  0  0  0
    0.7262    1.3446   -0.8220 H   0  0  0  0  0  0  0  0  0  0  0  0
    0.5073    0.3991   -2.7577 C   0  0  0  0  0  0  0  0  0  0  0  0
    0.4782   -0.6669   -3.0084 H   0  0  0  0  0  0  0  0  0  0  0  0
   -0.4636    1.1110   -3.7056 C   0  0  0  0  0  0  0  0  0  0  0  0
   -0.4851    2.1859   -3.4990 H   0  0  0  0  0  0  0  0  0  0  0  0
   -0.1561    0.9636   -4.7457 H   0  0  0  0  0  0  0  0  0  0  0  0
   -1.4757    0.7119   -3.5874 H   0  0  0  0  0  0  0  0  0  0  0  0
    1.9385    0.9031   -2.9763 C   0  0  0  0  0  0  0  0  0  0  0  0
    2.6303    0.3858   -2.3037 H   0  0  0  0  0  0  0  0  0  0  0  0
    2.2557    0.7151   -4.0067 H   0  0  0  0  0  0  0  0  0  0  0  0
    2.0054    1.9787   -2.7839 H   0  0  0  0  0  0  0  0  0  0  0  0
    0.5741   -0.4243    0.9654 C   0  0  0  0  0  0  0  0  0  0  0  0
    1.7627   -0.4195    1.2583 O   0  0  0  0  0  0  0  0  0  0  0  0
   -0.3419    0.0974    1.8613 N   0  0  0  0  0  0  0  0  0  0  0  0
   -1.3191   -0.0139    1.6130 H   0  0  0  0  0  0  0  0  0  0  0  0
   -0.0023    0.4055    3.2445 C   0  0  0  0  0  0  0  0  0  0  0  0
    0.8013    1.1483    3.2866 H   0  0  0  0  0  0  0  0  0  0  0  0
   -0.8738    0.8120    3.7662 H   0  0  0  0  0  0  0  0  0  0  0  0
    0.3260   -0.4992    3.7669 H   0  0  0  0  0  0  0  0  0  0  0  0
  1  2  1  0  0  0  0
  2  3  1  0  0  0  0
  2  4  1  0  0  0  0
  2  5  1  0  0  0  0
  5  6  2  0  0  0  0
  5  7  1  0  0  0  0
  7  8  1  0  0  0  0
  7  9  1  0  0  0  0
  9 10  1  0  0  0  0
  9 11  1  0  0  0  0
  9 24  1  0  0  0  0
 11 12  1  0  0  0  0
 11 13  1  0  0  0  0
 11 14  1  0  0  0  0
 14 15  1  0  0  0  0
 14 16  1  0  0  0  0
 14 20  1  0  0  0  0
 16 17  1  0  0  0  0
 16 18  1  0  0  0  0
 16 19  1  0  0  0  0
 20 21  1  0  0  0  0
 20 22  1  0  0  0  0
 20 23  1  0  0  0  0
 24 25  2  0  0  0  0
 24 26  1  0  0  0  0
 26 27  1  0  0  0  0
 26 28  1  0  0  0  0
 28 29  1  0  0  0  0
 28 30  1  0  0  0  0
 28 31  1  0  0  0  0
M  END
$$$$

  -OEChem-04042216013D

 31 30  0     1  0  0  0  0  0999 V2000
   -2.7927   -4.3099    0.0991 H   0  0  0  0  0  0  0  0  0  0  0  0
   -2.7553   -3.3261   -0.3775 C   0  0  0  0  0  0  0  0  0  0  0  0
   -3.5907   -2.7253   -0.0101 H   0  0  0  0  0  0  0  0  0  0  0  0
   -2.8538   -3.4564   -1.4578 H   0  0  0  0  0  0  0  0  0  0  0  0
   -1.4407   -2.6405   -0.0551 C   0  0  0  0  0  0  0  0  0  0  0  0
   -0.6416   -3.1826    0.6862 O   0  0  0  0  0  0  0  0  0  0  0  0
   -1.1622   -1.4038   -0.6039 N   0  0  0  0  0  0  0  0  0  0  0  0
   -1.8234   -1.0546   -1.2911 H   0  0  0  0  0  0  0  0  0  0  0  0
    0.1394   -0.7182   -0.4886 C   0  0  1  0  0  0  0  0  0  0  0  0
    0.9165   -1.3654   -0.9098 H   0  0  0  0  0  0  0  0  0  0  0  0
    0.0717    0.5990   -1.2879 C   0  0  0  0  0  0  0  0  0  0  0  0
   -0.9476    0.9968   -1.2414 H   0  0  0  0  0  0  0  0  0  0  0  0
    0.7223    1.3520   -0.8281 H   0  0  0  0  0  0  0  0  0  0  0  0
    0.5092    0.3938   -2.7530 C   0  0  0  0  0  0  0  0  0  0  0  0
    0.2282   -0.6149   -3.0752 H   0  0  0  0  0  0  0  0  0  0  0  0
   -0.2131    1.3857   -3.6702 C   0  0  0  0  0  0  0  0  0  0  0  0
    0.0181    2.4158   -3.3809 H   0  0  0  0  0  0  0  0  0  0  0  0
    0.0980    1.2384   -4.7092 H   0  0  0  0  0  0  0  0  0  0  0  0
   -1.2965    1.2418   -3.6136 H   0  0  0  0  0  0  0  0  0  0  0  0
    2.0290    0.5454   -2.8948 C   0  0  0  0  0  0  0  0  0  0  0  0
    2.5488   -0.1656   -2.2450 H   0  0  0  0  0  0  0  0  0  0  0  0
    2.3356    0.3532   -3.9277 H   0  0  0  0  0  0  0  0  0  0  0  0
    2.3449    1.5575   -2.6223 H   0  0  0  0  0  0  0  0  0  0  0  0
    0.5742   -0.4217    0.9644 C   0  0  0  0  0  0  0  0  0  0  0  0
    1.7647   -0.4156    1.2497 O   0  0  0  0  0  0  0  0  0  0  0  0
   -0.3364    0.0994    1.8662 N   0  0  0  0  0  0  0  0  0  0  0  0
   -1.3154   -0.0129    1.6251 H   0  0  0  0  0  0  0  0  0  0  0  0
    0.0137    0.4129    3.2456 C   0  0  0  0  0  0  0  0  0  0  0  0
    0.8175    1.1560    3.2782 H   0  0  0  0  0  0  0  0  0  0  0  0
   -0.8537    0.8211    3.7726 H   0  0  0  0  0  0  0  0  0  0  0  0
    0.3466   -0.4896    3.7690 H   0  0  0  0  0  0  0  0  0  0  0  0
  1  2  1  0  0  0  0
  2  3  1  0  0  0  0
  2  4  1  0  0  0  0
  2  5  1  0  0  0  0
  5  6  2  0  0  0  0
  5  7  1  0  0  0  0
  7  8  1  0  0  0  0
  7  9  1  0  0  0  0
  9 10  1  0  0  0  0
  9 11  1  0  0  0  0
  9 24  1  0  0  0  0
 11 12  1  0  0  0  0
 11 13  1  0  0  0  0
 11 14  1  0  0  0  0
 14 15  1  0  0  0  0
 14 16  1  0  0  0  0
 14 20  1  0  0  0  0
 16 17  1  0  0  0  0
 16 18  1  0  0  0  0
 16 19  1  0  0  0  0
 20 21  1  0  0  0  0
 20 22  1  0  0  0  0
 20 23  1  0  0  0  0
 24 25  2  0  0  0  0
 24 26  1  0  0  0  0
 26 27  1  0  0  0  0
 26 28  1  0  0  0  0
 28 29  1  0  0  0  0
 28 30  1  0  0  0  0
 28 31  1  0  0  0  0
M  END
$$$$

  -OEChem-04042216013D

 31 30  0     1  0  0  0  0  0999 V2000
   -2.8175   -4.3043    0.1248 H   0  0  0  0  0  0  0  0  0  0  0  0
   -2.7698   -3.3236   -0.3574 C   0  0  0  0  0  0  0  0  0  0  0  0
   -3.5970   -2.7108    0.0086 H   0  0  0  0  0  0  0  0  0  0  0  0
   -2.8729   -3.4584   -1.4368 H   0  0  0  0  0  0  0  0  0  0  0  0
   -1.4473   -2.6511   -0.0415 C   0  0  0  0  0  0  0  0  0  0  0  0
   -0.6551   -3.1945    0.7064 O   0  0  0  0  0  0  0  0  0  0  0  0
   -1.1558   -1.4226   -0.6017 N   0  0  0  0  0  0  0  0  0  0  0  0
   -1.8123   -1.0735   -1.2932 H   0  0  0  0  0  0  0  0  0  0  0  0
    0.1495   -0.7451   -0.4847 C   0  0  1  0  0  0  0  0  0  0  0  0
    0.9202   -1.4068   -0.8911 H   0  0  0  0  0  0  0  0  0  0  0  0
    0.0887    0.5668   -1.2965 C   0  0  0  0  0  0  0  0  0  0  0  0
   -0.9270    0.9738   -1.2528 H   0  0  0  0  0  0  0  0  0  0  0  0
    0.7477    1.3137   -0.8387 H   0  0  0  0  0  0  0  0  0  0  0  0
    0.5253    0.3771   -2.7632 C   0  0  0  0  0  0  0  0  0  0  0  0
    0.0340   -0.5116   -3.1741 H   0  0  0  0  0  0  0  0  0  0  0  0
    0.0929    1.5943   -3.5887 C   0  0  0  0  0  0  0  0  0  0  0  0
    0.5559    2.5078   -3.2018 H   0  0  0  0  0  0  0  0  0  0  0  0
    0.3897    1.4705   -4.6350 H   0  0  0  0  0  0  0  0  0  0  0  0
   -0.9944    1.7135   -3.5548 H   0  0  0  0  0  0  0  0  0  0  0  0
    2.0478    0.2068   -2.8839 C   0  0  0  0  0  0  0  0  0  0  0  0
    2.3883   -0.6932   -2.3648 H   0  0  0  0  0  0  0  0  0  0  0  0
    2.3371    0.1171   -3.9356 H   0  0  0  0  0  0  0  0  0  0  0  0
    2.5676    1.0694   -2.4547 H   0  0  0  0  0  0  0  0  0  0  0  0
    0.5746   -0.4363    0.9688 C   0  0  0  0  0  0  0  0  0  0  0  0
    1.7623   -0.4369    1.2651 O   0  0  0  0  0  0  0  0  0  0  0  0
   -0.3401    0.1007    1.8570 N   0  0  0  0  0  0  0  0  0  0  0  0
   -1.3176   -0.0036    1.6068 H   0  0  0  0  0  0  0  0  0  0  0  0
   -0.0006    0.4281    3.2360 C   0  0  0  0  0  0  0  0  0  0  0  0
    0.8088    1.1651    3.2677 H   0  0  0  0  0  0  0  0  0  0  0  0
   -0.8697    0.8500    3.7497 H   0  0  0  0  0  0  0  0  0  0  0  0
    0.3201   -0.4704    3.7739 H   0  0  0  0  0  0  0  0  0  0  0  0
  1  2  1  0  0  0  0
  2  3  1  0  0  0  0
  2  4  1  0  0  0  0
  2  5  1  0  0  0  0
  5  6  2  0  0  0  0
  5  7  1  0  0  0  0
  7  8  1  0  0  0  0
  7  9  1  0  0  0  0
  9 10  1  0  0  0  0
  9 11  1  0  0  0  0
  9 24  1  0  0  0  0
 11 12  1  0  0  0  0
 11 13  1  0  0  0  0
 11 14  1  0  0  0  0
 14 15  1  0  0  0  0
 14 16  1  0  0  0  0
 14 20  1  0  0  0  0
 16 17  1  0  0  0  0
 16 18  1  0  0  0  0
 16 19  1  0  0  0  0
 20 21  1  0  0  0  0
 20 22  1  0  0  0  0
 20 23  1  0  0  0  0
 24 25  2  0  0  0  0
 24 26  1  0  0  0  0
 26 27  1  0  0  0  0
 26 28  1  0  0  0  0
 28 29  1  0  0  0  0
 28 30  1  0  0  0  0
 28 31  1  0  0  0  0
M  END
$$$$

  -OEChem-04042216013D

 31 30  0     1  0  0  0  0  0999 V2000
   -2.8344   -4.3104    0.1726 H   0  0  0  0  0  0  0  0  0  0  0  0
   -2.7777   -3.3372   -0.3236 C   0  0  0  0  0  0  0  0  0  0  0  0
   -3.6013   -2.7133    0.0315 H   0  0  0  0  0  0  0  0  0  0  0  0
   -2.8793   -3.4871   -1.4012 H   0  0  0  0  0  0  0  0  0  0  0  0
   -1.4507   -2.6699   -0.0143 C   0  0  0  0  0  0  0  0  0  0  0  0
   -0.6671   -3.2063    0.7475 O   0  0  0  0  0  0  0  0  0  0  0  0
   -1.1459   -1.4540   -0.5946 N   0  0  0  0  0  0  0  0  0  0  0  0
   -1.7973   -1.1087   -1.2928 H   0  0  0  0  0  0  0  0  0  0  0  0
    0.1622   -0.7817   -0.4788 C   0  0  1  0  0  0  0  0  0  0  0  0
    0.9407   -1.4459   -0.8641 H   0  0  0  0  0  0  0  0  0  0  0  0
    0.1106    0.5237   -1.2984 C   0  0  0  0  0  0  0  0  0  0  0  0
   -0.8010    1.0737   -1.0424 H   0  0  0  0  0  0  0  0  0  0  0  0
    0.9586    1.1519   -1.0016 H   0  0  0  0  0  0  0  0  0  0  0  0
    0.1835    0.3201   -2.8285 C   0  0  0  0  0  0  0  0  0  0  0  0
   -0.6763   -0.2737   -3.1556 H   0  0  0  0  0  0  0  0  0  0  0  0
    0.1211    1.6903   -3.5143 C   0  0  0  0  0  0  0  0  0  0  0  0
    0.9798    2.3061   -3.2275 H   0  0  0  0  0  0  0  0  0  0  0  0
    0.1260    1.5738   -4.6026 H   0  0  0  0  0  0  0  0  0  0  0  0
   -0.7949    2.2182   -3.2317 H   0  0  0  0  0  0  0  0  0  0  0  0
    1.4699   -0.3922   -3.2749 C   0  0  0  0  0  0  0  0  0  0  0  0
    1.4616   -1.4432   -2.9736 H   0  0  0  0  0  0  0  0  0  0  0  0
    1.5636   -0.3624   -4.3650 H   0  0  0  0  0  0  0  0  0  0  0  0
    2.3501    0.0914   -2.8392 H   0  0  0  0  0  0  0  0  0  0  0  0
    0.5716   -0.4498    0.9740 C   0  0  0  0  0  0  0  0  0  0  0  0
    1.7554   -0.4499    1.2853 O   0  0  0  0  0  0  0  0  0  0  0  0
   -0.3513    0.1074    1.8410 N   0  0  0  0  0  0  0  0  0  0  0  0
   -1.3262    0.0014    1.5815 H   0  0  0  0  0  0  0  0  0  0  0  0
   -0.0269    0.4611    3.2168 C   0  0  0  0  0  0  0  0  0  0  0  0
    0.7852    1.1955    3.2431 H   0  0  0  0  0  0  0  0  0  0  0  0
   -0.9005    0.8966    3.7109 H   0  0  0  0  0  0  0  0  0  0  0  0
    0.2836   -0.4275    3.7765 H   0  0  0  0  0  0  0  0  0  0  0  0
  1  2  1  0  0  0  0
  2  3  1  0  0  0  0
  2  4  1  0  0  0  0
  2  5  1  0  0  0  0
  5  6  2  0  0  0  0
  5  7  1  0  0  0  0
  7  8  1  0  0  0  0
  7  9  1  0  0  0  0
  9 10  1  0  0  0  0
  9 11  1  0  0  0  0
  9 24  1  0  0  0  0
 11 12  1  0  0  0  0
 11 13  1  0  0  0  0
 11 14  1  0  0  0  0
 14 15  1  0  0  0  0
 14 16  1  0  0  0  0
 14 20  1  0  0  0  0
 16 17  1  0  0  0  0
 16 18  1  0  0  0  0
 16 19  1  0  0  0  0
 20 21  1  0  0  0  0
 20 22  1  0  0  0  0
 20 23  1  0  0  0  0
 24 25  2  0  0  0  0
 24 26  1  0  0  0  0
 26 27  1  0  0  0  0
 26 28  1  0  0  0  0
 28 29  1  0  0  0  0
 28 30  1  0  0  0  0
 28 31  1  0  0  0  0
M  END
$$$$

  -OEChem-04042216013D

 31 30  0     1  0  0  0  0  0999 V2000
   -2.8459   -4.3075    0.2033 H   0  0  0  0  0  0  0  0  0  0  0  0
   -2.7819   -3.3407   -0.3043 C   0  0  0  0  0  0  0  0  0  0  0  0
   -3.6052   -2.7088    0.0371 H   0  0  0  0  0  0  0  0  0  0  0  0
   -2.8765   -3.5029   -1.3807 H   0  0  0  0  0  0  0  0  0  0  0  0
   -1.4540   -2.6761    0.0063 C   0  0  0  0  0  0  0  0  0  0  0  0
   -0.6773   -3.2082    0.7781 O   0  0  0  0  0  0  0  0  0  0  0  0
   -1.1398   -1.4681   -0.5853 N   0  0  0  0  0  0  0  0  0  0  0  0
   -1.7828   -1.1302   -1.2947 H   0  0  0  0  0  0  0  0  0  0  0  0
    0.1708   -0.8013   -0.4707 C   0  0  1  0  0  0  0  0  0  0  0  0
    0.9518   -1.4700   -0.8425 H   0  0  0  0  0  0  0  0  0  0  0  0
    0.1173    0.4994   -1.2995 C   0  0  0  0  0  0  0  0  0  0  0  0
   -0.7831    1.0652   -1.0387 H   0  0  0  0  0  0  0  0  0  0  0  0
    0.9771    1.1109   -1.0016 H   0  0  0  0  0  0  0  0  0  0  0  0
    0.1852    0.3173   -2.8357 C   0  0  0  0  0  0  0  0  0  0  0  0
   -0.7884   -0.0330   -3.1937 H   0  0  0  0  0  0  0  0  0  0  0  0
    0.4948    1.6739   -3.4823 C   0  0  0  0  0  0  0  0  0  0  0  0
    1.4845    2.0322   -3.1802 H   0  0  0  0  0  0  0  0  0  0  0  0
    0.4745    1.5915   -4.5736 H   0  0  0  0  0  0  0  0  0  0  0  0
   -0.2505    2.4176   -3.1829 H   0  0  0  0  0  0  0  0  0  0  0  0
    1.2558   -0.6847   -3.2957 C   0  0  0  0  0  0  0  0  0  0  0  0
    0.9718   -1.7074   -3.0310 H   0  0  0  0  0  0  0  0  0  0  0  0
    1.3733   -0.6470   -4.3833 H   0  0  0  0  0  0  0  0  0  0  0  0
    2.2223   -0.4550   -2.8352 H   0  0  0  0  0  0  0  0  0  0  0  0
    0.5732   -0.4568    0.9816 C   0  0  0  0  0  0  0  0  0  0  0  0
    1.7548   -0.4622    1.3012 O   0  0  0  0  0  0  0  0  0  0  0  0
   -0.3523    0.1137    1.8375 N   0  0  0  0  0  0  0  0  0  0  0  0
   -1.3260    0.0155    1.5705 H   0  0  0  0  0  0  0  0  0  0  0  0
   -0.0366    0.4755    3.2135 C   0  0  0  0  0  0  0  0  0  0  0  0
    0.7768    1.2081    3.2409 H   0  0  0  0  0  0  0  0  0  0  0  0
   -0.9124    0.9164    3.6990 H   0  0  0  0  0  0  0  0  0  0  0  0
    0.2672   -0.4104    3.7810 H   0  0  0  0  0  0  0  0  0  0  0  0
  1  2  1  0  0  0  0
  2  3  1  0  0  0  0
  2  4  1  0  0  0  0
  2  5  1  0  0  0  0
  5  6  2  0  0  0  0
  5  7  1  0  0  0  0
  7  8  1  0  0  0  0
  7  9  1  0  0  0  0
  9 10  1  0  0  0  0
  9 11  1  0  0  0  0
  9 24  1  0  0  0  0
 11 12  1  0  0  0  0
 11 13  1  0  0  0  0
 11 14  1  0  0  0  0
 14 15  1  0  0  0  0
 14 16  1  0  0  0  0
 14 20  1  0  0  0  0
 16 17  1  0  0  0  0
 16 18  1  0  0  0  0
 16 19  1  0  0  0  0
 20 21  1  0  0  0  0
 20 22  1  0  0  0  0
 20 23  1  0  0  0  0
 24 25  2  0  0  0  0
 24 26  1  0  0  0  0
 26 27  1  0  0  0  0
 26 28  1  0  0  0  0
 28 29  1  0  0  0  0
 28 30  1  0  0  0  0
 28 31  1  0  0  0  0
M  END
$$$$

  -OEChem-04042216013D

 31 30  0     1  0  0  0  0  0999 V2000
   -2.8538   -4.3091    0.2206 H   0  0  0  0  0  0  0  0  0  0  0  0
   -2.7858   -3.3442   -0.2902 C   0  0  0  0  0  0  0  0  0  0  0  0
   -3.6095   -2.7098    0.0454 H   0  0  0  0  0  0  0  0  0  0  0  0
   -2.8761   -3.5102   -1.3663 H   0  0  0  0  0  0  0  0  0  0  0  0
   -1.4582   -2.6804    0.0240 C   0  0  0  0  0  0  0  0  0  0  0  0
   -0.6868   -3.2094    0.8032 O   0  0  0  0  0  0  0  0  0  0  0  0
   -1.1387   -1.4769   -0.5736 N   0  0  0  0  0  0  0  0  0  0  0  0
   -1.7758   -1.1453   -1.2913 H   0  0  0  0  0  0  0  0  0  0  0  0
    0.1739   -0.8135   -0.4605 C   0  0  1  0  0  0  0  0  0  0  0  0
    0.9565   -1.4847   -0.8260 H   0  0  0  0  0  0  0  0  0  0  0  0
    0.1223    0.4841   -1.2961 C   0  0  0  0  0  0  0  0  0  0  0  0
   -0.7723    1.0580   -1.0332 H   0  0  0  0  0  0  0  0  0  0  0  0
    0.9851    1.0876   -0.9903 H   0  0  0  0  0  0  0  0  0  0  0  0
    0.1886    0.3192   -2.8388 C   0  0  0  0  0  0  0  0  0  0  0  0
   -0.8349    0.2401   -3.2197 H   0  0  0  0  0  0  0  0  0  0  0  0
    0.8550    1.5585   -3.4514 C   0  0  0  0  0  0  0  0  0  0  0  0
    1.8987    1.6388   -3.1301 H   0  0  0  0  0  0  0  0  0  0  0  0
    0.8326    1.5044   -4.5444 H   0  0  0  0  0  0  0  0  0  0  0  0
    0.3257    2.4657   -3.1437 H   0  0  0  0  0  0  0  0  0  0  0  0
    0.9658   -0.9157   -3.3232 C   0  0  0  0  0  0  0  0  0  0  0  0
    0.4562   -1.8378   -3.0281 H   0  0  0  0  0  0  0  0  0  0  0  0
    1.0408   -0.9139   -4.4152 H   0  0  0  0  0  0  0  0  0  0  0  0
    1.9794   -0.9220   -2.9088 H   0  0  0  0  0  0  0  0  0  0  0  0
    0.5730   -0.4627    0.9916 C   0  0  0  0  0  0  0  0  0  0  0  0
    1.7538   -0.4688    1.3143 O   0  0  0  0  0  0  0  0  0  0  0  0
   -0.3534    0.1149    1.8418 N   0  0  0  0  0  0  0  0  0  0  0  0
   -1.3266    0.0155    1.5734 H   0  0  0  0  0  0  0  0  0  0  0  0
   -0.0400    0.4847    3.2160 C   0  0  0  0  0  0  0  0  0  0  0  0
    0.7765    1.2142    3.2410 H   0  0  0  0  0  0  0  0  0  0  0  0
   -0.9151    0.9323    3.6964 H   0  0  0  0  0  0  0  0  0  0  0  0
    0.2588   -0.3989    3.7898 H   0  0  0  0  0  0  0  0  0  0  0  0
  1  2  1  0  0  0  0
  2  3  1  0  0  0  0
  2  4  1  0  0  0  0
  2  5  1  0  0  0  0
  5  6  2  0  0  0  0
  5  7  1  0  0  0  0
  7  8  1  0  0  0  0
  7  9  1  0  0  0  0
  9 10  1  0  0  0  0
  9 11  1  0  0  0  0
  9 24  1  0  0  0  0
 11 12  1  0  0  0  0
 11 13  1  0  0  0  0
 11 14  1  0  0  0  0
 14 15  1  0  0  0  0
 14 16  1  0  0  0  0
 14 20  1  0  0  0  0
 16 17  1  0  0  0  0
 16 18  1  0  0  0  0
 16 19  1  0  0  0  0
 20 21  1  0  0  0  0
 20 22  1  0  0  0  0
 20 23  1  0  0  0  0
 24 25  2  0  0  0  0
 24 26  1  0  0  0  0
 26 27  1  0  0  0  0
 26 28  1  0  0  0  0
 28 29  1  0  0  0  0
 28 30  1  0  0  0  0
 28 31  1  0  0  0  0
M  END
$$$$

  -OEChem-04042216013D

 31 30  0     1  0  0  0  0  0999 V2000
   -2.8578   -4.3136    0.2439 H   0  0  0  0  0  0  0  0  0  0  0  0
   -2.7895   -3.3531   -0.2753 C   0  0  0  0  0  0  0  0  0  0  0  0
   -3.6167   -2.7178    0.0502 H   0  0  0  0  0  0  0  0  0  0  0  0
   -2.8734   -3.5292   -1.3504 H   0  0  0  0  0  0  0  0  0  0  0  0
   -1.4649   -2.6835    0.0397 C   0  0  0  0  0  0  0  0  0  0  0  0
   -0.6925   -3.2086    0.8205 O   0  0  0  0  0  0  0  0  0  0  0  0
   -1.1473   -1.4809   -0.5611 N   0  0  0  0  0  0  0  0  0  0  0  0
   -1.7839   -1.1534   -1.2814 H   0  0  0  0  0  0  0  0  0  0  0  0
    0.1662   -0.8170   -0.4523 C   0  0  1  0  0  0  0  0  0  0  0  0
    0.9468   -1.4896   -0.8204 H   0  0  0  0  0  0  0  0  0  0  0  0
    0.1229    0.4768   -1.2946 C   0  0  0  0  0  0  0  0  0  0  0  0
   -0.7751    1.0472   -1.0355 H   0  0  0  0  0  0  0  0  0  0  0  0
    0.9778    1.0856   -0.9781 H   0  0  0  0  0  0  0  0  0  0  0  0
    0.1933    0.3220   -2.8422 C   0  0  0  0  0  0  0  0  0  0  0  0
   -0.8039    0.5281   -3.2451 H   0  0  0  0  0  0  0  0  0  0  0  0
    1.1779    1.3497   -3.4182 C   0  0  0  0  0  0  0  0  0  0  0  0
    2.1951    1.1544   -3.0626 H   0  0  0  0  0  0  0  0  0  0  0  0
    1.1797    1.3092   -4.5121 H   0  0  0  0  0  0  0  0  0  0  0  0
    0.8919    2.3621   -3.1155 H   0  0  0  0  0  0  0  0  0  0  0  0
    0.6207   -1.0650   -3.3530 C   0  0  0  0  0  0  0  0  0  0  0  0
   -0.0845   -1.8368   -3.0328 H   0  0  0  0  0  0  0  0  0  0  0  0
    0.6465   -1.0732   -4.4473 H   0  0  0  0  0  0  0  0  0  0  0  0
    1.6197   -1.3237   -2.9875 H   0  0  0  0  0  0  0  0  0  0  0  0
    0.5700   -0.4632    0.9976 C   0  0  0  0  0  0  0  0  0  0  0  0
    1.7519   -0.4683    1.3161 O   0  0  0  0  0  0  0  0  0  0  0  0
   -0.3528    0.1163    1.8503 N   0  0  0  0  0  0  0  0  0  0  0  0
   -1.3272    0.0183    1.5858 H   0  0  0  0  0  0  0  0  0  0  0  0
   -0.0331    0.4878    3.2227 C   0  0  0  0  0  0  0  0  0  0  0  0
    0.7830    1.2179    3.2430 H   0  0  0  0  0  0  0  0  0  0  0  0
   -0.9064    0.9352    3.7066 H   0  0  0  0  0  0  0  0  0  0  0  0
    0.2694   -0.3946    3.7965 H   0  0  0  0  0  0  0  0  0  0  0  0
  1  2  1  0  0  0  0
  2  3  1  0  0  0  0
  2  4  1  0  0  0  0
  2  5  1  0  0  0  0
  5  6  2  0  0  0  0
  5  7  1  0  0  0  0
  7  8  1  0  0  0  0
  7  9  1  0  0  0  0
  9 10  1  0  0  0  0
  9 11  1  0  0  0  0
  9 24  1  0  0  0  0
 11 12  1  0  0  0  0
 11 13  1  0  0  0  0
 11 14  1  0  0  0  0
 14 15  1  0  0  0  0
 14 16  1  0  0  0  0
 14 20  1  0  0  0  0
 16 17  1  0  0  0  0
 16 18  1  0  0  0  0
 16 19  1  0  0  0  0
 20 21  1  0  0  0  0
 20 22  1  0  0  0  0
 20 23  1  0  0  0  0
 24 25  2  0  0  0  0
 24 26  1  0  0  0  0
 26 27  1  0  0  0  0
 26 28  1  0  0  0  0
 28 29  1  0  0  0  0
 28 30  1  0  0  0  0
 28 31  1  0  0  0  0
M  END
$$$$

  -OEChem-04042216013D

 31 30  0     1  0  0  0  0  0999 V2000
   -2.8527   -4.3183    0.2759 H   0  0  0  0  0  0  0  0  0  0  0  0
   -2.7848   -3.3643   -0.2549 C   0  0  0  0  0  0  0  0  0  0  0  0
   -3.6142   -2.7267    0.0599 H   0  0  0  0  0  0  0  0  0  0  0  0
   -2.8655   -3.5540   -1.3280 H   0  0  0  0  0  0  0  0  0  0  0  0
   -1.4625   -2.6879    0.0552 C   0  0  0  0  0  0  0  0  0  0  0  0
   -0.6815   -3.2109    0.8290 O   0  0  0  0  0  0  0  0  0  0  0  0
   -1.1559   -1.4830   -0.5464 N   0  0  0  0  0  0  0  0  0  0  0  0
   -1.8006   -1.1567   -1.2599 H   0  0  0  0  0  0  0  0  0  0  0  0
    0.1548   -0.8118   -0.4481 C   0  0  1  0  0  0  0  0  0  0  0  0
    0.9340   -1.4831   -0.8224 H   0  0  0  0  0  0  0  0  0  0  0  0
    0.1237    0.4782   -1.2973 C   0  0  0  0  0  0  0  0  0  0  0  0
   -0.7859    1.0353   -1.0495 H   0  0  0  0  0  0  0  0  0  0  0  0
    0.9629    1.1040   -0.9716 H   0  0  0  0  0  0  0  0  0  0  0  0
    0.2011    0.3236   -2.8467 C   0  0  0  0  0  0  0  0  0  0  0  0
   -0.6843    0.8114   -3.2687 H   0  0  0  0  0  0  0  0  0  0  0  0
    1.4398    1.0573   -3.3799 C   0  0  0  0  0  0  0  0  0  0  0  0
    2.3553    0.6076   -2.9815 H   0  0  0  0  0  0  0  0  0  0  0  0
    1.4754    1.0072   -4.4728 H   0  0  0  0  0  0  0  0  0  0  0  0
    1.4142    2.1123   -3.0894 H   0  0  0  0  0  0  0  0  0  0  0  0
    0.2308   -1.1160   -3.3905 C   0  0  0  0  0  0  0  0  0  0  0  0
   -0.6678   -1.6654   -3.0995 H   0  0  0  0  0  0  0  0  0  0  0  0
    0.2683   -1.1020   -4.4844 H   0  0  0  0  0  0  0  0  0  0  0  0
    1.1122   -1.6557   -3.0308 H   0  0  0  0  0  0  0  0  0  0  0  0
    0.5676   -0.4577    0.9991 C   0  0  0  0  0  0  0  0  0  0  0  0
    1.7520   -0.4573    1.3088 O   0  0  0  0  0  0  0  0  0  0  0  0
   -0.3519    0.1154    1.8597 N   0  0  0  0  0  0  0  0  0  0  0  0
   -1.3276    0.0111    1.6027 H   0  0  0  0  0  0  0  0  0  0  0  0
   -0.0243    0.4841    3.2309 C   0  0  0  0  0  0  0  0  0  0  0  0
    0.7847    1.2219    3.2473 H   0  0  0  0  0  0  0  0  0  0  0  0
   -0.8979    0.9207    3.7240 H   0  0  0  0  0  0  0  0  0  0  0  0
    0.2914   -0.3978    3.7982 H   0  0  0  0  0  0  0  0  0  0  0  0
  1  2  1  0  0  0  0
  2  3  1  0  0  0  0
  2  4  1  0  0  0  0
  2  5  1  0  0  0  0
  5  6  2  0  0  0  0
  5  7  1  0  0  0  0
  7  8  1  0  0  0  0
  7  9  1  0  0  0  0
  9 10  1  0  0  0  0
  9 11  1  0  0  0  0
  9 24  1  0  0  0  0
 11 12  1  0  0  0  0
 11 13  1  0  0  0  0
 11 14  1  0  0  0  0
 14 15  1  0  0  0  0
 14 16  1  0  0  0  0
 14 20  1  0  0  0  0
 16 17  1  0  0  0  0
 16 18  1  0  0  0  0
 16 19  1  0  0  0  0
 20 21  1  0  0  0  0
 20 22  1  0  0  0  0
 20 23  1  0  0  0  0
 24 25  2  0  0  0  0
 24 26  1  0  0  0  0
 26 27  1  0  0  0  0
 26 28  1  0  0  0  0
 28 29  1  0  0  0  0
 28 30  1  0  0  0  0
 28 31  1  0  0  0  0
M  END
$$$$

  -OEChem-04042216013D

 31 30  0     1  0  0  0  0  0999 V2000
   -2.8247   -4.3410    0.2851 H   0  0  0  0  0  0  0  0  0  0  0  0
   -2.7774   -3.3763   -0.2285 C   0  0  0  0  0  0  0  0  0  0  0  0
   -3.6009   -2.7500    0.1230 H   0  0  0  0  0  0  0  0  0  0  0  0
   -2.8881   -3.5451   -1.3024 H   0  0  0  0  0  0  0  0  0  0  0  0
   -1.4506   -2.6981    0.0574 C   0  0  0  0  0  0  0  0  0  0  0  0
   -0.6547   -3.2212    0.8157 O   0  0  0  0  0  0  0  0  0  0  0  0
   -1.1590   -1.4888   -0.5431 N   0  0  0  0  0  0  0  0  0  0  0  0
   -1.8183   -1.1583   -1.2409 H   0  0  0  0  0  0  0  0  0  0  0  0
    0.1473   -0.8074   -0.4547 C   0  0  1  0  0  0  0  0  0  0  0  0
    0.9253   -1.4748   -0.8400 H   0  0  0  0  0  0  0  0  0  0  0  0
    0.1253    0.4843   -1.3024 C   0  0  0  0  0  0  0  0  0  0  0  0
   -0.7950    1.0273   -1.0636 H   0  0  0  0  0  0  0  0  0  0  0  0
    0.9519    1.1249   -0.9740 H   0  0  0  0  0  0  0  0  0  0  0  0
    0.2075    0.3242   -2.8488 C   0  0  0  0  0  0  0  0  0  0  0  0
   -0.4888    1.0491   -3.2839 H   0  0  0  0  0  0  0  0  0  0  0  0
    1.6119    0.7069   -3.3349 C   0  0  0  0  0  0  0  0  0  0  0  0
    2.3624    0.0347   -2.9063 H   0  0  0  0  0  0  0  0  0  0  0  0
    1.6714    0.6440   -4.4260 H   0  0  0  0  0  0  0  0  0  0  0  0
    1.8547    1.7332   -3.0415 H   0  0  0  0  0  0  0  0  0  0  0  0
   -0.1652   -1.0543   -3.4178 C   0  0  0  0  0  0  0  0  0  0  0  0
   -1.1986   -1.3089   -3.1694 H   0  0  0  0  0  0  0  0  0  0  0  0
   -0.0799   -1.0439   -4.5089 H   0  0  0  0  0  0  0  0  0  0  0  0
    0.4984   -1.8356   -3.0356 H   0  0  0  0  0  0  0  0  0  0  0  0
    0.5681   -0.4561    0.9908 C   0  0  0  0  0  0  0  0  0  0  0  0
    1.7544   -0.4469    1.2932 O   0  0  0  0  0  0  0  0  0  0  0  0
   -0.3515    0.1059    1.8587 N   0  0  0  0  0  0  0  0  0  0  0  0
   -1.3277   -0.0046    1.6058 H   0  0  0  0  0  0  0  0  0  0  0  0
   -0.0202    0.4750    3.2290 C   0  0  0  0  0  0  0  0  0  0  0  0
    0.7896    1.2121    3.2430 H   0  0  0  0  0  0  0  0  0  0  0  0
   -0.8921    0.9132    3.7236 H   0  0  0  0  0  0  0  0  0  0  0  0
    0.2959   -0.4067    3.7963 H   0  0  0  0  0  0  0  0  0  0  0  0
  1  2  1  0  0  0  0
  2  3  1  0  0  0  0
  2  4  1  0  0  0  0
  2  5  1  0  0  0  0
  5  6  2  0  0  0  0
  5  7  1  0  0  0  0
  7  8  1  0  0  0  0
  7  9  1  0  0  0  0
  9 10  1  0  0  0  0
  9 11  1  0  0  0  0
  9 24  1  0  0  0  0
 11 12  1  0  0  0  0
 11 13  1  0  0  0  0
 11 14  1  0  0  0  0
 14 15  1  0  0  0  0
 14 16  1  0  0  0  0
 14 20  1  0  0  0  0
 16 17  1  0  0  0  0
 16 18  1  0  0  0  0
 16 19  1  0  0  0  0
 20 21  1  0  0  0  0
 20 22  1  0  0  0  0
 20 23  1  0  0  0  0
 24 25  2  0  0  0  0
 24 26  1  0  0  0  0
 26 27  1  0  0  0  0
 26 28  1  0  0  0  0
 28 29  1  0  0  0  0
 28 30  1  0  0  0  0
 28 31  1  0  0  0  0
M  END
$$$$

  -OEChem-04042216013D

 31 30  0     1  0  0  0  0  0999 V2000
   -2.8202   -4.3488    0.2746 H   0  0  0  0  0  0  0  0  0  0  0  0
   -2.7770   -3.3828   -0.2369 C   0  0  0  0  0  0  0  0  0  0  0  0
   -3.6035   -2.7611    0.1151 H   0  0  0  0  0  0  0  0  0  0  0  0
   -2.8856   -3.5494   -1.3113 H   0  0  0  0  0  0  0  0  0  0  0  0
   -1.4540   -2.6988    0.0514 C   0  0  0  0  0  0  0  0  0  0  0  0
   -0.6522   -3.2233    0.8024 O   0  0  0  0  0  0  0  0  0  0  0  0
   -1.1715   -1.4844   -0.5426 N   0  0  0  0  0  0  0  0  0  0  0  0
   -1.8361   -1.1534   -1.2351 H   0  0  0  0  0  0  0  0  0  0  0  0
    0.1328   -0.7987   -0.4592 C   0  0  1  0  0  0  0  0  0  0  0  0
    0.9040   -1.4669   -0.8577 H   0  0  0  0  0  0  0  0  0  0  0  0
    0.1158    0.4948   -1.3046 C   0  0  0  0  0  0  0  0  0  0  0  0
   -0.8057    1.0375   -1.0700 H   0  0  0  0  0  0  0  0  0  0  0  0
    0.9433    1.1375   -0.9829 H   0  0  0  0  0  0  0  0  0  0  0  0
    0.2006    0.3224   -2.8454 C   0  0  0  0  0  0  0  0  0  0  0  0
   -0.2686    1.2063   -3.2907 H   0  0  0  0  0  0  0  0  0  0  0  0
    1.6694    0.3263   -3.2883 C   0  0  0  0  0  0  0  0  0  0  0  0
    2.2069   -0.5199   -2.8485 H   0  0  0  0  0  0  0  0  0  0  0  0
    1.7407    0.2539   -4.3781 H   0  0  0  0  0  0  0  0  0  0  0  0
    2.1637    1.2519   -2.9767 H   0  0  0  0  0  0  0  0  0  0  0  0
   -0.5109   -0.9077   -3.4264 C   0  0  0  0  0  0  0  0  0  0  0  0
   -1.5719   -0.8978   -3.1615 H   0  0  0  0  0  0  0  0  0  0  0  0
   -0.4377   -0.9021   -4.5184 H   0  0  0  0  0  0  0  0  0  0  0  0
   -0.0581   -1.8350   -3.0622 H   0  0  0  0  0  0  0  0  0  0  0  0
    0.5671   -0.4539    0.9834 C   0  0  0  0  0  0  0  0  0  0  0  0
    1.7566   -0.4421    1.2725 O   0  0  0  0  0  0  0  0  0  0  0  0
   -0.3449    0.0999    1.8641 N   0  0  0  0  0  0  0  0  0  0  0  0
   -1.3233   -0.0094    1.6195 H   0  0  0  0  0  0  0  0  0  0  0  0
   -0.0005    0.4657    3.2321 C   0  0  0  0  0  0  0  0  0  0  0  0
    0.8056    1.2068    3.2402 H   0  0  0  0  0  0  0  0  0  0  0  0
   -0.8691    0.8976    3.7380 H   0  0  0  0  0  0  0  0  0  0  0  0
    0.3259   -0.4166    3.7926 H   0  0  0  0  0  0  0  0  0  0  0  0
  1  2  1  0  0  0  0
  2  3  1  0  0  0  0
  2  4  1  0  0  0  0
  2  5  1  0  0  0  0
  5  6  2  0  0  0  0
  5  7  1  0  0  0  0
  7  8  1  0  0  0  0
  7  9  1  0  0  0  0
  9 10  1  0  0  0  0
  9 11  1  0  0  0  0
  9 24  1  0  0  0  0
 11 12  1  0  0  0  0
 11 13  1  0  0  0  0
 11 14  1  0  0  0  0
 14 15  1  0  0  0  0
 14 16  1  0  0  0  0
 14 20  1  0  0  0  0
 16 17  1  0  0  0  0
 16 18  1  0  0  0  0
 16 19  1  0  0  0  0
 20 21  1  0  0  0  0
 20 22  1  0  0  0  0
 20 23  1  0  0  0  0
 24 25  2  0  0  0  0
 24 26  1  0  0  0  0
 26 27  1  0  0  0  0
 26 28  1  0  0  0  0
 28 29  1  0  0  0  0
 28 30  1  0  0  0  0
 28 31  1  0  0  0  0
M  END
$$$$

  -OEChem-04042216013D

 31 30  0     1  0  0  0  0  0999 V2000
   -2.8230   -4.3517    0.2655 H   0  0  0  0  0  0  0  0  0  0  0  0
   -2.7787   -3.3849   -0.2441 C   0  0  0  0  0  0  0  0  0  0  0  0
   -3.6075   -2.7649    0.1056 H   0  0  0  0  0  0  0  0  0  0  0  0
   -2.8826   -3.5504   -1.3191 H   0  0  0  0  0  0  0  0  0  0  0  0
   -1.4581   -2.6990    0.0507 C   0  0  0  0  0  0  0  0  0  0  0  0
   -0.6606   -3.2208    0.8083 O   0  0  0  0  0  0  0  0  0  0  0  0
   -1.1738   -1.4850   -0.5433 N   0  0  0  0  0  0  0  0  0  0  0  0
   -1.8324   -1.1593   -1.2441 H   0  0  0  0  0  0  0  0  0  0  0  0
    0.1313   -0.8018   -0.4591 C   0  0  1  0  0  0  0  0  0  0  0  0
    0.8989   -1.4739   -0.8562 H   0  0  0  0  0  0  0  0  0  0  0  0
    0.1141    0.4944   -1.3022 C   0  0  0  0  0  0  0  0  0  0  0  0
   -0.7991    1.0482   -1.0615 H   0  0  0  0  0  0  0  0  0  0  0  0
    0.9541    1.1262   -0.9912 H   0  0  0  0  0  0  0  0  0  0  0  0
    0.1966    0.3229   -2.8399 C   0  0  0  0  0  0  0  0  0  0  0  0
   -0.0298    1.3010   -3.2779 H   0  0  0  0  0  0  0  0  0  0  0  0
    1.6235   -0.0459   -3.2666 C   0  0  0  0  0  0  0  0  0  0  0  0
    1.9051   -1.0320   -2.8853 H   0  0  0  0  0  0  0  0  0  0  0  0
    1.6996   -0.0647   -4.3583 H   0  0  0  0  0  0  0  0  0  0  0  0
    2.3398    0.6900   -2.8879 H   0  0  0  0  0  0  0  0  0  0  0  0
   -0.7993   -0.6821   -3.4325 C   0  0  0  0  0  0  0  0  0  0  0  0
   -1.8179   -0.4475   -3.1096 H   0  0  0  0  0  0  0  0  0  0  0  0
   -0.7706   -0.6367   -4.5257 H   0  0  0  0  0  0  0  0  0  0  0  0
   -0.5537   -1.7049   -3.1305 H   0  0  0  0  0  0  0  0  0  0  0  0
    0.5658   -0.4578    0.9835 C   0  0  0  0  0  0  0  0  0  0  0  0
    1.7552   -0.4483    1.2729 O   0  0  0  0  0  0  0  0  0  0  0  0
   -0.3454    0.0976    1.8640 N   0  0  0  0  0  0  0  0  0  0  0  0
   -1.3242   -0.0129    1.6213 H   0  0  0  0  0  0  0  0  0  0  0  0
    0.0012    0.4640    3.2311 C   0  0  0  0  0  0  0  0  0  0  0  0
    0.8085    1.2040    3.2369 H   0  0  0  0  0  0  0  0  0  0  0  0
   -0.8660    0.8974    3.7381 H   0  0  0  0  0  0  0  0  0  0  0  0
    0.3279   -0.4182    3.7915 H   0  0  0  0  0  0  0  0  0  0  0  0
  1  2  1  0  0  0  0
  2  3  1  0  0  0  0
  2  4  1  0  0  0  0
  2  5  1  0  0  0  0
  5  6  2  0  0  0  0
  5  7  1  0  0  0  0
  7  8  1  0  0  0  0
  7  9  1  0  0  0  0
  9 10  1  0  0  0  0
  9 11  1  0  0  0  0
  9 24  1  0  0  0  0
 11 12  1  0  0  0  0
 11 13  1  0  0  0  0
 11 14  1  0  0  0  0
 14 15  1  0  0  0  0
 14 16  1  0  0  0  0
 14 20  1  0  0  0  0
 16 17  1  0  0  0  0
 16 18  1  0  0  0  0
 16 19  1  0  0  0  0
 20 21  1  0  0  0  0
 20 22  1  0  0  0  0
 20 23  1  0  0  0  0
 24 25  2  0  0  0  0
 24 26  1  0  0  0  0
 26 27  1  0  0  0  0
 26 28  1  0  0  0  0
 28 29  1  0  0  0  0
 28 30  1  0  0  0  0
 28 31  1  0  0  0  0
M  END
$$$$

  -OEChem-04042216013D

 31 30  0     1  0  0  0  0  0999 V2000
   -2.8299   -4.3493    0.2612 H   0  0  0  0  0  0  0  0  0  0  0  0
   -2.7808   -3.3834   -0.2501 C   0  0  0  0  0  0  0  0  0  0  0  0
   -3.6101   -2.7607    0.0942 H   0  0  0  0  0  0  0  0  0  0  0  0
   -2.8798   -3.5509   -1.3253 H   0  0  0  0  0  0  0  0  0  0  0  0
   -1.4592   -2.7011    0.0501 C   0  0  0  0  0  0  0  0  0  0  0  0
   -0.6678   -3.2244    0.8131 O   0  0  0  0  0  0  0  0  0  0  0  0
   -1.1660   -1.4900   -0.5456 N   0  0  0  0  0  0  0  0  0  0  0  0
   -1.8183   -1.1641   -1.2523 H   0  0  0  0  0  0  0  0  0  0  0  0
    0.1403   -0.8110   -0.4553 C   0  0  1  0  0  0  0  0  0  0  0  0
    0.9107   -1.4852   -0.8410 H   0  0  0  0  0  0  0  0  0  0  0  0
    0.1150    0.4866   -1.2963 C   0  0  0  0  0  0  0  0  0  0  0  0
   -0.7851    1.0562   -1.0430 H   0  0  0  0  0  0  0  0  0  0  0  0
    0.9712    1.1016   -0.9969 H   0  0  0  0  0  0  0  0  0  0  0  0
    0.1927    0.3219   -2.8342 C   0  0  0  0  0  0  0  0  0  0  0  0
    0.2119    1.3332   -3.2551 H   0  0  0  0  0  0  0  0  0  0  0  0
    1.4819   -0.3856   -3.2732 C   0  0  0  0  0  0  0  0  0  0  0  0
    1.4696   -1.4438   -2.9961 H   0  0  0  0  0  0  0  0  0  0  0  0
    1.5947   -0.3204   -4.3598 H   0  0  0  0  0  0  0  0  0  0  0  0
    2.3538    0.0866   -2.8095 H   0  0  0  0  0  0  0  0  0  0  0  0
   -1.0216   -0.3991   -3.4330 C   0  0  0  0  0  0  0  0  0  0  0  0
   -1.9512    0.0469   -3.0666 H   0  0  0  0  0  0  0  0  0  0  0  0
   -1.0071   -0.3108   -4.5239 H   0  0  0  0  0  0  0  0  0  0  0  0
   -1.0136   -1.4635   -3.1807 H   0  0  0  0  0  0  0  0  0  0  0  0
    0.5668   -0.4635    0.9892 C   0  0  0  0  0  0  0  0  0  0  0  0
    1.7548   -0.4537    1.2846 O   0  0  0  0  0  0  0  0  0  0  0  0
   -0.3475    0.0978    1.8628 N   0  0  0  0  0  0  0  0  0  0  0  0
   -1.3251   -0.0153    1.6170 H   0  0  0  0  0  0  0  0  0  0  0  0
   -0.0069    0.4685    3.2304 C   0  0  0  0  0  0  0  0  0  0  0  0
    0.8036    1.2049    3.2381 H   0  0  0  0  0  0  0  0  0  0  0  0
   -0.8748    0.9080    3.7308 H   0  0  0  0  0  0  0  0  0  0  0  0
    0.3123   -0.4129    3.7964 H   0  0  0  0  0  0  0  0  0  0  0  0
  1  2  1  0  0  0  0
  2  3  1  0  0  0  0
  2  4  1  0  0  0  0
  2  5  1  0  0  0  0
  5  6  2  0  0  0  0
  5  7  1  0  0  0  0
  7  8  1  0  0  0  0
  7  9  1  0  0  0  0
  9 10  1  0  0  0  0
  9 11  1  0  0  0  0
  9 24  1  0  0  0  0
 11 12  1  0  0  0  0
 11 13  1  0  0  0  0
 11 14  1  0  0  0  0
 14 15  1  0  0  0  0
 14 16  1  0  0  0  0
 14 20  1  0  0  0  0
 16 17  1  0  0  0  0
 16 18  1  0  0  0  0
 16 19  1  0  0  0  0
 20 21  1  0  0  0  0
 20 22  1  0  0  0  0
 20 23  1  0  0  0  0
 24 25  2  0  0  0  0
 24 26  1  0  0  0  0
 26 27  1  0  0  0  0
 26 28  1  0  0  0  0
 28 29  1  0  0  0  0
 28 30  1  0  0  0  0
 28 31  1  0  0  0  0
M  END
$$$$

  -OEChem-04042216013D

 31 30  0     1  0  0  0  0  0999 V2000
   -2.8412   -4.3357    0.2579 H   0  0  0  0  0  0  0  0  0  0  0  0
   -2.7839   -3.3706   -0.2534 C   0  0  0  0  0  0  0  0  0  0  0  0
   -3.6075   -2.7406    0.0908 H   0  0  0  0  0  0  0  0  0  0  0  0
   -2.8849   -3.5370   -1.3286 H   0  0  0  0  0  0  0  0  0  0  0  0
   -1.4562   -2.7001    0.0463 C   0  0  0  0  0  0  0  0  0  0  0  0
   -0.6701   -3.2280    0.8117 O   0  0  0  0  0  0  0  0  0  0  0  0
   -1.1531   -1.4918   -0.5498 N   0  0  0  0  0  0  0  0  0  0  0  0
   -1.8044   -1.1572   -1.2532 H   0  0  0  0  0  0  0  0  0  0  0  0
    0.1546   -0.8181   -0.4529 C   0  0  1  0  0  0  0  0  0  0  0  0
    0.9300   -1.4913   -0.8294 H   0  0  0  0  0  0  0  0  0  0  0  0
    0.1174    0.4806   -1.2913 C   0  0  0  0  0  0  0  0  0  0  0  0
   -0.7699    1.0627   -1.0216 H   0  0  0  0  0  0  0  0  0  0  0  0
    0.9866    1.0820   -1.0012 H   0  0  0  0  0  0  0  0  0  0  0  0
    0.1878    0.3238   -2.8320 C   0  0  0  0  0  0  0  0  0  0  0  0
    0.4456    1.3080   -3.2384 H   0  0  0  0  0  0  0  0  0  0  0  0
    1.2607   -0.6719   -3.2946 C   0  0  0  0  0  0  0  0  0  0  0  0
    0.9793   -1.7014   -3.0529 H   0  0  0  0  0  0  0  0  0  0  0  0
    1.3949   -0.6031   -4.3786 H   0  0  0  0  0  0  0  0  0  0  0  0
    2.2195   -0.4479   -2.8161 H   0  0  0  0  0  0  0  0  0  0  0  0
   -1.1661   -0.0805   -3.4316 C   0  0  0  0  0  0  0  0  0  0  0  0
   -1.9589    0.5836   -3.0741 H   0  0  0  0  0  0  0  0  0  0  0  0
   -1.1277   -0.0082   -4.5231 H   0  0  0  0  0  0  0  0  0  0  0  0
   -1.4238   -1.1104   -3.1702 H   0  0  0  0  0  0  0  0  0  0  0  0
    0.5706   -0.4704    0.9948 C   0  0  0  0  0  0  0  0  0  0  0  0
    1.7559   -0.4668    1.3011 O   0  0  0  0  0  0  0  0  0  0  0  0
   -0.3492    0.0954    1.8599 N   0  0  0  0  0  0  0  0  0  0  0  0
   -1.3249   -0.0119    1.6040 H   0  0  0  0  0  0  0  0  0  0  0  0
   -0.0210    0.4614    3.2317 C   0  0  0  0  0  0  0  0  0  0  0  0
    0.7894    1.1977    3.2491 H   0  0  0  0  0  0  0  0  0  0  0  0
   -0.8936    0.8993    3.7252 H   0  0  0  0  0  0  0  0  0  0  0  0
    0.2928   -0.4217    3.7982 H   0  0  0  0  0  0  0  0  0  0  0  0
  1  2  1  0  0  0  0
  2  3  1  0  0  0  0
  2  4  1  0  0  0  0
  2  5  1  0  0  0  0
  5  6  2  0  0  0  0
  5  7  1  0  0  0  0
  7  8  1  0  0  0  0
  7  9  1  0  0  0  0
  9 10  1  0  0  0  0
  9 11  1  0  0  0  0
  9 24  1  0  0  0  0
 11 12  1  0  0  0  0
 11 13  1  0  0  0  0
 11 14  1  0  0  0  0
 14 15  1  0  0  0  0
 14 16  1  0  0  0  0
 14 20  1  0  0  0  0
 16 17  1  0  0  0  0
 16 18  1  0  0  0  0
 16 19  1  0  0  0  0
 20 21  1  0  0  0  0
 20 22  1  0  0  0  0
 20 23  1  0  0  0  0
 24 25  2  0  0  0  0
 24 26  1  0  0  0  0
 26 27  1  0  0  0  0
 26 28  1  0  0  0  0
 28 29  1  0  0  0  0
 28 30  1  0  0  0  0
 28 31  1  0  0  0  0
M  END
$$$$

  -OEChem-04042216013D

 31 30  0     1  0  0  0  0  0999 V2000
   -2.8514   -4.3322    0.2365 H   0  0  0  0  0  0  0  0  0  0  0  0
   -2.7875   -3.3657   -0.2717 C   0  0  0  0  0  0  0  0  0  0  0  0
   -3.6125   -2.7347    0.0673 H   0  0  0  0  0  0  0  0  0  0  0  0
   -2.8796   -3.5289   -1.3481 H   0  0  0  0  0  0  0  0  0  0  0  0
   -1.4610   -2.6991    0.0408 C   0  0  0  0  0  0  0  0  0  0  0  0
   -0.6838   -3.2297    0.8132 O   0  0  0  0  0  0  0  0  0  0  0  0
   -1.1480   -1.4925   -0.5536 N   0  0  0  0  0  0  0  0  0  0  0  0
   -1.7918   -1.1567   -1.2631 H   0  0  0  0  0  0  0  0  0  0  0  0
    0.1628   -0.8257   -0.4483 C   0  0  1  0  0  0  0  0  0  0  0  0
    0.9410   -1.4984   -0.8204 H   0  0  0  0  0  0  0  0  0  0  0  0
    0.1197    0.4748   -1.2828 C   0  0  0  0  0  0  0  0  0  0  0  0
   -0.7586    1.0639   -0.9988 H   0  0  0  0  0  0  0  0  0  0  0  0
    0.9963    1.0670   -0.9959 H   0  0  0  0  0  0  0  0  0  0  0  0
    0.1862    0.3257   -2.8269 C   0  0  0  0  0  0  0  0  0  0  0  0
    0.6752    1.2238   -3.2201 H   0  0  0  0  0  0  0  0  0  0  0  0
    0.9769   -0.8958   -3.3184 C   0  0  0  0  0  0  0  0  0  0  0  0
    0.4720   -1.8301   -3.0532 H   0  0  0  0  0  0  0  0  0  0  0  0
    1.0818   -0.8630   -4.4074 H   0  0  0  0  0  0  0  0  0  0  0  0
    1.9804   -0.9003   -2.8810 H   0  0  0  0  0  0  0  0  0  0  0  0
   -1.2263    0.2681   -3.4254 C   0  0  0  0  0  0  0  0  0  0  0  0
   -1.8069    1.1458   -3.1243 H   0  0  0  0  0  0  0  0  0  0  0  0
   -1.1725    0.2562   -4.5187 H   0  0  0  0  0  0  0  0  0  0  0  0
   -1.7563   -0.6310   -3.0992 H   0  0  0  0  0  0  0  0  0  0  0  0
    0.5720   -0.4793    1.0015 C   0  0  0  0  0  0  0  0  0  0  0  0
    1.7554   -0.4801    1.3150 O   0  0  0  0  0  0  0  0  0  0  0  0
   -0.3503    0.0922    1.8601 N   0  0  0  0  0  0  0  0  0  0  0  0
   -1.3250   -0.0093    1.5979 H   0  0  0  0  0  0  0  0  0  0  0  0
   -0.0282    0.4635    3.2320 C   0  0  0  0  0  0  0  0  0  0  0  0
    0.7851    1.1965    3.2502 H   0  0  0  0  0  0  0  0  0  0  0  0
   -0.9018    0.9075    3.7183 H   0  0  0  0  0  0  0  0  0  0  0  0
    0.2789   -0.4181    3.8044 H   0  0  0  0  0  0  0  0  0  0  0  0
  1  2  1  0  0  0  0
  2  3  1  0  0  0  0
  2  4  1  0  0  0  0
  2  5  1  0  0  0  0
  5  6  2  0  0  0  0
  5  7  1  0  0  0  0
  7  8  1  0  0  0  0
  7  9  1  0  0  0  0
  9 10  1  0  0  0  0
  9 11  1  0  0  0  0
  9 24  1  0  0  0  0
 11 12  1  0  0  0  0
 11 13  1  0  0  0  0
 11 14  1  0  0  0  0
 14 15  1  0  0  0  0
 14 16  1  0  0  0  0
 14 20  1  0  0  0  0
 16 17  1  0  0  0  0
 16 18  1  0  0  0  0
 16 19  1  0  0  0  0
 20 21  1  0  0  0  0
 20 22  1  0  0  0  0
 20 23  1  0  0  0  0
 24 25  2  0  0  0  0
 24 26  1  0  0  0  0
 26 27  1  0  0  0  0
 26 28  1  0  0  0  0
 28 29  1  0  0  0  0
 28 30  1  0  0  0  0
 28 31  1  0  0  0  0
M  END
$$$$

  -OEChem-04042216013D

 31 30  0     1  0  0  0  0  0999 V2000
   -2.8576   -4.3257    0.2336 H   0  0  0  0  0  0  0  0  0  0  0  0
   -2.7919   -3.3589   -0.2735 C   0  0  0  0  0  0  0  0  0  0  0  0
   -3.6167   -2.7273    0.0649 H   0  0  0  0  0  0  0  0  0  0  0  0
   -2.8818   -3.5211   -1.3501 H   0  0  0  0  0  0  0  0  0  0  0  0
   -1.4657   -2.6939    0.0428 C   0  0  0  0  0  0  0  0  0  0  0  0
   -0.6940   -3.2227    0.8218 O   0  0  0  0  0  0  0  0  0  0  0  0
   -1.1474   -1.4898   -0.5537 N   0  0  0  0  0  0  0  0  0  0  0  0
   -1.7832   -1.1591   -1.2730 H   0  0  0  0  0  0  0  0  0  0  0  0
    0.1658   -0.8271   -0.4448 C   0  0  1  0  0  0  0  0  0  0  0  0
    0.9455   -1.4987   -0.8159 H   0  0  0  0  0  0  0  0  0  0  0  0
    0.1200    0.4702   -1.2819 C   0  0  0  0  0  0  0  0  0  0  0  0
   -0.7592    1.0551   -0.9921 H   0  0  0  0  0  0  0  0  0  0  0  0
    0.9936    1.0668   -0.9949 H   0  0  0  0  0  0  0  0  0  0  0  0
    0.1864    0.3219   -2.8291 C   0  0  0  0  0  0  0  0  0  0  0  0
    0.8887    1.0743   -3.2048 H   0  0  0  0  0  0  0  0  0  0  0  0
    0.6495   -1.0494   -3.3472 C   0  0  0  0  0  0  0  0  0  0  0  0
   -0.0422   -1.8437   -3.0512 H   0  0  0  0  0  0  0  0  0  0  0  0
    0.7070   -1.0386   -4.4401 H   0  0  0  0  0  0  0  0  0  0  0  0
    1.6465   -1.2854   -2.9626 H   0  0  0  0  0  0  0  0  0  0  0  0
   -1.1907    0.6240   -3.4362 C   0  0  0  0  0  0  0  0  0  0  0  0
   -1.5173    1.6318   -3.1607 H   0  0  0  0  0  0  0  0  0  0  0  0
   -1.1460    0.5697   -4.5286 H   0  0  0  0  0  0  0  0  0  0  0  0
   -1.9374   -0.0941   -3.0838 H   0  0  0  0  0  0  0  0  0  0  0  0
    0.5702   -0.4789    1.0060 C   0  0  0  0  0  0  0  0  0  0  0  0
    1.7522   -0.4847    1.3247 O   0  0  0  0  0  0  0  0  0  0  0  0
   -0.3533    0.0974    1.8600 N   0  0  0  0  0  0  0  0  0  0  0  0
   -1.3272   -0.0024    1.5943 H   0  0  0  0  0  0  0  0  0  0  0  0
   -0.0364    0.4613    3.2350 C   0  0  0  0  0  0  0  0  0  0  0  0
    0.7803    1.1903    3.2604 H   0  0  0  0  0  0  0  0  0  0  0  0
   -0.9101    0.9070    3.7197 H   0  0  0  0  0  0  0  0  0  0  0  0
    0.2640   -0.4244    3.8047 H   0  0  0  0  0  0  0  0  0  0  0  0
  1  2  1  0  0  0  0
  2  3  1  0  0  0  0
  2  4  1  0  0  0  0
  2  5  1  0  0  0  0
  5  6  2  0  0  0  0
  5  7  1  0  0  0  0
  7  8  1  0  0  0  0
  7  9  1  0  0  0  0
  9 10  1  0  0  0  0
  9 11  1  0  0  0  0
  9 24  1  0  0  0  0
 11 12  1  0  0  0  0
 11 13  1  0  0  0  0
 11 14  1  0  0  0  0
 14 15  1  0  0  0  0
 14 16  1  0  0  0  0
 14 20  1  0  0  0  0
 16 17  1  0  0  0  0
 16 18  1  0  0  0  0
 16 19  1  0  0  0  0
 20 21  1  0  0  0  0
 20 22  1  0  0  0  0
 20 23  1  0  0  0  0
 24 25  2  0  0  0  0
 24 26  1  0  0  0  0
 26 27  1  0  0  0  0
 26 28  1  0  0  0  0
 28 29  1  0  0  0  0
 28 30  1  0  0  0  0
 28 31  1  0  0  0  0
M  END
$$$$

  -OEChem-04042216013D

 31 30  0     1  0  0  0  0  0999 V2000
   -2.8512   -4.3461    0.2590 H   0  0  0  0  0  0  0  0  0  0  0  0
   -2.7919   -3.3813   -0.2533 C   0  0  0  0  0  0  0  0  0  0  0  0
   -3.6220   -2.7540    0.0798 H   0  0  0  0  0  0  0  0  0  0  0  0
   -2.8787   -3.5503   -1.3294 H   0  0  0  0  0  0  0  0  0  0  0  0
   -1.4713   -2.7043    0.0614 C   0  0  0  0  0  0  0  0  0  0  0  0
   -0.6949   -3.2249    0.8413 O   0  0  0  0  0  0  0  0  0  0  0  0
   -1.1622   -1.5003   -0.5403 N   0  0  0  0  0  0  0  0  0  0  0  0
   -1.8013   -1.1775   -1.2605 H   0  0  0  0  0  0  0  0  0  0  0  0
    0.1495   -0.8321   -0.4414 C   0  0  1  0  0  0  0  0  0  0  0  0
    0.9278   -1.5026   -0.8176 H   0  0  0  0  0  0  0  0  0  0  0  0
    0.1088    0.4614   -1.2838 C   0  0  0  0  0  0  0  0  0  0  0  0
   -0.7831    1.0292   -0.9977 H   0  0  0  0  0  0  0  0  0  0  0  0
    0.9692    1.0741   -0.9909 H   0  0  0  0  0  0  0  0  0  0  0  0
    0.1763    0.3154   -2.8332 C   0  0  0  0  0  0  0  0  0  0  0  0
    1.0718    0.8491   -3.1706 H   0  0  0  0  0  0  0  0  0  0  0  0
    0.2787   -1.1176   -3.3835 C   0  0  0  0  0  0  0  0  0  0  0  0
   -0.5981   -1.7128   -3.1146 H   0  0  0  0  0  0  0  0  0  0  0  0
    0.3486   -1.0943   -4.4756 H   0  0  0  0  0  0  0  0  0  0  0  0
    1.1773   -1.6148   -3.0067 H   0  0  0  0  0  0  0  0  0  0  0  0
   -1.0409    0.9988   -3.4702 C   0  0  0  0  0  0  0  0  0  0  0  0
   -1.0899    2.0498   -3.1677 H   0  0  0  0  0  0  0  0  0  0  0  0
   -0.9721    0.9630   -4.5622 H   0  0  0  0  0  0  0  0  0  0  0  0
   -1.9675    0.5032   -3.1639 H   0  0  0  0  0  0  0  0  0  0  0  0
    0.5634   -0.4784    1.0055 C   0  0  0  0  0  0  0  0  0  0  0  0
    1.7481   -0.4758    1.3138 O   0  0  0  0  0  0  0  0  0  0  0  0
   -0.3562    0.0968    1.8645 N   0  0  0  0  0  0  0  0  0  0  0  0
   -1.3318   -0.0097    1.6078 H   0  0  0  0  0  0  0  0  0  0  0  0
   -0.0292    0.4745    3.2335 C   0  0  0  0  0  0  0  0  0  0  0  0
    0.7848    1.2071    3.2456 H   0  0  0  0  0  0  0  0  0  0  0  0
   -0.9009    0.9216    3.7206 H   0  0  0  0  0  0  0  0  0  0  0  0
    0.2789   -0.4047    3.8090 H   0  0  0  0  0  0  0  0  0  0  0  0
  1  2  1  0  0  0  0
  2  3  1  0  0  0  0
  2  4  1  0  0  0  0
  2  5  1  0  0  0  0
  5  6  2  0  0  0  0
  5  7  1  0  0  0  0
  7  8  1  0  0  0  0
  7  9  1  0  0  0  0
  9 10  1  0  0  0  0
  9 11  1  0  0  0  0
  9 24  1  0  0  0  0
 11 12  1  0  0  0  0
 11 13  1  0  0  0  0
 11 14  1  0  0  0  0
 14 15  1  0  0  0  0
 14 16  1  0  0  0  0
 14 20  1  0  0  0  0
 16 17  1  0  0  0  0
 16 18  1  0  0  0  0
 16 19  1  0  0  0  0
 20 21  1  0  0  0  0
 20 22  1  0  0  0  0
 20 23  1  0  0  0  0
 24 25  2  0  0  0  0
 24 26  1  0  0  0  0
 26 27  1  0  0  0  0
 26 28  1  0  0  0  0
 28 29  1  0  0  0  0
 28 30  1  0  0  0  0
 28 31  1  0  0  0  0
M  END
$$$$

  -OEChem-04042216013D

 31 30  0     1  0  0  0  0  0999 V2000
   -2.8364   -4.3639    0.2836 H   0  0  0  0  0  0  0  0  0  0  0  0
   -2.7886   -3.4007   -0.2325 C   0  0  0  0  0  0  0  0  0  0  0  0
   -3.6206   -2.7786    0.1056 H   0  0  0  0  0  0  0  0  0  0  0  0
   -2.8833   -3.5739   -1.3072 H   0  0  0  0  0  0  0  0  0  0  0  0
   -1.4705   -2.7124    0.0686 C   0  0  0  0  0  0  0  0  0  0  0  0
   -0.6796   -3.2294    0.8362 O   0  0  0  0  0  0  0  0  0  0  0  0
   -1.1785   -1.5041   -0.5332 N   0  0  0  0  0  0  0  0  0  0  0  0
   -1.8318   -1.1809   -1.2404 H   0  0  0  0  0  0  0  0  0  0  0  0
    0.1291   -0.8252   -0.4482 C   0  0  1  0  0  0  0  0  0  0  0  0
    0.9070   -1.4905   -0.8364 H   0  0  0  0  0  0  0  0  0  0  0  0
    0.0912    0.4683   -1.2903 C   0  0  0  0  0  0  0  0  0  0  0  0
   -0.8148    1.0175   -1.0124 H   0  0  0  0  0  0  0  0  0  0  0  0
    0.9384    1.0980   -0.9945 H   0  0  0  0  0  0  0  0  0  0  0  0
    0.1570    0.3173   -2.8378 C   0  0  0  0  0  0  0  0  0  0  0  0
    1.1778    0.5807   -3.1366 H   0  0  0  0  0  0  0  0  0  0  0  0
   -0.1057   -1.0871   -3.4075 C   0  0  0  0  0  0  0  0  0  0  0  0
   -1.1232   -1.4189   -3.1831 H   0  0  0  0  0  0  0  0  0  0  0  0
    0.0130   -1.0757   -4.4955 H   0  0  0  0  0  0  0  0  0  0  0  0
    0.6044   -1.8157   -3.0065 H   0  0  0  0  0  0  0  0  0  0  0  0
   -0.7972    1.3191   -3.4990 C   0  0  0  0  0  0  0  0  0  0  0  0
   -0.5754    2.3363   -3.1607 H   0  0  0  0  0  0  0  0  0  0  0  0
   -0.6873    1.2902   -4.5877 H   0  0  0  0  0  0  0  0  0  0  0  0
   -1.8372    1.0867   -3.2489 H   0  0  0  0  0  0  0  0  0  0  0  0
    0.5568   -0.4726    0.9946 C   0  0  0  0  0  0  0  0  0  0  0  0
    1.7451   -0.4604    1.2891 O   0  0  0  0  0  0  0  0  0  0  0  0
   -0.3575    0.0925    1.8656 N   0  0  0  0  0  0  0  0  0  0  0  0
   -1.3353   -0.0213    1.6203 H   0  0  0  0  0  0  0  0  0  0  0  0
   -0.0165    0.4737    3.2300 C   0  0  0  0  0  0  0  0  0  0  0  0
    0.7910    1.2135    3.2310 H   0  0  0  0  0  0  0  0  0  0  0  0
   -0.8855    0.9131    3.7286 H   0  0  0  0  0  0  0  0  0  0  0  0
    0.3075   -0.4026    3.8012 H   0  0  0  0  0  0  0  0  0  0  0  0
  1  2  1  0  0  0  0
  2  3  1  0  0  0  0
  2  4  1  0  0  0  0
  2  5  1  0  0  0  0
  5  6  2  0  0  0  0
  5  7  1  0  0  0  0
  7  8  1  0  0  0  0
  7  9  1  0  0  0  0
  9 10  1  0  0  0  0
  9 11  1  0  0  0  0
  9 24  1  0  0  0  0
 11 12  1  0  0  0  0
 11 13  1  0  0  0  0
 11 14  1  0  0  0  0
 14 15  1  0  0  0  0
 14 16  1  0  0  0  0
 14 20  1  0  0  0  0
 16 17  1  0  0  0  0
 16 18  1  0  0  0  0
 16 19  1  0  0  0  0
 20 21  1  0  0  0  0
 20 22  1  0  0  0  0
 20 23  1  0  0  0  0
 24 25  2  0  0  0  0
 24 26  1  0  0  0  0
 26 27  1  0  0  0  0
 26 28  1  0  0  0  0
 28 29  1  0  0  0  0
 28 30  1  0  0  0  0
 28 31  1  0  0  0  0
M  END
$$$$

  -OEChem-04042216013D

 31 30  0     1  0  0  0  0  0999 V2000
   -2.8248   -4.3657    0.2842 H   0  0  0  0  0  0  0  0  0  0  0  0
   -2.7890   -3.3987   -0.2257 C   0  0  0  0  0  0  0  0  0  0  0  0
   -3.6167   -2.7817    0.1319 H   0  0  0  0  0  0  0  0  0  0  0  0
   -2.9029   -3.5648   -1.2995 H   0  0  0  0  0  0  0  0  0  0  0  0
   -1.4677   -2.7089    0.0569 C   0  0  0  0  0  0  0  0  0  0  0  0
   -0.6609   -3.2296    0.8053 O   0  0  0  0  0  0  0  0  0  0  0  0
   -1.1921   -1.4927   -0.5366 N   0  0  0  0  0  0  0  0  0  0  0  0
   -1.8594   -1.1640   -1.2277 H   0  0  0  0  0  0  0  0  0  0  0  0
    0.1107   -0.8033   -0.4594 C   0  0  1  0  0  0  0  0  0  0  0  0
    0.8844   -1.4648   -0.8641 H   0  0  0  0  0  0  0  0  0  0  0  0
    0.0769    0.4915   -1.3003 C   0  0  0  0  0  0  0  0  0  0  0  0
   -0.8360    1.0352   -1.0351 H   0  0  0  0  0  0  0  0  0  0  0  0
    0.9202    1.1259   -1.0037 H   0  0  0  0  0  0  0  0  0  0  0  0
    0.1474    0.3273   -2.8428 C   0  0  0  0  0  0  0  0  0  0  0  0
    1.2099    0.3155   -3.1105 H   0  0  0  0  0  0  0  0  0  0  0  0
   -0.4556   -0.9631   -3.4196 C   0  0  0  0  0  0  0  0  0  0  0  0
   -1.5244   -1.0267   -3.1956 H   0  0  0  0  0  0  0  0  0  0  0  0
   -0.3344   -0.9795   -4.5075 H   0  0  0  0  0  0  0  0  0  0  0  0
    0.0478   -1.8471   -3.0173 H   0  0  0  0  0  0  0  0  0  0  0  0
   -0.4967    1.5429   -3.5191 C   0  0  0  0  0  0  0  0  0  0  0  0
   -0.0343    2.4675   -3.1590 H   0  0  0  0  0  0  0  0  0  0  0  0
   -0.3609    1.4927   -4.6041 H   0  0  0  0  0  0  0  0  0  0  0  0
   -1.5693    1.5829   -3.3048 H   0  0  0  0  0  0  0  0  0  0  0  0
    0.5514   -0.4601    0.9819 C   0  0  0  0  0  0  0  0  0  0  0  0
    1.7426   -0.4422    1.2636 O   0  0  0  0  0  0  0  0  0  0  0  0
   -0.3575    0.0891    1.8687 N   0  0  0  0  0  0  0  0  0  0  0  0
   -1.3370   -0.0271    1.6315 H   0  0  0  0  0  0  0  0  0  0  0  0
   -0.0060    0.4518    3.2357 C   0  0  0  0  0  0  0  0  0  0  0  0
    0.7991    1.1940    3.2412 H   0  0  0  0  0  0  0  0  0  0  0  0
   -0.8725    0.8811    3.7474 H   0  0  0  0  0  0  0  0  0  0  0  0
    0.3250   -0.4316    3.7918 H   0  0  0  0  0  0  0  0  0  0  0  0
  1  2  1  0  0  0  0
  2  3  1  0  0  0  0
  2  4  1  0  0  0  0
  2  5  1  0  0  0  0
  5  6  2  0  0  0  0
  5  7  1  0  0  0  0
  7  8  1  0  0  0  0
  7  9  1  0  0  0  0
  9 10  1  0  0  0  0
  9 11  1  0  0  0  0
  9 24  1  0  0  0  0
 11 12  1  0  0  0  0
 11 13  1  0  0  0  0
 11 14  1  0  0  0  0
 14 15  1  0  0  0  0
 14 16  1  0  0  0  0
 14 20  1  0  0  0  0
 16 17  1  0  0  0  0
 16 18  1  0  0  0  0
 16 19  1  0  0  0  0
 20 21  1  0  0  0  0
 20 22  1  0  0  0  0
 20 23  1  0  0  0  0
 24 25  2  0  0  0  0
 24 26  1  0  0  0  0
 26 27  1  0  0  0  0
 26 28  1  0  0  0  0
 28 29  1  0  0  0  0
 28 30  1  0  0  0  0
 28 31  1  0  0  0  0
M  END
$$$$

  -OEChem-04042216013D

 31 30  0     1  0  0  0  0  0999 V2000
   -2.8295   -4.3585    0.2546 H   0  0  0  0  0  0  0  0  0  0  0  0
   -2.7932   -3.3882   -0.2490 C   0  0  0  0  0  0  0  0  0  0  0  0
   -3.6227   -2.7743    0.1099 H   0  0  0  0  0  0  0  0  0  0  0  0
   -2.9034   -3.5474   -1.3243 H   0  0  0  0  0  0  0  0  0  0  0  0
   -1.4737   -2.6983    0.0415 C   0  0  0  0  0  0  0  0  0  0  0  0
   -0.6670   -3.2234    0.7868 O   0  0  0  0  0  0  0  0  0  0  0  0
   -1.1993   -1.4779   -0.5436 N   0  0  0  0  0  0  0  0  0  0  0  0
   -1.8668   -1.1473   -1.2337 H   0  0  0  0  0  0  0  0  0  0  0  0
    0.1032   -0.7884   -0.4661 C   0  0  1  0  0  0  0  0  0  0  0  0
    0.8716   -1.4505   -0.8802 H   0  0  0  0  0  0  0  0  0  0  0  0
    0.0760    0.5096   -1.3026 C   0  0  0  0  0  0  0  0  0  0  0  0
   -0.8331    1.0629   -1.0445 H   0  0  0  0  0  0  0  0  0  0  0  0
    0.9262    1.1344   -1.0049 H   0  0  0  0  0  0  0  0  0  0  0  0
    0.1506    0.3332   -2.8403 C   0  0  0  0  0  0  0  0  0  0  0  0
    1.1825    0.0622   -3.0893 H   0  0  0  0  0  0  0  0  0  0  0  0
   -0.7547   -0.7597   -3.4266 C   0  0  0  0  0  0  0  0  0  0  0  0
   -1.7985   -0.5895   -3.1467 H   0  0  0  0  0  0  0  0  0  0  0  0
   -0.6883   -0.7595   -4.5193 H   0  0  0  0  0  0  0  0  0  0  0  0
   -0.4454   -1.7496   -3.0780 H   0  0  0  0  0  0  0  0  0  0  0  0
   -0.1669    1.6729   -3.5145 C   0  0  0  0  0  0  0  0  0  0  0  0
    0.5027    2.4548   -3.1427 H   0  0  0  0  0  0  0  0  0  0  0  0
   -0.0337    1.5969   -4.5982 H   0  0  0  0  0  0  0  0  0  0  0  0
   -1.1996    1.9736   -3.3118 H   0  0  0  0  0  0  0  0  0  0  0  0
    0.5504   -0.4546    0.9752 C   0  0  0  0  0  0  0  0  0  0  0  0
    1.7429   -0.4385    1.2515 O   0  0  0  0  0  0  0  0  0  0  0  0
   -0.3548    0.0884    1.8694 N   0  0  0  0  0  0  0  0  0  0  0  0
   -1.3352   -0.0288    1.6368 H   0  0  0  0  0  0  0  0  0  0  0  0
    0.0034    0.4455    3.2361 C   0  0  0  0  0  0  0  0  0  0  0  0
    0.8057    1.1909    3.2405 H   0  0  0  0  0  0  0  0  0  0  0  0
   -0.8616    0.8690    3.7552 H   0  0  0  0  0  0  0  0  0  0  0  0
    0.3413   -0.4393    3.7860 H   0  0  0  0  0  0  0  0  0  0  0  0
  1  2  1  0  0  0  0
  2  3  1  0  0  0  0
  2  4  1  0  0  0  0
  2  5  1  0  0  0  0
  5  6  2  0  0  0  0
  5  7  1  0  0  0  0
  7  8  1  0  0  0  0
  7  9  1  0  0  0  0
  9 10  1  0  0  0  0
  9 11  1  0  0  0  0
  9 24  1  0  0  0  0
 11 12  1  0  0  0  0
 11 13  1  0  0  0  0
 11 14  1  0  0  0  0
 14 15  1  0  0  0  0
 14 16  1  0  0  0  0
 14 20  1  0  0  0  0
 16 17  1  0  0  0  0
 16 18  1  0  0  0  0
 16 19  1  0  0  0  0
 20 21  1  0  0  0  0
 20 22  1  0  0  0  0
 20 23  1  0  0  0  0
 24 25  2  0  0  0  0
 24 26  1  0  0  0  0
 26 27  1  0  0  0  0
 26 28  1  0  0  0  0
 28 29  1  0  0  0  0
 28 30  1  0  0  0  0
 28 31  1  0  0  0  0
M  END
$$$$

  -OEChem-04042216013D

 31 30  0     1  0  0  0  0  0999 V2000
   -2.8357   -4.3389    0.2246 H   0  0  0  0  0  0  0  0  0  0  0  0
   -2.7965   -3.3649   -0.2715 C   0  0  0  0  0  0  0  0  0  0  0  0
   -3.6216   -2.7496    0.0954 H   0  0  0  0  0  0  0  0  0  0  0  0
   -2.9116   -3.5150   -1.3477 H   0  0  0  0  0  0  0  0  0  0  0  0
   -1.4723   -2.6844    0.0196 C   0  0  0  0  0  0  0  0  0  0  0  0
   -0.6671   -3.2170    0.7612 O   0  0  0  0  0  0  0  0  0  0  0  0
   -1.1937   -1.4616   -0.5584 N   0  0  0  0  0  0  0  0  0  0  0  0
   -1.8611   -1.1227   -1.2445 H   0  0  0  0  0  0  0  0  0  0  0  0
    0.1092   -0.7752   -0.4734 C   0  0  1  0  0  0  0  0  0  0  0  0
    0.8769   -1.4370   -0.8897 H   0  0  0  0  0  0  0  0  0  0  0  0
    0.0831    0.5265   -1.3030 C   0  0  0  0  0  0  0  0  0  0  0  0
   -0.8181    1.0939   -1.0488 H   0  0  0  0  0  0  0  0  0  0  0  0
    0.9429    1.1375   -1.0043 H   0  0  0  0  0  0  0  0  0  0  0  0
    0.1607    0.3338   -2.8364 C   0  0  0  0  0  0  0  0  0  0  0  0
    1.1034   -0.1718   -3.0732 H   0  0  0  0  0  0  0  0  0  0  0  0
   -0.9860   -0.4959   -3.4316 C   0  0  0  0  0  0  0  0  0  0  0  0
   -1.9552   -0.1108   -3.1001 H   0  0  0  0  0  0  0  0  0  0  0  0
   -0.9551   -0.4574   -4.5252 H   0  0  0  0  0  0  0  0  0  0  0  0
   -0.8969   -1.5456   -3.1387 H   0  0  0  0  0  0  0  0  0  0  0  0
    0.1756    1.7132   -3.5067 C   0  0  0  0  0  0  0  0  0  0  0  0
    1.0138    2.3106   -3.1341 H   0  0  0  0  0  0  0  0  0  0  0  0
    0.2870    1.6111   -4.5909 H   0  0  0  0  0  0  0  0  0  0  0  0
   -0.7545    2.2531   -3.3022 H   0  0  0  0  0  0  0  0  0  0  0  0
    0.5530   -0.4493    0.9708 C   0  0  0  0  0  0  0  0  0  0  0  0
    1.7444   -0.4419    1.2518 O   0  0  0  0  0  0  0  0  0  0  0  0
   -0.3526    0.0911    1.8664 N   0  0  0  0  0  0  0  0  0  0  0  0
   -1.3328   -0.0139    1.6273 H   0  0  0  0  0  0  0  0  0  0  0  0
    0.0024    0.4324    3.2380 C   0  0  0  0  0  0  0  0  0  0  0  0
    0.8082    1.1738    3.2529 H   0  0  0  0  0  0  0  0  0  0  0  0
   -0.8624    0.8542    3.7587 H   0  0  0  0  0  0  0  0  0  0  0  0
    0.3342   -0.4596    3.7797 H   0  0  0  0  0  0  0  0  0  0  0  0
  1  2  1  0  0  0  0
  2  3  1  0  0  0  0
  2  4  1  0  0  0  0
  2  5  1  0  0  0  0
  5  6  2  0  0  0  0
  5  7  1  0  0  0  0
  7  8  1  0  0  0  0
  7  9  1  0  0  0  0
  9 10  1  0  0  0  0
  9 11  1  0  0  0  0
  9 24  1  0  0  0  0
 11 12  1  0  0  0  0
 11 13  1  0  0  0  0
 11 14  1  0  0  0  0
 14 15  1  0  0  0  0
 14 16  1  0  0  0  0
 14 20  1  0  0  0  0
 16 17  1  0  0  0  0
 16 18  1  0  0  0  0
 16 19  1  0  0  0  0
 20 21  1  0  0  0  0
 20 22  1  0  0  0  0
 20 23  1  0  0  0  0
 24 25  2  0  0  0  0
 24 26  1  0  0  0  0
 26 27  1  0  0  0  0
 26 28  1  0  0  0  0
 28 29  1  0  0  0  0
 28 30  1  0  0  0  0
 28 31  1  0  0  0  0
M  END
$$$$

  -OEChem-04042216013D

 31 30  0     1  0  0  0  0  0999 V2000
   -2.8391   -4.3258    0.1851 H   0  0  0  0  0  0  0  0  0  0  0  0
   -2.7958   -3.3496   -0.3065 C   0  0  0  0  0  0  0  0  0  0  0  0
   -3.6231   -2.7355    0.0569 H   0  0  0  0  0  0  0  0  0  0  0  0
   -2.9027   -3.4951   -1.3840 H   0  0  0  0  0  0  0  0  0  0  0  0
   -1.4732   -2.6713   -0.0029 C   0  0  0  0  0  0  0  0  0  0  0  0
   -0.6720   -3.2108    0.7382 O   0  0  0  0  0  0  0  0  0  0  0  0
   -1.1894   -1.4451   -0.5713 N   0  0  0  0  0  0  0  0  0  0  0  0
   -1.8549   -1.0969   -1.2549 H   0  0  0  0  0  0  0  0  0  0  0  0
    0.1146   -0.7640   -0.4756 C   0  0  1  0  0  0  0  0  0  0  0  0
    0.8817   -1.4257   -0.8928 H   0  0  0  0  0  0  0  0  0  0  0  0
    0.0875    0.5421   -1.2966 C   0  0  0  0  0  0  0  0  0  0  0  0
   -0.8057    1.1227   -1.0427 H   0  0  0  0  0  0  0  0  0  0  0  0
    0.9549    1.1404   -0.9949 H   0  0  0  0  0  0  0  0  0  0  0  0
    0.1673    0.3312   -2.8267 C   0  0  0  0  0  0  0  0  0  0  0  0
    0.9646   -0.3864   -3.0492 H   0  0  0  0  0  0  0  0  0  0  0  0
   -1.1467   -0.1808   -3.4364 C   0  0  0  0  0  0  0  0  0  0  0  0
   -1.9904    0.4389   -3.1164 H   0  0  0  0  0  0  0  0  0  0  0  0
   -1.0939   -0.1545   -4.5296 H   0  0  0  0  0  0  0  0  0  0  0  0
   -1.3345   -1.2170   -3.1442 H   0  0  0  0  0  0  0  0  0  0  0  0
    0.5257    1.6657   -3.4945 C   0  0  0  0  0  0  0  0  0  0  0  0
    1.4838    2.0382   -3.1182 H   0  0  0  0  0  0  0  0  0  0  0  0
    0.6143    1.5408   -4.5783 H   0  0  0  0  0  0  0  0  0  0  0  0
   -0.2435    2.4181   -3.2927 H   0  0  0  0  0  0  0  0  0  0  0  0
    0.5564   -0.4484    0.9714 C   0  0  0  0  0  0  0  0  0  0  0  0
    1.7477   -0.4439    1.2529 O   0  0  0  0  0  0  0  0  0  0  0  0
   -0.3486    0.0895    1.8689 N   0  0  0  0  0  0  0  0  0  0  0  0
   -1.3291   -0.0156    1.6306 H   0  0  0  0  0  0  0  0  0  0  0  0
    0.0078    0.4282    3.2407 C   0  0  0  0  0  0  0  0  0  0  0  0
    0.8136    1.1697    3.2562 H   0  0  0  0  0  0  0  0  0  0  0  0
   -0.8565    0.8490    3.7630 H   0  0  0  0  0  0  0  0  0  0  0  0
    0.3405   -0.4649    3.7802 H   0  0  0  0  0  0  0  0  0  0  0  0
  1  2  1  0  0  0  0
  2  3  1  0  0  0  0
  2  4  1  0  0  0  0
  2  5  1  0  0  0  0
  5  6  2  0  0  0  0
  5  7  1  0  0  0  0
  7  8  1  0  0  0  0
  7  9  1  0  0  0  0
  9 10  1  0  0  0  0
  9 11  1  0  0  0  0
  9 24  1  0  0  0  0
 11 12  1  0  0  0  0
 11 13  1  0  0  0  0
 11 14  1  0  0  0  0
 14 15  1  0  0  0  0
 14 16  1  0  0  0  0
 14 20  1  0  0  0  0
 16 17  1  0  0  0  0
 16 18  1  0  0  0  0
 16 19  1  0  0  0  0
 20 21  1  0  0  0  0
 20 22  1  0  0  0  0
 20 23  1  0  0  0  0
 24 25  2  0  0  0  0
 24 26  1  0  0  0  0
 26 27  1  0  0  0  0
 26 28  1  0  0  0  0
 28 29  1  0  0  0  0
 28 30  1  0  0  0  0
 28 31  1  0  0  0  0
M  END
$$$$

  -OEChem-04042216013D

 31 30  0     1  0  0  0  0  0999 V2000
   -2.8367   -4.3066    0.1641 H   0  0  0  0  0  0  0  0  0  0  0  0
   -2.7899   -3.3284   -0.3231 C   0  0  0  0  0  0  0  0  0  0  0  0
   -3.6092   -2.7100    0.0509 H   0  0  0  0  0  0  0  0  0  0  0  0
   -2.9075   -3.4673   -1.4005 H   0  0  0  0  0  0  0  0  0  0  0  0
   -1.4592   -2.6624   -0.0278 C   0  0  0  0  0  0  0  0  0  0  0  0
   -0.6542   -3.2149    0.6995 O   0  0  0  0  0  0  0  0  0  0  0  0
   -1.1713   -1.4331   -0.5878 N   0  0  0  0  0  0  0  0  0  0  0  0
   -1.8470   -1.0633   -1.2492 H   0  0  0  0  0  0  0  0  0  0  0  0
    0.1321   -0.7525   -0.4809 C   0  0  1  0  0  0  0  0  0  0  0  0
    0.9051   -1.4086   -0.8963 H   0  0  0  0  0  0  0  0  0  0  0  0
    0.0938    0.5580   -1.2923 C   0  0  0  0  0  0  0  0  0  0  0  0
   -0.7968    1.1402   -1.0338 H   0  0  0  0  0  0  0  0  0  0  0  0
    0.9617    1.1548   -0.9891 H   0  0  0  0  0  0  0  0  0  0  0  0
    0.1728    0.3313   -2.8207 C   0  0  0  0  0  0  0  0  0  0  0  0
    0.7726   -0.5607   -3.0326 H   0  0  0  0  0  0  0  0  0  0  0  0
   -1.2192    0.1656   -3.4484 C   0  0  0  0  0  0  0  0  0  0  0  0
   -1.8562    1.0239   -3.2125 H   0  0  0  0  0  0  0  0  0  0  0  0
   -1.1363    0.0864   -4.5371 H   0  0  0  0  0  0  0  0  0  0  0  0
   -1.7059   -0.7426   -3.0858 H   0  0  0  0  0  0  0  0  0  0  0  0
    0.8599    1.5335   -3.4817 C   0  0  0  0  0  0  0  0  0  0  0  0
    1.8785    1.6504   -3.0986 H   0  0  0  0  0  0  0  0  0  0  0  0
    0.9204    1.3923   -4.5654 H   0  0  0  0  0  0  0  0  0  0  0  0
    0.3042    2.4552   -3.2810 H   0  0  0  0  0  0  0  0  0  0  0  0
    0.5632   -0.4454    0.9713 C   0  0  0  0  0  0  0  0  0  0  0  0
    1.7516   -0.4463    1.2644 O   0  0  0  0  0  0  0  0  0  0  0  0
   -0.3491    0.0871    1.8647 N   0  0  0  0  0  0  0  0  0  0  0  0
   -1.3273   -0.0139    1.6162 H   0  0  0  0  0  0  0  0  0  0  0  0
   -0.0058    0.4084    3.2440 C   0  0  0  0  0  0  0  0  0  0  0  0
    0.8000    1.1491    3.2763 H   0  0  0  0  0  0  0  0  0  0  0  0
   -0.8749    0.8227    3.7637 H   0  0  0  0  0  0  0  0  0  0  0  0
    0.3219   -0.4917    3.7746 H   0  0  0  0  0  0  0  0  0  0  0  0
  1  2  1  0  0  0  0
  2  3  1  0  0  0  0
  2  4  1  0  0  0  0
  2  5  1  0  0  0  0
  5  6  2  0  0  0  0
  5  7  1  0  0  0  0
  7  8  1  0  0  0  0
  7  9  1  0  0  0  0
  9 10  1  0  0  0  0
  9 11  1  0  0  0  0
  9 24  1  0  0  0  0
 11 12  1  0  0  0  0
 11 13  1  0  0  0  0
 11 14  1  0  0  0  0
 14 15  1  0  0  0  0
 14 16  1  0  0  0  0
 14 20  1  0  0  0  0
 16 17  1  0  0  0  0
 16 18  1  0  0  0  0
 16 19  1  0  0  0  0
 20 21  1  0  0  0  0
 20 22  1  0  0  0  0
 20 23  1  0  0  0  0
 24 25  2  0  0  0  0
 24 26  1  0  0  0  0
 26 27  1  0  0  0  0
 26 28  1  0  0  0  0
 28 29  1  0  0  0  0
 28 30  1  0  0  0  0
 28 31  1  0  0  0  0
M  END
$$$$

  -OEChem-04042216013D

 31 30  0     1  0  0  0  0  0999 V2000
   -2.8301   -4.2968    0.1153 H   0  0  0  0  0  0  0  0  0  0  0  0
   -2.7798   -3.3140   -0.3621 C   0  0  0  0  0  0  0  0  0  0  0  0
   -3.6044   -2.7005    0.0081 H   0  0  0  0  0  0  0  0  0  0  0  0
   -2.8852   -3.4432   -1.4419 H   0  0  0  0  0  0  0  0  0  0  0  0
   -1.4542   -2.6478   -0.0449 C   0  0  0  0  0  0  0  0  0  0  0  0
   -0.6622   -3.1980    0.6981 O   0  0  0  0  0  0  0  0  0  0  0  0
   -1.1587   -1.4177   -0.5988 N   0  0  0  0  0  0  0  0  0  0  0  0
   -1.8153   -1.0597   -1.2856 H   0  0  0  0  0  0  0  0  0  0  0  0
    0.1469   -0.7426   -0.4795 C   0  0  1  0  0  0  0  0  0  0  0  0
    0.9241   -1.3929   -0.8966 H   0  0  0  0  0  0  0  0  0  0  0  0
    0.0942    0.5721   -1.2802 C   0  0  0  0  0  0  0  0  0  0  0  0
   -0.8028    1.1423   -1.0160 H   0  0  0  0  0  0  0  0  0  0  0  0
    0.9533    1.1818   -0.9769 H   0  0  0  0  0  0  0  0  0  0  0  0
    0.1691    0.3303   -2.8073 C   0  0  0  0  0  0  0  0  0  0  0  0
    0.5196   -0.6874   -3.0104 H   0  0  0  0  0  0  0  0  0  0  0  0
   -1.2075    0.5209   -3.4574 C   0  0  0  0  0  0  0  0  0  0  0  0
   -1.5747    1.5398   -3.2972 H   0  0  0  0  0  0  0  0  0  0  0  0
   -1.1465    0.3409   -4.5354 H   0  0  0  0  0  0  0  0  0  0  0  0
   -1.9326   -0.1810   -3.0366 H   0  0  0  0  0  0  0  0  0  0  0  0
    1.1597    1.3067   -3.4534 C   0  0  0  0  0  0  0  0  0  0  0  0
    2.1625    1.1617   -3.0389 H   0  0  0  0  0  0  0  0  0  0  0  0
    1.2106    1.1399   -4.5339 H   0  0  0  0  0  0  0  0  0  0  0  0
    0.8550    2.3429   -3.2750 H   0  0  0  0  0  0  0  0  0  0  0  0
    0.5714   -0.4412    0.9756 C   0  0  0  0  0  0  0  0  0  0  0  0
    1.7585   -0.4464    1.2741 O   0  0  0  0  0  0  0  0  0  0  0  0
   -0.3438    0.0925    1.8652 N   0  0  0  0  0  0  0  0  0  0  0  0
   -1.3209   -0.0069    1.6113 H   0  0  0  0  0  0  0  0  0  0  0  0
   -0.0076    0.4036    3.2486 C   0  0  0  0  0  0  0  0  0  0  0  0
    0.7995    1.1426    3.2907 H   0  0  0  0  0  0  0  0  0  0  0  0
   -0.8788    0.8161    3.7661 H   0  0  0  0  0  0  0  0  0  0  0  0
    0.3147   -0.5008    3.7754 H   0  0  0  0  0  0  0  0  0  0  0  0
  1  2  1  0  0  0  0
  2  3  1  0  0  0  0
  2  4  1  0  0  0  0
  2  5  1  0  0  0  0
  5  6  2  0  0  0  0
  5  7  1  0  0  0  0
  7  8  1  0  0  0  0
  7  9  1  0  0  0  0
  9 10  1  0  0  0  0
  9 11  1  0  0  0  0
  9 24  1  0  0  0  0
 11 12  1  0  0  0  0
 11 13  1  0  0  0  0
 11 14  1  0  0  0  0
 14 15  1  0  0  0  0
 14 16  1  0  0  0  0
 14 20  1  0  0  0  0
 16 17  1  0  0  0  0
 16 18  1  0  0  0  0
 16 19  1  0  0  0  0
 20 21  1  0  0  0  0
 20 22  1  0  0  0  0
 20 23  1  0  0  0  0
 24 25  2  0  0  0  0
 24 26  1  0  0  0  0
 26 27  1  0  0  0  0
 26 28  1  0  0  0  0
 28 29  1  0  0  0  0
 28 30  1  0  0  0  0
 28 31  1  0  0  0  0
M  END
$$$$

  -OEChem-04042216013D

 31 30  0     1  0  0  0  0  0999 V2000
   -2.8181   -4.3000    0.0930 H   0  0  0  0  0  0  0  0  0  0  0  0
   -2.7722   -3.3153   -0.3813 C   0  0  0  0  0  0  0  0  0  0  0  0
   -3.6042   -2.7091   -0.0153 H   0  0  0  0  0  0  0  0  0  0  0  0
   -2.8690   -3.4426   -1.4622 H   0  0  0  0  0  0  0  0  0  0  0  0
   -1.4536   -2.6403   -0.0530 C   0  0  0  0  0  0  0  0  0  0  0  0
   -0.6634   -3.1883    0.6936 O   0  0  0  0  0  0  0  0  0  0  0  0
   -1.1613   -1.4070   -0.6018 N   0  0  0  0  0  0  0  0  0  0  0  0
   -1.8148   -1.0524   -1.2935 H   0  0  0  0  0  0  0  0  0  0  0  0
    0.1436   -0.7300   -0.4786 C   0  0  1  0  0  0  0  0  0  0  0  0
    0.9221   -1.3757   -0.9003 H   0  0  0  0  0  0  0  0  0  0  0  0
    0.0859    0.5843   -1.2764 C   0  0  0  0  0  0  0  0  0  0  0  0
   -0.8241    1.1344   -1.0137 H   0  0  0  0  0  0  0  0  0  0  0  0
    0.9296    1.2146   -0.9717 H   0  0  0  0  0  0  0  0  0  0  0  0
    0.1627    0.3344   -2.8024 C   0  0  0  0  0  0  0  0  0  0  0  0
    0.2293   -0.7407   -3.0023 H   0  0  0  0  0  0  0  0  0  0  0  0
   -1.0933    0.8705   -3.4990 C   0  0  0  0  0  0  0  0  0  0  0  0
   -1.1900    1.9502   -3.3449 H   0  0  0  0  0  0  0  0  0  0  0  0
   -1.0430    0.6769   -4.5752 H   0  0  0  0  0  0  0  0  0  0  0  0
   -1.9881    0.3798   -3.1045 H   0  0  0  0  0  0  0  0  0  0  0  0
    1.4074    1.0023   -3.3986 C   0  0  0  0  0  0  0  0  0  0  0  0
    2.3129    0.6082   -2.9261 H   0  0  0  0  0  0  0  0  0  0  0  0
    1.4685    0.8047   -4.4733 H   0  0  0  0  0  0  0  0  0  0  0  0
    1.3778    2.0860   -3.2455 H   0  0  0  0  0  0  0  0  0  0  0  0
    0.5715   -0.4321    0.9759 C   0  0  0  0  0  0  0  0  0  0  0  0
    1.7602   -0.4337    1.2686 O   0  0  0  0  0  0  0  0  0  0  0  0
   -0.3407    0.0978    1.8710 N   0  0  0  0  0  0  0  0  0  0  0  0
   -1.3191   -0.0077    1.6244 H   0  0  0  0  0  0  0  0  0  0  0  0
    0.0040    0.4057    3.2532 C   0  0  0  0  0  0  0  0  0  0  0  0
    0.8123    1.1435    3.2919 H   0  0  0  0  0  0  0  0  0  0  0  0
   -0.8633    0.8184    3.7770 H   0  0  0  0  0  0  0  0  0  0  0  0
    0.3285   -0.5003    3.7757 H   0  0  0  0  0  0  0  0  0  0  0  0
  1  2  1  0  0  0  0
  2  3  1  0  0  0  0
  2  4  1  0  0  0  0
  2  5  1  0  0  0  0
  5  6  2  0  0  0  0
  5  7  1  0  0  0  0
  7  8  1  0  0  0  0
  7  9  1  0  0  0  0
  9 10  1  0  0  0  0
  9 11  1  0  0  0  0
  9 24  1  0  0  0  0
 11 12  1  0  0  0  0
 11 13  1  0  0  0  0
 11 14  1  0  0  0  0
 14 15  1  0  0  0  0
 14 16  1  0  0  0  0
 14 20  1  0  0  0  0
 16 17  1  0  0  0  0
 16 18  1  0  0  0  0
 16 19  1  0  0  0  0
 20 21  1  0  0  0  0
 20 22  1  0  0  0  0
 20 23  1  0  0  0  0
 24 25  2  0  0  0  0
 24 26  1  0  0  0  0
 26 27  1  0  0  0  0
 26 28  1  0  0  0  0
 28 29  1  0  0  0  0
 28 30  1  0  0  0  0
 28 31  1  0  0  0  0
M  END
$$$$

  -OEChem-04042216013D

 31 30  0     1  0  0  0  0  0999 V2000
   -2.8107   -4.3025    0.0875 H   0  0  0  0  0  0  0  0  0  0  0  0
   -2.7669   -3.3170   -0.3853 C   0  0  0  0  0  0  0  0  0  0  0  0
   -3.5998   -2.7129   -0.0179 H   0  0  0  0  0  0  0  0  0  0  0  0
   -2.8640   -3.4422   -1.4663 H   0  0  0  0  0  0  0  0  0  0  0  0
   -1.4498   -2.6397   -0.0572 C   0  0  0  0  0  0  0  0  0  0  0  0
   -0.6564   -3.1867    0.6866 O   0  0  0  0  0  0  0  0  0  0  0  0
   -1.1629   -1.4041   -0.6033 N   0  0  0  0  0  0  0  0  0  0  0  0
   -1.8208   -1.0483   -1.2904 H   0  0  0  0  0  0  0  0  0  0  0  0
    0.1408   -0.7237   -0.4815 C   0  0  1  0  0  0  0  0  0  0  0  0
    0.9181   -1.3674   -0.9088 H   0  0  0  0  0  0  0  0  0  0  0  0
    0.0822    0.5916   -1.2779 C   0  0  0  0  0  0  0  0  0  0  0  0
   -0.8400    1.1229   -1.0192 H   0  0  0  0  0  0  0  0  0  0  0  0
    0.9125    1.2397   -0.9738 H   0  0  0  0  0  0  0  0  0  0  0  0
    0.1597    0.3406   -2.8021 C   0  0  0  0  0  0  0  0  0  0  0  0
   -0.0580   -0.7117   -3.0145 H   0  0  0  0  0  0  0  0  0  0  0  0
   -0.8842    1.1839   -3.5422 C   0  0  0  0  0  0  0  0  0  0  0  0
   -0.7168    2.2504   -3.3603 H   0  0  0  0  0  0  0  0  0  0  0  0
   -0.8255    1.0019   -4.6200 H   0  0  0  0  0  0  0  0  0  0  0  0
   -1.8935    0.9263   -3.2063 H   0  0  0  0  0  0  0  0  0  0  0  0
    1.5653    0.6495   -3.3299 C   0  0  0  0  0  0  0  0  0  0  0  0
    2.3100    0.0397   -2.8081 H   0  0  0  0  0  0  0  0  0  0  0  0
    1.6278    0.4275   -4.3998 H   0  0  0  0  0  0  0  0  0  0  0  0
    1.8130    1.7053   -3.1796 H   0  0  0  0  0  0  0  0  0  0  0  0
    0.5739   -0.4279    0.9719 C   0  0  0  0  0  0  0  0  0  0  0  0
    1.7635   -0.4293    1.2606 O   0  0  0  0  0  0  0  0  0  0  0  0
   -0.3361    0.0977    1.8717 N   0  0  0  0  0  0  0  0  0  0  0  0
   -1.3151   -0.0094    1.6283 H   0  0  0  0  0  0  0  0  0  0  0  0
    0.0125    0.4075    3.2525 C   0  0  0  0  0  0  0  0  0  0  0  0
    0.8163    1.1504    3.2886 H   0  0  0  0  0  0  0  0  0  0  0  0
   -0.8553    0.8147    3.7798 H   0  0  0  0  0  0  0  0  0  0  0  0
    0.3444   -0.4964    3.7741 H   0  0  0  0  0  0  0  0  0  0  0  0
  1  2  1  0  0  0  0
  2  3  1  0  0  0  0
  2  4  1  0  0  0  0
  2  5  1  0  0  0  0
  5  6  2  0  0  0  0
  5  7  1  0  0  0  0
  7  8  1  0  0  0  0
  7  9  1  0  0  0  0
  9 10  1  0  0  0  0
  9 11  1  0  0  0  0
  9 24  1  0  0  0  0
 11 12  1  0  0  0  0
 11 13  1  0  0  0  0
 11 14  1  0  0  0  0
 14 15  1  0  0  0  0
 14 16  1  0  0  0  0
 14 20  1  0  0  0  0
 16 17  1  0  0  0  0
 16 18  1  0  0  0  0
 16 19  1  0  0  0  0
 20 21  1  0  0  0  0
 20 22  1  0  0  0  0
 20 23  1  0  0  0  0
 24 25  2  0  0  0  0
 24 26  1  0  0  0  0
 26 27  1  0  0  0  0
 26 28  1  0  0  0  0
 28 29  1  0  0  0  0
 28 30  1  0  0  0  0
 28 31  1  0  0  0  0
M  END
$$$$

  -OEChem-04042216013D

 31 30  0     1  0  0  0  0  0999 V2000
   -2.8123   -4.3049    0.1045 H   0  0  0  0  0  0  0  0  0  0  0  0
   -2.7685   -3.3219   -0.3733 C   0  0  0  0  0  0  0  0  0  0  0  0
   -3.5980   -2.7142   -0.0037 H   0  0  0  0  0  0  0  0  0  0  0  0
   -2.8718   -3.4521   -1.4533 H   0  0  0  0  0  0  0  0  0  0  0  0
   -1.4476   -2.6466   -0.0555 C   0  0  0  0  0  0  0  0  0  0  0  0
   -0.6505   -3.1939    0.6842 O   0  0  0  0  0  0  0  0  0  0  0  0
   -1.1619   -1.4118   -0.6045 N   0  0  0  0  0  0  0  0  0  0  0  0
   -1.8264   -1.0513   -1.2826 H   0  0  0  0  0  0  0  0  0  0  0  0
    0.1410   -0.7294   -0.4848 C   0  0  1  0  0  0  0  0  0  0  0  0
    0.9164   -1.3775   -0.9079 H   0  0  0  0  0  0  0  0  0  0  0  0
    0.0869    0.5844   -1.2857 C   0  0  0  0  0  0  0  0  0  0  0  0
   -0.8399    1.1103   -1.0328 H   0  0  0  0  0  0  0  0  0  0  0  0
    0.9144    1.2368   -0.9842 H   0  0  0  0  0  0  0  0  0  0  0  0
    0.1673    0.3397   -2.8083 C   0  0  0  0  0  0  0  0  0  0  0  0
   -0.3063   -0.6173   -3.0511 H   0  0  0  0  0  0  0  0  0  0  0  0
   -0.5924    1.4352   -3.5635 C   0  0  0  0  0  0  0  0  0  0  0  0
   -0.1683    2.4201   -3.3428 H   0  0  0  0  0  0  0  0  0  0  0  0
   -0.5320    1.2655   -4.6431 H   0  0  0  0  0  0  0  0  0  0  0  0
   -1.6482    1.4376   -3.2759 H   0  0  0  0  0  0  0  0  0  0  0  0
    1.6270    0.2891   -3.2762 C   0  0  0  0  0  0  0  0  0  0  0  0
    2.1722   -0.5008   -2.7508 H   0  0  0  0  0  0  0  0  0  0  0  0
    1.6757    0.0821   -4.3497 H   0  0  0  0  0  0  0  0  0  0  0  0
    2.1290    1.2429   -3.0844 H   0  0  0  0  0  0  0  0  0  0  0  0
    0.5731   -0.4301    0.9680 C   0  0  0  0  0  0  0  0  0  0  0  0
    1.7625   -0.4275    1.2572 O   0  0  0  0  0  0  0  0  0  0  0  0
   -0.3383    0.0959    1.8661 N   0  0  0  0  0  0  0  0  0  0  0  0
   -1.3169   -0.0148    1.6233 H   0  0  0  0  0  0  0  0  0  0  0  0
    0.0092    0.4122    3.2456 C   0  0  0  0  0  0  0  0  0  0  0  0
    0.8142    1.1540    3.2780 H   0  0  0  0  0  0  0  0  0  0  0  0
   -0.8587    0.8235    3.7697 H   0  0  0  0  0  0  0  0  0  0  0  0
    0.3396   -0.4894    3.7723 H   0  0  0  0  0  0  0  0  0  0  0  0
  1  2  1  0  0  0  0
  2  3  1  0  0  0  0
  2  4  1  0  0  0  0
  2  5  1  0  0  0  0
  5  6  2  0  0  0  0
  5  7  1  0  0  0  0
  7  8  1  0  0  0  0
  7  9  1  0  0  0  0
  9 10  1  0  0  0  0
  9 11  1  0  0  0  0
  9 24  1  0  0  0  0
 11 12  1  0  0  0  0
 11 13  1  0  0  0  0
 11 14  1  0  0  0  0
 14 15  1  0  0  0  0
 14 16  1  0  0  0  0
 14 20  1  0  0  0  0
 16 17  1  0  0  0  0
 16 18  1  0  0  0  0
 16 19  1  0  0  0  0
 20 21  1  0  0  0  0
 20 22  1  0  0  0  0
 20 23  1  0  0  0  0
 24 25  2  0  0  0  0
 24 26  1  0  0  0  0
 26 27  1  0  0  0  0
 26 28  1  0  0  0  0
 28 29  1  0  0  0  0
 28 30  1  0  0  0  0
 28 31  1  0  0  0  0
M  END
$$$$

  -OEChem-04042216013D

 31 30  0     1  0  0  0  0  0999 V2000
   -2.8250   -4.3077    0.1268 H   0  0  0  0  0  0  0  0  0  0  0  0
   -2.7741   -3.3277   -0.3563 C   0  0  0  0  0  0  0  0  0  0  0  0
   -3.6010   -2.7127    0.0064 H   0  0  0  0  0  0  0  0  0  0  0  0
   -2.8747   -3.4634   -1.4358 H   0  0  0  0  0  0  0  0  0  0  0  0
   -1.4508   -2.6579   -0.0375 C   0  0  0  0  0  0  0  0  0  0  0  0
   -0.6624   -3.2019    0.7138 O   0  0  0  0  0  0  0  0  0  0  0  0
   -1.1530   -1.4326   -0.6010 N   0  0  0  0  0  0  0  0  0  0  0  0
   -1.8100   -1.0782   -1.2893 H   0  0  0  0  0  0  0  0  0  0  0  0
    0.1532   -0.7571   -0.4818 C   0  0  1  0  0  0  0  0  0  0  0  0
    0.9273   -1.4157   -0.8870 H   0  0  0  0  0  0  0  0  0  0  0  0
    0.1001    0.5532   -1.2911 C   0  0  0  0  0  0  0  0  0  0  0  0
   -0.8212    1.0881   -1.0372 H   0  0  0  0  0  0  0  0  0  0  0  0
    0.9364    1.1965   -0.9937 H   0  0  0  0  0  0  0  0  0  0  0  0
    0.1767    0.3268   -2.8162 C   0  0  0  0  0  0  0  0  0  0  0  0
   -0.5121   -0.4751   -3.1015 H   0  0  0  0  0  0  0  0  0  0  0  0
   -0.2522    1.6054   -3.5452 C   0  0  0  0  0  0  0  0  0  0  0  0
    0.4063    2.4395   -3.2817 H   0  0  0  0  0  0  0  0  0  0  0  0
   -0.2106    1.4589   -4.6291 H   0  0  0  0  0  0  0  0  0  0  0  0
   -1.2787    1.8739   -3.2769 H   0  0  0  0  0  0  0  0  0  0  0  0
    1.5945   -0.0597   -3.2629 C   0  0  0  0  0  0  0  0  0  0  0  0
    1.8932   -1.0208   -2.8356 H   0  0  0  0  0  0  0  0  0  0  0  0
    1.6378   -0.1498   -4.3528 H   0  0  0  0  0  0  0  0  0  0  0  0
    2.3187    0.6993   -2.9498 H   0  0  0  0  0  0  0  0  0  0  0  0
    0.5743   -0.4423    0.9714 C   0  0  0  0  0  0  0  0  0  0  0  0
    1.7608   -0.4455    1.2724 O   0  0  0  0  0  0  0  0  0  0  0  0
   -0.3424    0.1008    1.8540 N   0  0  0  0  0  0  0  0  0  0  0  0
   -1.3195   -0.0015    1.6011 H   0  0  0  0  0  0  0  0  0  0  0  0
   -0.0069    0.4387    3.2314 C   0  0  0  0  0  0  0  0  0  0  0  0
    0.8002    1.1785    3.2596 H   0  0  0  0  0  0  0  0  0  0  0  0
   -0.8782    0.8617    3.7404 H   0  0  0  0  0  0  0  0  0  0  0  0
    0.3148   -0.4554    3.7759 H   0  0  0  0  0  0  0  0  0  0  0  0
  1  2  1  0  0  0  0
  2  3  1  0  0  0  0
  2  4  1  0  0  0  0
  2  5  1  0  0  0  0
  5  6  2  0  0  0  0
  5  7  1  0  0  0  0
  7  8  1  0  0  0  0
  7  9  1  0  0  0  0
  9 10  1  0  0  0  0
  9 11  1  0  0  0  0
  9 24  1  0  0  0  0
 11 12  1  0  0  0  0
 11 13  1  0  0  0  0
 11 14  1  0  0  0  0
 14 15  1  0  0  0  0
 14 16  1  0  0  0  0
 14 20  1  0  0  0  0
 16 17  1  0  0  0  0
 16 18  1  0  0  0  0
 16 19  1  0  0  0  0
 20 21  1  0  0  0  0
 20 22  1  0  0  0  0
 20 23  1  0  0  0  0
 24 25  2  0  0  0  0
 24 26  1  0  0  0  0
 26 27  1  0  0  0  0
 26 28  1  0  0  0  0
 28 29  1  0  0  0  0
 28 30  1  0  0  0  0
 28 31  1  0  0  0  0
M  END
$$$$

  -OEChem-04042216013D

 31 30  0     1  0  0  0  0  0999 V2000
   -2.8230   -4.3327    0.1692 H   0  0  0  0  0  0  0  0  0  0  0  0
   -2.7787   -3.3562   -0.3217 C   0  0  0  0  0  0  0  0  0  0  0  0
   -3.6055   -2.7414    0.0417 H   0  0  0  0  0  0  0  0  0  0  0  0
   -2.8856   -3.5006   -1.3994 H   0  0  0  0  0  0  0  0  0  0  0  0
   -1.4557   -2.6794   -0.0166 C   0  0  0  0  0  0  0  0  0  0  0  0
   -0.6603   -3.2149    0.7336 O   0  0  0  0  0  0  0  0  0  0  0  0
   -1.1669   -1.4562   -0.5889 N   0  0  0  0  0  0  0  0  0  0  0  0
   -1.8308   -1.1062   -1.2726 H   0  0  0  0  0  0  0  0  0  0  0  0
    0.1354   -0.7721   -0.4775 C   0  0  1  0  0  0  0  0  0  0  0  0
    0.9103   -1.4341   -0.8768 H   0  0  0  0  0  0  0  0  0  0  0  0
    0.1003    0.5297   -1.3022 C   0  0  0  0  0  0  0  0  0  0  0  0
   -0.6657    1.1915   -0.8844 H   0  0  0  0  0  0  0  0  0  0  0  0
    1.0651    1.0365   -1.1870 H   0  0  0  0  0  0  0  0  0  0  0  0
   -0.1756    0.3295   -2.8096 C   0  0  0  0  0  0  0  0  0  0  0  0
   -1.1615   -0.1264   -2.9440 H   0  0  0  0  0  0  0  0  0  0  0  0
   -0.1830    1.6967   -3.5032 C   0  0  0  0  0  0  0  0  0  0  0  0
    0.7930    2.1835   -3.4080 H   0  0  0  0  0  0  0  0  0  0  0  0
   -0.4120    1.5838   -4.5675 H   0  0  0  0  0  0  0  0  0  0  0  0
   -0.9416    2.3483   -3.0581 H   0  0  0  0  0  0  0  0  0  0  0  0
    0.8738   -0.5693   -3.4792 C   0  0  0  0  0  0  0  0  0  0  0  0
    0.7953   -1.5978   -3.1155 H   0  0  0  0  0  0  0  0  0  0  0  0
    0.7248   -0.5870   -4.5633 H   0  0  0  0  0  0  0  0  0  0  0  0
    1.8842   -0.2010   -3.2743 H   0  0  0  0  0  0  0  0  0  0  0  0
    0.5626   -0.4431    0.9704 C   0  0  0  0  0  0  0  0  0  0  0  0
    1.7511   -0.4323    1.2635 O   0  0  0  0  0  0  0  0  0  0  0  0
   -0.3528    0.1017    1.8534 N   0  0  0  0  0  0  0  0  0  0  0  0
   -1.3305   -0.0138    1.6091 H   0  0  0  0  0  0  0  0  0  0  0  0
   -0.0111    0.4566    3.2248 C   0  0  0  0  0  0  0  0  0  0  0  0
    0.7934    1.1996    3.2396 H   0  0  0  0  0  0  0  0  0  0  0  0
   -0.8808    0.8823    3.7338 H   0  0  0  0  0  0  0  0  0  0  0  0
    0.3166   -0.4300    3.7776 H   0  0  0  0  0  0  0  0  0  0  0  0
  1  2  1  0  0  0  0
  2  3  1  0  0  0  0
  2  4  1  0  0  0  0
  2  5  1  0  0  0  0
  5  6  2  0  0  0  0
  5  7  1  0  0  0  0
  7  8  1  0  0  0  0
  7  9  1  0  0  0  0
  9 10  1  0  0  0  0
  9 11  1  0  0  0  0
  9 24  1  0  0  0  0
 11 12  1  0  0  0  0
 11 13  1  0  0  0  0
 11 14  1  0  0  0  0
 14 15  1  0  0  0  0
 14 16  1  0  0  0  0
 14 20  1  0  0  0  0
 16 17  1  0  0  0  0
 16 18  1  0  0  0  0
 16 19  1  0  0  0  0
 20 21  1  0  0  0  0
 20 22  1  0  0  0  0
 20 23  1  0  0  0  0
 24 25  2  0  0  0  0
 24 26  1  0  0  0  0
 26 27  1  0  0  0  0
 26 28  1  0  0  0  0
 28 29  1  0  0  0  0
 28 30  1  0  0  0  0
 28 31  1  0  0  0  0
M  END
$$$$

  -OEChem-04042216013D

 31 30  0     1  0  0  0  0  0999 V2000
   -2.8319   -4.3291    0.1962 H   0  0  0  0  0  0  0  0  0  0  0  0
   -2.7826   -3.3565   -0.3022 C   0  0  0  0  0  0  0  0  0  0  0  0
   -3.6085   -2.7362    0.0542 H   0  0  0  0  0  0  0  0  0  0  0  0
   -2.8865   -3.5086   -1.3792 H   0  0  0  0  0  0  0  0  0  0  0  0
   -1.4584   -2.6818    0.0015 C   0  0  0  0  0  0  0  0  0  0  0  0
   -0.6680   -3.2134    0.7597 O   0  0  0  0  0  0  0  0  0  0  0  0
   -1.1632   -1.4645   -0.5802 N   0  0  0  0  0  0  0  0  0  0  0  0
   -1.8182   -1.1230   -1.2766 H   0  0  0  0  0  0  0  0  0  0  0  0
    0.1417   -0.7852   -0.4705 C   0  0  1  0  0  0  0  0  0  0  0  0
    0.9185   -1.4496   -0.8633 H   0  0  0  0  0  0  0  0  0  0  0  0
    0.1018    0.5115   -1.3034 C   0  0  0  0  0  0  0  0  0  0  0  0
   -0.6528    1.1864   -0.8862 H   0  0  0  0  0  0  0  0  0  0  0  0
    1.0745    1.0040   -1.1896 H   0  0  0  0  0  0  0  0  0  0  0  0
   -0.1776    0.3220   -2.8143 C   0  0  0  0  0  0  0  0  0  0  0  0
   -1.2426    0.1133   -2.9576 H   0  0  0  0  0  0  0  0  0  0  0  0
    0.1777    1.6180   -3.5537 C   0  0  0  0  0  0  0  0  0  0  0  0
    1.2470    1.8362   -3.4650 H   0  0  0  0  0  0  0  0  0  0  0  0
   -0.0711    1.5330   -4.6162 H   0  0  0  0  0  0  0  0  0  0  0  0
   -0.3843    2.4599   -3.1374 H   0  0  0  0  0  0  0  0  0  0  0  0
    0.6313   -0.8244   -3.4415 C   0  0  0  0  0  0  0  0  0  0  0  0
    0.3017   -1.7932   -3.0550 H   0  0  0  0  0  0  0  0  0  0  0  0
    0.4959   -0.8370   -4.5276 H   0  0  0  0  0  0  0  0  0  0  0  0
    1.6985   -0.7052   -3.2274 H   0  0  0  0  0  0  0  0  0  0  0  0
    0.5643   -0.4472    0.9769 C   0  0  0  0  0  0  0  0  0  0  0  0
    1.7510   -0.4413    1.2765 O   0  0  0  0  0  0  0  0  0  0  0  0
   -0.3526    0.1080    1.8517 N   0  0  0  0  0  0  0  0  0  0  0  0
   -1.3295   -0.0005    1.6005 H   0  0  0  0  0  0  0  0  0  0  0  0
   -0.0174    0.4643    3.2246 C   0  0  0  0  0  0  0  0  0  0  0  0
    0.7912    1.2026    3.2436 H   0  0  0  0  0  0  0  0  0  0  0  0
   -0.8887    0.8958    3.7261 H   0  0  0  0  0  0  0  0  0  0  0  0
    0.3024   -0.4224    3.7822 H   0  0  0  0  0  0  0  0  0  0  0  0
  1  2  1  0  0  0  0
  2  3  1  0  0  0  0
  2  4  1  0  0  0  0
  2  5  1  0  0  0  0
  5  6  2  0  0  0  0
  5  7  1  0  0  0  0
  7  8  1  0  0  0  0
  7  9  1  0  0  0  0
  9 10  1  0  0  0  0
  9 11  1  0  0  0  0
  9 24  1  0  0  0  0
 11 12  1  0  0  0  0
 11 13  1  0  0  0  0
 11 14  1  0  0  0  0
 14 15  1  0  0  0  0
 14 16  1  0  0  0  0
 14 20  1  0  0  0  0
 16 17  1  0  0  0  0
 16 18  1  0  0  0  0
 16 19  1  0  0  0  0
 20 21  1  0  0  0  0
 20 22  1  0  0  0  0
 20 23  1  0  0  0  0
 24 25  2  0  0  0  0
 24 26  1  0  0  0  0
 26 27  1  0  0  0  0
 26 28  1  0  0  0  0
 28 29  1  0  0  0  0
 28 30  1  0  0  0  0
 28 31  1  0  0  0  0
M  END
$$$$

  -OEChem-04042216013D

 31 30  0     1  0  0  0  0  0999 V2000
   -2.8427   -4.3423    0.2187 H   0  0  0  0  0  0  0  0  0  0  0  0
   -2.7915   -3.3726   -0.2846 C   0  0  0  0  0  0  0  0  0  0  0  0
   -3.6242   -2.7544    0.0588 H   0  0  0  0  0  0  0  0  0  0  0  0
   -2.8824   -3.5316   -1.3617 H   0  0  0  0  0  0  0  0  0  0  0  0
   -1.4737   -2.6901    0.0303 C   0  0  0  0  0  0  0  0  0  0  0  0
   -0.6901   -3.2135    0.8011 O   0  0  0  0  0  0  0  0  0  0  0  0
   -1.1745   -1.4782   -0.5607 N   0  0  0  0  0  0  0  0  0  0  0  0
   -1.8215   -1.1482   -1.2704 H   0  0  0  0  0  0  0  0  0  0  0  0
    0.1342   -0.8040   -0.4584 C   0  0  1  0  0  0  0  0  0  0  0  0
    0.9066   -1.4739   -0.8509 H   0  0  0  0  0  0  0  0  0  0  0  0
    0.0996    0.4882   -1.2998 C   0  0  0  0  0  0  0  0  0  0  0  0
   -0.6438    1.1744   -0.8808 H   0  0  0  0  0  0  0  0  0  0  0  0
    1.0784    0.9668   -1.1791 H   0  0  0  0  0  0  0  0  0  0  0  0
   -0.1809    0.3222   -2.8182 C   0  0  0  0  0  0  0  0  0  0  0  0
   -1.2614    0.3839   -2.9854 H   0  0  0  0  0  0  0  0  0  0  0  0
    0.5178    1.4550   -3.5834 C   0  0  0  0  0  0  0  0  0  0  0  0
    1.6055    1.3869   -3.4760 H   0  0  0  0  0  0  0  0  0  0  0  0
    0.2714    1.4068   -4.6488 H   0  0  0  0  0  0  0  0  0  0  0  0
    0.1915    2.4276   -3.2019 H   0  0  0  0  0  0  0  0  0  0  0  0
    0.3267   -1.0028   -3.4149 C   0  0  0  0  0  0  0  0  0  0  0  0
   -0.2211   -1.8573   -3.0093 H   0  0  0  0  0  0  0  0  0  0  0  0
    0.1875   -1.0082   -4.5006 H   0  0  0  0  0  0  0  0  0  0  0  0
    1.3928   -1.1372   -3.2046 H   0  0  0  0  0  0  0  0  0  0  0  0
    0.5617   -0.4577    0.9855 C   0  0  0  0  0  0  0  0  0  0  0  0
    1.7497   -0.4509    1.2803 O   0  0  0  0  0  0  0  0  0  0  0  0
   -0.3509    0.1080    1.8581 N   0  0  0  0  0  0  0  0  0  0  0  0
   -1.3293   -0.0031    1.6134 H   0  0  0  0  0  0  0  0  0  0  0  0
   -0.0075    0.4903    3.2220 C   0  0  0  0  0  0  0  0  0  0  0  0
    0.8027    1.2270    3.2214 H   0  0  0  0  0  0  0  0  0  0  0  0
   -0.8750    0.9337    3.7199 H   0  0  0  0  0  0  0  0  0  0  0  0
    0.3137   -0.3859    3.7949 H   0  0  0  0  0  0  0  0  0  0  0  0
  1  2  1  0  0  0  0
  2  3  1  0  0  0  0
  2  4  1  0  0  0  0
  2  5  1  0  0  0  0
  5  6  2  0  0  0  0
  5  7  1  0  0  0  0
  7  8  1  0  0  0  0
  7  9  1  0  0  0  0
  9 10  1  0  0  0  0
  9 11  1  0  0  0  0
  9 24  1  0  0  0  0
 11 12  1  0  0  0  0
 11 13  1  0  0  0  0
 11 14  1  0  0  0  0
 14 15  1  0  0  0  0
 14 16  1  0  0  0  0
 14 20  1  0  0  0  0
 16 17  1  0  0  0  0
 16 18  1  0  0  0  0
 16 19  1  0  0  0  0
 20 21  1  0  0  0  0
 20 22  1  0  0  0  0
 20 23  1  0  0  0  0
 24 25  2  0  0  0  0
 24 26  1  0  0  0  0
 26 27  1  0  0  0  0
 26 28  1  0  0  0  0
 28 29  1  0  0  0  0
 28 30  1  0  0  0  0
 28 31  1  0  0  0  0
M  END
$$$$

  -OEChem-04042216013D

 31 30  0     1  0  0  0  0  0999 V2000
   -2.8414   -4.3512    0.2902 H   0  0  0  0  0  0  0  0  0  0  0  0
   -2.7955   -3.3885   -0.2270 C   0  0  0  0  0  0  0  0  0  0  0  0
   -3.6241   -2.7648    0.1168 H   0  0  0  0  0  0  0  0  0  0  0  0
   -2.8985   -3.5622   -1.3008 H   0  0  0  0  0  0  0  0  0  0  0  0
   -1.4736   -2.7035    0.0637 C   0  0  0  0  0  0  0  0  0  0  0  0
   -0.6779   -3.2216    0.8257 O   0  0  0  0  0  0  0  0  0  0  0  0
   -1.1843   -1.4945   -0.5380 N   0  0  0  0  0  0  0  0  0  0  0  0
   -1.8426   -1.1663   -1.2382 H   0  0  0  0  0  0  0  0  0  0  0  0
    0.1214   -0.8130   -0.4513 C   0  0  1  0  0  0  0  0  0  0  0  0
    0.8907   -1.4873   -0.8425 H   0  0  0  0  0  0  0  0  0  0  0  0
    0.0957    0.4704   -1.3084 C   0  0  0  0  0  0  0  0  0  0  0  0
   -0.6510    1.1551   -0.8929 H   0  0  0  0  0  0  0  0  0  0  0  0
    1.0705    0.9524   -1.1707 H   0  0  0  0  0  0  0  0  0  0  0  0
   -0.1769    0.3292   -2.8366 C   0  0  0  0  0  0  0  0  0  0  0  0
   -1.1958    0.6745   -3.0413 H   0  0  0  0  0  0  0  0  0  0  0  0
    0.8183    1.2141   -3.6028 C   0  0  0  0  0  0  0  0  0  0  0  0
    1.8452    0.8640   -3.4539 H   0  0  0  0  0  0  0  0  0  0  0  0
    0.5993    1.2013   -4.6752 H   0  0  0  0  0  0  0  0  0  0  0  0
    0.7505    2.2501   -3.2560 H   0  0  0  0  0  0  0  0  0  0  0  0
   -0.0275   -1.0918   -3.4134 C   0  0  0  0  0  0  0  0  0  0  0  0
   -0.8053   -1.7604   -3.0385 H   0  0  0  0  0  0  0  0  0  0  0  0
   -0.1190   -1.0691   -4.5041 H   0  0  0  0  0  0  0  0  0  0  0  0
    0.9521   -1.5113   -3.1636 H   0  0  0  0  0  0  0  0  0  0  0  0
    0.5574   -0.4546    0.9874 C   0  0  0  0  0  0  0  0  0  0  0  0
    1.7470   -0.4427    1.2756 O   0  0  0  0  0  0  0  0  0  0  0  0
   -0.3522    0.1123    1.8622 N   0  0  0  0  0  0  0  0  0  0  0  0
   -1.3311   -0.0012    1.6214 H   0  0  0  0  0  0  0  0  0  0  0  0
   -0.0056    0.4931    3.2254 C   0  0  0  0  0  0  0  0  0  0  0  0
    0.8025    1.2322    3.2245 H   0  0  0  0  0  0  0  0  0  0  0  0
   -0.8725    0.9331    3.7273 H   0  0  0  0  0  0  0  0  0  0  0  0
    0.3194   -0.3835    3.7956 H   0  0  0  0  0  0  0  0  0  0  0  0
  1  2  1  0  0  0  0
  2  3  1  0  0  0  0
  2  4  1  0  0  0  0
  2  5  1  0  0  0  0
  5  6  2  0  0  0  0
  5  7  1  0  0  0  0
  7  8  1  0  0  0  0
  7  9  1  0  0  0  0
  9 10  1  0  0  0  0
  9 11  1  0  0  0  0
  9 24  1  0  0  0  0
 11 12  1  0  0  0  0
 11 13  1  0  0  0  0
 11 14  1  0  0  0  0
 14 15  1  0  0  0  0
 14 16  1  0  0  0  0
 14 20  1  0  0  0  0
 16 17  1  0  0  0  0
 16 18  1  0  0  0  0
 16 19  1  0  0  0  0
 20 21  1  0  0  0  0
 20 22  1  0  0  0  0
 20 23  1  0  0  0  0
 24 25  2  0  0  0  0
 24 26  1  0  0  0  0
 26 27  1  0  0  0  0
 26 28  1  0  0  0  0
 28 29  1  0  0  0  0
 28 30  1  0  0  0  0
 28 31  1  0  0  0  0
M  END
$$$$

  -OEChem-04042216013D

 31 30  0     1  0  0  0  0  0999 V2000
   -2.8183   -4.3722    0.3462 H   0  0  0  0  0  0  0  0  0  0  0  0
   -2.7851   -3.4119   -0.1763 C   0  0  0  0  0  0  0  0  0  0  0  0
   -3.6091   -2.7894    0.1798 H   0  0  0  0  0  0  0  0  0  0  0  0
   -2.9070   -3.5904   -1.2472 H   0  0  0  0  0  0  0  0  0  0  0  0
   -1.4604   -2.7214    0.0870 C   0  0  0  0  0  0  0  0  0  0  0  0
   -0.6477   -3.2353    0.8336 O   0  0  0  0  0  0  0  0  0  0  0  0
   -1.1887   -1.5109   -0.5201 N   0  0  0  0  0  0  0  0  0  0  0  0
   -1.8651   -1.1815   -1.2019 H   0  0  0  0  0  0  0  0  0  0  0  0
    0.1101   -0.8155   -0.4494 C   0  0  1  0  0  0  0  0  0  0  0  0
    0.8790   -1.4894   -0.8424 H   0  0  0  0  0  0  0  0  0  0  0  0
    0.0999    0.4648   -1.3150 C   0  0  0  0  0  0  0  0  0  0  0  0
   -0.6612    1.1372   -0.9058 H   0  0  0  0  0  0  0  0  0  0  0  0
    1.0638    0.9632   -1.1594 H   0  0  0  0  0  0  0  0  0  0  0  0
   -0.1612    0.3410   -2.8496 C   0  0  0  0  0  0  0  0  0  0  0  0
   -1.0279    0.9645   -3.0946 H   0  0  0  0  0  0  0  0  0  0  0  0
    1.0527    0.8983   -3.6086 C   0  0  0  0  0  0  0  0  0  0  0  0
    1.9451    0.2982   -3.4026 H   0  0  0  0  0  0  0  0  0  0  0  0
    0.8703    0.8911   -4.6879 H   0  0  0  0  0  0  0  0  0  0  0  0
    1.2505    1.9320   -3.3074 H   0  0  0  0  0  0  0  0  0  0  0  0
   -0.4337   -1.0713   -3.3993 C   0  0  0  0  0  0  0  0  0  0  0  0
   -1.4009   -1.4464   -3.0573 H   0  0  0  0  0  0  0  0  0  0  0  0
   -0.4647   -1.0522   -4.4934 H   0  0  0  0  0  0  0  0  0  0  0  0
    0.3521   -1.7697   -3.0957 H   0  0  0  0  0  0  0  0  0  0  0  0
    0.5528   -0.4512    0.9857 C   0  0  0  0  0  0  0  0  0  0  0  0
    1.7443   -0.4257    1.2651 O   0  0  0  0  0  0  0  0  0  0  0  0
   -0.3563    0.1063    1.8672 N   0  0  0  0  0  0  0  0  0  0  0  0
   -1.3359   -0.0157    1.6334 H   0  0  0  0  0  0  0  0  0  0  0  0
   -0.0024    0.4879    3.2284 C   0  0  0  0  0  0  0  0  0  0  0  0
    0.8009    1.2321    3.2221 H   0  0  0  0  0  0  0  0  0  0  0  0
   -0.8683    0.9217    3.7371 H   0  0  0  0  0  0  0  0  0  0  0  0
    0.3324   -0.3872    3.7950 H   0  0  0  0  0  0  0  0  0  0  0  0
  1  2  1  0  0  0  0
  2  3  1  0  0  0  0
  2  4  1  0  0  0  0
  2  5  1  0  0  0  0
  5  6  2  0  0  0  0
  5  7  1  0  0  0  0
  7  8  1  0  0  0  0
  7  9  1  0  0  0  0
  9 10  1  0  0  0  0
  9 11  1  0  0  0  0
  9 24  1  0  0  0  0
 11 12  1  0  0  0  0
 11 13  1  0  0  0  0
 11 14  1  0  0  0  0
 14 15  1  0  0  0  0
 14 16  1  0  0  0  0
 14 20  1  0  0  0  0
 16 17  1  0  0  0  0
 16 18  1  0  0  0  0
 16 19  1  0  0  0  0
 20 21  1  0  0  0  0
 20 22  1  0  0  0  0
 20 23  1  0  0  0  0
 24 25  2  0  0  0  0
 24 26  1  0  0  0  0
 26 27  1  0  0  0  0
 26 28  1  0  0  0  0
 28 29  1  0  0  0  0
 28 30  1  0  0  0  0
 28 31  1  0  0  0  0
M  END
$$$$

  -OEChem-04042216013D

 31 30  0     1  0  0  0  0  0999 V2000
   -2.8019   -4.3884    0.3740 H   0  0  0  0  0  0  0  0  0  0  0  0
   -2.7789   -3.4276   -0.1482 C   0  0  0  0  0  0  0  0  0  0  0  0
   -3.6002   -2.8077    0.2189 H   0  0  0  0  0  0  0  0  0  0  0  0
   -2.9138   -3.6062   -1.2177 H   0  0  0  0  0  0  0  0  0  0  0  0
   -1.4531   -2.7330    0.0985 C   0  0  0  0  0  0  0  0  0  0  0  0
   -0.6266   -3.2478    0.8293 O   0  0  0  0  0  0  0  0  0  0  0  0
   -1.1951   -1.5195   -0.5079 N   0  0  0  0  0  0  0  0  0  0  0  0
   -1.8862   -1.1864   -1.1726 H   0  0  0  0  0  0  0  0  0  0  0  0
    0.0994   -0.8151   -0.4493 C   0  0  1  0  0  0  0  0  0  0  0  0
    0.8641   -1.4904   -0.8494 H   0  0  0  0  0  0  0  0  0  0  0  0
    0.1025    0.4647   -1.3188 C   0  0  0  0  0  0  0  0  0  0  0  0
   -0.6720    1.1257   -0.9160 H   0  0  0  0  0  0  0  0  0  0  0  0
    1.0572    0.9779   -1.1556 H   0  0  0  0  0  0  0  0  0  0  0  0
   -0.1510    0.3455   -2.8537 C   0  0  0  0  0  0  0  0  0  0  0  0
   -0.7979    1.1813   -3.1419 H   0  0  0  0  0  0  0  0  0  0  0  0
    1.1806    0.5279   -3.5961 C   0  0  0  0  0  0  0  0  0  0  0  0
    1.8829   -0.2674   -3.3257 H   0  0  0  0  0  0  0  0  0  0  0  0
    1.0253    0.5017   -4.6792 H   0  0  0  0  0  0  0  0  0  0  0  0
    1.6327    1.4926   -3.3447 H   0  0  0  0  0  0  0  0  0  0  0  0
   -0.8156   -0.9415   -3.3676 C   0  0  0  0  0  0  0  0  0  0  0  0
   -1.8364   -1.0288   -2.9867 H   0  0  0  0  0  0  0  0  0  0  0  0
   -0.8756   -0.9252   -4.4606 H   0  0  0  0  0  0  0  0  0  0  0  0
   -0.2404   -1.8254   -3.0738 H   0  0  0  0  0  0  0  0  0  0  0  0
    0.5517   -0.4523    0.9832 C   0  0  0  0  0  0  0  0  0  0  0  0
    1.7451   -0.4212    1.2540 O   0  0  0  0  0  0  0  0  0  0  0  0
   -0.3545    0.0959    1.8734 N   0  0  0  0  0  0  0  0  0  0  0  0
   -1.3348   -0.0293    1.6453 H   0  0  0  0  0  0  0  0  0  0  0  0
    0.0057    0.4766    3.2332 C   0  0  0  0  0  0  0  0  0  0  0  0
    0.8027    1.2275    3.2233 H   0  0  0  0  0  0  0  0  0  0  0  0
   -0.8606    0.9018    3.7487 H   0  0  0  0  0  0  0  0  0  0  0  0
    0.3513   -0.3973    3.7956 H   0  0  0  0  0  0  0  0  0  0  0  0
  1  2  1  0  0  0  0
  2  3  1  0  0  0  0
  2  4  1  0  0  0  0
  2  5  1  0  0  0  0
  5  6  2  0  0  0  0
  5  7  1  0  0  0  0
  7  8  1  0  0  0  0
  7  9  1  0  0  0  0
  9 10  1  0  0  0  0
  9 11  1  0  0  0  0
  9 24  1  0  0  0  0
 11 12  1  0  0  0  0
 11 13  1  0  0  0  0
 11 14  1  0  0  0  0
 14 15  1  0  0  0  0
 14 16  1  0  0  0  0
 14 20  1  0  0  0  0
 16 17  1  0  0  0  0
 16 18  1  0  0  0  0
 16 19  1  0  0  0  0
 20 21  1  0  0  0  0
 20 22  1  0  0  0  0
 20 23  1  0  0  0  0
 24 25  2  0  0  0  0
 24 26  1  0  0  0  0
 26 27  1  0  0  0  0
 26 28  1  0  0  0  0
 28 29  1  0  0  0  0
 28 30  1  0  0  0  0
 28 31  1  0  0  0  0
M  END
$$$$

  -OEChem-04042216013D

 31 30  0     1  0  0  0  0  0999 V2000
   -2.7932   -4.4068    0.3717 H   0  0  0  0  0  0  0  0  0  0  0  0
   -2.7748   -3.4443   -0.1477 C   0  0  0  0  0  0  0  0  0  0  0  0
   -3.6004   -2.8303    0.2196 H   0  0  0  0  0  0  0  0  0  0  0  0
   -2.9074   -3.6211   -1.2178 H   0  0  0  0  0  0  0  0  0  0  0  0
   -1.4532   -2.7427    0.1026 C   0  0  0  0  0  0  0  0  0  0  0  0
   -0.6261   -3.2533    0.8355 O   0  0  0  0  0  0  0  0  0  0  0  0
   -1.2002   -1.5275   -0.5026 N   0  0  0  0  0  0  0  0  0  0  0  0
   -1.8898   -1.2013   -1.1720 H   0  0  0  0  0  0  0  0  0  0  0  0
    0.0924   -0.8195   -0.4477 C   0  0  1  0  0  0  0  0  0  0  0  0
    0.8545   -1.4964   -0.8497 H   0  0  0  0  0  0  0  0  0  0  0  0
    0.1043    0.4634   -1.3146 C   0  0  0  0  0  0  0  0  0  0  0  0
   -0.6706    1.1248   -0.9136 H   0  0  0  0  0  0  0  0  0  0  0  0
    1.0599    0.9762   -1.1562 H   0  0  0  0  0  0  0  0  0  0  0  0
   -0.1455    0.3441   -2.8459 C   0  0  0  0  0  0  0  0  0  0  0  0
   -0.5364    1.3133   -3.1741 H   0  0  0  0  0  0  0  0  0  0  0  0
    1.1937    0.1396   -3.5659 C   0  0  0  0  0  0  0  0  0  0  0  0
    1.6563   -0.8032   -3.2568 H   0  0  0  0  0  0  0  0  0  0  0  0
    1.0462    0.1149   -4.6502 H   0  0  0  0  0  0  0  0  0  0  0  0
    1.8842    0.9574   -3.3367 H   0  0  0  0  0  0  0  0  0  0  0  0
   -1.1442   -0.7196   -3.3206 C   0  0  0  0  0  0  0  0  0  0  0  0
   -2.1205   -0.5666   -2.8522 H   0  0  0  0  0  0  0  0  0  0  0  0
   -1.2797   -0.6485   -4.4046 H   0  0  0  0  0  0  0  0  0  0  0  0
   -0.7834   -1.7274   -3.0926 H   0  0  0  0  0  0  0  0  0  0  0  0
    0.5494   -0.4574    0.9836 C   0  0  0  0  0  0  0  0  0  0  0  0
    1.7440   -0.4187    1.2478 O   0  0  0  0  0  0  0  0  0  0  0  0
   -0.3547    0.0869    1.8784 N   0  0  0  0  0  0  0  0  0  0  0  0
   -1.3358   -0.0450    1.6568 H   0  0  0  0  0  0  0  0  0  0  0  0
    0.0123    0.4773    3.2336 C   0  0  0  0  0  0  0  0  0  0  0  0
    0.8058    1.2318    3.2144 H   0  0  0  0  0  0  0  0  0  0  0  0
   -0.8525    0.9020    3.7519 H   0  0  0  0  0  0  0  0  0  0  0  0
    0.3658   -0.3913    3.7989 H   0  0  0  0  0  0  0  0  0  0  0  0
  1  2  1  0  0  0  0
  2  3  1  0  0  0  0
  2  4  1  0  0  0  0
  2  5  1  0  0  0  0
  5  6  2  0  0  0  0
  5  7  1  0  0  0  0
  7  8  1  0  0  0  0
  7  9  1  0  0  0  0
  9 10  1  0  0  0  0
  9 11  1  0  0  0  0
  9 24  1  0  0  0  0
 11 12  1  0  0  0  0
 11 13  1  0  0  0  0
 11 14  1  0  0  0  0
 14 15  1  0  0  0  0
 14 16  1  0  0  0  0
 14 20  1  0  0  0  0
 16 17  1  0  0  0  0
 16 18  1  0  0  0  0
 16 19  1  0  0  0  0
 20 21  1  0  0  0  0
 20 22  1  0  0  0  0
 20 23  1  0  0  0  0
 24 25  2  0  0  0  0
 24 26  1  0  0  0  0
 26 27  1  0  0  0  0
 26 28  1  0  0  0  0
 28 29  1  0  0  0  0
 28 30  1  0  0  0  0
 28 31  1  0  0  0  0
M  END
$$$$

  -OEChem-04042216013D

 31 30  0     1  0  0  0  0  0999 V2000
   -2.7931   -4.4071    0.3509 H   0  0  0  0  0  0  0  0  0  0  0  0
   -2.7709   -3.4439   -0.1670 C   0  0  0  0  0  0  0  0  0  0  0  0
   -3.6006   -2.8314    0.1939 H   0  0  0  0  0  0  0  0  0  0  0  0
   -2.8939   -3.6190   -1.2384 H   0  0  0  0  0  0  0  0  0  0  0  0
   -1.4526   -2.7410    0.0966 C   0  0  0  0  0  0  0  0  0  0  0  0
   -0.6328   -3.2496    0.8393 O   0  0  0  0  0  0  0  0  0  0  0  0
   -1.1957   -1.5257   -0.5068 N   0  0  0  0  0  0  0  0  0  0  0  0
   -1.8781   -1.2036   -1.1855 H   0  0  0  0  0  0  0  0  0  0  0  0
    0.0969   -0.8198   -0.4467 C   0  0  1  0  0  0  0  0  0  0  0  0
    0.8602   -1.4963   -0.8466 H   0  0  0  0  0  0  0  0  0  0  0  0
    0.1037    0.4668   -1.3078 C   0  0  0  0  0  0  0  0  0  0  0  0
   -0.6604    1.1380   -0.9023 H   0  0  0  0  0  0  0  0  0  0  0  0
    1.0683    0.9675   -1.1660 H   0  0  0  0  0  0  0  0  0  0  0  0
   -0.1506    0.3380   -2.8335 C   0  0  0  0  0  0  0  0  0  0  0  0
   -0.2879    1.3594   -3.2051 H   0  0  0  0  0  0  0  0  0  0  0  0
    1.0915   -0.2292   -3.5312 C   0  0  0  0  0  0  0  0  0  0  0  0
    1.2838   -1.2569   -3.2075 H   0  0  0  0  0  0  0  0  0  0  0  0
    0.9511   -0.2292   -4.6167 H   0  0  0  0  0  0  0  0  0  0  0  0
    1.9726    0.3782   -3.3016 H   0  0  0  0  0  0  0  0  0  0  0  0
   -1.3953   -0.4528   -3.2559 C   0  0  0  0  0  0  0  0  0  0  0  0
   -2.2734   -0.1125   -2.6989 H   0  0  0  0  0  0  0  0  0  0  0  0
   -1.5894   -0.2984   -4.3220 H   0  0  0  0  0  0  0  0  0  0  0  0
   -1.2553   -1.5259   -3.0946 H   0  0  0  0  0  0  0  0  0  0  0  0
    0.5506   -0.4587    0.9857 C   0  0  0  0  0  0  0  0  0  0  0  0
    1.7448   -0.4207    1.2520 O   0  0  0  0  0  0  0  0  0  0  0  0
   -0.3547    0.0867    1.8786 N   0  0  0  0  0  0  0  0  0  0  0  0
   -1.3355   -0.0451    1.6553 H   0  0  0  0  0  0  0  0  0  0  0  0
    0.0099    0.4724    3.2356 C   0  0  0  0  0  0  0  0  0  0  0  0
    0.8031    1.2274    3.2201 H   0  0  0  0  0  0  0  0  0  0  0  0
   -0.8560    0.8944    3.7544 H   0  0  0  0  0  0  0  0  0  0  0  0
    0.3628   -0.3985    3.7979 H   0  0  0  0  0  0  0  0  0  0  0  0
  1  2  1  0  0  0  0
  2  3  1  0  0  0  0
  2  4  1  0  0  0  0
  2  5  1  0  0  0  0
  5  6  2  0  0  0  0
  5  7  1  0  0  0  0
  7  8  1  0  0  0  0
  7  9  1  0  0  0  0
  9 10  1  0  0  0  0
  9 11  1  0  0  0  0
  9 24  1  0  0  0  0
 11 12  1  0  0  0  0
 11 13  1  0  0  0  0
 11 14  1  0  0  0  0
 14 15  1  0  0  0  0
 14 16  1  0  0  0  0
 14 20  1  0  0  0  0
 16 17  1  0  0  0  0
 16 18  1  0  0  0  0
 16 19  1  0  0  0  0
 20 21  1  0  0  0  0
 20 22  1  0  0  0  0
 20 23  1  0  0  0  0
 24 25  2  0  0  0  0
 24 26  1  0  0  0  0
 26 27  1  0  0  0  0
 26 28  1  0  0  0  0
 28 29  1  0  0  0  0
 28 30  1  0  0  0  0
 28 31  1  0  0  0  0
M  END
$$$$

  -OEChem-04042216013D

 31 30  0     1  0  0  0  0  0999 V2000
   -2.8030   -4.3926    0.3256 H   0  0  0  0  0  0  0  0  0  0  0  0
   -2.7731   -3.4276   -0.1883 C   0  0  0  0  0  0  0  0  0  0  0  0
   -3.5965   -2.8092    0.1764 H   0  0  0  0  0  0  0  0  0  0  0  0
   -2.8990   -3.5970   -1.2602 H   0  0  0  0  0  0  0  0  0  0  0  0
   -1.4488   -2.7362    0.0760 C   0  0  0  0  0  0  0  0  0  0  0  0
   -0.6304   -3.2550    0.8131 O   0  0  0  0  0  0  0  0  0  0  0  0
   -1.1852   -1.5188   -0.5199 N   0  0  0  0  0  0  0  0  0  0  0  0
   -1.8698   -1.1818   -1.1895 H   0  0  0  0  0  0  0  0  0  0  0  0
    0.1076   -0.8158   -0.4479 C   0  0  1  0  0  0  0  0  0  0  0  0
    0.8760   -1.4874   -0.8447 H   0  0  0  0  0  0  0  0  0  0  0  0
    0.0997    0.4742   -1.3017 C   0  0  0  0  0  0  0  0  0  0  0  0
   -0.6506    1.1565   -0.8887 H   0  0  0  0  0  0  0  0  0  0  0  0
    1.0729    0.9624   -1.1780 H   0  0  0  0  0  0  0  0  0  0  0  0
   -0.1612    0.3316   -2.8230 C   0  0  0  0  0  0  0  0  0  0  0  0
   -0.0594    1.3385   -3.2425 H   0  0  0  0  0  0  0  0  0  0  0  0
    0.9001   -0.5515   -3.4903 C   0  0  0  0  0  0  0  0  0  0  0  0
    0.8044   -1.5927   -3.1672 H   0  0  0  0  0  0  0  0  0  0  0  0
    0.7894   -0.5185   -4.5786 H   0  0  0  0  0  0  0  0  0  0  0  0
    1.9050   -0.1990   -3.2369 H   0  0  0  0  0  0  0  0  0  0  0  0
   -1.5670   -0.1599   -3.1946 C   0  0  0  0  0  0  0  0  0  0  0  0
   -2.3256    0.3571   -2.5989 H   0  0  0  0  0  0  0  0  0  0  0  0
   -1.7633    0.0467   -4.2514 H   0  0  0  0  0  0  0  0  0  0  0  0
   -1.6657   -1.2384   -3.0435 H   0  0  0  0  0  0  0  0  0  0  0  0
    0.5539   -0.4610    0.9882 C   0  0  0  0  0  0  0  0  0  0  0  0
    1.7468   -0.4261    1.2607 O   0  0  0  0  0  0  0  0  0  0  0  0
   -0.3546    0.0826    1.8790 N   0  0  0  0  0  0  0  0  0  0  0  0
   -1.3347   -0.0482    1.6521 H   0  0  0  0  0  0  0  0  0  0  0  0
    0.0058    0.4648    3.2384 C   0  0  0  0  0  0  0  0  0  0  0  0
    0.8029    1.2156    3.2276 H   0  0  0  0  0  0  0  0  0  0  0  0
   -0.8601    0.8908    3.7538 H   0  0  0  0  0  0  0  0  0  0  0  0
    0.3521   -0.4085    3.8012 H   0  0  0  0  0  0  0  0  0  0  0  0
  1  2  1  0  0  0  0
  2  3  1  0  0  0  0
  2  4  1  0  0  0  0
  2  5  1  0  0  0  0
  5  6  2  0  0  0  0
  5  7  1  0  0  0  0
  7  8  1  0  0  0  0
  7  9  1  0  0  0  0
  9 10  1  0  0  0  0
  9 11  1  0  0  0  0
  9 24  1  0  0  0  0
 11 12  1  0  0  0  0
 11 13  1  0  0  0  0
 11 14  1  0  0  0  0
 14 15  1  0  0  0  0
 14 16  1  0  0  0  0
 14 20  1  0  0  0  0
 16 17  1  0  0  0  0
 16 18  1  0  0  0  0
 16 19  1  0  0  0  0
 20 21  1  0  0  0  0
 20 22  1  0  0  0  0
 20 23  1  0  0  0  0
 24 25  2  0  0  0  0
 24 26  1  0  0  0  0
 26 27  1  0  0  0  0
 26 28  1  0  0  0  0
 28 29  1  0  0  0  0
 28 30  1  0  0  0  0
 28 31  1  0  0  0  0
M  END
$$$$

  -OEChem-04042216013D

 31 30  0     1  0  0  0  0  0999 V2000
   -2.8121   -4.3795    0.2974 H   0  0  0  0  0  0  0  0  0  0  0  0
   -2.7767   -3.4124   -0.2126 C   0  0  0  0  0  0  0  0  0  0  0  0
   -3.5998   -2.7927    0.1508 H   0  0  0  0  0  0  0  0  0  0  0  0
   -2.8978   -3.5775   -1.2858 H   0  0  0  0  0  0  0  0  0  0  0  0
   -1.4509   -2.7275    0.0608 C   0  0  0  0  0  0  0  0  0  0  0  0
   -0.6391   -3.2530    0.8004 O   0  0  0  0  0  0  0  0  0  0  0  0
   -1.1776   -1.5093   -0.5291 N   0  0  0  0  0  0  0  0  0  0  0  0
   -1.8588   -1.1626   -1.1966 H   0  0  0  0  0  0  0  0  0  0  0  0
    0.1183   -0.8133   -0.4461 C   0  0  1  0  0  0  0  0  0  0  0  0
    0.8895   -1.4828   -0.8410 H   0  0  0  0  0  0  0  0  0  0  0  0
    0.0986    0.4795   -1.2938 C   0  0  0  0  0  0  0  0  0  0  0  0
   -0.6355    1.1724   -0.8698 H   0  0  0  0  0  0  0  0  0  0  0  0
    1.0806    0.9540   -1.1836 H   0  0  0  0  0  0  0  0  0  0  0  0
   -0.1696    0.3314   -2.8142 C   0  0  0  0  0  0  0  0  0  0  0  0
    0.1591    1.2681   -3.2776 H   0  0  0  0  0  0  0  0  0  0  0  0
    0.6367   -0.8098   -3.4481 C   0  0  0  0  0  0  0  0  0  0  0  0
    0.2876   -1.7852   -3.0957 H   0  0  0  0  0  0  0  0  0  0  0  0
    0.5345   -0.7839   -4.5375 H   0  0  0  0  0  0  0  0  0  0  0  0
    1.6981   -0.7079   -3.2010 H   0  0  0  0  0  0  0  0  0  0  0  0
   -1.6582    0.1652   -3.1547 C   0  0  0  0  0  0  0  0  0  0  0  0
   -2.2623    0.8974   -2.6102 H   0  0  0  0  0  0  0  0  0  0  0  0
   -1.8127    0.3263   -4.2263 H   0  0  0  0  0  0  0  0  0  0  0  0
   -2.0168   -0.8385   -2.9142 H   0  0  0  0  0  0  0  0  0  0  0  0
    0.5581   -0.4656    0.9937 C   0  0  0  0  0  0  0  0  0  0  0  0
    1.7496   -0.4381    1.2733 O   0  0  0  0  0  0  0  0  0  0  0  0
   -0.3527    0.0796    1.8812 N   0  0  0  0  0  0  0  0  0  0  0  0
   -1.3321   -0.0458    1.6482 H   0  0  0  0  0  0  0  0  0  0  0  0
    0.0016    0.4562    3.2437 C   0  0  0  0  0  0  0  0  0  0  0  0
    0.7968    1.2090    3.2388 H   0  0  0  0  0  0  0  0  0  0  0  0
   -0.8673    0.8776    3.7579 H   0  0  0  0  0  0  0  0  0  0  0  0
    0.3477   -0.4186    3.8043 H   0  0  0  0  0  0  0  0  0  0  0  0
  1  2  1  0  0  0  0
  2  3  1  0  0  0  0
  2  4  1  0  0  0  0
  2  5  1  0  0  0  0
  5  6  2  0  0  0  0
  5  7  1  0  0  0  0
  7  8  1  0  0  0  0
  7  9  1  0  0  0  0
  9 10  1  0  0  0  0
  9 11  1  0  0  0  0
  9 24  1  0  0  0  0
 11 12  1  0  0  0  0
 11 13  1  0  0  0  0
 11 14  1  0  0  0  0
 14 15  1  0  0  0  0
 14 16  1  0  0  0  0
 14 20  1  0  0  0  0
 16 17  1  0  0  0  0
 16 18  1  0  0  0  0
 16 19  1  0  0  0  0
 20 21  1  0  0  0  0
 20 22  1  0  0  0  0
 20 23  1  0  0  0  0
 24 25  2  0  0  0  0
 24 26  1  0  0  0  0
 26 27  1  0  0  0  0
 26 28  1  0  0  0  0
 28 29  1  0  0  0  0
 28 30  1  0  0  0  0
 28 31  1  0  0  0  0
M  END
$$$$

  -OEChem-04042216013D

 31 30  0     1  0  0  0  0  0999 V2000
   -2.8201   -4.3768    0.2590 H   0  0  0  0  0  0  0  0  0  0  0  0
   -2.7778   -3.4078   -0.2466 C   0  0  0  0  0  0  0  0  0  0  0  0
   -3.6121   -2.7934    0.1003 H   0  0  0  0  0  0  0  0  0  0  0  0
   -2.8741   -3.5693   -1.3230 H   0  0  0  0  0  0  0  0  0  0  0  0
   -1.4616   -2.7177    0.0591 C   0  0  0  0  0  0  0  0  0  0  0  0
   -0.6667   -3.2388    0.8198 O   0  0  0  0  0  0  0  0  0  0  0  0
   -1.1762   -1.5022   -0.5304 N   0  0  0  0  0  0  0  0  0  0  0  0
   -1.8332   -1.1725   -1.2300 H   0  0  0  0  0  0  0  0  0  0  0  0
    0.1255   -0.8161   -0.4385 C   0  0  1  0  0  0  0  0  0  0  0  0
    0.8963   -1.4866   -0.8333 H   0  0  0  0  0  0  0  0  0  0  0  0
    0.0999    0.4769   -1.2836 C   0  0  0  0  0  0  0  0  0  0  0  0
   -0.6241    1.1745   -0.8494 H   0  0  0  0  0  0  0  0  0  0  0  0
    1.0857    0.9440   -1.1789 H   0  0  0  0  0  0  0  0  0  0  0  0
   -0.1727    0.3319   -2.8058 C   0  0  0  0  0  0  0  0  0  0  0  0
    0.3649    1.1456   -3.3049 H   0  0  0  0  0  0  0  0  0  0  0  0
    0.3188   -0.9916   -3.4122 C   0  0  0  0  0  0  0  0  0  0  0  0
   -0.2528   -1.8445   -3.0357 H   0  0  0  0  0  0  0  0  0  0  0  0
    0.2135   -0.9673   -4.5014 H   0  0  0  0  0  0  0  0  0  0  0  0
    1.3765   -1.1463   -3.1773 H   0  0  0  0  0  0  0  0  0  0  0  0
   -1.6639    0.5103   -3.1273 C   0  0  0  0  0  0  0  0  0  0  0  0
   -2.0282    1.4642   -2.7333 H   0  0  0  0  0  0  0  0  0  0  0  0
   -1.8169    0.5110   -4.2113 H   0  0  0  0  0  0  0  0  0  0  0  0
   -2.2646   -0.2958   -2.6992 H   0  0  0  0  0  0  0  0  0  0  0  0
    0.5612   -0.4693    1.0028 C   0  0  0  0  0  0  0  0  0  0  0  0
    1.7515   -0.4505    1.2882 O   0  0  0  0  0  0  0  0  0  0  0  0
   -0.3502    0.0851    1.8839 N   0  0  0  0  0  0  0  0  0  0  0  0
   -1.3290   -0.0322    1.6442 H   0  0  0  0  0  0  0  0  0  0  0  0
   -0.0029    0.4578    3.2494 C   0  0  0  0  0  0  0  0  0  0  0  0
    0.7969    1.2058    3.2517 H   0  0  0  0  0  0  0  0  0  0  0  0
   -0.8729    0.8837    3.7580 H   0  0  0  0  0  0  0  0  0  0  0  0
    0.3337   -0.4200    3.8110 H   0  0  0  0  0  0  0  0  0  0  0  0
  1  2  1  0  0  0  0
  2  3  1  0  0  0  0
  2  4  1  0  0  0  0
  2  5  1  0  0  0  0
  5  6  2  0  0  0  0
  5  7  1  0  0  0  0
  7  8  1  0  0  0  0
  7  9  1  0  0  0  0
  9 10  1  0  0  0  0
  9 11  1  0  0  0  0
  9 24  1  0  0  0  0
 11 12  1  0  0  0  0
 11 13  1  0  0  0  0
 11 14  1  0  0  0  0
 14 15  1  0  0  0  0
 14 16  1  0  0  0  0
 14 20  1  0  0  0  0
 16 17  1  0  0  0  0
 16 18  1  0  0  0  0
 16 19  1  0  0  0  0
 20 21  1  0  0  0  0
 20 22  1  0  0  0  0
 20 23  1  0  0  0  0
 24 25  2  0  0  0  0
 24 26  1  0  0  0  0
 26 27  1  0  0  0  0
 26 28  1  0  0  0  0
 28 29  1  0  0  0  0
 28 30  1  0  0  0  0
 28 31  1  0  0  0  0
M  END
$$$$

  -OEChem-04042216013D

 31 30  0     1  0  0  0  0  0999 V2000
   -2.8309   -4.3732    0.2644 H   0  0  0  0  0  0  0  0  0  0  0  0
   -2.7815   -3.4077   -0.2475 C   0  0  0  0  0  0  0  0  0  0  0  0
   -3.6195   -2.7902    0.0844 H   0  0  0  0  0  0  0  0  0  0  0  0
   -2.8653   -3.5770   -1.3237 H   0  0  0  0  0  0  0  0  0  0  0  0
   -1.4687   -2.7160    0.0690 C   0  0  0  0  0  0  0  0  0  0  0  0
   -0.6819   -3.2325    0.8413 O   0  0  0  0  0  0  0  0  0  0  0  0
   -1.1777   -1.5034   -0.5239 N   0  0  0  0  0  0  0  0  0  0  0  0
   -1.8250   -1.1807   -1.2368 H   0  0  0  0  0  0  0  0  0  0  0  0
    0.1263   -0.8208   -0.4295 C   0  0  1  0  0  0  0  0  0  0  0  0
    0.8968   -1.4918   -0.8232 H   0  0  0  0  0  0  0  0  0  0  0  0
    0.0988    0.4671   -1.2800 C   0  0  0  0  0  0  0  0  0  0  0  0
   -0.6251    1.1609   -0.8395 H   0  0  0  0  0  0  0  0  0  0  0  0
    1.0823    0.9385   -1.1722 H   0  0  0  0  0  0  0  0  0  0  0  0
   -0.1708    0.3300   -2.8073 C   0  0  0  0  0  0  0  0  0  0  0  0
    0.5508    0.9740   -3.3222 H   0  0  0  0  0  0  0  0  0  0  0  0
   -0.0280   -1.0851   -3.3953 C   0  0  0  0  0  0  0  0  0  0  0  0
   -0.8197   -1.7540   -3.0495 H   0  0  0  0  0  0  0  0  0  0  0  0
   -0.0838   -1.0401   -4.4875 H   0  0  0  0  0  0  0  0  0  0  0  0
    0.9423   -1.5147   -3.1282 H   0  0  0  0  0  0  0  0  0  0  0  0
   -1.5775    0.8479   -3.1375 C   0  0  0  0  0  0  0  0  0  0  0  0
   -1.6830    1.8924   -2.8272 H   0  0  0  0  0  0  0  0  0  0  0  0
   -1.7603    0.7950   -4.2155 H   0  0  0  0  0  0  0  0  0  0  0  0
   -2.3410    0.2538   -2.6263 H   0  0  0  0  0  0  0  0  0  0  0  0
    0.5598   -0.4692    1.0113 C   0  0  0  0  0  0  0  0  0  0  0  0
    1.7494   -0.4538    1.2997 O   0  0  0  0  0  0  0  0  0  0  0  0
   -0.3520    0.0920    1.8876 N   0  0  0  0  0  0  0  0  0  0  0  0
   -1.3305   -0.0248    1.6466 H   0  0  0  0  0  0  0  0  0  0  0  0
   -0.0070    0.4682    3.2524 C   0  0  0  0  0  0  0  0  0  0  0  0
    0.7958    1.2130    3.2543 H   0  0  0  0  0  0  0  0  0  0  0  0
   -0.8768    0.8995    3.7569 H   0  0  0  0  0  0  0  0  0  0  0  0
    0.3248   -0.4091    3.8177 H   0  0  0  0  0  0  0  0  0  0  0  0
  1  2  1  0  0  0  0
  2  3  1  0  0  0  0
  2  4  1  0  0  0  0
  2  5  1  0  0  0  0
  5  6  2  0  0  0  0
  5  7  1  0  0  0  0
  7  8  1  0  0  0  0
  7  9  1  0  0  0  0
  9 10  1  0  0  0  0
  9 11  1  0  0  0  0
  9 24  1  0  0  0  0
 11 12  1  0  0  0  0
 11 13  1  0  0  0  0
 11 14  1  0  0  0  0
 14 15  1  0  0  0  0
 14 16  1  0  0  0  0
 14 20  1  0  0  0  0
 16 17  1  0  0  0  0
 16 18  1  0  0  0  0
 16 19  1  0  0  0  0
 20 21  1  0  0  0  0
 20 22  1  0  0  0  0
 20 23  1  0  0  0  0
 24 25  2  0  0  0  0
 24 26  1  0  0  0  0
 26 27  1  0  0  0  0
 26 28  1  0  0  0  0
 28 29  1  0  0  0  0
 28 30  1  0  0  0  0
 28 31  1  0  0  0  0
M  END
$$$$

  -OEChem-04042216013D

 31 30  0     1  0  0  0  0  0999 V2000
   -2.8059   -4.4008    0.3273 H   0  0  0  0  0  0  0  0  0  0  0  0
   -2.7750   -3.4363   -0.1878 C   0  0  0  0  0  0  0  0  0  0  0  0
   -3.6073   -2.8223    0.1641 H   0  0  0  0  0  0  0  0  0  0  0  0
   -2.8849   -3.6088   -1.2612 H   0  0  0  0  0  0  0  0  0  0  0  0
   -1.4587   -2.7367    0.0941 C   0  0  0  0  0  0  0  0  0  0  0  0
   -0.6508   -3.2468    0.8486 O   0  0  0  0  0  0  0  0  0  0  0  0
   -1.1888   -1.5227   -0.5060 N   0  0  0  0  0  0  0  0  0  0  0  0
   -1.8577   -1.1985   -1.1979 H   0  0  0  0  0  0  0  0  0  0  0  0
    0.1074   -0.8240   -0.4290 C   0  0  1  0  0  0  0  0  0  0  0  0
    0.8795   -1.4919   -0.8256 H   0  0  0  0  0  0  0  0  0  0  0  0
    0.0821    0.4589   -1.2883 C   0  0  0  0  0  0  0  0  0  0  0  0
   -0.6600    1.1342   -0.8493 H   0  0  0  0  0  0  0  0  0  0  0  0
    1.0541    0.9510   -1.1699 H   0  0  0  0  0  0  0  0  0  0  0  0
   -0.1834    0.3315   -2.8198 C   0  0  0  0  0  0  0  0  0  0  0  0
    0.7046    0.7286   -3.3239 H   0  0  0  0  0  0  0  0  0  0  0  0
   -0.4041   -1.0838   -3.3809 C   0  0  0  0  0  0  0  0  0  0  0  0
   -1.3671   -1.4953   -3.0681 H   0  0  0  0  0  0  0  0  0  0  0  0
   -0.3966   -1.0525   -4.4749 H   0  0  0  0  0  0  0  0  0  0  0  0
    0.3958   -1.7588   -3.0625 H   0  0  0  0  0  0  0  0  0  0  0  0
   -1.3768    1.2090   -3.2197 C   0  0  0  0  0  0  0  0  0  0  0  0
   -1.1995    2.2494   -2.9288 H   0  0  0  0  0  0  0  0  0  0  0  0
   -1.5267    1.1804   -4.3038 H   0  0  0  0  0  0  0  0  0  0  0  0
   -2.2934    0.8615   -2.7324 H   0  0  0  0  0  0  0  0  0  0  0  0
    0.5492   -0.4638    1.0072 C   0  0  0  0  0  0  0  0  0  0  0  0
    1.7410   -0.4328    1.2849 O   0  0  0  0  0  0  0  0  0  0  0  0
   -0.3617    0.0878    1.8903 N   0  0  0  0  0  0  0  0  0  0  0  0
   -1.3405   -0.0404    1.6567 H   0  0  0  0  0  0  0  0  0  0  0  0
   -0.0105    0.4648    3.2534 C   0  0  0  0  0  0  0  0  0  0  0  0
    0.7895    1.2128    3.2511 H   0  0  0  0  0  0  0  0  0  0  0  0
   -0.8795    0.8923    3.7627 H   0  0  0  0  0  0  0  0  0  0  0  0
    0.3278   -0.4116    3.8163 H   0  0  0  0  0  0  0  0  0  0  0  0
  1  2  1  0  0  0  0
  2  3  1  0  0  0  0
  2  4  1  0  0  0  0
  2  5  1  0  0  0  0
  5  6  2  0  0  0  0
  5  7  1  0  0  0  0
  7  8  1  0  0  0  0
  7  9  1  0  0  0  0
  9 10  1  0  0  0  0
  9 11  1  0  0  0  0
  9 24  1  0  0  0  0
 11 12  1  0  0  0  0
 11 13  1  0  0  0  0
 11 14  1  0  0  0  0
 14 15  1  0  0  0  0
 14 16  1  0  0  0  0
 14 20  1  0  0  0  0
 16 17  1  0  0  0  0
 16 18  1  0  0  0  0
 16 19  1  0  0  0  0
 20 21  1  0  0  0  0
 20 22  1  0  0  0  0
 20 23  1  0  0  0  0
 24 25  2  0  0  0  0
 24 26  1  0  0  0  0
 26 27  1  0  0  0  0
 26 28  1  0  0  0  0
 28 29  1  0  0  0  0
 28 30  1  0  0  0  0
 28 31  1  0  0  0  0
M  END
$$$$

  -OEChem-04042216013D

 31 30  0     1  0  0  0  0  0999 V2000
   -2.7878   -4.4197    0.3716 H   0  0  0  0  0  0  0  0  0  0  0  0
   -2.7725   -3.4554   -0.1445 C   0  0  0  0  0  0  0  0  0  0  0  0
   -3.5993   -2.8449    0.2263 H   0  0  0  0  0  0  0  0  0  0  0  0
   -2.9059   -3.6282   -1.2151 H   0  0  0  0  0  0  0  0  0  0  0  0
   -1.4531   -2.7505    0.1073 C   0  0  0  0  0  0  0  0  0  0  0  0
   -0.6245   -3.2599    0.8395 O   0  0  0  0  0  0  0  0  0  0  0  0
   -1.2046   -1.5329   -0.4951 N   0  0  0  0  0  0  0  0  0  0  0  0
   -1.8949   -1.2061   -1.1640 H   0  0  0  0  0  0  0  0  0  0  0  0
    0.0848   -0.8193   -0.4358 C   0  0  1  0  0  0  0  0  0  0  0  0
    0.8550   -1.4848   -0.8413 H   0  0  0  0  0  0  0  0  0  0  0  0
    0.0649    0.4627   -1.2999 C   0  0  0  0  0  0  0  0  0  0  0  0
   -0.6954    1.1213   -0.8668 H   0  0  0  0  0  0  0  0  0  0  0  0
    1.0268    0.9724   -1.1726 H   0  0  0  0  0  0  0  0  0  0  0  0
   -0.1980    0.3412   -2.8317 C   0  0  0  0  0  0  0  0  0  0  0  0
    0.7767    0.4588   -3.3188 H   0  0  0  0  0  0  0  0  0  0  0  0
   -0.7698   -0.9848   -3.3571 C   0  0  0  0  0  0  0  0  0  0  0  0
   -1.7990   -1.1323   -3.0183 H   0  0  0  0  0  0  0  0  0  0  0  0
   -0.7754   -0.9792   -4.4518 H   0  0  0  0  0  0  0  0  0  0  0  0
   -0.1569   -1.8311   -3.0326 H   0  0  0  0  0  0  0  0  0  0  0  0
   -1.0952    1.4938   -3.2991 C   0  0  0  0  0  0  0  0  0  0  0  0
   -0.6553    2.4562   -3.0182 H   0  0  0  0  0  0  0  0  0  0  0  0
   -1.2069    1.4743   -4.3878 H   0  0  0  0  0  0  0  0  0  0  0  0
   -2.0891    1.4187   -2.8466 H   0  0  0  0  0  0  0  0  0  0  0  0
    0.5380   -0.4576    0.9967 C   0  0  0  0  0  0  0  0  0  0  0  0
    1.7321   -0.4178    1.2632 O   0  0  0  0  0  0  0  0  0  0  0  0
   -0.3693    0.0810    1.8917 N   0  0  0  0  0  0  0  0  0  0  0  0
   -1.3493   -0.0557    1.6680 H   0  0  0  0  0  0  0  0  0  0  0  0
   -0.0076    0.4564    3.2527 C   0  0  0  0  0  0  0  0  0  0  0  0
    0.7863    1.2106    3.2451 H   0  0  0  0  0  0  0  0  0  0  0  0
   -0.8744    0.8756    3.7724 H   0  0  0  0  0  0  0  0  0  0  0  0
    0.3430   -0.4188    3.8097 H   0  0  0  0  0  0  0  0  0  0  0  0
  1  2  1  0  0  0  0
  2  3  1  0  0  0  0
  2  4  1  0  0  0  0
  2  5  1  0  0  0  0
  5  6  2  0  0  0  0
  5  7  1  0  0  0  0
  7  8  1  0  0  0  0
  7  9  1  0  0  0  0
  9 10  1  0  0  0  0
  9 11  1  0  0  0  0
  9 24  1  0  0  0  0
 11 12  1  0  0  0  0
 11 13  1  0  0  0  0
 11 14  1  0  0  0  0
 14 15  1  0  0  0  0
 14 16  1  0  0  0  0
 14 20  1  0  0  0  0
 16 17  1  0  0  0  0
 16 18  1  0  0  0  0
 16 19  1  0  0  0  0
 20 21  1  0  0  0  0
 20 22  1  0  0  0  0
 20 23  1  0  0  0  0
 24 25  2  0  0  0  0
 24 26  1  0  0  0  0
 26 27  1  0  0  0  0
 26 28  1  0  0  0  0
 28 29  1  0  0  0  0
 28 30  1  0  0  0  0
 28 31  1  0  0  0  0
M  END
$$$$

  -OEChem-04042216013D

 31 30  0     1  0  0  0  0  0999 V2000
   -2.7827   -4.4247    0.3889 H   0  0  0  0  0  0  0  0  0  0  0  0
   -2.7750   -3.4616   -0.1294 C   0  0  0  0  0  0  0  0  0  0  0  0
   -3.6005   -2.8529    0.2471 H   0  0  0  0  0  0  0  0  0  0  0  0
   -2.9170   -3.6376   -1.1983 H   0  0  0  0  0  0  0  0  0  0  0  0
   -1.4555   -2.7522    0.1089 C   0  0  0  0  0  0  0  0  0  0  0  0
   -0.6155   -3.2613    0.8282 O   0  0  0  0  0  0  0  0  0  0  0  0
   -1.2184   -1.5322   -0.4932 N   0  0  0  0  0  0  0  0  0  0  0  0
   -1.9209   -1.2028   -1.1479 H   0  0  0  0  0  0  0  0  0  0  0  0
    0.0676   -0.8116   -0.4452 C   0  0  1  0  0  0  0  0  0  0  0  0
    0.8338   -1.4784   -0.8565 H   0  0  0  0  0  0  0  0  0  0  0  0
    0.0550    0.4713   -1.3096 C   0  0  0  0  0  0  0  0  0  0  0  0
   -0.7107    1.1277   -0.8827 H   0  0  0  0  0  0  0  0  0  0  0  0
    1.0167    0.9810   -1.1801 H   0  0  0  0  0  0  0  0  0  0  0  0
   -0.2065    0.3516   -2.8393 C   0  0  0  0  0  0  0  0  0  0  0  0
    0.7713    0.1946   -3.3084 H   0  0  0  0  0  0  0  0  0  0  0  0
   -1.0953   -0.8022   -3.3248 C   0  0  0  0  0  0  0  0  0  0  0  0
   -2.1033   -0.7213   -2.9073 H   0  0  0  0  0  0  0  0  0  0  0  0
   -1.1778   -0.7778   -4.4160 H   0  0  0  0  0  0  0  0  0  0  0  0
   -0.6624   -1.7685   -3.0491 H   0  0  0  0  0  0  0  0  0  0  0  0
   -0.7698    1.6786   -3.3625 C   0  0  0  0  0  0  0  0  0  0  0  0
   -0.1134    2.5079   -3.0803 H   0  0  0  0  0  0  0  0  0  0  0  0
   -0.8446    1.6585   -4.4543 H   0  0  0  0  0  0  0  0  0  0  0  0
   -1.7663    1.8668   -2.9499 H   0  0  0  0  0  0  0  0  0  0  0  0
    0.5310   -0.4510    0.9841 C   0  0  0  0  0  0  0  0  0  0  0  0
    1.7269   -0.4057    1.2417 O   0  0  0  0  0  0  0  0  0  0  0  0
   -0.3720    0.0805    1.8876 N   0  0  0  0  0  0  0  0  0  0  0  0
   -1.3531   -0.0561    1.6689 H   0  0  0  0  0  0  0  0  0  0  0  0
   -0.0021    0.4515    3.2475 C   0  0  0  0  0  0  0  0  0  0  0  0
    0.7873    1.2105    3.2375 H   0  0  0  0  0  0  0  0  0  0  0  0
   -0.8675    0.8626    3.7758 H   0  0  0  0  0  0  0  0  0  0  0  0
    0.3582   -0.4242    3.7975 H   0  0  0  0  0  0  0  0  0  0  0  0
  1  2  1  0  0  0  0
  2  3  1  0  0  0  0
  2  4  1  0  0  0  0
  2  5  1  0  0  0  0
  5  6  2  0  0  0  0
  5  7  1  0  0  0  0
  7  8  1  0  0  0  0
  7  9  1  0  0  0  0
  9 10  1  0  0  0  0
  9 11  1  0  0  0  0
  9 24  1  0  0  0  0
 11 12  1  0  0  0  0
 11 13  1  0  0  0  0
 11 14  1  0  0  0  0
 14 15  1  0  0  0  0
 14 16  1  0  0  0  0
 14 20  1  0  0  0  0
 16 17  1  0  0  0  0
 16 18  1  0  0  0  0
 16 19  1  0  0  0  0
 20 21  1  0  0  0  0
 20 22  1  0  0  0  0
 20 23  1  0  0  0  0
 24 25  2  0  0  0  0
 24 26  1  0  0  0  0
 26 27  1  0  0  0  0
 26 28  1  0  0  0  0
 28 29  1  0  0  0  0
 28 30  1  0  0  0  0
 28 31  1  0  0  0  0
M  END
$$$$

  -OEChem-04042216013D

 31 30  0     1  0  0  0  0  0999 V2000
   -2.7899   -4.4204    0.3653 H   0  0  0  0  0  0  0  0  0  0  0  0
   -2.7819   -3.4551   -0.1491 C   0  0  0  0  0  0  0  0  0  0  0  0
   -3.6089   -2.8485    0.2276 H   0  0  0  0  0  0  0  0  0  0  0  0
   -2.9214   -3.6273   -1.2190 H   0  0  0  0  0  0  0  0  0  0  0  0
   -1.4638   -2.7447    0.0950 C   0  0  0  0  0  0  0  0  0  0  0  0
   -0.6254   -3.2538    0.8162 O   0  0  0  0  0  0  0  0  0  0  0  0
   -1.2270   -1.5225   -0.5030 N   0  0  0  0  0  0  0  0  0  0  0  0
   -1.9264   -1.1960   -1.1623 H   0  0  0  0  0  0  0  0  0  0  0  0
    0.0597   -0.8046   -0.4547 C   0  0  1  0  0  0  0  0  0  0  0  0
    0.8224   -1.4731   -0.8694 H   0  0  0  0  0  0  0  0  0  0  0  0
    0.0558    0.4826   -1.3133 C   0  0  0  0  0  0  0  0  0  0  0  0
   -0.7034    1.1498   -0.8916 H   0  0  0  0  0  0  0  0  0  0  0  0
    1.0250    0.9781   -1.1842 H   0  0  0  0  0  0  0  0  0  0  0  0
   -0.2054    0.3577   -2.8395 C   0  0  0  0  0  0  0  0  0  0  0  0
    0.7062   -0.0507   -3.2892 H   0  0  0  0  0  0  0  0  0  0  0  0
   -1.3599   -0.5544   -3.2779 C   0  0  0  0  0  0  0  0  0  0  0  0
   -2.2878   -0.2780   -2.7677 H   0  0  0  0  0  0  0  0  0  0  0  0
   -1.5236   -0.4649   -4.3566 H   0  0  0  0  0  0  0  0  0  0  0  0
   -1.1265   -1.6026   -3.0705 H   0  0  0  0  0  0  0  0  0  0  0  0
   -0.4287    1.7615   -3.4163 C   0  0  0  0  0  0  0  0  0  0  0  0
    0.4102    2.4167   -3.1611 H   0  0  0  0  0  0  0  0  0  0  0  0
   -0.5077    1.7200   -4.5071 H   0  0  0  0  0  0  0  0  0  0  0  0
   -1.3482    2.2019   -3.0179 H   0  0  0  0  0  0  0  0  0  0  0  0
    0.5277   -0.4502    0.9749 C   0  0  0  0  0  0  0  0  0  0  0  0
    1.7247   -0.4046    1.2268 O   0  0  0  0  0  0  0  0  0  0  0  0
   -0.3710    0.0794    1.8837 N   0  0  0  0  0  0  0  0  0  0  0  0
   -1.3532   -0.0605    1.6720 H   0  0  0  0  0  0  0  0  0  0  0  0
    0.0072    0.4573    3.2394 C   0  0  0  0  0  0  0  0  0  0  0  0
    0.7960    1.2166    3.2204 H   0  0  0  0  0  0  0  0  0  0  0  0
   -0.8549    0.8710    3.7710 H   0  0  0  0  0  0  0  0  0  0  0  0
    0.3713   -0.4156    3.7914 H   0  0  0  0  0  0  0  0  0  0  0  0
  1  2  1  0  0  0  0
  2  3  1  0  0  0  0
  2  4  1  0  0  0  0
  2  5  1  0  0  0  0
  5  6  2  0  0  0  0
  5  7  1  0  0  0  0
  7  8  1  0  0  0  0
  7  9  1  0  0  0  0
  9 10  1  0  0  0  0
  9 11  1  0  0  0  0
  9 24  1  0  0  0  0
 11 12  1  0  0  0  0
 11 13  1  0  0  0  0
 11 14  1  0  0  0  0
 14 15  1  0  0  0  0
 14 16  1  0  0  0  0
 14 20  1  0  0  0  0
 16 17  1  0  0  0  0
 16 18  1  0  0  0  0
 16 19  1  0  0  0  0
 20 21  1  0  0  0  0
 20 22  1  0  0  0  0
 20 23  1  0  0  0  0
 24 25  2  0  0  0  0
 24 26  1  0  0  0  0
 26 27  1  0  0  0  0
 26 28  1  0  0  0  0
 28 29  1  0  0  0  0
 28 30  1  0  0  0  0
 28 31  1  0  0  0  0
M  END
$$$$

  -OEChem-04042216013D

 31 30  0     1  0  0  0  0  0999 V2000
   -2.8117   -4.3830    0.3237 H   0  0  0  0  0  0  0  0  0  0  0  0
   -2.7921   -3.4146   -0.1844 C   0  0  0  0  0  0  0  0  0  0  0  0
   -3.6094   -2.7994    0.1991 H   0  0  0  0  0  0  0  0  0  0  0  0
   -2.9371   -3.5769   -1.2552 H   0  0  0  0  0  0  0  0  0  0  0  0
   -1.4639   -2.7244    0.0613 C   0  0  0  0  0  0  0  0  0  0  0  0
   -0.6296   -3.2501    0.7752 O   0  0  0  0  0  0  0  0  0  0  0  0
   -1.2148   -1.4997   -0.5257 N   0  0  0  0  0  0  0  0  0  0  0  0
   -1.9164   -1.1531   -1.1725 H   0  0  0  0  0  0  0  0  0  0  0  0
    0.0743   -0.7891   -0.4653 C   0  0  1  0  0  0  0  0  0  0  0  0
    0.8374   -1.4560   -0.8822 H   0  0  0  0  0  0  0  0  0  0  0  0
    0.0684    0.5027   -1.3147 C   0  0  0  0  0  0  0  0  0  0  0  0
   -0.6809    1.1831   -0.8964 H   0  0  0  0  0  0  0  0  0  0  0  0
    1.0452    0.9841   -1.1902 H   0  0  0  0  0  0  0  0  0  0  0  0
   -0.1962    0.3535   -2.8356 C   0  0  0  0  0  0  0  0  0  0  0  0
    0.5957   -0.2746   -3.2586 H   0  0  0  0  0  0  0  0  0  0  0  0
   -1.5461   -0.2729   -3.2188 C   0  0  0  0  0  0  0  0  0  0  0  0
   -2.3600    0.1813   -2.6451 H   0  0  0  0  0  0  0  0  0  0  0  0
   -1.7490   -0.1198   -4.2835 H   0  0  0  0  0  0  0  0  0  0  0  0
   -1.5377   -1.3524   -3.0462 H   0  0  0  0  0  0  0  0  0  0  0  0
   -0.0990    1.7424   -3.4806 C   0  0  0  0  0  0  0  0  0  0  0  0
    0.8746    2.1959   -3.2690 H   0  0  0  0  0  0  0  0  0  0  0  0
   -0.2093    1.6691   -4.5671 H   0  0  0  0  0  0  0  0  0  0  0  0
   -0.8817    2.4038   -3.0955 H   0  0  0  0  0  0  0  0  0  0  0  0
    0.5358   -0.4469    0.9692 C   0  0  0  0  0  0  0  0  0  0  0  0
    1.7315   -0.4108    1.2293 O   0  0  0  0  0  0  0  0  0  0  0  0
   -0.3659    0.0808    1.8763 N   0  0  0  0  0  0  0  0  0  0  0  0
   -1.3477   -0.0514    1.6574 H   0  0  0  0  0  0  0  0  0  0  0  0
    0.0064    0.4423    3.2382 C   0  0  0  0  0  0  0  0  0  0  0  0
    0.8000    1.1970    3.2317 H   0  0  0  0  0  0  0  0  0  0  0  0
   -0.8565    0.8556    3.7689 H   0  0  0  0  0  0  0  0  0  0  0  0
    0.3622   -0.4382    3.7833 H   0  0  0  0  0  0  0  0  0  0  0  0
  1  2  1  0  0  0  0
  2  3  1  0  0  0  0
  2  4  1  0  0  0  0
  2  5  1  0  0  0  0
  5  6  2  0  0  0  0
  5  7  1  0  0  0  0
  7  8  1  0  0  0  0
  7  9  1  0  0  0  0
  9 10  1  0  0  0  0
  9 11  1  0  0  0  0
  9 24  1  0  0  0  0
 11 12  1  0  0  0  0
 11 13  1  0  0  0  0
 11 14  1  0  0  0  0
 14 15  1  0  0  0  0
 14 16  1  0  0  0  0
 14 20  1  0  0  0  0
 16 17  1  0  0  0  0
 16 18  1  0  0  0  0
 16 19  1  0  0  0  0
 20 21  1  0  0  0  0
 20 22  1  0  0  0  0
 20 23  1  0  0  0  0
 24 25  2  0  0  0  0
 24 26  1  0  0  0  0
 26 27  1  0  0  0  0
 26 28  1  0  0  0  0
 28 29  1  0  0  0  0
 28 30  1  0  0  0  0
 28 31  1  0  0  0  0
M  END
$$$$

  -OEChem-04042216013D

 31 30  0     1  0  0  0  0  0999 V2000
   -2.8264   -4.3568    0.2739 H   0  0  0  0  0  0  0  0  0  0  0  0
   -2.7990   -3.3846   -0.2267 C   0  0  0  0  0  0  0  0  0  0  0  0
   -3.6120   -2.7665    0.1617 H   0  0  0  0  0  0  0  0  0  0  0  0
   -2.9452   -3.5375   -1.2987 H   0  0  0  0  0  0  0  0  0  0  0  0
   -1.4650   -2.7065    0.0233 C   0  0  0  0  0  0  0  0  0  0  0  0
   -0.6331   -3.2468    0.7293 O   0  0  0  0  0  0  0  0  0  0  0  0
   -1.2066   -1.4768   -0.5493 N   0  0  0  0  0  0  0  0  0  0  0  0
   -1.9129   -1.1061   -1.1770 H   0  0  0  0  0  0  0  0  0  0  0  0
    0.0851   -0.7732   -0.4717 C   0  0  1  0  0  0  0  0  0  0  0  0
    0.8485   -1.4373   -0.8923 H   0  0  0  0  0  0  0  0  0  0  0  0
    0.0773    0.5241   -1.3086 C   0  0  0  0  0  0  0  0  0  0  0  0
   -0.6625    1.2161   -0.8928 H   0  0  0  0  0  0  0  0  0  0  0  0
    1.0601    0.9935   -1.1845 H   0  0  0  0  0  0  0  0  0  0  0  0
   -0.1880    0.3469   -2.8251 C   0  0  0  0  0  0  0  0  0  0  0  0
    0.4377   -0.4698   -3.2018 H   0  0  0  0  0  0  0  0  0  0  0  0
   -1.6548    0.0484   -3.1798 C   0  0  0  0  0  0  0  0  0  0  0  0
   -2.3295    0.7140   -2.6323 H   0  0  0  0  0  0  0  0  0  0  0  0
   -1.8246    0.1936   -4.2515 H   0  0  0  0  0  0  0  0  0  0  0  0
   -1.9117   -0.9887   -2.9531 H   0  0  0  0  0  0  0  0  0  0  0  0
    0.2289    1.6366   -3.5453 C   0  0  0  0  0  0  0  0  0  0  0  0
    1.2851    1.8560   -3.3590 H   0  0  0  0  0  0  0  0  0  0  0  0
    0.0914    1.5353   -4.6265 H   0  0  0  0  0  0  0  0  0  0  0  0
   -0.3693    2.4843   -3.1960 H   0  0  0  0  0  0  0  0  0  0  0  0
    0.5423   -0.4457    0.9675 C   0  0  0  0  0  0  0  0  0  0  0  0
    1.7371   -0.4202    1.2330 O   0  0  0  0  0  0  0  0  0  0  0  0
   -0.3594    0.0789    1.8763 N   0  0  0  0  0  0  0  0  0  0  0  0
   -1.3414   -0.0382    1.6507 H   0  0  0  0  0  0  0  0  0  0  0  0
    0.0107    0.4299    3.2415 C   0  0  0  0  0  0  0  0  0  0  0  0
    0.8037    1.1852    3.2422 H   0  0  0  0  0  0  0  0  0  0  0  0
   -0.8529    0.8382    3.7748 H   0  0  0  0  0  0  0  0  0  0  0  0
    0.3666   -0.4549    3.7798 H   0  0  0  0  0  0  0  0  0  0  0  0
  1  2  1  0  0  0  0
  2  3  1  0  0  0  0
  2  4  1  0  0  0  0
  2  5  1  0  0  0  0
  5  6  2  0  0  0  0
  5  7  1  0  0  0  0
  7  8  1  0  0  0  0
  7  9  1  0  0  0  0
  9 10  1  0  0  0  0
  9 11  1  0  0  0  0
  9 24  1  0  0  0  0
 11 12  1  0  0  0  0
 11 13  1  0  0  0  0
 11 14  1  0  0  0  0
 14 15  1  0  0  0  0
 14 16  1  0  0  0  0
 14 20  1  0  0  0  0
 16 17  1  0  0  0  0
 16 18  1  0  0  0  0
 16 19  1  0  0  0  0
 20 21  1  0  0  0  0
 20 22  1  0  0  0  0
 20 23  1  0  0  0  0
 24 25  2  0  0  0  0
 24 26  1  0  0  0  0
 26 27  1  0  0  0  0
 26 28  1  0  0  0  0
 28 29  1  0  0  0  0
 28 30  1  0  0  0  0
 28 31  1  0  0  0  0
M  END
$$$$

  -OEChem-04042216013D

 31 30  0     1  0  0  0  0  0999 V2000
   -2.8288   -4.3340    0.2228 H   0  0  0  0  0  0  0  0  0  0  0  0
   -2.7958   -3.3570   -0.2682 C   0  0  0  0  0  0  0  0  0  0  0  0
   -3.6049   -2.7377    0.1260 H   0  0  0  0  0  0  0  0  0  0  0  0
   -2.9427   -3.4990   -1.3415 H   0  0  0  0  0  0  0  0  0  0  0  0
   -1.4579   -2.6895   -0.0111 C   0  0  0  0  0  0  0  0  0  0  0  0
   -0.6297   -3.2416    0.6898 O   0  0  0  0  0  0  0  0  0  0  0  0
   -1.1921   -1.4553   -0.5705 N   0  0  0  0  0  0  0  0  0  0  0  0
   -1.8967   -1.0734   -1.1924 H   0  0  0  0  0  0  0  0  0  0  0  0
    0.1016   -0.7566   -0.4771 C   0  0  1  0  0  0  0  0  0  0  0  0
    0.8682   -1.4153   -0.9007 H   0  0  0  0  0  0  0  0  0  0  0  0
    0.0864    0.5481   -1.2997 C   0  0  0  0  0  0  0  0  0  0  0  0
   -0.6515    1.2405   -0.8814 H   0  0  0  0  0  0  0  0  0  0  0  0
    1.0688    1.0178   -1.1755 H   0  0  0  0  0  0  0  0  0  0  0  0
   -0.1834    0.3458   -2.8115 C   0  0  0  0  0  0  0  0  0  0  0  0
    0.2256   -0.6204   -3.1274 H   0  0  0  0  0  0  0  0  0  0  0  0
   -1.6800    0.3974   -3.1624 C   0  0  0  0  0  0  0  0  0  0  0  0
   -2.1330    1.3203   -2.7866 H   0  0  0  0  0  0  0  0  0  0  0  0
   -1.8147    0.3663   -4.2483 H   0  0  0  0  0  0  0  0  0  0  0  0
   -2.2193   -0.4531   -2.7422 H   0  0  0  0  0  0  0  0  0  0  0  0
    0.5334    1.4464   -3.6051 C   0  0  0  0  0  0  0  0  0  0  0  0
    1.6129    1.4040   -3.4287 H   0  0  0  0  0  0  0  0  0  0  0  0
    0.3610    1.3202   -4.6786 H   0  0  0  0  0  0  0  0  0  0  0  0
    0.1706    2.4358   -3.3080 H   0  0  0  0  0  0  0  0  0  0  0  0
    0.5503   -0.4437    0.9680 C   0  0  0  0  0  0  0  0  0  0  0  0
    1.7430   -0.4252    1.2425 O   0  0  0  0  0  0  0  0  0  0  0  0
   -0.3561    0.0755    1.8752 N   0  0  0  0  0  0  0  0  0  0  0  0
   -1.3367   -0.0328    1.6397 H   0  0  0  0  0  0  0  0  0  0  0  0
    0.0030    0.4057    3.2485 C   0  0  0  0  0  0  0  0  0  0  0  0
    0.7967    1.1599    3.2670 H   0  0  0  0  0  0  0  0  0  0  0  0
   -0.8646    0.8069    3.7806 H   0  0  0  0  0  0  0  0  0  0  0  0
    0.3528   -0.4874    3.7770 H   0  0  0  0  0  0  0  0  0  0  0  0
  1  2  1  0  0  0  0
  2  3  1  0  0  0  0
  2  4  1  0  0  0  0
  2  5  1  0  0  0  0
  5  6  2  0  0  0  0
  5  7  1  0  0  0  0
  7  8  1  0  0  0  0
  7  9  1  0  0  0  0
  9 10  1  0  0  0  0
  9 11  1  0  0  0  0
  9 24  1  0  0  0  0
 11 12  1  0  0  0  0
 11 13  1  0  0  0  0
 11 14  1  0  0  0  0
 14 15  1  0  0  0  0
 14 16  1  0  0  0  0
 14 20  1  0  0  0  0
 16 17  1  0  0  0  0
 16 18  1  0  0  0  0
 16 19  1  0  0  0  0
 20 21  1  0  0  0  0
 20 22  1  0  0  0  0
 20 23  1  0  0  0  0
 24 25  2  0  0  0  0
 24 26  1  0  0  0  0
 26 27  1  0  0  0  0
 26 28  1  0  0  0  0
 28 29  1  0  0  0  0
 28 30  1  0  0  0  0
 28 31  1  0  0  0  0
M  END
$$$$

  -OEChem-04042216013D

 31 30  0     1  0  0  0  0  0999 V2000
   -2.8376   -4.3122    0.1336 H   0  0  0  0  0  0  0  0  0  0  0  0
   -2.7879   -3.3348   -0.3550 C   0  0  0  0  0  0  0  0  0  0  0  0
   -3.6193   -2.7210   -0.0004 H   0  0  0  0  0  0  0  0  0  0  0  0
   -2.8821   -3.4777   -1.4342 H   0  0  0  0  0  0  0  0  0  0  0  0
   -1.4685   -2.6583   -0.0337 C   0  0  0  0  0  0  0  0  0  0  0  0
   -0.6722   -3.2043    0.7080 O   0  0  0  0  0  0  0  0  0  0  0  0
   -1.1818   -1.4252   -0.5855 N   0  0  0  0  0  0  0  0  0  0  0  0
   -1.8411   -1.0706   -1.2711 H   0  0  0  0  0  0  0  0  0  0  0  0
    0.1219   -0.7456   -0.4713 C   0  0  1  0  0  0  0  0  0  0  0  0
    0.8885   -1.4021   -0.8982 H   0  0  0  0  0  0  0  0  0  0  0  0
    0.0944    0.5645   -1.2802 C   0  0  0  0  0  0  0  0  0  0  0  0
   -0.6488    1.2475   -0.8552 H   0  0  0  0  0  0  0  0  0  0  0  0
    1.0707    1.0479   -1.1611 H   0  0  0  0  0  0  0  0  0  0  0  0
   -0.1860    0.3348   -2.7856 C   0  0  0  0  0  0  0  0  0  0  0  0
   -0.0328   -0.7210   -3.0356 H   0  0  0  0  0  0  0  0  0  0  0  0
   -1.6240    0.7334   -3.1473 C   0  0  0  0  0  0  0  0  0  0  0  0
   -1.7921    1.7968   -2.9474 H   0  0  0  0  0  0  0  0  0  0  0  0
   -1.8131    0.5476   -4.2094 H   0  0  0  0  0  0  0  0  0  0  0  0
   -2.3470    0.1539   -2.5672 H   0  0  0  0  0  0  0  0  0  0  0  0
    0.7826    1.1652   -3.6369 C   0  0  0  0  0  0  0  0  0  0  0  0
    1.8171    0.8683   -3.4362 H   0  0  0  0  0  0  0  0  0  0  0  0
    0.5844    1.0110   -4.7023 H   0  0  0  0  0  0  0  0  0  0  0  0
    0.6771    2.2320   -3.4145 H   0  0  0  0  0  0  0  0  0  0  0  0
    0.5631   -0.4430    0.9779 C   0  0  0  0  0  0  0  0  0  0  0  0
    1.7541   -0.4419    1.2611 O   0  0  0  0  0  0  0  0  0  0  0  0
   -0.3434    0.0876    1.8783 N   0  0  0  0  0  0  0  0  0  0  0  0
   -1.3234   -0.0148    1.6369 H   0  0  0  0  0  0  0  0  0  0  0  0
    0.0099    0.4104    3.2547 C   0  0  0  0  0  0  0  0  0  0  0  0
    0.8102    1.1575    3.2803 H   0  0  0  0  0  0  0  0  0  0  0  0
   -0.8577    0.8178    3.7822 H   0  0  0  0  0  0  0  0  0  0  0  0
    0.3484   -0.4875    3.7826 H   0  0  0  0  0  0  0  0  0  0  0  0
  1  2  1  0  0  0  0
  2  3  1  0  0  0  0
  2  4  1  0  0  0  0
  2  5  1  0  0  0  0
  5  6  2  0  0  0  0
  5  7  1  0  0  0  0
  7  8  1  0  0  0  0
  7  9  1  0  0  0  0
  9 10  1  0  0  0  0
  9 11  1  0  0  0  0
  9 24  1  0  0  0  0
 11 12  1  0  0  0  0
 11 13  1  0  0  0  0
 11 14  1  0  0  0  0
 14 15  1  0  0  0  0
 14 16  1  0  0  0  0
 14 20  1  0  0  0  0
 16 17  1  0  0  0  0
 16 18  1  0  0  0  0
 16 19  1  0  0  0  0
 20 21  1  0  0  0  0
 20 22  1  0  0  0  0
 20 23  1  0  0  0  0
 24 25  2  0  0  0  0
 24 26  1  0  0  0  0
 26 27  1  0  0  0  0
 26 28  1  0  0  0  0
 28 29  1  0  0  0  0
 28 30  1  0  0  0  0
 28 31  1  0  0  0  0
M  END
$$$$

  -OEChem-04042216013D

 31 30  0     1  0  0  0  0  0999 V2000
   -2.8348   -4.3040    0.1178 H   0  0  0  0  0  0  0  0  0  0  0  0
   -2.7874   -3.3212   -0.3598 C   0  0  0  0  0  0  0  0  0  0  0  0
   -3.6126   -2.7095    0.0121 H   0  0  0  0  0  0  0  0  0  0  0  0
   -2.8945   -3.4505   -1.4395 H   0  0  0  0  0  0  0  0  0  0  0  0
   -1.4625   -2.6524   -0.0456 C   0  0  0  0  0  0  0  0  0  0  0  0
   -0.6655   -3.2031    0.6917 O   0  0  0  0  0  0  0  0  0  0  0  0
   -1.1739   -1.4177   -0.5927 N   0  0  0  0  0  0  0  0  0  0  0  0
   -1.8389   -1.0515   -1.2673 H   0  0  0  0  0  0  0  0  0  0  0  0
    0.1299   -0.7368   -0.4728 C   0  0  1  0  0  0  0  0  0  0  0  0
    0.8988   -1.3891   -0.9018 H   0  0  0  0  0  0  0  0  0  0  0  0
    0.0932    0.5712   -1.2821 C   0  0  0  0  0  0  0  0  0  0  0  0
   -0.6678    1.2330   -0.8550 H   0  0  0  0  0  0  0  0  0  0  0  0
    1.0560    1.0805   -1.1594 H   0  0  0  0  0  0  0  0  0  0  0  0
   -0.1857    0.3340   -2.7883 C   0  0  0  0  0  0  0  0  0  0  0  0
   -0.3032   -0.7366   -2.9874 H   0  0  0  0  0  0  0  0  0  0  0  0
   -1.4689    1.0537   -3.2204 C   0  0  0  0  0  0  0  0  0  0  0  0
   -1.3799    2.1331   -3.0596 H   0  0  0  0  0  0  0  0  0  0  0  0
   -1.6655    0.8769   -4.2826 H   0  0  0  0  0  0  0  0  0  0  0  0
   -2.3251    0.6856   -2.6470 H   0  0  0  0  0  0  0  0  0  0  0  0
    0.9885    0.8383   -3.6357 C   0  0  0  0  0  0  0  0  0  0  0  0
    1.9102    0.3178   -3.3563 H   0  0  0  0  0  0  0  0  0  0  0  0
    0.8000    0.6538   -4.6980 H   0  0  0  0  0  0  0  0  0  0  0  0
    1.1380    1.9133   -3.4913 H   0  0  0  0  0  0  0  0  0  0  0  0
    0.5681   -0.4370    0.9777 C   0  0  0  0  0  0  0  0  0  0  0  0
    1.7586   -0.4343    1.2624 O   0  0  0  0  0  0  0  0  0  0  0  0
   -0.3403    0.0909    1.8779 N   0  0  0  0  0  0  0  0  0  0  0  0
   -1.3197   -0.0164    1.6359 H   0  0  0  0  0  0  0  0  0  0  0  0
    0.0089    0.4035    3.2578 C   0  0  0  0  0  0  0  0  0  0  0  0
    0.8117    1.1474    3.2914 H   0  0  0  0  0  0  0  0  0  0  0  0
   -0.8595    0.8104    3.7845 H   0  0  0  0  0  0  0  0  0  0  0  0
    0.3422   -0.4990    3.7808 H   0  0  0  0  0  0  0  0  0  0  0  0
  1  2  1  0  0  0  0
  2  3  1  0  0  0  0
  2  4  1  0  0  0  0
  2  5  1  0  0  0  0
  5  6  2  0  0  0  0
  5  7  1  0  0  0  0
  7  8  1  0  0  0  0
  7  9  1  0  0  0  0
  9 10  1  0  0  0  0
  9 11  1  0  0  0  0
  9 24  1  0  0  0  0
 11 12  1  0  0  0  0
 11 13  1  0  0  0  0
 11 14  1  0  0  0  0
 14 15  1  0  0  0  0
 14 16  1  0  0  0  0
 14 20  1  0  0  0  0
 16 17  1  0  0  0  0
 16 18  1  0  0  0  0
 16 19  1  0  0  0  0
 20 21  1  0  0  0  0
 20 22  1  0  0  0  0
 20 23  1  0  0  0  0
 24 25  2  0  0  0  0
 24 26  1  0  0  0  0
 26 27  1  0  0  0  0
 26 28  1  0  0  0  0
 28 29  1  0  0  0  0
 28 30  1  0  0  0  0
 28 31  1  0  0  0  0
M  END
$$$$

  -OEChem-04042216013D

 31 30  0     1  0  0  0  0  0999 V2000
   -2.8246   -4.3167    0.1280 H   0  0  0  0  0  0  0  0  0  0  0  0
   -2.7846   -3.3334   -0.3493 C   0  0  0  0  0  0  0  0  0  0  0  0
   -3.6092   -2.7248    0.0291 H   0  0  0  0  0  0  0  0  0  0  0  0
   -2.8996   -3.4624   -1.4281 H   0  0  0  0  0  0  0  0  0  0  0  0
   -1.4596   -2.6599   -0.0453 C   0  0  0  0  0  0  0  0  0  0  0  0
   -0.6528   -3.2096    0.6820 O   0  0  0  0  0  0  0  0  0  0  0  0
   -1.1816   -1.4226   -0.5920 N   0  0  0  0  0  0  0  0  0  0  0  0
   -1.8576   -1.0542   -1.2543 H   0  0  0  0  0  0  0  0  0  0  0  0
    0.1189   -0.7339   -0.4777 C   0  0  1  0  0  0  0  0  0  0  0  0
    0.8873   -1.3859   -0.9081 H   0  0  0  0  0  0  0  0  0  0  0  0
    0.0874    0.5738   -1.2896 C   0  0  0  0  0  0  0  0  0  0  0  0
   -0.6882    1.2200   -0.8649 H   0  0  0  0  0  0  0  0  0  0  0  0
    1.0398    1.1005   -1.1605 H   0  0  0  0  0  0  0  0  0  0  0  0
   -0.1860    0.3459   -2.7974 C   0  0  0  0  0  0  0  0  0  0  0  0
   -0.5839   -0.6599   -2.9646 H   0  0  0  0  0  0  0  0  0  0  0  0
   -1.2231    1.3484   -3.3159 C   0  0  0  0  0  0  0  0  0  0  0  0
   -0.8714    2.3752   -3.1723 H   0  0  0  0  0  0  0  0  0  0  0  0
   -1.4055    1.1898   -4.3835 H   0  0  0  0  0  0  0  0  0  0  0  0
   -2.1723    1.2268   -2.7847 H   0  0  0  0  0  0  0  0  0  0  0  0
    1.1140    0.4715   -3.5999 C   0  0  0  0  0  0  0  0  0  0  0  0
    1.8544   -0.2500   -3.2397 H   0  0  0  0  0  0  0  0  0  0  0  0
    0.9284    0.2726   -4.6600 H   0  0  0  0  0  0  0  0  0  0  0  0
    1.5337    1.4781   -3.5044 H   0  0  0  0  0  0  0  0  0  0  0  0
    0.5631   -0.4335    0.9708 C   0  0  0  0  0  0  0  0  0  0  0  0
    1.7553   -0.4239    1.2485 O   0  0  0  0  0  0  0  0  0  0  0  0
   -0.3431    0.0875    1.8772 N   0  0  0  0  0  0  0  0  0  0  0  0
   -1.3234   -0.0275    1.6428 H   0  0  0  0  0  0  0  0  0  0  0  0
    0.0148    0.4056    3.2536 C   0  0  0  0  0  0  0  0  0  0  0  0
    0.8143    1.1535    3.2793 H   0  0  0  0  0  0  0  0  0  0  0  0
   -0.8512    0.8101    3.7859 H   0  0  0  0  0  0  0  0  0  0  0  0
    0.3564   -0.4939    3.7765 H   0  0  0  0  0  0  0  0  0  0  0  0
  1  2  1  0  0  0  0
  2  3  1  0  0  0  0
  2  4  1  0  0  0  0
  2  5  1  0  0  0  0
  5  6  2  0  0  0  0
  5  7  1  0  0  0  0
  7  8  1  0  0  0  0
  7  9  1  0  0  0  0
  9 10  1  0  0  0  0
  9 11  1  0  0  0  0
  9 24  1  0  0  0  0
 11 12  1  0  0  0  0
 11 13  1  0  0  0  0
 11 14  1  0  0  0  0
 14 15  1  0  0  0  0
 14 16  1  0  0  0  0
 14 20  1  0  0  0  0
 16 17  1  0  0  0  0
 16 18  1  0  0  0  0
 16 19  1  0  0  0  0
 20 21  1  0  0  0  0
 20 22  1  0  0  0  0
 20 23  1  0  0  0  0
 24 25  2  0  0  0  0
 24 26  1  0  0  0  0
 26 27  1  0  0  0  0
 26 28  1  0  0  0  0
 28 29  1  0  0  0  0
 28 30  1  0  0  0  0
 28 31  1  0  0  0  0
M  END
$$$$

  -OEChem-04042216013D

 31 30  0     1  0  0  0  0  0999 V2000
   -2.8197   -4.3230    0.1477 H   0  0  0  0  0  0  0  0  0  0  0  0
   -2.7829   -3.3413   -0.3334 C   0  0  0  0  0  0  0  0  0  0  0  0
   -3.6029   -2.7301    0.0507 H   0  0  0  0  0  0  0  0  0  0  0  0
   -2.9084   -3.4738   -1.4107 H   0  0  0  0  0  0  0  0  0  0  0  0
   -1.4543   -2.6687   -0.0438 C   0  0  0  0  0  0  0  0  0  0  0  0
   -0.6398   -3.2190    0.6744 O   0  0  0  0  0  0  0  0  0  0  0  0
   -1.1804   -1.4324   -0.5946 N   0  0  0  0  0  0  0  0  0  0  0  0
   -1.8647   -1.0610   -1.2464 H   0  0  0  0  0  0  0  0  0  0  0  0
    0.1177   -0.7392   -0.4833 C   0  0  1  0  0  0  0  0  0  0  0  0
    0.8870   -1.3933   -0.9080 H   0  0  0  0  0  0  0  0  0  0  0  0
    0.0895    0.5678   -1.2985 C   0  0  0  0  0  0  0  0  0  0  0  0
   -0.6929    1.2085   -0.8780 H   0  0  0  0  0  0  0  0  0  0  0  0
    1.0392    1.0995   -1.1696 H   0  0  0  0  0  0  0  0  0  0  0  0
   -0.1797    0.3490   -2.8063 C   0  0  0  0  0  0  0  0  0  0  0  0
   -0.8259   -0.5211   -2.9544 H   0  0  0  0  0  0  0  0  0  0  0  0
   -0.9065    1.5620   -3.3967 C   0  0  0  0  0  0  0  0  0  0  0  0
   -0.3089    2.4699   -3.2648 H   0  0  0  0  0  0  0  0  0  0  0  0
   -1.0845    1.4156   -4.4667 H   0  0  0  0  0  0  0  0  0  0  0  0
   -1.8739    1.7062   -2.9056 H   0  0  0  0  0  0  0  0  0  0  0  0
    1.1338    0.0995   -3.5565 C   0  0  0  0  0  0  0  0  0  0  0  0
    1.6447   -0.7802   -3.1529 H   0  0  0  0  0  0  0  0  0  0  0  0
    0.9379   -0.0755   -4.6189 H   0  0  0  0  0  0  0  0  0  0  0  0
    1.8022    0.9617   -3.4654 H   0  0  0  0  0  0  0  0  0  0  0  0
    0.5600   -0.4331    0.9647 C   0  0  0  0  0  0  0  0  0  0  0  0
    1.7517   -0.4191    1.2435 O   0  0  0  0  0  0  0  0  0  0  0  0
   -0.3483    0.0876    1.8690 N   0  0  0  0  0  0  0  0  0  0  0  0
   -1.3280   -0.0278    1.6328 H   0  0  0  0  0  0  0  0  0  0  0  0
    0.0069    0.4105    3.2450 C   0  0  0  0  0  0  0  0  0  0  0  0
    0.8062    1.1586    3.2700 H   0  0  0  0  0  0  0  0  0  0  0  0
   -0.8601    0.8169    3.7741 H   0  0  0  0  0  0  0  0  0  0  0  0
    0.3474   -0.4873    3.7713 H   0  0  0  0  0  0  0  0  0  0  0  0
  1  2  1  0  0  0  0
  2  3  1  0  0  0  0
  2  4  1  0  0  0  0
  2  5  1  0  0  0  0
  5  6  2  0  0  0  0
  5  7  1  0  0  0  0
  7  8  1  0  0  0  0
  7  9  1  0  0  0  0
  9 10  1  0  0  0  0
  9 11  1  0  0  0  0
  9 24  1  0  0  0  0
 11 12  1  0  0  0  0
 11 13  1  0  0  0  0
 11 14  1  0  0  0  0
 14 15  1  0  0  0  0
 14 16  1  0  0  0  0
 14 20  1  0  0  0  0
 16 17  1  0  0  0  0
 16 18  1  0  0  0  0
 16 19  1  0  0  0  0
 20 21  1  0  0  0  0
 20 22  1  0  0  0  0
 20 23  1  0  0  0  0
 24 25  2  0  0  0  0
 24 26  1  0  0  0  0
 26 27  1  0  0  0  0
 26 28  1  0  0  0  0
 28 29  1  0  0  0  0
 28 30  1  0  0  0  0
 28 31  1  0  0  0  0
M  END
$$$$

  -OEChem-04042216013D

 31 30  0     1  0  0  0  0  0999 V2000
   -2.8208   -4.3267    0.1684 H   0  0  0  0  0  0  0  0  0  0  0  0
   -2.7812   -3.3484   -0.3194 C   0  0  0  0  0  0  0  0  0  0  0  0
   -3.6008   -2.7332    0.0595 H   0  0  0  0  0  0  0  0  0  0  0  0
   -2.9050   -3.4881   -1.3959 H   0  0  0  0  0  0  0  0  0  0  0  0
   -1.4518   -2.6763   -0.0322 C   0  0  0  0  0  0  0  0  0  0  0  0
   -0.6434   -3.2204    0.6978 O   0  0  0  0  0  0  0  0  0  0  0  0
   -1.1727   -1.4460   -0.5942 N   0  0  0  0  0  0  0  0  0  0  0  0
   -1.8529   -1.0806   -1.2534 H   0  0  0  0  0  0  0  0  0  0  0  0
    0.1264   -0.7551   -0.4843 C   0  0  1  0  0  0  0  0  0  0  0  0
    0.8986   -1.4135   -0.8952 H   0  0  0  0  0  0  0  0  0  0  0  0
    0.0968    0.5501   -1.3041 C   0  0  0  0  0  0  0  0  0  0  0  0
   -0.6797    1.1994   -0.8857 H   0  0  0  0  0  0  0  0  0  0  0  0
    1.0530    1.0718   -1.1821 H   0  0  0  0  0  0  0  0  0  0  0  0
   -0.1743    0.3409   -2.8112 C   0  0  0  0  0  0  0  0  0  0  0  0
   -1.0183   -0.3413   -2.9491 H   0  0  0  0  0  0  0  0  0  0  0  0
   -0.5500    1.6794   -3.4560 C   0  0  0  0  0  0  0  0  0  0  0  0
    0.2626    2.4041   -3.3411 H   0  0  0  0  0  0  0  0  0  0  0  0
   -0.7473    1.5457   -4.5242 H   0  0  0  0  0  0  0  0  0  0  0  0
   -1.4513    2.0905   -2.9911 H   0  0  0  0  0  0  0  0  0  0  0  0
    1.0509   -0.2501   -3.5208 C   0  0  0  0  0  0  0  0  0  0  0  0
    1.2808   -1.2471   -3.1341 H   0  0  0  0  0  0  0  0  0  0  0  0
    0.8614   -0.3403   -4.5949 H   0  0  0  0  0  0  0  0  0  0  0  0
    1.9277    0.3895   -3.3768 H   0  0  0  0  0  0  0  0  0  0  0  0
    0.5599   -0.4378    0.9642 C   0  0  0  0  0  0  0  0  0  0  0  0
    1.7496   -0.4255    1.2519 O   0  0  0  0  0  0  0  0  0  0  0  0
   -0.3536    0.0927    1.8577 N   0  0  0  0  0  0  0  0  0  0  0  0
   -1.3318   -0.0231    1.6155 H   0  0  0  0  0  0  0  0  0  0  0  0
   -0.0081    0.4284    3.2330 C   0  0  0  0  0  0  0  0  0  0  0  0
    0.7931    1.1745    3.2562 H   0  0  0  0  0  0  0  0  0  0  0  0
   -0.8782    0.8421    3.7513 H   0  0  0  0  0  0  0  0  0  0  0  0
    0.3261   -0.4648    3.7713 H   0  0  0  0  0  0  0  0  0  0  0  0
  1  2  1  0  0  0  0
  2  3  1  0  0  0  0
  2  4  1  0  0  0  0
  2  5  1  0  0  0  0
  5  6  2  0  0  0  0
  5  7  1  0  0  0  0
  7  8  1  0  0  0  0
  7  9  1  0  0  0  0
  9 10  1  0  0  0  0
  9 11  1  0  0  0  0
  9 24  1  0  0  0  0
 11 12  1  0  0  0  0
 11 13  1  0  0  0  0
 11 14  1  0  0  0  0
 14 15  1  0  0  0  0
 14 16  1  0  0  0  0
 14 20  1  0  0  0  0
 16 17  1  0  0  0  0
 16 18  1  0  0  0  0
 16 19  1  0  0  0  0
 20 21  1  0  0  0  0
 20 22  1  0  0  0  0
 20 23  1  0  0  0  0
 24 25  2  0  0  0  0
 24 26  1  0  0  0  0
 26 27  1  0  0  0  0
 26 28  1  0  0  0  0
 28 29  1  0  0  0  0
 28 30  1  0  0  0  0
 28 31  1  0  0  0  0
M  END
$$$$

  -OEChem-04042216013D

 31 30  0     1  0  0  0  0  0999 V2000
   -2.8143   -4.3650    0.1853 H   0  0  0  0  0  0  0  0  0  0  0  0
   -2.7833   -3.3892   -0.3080 C   0  0  0  0  0  0  0  0  0  0  0  0
   -3.6196   -2.7858    0.0531 H   0  0  0  0  0  0  0  0  0  0  0  0
   -2.8868   -3.5375   -1.3857 H   0  0  0  0  0  0  0  0  0  0  0  0
   -1.4705   -2.6925   -0.0030 C   0  0  0  0  0  0  0  0  0  0  0  0
   -0.6617   -3.2207    0.7380 O   0  0  0  0  0  0  0  0  0  0  0  0
   -1.2035   -1.4614   -0.5687 N   0  0  0  0  0  0  0  0  0  0  0  0
   -1.8754   -1.1191   -1.2480 H   0  0  0  0  0  0  0  0  0  0  0  0
    0.0929   -0.7633   -0.4692 C   0  0  1  0  0  0  0  0  0  0  0  0
    0.8572   -1.4303   -0.8831 H   0  0  0  0  0  0  0  0  0  0  0  0
    0.0828    0.5321   -1.3090 C   0  0  0  0  0  0  0  0  0  0  0  0
   -0.4908    1.2921   -0.7674 H   0  0  0  0  0  0  0  0  0  0  0  0
    1.1127    0.8986   -1.3869 H   0  0  0  0  0  0  0  0  0  0  0  0
   -0.5179    0.3954   -2.7267 C   0  0  0  0  0  0  0  0  0  0  0  0
   -1.5690    0.0994   -2.6577 H   0  0  0  0  0  0  0  0  0  0  0  0
   -0.4580    1.7550   -3.4317 C   0  0  0  0  0  0  0  0  0  0  0  0
    0.5788    2.0904   -3.5380 H   0  0  0  0  0  0  0  0  0  0  0  0
   -0.9053    1.6881   -4.4284 H   0  0  0  0  0  0  0  0  0  0  0  0
   -1.0096    2.5072   -2.8589 H   0  0  0  0  0  0  0  0  0  0  0  0
    0.2360   -0.6462   -3.5661 C   0  0  0  0  0  0  0  0  0  0  0  0
    0.1275   -1.6468   -3.1373 H   0  0  0  0  0  0  0  0  0  0  0  0
   -0.1608   -0.6726   -4.5858 H   0  0  0  0  0  0  0  0  0  0  0  0
    1.3022   -0.4024   -3.6152 H   0  0  0  0  0  0  0  0  0  0  0  0
    0.5461   -0.4367    0.9711 C   0  0  0  0  0  0  0  0  0  0  0  0
    1.7404   -0.4101    1.2385 O   0  0  0  0  0  0  0  0  0  0  0  0
   -0.3569    0.0937    1.8753 N   0  0  0  0  0  0  0  0  0  0  0  0
   -1.3383   -0.0270    1.6483 H   0  0  0  0  0  0  0  0  0  0  0  0
    0.0089    0.4501    3.2403 C   0  0  0  0  0  0  0  0  0  0  0  0
    0.7991    1.2083    3.2405 H   0  0  0  0  0  0  0  0  0  0  0  0
   -0.8576    0.8569    3.7701 H   0  0  0  0  0  0  0  0  0  0  0  0
    0.3665   -0.4317    3.7824 H   0  0  0  0  0  0  0  0  0  0  0  0
  1  2  1  0  0  0  0
  2  3  1  0  0  0  0
  2  4  1  0  0  0  0
  2  5  1  0  0  0  0
  5  6  2  0  0  0  0
  5  7  1  0  0  0  0
  7  8  1  0  0  0  0
  7  9  1  0  0  0  0
  9 10  1  0  0  0  0
  9 11  1  0  0  0  0
  9 24  1  0  0  0  0
 11 12  1  0  0  0  0
 11 13  1  0  0  0  0
 11 14  1  0  0  0  0
 14 15  1  0  0  0  0
 14 16  1  0  0  0  0
 14 20  1  0  0  0  0
 16 17  1  0  0  0  0
 16 18  1  0  0  0  0
 16 19  1  0  0  0  0
 20 21  1  0  0  0  0
 20 22  1  0  0  0  0
 20 23  1  0  0  0  0
 24 25  2  0  0  0  0
 24 26  1  0  0  0  0
 26 27  1  0  0  0  0
 26 28  1  0  0  0  0
 28 29  1  0  0  0  0
 28 30  1  0  0  0  0
 28 31  1  0  0  0  0
M  END
$$$$

  -OEChem-04042216013D

 31 30  0     1  0  0  0  0  0999 V2000
   -2.8233   -4.3651    0.2268 H   0  0  0  0  0  0  0  0  0  0  0  0
   -2.7920   -3.3922   -0.2724 C   0  0  0  0  0  0  0  0  0  0  0  0
   -3.6257   -2.7847    0.0877 H   0  0  0  0  0  0  0  0  0  0  0  0
   -2.8995   -3.5469   -1.3487 H   0  0  0  0  0  0  0  0  0  0  0  0
   -1.4767   -2.6967    0.0237 C   0  0  0  0  0  0  0  0  0  0  0  0
   -0.6705   -3.2188    0.7718 O   0  0  0  0  0  0  0  0  0  0  0  0
   -1.2068   -1.4718   -0.5539 N   0  0  0  0  0  0  0  0  0  0  0  0
   -1.8729   -1.1392   -1.2441 H   0  0  0  0  0  0  0  0  0  0  0  0
    0.0921   -0.7767   -0.4612 C   0  0  1  0  0  0  0  0  0  0  0  0
    0.8547   -1.4475   -0.8722 H   0  0  0  0  0  0  0  0  0  0  0  0
    0.0751    0.5108   -1.3124 C   0  0  0  0  0  0  0  0  0  0  0  0
   -0.4862    1.2832   -0.7761 H   0  0  0  0  0  0  0  0  0  0  0  0
    1.1101    0.8622   -1.3928 H   0  0  0  0  0  0  0  0  0  0  0  0
   -0.5272    0.3833   -2.7332 C   0  0  0  0  0  0  0  0  0  0  0  0
   -1.6186    0.3281   -2.6654 H   0  0  0  0  0  0  0  0  0  0  0  0
   -0.1329    1.6207   -3.5499 C   0  0  0  0  0  0  0  0  0  0  0  0
    0.9538    1.6795   -3.6710 H   0  0  0  0  0  0  0  0  0  0  0  0
   -0.5908    1.5851   -4.5435 H   0  0  0  0  0  0  0  0  0  0  0  0
   -0.4758    2.5313   -3.0487 H   0  0  0  0  0  0  0  0  0  0  0  0
   -0.0071   -0.8516   -3.4906 C   0  0  0  0  0  0  0  0  0  0  0  0
   -0.3562   -1.7797   -3.0311 H   0  0  0  0  0  0  0  0  0  0  0  0
   -0.3630   -0.8406   -4.5257 H   0  0  0  0  0  0  0  0  0  0  0  0
    1.0877   -0.8613   -3.5020 H   0  0  0  0  0  0  0  0  0  0  0  0
    0.5460   -0.4385    0.9759 C   0  0  0  0  0  0  0  0  0  0  0  0
    1.7402   -0.4147    1.2437 O   0  0  0  0  0  0  0  0  0  0  0  0
   -0.3562    0.1027    1.8743 N   0  0  0  0  0  0  0  0  0  0  0  0
   -1.3374   -0.0220    1.6487 H   0  0  0  0  0  0  0  0  0  0  0  0
    0.0086    0.4607    3.2390 C   0  0  0  0  0  0  0  0  0  0  0  0
    0.8080    1.2093    3.2389 H   0  0  0  0  0  0  0  0  0  0  0  0
   -0.8550    0.8804    3.7634 H   0  0  0  0  0  0  0  0  0  0  0  0
    0.3530   -0.4233    3.7863 H   0  0  0  0  0  0  0  0  0  0  0  0
  1  2  1  0  0  0  0
  2  3  1  0  0  0  0
  2  4  1  0  0  0  0
  2  5  1  0  0  0  0
  5  6  2  0  0  0  0
  5  7  1  0  0  0  0
  7  8  1  0  0  0  0
  7  9  1  0  0  0  0
  9 10  1  0  0  0  0
  9 11  1  0  0  0  0
  9 24  1  0  0  0  0
 11 12  1  0  0  0  0
 11 13  1  0  0  0  0
 11 14  1  0  0  0  0
 14 15  1  0  0  0  0
 14 16  1  0  0  0  0
 14 20  1  0  0  0  0
 16 17  1  0  0  0  0
 16 18  1  0  0  0  0
 16 19  1  0  0  0  0
 20 21  1  0  0  0  0
 20 22  1  0  0  0  0
 20 23  1  0  0  0  0
 24 25  2  0  0  0  0
 24 26  1  0  0  0  0
 26 27  1  0  0  0  0
 26 28  1  0  0  0  0
 28 29  1  0  0  0  0
 28 30  1  0  0  0  0
 28 31  1  0  0  0  0
M  END
$$$$

  -OEChem-04042216013D

 31 30  0     1  0  0  0  0  0999 V2000
   -2.8190   -4.3856    0.3027 H   0  0  0  0  0  0  0  0  0  0  0  0
   -2.7941   -3.4189   -0.2088 C   0  0  0  0  0  0  0  0  0  0  0  0
   -3.6262   -2.8088    0.1503 H   0  0  0  0  0  0  0  0  0  0  0  0
   -2.9090   -3.5871   -1.2823 H   0  0  0  0  0  0  0  0  0  0  0  0
   -1.4781   -2.7168    0.0681 C   0  0  0  0  0  0  0  0  0  0  0  0
   -0.6638   -3.2290    0.8142 O   0  0  0  0  0  0  0  0  0  0  0  0
   -1.2165   -1.4975   -0.5251 N   0  0  0  0  0  0  0  0  0  0  0  0
   -1.8911   -1.1711   -1.2104 H   0  0  0  0  0  0  0  0  0  0  0  0
    0.0795   -0.7968   -0.4512 C   0  0  1  0  0  0  0  0  0  0  0  0
    0.8396   -1.4721   -0.8594 H   0  0  0  0  0  0  0  0  0  0  0  0
    0.0631    0.4815   -1.3180 C   0  0  0  0  0  0  0  0  0  0  0  0
   -0.4869    1.2626   -0.7824 H   0  0  0  0  0  0  0  0  0  0  0  0
    1.1034    0.8195   -1.3886 H   0  0  0  0  0  0  0  0  0  0  0  0
   -0.5337    0.3885   -2.7507 C   0  0  0  0  0  0  0  0  0  0  0  0
   -1.6065    0.6047   -2.7136 H   0  0  0  0  0  0  0  0  0  0  0  0
    0.1774    1.4218   -3.6379 C   0  0  0  0  0  0  0  0  0  0  0  0
    1.2415    1.1841   -3.7417 H   0  0  0  0  0  0  0  0  0  0  0  0
   -0.2714    1.4456   -4.6360 H   0  0  0  0  0  0  0  0  0  0  0  0
    0.0865    2.4215   -3.2015 H   0  0  0  0  0  0  0  0  0  0  0  0
   -0.3196   -0.9739   -3.4414 C   0  0  0  0  0  0  0  0  0  0  0  0
   -0.9528   -1.7516   -3.0110 H   0  0  0  0  0  0  0  0  0  0  0  0
   -0.5725   -0.9069   -4.5045 H   0  0  0  0  0  0  0  0  0  0  0  0
    0.7262   -1.2868   -3.3574 H   0  0  0  0  0  0  0  0  0  0  0  0
    0.5412   -0.4419    0.9795 C   0  0  0  0  0  0  0  0  0  0  0  0
    1.7369   -0.4093    1.2401 O   0  0  0  0  0  0  0  0  0  0  0  0
   -0.3586    0.1050    1.8769 N   0  0  0  0  0  0  0  0  0  0  0  0
   -1.3405   -0.0274    1.6584 H   0  0  0  0  0  0  0  0  0  0  0  0
    0.0123    0.4836    3.2344 C   0  0  0  0  0  0  0  0  0  0  0  0
    0.8100    1.2338    3.2199 H   0  0  0  0  0  0  0  0  0  0  0  0
   -0.8496    0.9093    3.7567 H   0  0  0  0  0  0  0  0  0  0  0  0
    0.3612   -0.3916    3.7923 H   0  0  0  0  0  0  0  0  0  0  0  0
  1  2  1  0  0  0  0
  2  3  1  0  0  0  0
  2  4  1  0  0  0  0
  2  5  1  0  0  0  0
  5  6  2  0  0  0  0
  5  7  1  0  0  0  0
  7  8  1  0  0  0  0
  7  9  1  0  0  0  0
  9 10  1  0  0  0  0
  9 11  1  0  0  0  0
  9 24  1  0  0  0  0
 11 12  1  0  0  0  0
 11 13  1  0  0  0  0
 11 14  1  0  0  0  0
 14 15  1  0  0  0  0
 14 16  1  0  0  0  0
 14 20  1  0  0  0  0
 16 17  1  0  0  0  0
 16 18  1  0  0  0  0
 16 19  1  0  0  0  0
 20 21  1  0  0  0  0
 20 22  1  0  0  0  0
 20 23  1  0  0  0  0
 24 25  2  0  0  0  0
 24 26  1  0  0  0  0
 26 27  1  0  0  0  0
 26 28  1  0  0  0  0
 28 29  1  0  0  0  0
 28 30  1  0  0  0  0
 28 31  1  0  0  0  0
M  END
$$$$

  -OEChem-04042216013D

 31 30  0     1  0  0  0  0  0999 V2000
   -2.7959   -4.4105    0.3892 H   0  0  0  0  0  0  0  0  0  0  0  0
   -2.7805   -3.4518   -0.1374 C   0  0  0  0  0  0  0  0  0  0  0  0
   -3.6071   -2.8372    0.2269 H   0  0  0  0  0  0  0  0  0  0  0  0
   -2.9136   -3.6363   -1.2061 H   0  0  0  0  0  0  0  0  0  0  0  0
   -1.4612   -2.7440    0.1064 C   0  0  0  0  0  0  0  0  0  0  0  0
   -0.6269   -3.2501    0.8344 O   0  0  0  0  0  0  0  0  0  0  0  0
   -1.2196   -1.5258   -0.4972 N   0  0  0  0  0  0  0  0  0  0  0  0
   -1.9182   -1.1962   -1.1561 H   0  0  0  0  0  0  0  0  0  0  0  0
    0.0664   -0.8082   -0.4441 C   0  0  1  0  0  0  0  0  0  0  0  0
    0.8281   -1.4840   -0.8487 H   0  0  0  0  0  0  0  0  0  0  0  0
    0.0585    0.4628   -1.3262 C   0  0  0  0  0  0  0  0  0  0  0  0
   -0.4969    1.2412   -0.7921 H   0  0  0  0  0  0  0  0  0  0  0  0
    1.0988    0.8044   -1.3731 H   0  0  0  0  0  0  0  0  0  0  0  0
   -0.5232    0.4060   -2.7744 C   0  0  0  0  0  0  0  0  0  0  0  0
   -1.4943    0.9123   -2.7850 H   0  0  0  0  0  0  0  0  0  0  0  0
    0.4441    1.1488   -3.7107 C   0  0  0  0  0  0  0  0  0  0  0  0
    1.4082    0.6320   -3.7647 H   0  0  0  0  0  0  0  0  0  0  0  0
    0.0289    1.2156   -4.7213 H   0  0  0  0  0  0  0  0  0  0  0  0
    0.6158    2.1679   -3.3494 H   0  0  0  0  0  0  0  0  0  0  0  0
   -0.7011   -0.9988   -3.3858 C   0  0  0  0  0  0  0  0  0  0  0  0
   -1.5790   -1.5036   -2.9776 H   0  0  0  0  0  0  0  0  0  0  0  0
   -0.8532   -0.9298   -4.4678 H   0  0  0  0  0  0  0  0  0  0  0  0
    0.1848   -1.6162   -3.2062 H   0  0  0  0  0  0  0  0  0  0  0  0
    0.5355   -0.4392    0.9812 C   0  0  0  0  0  0  0  0  0  0  0  0
    1.7327   -0.3887    1.2313 O   0  0  0  0  0  0  0  0  0  0  0  0
   -0.3629    0.1004    1.8846 N   0  0  0  0  0  0  0  0  0  0  0  0
   -1.3453   -0.0399    1.6741 H   0  0  0  0  0  0  0  0  0  0  0  0
    0.0156    0.4894    3.2372 C   0  0  0  0  0  0  0  0  0  0  0  0
    0.8035    1.2495    3.2117 H   0  0  0  0  0  0  0  0  0  0  0  0
   -0.8466    0.9060    3.7663 H   0  0  0  0  0  0  0  0  0  0  0  0
    0.3811   -0.3787    3.7957 H   0  0  0  0  0  0  0  0  0  0  0  0
  1  2  1  0  0  0  0
  2  3  1  0  0  0  0
  2  4  1  0  0  0  0
  2  5  1  0  0  0  0
  5  6  2  0  0  0  0
  5  7  1  0  0  0  0
  7  8  1  0  0  0  0
  7  9  1  0  0  0  0
  9 10  1  0  0  0  0
  9 11  1  0  0  0  0
  9 24  1  0  0  0  0
 11 12  1  0  0  0  0
 11 13  1  0  0  0  0
 11 14  1  0  0  0  0
 14 15  1  0  0  0  0
 14 16  1  0  0  0  0
 14 20  1  0  0  0  0
 16 17  1  0  0  0  0
 16 18  1  0  0  0  0
 16 19  1  0  0  0  0
 20 21  1  0  0  0  0
 20 22  1  0  0  0  0
 20 23  1  0  0  0  0
 24 25  2  0  0  0  0
 24 26  1  0  0  0  0
 26 27  1  0  0  0  0
 26 28  1  0  0  0  0
 28 29  1  0  0  0  0
 28 30  1  0  0  0  0
 28 31  1  0  0  0  0
M  END
$$$$

  -OEChem-04042216013D

 31 30  0     1  0  0  0  0  0999 V2000
   -2.7634   -4.4374    0.4662 H   0  0  0  0  0  0  0  0  0  0  0  0
   -2.7676   -3.4806   -0.0639 C   0  0  0  0  0  0  0  0  0  0  0  0
   -3.5833   -2.8667    0.3254 H   0  0  0  0  0  0  0  0  0  0  0  0
   -2.9359   -3.6691   -1.1269 H   0  0  0  0  0  0  0  0  0  0  0  0
   -1.4420   -2.7700    0.1340 C   0  0  0  0  0  0  0  0  0  0  0  0
   -0.5834   -3.2730    0.8354 O   0  0  0  0  0  0  0  0  0  0  0  0
   -1.2227   -1.5509   -0.4767 N   0  0  0  0  0  0  0  0  0  0  0  0
   -1.9480   -1.2140   -1.1014 H   0  0  0  0  0  0  0  0  0  0  0  0
    0.0542   -0.8161   -0.4432 C   0  0  1  0  0  0  0  0  0  0  0  0
    0.8149   -1.4935   -0.8473 H   0  0  0  0  0  0  0  0  0  0  0  0
    0.0621    0.4511   -1.3359 C   0  0  0  0  0  0  0  0  0  0  0  0
   -0.5130    1.2163   -0.8040 H   0  0  0  0  0  0  0  0  0  0  0  0
    1.0970    0.8114   -1.3575 H   0  0  0  0  0  0  0  0  0  0  0  0
   -0.5016    0.4224   -2.7953 C   0  0  0  0  0  0  0  0  0  0  0  0
   -1.2846    1.1850   -2.8709 H   0  0  0  0  0  0  0  0  0  0  0  0
    0.6318    0.8087   -3.7594 C   0  0  0  0  0  0  0  0  0  0  0  0
    1.4350    0.0651   -3.7282 H   0  0  0  0  0  0  0  0  0  0  0  0
    0.2607    0.8771   -4.7870 H   0  0  0  0  0  0  0  0  0  0  0  0
    1.0489    1.7840   -3.4884 H   0  0  0  0  0  0  0  0  0  0  0  0
   -1.0899   -0.9022   -3.3131 C   0  0  0  0  0  0  0  0  0  0  0  0
   -2.0563   -1.1097   -2.8475 H   0  0  0  0  0  0  0  0  0  0  0  0
   -1.2626   -0.8472   -4.3927 H   0  0  0  0  0  0  0  0  0  0  0  0
   -0.4053   -1.7347   -3.1215 H   0  0  0  0  0  0  0  0  0  0  0  0
    0.5302   -0.4391    0.9777 C   0  0  0  0  0  0  0  0  0  0  0  0
    1.7284   -0.3753    1.2192 O   0  0  0  0  0  0  0  0  0  0  0  0
   -0.3674    0.0895    1.8883 N   0  0  0  0  0  0  0  0  0  0  0  0
   -1.3497   -0.0615    1.6849 H   0  0  0  0  0  0  0  0  0  0  0  0
    0.0163    0.4777    3.2397 C   0  0  0  0  0  0  0  0  0  0  0  0
    0.8012    1.2410    3.2120 H   0  0  0  0  0  0  0  0  0  0  0  0
   -0.8451    0.8900    3.7738 H   0  0  0  0  0  0  0  0  0  0  0  0
    0.3879   -0.3902    3.7946 H   0  0  0  0  0  0  0  0  0  0  0  0
  1  2  1  0  0  0  0
  2  3  1  0  0  0  0
  2  4  1  0  0  0  0
  2  5  1  0  0  0  0
  5  6  2  0  0  0  0
  5  7  1  0  0  0  0
  7  8  1  0  0  0  0
  7  9  1  0  0  0  0
  9 10  1  0  0  0  0
  9 11  1  0  0  0  0
  9 24  1  0  0  0  0
 11 12  1  0  0  0  0
 11 13  1  0  0  0  0
 11 14  1  0  0  0  0
 14 15  1  0  0  0  0
 14 16  1  0  0  0  0
 14 20  1  0  0  0  0
 16 17  1  0  0  0  0
 16 18  1  0  0  0  0
 16 19  1  0  0  0  0
 20 21  1  0  0  0  0
 20 22  1  0  0  0  0
 20 23  1  0  0  0  0
 24 25  2  0  0  0  0
 24 26  1  0  0  0  0
 26 27  1  0  0  0  0
 26 28  1  0  0  0  0
 28 29  1  0  0  0  0
 28 30  1  0  0  0  0
 28 31  1  0  0  0  0
M  END
$$$$

  -OEChem-04042216013D

 31 30  0     1  0  0  0  0  0999 V2000
   -2.7428   -4.4654    0.4867 H   0  0  0  0  0  0  0  0  0  0  0  0
   -2.7560   -3.5071   -0.0405 C   0  0  0  0  0  0  0  0  0  0  0  0
   -3.5736   -2.8997    0.3547 H   0  0  0  0  0  0  0  0  0  0  0  0
   -2.9287   -3.6934   -1.1032 H   0  0  0  0  0  0  0  0  0  0  0  0
   -1.4340   -2.7884    0.1526 C   0  0  0  0  0  0  0  0  0  0  0  0
   -0.5696   -3.2870    0.8500 O   0  0  0  0  0  0  0  0  0  0  0  0
   -1.2242   -1.5691   -0.4610 N   0  0  0  0  0  0  0  0  0  0  0  0
   -1.9554   -1.2386   -1.0816 H   0  0  0  0  0  0  0  0  0  0  0  0
    0.0496   -0.8290   -0.4387 C   0  0  1  0  0  0  0  0  0  0  0  0
    0.8074   -1.5096   -0.8433 H   0  0  0  0  0  0  0  0  0  0  0  0
    0.0737    0.4393   -1.3328 C   0  0  0  0  0  0  0  0  0  0  0  0
   -0.5142    1.1947   -0.8009 H   0  0  0  0  0  0  0  0  0  0  0  0
    1.1041    0.8122   -1.3446 H   0  0  0  0  0  0  0  0  0  0  0  0
   -0.4811    0.4258   -2.7937 C   0  0  0  0  0  0  0  0  0  0  0  0
   -1.0110    1.3735   -2.9403 H   0  0  0  0  0  0  0  0  0  0  0  0
    0.7034    0.4209   -3.7710 C   0  0  0  0  0  0  0  0  0  0  0  0
    1.2954   -0.4921   -3.6506 H   0  0  0  0  0  0  0  0  0  0  0  0
    0.3504    0.4724   -4.8058 H   0  0  0  0  0  0  0  0  0  0  0  0
    1.3534    1.2839   -3.5943 H   0  0  0  0  0  0  0  0  0  0  0  0
   -1.4487   -0.6919   -3.2088 C   0  0  0  0  0  0  0  0  0  0  0  0
   -2.3748   -0.6364   -2.6304 H   0  0  0  0  0  0  0  0  0  0  0  0
   -1.7175   -0.5842   -4.2646 H   0  0  0  0  0  0  0  0  0  0  0  0
   -0.9893   -1.6767   -3.0780 H   0  0  0  0  0  0  0  0  0  0  0  0
    0.5307   -0.4508    0.9805 C   0  0  0  0  0  0  0  0  0  0  0  0
    1.7298   -0.3815    1.2167 O   0  0  0  0  0  0  0  0  0  0  0  0
   -0.3657    0.0732    1.8950 N   0  0  0  0  0  0  0  0  0  0  0  0
   -1.3487   -0.0787    1.6950 H   0  0  0  0  0  0  0  0  0  0  0  0
    0.0220    0.4764    3.2407 C   0  0  0  0  0  0  0  0  0  0  0  0
    0.7966    1.2496    3.2016 H   0  0  0  0  0  0  0  0  0  0  0  0
   -0.8410    0.8816    3.7771 H   0  0  0  0  0  0  0  0  0  0  0  0
    0.4085   -0.3819    3.8002 H   0  0  0  0  0  0  0  0  0  0  0  0
  1  2  1  0  0  0  0
  2  3  1  0  0  0  0
  2  4  1  0  0  0  0
  2  5  1  0  0  0  0
  5  6  2  0  0  0  0
  5  7  1  0  0  0  0
  7  8  1  0  0  0  0
  7  9  1  0  0  0  0
  9 10  1  0  0  0  0
  9 11  1  0  0  0  0
  9 24  1  0  0  0  0
 11 12  1  0  0  0  0
 11 13  1  0  0  0  0
 11 14  1  0  0  0  0
 14 15  1  0  0  0  0
 14 16  1  0  0  0  0
 14 20  1  0  0  0  0
 16 17  1  0  0  0  0
 16 18  1  0  0  0  0
 16 19  1  0  0  0  0
 20 21  1  0  0  0  0
 20 22  1  0  0  0  0
 20 23  1  0  0  0  0
 24 25  2  0  0  0  0
 24 26  1  0  0  0  0
 26 27  1  0  0  0  0
 26 28  1  0  0  0  0
 28 29  1  0  0  0  0
 28 30  1  0  0  0  0
 28 31  1  0  0  0  0
M  END
$$$$

  -OEChem-04042216013D

 31 30  0     1  0  0  0  0  0999 V2000
   -2.7309   -4.4828    0.4684 H   0  0  0  0  0  0  0  0  0  0  0  0
   -2.7449   -3.5235   -0.0571 C   0  0  0  0  0  0  0  0  0  0  0  0
   -3.5718   -2.9228    0.3292 H   0  0  0  0  0  0  0  0  0  0  0  0
   -2.9034   -3.7093   -1.1222 H   0  0  0  0  0  0  0  0  0  0  0  0
   -1.4308   -2.7950    0.1528 C   0  0  0  0  0  0  0  0  0  0  0  0
   -0.5721   -3.2870    0.8618 O   0  0  0  0  0  0  0  0  0  0  0  0
   -1.2225   -1.5747   -0.4591 N   0  0  0  0  0  0  0  0  0  0  0  0
   -1.9419   -1.2600   -1.1014 H   0  0  0  0  0  0  0  0  0  0  0  0
    0.0505   -0.8337   -0.4342 C   0  0  1  0  0  0  0  0  0  0  0  0
    0.8087   -1.5134   -0.8390 H   0  0  0  0  0  0  0  0  0  0  0  0
    0.0781    0.4387   -1.3228 C   0  0  0  0  0  0  0  0  0  0  0  0
   -0.5098    1.1942   -0.7908 H   0  0  0  0  0  0  0  0  0  0  0  0
    1.1086    0.8110   -1.3441 H   0  0  0  0  0  0  0  0  0  0  0  0
   -0.4768    0.4187   -2.7782 C   0  0  0  0  0  0  0  0  0  0  0  0
   -0.7463    1.4550   -3.0105 H   0  0  0  0  0  0  0  0  0  0  0  0
    0.6490    0.0340   -3.7458 C   0  0  0  0  0  0  0  0  0  0  0  0
    0.9975   -0.9836   -3.5429 H   0  0  0  0  0  0  0  0  0  0  0  0
    0.2972    0.0811   -4.7812 H   0  0  0  0  0  0  0  0  0  0  0  0
    1.4967    0.7190   -3.6444 H   0  0  0  0  0  0  0  0  0  0  0  0
   -1.7232   -0.4230   -3.0788 C   0  0  0  0  0  0  0  0  0  0  0  0
   -2.5323   -0.1737   -2.3859 H   0  0  0  0  0  0  0  0  0  0  0  0
   -2.0759   -0.2144   -4.0939 H   0  0  0  0  0  0  0  0  0  0  0  0
   -1.5008   -1.4925   -3.0175 H   0  0  0  0  0  0  0  0  0  0  0  0
    0.5314   -0.4563    0.9854 C   0  0  0  0  0  0  0  0  0  0  0  0
    1.7307   -0.3806    1.2192 O   0  0  0  0  0  0  0  0  0  0  0  0
   -0.3650    0.0662    1.9007 N   0  0  0  0  0  0  0  0  0  0  0  0
   -1.3474   -0.0925    1.7040 H   0  0  0  0  0  0  0  0  0  0  0  0
    0.0246    0.4752    3.2442 C   0  0  0  0  0  0  0  0  0  0  0  0
    0.7957    1.2516    3.2008 H   0  0  0  0  0  0  0  0  0  0  0  0
   -0.8386    0.8784    3.7820 H   0  0  0  0  0  0  0  0  0  0  0  0
    0.4166   -0.3798    3.8051 H   0  0  0  0  0  0  0  0  0  0  0  0
  1  2  1  0  0  0  0
  2  3  1  0  0  0  0
  2  4  1  0  0  0  0
  2  5  1  0  0  0  0
  5  6  2  0  0  0  0
  5  7  1  0  0  0  0
  7  8  1  0  0  0  0
  7  9  1  0  0  0  0
  9 10  1  0  0  0  0
  9 11  1  0  0  0  0
  9 24  1  0  0  0  0
 11 12  1  0  0  0  0
 11 13  1  0  0  0  0
 11 14  1  0  0  0  0
 14 15  1  0  0  0  0
 14 16  1  0  0  0  0
 14 20  1  0  0  0  0
 16 17  1  0  0  0  0
 16 18  1  0  0  0  0
 16 19  1  0  0  0  0
 20 21  1  0  0  0  0
 20 22  1  0  0  0  0
 20 23  1  0  0  0  0
 24 25  2  0  0  0  0
 24 26  1  0  0  0  0
 26 27  1  0  0  0  0
 26 28  1  0  0  0  0
 28 29  1  0  0  0  0
 28 30  1  0  0  0  0
 28 31  1  0  0  0  0
M  END
$$$$

  -OEChem-04042216013D

 31 30  0     1  0  0  0  0  0999 V2000
   -2.7354   -4.4684    0.4352 H   0  0  0  0  0  0  0  0  0  0  0  0
   -2.7448   -3.5065   -0.0853 C   0  0  0  0  0  0  0  0  0  0  0  0
   -3.5679   -2.9034    0.3051 H   0  0  0  0  0  0  0  0  0  0  0  0
   -2.9052   -3.6858   -1.1511 H   0  0  0  0  0  0  0  0  0  0  0  0
   -1.4263   -2.7868    0.1268 C   0  0  0  0  0  0  0  0  0  0  0  0
   -0.5664   -3.2904    0.8263 O   0  0  0  0  0  0  0  0  0  0  0  0
   -1.2132   -1.5619   -0.4741 N   0  0  0  0  0  0  0  0  0  0  0  0
   -1.9390   -1.2272   -1.0991 H   0  0  0  0  0  0  0  0  0  0  0  0
    0.0593   -0.8218   -0.4358 C   0  0  1  0  0  0  0  0  0  0  0  0
    0.8208   -1.4966   -0.8424 H   0  0  0  0  0  0  0  0  0  0  0  0
    0.0769    0.4543   -1.3162 C   0  0  0  0  0  0  0  0  0  0  0  0
   -0.5020    1.2172   -0.7850 H   0  0  0  0  0  0  0  0  0  0  0  0
    1.1092    0.8196   -1.3582 H   0  0  0  0  0  0  0  0  0  0  0  0
   -0.4853    0.4059   -2.7630 C   0  0  0  0  0  0  0  0  0  0  0  0
   -0.5186    1.4483   -3.0990 H   0  0  0  0  0  0  0  0  0  0  0  0
    0.4985   -0.3225   -3.6847 C   0  0  0  0  0  0  0  0  0  0  0  0
    0.5893   -1.3746   -3.3968 H   0  0  0  0  0  0  0  0  0  0  0  0
    0.1545   -0.2750   -4.7228 H   0  0  0  0  0  0  0  0  0  0  0  0
    1.4894    0.1393   -3.6317 H   0  0  0  0  0  0  0  0  0  0  0  0
   -1.9057   -0.1434   -2.9512 C   0  0  0  0  0  0  0  0  0  0  0  0
   -2.5759    0.2524   -2.1819 H   0  0  0  0  0  0  0  0  0  0  0  0
   -2.2929    0.1611   -3.9286 H   0  0  0  0  0  0  0  0  0  0  0  0
   -1.9170   -1.2366   -2.9185 H   0  0  0  0  0  0  0  0  0  0  0  0
    0.5344   -0.4540    0.9879 C   0  0  0  0  0  0  0  0  0  0  0  0
    1.7327   -0.3836    1.2279 O   0  0  0  0  0  0  0  0  0  0  0  0
   -0.3648    0.0630    1.9037 N   0  0  0  0  0  0  0  0  0  0  0  0
   -1.3470   -0.0895    1.7007 H   0  0  0  0  0  0  0  0  0  0  0  0
    0.0202    0.4578    3.2527 C   0  0  0  0  0  0  0  0  0  0  0  0
    0.7944    1.2316    3.2199 H   0  0  0  0  0  0  0  0  0  0  0  0
   -0.8438    0.8590    3.7907 H   0  0  0  0  0  0  0  0  0  0  0  0
    0.4065   -0.4040    3.8069 H   0  0  0  0  0  0  0  0  0  0  0  0
  1  2  1  0  0  0  0
  2  3  1  0  0  0  0
  2  4  1  0  0  0  0
  2  5  1  0  0  0  0
  5  6  2  0  0  0  0
  5  7  1  0  0  0  0
  7  8  1  0  0  0  0
  7  9  1  0  0  0  0
  9 10  1  0  0  0  0
  9 11  1  0  0  0  0
  9 24  1  0  0  0  0
 11 12  1  0  0  0  0
 11 13  1  0  0  0  0
 11 14  1  0  0  0  0
 14 15  1  0  0  0  0
 14 16  1  0  0  0  0
 14 20  1  0  0  0  0
 16 17  1  0  0  0  0
 16 18  1  0  0  0  0
 16 19  1  0  0  0  0
 20 21  1  0  0  0  0
 20 22  1  0  0  0  0
 20 23  1  0  0  0  0
 24 25  2  0  0  0  0
 24 26  1  0  0  0  0
 26 27  1  0  0  0  0
 26 28  1  0  0  0  0
 28 29  1  0  0  0  0
 28 30  1  0  0  0  0
 28 31  1  0  0  0  0
M  END
$$$$

  -OEChem-04042216013D

 31 30  0     1  0  0  0  0  0999 V2000
   -2.7574   -4.4399    0.3871 H   0  0  0  0  0  0  0  0  0  0  0  0
   -2.7560   -3.4733   -0.1250 C   0  0  0  0  0  0  0  0  0  0  0  0
   -3.5735   -2.8652    0.2698 H   0  0  0  0  0  0  0  0  0  0  0  0
   -2.9174   -3.6417   -1.1925 H   0  0  0  0  0  0  0  0  0  0  0  0
   -1.4301   -2.7694    0.0950 C   0  0  0  0  0  0  0  0  0  0  0  0
   -0.5773   -3.2868    0.7931 O   0  0  0  0  0  0  0  0  0  0  0  0
   -1.2028   -1.5413   -0.4934 N   0  0  0  0  0  0  0  0  0  0  0  0
   -1.9254   -1.1885   -1.1116 H   0  0  0  0  0  0  0  0  0  0  0  0
    0.0736   -0.8097   -0.4372 C   0  0  1  0  0  0  0  0  0  0  0  0
    0.8379   -1.4800   -0.8460 H   0  0  0  0  0  0  0  0  0  0  0  0
    0.0763    0.4716   -1.3072 C   0  0  0  0  0  0  0  0  0  0  0  0
   -0.4847    1.2449   -0.7720 H   0  0  0  0  0  0  0  0  0  0  0  0
    1.1119    0.8239   -1.3733 H   0  0  0  0  0  0  0  0  0  0  0  0
   -0.4986    0.3969   -2.7456 C   0  0  0  0  0  0  0  0  0  0  0  0
   -0.3203    1.3844   -3.1856 H   0  0  0  0  0  0  0  0  0  0  0  0
    0.2723   -0.6222   -3.5923 C   0  0  0  0  0  0  0  0  0  0  0  0
    0.1157   -1.6389   -3.2191 H   0  0  0  0  0  0  0  0  0  0  0  0
   -0.0626   -0.5810   -4.6334 H   0  0  0  0  0  0  0  0  0  0  0  0
    1.3448   -0.4047   -3.5680 H   0  0  0  0  0  0  0  0  0  0  0  0
   -2.0120    0.1514   -2.8448 C   0  0  0  0  0  0  0  0  0  0  0  0
   -2.5439    0.6937   -2.0569 H   0  0  0  0  0  0  0  0  0  0  0  0
   -2.3796    0.5080   -3.8122 H   0  0  0  0  0  0  0  0  0  0  0  0
   -2.2530   -0.9128   -2.7751 H   0  0  0  0  0  0  0  0  0  0  0  0
    0.5421   -0.4540    0.9913 C   0  0  0  0  0  0  0  0  0  0  0  0
    1.7395   -0.3915    1.2382 O   0  0  0  0  0  0  0  0  0  0  0  0
   -0.3597    0.0629    1.9044 N   0  0  0  0  0  0  0  0  0  0  0  0
   -1.3410   -0.0880    1.6968 H   0  0  0  0  0  0  0  0  0  0  0  0
    0.0199    0.4419    3.2594 C   0  0  0  0  0  0  0  0  0  0  0  0
    0.7959    1.2143    3.2387 H   0  0  0  0  0  0  0  0  0  0  0  0
   -0.8458    0.8390    3.7977 H   0  0  0  0  0  0  0  0  0  0  0  0
    0.4014   -0.4268    3.8062 H   0  0  0  0  0  0  0  0  0  0  0  0
  1  2  1  0  0  0  0
  2  3  1  0  0  0  0
  2  4  1  0  0  0  0
  2  5  1  0  0  0  0
  5  6  2  0  0  0  0
  5  7  1  0  0  0  0
  7  8  1  0  0  0  0
  7  9  1  0  0  0  0
  9 10  1  0  0  0  0
  9 11  1  0  0  0  0
  9 24  1  0  0  0  0
 11 12  1  0  0  0  0
 11 13  1  0  0  0  0
 11 14  1  0  0  0  0
 14 15  1  0  0  0  0
 14 16  1  0  0  0  0
 14 20  1  0  0  0  0
 16 17  1  0  0  0  0
 16 18  1  0  0  0  0
 16 19  1  0  0  0  0
 20 21  1  0  0  0  0
 20 22  1  0  0  0  0
 20 23  1  0  0  0  0
 24 25  2  0  0  0  0
 24 26  1  0  0  0  0
 26 27  1  0  0  0  0
 26 28  1  0  0  0  0
 28 29  1  0  0  0  0
 28 30  1  0  0  0  0
 28 31  1  0  0  0  0
M  END
$$$$

  -OEChem-04042216013D

 31 30  0     1  0  0  0  0  0999 V2000
   -2.7620   -4.4415    0.3354 H   0  0  0  0  0  0  0  0  0  0  0  0
   -2.7546   -3.4714   -0.1698 C   0  0  0  0  0  0  0  0  0  0  0  0
   -3.5880   -2.8730    0.2057 H   0  0  0  0  0  0  0  0  0  0  0  0
   -2.8841   -3.6340   -1.2425 H   0  0  0  0  0  0  0  0  0  0  0  0
   -1.4419   -2.7576    0.0925 C   0  0  0  0  0  0  0  0  0  0  0  0
   -0.6073   -3.2692    0.8164 O   0  0  0  0  0  0  0  0  0  0  0  0
   -1.2045   -1.5302   -0.4935 N   0  0  0  0  0  0  0  0  0  0  0  0
   -1.9012   -1.1977   -1.1507 H   0  0  0  0  0  0  0  0  0  0  0  0
    0.0789   -0.8098   -0.4299 C   0  0  1  0  0  0  0  0  0  0  0  0
    0.8410   -1.4811   -0.8409 H   0  0  0  0  0  0  0  0  0  0  0  0
    0.0766    0.4749   -1.2934 C   0  0  0  0  0  0  0  0  0  0  0  0
   -0.4604    1.2596   -0.7500 H   0  0  0  0  0  0  0  0  0  0  0  0
    1.1173    0.8074   -1.3762 H   0  0  0  0  0  0  0  0  0  0  0  0
   -0.5081    0.3984   -2.7282 C   0  0  0  0  0  0  0  0  0  0  0  0
   -0.1252    1.2786   -3.2564 H   0  0  0  0  0  0  0  0  0  0  0  0
   -0.0262   -0.8410   -3.4950 C   0  0  0  0  0  0  0  0  0  0  0  0
   -0.4425   -1.7598   -3.0730 H   0  0  0  0  0  0  0  0  0  0  0  0
   -0.3330   -0.7776   -4.5437 H   0  0  0  0  0  0  0  0  0  0  0  0
    1.0659   -0.9066   -3.4612 H   0  0  0  0  0  0  0  0  0  0  0  0
   -2.0411    0.4974   -2.7796 C   0  0  0  0  0  0  0  0  0  0  0  0
   -2.3963    1.3057   -2.1331 H   0  0  0  0  0  0  0  0  0  0  0  0
   -2.3609    0.7160   -3.8034 H   0  0  0  0  0  0  0  0  0  0  0  0
   -2.5224   -0.4340   -2.4752 H   0  0  0  0  0  0  0  0  0  0  0  0
    0.5469   -0.4599    1.0001 C   0  0  0  0  0  0  0  0  0  0  0  0
    1.7441   -0.4080    1.2508 O   0  0  0  0  0  0  0  0  0  0  0  0
   -0.3534    0.0640    1.9105 N   0  0  0  0  0  0  0  0  0  0  0  0
   -1.3354   -0.0761    1.6978 H   0  0  0  0  0  0  0  0  0  0  0  0
    0.0241    0.4406    3.2666 C   0  0  0  0  0  0  0  0  0  0  0  0
    0.7995    1.2137    3.2482 H   0  0  0  0  0  0  0  0  0  0  0  0
   -0.8428    0.8357    3.8044 H   0  0  0  0  0  0  0  0  0  0  0  0
    0.4061   -0.4288    3.8122 H   0  0  0  0  0  0  0  0  0  0  0  0
  1  2  1  0  0  0  0
  2  3  1  0  0  0  0
  2  4  1  0  0  0  0
  2  5  1  0  0  0  0
  5  6  2  0  0  0  0
  5  7  1  0  0  0  0
  7  8  1  0  0  0  0
  7  9  1  0  0  0  0
  9 10  1  0  0  0  0
  9 11  1  0  0  0  0
  9 24  1  0  0  0  0
 11 12  1  0  0  0  0
 11 13  1  0  0  0  0
 11 14  1  0  0  0  0
 14 15  1  0  0  0  0
 14 16  1  0  0  0  0
 14 20  1  0  0  0  0
 16 17  1  0  0  0  0
 16 18  1  0  0  0  0
 16 19  1  0  0  0  0
 20 21  1  0  0  0  0
 20 22  1  0  0  0  0
 20 23  1  0  0  0  0
 24 25  2  0  0  0  0
 24 26  1  0  0  0  0
 26 27  1  0  0  0  0
 26 28  1  0  0  0  0
 28 29  1  0  0  0  0
 28 30  1  0  0  0  0
 28 31  1  0  0  0  0
M  END
$$$$

  -OEChem-04042216013D

 31 30  0     1  0  0  0  0  0999 V2000
   -2.7747   -4.4361    0.3044 H   0  0  0  0  0  0  0  0  0  0  0  0
   -2.7567   -3.4668   -0.2025 C   0  0  0  0  0  0  0  0  0  0  0  0
   -3.6010   -2.8695    0.1499 H   0  0  0  0  0  0  0  0  0  0  0  0
   -2.8582   -3.6315   -1.2780 H   0  0  0  0  0  0  0  0  0  0  0  0
   -1.4535   -2.7483    0.0929 C   0  0  0  0  0  0  0  0  0  0  0  0
   -0.6393   -3.2529    0.8443 O   0  0  0  0  0  0  0  0  0  0  0  0
   -1.2032   -1.5234   -0.4929 N   0  0  0  0  0  0  0  0  0  0  0  0
   -1.8717   -1.2099   -1.1895 H   0  0  0  0  0  0  0  0  0  0  0  0
    0.0851   -0.8113   -0.4191 C   0  0  1  0  0  0  0  0  0  0  0  0
    0.8476   -1.4834   -0.8282 H   0  0  0  0  0  0  0  0  0  0  0  0
    0.0771    0.4720   -1.2835 C   0  0  0  0  0  0  0  0  0  0  0  0
   -0.4508    1.2586   -0.7339 H   0  0  0  0  0  0  0  0  0  0  0  0
    1.1192    0.7998   -1.3683 H   0  0  0  0  0  0  0  0  0  0  0  0
   -0.5060    0.4028   -2.7233 C   0  0  0  0  0  0  0  0  0  0  0  0
    0.0447    1.1372   -3.3216 H   0  0  0  0  0  0  0  0  0  0  0  0
   -0.3548   -0.9616   -3.4175 C   0  0  0  0  0  0  0  0  0  0  0  0
   -1.0463   -1.7076   -3.0195 H   0  0  0  0  0  0  0  0  0  0  0  0
   -0.5603   -0.8567   -4.4874 H   0  0  0  0  0  0  0  0  0  0  0  0
    0.6683   -1.3336   -3.3044 H   0  0  0  0  0  0  0  0  0  0  0  0
   -1.9846    0.8183   -2.7422 C   0  0  0  0  0  0  0  0  0  0  0  0
   -2.1005    1.8309   -2.3429 H   0  0  0  0  0  0  0  0  0  0  0  0
   -2.3652    0.8136   -3.7686 H   0  0  0  0  0  0  0  0  0  0  0  0
   -2.5982    0.1387   -2.1454 H   0  0  0  0  0  0  0  0  0  0  0  0
    0.5467   -0.4611    1.0133 C   0  0  0  0  0  0  0  0  0  0  0  0
    1.7430   -0.4183    1.2699 O   0  0  0  0  0  0  0  0  0  0  0  0
   -0.3544    0.0715    1.9181 N   0  0  0  0  0  0  0  0  0  0  0  0
   -1.3361   -0.0650    1.7014 H   0  0  0  0  0  0  0  0  0  0  0  0
    0.0186    0.4474    3.2760 C   0  0  0  0  0  0  0  0  0  0  0  0
    0.8074    1.2067    3.2612 H   0  0  0  0  0  0  0  0  0  0  0  0
   -0.8455    0.8603    3.8048 H   0  0  0  0  0  0  0  0  0  0  0  0
    0.3812   -0.4260    3.8283 H   0  0  0  0  0  0  0  0  0  0  0  0
  1  2  1  0  0  0  0
  2  3  1  0  0  0  0
  2  4  1  0  0  0  0
  2  5  1  0  0  0  0
  5  6  2  0  0  0  0
  5  7  1  0  0  0  0
  7  8  1  0  0  0  0
  7  9  1  0  0  0  0
  9 10  1  0  0  0  0
  9 11  1  0  0  0  0
  9 24  1  0  0  0  0
 11 12  1  0  0  0  0
 11 13  1  0  0  0  0
 11 14  1  0  0  0  0
 14 15  1  0  0  0  0
 14 16  1  0  0  0  0
 14 20  1  0  0  0  0
 16 17  1  0  0  0  0
 16 18  1  0  0  0  0
 16 19  1  0  0  0  0
 20 21  1  0  0  0  0
 20 22  1  0  0  0  0
 20 23  1  0  0  0  0
 24 25  2  0  0  0  0
 24 26  1  0  0  0  0
 26 27  1  0  0  0  0
 26 28  1  0  0  0  0
 28 29  1  0  0  0  0
 28 30  1  0  0  0  0
 28 31  1  0  0  0  0
M  END
$$$$

  -OEChem-04042216013D

 31 30  0     1  0  0  0  0  0999 V2000
   -2.7658   -4.4447    0.3603 H   0  0  0  0  0  0  0  0  0  0  0  0
   -2.7547   -3.4785   -0.1521 C   0  0  0  0  0  0  0  0  0  0  0  0
   -3.5895   -2.8766    0.2145 H   0  0  0  0  0  0  0  0  0  0  0  0
   -2.8788   -3.6488   -1.2242 H   0  0  0  0  0  0  0  0  0  0  0  0
   -1.4428   -2.7636    0.1118 C   0  0  0  0  0  0  0  0  0  0  0  0
   -0.6138   -3.2687    0.8466 O   0  0  0  0  0  0  0  0  0  0  0  0
   -1.2023   -1.5393   -0.4797 N   0  0  0  0  0  0  0  0  0  0  0  0
   -1.8935   -1.2106   -1.1469 H   0  0  0  0  0  0  0  0  0  0  0  0
    0.0799   -0.8161   -0.4128 C   0  0  1  0  0  0  0  0  0  0  0  0
    0.8458   -1.4860   -0.8186 H   0  0  0  0  0  0  0  0  0  0  0  0
    0.0698    0.4606   -1.2869 C   0  0  0  0  0  0  0  0  0  0  0  0
   -0.4597    1.2427   -0.7322 H   0  0  0  0  0  0  0  0  0  0  0  0
    1.1109    0.7935   -1.3634 H   0  0  0  0  0  0  0  0  0  0  0  0
   -0.5026    0.4071   -2.7371 C   0  0  0  0  0  0  0  0  0  0  0  0
    0.2083    0.9440   -3.3750 H   0  0  0  0  0  0  0  0  0  0  0  0
   -0.7008   -0.9875   -3.3575 C   0  0  0  0  0  0  0  0  0  0  0  0
   -1.5964   -1.4844   -2.9767 H   0  0  0  0  0  0  0  0  0  0  0  0
   -0.8144   -0.8939   -4.4421 H   0  0  0  0  0  0  0  0  0  0  0  0
    0.1701   -1.6213   -3.1647 H   0  0  0  0  0  0  0  0  0  0  0  0
   -1.8417    1.1546   -2.8011 C   0  0  0  0  0  0  0  0  0  0  0  0
   -1.7139    2.1959   -2.4888 H   0  0  0  0  0  0  0  0  0  0  0  0
   -2.2313    1.1536   -3.8241 H   0  0  0  0  0  0  0  0  0  0  0  0
   -2.5812    0.6832   -2.1465 H   0  0  0  0  0  0  0  0  0  0  0  0
    0.5406   -0.4560    1.0174 C   0  0  0  0  0  0  0  0  0  0  0  0
    1.7364   -0.4036    1.2736 O   0  0  0  0  0  0  0  0  0  0  0  0
   -0.3642    0.0724    1.9208 N   0  0  0  0  0  0  0  0  0  0  0  0
   -1.3447   -0.0730    1.7046 H   0  0  0  0  0  0  0  0  0  0  0  0
    0.0052    0.4466    3.2801 C   0  0  0  0  0  0  0  0  0  0  0  0
    0.7927    1.2075    3.2690 H   0  0  0  0  0  0  0  0  0  0  0  0
   -0.8608    0.8566    3.8082 H   0  0  0  0  0  0  0  0  0  0  0  0
    0.3675   -0.4275    3.8313 H   0  0  0  0  0  0  0  0  0  0  0  0
  1  2  1  0  0  0  0
  2  3  1  0  0  0  0
  2  4  1  0  0  0  0
  2  5  1  0  0  0  0
  5  6  2  0  0  0  0
  5  7  1  0  0  0  0
  7  8  1  0  0  0  0
  7  9  1  0  0  0  0
  9 10  1  0  0  0  0
  9 11  1  0  0  0  0
  9 24  1  0  0  0  0
 11 12  1  0  0  0  0
 11 13  1  0  0  0  0
 11 14  1  0  0  0  0
 14 15  1  0  0  0  0
 14 16  1  0  0  0  0
 14 20  1  0  0  0  0
 16 17  1  0  0  0  0
 16 18  1  0  0  0  0
 16 19  1  0  0  0  0
 20 21  1  0  0  0  0
 20 22  1  0  0  0  0
 20 23  1  0  0  0  0
 24 25  2  0  0  0  0
 24 26  1  0  0  0  0
 26 27  1  0  0  0  0
 26 28  1  0  0  0  0
 28 29  1  0  0  0  0
 28 30  1  0  0  0  0
 28 31  1  0  0  0  0
M  END
$$$$

  -OEChem-04042216013D

 31 30  0     1  0  0  0  0  0999 V2000
   -2.7347   -4.4796    0.4379 H   0  0  0  0  0  0  0  0  0  0  0  0
   -2.7431   -3.5180   -0.0834 C   0  0  0  0  0  0  0  0  0  0  0  0
   -3.5730   -2.9186    0.2981 H   0  0  0  0  0  0  0  0  0  0  0  0
   -2.8920   -3.6989   -1.1506 H   0  0  0  0  0  0  0  0  0  0  0  0
   -1.4300   -2.7920    0.1413 C   0  0  0  0  0  0  0  0  0  0  0  0
   -0.5741   -3.2924    0.8478 O   0  0  0  0  0  0  0  0  0  0  0  0
   -1.2164   -1.5655   -0.4559 N   0  0  0  0  0  0  0  0  0  0  0  0
   -1.9381   -1.2308   -1.0864 H   0  0  0  0  0  0  0  0  0  0  0  0
    0.0552   -0.8219   -0.4107 C   0  0  1  0  0  0  0  0  0  0  0  0
    0.8221   -1.4892   -0.8199 H   0  0  0  0  0  0  0  0  0  0  0  0
    0.0482    0.4513   -1.2935 C   0  0  0  0  0  0  0  0  0  0  0  0
   -0.5024    1.2161   -0.7353 H   0  0  0  0  0  0  0  0  0  0  0  0
    1.0834    0.8055   -1.3536 H   0  0  0  0  0  0  0  0  0  0  0  0
   -0.5163    0.4168   -2.7507 C   0  0  0  0  0  0  0  0  0  0  0  0
    0.3202    0.6864   -3.4054 H   0  0  0  0  0  0  0  0  0  0  0  0
   -1.0630   -0.9160   -3.2876 C   0  0  0  0  0  0  0  0  0  0  0  0
   -2.0384   -1.1547   -2.8553 H   0  0  0  0  0  0  0  0  0  0  0  0
   -1.1900   -0.8521   -4.3729 H   0  0  0  0  0  0  0  0  0  0  0  0
   -0.3638   -1.7323   -3.0806 H   0  0  0  0  0  0  0  0  0  0  0  0
   -1.6004    1.4895   -2.9220 C   0  0  0  0  0  0  0  0  0  0  0  0
   -1.2051    2.4768   -2.6624 H   0  0  0  0  0  0  0  0  0  0  0  0
   -1.9436    1.5237   -3.9609 H   0  0  0  0  0  0  0  0  0  0  0  0
   -2.4600    1.2773   -2.2785 H   0  0  0  0  0  0  0  0  0  0  0  0
    0.5269   -0.4539    1.0136 C   0  0  0  0  0  0  0  0  0  0  0  0
    1.7245   -0.3811    1.2563 O   0  0  0  0  0  0  0  0  0  0  0  0
   -0.3766    0.0603    1.9264 N   0  0  0  0  0  0  0  0  0  0  0  0
   -1.3574   -0.0971    1.7199 H   0  0  0  0  0  0  0  0  0  0  0  0
    0.0016    0.4435    3.2804 C   0  0  0  0  0  0  0  0  0  0  0  0
    0.7754    1.2182    3.2583 H   0  0  0  0  0  0  0  0  0  0  0  0
   -0.8654    0.8393    3.8175 H   0  0  0  0  0  0  0  0  0  0  0  0
    0.3857   -0.4231    3.8287 H   0  0  0  0  0  0  0  0  0  0  0  0
  1  2  1  0  0  0  0
  2  3  1  0  0  0  0
  2  4  1  0  0  0  0
  2  5  1  0  0  0  0
  5  6  2  0  0  0  0
  5  7  1  0  0  0  0
  7  8  1  0  0  0  0
  7  9  1  0  0  0  0
  9 10  1  0  0  0  0
  9 11  1  0  0  0  0
  9 24  1  0  0  0  0
 11 12  1  0  0  0  0
 11 13  1  0  0  0  0
 11 14  1  0  0  0  0
 14 15  1  0  0  0  0
 14 16  1  0  0  0  0
 14 20  1  0  0  0  0
 16 17  1  0  0  0  0
 16 18  1  0  0  0  0
 16 19  1  0  0  0  0
 20 21  1  0  0  0  0
 20 22  1  0  0  0  0
 20 23  1  0  0  0  0
 24 25  2  0  0  0  0
 24 26  1  0  0  0  0
 26 27  1  0  0  0  0
 26 28  1  0  0  0  0
 28 29  1  0  0  0  0
 28 30  1  0  0  0  0
 28 31  1  0  0  0  0
M  END
$$$$

  -OEChem-04042216013D

 31 30  0     1  0  0  0  0  0999 V2000
   -2.7132   -4.5028    0.4855 H   0  0  0  0  0  0  0  0  0  0  0  0
   -2.7368   -3.5429   -0.0388 C   0  0  0  0  0  0  0  0  0  0  0  0
   -3.5626   -2.9468    0.3569 H   0  0  0  0  0  0  0  0  0  0  0  0
   -2.9058   -3.7283   -1.1023 H   0  0  0  0  0  0  0  0  0  0  0  0
   -1.4241   -2.8081    0.1589 C   0  0  0  0  0  0  0  0  0  0  0  0
   -0.5514   -3.3007    0.8504 O   0  0  0  0  0  0  0  0  0  0  0  0
   -1.2314   -1.5807   -0.4436 N   0  0  0  0  0  0  0  0  0  0  0  0
   -1.9668   -1.2541   -1.0617 H   0  0  0  0  0  0  0  0  0  0  0  0
    0.0321   -0.8230   -0.4161 C   0  0  1  0  0  0  0  0  0  0  0  0
    0.7989   -1.4881   -0.8289 H   0  0  0  0  0  0  0  0  0  0  0  0
    0.0265    0.4496   -1.3030 C   0  0  0  0  0  0  0  0  0  0  0  0
   -0.5472    1.1972   -0.7445 H   0  0  0  0  0  0  0  0  0  0  0  0
    1.0553    0.8242   -1.3513 H   0  0  0  0  0  0  0  0  0  0  0  0
   -0.5351    0.4288   -2.7609 C   0  0  0  0  0  0  0  0  0  0  0  0
    0.3425    0.4124   -3.4167 H   0  0  0  0  0  0  0  0  0  0  0  0
   -1.4005   -0.7575   -3.2095 C   0  0  0  0  0  0  0  0  0  0  0  0
   -2.3584   -0.7695   -2.6821 H   0  0  0  0  0  0  0  0  0  0  0  0
   -1.6108   -0.6790   -4.2809 H   0  0  0  0  0  0  0  0  0  0  0  0
   -0.8770   -1.7043   -3.0445 H   0  0  0  0  0  0  0  0  0  0  0  0
   -1.2969    1.7309   -3.0414 C   0  0  0  0  0  0  0  0  0  0  0  0
   -0.6673    2.5973   -2.8145 H   0  0  0  0  0  0  0  0  0  0  0  0
   -1.5852    1.7865   -4.0959 H   0  0  0  0  0  0  0  0  0  0  0  0
   -2.2032    1.7882   -2.4302 H   0  0  0  0  0  0  0  0  0  0  0  0
    0.5143   -0.4482    1.0035 C   0  0  0  0  0  0  0  0  0  0  0  0
    1.7135   -0.3626    1.2339 O   0  0  0  0  0  0  0  0  0  0  0  0
   -0.3846    0.0567    1.9262 N   0  0  0  0  0  0  0  0  0  0  0  0
   -1.3658   -0.1106    1.7305 H   0  0  0  0  0  0  0  0  0  0  0  0
    0.0045    0.4447    3.2758 C   0  0  0  0  0  0  0  0  0  0  0  0
    0.7670    1.2302    3.2450 H   0  0  0  0  0  0  0  0  0  0  0  0
   -0.8616    0.8281    3.8235 H   0  0  0  0  0  0  0  0  0  0  0  0
    0.4071   -0.4167    3.8192 H   0  0  0  0  0  0  0  0  0  0  0  0
  1  2  1  0  0  0  0
  2  3  1  0  0  0  0
  2  4  1  0  0  0  0
  2  5  1  0  0  0  0
  5  6  2  0  0  0  0
  5  7  1  0  0  0  0
  7  8  1  0  0  0  0
  7  9  1  0  0  0  0
  9 10  1  0  0  0  0
  9 11  1  0  0  0  0
  9 24  1  0  0  0  0
 11 12  1  0  0  0  0
 11 13  1  0  0  0  0
 11 14  1  0  0  0  0
 14 15  1  0  0  0  0
 14 16  1  0  0  0  0
 14 20  1  0  0  0  0
 16 17  1  0  0  0  0
 16 18  1  0  0  0  0
 16 19  1  0  0  0  0
 20 21  1  0  0  0  0
 20 22  1  0  0  0  0
 20 23  1  0  0  0  0
 24 25  2  0  0  0  0
 24 26  1  0  0  0  0
 26 27  1  0  0  0  0
 26 28  1  0  0  0  0
 28 29  1  0  0  0  0
 28 30  1  0  0  0  0
 28 31  1  0  0  0  0
M  END
$$$$

  -OEChem-04042216013D

 31 30  0     1  0  0  0  0  0999 V2000
   -2.7097   -4.5091    0.4858 H   0  0  0  0  0  0  0  0  0  0  0  0
   -2.7388   -3.5498   -0.0389 C   0  0  0  0  0  0  0  0  0  0  0  0
   -3.5682   -2.9584    0.3560 H   0  0  0  0  0  0  0  0  0  0  0  0
   -2.9060   -3.7366   -1.1025 H   0  0  0  0  0  0  0  0  0  0  0  0
   -1.4301   -2.8077    0.1587 C   0  0  0  0  0  0  0  0  0  0  0  0
   -0.5554   -3.2955    0.8510 O   0  0  0  0  0  0  0  0  0  0  0  0
   -1.2435   -1.5799   -0.4456 N   0  0  0  0  0  0  0  0  0  0  0  0
   -1.9809   -1.2597   -1.0647 H   0  0  0  0  0  0  0  0  0  0  0  0
    0.0191   -0.8207   -0.4274 C   0  0  1  0  0  0  0  0  0  0  0  0
    0.7825   -1.4874   -0.8438 H   0  0  0  0  0  0  0  0  0  0  0  0
    0.0188    0.4549   -1.3117 C   0  0  0  0  0  0  0  0  0  0  0  0
   -0.5582    1.2011   -0.7548 H   0  0  0  0  0  0  0  0  0  0  0  0
    1.0481    0.8278   -1.3599 H   0  0  0  0  0  0  0  0  0  0  0  0
   -0.5459    0.4408   -2.7655 C   0  0  0  0  0  0  0  0  0  0  0  0
    0.2908    0.1594   -3.4146 H   0  0  0  0  0  0  0  0  0  0  0  0
   -1.6833   -0.5301   -3.1091 C   0  0  0  0  0  0  0  0  0  0  0  0
   -2.5541   -0.3514   -2.4709 H   0  0  0  0  0  0  0  0  0  0  0  0
   -1.9932   -0.3908   -4.1498 H   0  0  0  0  0  0  0  0  0  0  0  0
   -1.3531   -1.5678   -3.0046 H   0  0  0  0  0  0  0  0  0  0  0  0
   -0.9754    1.8632   -3.1495 C   0  0  0  0  0  0  0  0  0  0  0  0
   -0.1573    2.5693   -2.9744 H   0  0  0  0  0  0  0  0  0  0  0  0
   -1.2441    1.9097   -4.2097 H   0  0  0  0  0  0  0  0  0  0  0  0
   -1.8407    2.1795   -2.5583 H   0  0  0  0  0  0  0  0  0  0  0  0
    0.5090   -0.4462    0.9898 C   0  0  0  0  0  0  0  0  0  0  0  0
    1.7094   -0.3589    1.2132 O   0  0  0  0  0  0  0  0  0  0  0  0
   -0.3847    0.0570    1.9182 N   0  0  0  0  0  0  0  0  0  0  0  0
   -1.3672   -0.1085    1.7277 H   0  0  0  0  0  0  0  0  0  0  0  0
    0.0122    0.4526    3.2635 C   0  0  0  0  0  0  0  0  0  0  0  0
    0.7678    1.2444    3.2238 H   0  0  0  0  0  0  0  0  0  0  0  0
   -0.8525    0.8303    3.8172 H   0  0  0  0  0  0  0  0  0  0  0  0
    0.4266   -0.4033    3.8069 H   0  0  0  0  0  0  0  0  0  0  0  0
  1  2  1  0  0  0  0
  2  3  1  0  0  0  0
  2  4  1  0  0  0  0
  2  5  1  0  0  0  0
  5  6  2  0  0  0  0
  5  7  1  0  0  0  0
  7  8  1  0  0  0  0
  7  9  1  0  0  0  0
  9 10  1  0  0  0  0
  9 11  1  0  0  0  0
  9 24  1  0  0  0  0
 11 12  1  0  0  0  0
 11 13  1  0  0  0  0
 11 14  1  0  0  0  0
 14 15  1  0  0  0  0
 14 16  1  0  0  0  0
 14 20  1  0  0  0  0
 16 17  1  0  0  0  0
 16 18  1  0  0  0  0
 16 19  1  0  0  0  0
 20 21  1  0  0  0  0
 20 22  1  0  0  0  0
 20 23  1  0  0  0  0
 24 25  2  0  0  0  0
 24 26  1  0  0  0  0
 26 27  1  0  0  0  0
 26 28  1  0  0  0  0
 28 29  1  0  0  0  0
 28 30  1  0  0  0  0
 28 31  1  0  0  0  0
M  END
$$$$

  -OEChem-04042216013D

 31 30  0     1  0  0  0  0  0999 V2000
   -2.7250   -4.4827    0.4593 H   0  0  0  0  0  0  0  0  0  0  0  0
   -2.7490   -3.5200   -0.0592 C   0  0  0  0  0  0  0  0  0  0  0  0
   -3.5689   -2.9227    0.3462 H   0  0  0  0  0  0  0  0  0  0  0  0
   -2.9263   -3.6984   -1.1224 H   0  0  0  0  0  0  0  0  0  0  0  0
   -1.4323   -2.7916    0.1320 C   0  0  0  0  0  0  0  0  0  0  0  0
   -0.5559   -3.2912    0.8134 O   0  0  0  0  0  0  0  0  0  0  0  0
   -1.2412   -1.5616   -0.4656 N   0  0  0  0  0  0  0  0  0  0  0  0
   -1.9836   -1.2284   -1.0719 H   0  0  0  0  0  0  0  0  0  0  0  0
    0.0229   -0.8065   -0.4431 C   0  0  1  0  0  0  0  0  0  0  0  0
    0.7852   -1.4723   -0.8629 H   0  0  0  0  0  0  0  0  0  0  0  0
    0.0238    0.4728   -1.3205 C   0  0  0  0  0  0  0  0  0  0  0  0
   -0.5472    1.2272   -0.7687 H   0  0  0  0  0  0  0  0  0  0  0  0
    1.0566    0.8348   -1.3754 H   0  0  0  0  0  0  0  0  0  0  0  0
   -0.5473    0.4438   -2.7680 C   0  0  0  0  0  0  0  0  0  0  0  0
    0.1895   -0.0735   -3.3923 H   0  0  0  0  0  0  0  0  0  0  0  0
   -1.8906   -0.2650   -2.9962 C   0  0  0  0  0  0  0  0  0  0  0  0
   -2.6335    0.0685   -2.2651 H   0  0  0  0  0  0  0  0  0  0  0  0
   -2.2728   -0.0410   -3.9973 H   0  0  0  0  0  0  0  0  0  0  0  0
   -1.7734   -1.3504   -2.9342 H   0  0  0  0  0  0  0  0  0  0  0  0
   -0.6589    1.8891   -3.2721 C   0  0  0  0  0  0  0  0  0  0  0  0
    0.3014    2.4048   -3.1707 H   0  0  0  0  0  0  0  0  0  0  0  0
   -0.9431    1.9067   -4.3291 H   0  0  0  0  0  0  0  0  0  0  0  0
   -1.4125    2.4411   -2.7011 H   0  0  0  0  0  0  0  0  0  0  0  0
    0.5122   -0.4413    0.9767 C   0  0  0  0  0  0  0  0  0  0  0  0
    1.7125   -0.3617    1.2031 O   0  0  0  0  0  0  0  0  0  0  0  0
   -0.3818    0.0593    1.9063 N   0  0  0  0  0  0  0  0  0  0  0  0
   -1.3643   -0.1025    1.7127 H   0  0  0  0  0  0  0  0  0  0  0  0
    0.0135    0.4442    3.2551 C   0  0  0  0  0  0  0  0  0  0  0  0
    0.7790    1.2267    3.2223 H   0  0  0  0  0  0  0  0  0  0  0  0
   -0.8491    0.8304    3.8061 H   0  0  0  0  0  0  0  0  0  0  0  0
    0.4149   -0.4193    3.7960 H   0  0  0  0  0  0  0  0  0  0  0  0
  1  2  1  0  0  0  0
  2  3  1  0  0  0  0
  2  4  1  0  0  0  0
  2  5  1  0  0  0  0
  5  6  2  0  0  0  0
  5  7  1  0  0  0  0
  7  8  1  0  0  0  0
  7  9  1  0  0  0  0
  9 10  1  0  0  0  0
  9 11  1  0  0  0  0
  9 24  1  0  0  0  0
 11 12  1  0  0  0  0
 11 13  1  0  0  0  0
 11 14  1  0  0  0  0
 14 15  1  0  0  0  0
 14 16  1  0  0  0  0
 14 20  1  0  0  0  0
 16 17  1  0  0  0  0
 16 18  1  0  0  0  0
 16 19  1  0  0  0  0
 20 21  1  0  0  0  0
 20 22  1  0  0  0  0
 20 23  1  0  0  0  0
 24 25  2  0  0  0  0
 24 26  1  0  0  0  0
 26 27  1  0  0  0  0
 26 28  1  0  0  0  0
 28 29  1  0  0  0  0
 28 30  1  0  0  0  0
 28 31  1  0  0  0  0
M  END
$$$$

  -OEChem-04042216013D

 31 30  0     1  0  0  0  0  0999 V2000
   -2.7589   -4.4390    0.4146 H   0  0  0  0  0  0  0  0  0  0  0  0
   -2.7701   -3.4732   -0.0988 C   0  0  0  0  0  0  0  0  0  0  0  0
   -3.5768   -2.8641    0.3158 H   0  0  0  0  0  0  0  0  0  0  0  0
   -2.9586   -3.6429   -1.1617 H   0  0  0  0  0  0  0  0  0  0  0  0
   -1.4394   -2.7686    0.0867 C   0  0  0  0  0  0  0  0  0  0  0  0
   -0.5656   -3.2886    0.7565 O   0  0  0  0  0  0  0  0  0  0  0  0
   -1.2335   -1.5345   -0.4977 N   0  0  0  0  0  0  0  0  0  0  0  0
   -1.9820   -1.1711   -1.0782 H   0  0  0  0  0  0  0  0  0  0  0  0
    0.0355   -0.7890   -0.4578 C   0  0  1  0  0  0  0  0  0  0  0  0
    0.7970   -1.4541   -0.8805 H   0  0  0  0  0  0  0  0  0  0  0  0
    0.0391    0.4957   -1.3233 C   0  0  0  0  0  0  0  0  0  0  0  0
   -0.5210    1.2633   -0.7782 H   0  0  0  0  0  0  0  0  0  0  0  0
    1.0773    0.8418   -1.3846 H   0  0  0  0  0  0  0  0  0  0  0  0
   -0.5378    0.4359   -2.7640 C   0  0  0  0  0  0  0  0  0  0  0  0
    0.0552   -0.2856   -3.3366 H   0  0  0  0  0  0  0  0  0  0  0  0
   -2.0163    0.0302   -2.8874 C   0  0  0  0  0  0  0  0  0  0  0  0
   -2.6146    0.5066   -2.1045 H   0  0  0  0  0  0  0  0  0  0  0  0
   -2.4181    0.3358   -3.8588 H   0  0  0  0  0  0  0  0  0  0  0  0
   -2.1304   -1.0550   -2.8245 H   0  0  0  0  0  0  0  0  0  0  0  0
   -0.3526    1.8167   -3.4090 C   0  0  0  0  0  0  0  0  0  0  0  0
    0.6991    2.1187   -3.3748 H   0  0  0  0  0  0  0  0  0  0  0  0
   -0.6634    1.7954   -4.4583 H   0  0  0  0  0  0  0  0  0  0  0  0
   -0.9482    2.5713   -2.8850 H   0  0  0  0  0  0  0  0  0  0  0  0
    0.5189   -0.4384    0.9674 C   0  0  0  0  0  0  0  0  0  0  0  0
    1.7185   -0.3665    1.2000 O   0  0  0  0  0  0  0  0  0  0  0  0
   -0.3761    0.0615    1.8966 N   0  0  0  0  0  0  0  0  0  0  0  0
   -1.3592   -0.0898    1.6970 H   0  0  0  0  0  0  0  0  0  0  0  0
    0.0161    0.4307    3.2508 C   0  0  0  0  0  0  0  0  0  0  0  0
    0.7876    1.2076    3.2290 H   0  0  0  0  0  0  0  0  0  0  0  0
   -0.8459    0.8182    3.8018 H   0  0  0  0  0  0  0  0  0  0  0  0
    0.4087   -0.4407    3.7854 H   0  0  0  0  0  0  0  0  0  0  0  0
  1  2  1  0  0  0  0
  2  3  1  0  0  0  0
  2  4  1  0  0  0  0
  2  5  1  0  0  0  0
  5  6  2  0  0  0  0
  5  7  1  0  0  0  0
  7  8  1  0  0  0  0
  7  9  1  0  0  0  0
  9 10  1  0  0  0  0
  9 11  1  0  0  0  0
  9 24  1  0  0  0  0
 11 12  1  0  0  0  0
 11 13  1  0  0  0  0
 11 14  1  0  0  0  0
 14 15  1  0  0  0  0
 14 16  1  0  0  0  0
 14 20  1  0  0  0  0
 16 17  1  0  0  0  0
 16 18  1  0  0  0  0
 16 19  1  0  0  0  0
 20 21  1  0  0  0  0
 20 22  1  0  0  0  0
 20 23  1  0  0  0  0
 24 25  2  0  0  0  0
 24 26  1  0  0  0  0
 26 27  1  0  0  0  0
 26 28  1  0  0  0  0
 28 29  1  0  0  0  0
 28 30  1  0  0  0  0
 28 31  1  0  0  0  0
M  END
$$$$

  -OEChem-04042216013D

 31 30  0     1  0  0  0  0  0999 V2000
   -2.7881   -4.3985    0.3461 H   0  0  0  0  0  0  0  0  0  0  0  0
   -2.7866   -3.4254   -0.1535 C   0  0  0  0  0  0  0  0  0  0  0  0
   -3.5850   -2.8116    0.2703 H   0  0  0  0  0  0  0  0  0  0  0  0
   -2.9776   -3.5772   -1.2186 H   0  0  0  0  0  0  0  0  0  0  0  0
   -1.4463   -2.7420    0.0407 C   0  0  0  0  0  0  0  0  0  0  0  0
   -0.5782   -3.2849    0.6995 O   0  0  0  0  0  0  0  0  0  0  0  0
   -1.2220   -1.5038   -0.5279 N   0  0  0  0  0  0  0  0  0  0  0  0
   -1.9711   -1.1113   -1.0873 H   0  0  0  0  0  0  0  0  0  0  0  0
    0.0542   -0.7730   -0.4662 C   0  0  1  0  0  0  0  0  0  0  0  0
    0.8143   -1.4378   -0.8921 H   0  0  0  0  0  0  0  0  0  0  0  0
    0.0574    0.5173   -1.3182 C   0  0  0  0  0  0  0  0  0  0  0  0
   -0.4887    1.2974   -0.7770 H   0  0  0  0  0  0  0  0  0  0  0  0
    1.0998    0.8486   -1.3866 H   0  0  0  0  0  0  0  0  0  0  0  0
   -0.5286    0.4220   -2.7514 C   0  0  0  0  0  0  0  0  0  0  0  0
   -0.1164   -0.4657   -3.2436 H   0  0  0  0  0  0  0  0  0  0  0  0
   -2.0662    0.3520   -2.8135 C   0  0  0  0  0  0  0  0  0  0  0  0
   -2.5156    1.0390   -2.0894 H   0  0  0  0  0  0  0  0  0  0  0  0
   -2.4212    0.6277   -3.8117 H   0  0  0  0  0  0  0  0  0  0  0  0
   -2.4268   -0.6601   -2.6199 H   0  0  0  0  0  0  0  0  0  0  0  0
   -0.0708    1.6573   -3.5405 C   0  0  0  0  0  0  0  0  0  0  0  0
    1.0220    1.7166   -3.5617 H   0  0  0  0  0  0  0  0  0  0  0  0
   -0.4247    1.6064   -4.5750 H   0  0  0  0  0  0  0  0  0  0  0  0
   -0.4601    2.5730   -3.0839 H   0  0  0  0  0  0  0  0  0  0  0  0
    0.5301   -0.4414    0.9656 C   0  0  0  0  0  0  0  0  0  0  0  0
    1.7284   -0.3866    1.2093 O   0  0  0  0  0  0  0  0  0  0  0  0
   -0.3670    0.0598    1.8921 N   0  0  0  0  0  0  0  0  0  0  0  0
   -1.3502   -0.0729    1.6814 H   0  0  0  0  0  0  0  0  0  0  0  0
    0.0177    0.4166    3.2517 C   0  0  0  0  0  0  0  0  0  0  0  0
    0.7908    1.1921    3.2410 H   0  0  0  0  0  0  0  0  0  0  0  0
   -0.8468    0.8010    3.8010 H   0  0  0  0  0  0  0  0  0  0  0  0
    0.4056   -0.4602    3.7811 H   0  0  0  0  0  0  0  0  0  0  0  0
  1  2  1  0  0  0  0
  2  3  1  0  0  0  0
  2  4  1  0  0  0  0
  2  5  1  0  0  0  0
  5  6  2  0  0  0  0
  5  7  1  0  0  0  0
  7  8  1  0  0  0  0
  7  9  1  0  0  0  0
  9 10  1  0  0  0  0
  9 11  1  0  0  0  0
  9 24  1  0  0  0  0
 11 12  1  0  0  0  0
 11 13  1  0  0  0  0
 11 14  1  0  0  0  0
 14 15  1  0  0  0  0
 14 16  1  0  0  0  0
 14 20  1  0  0  0  0
 16 17  1  0  0  0  0
 16 18  1  0  0  0  0
 16 19  1  0  0  0  0
 20 21  1  0  0  0  0
 20 22  1  0  0  0  0
 20 23  1  0  0  0  0
 24 25  2  0  0  0  0
 24 26  1  0  0  0  0
 26 27  1  0  0  0  0
 26 28  1  0  0  0  0
 28 29  1  0  0  0  0
 28 30  1  0  0  0  0
 28 31  1  0  0  0  0
M  END
$$$$

  -OEChem-04042216013D

 31 30  0     1  0  0  0  0  0999 V2000
   -2.7985   -4.3963    0.2160 H   0  0  0  0  0  0  0  0  0  0  0  0
   -2.7827   -3.4187   -0.2742 C   0  0  0  0  0  0  0  0  0  0  0  0
   -3.6261   -2.8282    0.0911 H   0  0  0  0  0  0  0  0  0  0  0  0
   -2.8870   -3.5655   -1.3518 H   0  0  0  0  0  0  0  0  0  0  0  0
   -1.4791   -2.7046    0.0290 C   0  0  0  0  0  0  0  0  0  0  0  0
   -0.6627   -3.2225    0.7690 O   0  0  0  0  0  0  0  0  0  0  0  0
   -1.2309   -1.4696   -0.5372 N   0  0  0  0  0  0  0  0  0  0  0  0
   -1.8998   -1.1515   -1.2296 H   0  0  0  0  0  0  0  0  0  0  0  0
    0.0615   -0.7657   -0.4615 C   0  0  1  0  0  0  0  0  0  0  0  0
    0.8138   -1.4365   -0.8914 H   0  0  0  0  0  0  0  0  0  0  0  0
    0.0732    0.5355   -1.2963 C   0  0  0  0  0  0  0  0  0  0  0  0
   -0.4584    1.3219   -0.7501 H   0  0  0  0  0  0  0  0  0  0  0  0
    1.1182    0.8559   -1.3731 H   0  0  0  0  0  0  0  0  0  0  0  0
   -0.5325    0.4205   -2.7173 C   0  0  0  0  0  0  0  0  0  0  0  0
   -0.3590   -0.5913   -3.0997 H   0  0  0  0  0  0  0  0  0  0  0  0
   -2.0423    0.7213   -2.7484 C   0  0  0  0  0  0  0  0  0  0  0  0
   -2.2360    1.7379   -2.3911 H   0  0  0  0  0  0  0  0  0  0  0  0
   -2.4192    0.6400   -3.7729 H   0  0  0  0  0  0  0  0  0  0  0  0
   -2.6140    0.0290   -2.1293 H   0  0  0  0  0  0  0  0  0  0  0  0
    0.1734    1.4084   -3.6554 C   0  0  0  0  0  0  0  0  0  0  0  0
    1.2440    1.1866   -3.7098 H   0  0  0  0  0  0  0  0  0  0  0  0
   -0.2388    1.3382   -4.6668 H   0  0  0  0  0  0  0  0  0  0  0  0
    0.0489    2.4362   -3.2992 H   0  0  0  0  0  0  0  0  0  0  0  0
    0.5371   -0.4454    0.9732 C   0  0  0  0  0  0  0  0  0  0  0  0
    1.7357   -0.4152    1.2203 O   0  0  0  0  0  0  0  0  0  0  0  0
   -0.3533    0.0743    1.8957 N   0  0  0  0  0  0  0  0  0  0  0  0
   -1.3376   -0.0519    1.6847 H   0  0  0  0  0  0  0  0  0  0  0  0
    0.0336    0.4189    3.2578 C   0  0  0  0  0  0  0  0  0  0  0  0
    0.8157    1.1854    3.2518 H   0  0  0  0  0  0  0  0  0  0  0  0
   -0.8274    0.8100    3.8079 H   0  0  0  0  0  0  0  0  0  0  0  0
    0.4102   -0.4651    3.7830 H   0  0  0  0  0  0  0  0  0  0  0  0
  1  2  1  0  0  0  0
  2  3  1  0  0  0  0
  2  4  1  0  0  0  0
  2  5  1  0  0  0  0
  5  6  2  0  0  0  0
  5  7  1  0  0  0  0
  7  8  1  0  0  0  0
  7  9  1  0  0  0  0
  9 10  1  0  0  0  0
  9 11  1  0  0  0  0
  9 24  1  0  0  0  0
 11 12  1  0  0  0  0
 11 13  1  0  0  0  0
 11 14  1  0  0  0  0
 14 15  1  0  0  0  0
 14 16  1  0  0  0  0
 14 20  1  0  0  0  0
 16 17  1  0  0  0  0
 16 18  1  0  0  0  0
 16 19  1  0  0  0  0
 20 21  1  0  0  0  0
 20 22  1  0  0  0  0
 20 23  1  0  0  0  0
 24 25  2  0  0  0  0
 24 26  1  0  0  0  0
 26 27  1  0  0  0  0
 26 28  1  0  0  0  0
 28 29  1  0  0  0  0
 28 30  1  0  0  0  0
 28 31  1  0  0  0  0
M  END
$$$$

  -OEChem-04042216013D

 31 30  0     1  0  0  0  0  0999 V2000
   -2.8301   -4.3434    0.1624 H   0  0  0  0  0  0  0  0  0  0  0  0
   -2.7960   -3.3624   -0.3204 C   0  0  0  0  0  0  0  0  0  0  0  0
   -3.6251   -2.7574    0.0539 H   0  0  0  0  0  0  0  0  0  0  0  0
   -2.9090   -3.4981   -1.3987 H   0  0  0  0  0  0  0  0  0  0  0  0
   -1.4761   -2.6783   -0.0181 C   0  0  0  0  0  0  0  0  0  0  0  0
   -0.6653   -3.2205    0.7105 O   0  0  0  0  0  0  0  0  0  0  0  0
   -1.2067   -1.4404   -0.5675 N   0  0  0  0  0  0  0  0  0  0  0  0
   -1.8843   -1.0784   -1.2316 H   0  0  0  0  0  0  0  0  0  0  0  0
    0.0916   -0.7466   -0.4623 C   0  0  1  0  0  0  0  0  0  0  0  0
    0.8495   -1.4113   -0.8921 H   0  0  0  0  0  0  0  0  0  0  0  0
    0.0872    0.5546   -1.2908 C   0  0  0  0  0  0  0  0  0  0  0  0
   -0.4598    1.3307   -0.7446 H   0  0  0  0  0  0  0  0  0  0  0  0
    1.1250    0.8984   -1.3670 H   0  0  0  0  0  0  0  0  0  0  0  0
   -0.5199    0.3944   -2.7078 C   0  0  0  0  0  0  0  0  0  0  0  0
   -0.5695   -0.6652   -2.9810 H   0  0  0  0  0  0  0  0  0  0  0  0
   -1.9251    1.0089   -2.7772 C   0  0  0  0  0  0  0  0  0  0  0  0
   -1.8888    2.0832   -2.5688 H   0  0  0  0  0  0  0  0  0  0  0  0
   -2.3534    0.8652   -3.7743 H   0  0  0  0  0  0  0  0  0  0  0  0
   -2.5902    0.5382   -2.0479 H   0  0  0  0  0  0  0  0  0  0  0  0
    0.3701    1.0970   -3.7405 C   0  0  0  0  0  0  0  0  0  0  0  0
    1.3708    0.6529   -3.7459 H   0  0  0  0  0  0  0  0  0  0  0  0
   -0.0538    0.9940   -4.7444 H   0  0  0  0  0  0  0  0  0  0  0  0
    0.4638    2.1633   -3.5102 H   0  0  0  0  0  0  0  0  0  0  0  0
    0.5503   -0.4403    0.9805 C   0  0  0  0  0  0  0  0  0  0  0  0
    1.7454   -0.4226    1.2444 O   0  0  0  0  0  0  0  0  0  0  0  0
   -0.3480    0.0800    1.8951 N   0  0  0  0  0  0  0  0  0  0  0  0
   -1.3303   -0.0334    1.6687 H   0  0  0  0  0  0  0  0  0  0  0  0
    0.0222    0.4046    3.2668 C   0  0  0  0  0  0  0  0  0  0  0  0
    0.8191    1.1556    3.2821 H   0  0  0  0  0  0  0  0  0  0  0  0
   -0.8403    0.8077    3.8059 H   0  0  0  0  0  0  0  0  0  0  0  0
    0.3727   -0.4914    3.7901 H   0  0  0  0  0  0  0  0  0  0  0  0
  1  2  1  0  0  0  0
  2  3  1  0  0  0  0
  2  4  1  0  0  0  0
  2  5  1  0  0  0  0
  5  6  2  0  0  0  0
  5  7  1  0  0  0  0
  7  8  1  0  0  0  0
  7  9  1  0  0  0  0
  9 10  1  0  0  0  0
  9 11  1  0  0  0  0
  9 24  1  0  0  0  0
 11 12  1  0  0  0  0
 11 13  1  0  0  0  0
 11 14  1  0  0  0  0
 14 15  1  0  0  0  0
 14 16  1  0  0  0  0
 14 20  1  0  0  0  0
 16 17  1  0  0  0  0
 16 18  1  0  0  0  0
 16 19  1  0  0  0  0
 20 21  1  0  0  0  0
 20 22  1  0  0  0  0
 20 23  1  0  0  0  0
 24 25  2  0  0  0  0
 24 26  1  0  0  0  0
 26 27  1  0  0  0  0
 26 28  1  0  0  0  0
 28 29  1  0  0  0  0
 28 30  1  0  0  0  0
 28 31  1  0  0  0  0
M  END
$$$$

  -OEChem-04042216013D

 31 30  0     1  0  0  0  0  0999 V2000
   -2.8297   -4.3448    0.1890 H   0  0  0  0  0  0  0  0  0  0  0  0
   -2.7982   -3.3656   -0.2978 C   0  0  0  0  0  0  0  0  0  0  0  0
   -3.6183   -2.7550    0.0872 H   0  0  0  0  0  0  0  0  0  0  0  0
   -2.9287   -3.5046   -1.3737 H   0  0  0  0  0  0  0  0  0  0  0  0
   -1.4700   -2.6874   -0.0194 C   0  0  0  0  0  0  0  0  0  0  0  0
   -0.6480   -3.2336    0.6936 O   0  0  0  0  0  0  0  0  0  0  0  0
   -1.2070   -1.4484   -0.5694 N   0  0  0  0  0  0  0  0  0  0  0  0
   -1.9002   -1.0761   -1.2116 H   0  0  0  0  0  0  0  0  0  0  0  0
    0.0887   -0.7481   -0.4680 C   0  0  1  0  0  0  0  0  0  0  0  0
    0.8479   -1.4111   -0.8981 H   0  0  0  0  0  0  0  0  0  0  0  0
    0.0828    0.5516   -1.2991 C   0  0  0  0  0  0  0  0  0  0  0  0
   -0.4809    1.3109   -0.7466 H   0  0  0  0  0  0  0  0  0  0  0  0
    1.1134    0.9186   -1.3634 H   0  0  0  0  0  0  0  0  0  0  0  0
   -0.5202    0.4033   -2.7226 C   0  0  0  0  0  0  0  0  0  0  0  0
   -0.8320   -0.6283   -2.9105 H   0  0  0  0  0  0  0  0  0  0  0  0
   -1.7325    1.3260   -2.8975 C   0  0  0  0  0  0  0  0  0  0  0  0
   -1.4449    2.3735   -2.7605 H   0  0  0  0  0  0  0  0  0  0  0  0
   -2.1573    1.2115   -3.8999 H   0  0  0  0  0  0  0  0  0  0  0  0
   -2.5080    1.0791   -2.1660 H   0  0  0  0  0  0  0  0  0  0  0  0
    0.5337    0.7581   -3.7788 C   0  0  0  0  0  0  0  0  0  0  0  0
    1.4025    0.0987   -3.6854 H   0  0  0  0  0  0  0  0  0  0  0  0
    0.1208    0.6396   -4.7856 H   0  0  0  0  0  0  0  0  0  0  0  0
    0.8683    1.7939   -3.6608 H   0  0  0  0  0  0  0  0  0  0  0  0
    0.5478   -0.4405    0.9743 C   0  0  0  0  0  0  0  0  0  0  0  0
    1.7429   -0.4178    1.2377 O   0  0  0  0  0  0  0  0  0  0  0  0
   -0.3526    0.0749    1.8896 N   0  0  0  0  0  0  0  0  0  0  0  0
   -1.3346   -0.0439    1.6643 H   0  0  0  0  0  0  0  0  0  0  0  0
    0.0175    0.4014    3.2608 C   0  0  0  0  0  0  0  0  0  0  0  0
    0.8095    1.1574    3.2750 H   0  0  0  0  0  0  0  0  0  0  0  0
   -0.8465    0.7986    3.8016 H   0  0  0  0  0  0  0  0  0  0  0  0
    0.3744   -0.4926    3.7830 H   0  0  0  0  0  0  0  0  0  0  0  0
  1  2  1  0  0  0  0
  2  3  1  0  0  0  0
  2  4  1  0  0  0  0
  2  5  1  0  0  0  0
  5  6  2  0  0  0  0
  5  7  1  0  0  0  0
  7  8  1  0  0  0  0
  7  9  1  0  0  0  0
  9 10  1  0  0  0  0
  9 11  1  0  0  0  0
  9 24  1  0  0  0  0
 11 12  1  0  0  0  0
 11 13  1  0  0  0  0
 11 14  1  0  0  0  0
 14 15  1  0  0  0  0
 14 16  1  0  0  0  0
 14 20  1  0  0  0  0
 16 17  1  0  0  0  0
 16 18  1  0  0  0  0
 16 19  1  0  0  0  0
 20 21  1  0  0  0  0
 20 22  1  0  0  0  0
 20 23  1  0  0  0  0
 24 25  2  0  0  0  0
 24 26  1  0  0  0  0
 26 27  1  0  0  0  0
 26 28  1  0  0  0  0
 28 29  1  0  0  0  0
 28 30  1  0  0  0  0
 28 31  1  0  0  0  0
M  END
$$$$

  -OEChem-04042216013D

 31 30  0     1  0  0  0  0  0999 V2000
   -2.8159   -4.3588    0.2099 H   0  0  0  0  0  0  0  0  0  0  0  0
   -2.7941   -3.3793   -0.2765 C   0  0  0  0  0  0  0  0  0  0  0  0
   -3.6086   -2.7703    0.1230 H   0  0  0  0  0  0  0  0  0  0  0  0
   -2.9426   -3.5178   -1.3501 H   0  0  0  0  0  0  0  0  0  0  0  0
   -1.4624   -2.6993   -0.0201 C   0  0  0  0  0  0  0  0  0  0  0  0
   -0.6256   -3.2469    0.6743 O   0  0  0  0  0  0  0  0  0  0  0  0
   -1.2128   -1.4574   -0.5695 N   0  0  0  0  0  0  0  0  0  0  0  0
   -1.9244   -1.0773   -1.1861 H   0  0  0  0  0  0  0  0  0  0  0  0
    0.0767   -0.7452   -0.4747 C   0  0  1  0  0  0  0  0  0  0  0  0
    0.8380   -1.4063   -0.9040 H   0  0  0  0  0  0  0  0  0  0  0  0
    0.0743    0.5535   -1.3101 C   0  0  0  0  0  0  0  0  0  0  0  0
   -0.5101    1.2959   -0.7561 H   0  0  0  0  0  0  0  0  0  0  0  0
    1.0977    0.9418   -1.3627 H   0  0  0  0  0  0  0  0  0  0  0  0
   -0.5189    0.4213   -2.7392 C   0  0  0  0  0  0  0  0  0  0  0  0
   -1.0948   -0.5014   -2.8445 H   0  0  0  0  0  0  0  0  0  0  0  0
   -1.4625    1.5908   -3.0423 C   0  0  0  0  0  0  0  0  0  0  0  0
   -0.9329    2.5454   -2.9590 H   0  0  0  0  0  0  0  0  0  0  0  0
   -1.8639    1.5039   -4.0569 H   0  0  0  0  0  0  0  0  0  0  0  0
   -2.3027    1.5956   -2.3409 H   0  0  0  0  0  0  0  0  0  0  0  0
    0.6104    0.3764   -3.7749 C   0  0  0  0  0  0  0  0  0  0  0  0
    1.2811   -0.4639   -3.5693 H   0  0  0  0  0  0  0  0  0  0  0  0
    0.2001    0.2498   -4.7817 H   0  0  0  0  0  0  0  0  0  0  0  0
    1.1951    1.3018   -3.7533 H   0  0  0  0  0  0  0  0  0  0  0  0
    0.5398   -0.4355    0.9661 C   0  0  0  0  0  0  0  0  0  0  0  0
    1.7360   -0.4017    1.2238 O   0  0  0  0  0  0  0  0  0  0  0  0
   -0.3604    0.0701    1.8871 N   0  0  0  0  0  0  0  0  0  0  0  0
   -1.3426   -0.0586    1.6683 H   0  0  0  0  0  0  0  0  0  0  0  0
    0.0148    0.3985    3.2566 C   0  0  0  0  0  0  0  0  0  0  0  0
    0.8048    1.1569    3.2672 H   0  0  0  0  0  0  0  0  0  0  0  0
   -0.8478    0.7937    3.8012 H   0  0  0  0  0  0  0  0  0  0  0  0
    0.3764   -0.4941    3.7777 H   0  0  0  0  0  0  0  0  0  0  0  0
  1  2  1  0  0  0  0
  2  3  1  0  0  0  0
  2  4  1  0  0  0  0
  2  5  1  0  0  0  0
  5  6  2  0  0  0  0
  5  7  1  0  0  0  0
  7  8  1  0  0  0  0
  7  9  1  0  0  0  0
  9 10  1  0  0  0  0
  9 11  1  0  0  0  0
  9 24  1  0  0  0  0
 11 12  1  0  0  0  0
 11 13  1  0  0  0  0
 11 14  1  0  0  0  0
 14 15  1  0  0  0  0
 14 16  1  0  0  0  0
 14 20  1  0  0  0  0
 16 17  1  0  0  0  0
 16 18  1  0  0  0  0
 16 19  1  0  0  0  0
 20 21  1  0  0  0  0
 20 22  1  0  0  0  0
 20 23  1  0  0  0  0
 24 25  2  0  0  0  0
 24 26  1  0  0  0  0
 26 27  1  0  0  0  0
 26 28  1  0  0  0  0
 28 29  1  0  0  0  0
 28 30  1  0  0  0  0
 28 31  1  0  0  0  0
M  END
$$$$

  -OEChem-04042216013D

 31 30  0     1  0  0  0  0  0999 V2000
   -2.8070   -4.3684    0.2082 H   0  0  0  0  0  0  0  0  0  0  0  0
   -2.7889   -3.3889   -0.2780 C   0  0  0  0  0  0  0  0  0  0  0  0
   -3.6072   -2.7839    0.1194 H   0  0  0  0  0  0  0  0  0  0  0  0
   -2.9345   -3.5280   -1.3519 H   0  0  0  0  0  0  0  0  0  0  0  0
   -1.4614   -2.7021   -0.0184 C   0  0  0  0  0  0  0  0  0  0  0  0
   -0.6247   -3.2435    0.6810 O   0  0  0  0  0  0  0  0  0  0  0  0
   -1.2151   -1.4607   -0.5709 N   0  0  0  0  0  0  0  0  0  0  0  0
   -1.9263   -1.0861   -1.1908 H   0  0  0  0  0  0  0  0  0  0  0  0
    0.0734   -0.7466   -0.4791 C   0  0  1  0  0  0  0  0  0  0  0  0
    0.8349   -1.4089   -0.9061 H   0  0  0  0  0  0  0  0  0  0  0  0
    0.0757    0.5527   -1.3152 C   0  0  0  0  0  0  0  0  0  0  0  0
   -0.5145    1.2922   -0.7637 H   0  0  0  0  0  0  0  0  0  0  0  0
    1.0979    0.9437   -1.3702 H   0  0  0  0  0  0  0  0  0  0  0  0
   -0.5145    0.4262   -2.7424 C   0  0  0  0  0  0  0  0  0  0  0  0
   -1.3123   -0.3196   -2.7717 H   0  0  0  0  0  0  0  0  0  0  0  0
   -1.1373    1.7564   -3.1796 C   0  0  0  0  0  0  0  0  0  0  0  0
   -0.3889    2.5553   -3.1625 H   0  0  0  0  0  0  0  0  0  0  0  0
   -1.5348    1.6750   -4.1962 H   0  0  0  0  0  0  0  0  0  0  0  0
   -1.9592    2.0336   -2.5123 H   0  0  0  0  0  0  0  0  0  0  0  0
    0.5747   -0.0062   -3.7297 C   0  0  0  0  0  0  0  0  0  0  0  0
    1.0041   -0.9664   -3.4272 H   0  0  0  0  0  0  0  0  0  0  0  0
    0.1554   -0.1190   -4.7343 H   0  0  0  0  0  0  0  0  0  0  0  0
    1.3779    0.7367   -3.7710 H   0  0  0  0  0  0  0  0  0  0  0  0
    0.5361   -0.4345    0.9612 C   0  0  0  0  0  0  0  0  0  0  0  0
    1.7323   -0.3971    1.2181 O   0  0  0  0  0  0  0  0  0  0  0  0
   -0.3649    0.0709    1.8816 N   0  0  0  0  0  0  0  0  0  0  0  0
   -1.3468   -0.0626    1.6642 H   0  0  0  0  0  0  0  0  0  0  0  0
    0.0101    0.4084    3.2490 C   0  0  0  0  0  0  0  0  0  0  0  0
    0.7941    1.1730    3.2546 H   0  0  0  0  0  0  0  0  0  0  0  0
   -0.8549    0.7995    3.7928 H   0  0  0  0  0  0  0  0  0  0  0  0
    0.3799   -0.4790    3.7736 H   0  0  0  0  0  0  0  0  0  0  0  0
  1  2  1  0  0  0  0
  2  3  1  0  0  0  0
  2  4  1  0  0  0  0
  2  5  1  0  0  0  0
  5  6  2  0  0  0  0
  5  7  1  0  0  0  0
  7  8  1  0  0  0  0
  7  9  1  0  0  0  0
  9 10  1  0  0  0  0
  9 11  1  0  0  0  0
  9 24  1  0  0  0  0
 11 12  1  0  0  0  0
 11 13  1  0  0  0  0
 11 14  1  0  0  0  0
 14 15  1  0  0  0  0
 14 16  1  0  0  0  0
 14 20  1  0  0  0  0
 16 17  1  0  0  0  0
 16 18  1  0  0  0  0
 16 19  1  0  0  0  0
 20 21  1  0  0  0  0
 20 22  1  0  0  0  0
 20 23  1  0  0  0  0
 24 25  2  0  0  0  0
 24 26  1  0  0  0  0
 26 27  1  0  0  0  0
 26 28  1  0  0  0  0
 28 29  1  0  0  0  0
 28 30  1  0  0  0  0
 28 31  1  0  0  0  0
M  END
$$$$

  -OEChem-04042216013D

 31 30  0     1  0  0  0  0  0999 V2000
   -2.8051   -4.3699    0.1940 H   0  0  0  0  0  0  0  0  0  0  0  0
   -2.7842   -3.3902   -0.2922 C   0  0  0  0  0  0  0  0  0  0  0  0
   -3.6109   -2.7887    0.0928 H   0  0  0  0  0  0  0  0  0  0  0  0
   -2.9131   -3.5302   -1.3682 H   0  0  0  0  0  0  0  0  0  0  0  0
   -1.4633   -2.6977   -0.0135 C   0  0  0  0  0  0  0  0  0  0  0  0
   -0.6370   -3.2333    0.7025 O   0  0  0  0  0  0  0  0  0  0  0  0
   -1.2094   -1.4605   -0.5720 N   0  0  0  0  0  0  0  0  0  0  0  0
   -1.9067   -1.0985   -1.2146 H   0  0  0  0  0  0  0  0  0  0  0  0
    0.0820   -0.7523   -0.4774 C   0  0  1  0  0  0  0  0  0  0  0  0
    0.8448   -1.4172   -0.8970 H   0  0  0  0  0  0  0  0  0  0  0  0
    0.0812    0.5460   -1.3145 C   0  0  0  0  0  0  0  0  0  0  0  0
   -0.5041    1.2933   -0.7682 H   0  0  0  0  0  0  0  0  0  0  0  0
    1.1063    0.9277   -1.3807 H   0  0  0  0  0  0  0  0  0  0  0  0
   -0.5128    0.4144   -2.7363 C   0  0  0  0  0  0  0  0  0  0  0  0
   -1.4681   -0.1162   -2.7042 H   0  0  0  0  0  0  0  0  0  0  0  0
   -0.7945    1.8074   -3.3098 C   0  0  0  0  0  0  0  0  0  0  0  0
    0.1268    2.3965   -3.3611 H   0  0  0  0  0  0  0  0  0  0  0  0
   -1.2118    1.7274   -4.3186 H   0  0  0  0  0  0  0  0  0  0  0  0
   -1.5153    2.3417   -2.6830 H   0  0  0  0  0  0  0  0  0  0  0  0
    0.4417   -0.3557   -3.6561 C   0  0  0  0  0  0  0  0  0  0  0  0
    0.5966   -1.3733   -3.2853 H   0  0  0  0  0  0  0  0  0  0  0  0
    0.0266   -0.4209   -4.6667 H   0  0  0  0  0  0  0  0  0  0  0  0
    1.4131    0.1459   -3.7123 H   0  0  0  0  0  0  0  0  0  0  0  0
    0.5394   -0.4340    0.9633 C   0  0  0  0  0  0  0  0  0  0  0  0
    1.7346   -0.4004    1.2257 O   0  0  0  0  0  0  0  0  0  0  0  0
   -0.3637    0.0812    1.8762 N   0  0  0  0  0  0  0  0  0  0  0  0
   -1.3451   -0.0464    1.6535 H   0  0  0  0  0  0  0  0  0  0  0  0
    0.0062    0.4269    3.2427 C   0  0  0  0  0  0  0  0  0  0  0  0
    0.7918    1.1897    3.2463 H   0  0  0  0  0  0  0  0  0  0  0  0
   -0.8604    0.8236    3.7800 H   0  0  0  0  0  0  0  0  0  0  0  0
    0.3713   -0.4578    3.7750 H   0  0  0  0  0  0  0  0  0  0  0  0
  1  2  1  0  0  0  0
  2  3  1  0  0  0  0
  2  4  1  0  0  0  0
  2  5  1  0  0  0  0
  5  6  2  0  0  0  0
  5  7  1  0  0  0  0
  7  8  1  0  0  0  0
  7  9  1  0  0  0  0
  9 10  1  0  0  0  0
  9 11  1  0  0  0  0
  9 24  1  0  0  0  0
 11 12  1  0  0  0  0
 11 13  1  0  0  0  0
 11 14  1  0  0  0  0
 14 15  1  0  0  0  0
 14 16  1  0  0  0  0
 14 20  1  0  0  0  0
 16 17  1  0  0  0  0
 16 18  1  0  0  0  0
 16 19  1  0  0  0  0
 20 21  1  0  0  0  0
 20 22  1  0  0  0  0
 20 23  1  0  0  0  0
 24 25  2  0  0  0  0
 24 26  1  0  0  0  0
 26 27  1  0  0  0  0
 26 28  1  0  0  0  0
 28 29  1  0  0  0  0
 28 30  1  0  0  0  0
 28 31  1  0  0  0  0
M  END
$$$$

  -OEChem-04042216013D

 31 30  0     1  0  0  0  0  0999 V2000
   -2.7916   -4.4031    0.2407 H   0  0  0  0  0  0  0  0  0  0  0  0
   -2.7827   -3.4273   -0.2537 C   0  0  0  0  0  0  0  0  0  0  0  0
   -3.6221   -2.8362    0.1201 H   0  0  0  0  0  0  0  0  0  0  0  0
   -2.9014   -3.5787   -1.3292 H   0  0  0  0  0  0  0  0  0  0  0  0
   -1.4752   -2.7113    0.0296 C   0  0  0  0  0  0  0  0  0  0  0  0
   -0.6462   -3.2289    0.7556 O   0  0  0  0  0  0  0  0  0  0  0  0
   -1.2359   -1.4749   -0.5370 N   0  0  0  0  0  0  0  0  0  0  0  0
   -1.9220   -1.1431   -1.2074 H   0  0  0  0  0  0  0  0  0  0  0  0
    0.0528   -0.7585   -0.4580 C   0  0  1  0  0  0  0  0  0  0  0  0
    0.8082   -1.4314   -0.8792 H   0  0  0  0  0  0  0  0  0  0  0  0
    0.0597    0.5279   -1.3183 C   0  0  0  0  0  0  0  0  0  0  0  0
   -0.2817    1.3595   -0.6924 H   0  0  0  0  0  0  0  0  0  0  0  0
    1.0961    0.7450   -1.5993 H   0  0  0  0  0  0  0  0  0  0  0  0
   -0.8258    0.5122   -2.5854 C   0  0  0  0  0  0  0  0  0  0  0  0
   -1.8752    0.3739   -2.3066 H   0  0  0  0  0  0  0  0  0  0  0  0
   -0.6946    1.8599   -3.3052 C   0  0  0  0  0  0  0  0  0  0  0  0
    0.3414    2.0376   -3.6118 H   0  0  0  0  0  0  0  0  0  0  0  0
   -1.3288    1.8805   -4.1970 H   0  0  0  0  0  0  0  0  0  0  0  0
   -1.0061    2.6764   -2.6461 H   0  0  0  0  0  0  0  0  0  0  0  0
   -0.4026   -0.6042   -3.5537 C   0  0  0  0  0  0  0  0  0  0  0  0
   -0.5407   -1.5922   -3.1064 H   0  0  0  0  0  0  0  0  0  0  0  0
   -1.0031   -0.5618   -4.4678 H   0  0  0  0  0  0  0  0  0  0  0  0
    0.6521   -0.4950   -3.8268 H   0  0  0  0  0  0  0  0  0  0  0  0
    0.5272   -0.4294    0.9746 C   0  0  0  0  0  0  0  0  0  0  0  0
    1.7256   -0.3865    1.2208 O   0  0  0  0  0  0  0  0  0  0  0  0
   -0.3679    0.0857    1.8950 N   0  0  0  0  0  0  0  0  0  0  0  0
   -1.3511   -0.0469    1.6826 H   0  0  0  0  0  0  0  0  0  0  0  0
    0.0146    0.4330    3.2576 C   0  0  0  0  0  0  0  0  0  0  0  0
    0.8024    1.1935    3.2534 H   0  0  0  0  0  0  0  0  0  0  0  0
   -0.8461    0.8329    3.8015 H   0  0  0  0  0  0  0  0  0  0  0  0
    0.3819   -0.4518    3.7880 H   0  0  0  0  0  0  0  0  0  0  0  0
  1  2  1  0  0  0  0
  2  3  1  0  0  0  0
  2  4  1  0  0  0  0
  2  5  1  0  0  0  0
  5  6  2  0  0  0  0
  5  7  1  0  0  0  0
  7  8  1  0  0  0  0
  7  9  1  0  0  0  0
  9 10  1  0  0  0  0
  9 11  1  0  0  0  0
  9 24  1  0  0  0  0
 11 12  1  0  0  0  0
 11 13  1  0  0  0  0
 11 14  1  0  0  0  0
 14 15  1  0  0  0  0
 14 16  1  0  0  0  0
 14 20  1  0  0  0  0
 16 17  1  0  0  0  0
 16 18  1  0  0  0  0
 16 19  1  0  0  0  0
 20 21  1  0  0  0  0
 20 22  1  0  0  0  0
 20 23  1  0  0  0  0
 24 25  2  0  0  0  0
 24 26  1  0  0  0  0
 26 27  1  0  0  0  0
 26 28  1  0  0  0  0
 28 29  1  0  0  0  0
 28 30  1  0  0  0  0
 28 31  1  0  0  0  0
M  END
$$$$

  -OEChem-04042216013D

 31 30  0     1  0  0  0  0  0999 V2000
   -2.7890   -4.4196    0.3145 H   0  0  0  0  0  0  0  0  0  0  0  0
   -2.7832   -3.4514   -0.1944 C   0  0  0  0  0  0  0  0  0  0  0  0
   -3.6210   -2.8552    0.1748 H   0  0  0  0  0  0  0  0  0  0  0  0
   -2.9064   -3.6183   -1.2672 H   0  0  0  0  0  0  0  0  0  0  0  0
   -1.4750   -2.7308    0.0724 C   0  0  0  0  0  0  0  0  0  0  0  0
   -0.6414   -3.2377    0.8007 O   0  0  0  0  0  0  0  0  0  0  0  0
   -1.2420   -1.5005   -0.5096 N   0  0  0  0  0  0  0  0  0  0  0  0
   -1.9331   -1.1760   -1.1790 H   0  0  0  0  0  0  0  0  0  0  0  0
    0.0433   -0.7788   -0.4461 C   0  0  1  0  0  0  0  0  0  0  0  0
    0.7985   -1.4534   -0.8651 H   0  0  0  0  0  0  0  0  0  0  0  0
    0.0381    0.4979   -1.3209 C   0  0  0  0  0  0  0  0  0  0  0  0
   -0.2904    1.3402   -0.7025 H   0  0  0  0  0  0  0  0  0  0  0  0
    1.0783    0.6981   -1.6015 H   0  0  0  0  0  0  0  0  0  0  0  0
   -0.8434    0.5031   -2.5966 C   0  0  0  0  0  0  0  0  0  0  0  0
   -1.8984    0.6085   -2.3226 H   0  0  0  0  0  0  0  0  0  0  0  0
   -0.4113    1.6876   -3.4729 C   0  0  0  0  0  0  0  0  0  0  0  0
    0.6268    1.5735   -3.8023 H   0  0  0  0  0  0  0  0  0  0  0  0
   -1.0499    1.7632   -4.3588 H   0  0  0  0  0  0  0  0  0  0  0  0
   -0.4956    2.6241   -2.9126 H   0  0  0  0  0  0  0  0  0  0  0  0
   -0.6552   -0.7572   -3.4655 C   0  0  0  0  0  0  0  0  0  0  0  0
   -1.0896   -1.6451   -3.0033 H   0  0  0  0  0  0  0  0  0  0  0  0
   -1.1443   -0.6263   -4.4360 H   0  0  0  0  0  0  0  0  0  0  0  0
    0.4094   -0.9454   -3.6389 H   0  0  0  0  0  0  0  0  0  0  0  0
    0.5249   -0.4305    0.9795 C   0  0  0  0  0  0  0  0  0  0  0  0
    1.7244   -0.3776    1.2179 O   0  0  0  0  0  0  0  0  0  0  0  0
   -0.3673    0.0924    1.8984 N   0  0  0  0  0  0  0  0  0  0  0  0
   -1.3509   -0.0490    1.6939 H   0  0  0  0  0  0  0  0  0  0  0  0
    0.0204    0.4602    3.2542 C   0  0  0  0  0  0  0  0  0  0  0  0
    0.8047    1.2243    3.2362 H   0  0  0  0  0  0  0  0  0  0  0  0
   -0.8398    0.8635    3.7968 H   0  0  0  0  0  0  0  0  0  0  0  0
    0.3938   -0.4159    3.7949 H   0  0  0  0  0  0  0  0  0  0  0  0
  1  2  1  0  0  0  0
  2  3  1  0  0  0  0
  2  4  1  0  0  0  0
  2  5  1  0  0  0  0
  5  6  2  0  0  0  0
  5  7  1  0  0  0  0
  7  8  1  0  0  0  0
  7  9  1  0  0  0  0
  9 10  1  0  0  0  0
  9 11  1  0  0  0  0
  9 24  1  0  0  0  0
 11 12  1  0  0  0  0
 11 13  1  0  0  0  0
 11 14  1  0  0  0  0
 14 15  1  0  0  0  0
 14 16  1  0  0  0  0
 14 20  1  0  0  0  0
 16 17  1  0  0  0  0
 16 18  1  0  0  0  0
 16 19  1  0  0  0  0
 20 21  1  0  0  0  0
 20 22  1  0  0  0  0
 20 23  1  0  0  0  0
 24 25  2  0  0  0  0
 24 26  1  0  0  0  0
 26 27  1  0  0  0  0
 26 28  1  0  0  0  0
 28 29  1  0  0  0  0
 28 30  1  0  0  0  0
 28 31  1  0  0  0  0
M  END
$$$$

  -OEChem-04042216013D

 31 30  0     1  0  0  0  0  0999 V2000
   -2.7512   -4.4543    0.4132 H   0  0  0  0  0  0  0  0  0  0  0  0
   -2.7620   -3.4932   -0.1087 C   0  0  0  0  0  0  0  0  0  0  0  0
   -3.5917   -2.8942    0.2741 H   0  0  0  0  0  0  0  0  0  0  0  0
   -2.9129   -3.6752   -1.1754 H   0  0  0  0  0  0  0  0  0  0  0  0
   -1.4499   -2.7646    0.1137 C   0  0  0  0  0  0  0  0  0  0  0  0
   -0.5907   -3.2636    0.8174 O   0  0  0  0  0  0  0  0  0  0  0  0
   -1.2429   -1.5351   -0.4797 N   0  0  0  0  0  0  0  0  0  0  0  0
   -1.9642   -1.2054   -1.1135 H   0  0  0  0  0  0  0  0  0  0  0  0
    0.0288   -0.7919   -0.4394 C   0  0  1  0  0  0  0  0  0  0  0  0
    0.7877   -1.4643   -0.8556 H   0  0  0  0  0  0  0  0  0  0  0  0
    0.0186    0.4769   -1.3296 C   0  0  0  0  0  0  0  0  0  0  0  0
   -0.3032    1.3242   -0.7147 H   0  0  0  0  0  0  0  0  0  0  0  0
    1.0651    0.6658   -1.5945 H   0  0  0  0  0  0  0  0  0  0  0  0
   -0.8471    0.5204   -2.6242 C   0  0  0  0  0  0  0  0  0  0  0  0
   -1.8444    0.9057   -2.3868 H   0  0  0  0  0  0  0  0  0  0  0  0
   -0.1468    1.4572   -3.6224 C   0  0  0  0  0  0  0  0  0  0  0  0
    0.8188    1.0461   -3.9355 H   0  0  0  0  0  0  0  0  0  0  0  0
   -0.7663    1.6050   -4.5128 H   0  0  0  0  0  0  0  0  0  0  0  0
    0.0255    2.4369   -3.1654 H   0  0  0  0  0  0  0  0  0  0  0  0
   -0.9868   -0.8271   -3.3650 C   0  0  0  0  0  0  0  0  0  0  0  0
   -1.7531   -1.4597   -2.9136 H   0  0  0  0  0  0  0  0  0  0  0  0
   -1.2884   -0.6666   -4.4051 H   0  0  0  0  0  0  0  0  0  0  0  0
   -0.0341   -1.3667   -3.3655 H   0  0  0  0  0  0  0  0  0  0  0  0
    0.5182   -0.4268    0.9797 C   0  0  0  0  0  0  0  0  0  0  0  0
    1.7189   -0.3549    1.2069 O   0  0  0  0  0  0  0  0  0  0  0  0
   -0.3736    0.0859    1.9045 N   0  0  0  0  0  0  0  0  0  0  0  0
   -1.3570   -0.0686    1.7095 H   0  0  0  0  0  0  0  0  0  0  0  0
    0.0217    0.4738    3.2524 C   0  0  0  0  0  0  0  0  0  0  0  0
    0.7927    1.2508    3.2178 H   0  0  0  0  0  0  0  0  0  0  0  0
   -0.8394    0.8683    3.8000 H   0  0  0  0  0  0  0  0  0  0  0  0
    0.4159   -0.3898    3.7983 H   0  0  0  0  0  0  0  0  0  0  0  0
  1  2  1  0  0  0  0
  2  3  1  0  0  0  0
  2  4  1  0  0  0  0
  2  5  1  0  0  0  0
  5  6  2  0  0  0  0
  5  7  1  0  0  0  0
  7  8  1  0  0  0  0
  7  9  1  0  0  0  0
  9 10  1  0  0  0  0
  9 11  1  0  0  0  0
  9 24  1  0  0  0  0
 11 12  1  0  0  0  0
 11 13  1  0  0  0  0
 11 14  1  0  0  0  0
 14 15  1  0  0  0  0
 14 16  1  0  0  0  0
 14 20  1  0  0  0  0
 16 17  1  0  0  0  0
 16 18  1  0  0  0  0
 16 19  1  0  0  0  0
 20 21  1  0  0  0  0
 20 22  1  0  0  0  0
 20 23  1  0  0  0  0
 24 25  2  0  0  0  0
 24 26  1  0  0  0  0
 26 27  1  0  0  0  0
 26 28  1  0  0  0  0
 28 29  1  0  0  0  0
 28 30  1  0  0  0  0
 28 31  1  0  0  0  0
M  END
$$$$

  -OEChem-04042216013D

 31 30  0     1  0  0  0  0  0999 V2000
   -2.7105   -4.4876    0.5143 H   0  0  0  0  0  0  0  0  0  0  0  0
   -2.7407   -3.5318   -0.0167 C   0  0  0  0  0  0  0  0  0  0  0  0
   -3.5557   -2.9292    0.3911 H   0  0  0  0  0  0  0  0  0  0  0  0
   -2.9312   -3.7241   -1.0752 H   0  0  0  0  0  0  0  0  0  0  0  0
   -1.4212   -2.8017    0.1483 C   0  0  0  0  0  0  0  0  0  0  0  0
   -0.5321   -3.2991    0.8149 O   0  0  0  0  0  0  0  0  0  0  0  0
   -1.2411   -1.5720   -0.4535 N   0  0  0  0  0  0  0  0  0  0  0  0
   -1.9999   -1.2271   -1.0320 H   0  0  0  0  0  0  0  0  0  0  0  0
    0.0171   -0.8070   -0.4367 C   0  0  1  0  0  0  0  0  0  0  0  0
    0.7780   -1.4781   -0.8513 H   0  0  0  0  0  0  0  0  0  0  0  0
    0.0139    0.4578   -1.3381 C   0  0  0  0  0  0  0  0  0  0  0  0
   -0.3131    1.3004   -0.7193 H   0  0  0  0  0  0  0  0  0  0  0  0
    1.0660    0.6502   -1.5773 H   0  0  0  0  0  0  0  0  0  0  0  0
   -0.8312    0.5447   -2.6523 C   0  0  0  0  0  0  0  0  0  0  0  0
   -1.6889    1.2033   -2.4775 H   0  0  0  0  0  0  0  0  0  0  0  0
    0.0614    1.1573   -3.7451 C   0  0  0  0  0  0  0  0  0  0  0  0
    0.8983    0.4920   -3.9826 H   0  0  0  0  0  0  0  0  0  0  0  0
   -0.5124    1.3347   -4.6604 H   0  0  0  0  0  0  0  0  0  0  0  0
    0.4653    2.1187   -3.4113 H   0  0  0  0  0  0  0  0  0  0  0  0
   -1.3518   -0.7800   -3.2451 C   0  0  0  0  0  0  0  0  0  0  0  0
   -2.2484   -1.1206   -2.7227 H   0  0  0  0  0  0  0  0  0  0  0  0
   -1.6333   -0.6509   -4.2952 H   0  0  0  0  0  0  0  0  0  0  0  0
   -0.5821   -1.5569   -3.1930 H   0  0  0  0  0  0  0  0  0  0  0  0
    0.5134   -0.4302    0.9773 C   0  0  0  0  0  0  0  0  0  0  0  0
    1.7144   -0.3342    1.1934 O   0  0  0  0  0  0  0  0  0  0  0  0
   -0.3793    0.0686    1.9092 N   0  0  0  0  0  0  0  0  0  0  0  0
   -1.3616   -0.1054    1.7245 H   0  0  0  0  0  0  0  0  0  0  0  0
    0.0218    0.4713    3.2510 C   0  0  0  0  0  0  0  0  0  0  0  0
    0.7842    1.2561    3.2051 H   0  0  0  0  0  0  0  0  0  0  0  0
   -0.8394    0.8615    3.8016 H   0  0  0  0  0  0  0  0  0  0  0  0
    0.4288   -0.3840    3.8004 H   0  0  0  0  0  0  0  0  0  0  0  0
  1  2  1  0  0  0  0
  2  3  1  0  0  0  0
  2  4  1  0  0  0  0
  2  5  1  0  0  0  0
  5  6  2  0  0  0  0
  5  7  1  0  0  0  0
  7  8  1  0  0  0  0
  7  9  1  0  0  0  0
  9 10  1  0  0  0  0
  9 11  1  0  0  0  0
  9 24  1  0  0  0  0
 11 12  1  0  0  0  0
 11 13  1  0  0  0  0
 11 14  1  0  0  0  0
 14 15  1  0  0  0  0
 14 16  1  0  0  0  0
 14 20  1  0  0  0  0
 16 17  1  0  0  0  0
 16 18  1  0  0  0  0
 16 19  1  0  0  0  0
 20 21  1  0  0  0  0
 20 22  1  0  0  0  0
 20 23  1  0  0  0  0
 24 25  2  0  0  0  0
 24 26  1  0  0  0  0
 26 27  1  0  0  0  0
 26 28  1  0  0  0  0
 28 29  1  0  0  0  0
 28 30  1  0  0  0  0
 28 31  1  0  0  0  0
M  END
$$$$

  -OEChem-04042216013D

 31 30  0     1  0  0  0  0  0999 V2000
   -2.6666   -4.5296    0.5715 H   0  0  0  0  0  0  0  0  0  0  0  0
   -2.7162   -3.5739    0.0419 C   0  0  0  0  0  0  0  0  0  0  0  0
   -3.5306   -2.9800    0.4635 H   0  0  0  0  0  0  0  0  0  0  0  0
   -2.9219   -3.7676   -1.0136 H   0  0  0  0  0  0  0  0  0  0  0  0
   -1.4019   -2.8301    0.1853 C   0  0  0  0  0  0  0  0  0  0  0  0
   -0.4986   -3.3153    0.8418 O   0  0  0  0  0  0  0  0  0  0  0  0
   -1.2428   -1.6022   -0.4263 N   0  0  0  0  0  0  0  0  0  0  0  0
   -2.0122   -1.2727   -0.9983 H   0  0  0  0  0  0  0  0  0  0  0  0
    0.0075   -0.8241   -0.4314 C   0  0  1  0  0  0  0  0  0  0  0  0
    0.7671   -1.4979   -0.8442 H   0  0  0  0  0  0  0  0  0  0  0  0
    0.0193    0.4370   -1.3431 C   0  0  0  0  0  0  0  0  0  0  0  0
   -0.3288    1.2677   -0.7197 H   0  0  0  0  0  0  0  0  0  0  0  0
    1.0732    0.6487   -1.5564 H   0  0  0  0  0  0  0  0  0  0  0  0
   -0.8076    0.5562   -2.6690 C   0  0  0  0  0  0  0  0  0  0  0  0
   -1.4407    1.4464   -2.5848 H   0  0  0  0  0  0  0  0  0  0  0  0
    0.1740    0.7890   -3.8286 C   0  0  0  0  0  0  0  0  0  0  0  0
    0.8298   -0.0782   -3.9580 H   0  0  0  0  0  0  0  0  0  0  0  0
   -0.3654    0.9600   -4.7655 H   0  0  0  0  0  0  0  0  0  0  0  0
    0.7945    1.6698   -3.6345 H   0  0  0  0  0  0  0  0  0  0  0  0
   -1.7195   -0.6085   -3.0875 C   0  0  0  0  0  0  0  0  0  0  0  0
   -2.5908   -0.6747   -2.4309 H   0  0  0  0  0  0  0  0  0  0  0  0
   -2.0983   -0.4498   -4.1022 H   0  0  0  0  0  0  0  0  0  0  0  0
   -1.1723   -1.5566   -3.0768 H   0  0  0  0  0  0  0  0  0  0  0  0
    0.5142   -0.4364    0.9766 C   0  0  0  0  0  0  0  0  0  0  0  0
    1.7161   -0.3259    1.1802 O   0  0  0  0  0  0  0  0  0  0  0  0
   -0.3733    0.0569    1.9167 N   0  0  0  0  0  0  0  0  0  0  0  0
   -1.3565   -0.1197    1.7408 H   0  0  0  0  0  0  0  0  0  0  0  0
    0.0377    0.4716    3.2520 C   0  0  0  0  0  0  0  0  0  0  0  0
    0.7811    1.2736    3.1933 H   0  0  0  0  0  0  0  0  0  0  0  0
   -0.8240    0.8426    3.8148 H   0  0  0  0  0  0  0  0  0  0  0  0
    0.4723   -0.3731    3.7971 H   0  0  0  0  0  0  0  0  0  0  0  0
  1  2  1  0  0  0  0
  2  3  1  0  0  0  0
  2  4  1  0  0  0  0
  2  5  1  0  0  0  0
  5  6  2  0  0  0  0
  5  7  1  0  0  0  0
  7  8  1  0  0  0  0
  7  9  1  0  0  0  0
  9 10  1  0  0  0  0
  9 11  1  0  0  0  0
  9 24  1  0  0  0  0
 11 12  1  0  0  0  0
 11 13  1  0  0  0  0
 11 14  1  0  0  0  0
 14 15  1  0  0  0  0
 14 16  1  0  0  0  0
 14 20  1  0  0  0  0
 16 17  1  0  0  0  0
 16 18  1  0  0  0  0
 16 19  1  0  0  0  0
 20 21  1  0  0  0  0
 20 22  1  0  0  0  0
 20 23  1  0  0  0  0
 24 25  2  0  0  0  0
 24 26  1  0  0  0  0
 26 27  1  0  0  0  0
 26 28  1  0  0  0  0
 28 29  1  0  0  0  0
 28 30  1  0  0  0  0
 28 31  1  0  0  0  0
M  END
$$$$

  -OEChem-04042216013D

 31 30  0     1  0  0  0  0  0999 V2000
   -2.6284   -4.5537    0.5897 H   0  0  0  0  0  0  0  0  0  0  0  0
   -2.6726   -3.6187    0.0237 C   0  0  0  0  0  0  0  0  0  0  0  0
   -3.5065   -3.0204    0.3983 H   0  0  0  0  0  0  0  0  0  0  0  0
   -2.8437   -3.8534   -1.0297 H   0  0  0  0  0  0  0  0  0  0  0  0
   -1.3720   -2.8535    0.1792 C   0  0  0  0  0  0  0  0  0  0  0  0
   -0.4629   -3.3310    0.8333 O   0  0  0  0  0  0  0  0  0  0  0  0
   -1.2324   -1.6169   -0.4196 N   0  0  0  0  0  0  0  0  0  0  0  0
   -1.9986   -1.3086   -1.0075 H   0  0  0  0  0  0  0  0  0  0  0  0
    0.0157   -0.8358   -0.4440 C   0  0  1  0  0  0  0  0  0  0  0  0
    0.7658   -1.5035   -0.8825 H   0  0  0  0  0  0  0  0  0  0  0  0
    0.0162    0.4410   -1.3352 C   0  0  0  0  0  0  0  0  0  0  0  0
   -0.3359    1.2511   -0.6870 H   0  0  0  0  0  0  0  0  0  0  0  0
    1.0625    0.6751   -1.5613 H   0  0  0  0  0  0  0  0  0  0  0  0
   -0.8348    0.5857   -2.6393 C   0  0  0  0  0  0  0  0  0  0  0  0
   -1.2065    1.6165   -2.6468 H   0  0  0  0  0  0  0  0  0  0  0  0
    0.0905    0.4497   -3.8564 C   0  0  0  0  0  0  0  0  0  0  0  0
    0.5327   -0.5513   -3.8909 H   0  0  0  0  0  0  0  0  0  0  0  0
   -0.4659    0.6164   -4.7841 H   0  0  0  0  0  0  0  0  0  0  0  0
    0.8988    1.1867   -3.8112 H   0  0  0  0  0  0  0  0  0  0  0  0
   -2.0639   -0.3077   -2.8496 C   0  0  0  0  0  0  0  0  0  0  0  0
   -2.7777   -0.1792   -2.0306 H   0  0  0  0  0  0  0  0  0  0  0  0
   -2.5743   -0.0275   -3.7767 H   0  0  0  0  0  0  0  0  0  0  0  0
   -1.7760   -1.3602   -2.9326 H   0  0  0  0  0  0  0  0  0  0  0  0
    0.5521   -0.4684    0.9585 C   0  0  0  0  0  0  0  0  0  0  0  0
    1.7581   -0.3586    1.1371 O   0  0  0  0  0  0  0  0  0  0  0  0
   -0.3160    0.0081    1.9247 N   0  0  0  0  0  0  0  0  0  0  0  0
   -1.3015   -0.1749    1.7682 H   0  0  0  0  0  0  0  0  0  0  0  0
    0.1221    0.3982    3.2588 C   0  0  0  0  0  0  0  0  0  0  0  0
    0.8676    1.1982    3.1994 H   0  0  0  0  0  0  0  0  0  0  0  0
   -0.7275    0.7631    3.8438 H   0  0  0  0  0  0  0  0  0  0  0  0
    0.5635   -0.4572    3.7809 H   0  0  0  0  0  0  0  0  0  0  0  0
  1  2  1  0  0  0  0
  2  3  1  0  0  0  0
  2  4  1  0  0  0  0
  2  5  1  0  0  0  0
  5  6  2  0  0  0  0
  5  7  1  0  0  0  0
  7  8  1  0  0  0  0
  7  9  1  0  0  0  0
  9 10  1  0  0  0  0
  9 11  1  0  0  0  0
  9 24  1  0  0  0  0
 11 12  1  0  0  0  0
 11 13  1  0  0  0  0
 11 14  1  0  0  0  0
 14 15  1  0  0  0  0
 14 16  1  0  0  0  0
 14 20  1  0  0  0  0
 16 17  1  0  0  0  0
 16 18  1  0  0  0  0
 16 19  1  0  0  0  0
 20 21  1  0  0  0  0
 20 22  1  0  0  0  0
 20 23  1  0  0  0  0
 24 25  2  0  0  0  0
 24 26  1  0  0  0  0
 26 27  1  0  0  0  0
 26 28  1  0  0  0  0
 28 29  1  0  0  0  0
 28 30  1  0  0  0  0
 28 31  1  0  0  0  0
M  END
$$$$

  -OEChem-04042216013D

 31 30  0     1  0  0  0  0  0999 V2000
   -2.6502   -4.5514    0.5266 H   0  0  0  0  0  0  0  0  0  0  0  0
   -2.6967   -3.5921    0.0031 C   0  0  0  0  0  0  0  0  0  0  0  0
   -3.5215   -3.0062    0.4152 H   0  0  0  0  0  0  0  0  0  0  0  0
   -2.8842   -3.7798   -1.0568 H   0  0  0  0  0  0  0  0  0  0  0  0
   -1.3899   -2.8409    0.1740 C   0  0  0  0  0  0  0  0  0  0  0  0
   -0.4965   -3.3230    0.8462 O   0  0  0  0  0  0  0  0  0  0  0  0
   -1.2281   -1.6092   -0.4289 N   0  0  0  0  0  0  0  0  0  0  0  0
   -1.9866   -1.2881   -1.0202 H   0  0  0  0  0  0  0  0  0  0  0  0
    0.0219   -0.8311   -0.4218 C   0  0  1  0  0  0  0  0  0  0  0  0
    0.7834   -1.5027   -0.8341 H   0  0  0  0  0  0  0  0  0  0  0  0
    0.0425    0.4357   -1.3244 C   0  0  0  0  0  0  0  0  0  0  0  0
   -0.3269    1.2557   -0.6988 H   0  0  0  0  0  0  0  0  0  0  0  0
    1.0903    0.6704   -1.5425 H   0  0  0  0  0  0  0  0  0  0  0  0
   -0.7832    0.5367   -2.6419 C   0  0  0  0  0  0  0  0  0  0  0  0
   -0.9189    1.6102   -2.8149 H   0  0  0  0  0  0  0  0  0  0  0  0
    0.0558    0.0188   -3.8153 C   0  0  0  0  0  0  0  0  0  0  0  0
    0.2772   -1.0453   -3.6861 H   0  0  0  0  0  0  0  0  0  0  0  0
   -0.4834    0.1504   -4.7586 H   0  0  0  0  0  0  0  0  0  0  0  0
    1.0016    0.5653   -3.8851 H   0  0  0  0  0  0  0  0  0  0  0  0
   -2.1924   -0.0676   -2.6884 C   0  0  0  0  0  0  0  0  0  0  0  0
   -2.7598    0.2085   -1.7943 H   0  0  0  0  0  0  0  0  0  0  0  0
   -2.7303    0.3172   -3.5607 H   0  0  0  0  0  0  0  0  0  0  0  0
   -2.1538   -1.1571   -2.7801 H   0  0  0  0  0  0  0  0  0  0  0  0
    0.5211   -0.4522    0.9911 C   0  0  0  0  0  0  0  0  0  0  0  0
    1.7222   -0.3418    1.2000 O   0  0  0  0  0  0  0  0  0  0  0  0
   -0.3708    0.0353    1.9299 N   0  0  0  0  0  0  0  0  0  0  0  0
   -1.3521   -0.1506    1.7525 H   0  0  0  0  0  0  0  0  0  0  0  0
    0.0353    0.4447    3.2683 C   0  0  0  0  0  0  0  0  0  0  0  0
    0.7792    1.2466    3.2155 H   0  0  0  0  0  0  0  0  0  0  0  0
   -0.8284    0.8140    3.8291 H   0  0  0  0  0  0  0  0  0  0  0  0
    0.4677   -0.4023    3.8112 H   0  0  0  0  0  0  0  0  0  0  0  0
  1  2  1  0  0  0  0
  2  3  1  0  0  0  0
  2  4  1  0  0  0  0
  2  5  1  0  0  0  0
  5  6  2  0  0  0  0
  5  7  1  0  0  0  0
  7  8  1  0  0  0  0
  7  9  1  0  0  0  0
  9 10  1  0  0  0  0
  9 11  1  0  0  0  0
  9 24  1  0  0  0  0
 11 12  1  0  0  0  0
 11 13  1  0  0  0  0
 11 14  1  0  0  0  0
 14 15  1  0  0  0  0
 14 16  1  0  0  0  0
 14 20  1  0  0  0  0
 16 17  1  0  0  0  0
 16 18  1  0  0  0  0
 16 19  1  0  0  0  0
 20 21  1  0  0  0  0
 20 22  1  0  0  0  0
 20 23  1  0  0  0  0
 24 25  2  0  0  0  0
 24 26  1  0  0  0  0
 26 27  1  0  0  0  0
 26 28  1  0  0  0  0
 28 29  1  0  0  0  0
 28 30  1  0  0  0  0
 28 31  1  0  0  0  0
M  END
$$$$

  -OEChem-04042216013D

 31 30  0     1  0  0  0  0  0999 V2000
   -2.6657   -4.5167    0.5000 H   0  0  0  0  0  0  0  0  0  0  0  0
   -2.7030   -3.5556   -0.0210 C   0  0  0  0  0  0  0  0  0  0  0  0
   -3.5199   -2.9614    0.3951 H   0  0  0  0  0  0  0  0  0  0  0  0
   -2.8960   -3.7386   -1.0807 H   0  0  0  0  0  0  0  0  0  0  0  0
   -1.3871   -2.8200    0.1474 C   0  0  0  0  0  0  0  0  0  0  0  0
   -0.4955   -3.3167    0.8111 O   0  0  0  0  0  0  0  0  0  0  0  0
   -1.2137   -1.5864   -0.4480 N   0  0  0  0  0  0  0  0  0  0  0  0
   -1.9744   -1.2450   -1.0241 H   0  0  0  0  0  0  0  0  0  0  0  0
    0.0387   -0.8135   -0.4249 C   0  0  1  0  0  0  0  0  0  0  0  0
    0.8037   -1.4810   -0.8376 H   0  0  0  0  0  0  0  0  0  0  0  0
    0.0480    0.4545   -1.3218 C   0  0  0  0  0  0  0  0  0  0  0  0
   -0.3099    1.2844   -0.7027 H   0  0  0  0  0  0  0  0  0  0  0  0
    1.0913    0.6821   -1.5675 H   0  0  0  0  0  0  0  0  0  0  0  0
   -0.7936    0.5105   -2.6256 C   0  0  0  0  0  0  0  0  0  0  0  0
   -0.7306    1.5523   -2.9593 H   0  0  0  0  0  0  0  0  0  0  0  0
   -0.1317   -0.3351   -3.7186 C   0  0  0  0  0  0  0  0  0  0  0  0
   -0.1317   -1.3931   -3.4388 H   0  0  0  0  0  0  0  0  0  0  0  0
   -0.6708   -0.2256   -4.6648 H   0  0  0  0  0  0  0  0  0  0  0  0
    0.9041   -0.0180   -3.8759 H   0  0  0  0  0  0  0  0  0  0  0  0
   -2.2949    0.2058   -2.5157 C   0  0  0  0  0  0  0  0  0  0  0  0
   -2.6999    0.5962   -1.5767 H   0  0  0  0  0  0  0  0  0  0  0  0
   -2.8286    0.6854   -3.3422 H   0  0  0  0  0  0  0  0  0  0  0  0
   -2.4920   -0.8680   -2.5799 H   0  0  0  0  0  0  0  0  0  0  0  0
    0.5276   -0.4412    0.9927 C   0  0  0  0  0  0  0  0  0  0  0  0
    1.7273   -0.3410    1.2139 O   0  0  0  0  0  0  0  0  0  0  0  0
   -0.3704    0.0468    1.9254 N   0  0  0  0  0  0  0  0  0  0  0  0
   -1.3517   -0.1263    1.7348 H   0  0  0  0  0  0  0  0  0  0  0  0
    0.0245    0.4408    3.2718 C   0  0  0  0  0  0  0  0  0  0  0  0
    0.7799    1.2329    3.2348 H   0  0  0  0  0  0  0  0  0  0  0  0
   -0.8413    0.8177    3.8243 H   0  0  0  0  0  0  0  0  0  0  0  0
    0.4385   -0.4156    3.8144 H   0  0  0  0  0  0  0  0  0  0  0  0
  1  2  1  0  0  0  0
  2  3  1  0  0  0  0
  2  4  1  0  0  0  0
  2  5  1  0  0  0  0
  5  6  2  0  0  0  0
  5  7  1  0  0  0  0
  7  8  1  0  0  0  0
  7  9  1  0  0  0  0
  9 10  1  0  0  0  0
  9 11  1  0  0  0  0
  9 24  1  0  0  0  0
 11 12  1  0  0  0  0
 11 13  1  0  0  0  0
 11 14  1  0  0  0  0
 14 15  1  0  0  0  0
 14 16  1  0  0  0  0
 14 20  1  0  0  0  0
 16 17  1  0  0  0  0
 16 18  1  0  0  0  0
 16 19  1  0  0  0  0
 20 21  1  0  0  0  0
 20 22  1  0  0  0  0
 20 23  1  0  0  0  0
 24 25  2  0  0  0  0
 24 26  1  0  0  0  0
 26 27  1  0  0  0  0
 26 28  1  0  0  0  0
 28 29  1  0  0  0  0
 28 30  1  0  0  0  0
 28 31  1  0  0  0  0
M  END
$$$$

  -OEChem-04042216013D

 31 30  0     1  0  0  0  0  0999 V2000
   -2.6849   -4.5021    0.4283 H   0  0  0  0  0  0  0  0  0  0  0  0
   -2.7054   -3.5403   -0.0924 C   0  0  0  0  0  0  0  0  0  0  0  0
   -3.5410   -2.9505    0.2918 H   0  0  0  0  0  0  0  0  0  0  0  0
   -2.8555   -3.7222   -1.1593 H   0  0  0  0  0  0  0  0  0  0  0  0
   -1.4004   -2.7988    0.1291 C   0  0  0  0  0  0  0  0  0  0  0  0
   -0.5332   -3.2928    0.8264 O   0  0  0  0  0  0  0  0  0  0  0  0
   -1.2105   -1.5635   -0.4581 N   0  0  0  0  0  0  0  0  0  0  0  0
   -1.9322   -1.2494   -1.0960 H   0  0  0  0  0  0  0  0  0  0  0  0
    0.0545   -0.8106   -0.4314 C   0  0  1  0  0  0  0  0  0  0  0  0
    0.8109   -1.4779   -0.8592 H   0  0  0  0  0  0  0  0  0  0  0  0
    0.0458    0.4693   -1.3090 C   0  0  0  0  0  0  0  0  0  0  0  0
   -0.2734    1.3073   -0.6800 H   0  0  0  0  0  0  0  0  0  0  0  0
    1.0827    0.6756   -1.5968 H   0  0  0  0  0  0  0  0  0  0  0  0
   -0.8319    0.5161   -2.5865 C   0  0  0  0  0  0  0  0  0  0  0  0
   -0.5977    1.4749   -3.0623 H   0  0  0  0  0  0  0  0  0  0  0  0
   -0.4346   -0.5820   -3.5800 C   0  0  0  0  0  0  0  0  0  0  0  0
   -0.6578   -1.5750   -3.1789 H   0  0  0  0  0  0  0  0  0  0  0  0
   -0.9824   -0.4583   -4.5195 H   0  0  0  0  0  0  0  0  0  0  0  0
    0.6368   -0.5292   -3.7978 H   0  0  0  0  0  0  0  0  0  0  0  0
   -2.3503    0.5300   -2.3427 C   0  0  0  0  0  0  0  0  0  0  0  0
   -2.5902    1.0895   -1.4333 H   0  0  0  0  0  0  0  0  0  0  0  0
   -2.8519    1.0172   -3.1850 H   0  0  0  0  0  0  0  0  0  0  0  0
   -2.7614   -0.4787   -2.2599 H   0  0  0  0  0  0  0  0  0  0  0  0
    0.5568   -0.4540    0.9855 C   0  0  0  0  0  0  0  0  0  0  0  0
    1.7593   -0.3699    1.1988 O   0  0  0  0  0  0  0  0  0  0  0  0
   -0.3291    0.0427    1.9248 N   0  0  0  0  0  0  0  0  0  0  0  0
   -1.3129   -0.1240    1.7415 H   0  0  0  0  0  0  0  0  0  0  0  0
    0.0786    0.4237    3.2709 C   0  0  0  0  0  0  0  0  0  0  0  0
    0.8386    1.2113    3.2333 H   0  0  0  0  0  0  0  0  0  0  0  0
   -0.7802    0.8016    3.8336 H   0  0  0  0  0  0  0  0  0  0  0  0
    0.4916   -0.4397    3.8030 H   0  0  0  0  0  0  0  0  0  0  0  0
  1  2  1  0  0  0  0
  2  3  1  0  0  0  0
  2  4  1  0  0  0  0
  2  5  1  0  0  0  0
  5  6  2  0  0  0  0
  5  7  1  0  0  0  0
  7  8  1  0  0  0  0
  7  9  1  0  0  0  0
  9 10  1  0  0  0  0
  9 11  1  0  0  0  0
  9 24  1  0  0  0  0
 11 12  1  0  0  0  0
 11 13  1  0  0  0  0
 11 14  1  0  0  0  0
 14 15  1  0  0  0  0
 14 16  1  0  0  0  0
 14 20  1  0  0  0  0
 16 17  1  0  0  0  0
 16 18  1  0  0  0  0
 16 19  1  0  0  0  0
 20 21  1  0  0  0  0
 20 22  1  0  0  0  0
 20 23  1  0  0  0  0
 24 25  2  0  0  0  0
 24 26  1  0  0  0  0
 26 27  1  0  0  0  0
 26 28  1  0  0  0  0
 28 29  1  0  0  0  0
 28 30  1  0  0  0  0
 28 31  1  0  0  0  0
M  END
$$$$

  -OEChem-04042216013D

 31 30  0     1  0  0  0  0  0999 V2000
   -2.7084   -4.5013    0.3559 H   0  0  0  0  0  0  0  0  0  0  0  0
   -2.7152   -3.5361   -0.1585 C   0  0  0  0  0  0  0  0  0  0  0  0
   -3.5705   -2.9553    0.1948 H   0  0  0  0  0  0  0  0  0  0  0  0
   -2.8189   -3.7111   -1.2320 H   0  0  0  0  0  0  0  0  0  0  0  0
   -1.4268   -2.7864    0.1225 C   0  0  0  0  0  0  0  0  0  0  0  0
   -0.5897   -3.2737    0.8602 O   0  0  0  0  0  0  0  0  0  0  0  0
   -1.2173   -1.5527   -0.4607 N   0  0  0  0  0  0  0  0  0  0  0  0
   -1.8990   -1.2609   -1.1534 H   0  0  0  0  0  0  0  0  0  0  0  0
    0.0549   -0.8121   -0.4100 C   0  0  1  0  0  0  0  0  0  0  0  0
    0.8136   -1.4821   -0.8302 H   0  0  0  0  0  0  0  0  0  0  0  0
    0.0554    0.4706   -1.2832 C   0  0  0  0  0  0  0  0  0  0  0  0
   -0.2472    1.3148   -0.6543 H   0  0  0  0  0  0  0  0  0  0  0  0
    1.0960    0.6576   -1.5705 H   0  0  0  0  0  0  0  0  0  0  0  0
   -0.8090    0.5255   -2.5713 C   0  0  0  0  0  0  0  0  0  0  0  0
   -0.4090    1.3534   -3.1669 H   0  0  0  0  0  0  0  0  0  0  0  0
   -0.7022   -0.7401   -3.4368 C   0  0  0  0  0  0  0  0  0  0  0  0
   -1.2460   -1.5830   -3.0047 H   0  0  0  0  0  0  0  0  0  0  0  0
   -1.1196   -0.5470   -4.4300 H   0  0  0  0  0  0  0  0  0  0  0  0
    0.3472   -1.0274   -3.5572 H   0  0  0  0  0  0  0  0  0  0  0  0
   -2.2811    0.8653   -2.2874 C   0  0  0  0  0  0  0  0  0  0  0  0
   -2.3510    1.7861   -1.6999 H   0  0  0  0  0  0  0  0  0  0  0  0
   -2.8153    1.0226   -3.2298 H   0  0  0  0  0  0  0  0  0  0  0  0
   -2.7901    0.0693   -1.7406 H   0  0  0  0  0  0  0  0  0  0  0  0
    0.5391   -0.4600    1.0142 C   0  0  0  0  0  0  0  0  0  0  0  0
    1.7393   -0.3904    1.2447 O   0  0  0  0  0  0  0  0  0  0  0  0
   -0.3544    0.0462    1.9412 N   0  0  0  0  0  0  0  0  0  0  0  0
   -1.3370   -0.1111    1.7435 H   0  0  0  0  0  0  0  0  0  0  0  0
    0.0385    0.4153    3.2952 C   0  0  0  0  0  0  0  0  0  0  0  0
    0.8105    1.1918    3.2730 H   0  0  0  0  0  0  0  0  0  0  0  0
   -0.8231    0.8032    3.8468 H   0  0  0  0  0  0  0  0  0  0  0  0
    0.4307   -0.4564    3.8296 H   0  0  0  0  0  0  0  0  0  0  0  0
  1  2  1  0  0  0  0
  2  3  1  0  0  0  0
  2  4  1  0  0  0  0
  2  5  1  0  0  0  0
  5  6  2  0  0  0  0
  5  7  1  0  0  0  0
  7  8  1  0  0  0  0
  7  9  1  0  0  0  0
  9 10  1  0  0  0  0
  9 11  1  0  0  0  0
  9 24  1  0  0  0  0
 11 12  1  0  0  0  0
 11 13  1  0  0  0  0
 11 14  1  0  0  0  0
 14 15  1  0  0  0  0
 14 16  1  0  0  0  0
 14 20  1  0  0  0  0
 16 17  1  0  0  0  0
 16 18  1  0  0  0  0
 16 19  1  0  0  0  0
 20 21  1  0  0  0  0
 20 22  1  0  0  0  0
 20 23  1  0  0  0  0
 24 25  2  0  0  0  0
 24 26  1  0  0  0  0
 26 27  1  0  0  0  0
 26 28  1  0  0  0  0
 28 29  1  0  0  0  0
 28 30  1  0  0  0  0
 28 31  1  0  0  0  0
M  END
$$$$

  -OEChem-04042216013D

 31 30  0     1  0  0  0  0  0999 V2000
   -2.7169   -4.4898    0.3850 H   0  0  0  0  0  0  0  0  0  0  0  0
   -2.7265   -3.5225   -0.1253 C   0  0  0  0  0  0  0  0  0  0  0  0
   -3.5634   -2.9325    0.2558 H   0  0  0  0  0  0  0  0  0  0  0  0
   -2.8654   -3.6922   -1.1957 H   0  0  0  0  0  0  0  0  0  0  0  0
   -1.4202   -2.7909    0.1194 C   0  0  0  0  0  0  0  0  0  0  0  0
   -0.5677   -3.2923    0.8295 O   0  0  0  0  0  0  0  0  0  0  0  0
   -1.2119   -1.5550   -0.4597 N   0  0  0  0  0  0  0  0  0  0  0  0
   -1.9258   -1.2240   -1.1012 H   0  0  0  0  0  0  0  0  0  0  0  0
    0.0559   -0.8071   -0.4036 C   0  0  1  0  0  0  0  0  0  0  0  0
    0.8191   -1.4748   -0.8192 H   0  0  0  0  0  0  0  0  0  0  0  0
    0.0552    0.4705   -1.2834 C   0  0  0  0  0  0  0  0  0  0  0  0
   -0.2368    1.3190   -0.6548 H   0  0  0  0  0  0  0  0  0  0  0  0
    1.0984    0.6487   -1.5661 H   0  0  0  0  0  0  0  0  0  0  0  0
   -0.7931    0.5344   -2.5874 C   0  0  0  0  0  0  0  0  0  0  0  0
   -0.2639    1.2053   -3.2733 H   0  0  0  0  0  0  0  0  0  0  0  0
   -1.0037   -0.8023   -3.3215 C   0  0  0  0  0  0  0  0  0  0  0  0
   -1.8213   -1.3889   -2.8962 H   0  0  0  0  0  0  0  0  0  0  0  0
   -1.2532   -0.6085   -4.3693 H   0  0  0  0  0  0  0  0  0  0  0  0
   -0.0866   -1.3992   -3.2969 H   0  0  0  0  0  0  0  0  0  0  0  0
   -2.1679    1.1543   -2.2985 C   0  0  0  0  0  0  0  0  0  0  0  0
   -2.0538    2.1640   -1.8917 H   0  0  0  0  0  0  0  0  0  0  0  0
   -2.7542    1.2246   -3.2202 H   0  0  0  0  0  0  0  0  0  0  0  0
   -2.7271    0.5519   -1.5765 H   0  0  0  0  0  0  0  0  0  0  0  0
    0.5338   -0.4540    1.0223 C   0  0  0  0  0  0  0  0  0  0  0  0
    1.7329   -0.3784    1.2567 O   0  0  0  0  0  0  0  0  0  0  0  0
   -0.3647    0.0461    1.9479 N   0  0  0  0  0  0  0  0  0  0  0  0
   -1.3464   -0.1138    1.7480 H   0  0  0  0  0  0  0  0  0  0  0  0
    0.0238    0.4154    3.3032 C   0  0  0  0  0  0  0  0  0  0  0  0
    0.7942    1.1936    3.2834 H   0  0  0  0  0  0  0  0  0  0  0  0
   -0.8399    0.8011    3.8528 H   0  0  0  0  0  0  0  0  0  0  0  0
    0.4163   -0.4558    3.8382 H   0  0  0  0  0  0  0  0  0  0  0  0
  1  2  1  0  0  0  0
  2  3  1  0  0  0  0
  2  4  1  0  0  0  0
  2  5  1  0  0  0  0
  5  6  2  0  0  0  0
  5  7  1  0  0  0  0
  7  8  1  0  0  0  0
  7  9  1  0  0  0  0
  9 10  1  0  0  0  0
  9 11  1  0  0  0  0
  9 24  1  0  0  0  0
 11 12  1  0  0  0  0
 11 13  1  0  0  0  0
 11 14  1  0  0  0  0
 14 15  1  0  0  0  0
 14 16  1  0  0  0  0
 14 20  1  0  0  0  0
 16 17  1  0  0  0  0
 16 18  1  0  0  0  0
 16 19  1  0  0  0  0
 20 21  1  0  0  0  0
 20 22  1  0  0  0  0
 20 23  1  0  0  0  0
 24 25  2  0  0  0  0
 24 26  1  0  0  0  0
 26 27  1  0  0  0  0
 26 28  1  0  0  0  0
 28 29  1  0  0  0  0
 28 30  1  0  0  0  0
 28 31  1  0  0  0  0
M  END
$$$$

  -OEChem-04042216013D

 31 30  0     1  0  0  0  0  0999 V2000
   -2.6854   -4.5169    0.4676 H   0  0  0  0  0  0  0  0  0  0  0  0
   -2.7106   -3.5533   -0.0490 C   0  0  0  0  0  0  0  0  0  0  0  0
   -3.5351   -2.9599    0.3530 H   0  0  0  0  0  0  0  0  0  0  0  0
   -2.8816   -3.7302   -1.1136 H   0  0  0  0  0  0  0  0  0  0  0  0
   -1.3972   -2.8208    0.1501 C   0  0  0  0  0  0  0  0  0  0  0  0
   -0.5186   -3.3220    0.8276 O   0  0  0  0  0  0  0  0  0  0  0  0
   -1.2111   -1.5847   -0.4359 N   0  0  0  0  0  0  0  0  0  0  0  0
   -1.9608   -1.2372   -1.0250 H   0  0  0  0  0  0  0  0  0  0  0  0
    0.0443   -0.8163   -0.3967 C   0  0  1  0  0  0  0  0  0  0  0  0
    0.8121   -1.4804   -0.8099 H   0  0  0  0  0  0  0  0  0  0  0  0
    0.0412    0.4559   -1.2876 C   0  0  0  0  0  0  0  0  0  0  0  0
   -0.2540    1.2975   -0.6516 H   0  0  0  0  0  0  0  0  0  0  0  0
    1.0870    0.6401   -1.5572 H   0  0  0  0  0  0  0  0  0  0  0  0
   -0.7927    0.5438   -2.6068 C   0  0  0  0  0  0  0  0  0  0  0  0
   -0.1336    0.9902   -3.3600 H   0  0  0  0  0  0  0  0  0  0  0  0
   -1.3349   -0.7648   -3.2082 C   0  0  0  0  0  0  0  0  0  0  0  0
   -2.2476   -1.1005   -2.7093 H   0  0  0  0  0  0  0  0  0  0  0  0
   -1.5796   -0.6086   -4.2636 H   0  0  0  0  0  0  0  0  0  0  0  0
   -0.5791   -1.5547   -3.1522 H   0  0  0  0  0  0  0  0  0  0  0  0
   -1.9818    1.4945   -2.4073 C   0  0  0  0  0  0  0  0  0  0  0  0
   -1.6317    2.4908   -2.1186 H   0  0  0  0  0  0  0  0  0  0  0  0
   -2.5533    1.5927   -3.3359 H   0  0  0  0  0  0  0  0  0  0  0  0
   -2.6496    1.1198   -1.6249 H   0  0  0  0  0  0  0  0  0  0  0  0
    0.5240   -0.4520    1.0257 C   0  0  0  0  0  0  0  0  0  0  0  0
    1.7224   -0.3577    1.2561 O   0  0  0  0  0  0  0  0  0  0  0  0
   -0.3794    0.0351    1.9533 N   0  0  0  0  0  0  0  0  0  0  0  0
   -1.3594   -0.1344    1.7538 H   0  0  0  0  0  0  0  0  0  0  0  0
    0.0058    0.4109    3.3073 C   0  0  0  0  0  0  0  0  0  0  0  0
    0.7624    1.2023    3.2853 H   0  0  0  0  0  0  0  0  0  0  0  0
   -0.8634    0.7814    3.8590 H   0  0  0  0  0  0  0  0  0  0  0  0
    0.4146   -0.4537    3.8407 H   0  0  0  0  0  0  0  0  0  0  0  0
  1  2  1  0  0  0  0
  2  3  1  0  0  0  0
  2  4  1  0  0  0  0
  2  5  1  0  0  0  0
  5  6  2  0  0  0  0
  5  7  1  0  0  0  0
  7  8  1  0  0  0  0
  7  9  1  0  0  0  0
  9 10  1  0  0  0  0
  9 11  1  0  0  0  0
  9 24  1  0  0  0  0
 11 12  1  0  0  0  0
 11 13  1  0  0  0  0
 11 14  1  0  0  0  0
 14 15  1  0  0  0  0
 14 16  1  0  0  0  0
 14 20  1  0  0  0  0
 16 17  1  0  0  0  0
 16 18  1  0  0  0  0
 16 19  1  0  0  0  0
 20 21  1  0  0  0  0
 20 22  1  0  0  0  0
 20 23  1  0  0  0  0
 24 25  2  0  0  0  0
 24 26  1  0  0  0  0
 26 27  1  0  0  0  0
 26 28  1  0  0  0  0
 28 29  1  0  0  0  0
 28 30  1  0  0  0  0
 28 31  1  0  0  0  0
M  END
$$$$

  -OEChem-04042216013D

 31 30  0     1  0  0  0  0  0999 V2000
   -2.6248   -4.5744    0.5329 H   0  0  0  0  0  0  0  0  0  0  0  0
   -2.6818   -3.6111    0.0178 C   0  0  0  0  0  0  0  0  0  0  0  0
   -3.5073   -3.0342    0.4414 H   0  0  0  0  0  0  0  0  0  0  0  0
   -2.8763   -3.7907   -1.0423 H   0  0  0  0  0  0  0  0  0  0  0  0
   -1.3787   -2.8530    0.1846 C   0  0  0  0  0  0  0  0  0  0  0  0
   -0.4754   -3.3364    0.8424 O   0  0  0  0  0  0  0  0  0  0  0  0
   -1.2291   -1.6149   -0.4080 N   0  0  0  0  0  0  0  0  0  0  0  0
   -1.9985   -1.2835   -0.9797 H   0  0  0  0  0  0  0  0  0  0  0  0
    0.0119   -0.8227   -0.3934 C   0  0  1  0  0  0  0  0  0  0  0  0
    0.7817   -1.4822   -0.8102 H   0  0  0  0  0  0  0  0  0  0  0  0
    0.0073    0.4474   -1.2918 C   0  0  0  0  0  0  0  0  0  0  0  0
   -0.3147    1.2714   -0.6458 H   0  0  0  0  0  0  0  0  0  0  0  0
    1.0532    0.6576   -1.5423 H   0  0  0  0  0  0  0  0  0  0  0  0
   -0.8179    0.5574   -2.6184 C   0  0  0  0  0  0  0  0  0  0  0  0
   -0.0820    0.7185   -3.4139 H   0  0  0  0  0  0  0  0  0  0  0  0
   -1.6704   -0.6353   -3.0762 C   0  0  0  0  0  0  0  0  0  0  0  0
   -2.5685   -0.7453   -2.4623 H   0  0  0  0  0  0  0  0  0  0  0  0
   -1.9957   -0.4802   -4.1099 H   0  0  0  0  0  0  0  0  0  0  0  0
   -1.0873   -1.5609   -3.0474 H   0  0  0  0  0  0  0  0  0  0  0  0
   -1.7209    1.7982   -2.5714 C   0  0  0  0  0  0  0  0  0  0  0  0
   -1.1262    2.6963   -2.3753 H   0  0  0  0  0  0  0  0  0  0  0  0
   -2.2358    1.9348   -3.5277 H   0  0  0  0  0  0  0  0  0  0  0  0
   -2.4731    1.6984   -1.7825 H   0  0  0  0  0  0  0  0  0  0  0  0
    0.5066   -0.4482    1.0220 C   0  0  0  0  0  0  0  0  0  0  0  0
    1.7063   -0.3252    1.2312 O   0  0  0  0  0  0  0  0  0  0  0  0
   -0.3906    0.0223    1.9643 N   0  0  0  0  0  0  0  0  0  0  0  0
   -1.3704   -0.1698    1.7845 H   0  0  0  0  0  0  0  0  0  0  0  0
    0.0120    0.4203    3.3072 C   0  0  0  0  0  0  0  0  0  0  0  0
    0.7444    1.2333    3.2634 H   0  0  0  0  0  0  0  0  0  0  0  0
   -0.8554    0.7698    3.8748 H   0  0  0  0  0  0  0  0  0  0  0  0
    0.4577   -0.4271    3.8387 H   0  0  0  0  0  0  0  0  0  0  0  0
  1  2  1  0  0  0  0
  2  3  1  0  0  0  0
  2  4  1  0  0  0  0
  2  5  1  0  0  0  0
  5  6  2  0  0  0  0
  5  7  1  0  0  0  0
  7  8  1  0  0  0  0
  7  9  1  0  0  0  0
  9 10  1  0  0  0  0
  9 11  1  0  0  0  0
  9 24  1  0  0  0  0
 11 12  1  0  0  0  0
 11 13  1  0  0  0  0
 11 14  1  0  0  0  0
 14 15  1  0  0  0  0
 14 16  1  0  0  0  0
 14 20  1  0  0  0  0
 16 17  1  0  0  0  0
 16 18  1  0  0  0  0
 16 19  1  0  0  0  0
 20 21  1  0  0  0  0
 20 22  1  0  0  0  0
 20 23  1  0  0  0  0
 24 25  2  0  0  0  0
 24 26  1  0  0  0  0
 26 27  1  0  0  0  0
 26 28  1  0  0  0  0
 28 29  1  0  0  0  0
 28 30  1  0  0  0  0
 28 31  1  0  0  0  0
M  END
$$$$

  -OEChem-04042216013D

 31 30  0     1  0  0  0  0  0999 V2000
   -2.5958   -4.5919    0.5676 H   0  0  0  0  0  0  0  0  0  0  0  0
   -2.6670   -3.6365    0.0396 C   0  0  0  0  0  0  0  0  0  0  0  0
   -3.4930   -3.0613    0.4643 H   0  0  0  0  0  0  0  0  0  0  0  0
   -2.8713   -3.8325   -1.0158 H   0  0  0  0  0  0  0  0  0  0  0  0
   -1.3684   -2.8653    0.1818 C   0  0  0  0  0  0  0  0  0  0  0  0
   -0.4457   -3.3435    0.8161 O   0  0  0  0  0  0  0  0  0  0  0  0
   -1.2451   -1.6215   -0.4052 N   0  0  0  0  0  0  0  0  0  0  0  0
   -2.0278   -1.3008   -0.9646 H   0  0  0  0  0  0  0  0  0  0  0  0
   -0.0086   -0.8217   -0.4207 C   0  0  1  0  0  0  0  0  0  0  0  0
    0.7520   -1.4757   -0.8625 H   0  0  0  0  0  0  0  0  0  0  0  0
   -0.0265    0.4590   -1.3061 C   0  0  0  0  0  0  0  0  0  0  0  0
   -0.3596    1.2627   -0.6400 H   0  0  0  0  0  0  0  0  0  0  0  0
    1.0133    0.6906   -1.5621 H   0  0  0  0  0  0  0  0  0  0  0  0
   -0.8751    0.5972   -2.6135 C   0  0  0  0  0  0  0  0  0  0  0  0
   -0.1646    0.4780   -3.4392 H   0  0  0  0  0  0  0  0  0  0  0  0
   -2.0006   -0.4054   -2.9020 C   0  0  0  0  0  0  0  0  0  0  0  0
   -2.7899   -0.3360   -2.1475 H   0  0  0  0  0  0  0  0  0  0  0  0
   -2.4506   -0.1907   -3.8767 H   0  0  0  0  0  0  0  0  0  0  0  0
   -1.6099   -1.4268   -2.9413 H   0  0  0  0  0  0  0  0  0  0  0  0
   -1.4497    2.0178   -2.7066 C   0  0  0  0  0  0  0  0  0  0  0  0
   -0.6515    2.7597   -2.5999 H   0  0  0  0  0  0  0  0  0  0  0  0
   -1.9312    2.1743   -3.6770 H   0  0  0  0  0  0  0  0  0  0  0  0
   -2.1916    2.1879   -1.9198 H   0  0  0  0  0  0  0  0  0  0  0  0
    0.5203   -0.4589    0.9859 C   0  0  0  0  0  0  0  0  0  0  0  0
    1.7242   -0.3298    1.1661 O   0  0  0  0  0  0  0  0  0  0  0  0
   -0.3561   -0.0042    1.9553 N   0  0  0  0  0  0  0  0  0  0  0  0
   -1.3381   -0.2035    1.7974 H   0  0  0  0  0  0  0  0  0  0  0  0
    0.0754    0.3745    3.2948 C   0  0  0  0  0  0  0  0  0  0  0  0
    0.8163    1.1795    3.2468 H   0  0  0  0  0  0  0  0  0  0  0  0
   -0.7779    0.7278    3.8811 H   0  0  0  0  0  0  0  0  0  0  0  0
    0.5202   -0.4839    3.8091 H   0  0  0  0  0  0  0  0  0  0  0  0
  1  2  1  0  0  0  0
  2  3  1  0  0  0  0
  2  4  1  0  0  0  0
  2  5  1  0  0  0  0
  5  6  2  0  0  0  0
  5  7  1  0  0  0  0
  7  8  1  0  0  0  0
  7  9  1  0  0  0  0
  9 10  1  0  0  0  0
  9 11  1  0  0  0  0
  9 24  1  0  0  0  0
 11 12  1  0  0  0  0
 11 13  1  0  0  0  0
 11 14  1  0  0  0  0
 14 15  1  0  0  0  0
 14 16  1  0  0  0  0
 14 20  1  0  0  0  0
 16 17  1  0  0  0  0
 16 18  1  0  0  0  0
 16 19  1  0  0  0  0
 20 21  1  0  0  0  0
 20 22  1  0  0  0  0
 20 23  1  0  0  0  0
 24 25  2  0  0  0  0
 24 26  1  0  0  0  0
 26 27  1  0  0  0  0
 26 28  1  0  0  0  0
 28 29  1  0  0  0  0
 28 30  1  0  0  0  0
 28 31  1  0  0  0  0
M  END
$$$$

  -OEChem-04042216013D

 31 30  0     1  0  0  0  0  0999 V2000
   -2.6080   -4.5810    0.5440 H   0  0  0  0  0  0  0  0  0  0  0  0
   -2.6784   -3.6189    0.0283 C   0  0  0  0  0  0  0  0  0  0  0  0
   -3.5035   -3.0480    0.4606 H   0  0  0  0  0  0  0  0  0  0  0  0
   -2.8843   -3.8020   -1.0291 H   0  0  0  0  0  0  0  0  0  0  0  0
   -1.3789   -2.8505    0.1784 C   0  0  0  0  0  0  0  0  0  0  0  0
   -0.4622   -3.3291    0.8210 O   0  0  0  0  0  0  0  0  0  0  0  0
   -1.2483   -1.6092   -0.4127 N   0  0  0  0  0  0  0  0  0  0  0  0
   -2.0307   -1.2834   -0.9697 H   0  0  0  0  0  0  0  0  0  0  0  0
   -0.0136   -0.8074   -0.4155 C   0  0  1  0  0  0  0  0  0  0  0  0
    0.7541   -1.4625   -0.8428 H   0  0  0  0  0  0  0  0  0  0  0  0
   -0.0217    0.4676   -1.3086 C   0  0  0  0  0  0  0  0  0  0  0  0
   -0.3777    1.2732   -0.6570 H   0  0  0  0  0  0  0  0  0  0  0  0
    1.0200    0.7056   -1.5511 H   0  0  0  0  0  0  0  0  0  0  0  0
   -0.8550    0.5864   -2.6240 C   0  0  0  0  0  0  0  0  0  0  0  0
   -0.2122    0.2091   -3.4271 H   0  0  0  0  0  0  0  0  0  0  0  0
   -2.1741   -0.1885   -2.7517 C   0  0  0  0  0  0  0  0  0  0  0  0
   -2.8344    0.0280   -1.9060 H   0  0  0  0  0  0  0  0  0  0  0  0
   -2.6945    0.1010   -3.6703 H   0  0  0  0  0  0  0  0  0  0  0  0
   -1.9884   -1.2645   -2.8140 H   0  0  0  0  0  0  0  0  0  0  0  0
   -1.1233    2.0715   -2.9065 C   0  0  0  0  0  0  0  0  0  0  0  0
   -0.1875    2.6392   -2.8840 H   0  0  0  0  0  0  0  0  0  0  0  0
   -1.5742    2.1998   -3.8955 H   0  0  0  0  0  0  0  0  0  0  0  0
   -1.8034    2.4912   -2.1583 H   0  0  0  0  0  0  0  0  0  0  0  0
    0.4965   -0.4359    0.9958 C   0  0  0  0  0  0  0  0  0  0  0  0
    1.6979   -0.3080    1.1924 O   0  0  0  0  0  0  0  0  0  0  0  0
   -0.3924    0.0227    1.9518 N   0  0  0  0  0  0  0  0  0  0  0  0
   -1.3733   -0.1702    1.7797 H   0  0  0  0  0  0  0  0  0  0  0  0
    0.0219    0.4077    3.2951 C   0  0  0  0  0  0  0  0  0  0  0  0
    0.7576    1.2178    3.2529 H   0  0  0  0  0  0  0  0  0  0  0  0
   -0.8403    0.7564    3.8714 H   0  0  0  0  0  0  0  0  0  0  0  0
    0.4675   -0.4461    3.8164 H   0  0  0  0  0  0  0  0  0  0  0  0
  1  2  1  0  0  0  0
  2  3  1  0  0  0  0
  2  4  1  0  0  0  0
  2  5  1  0  0  0  0
  5  6  2  0  0  0  0
  5  7  1  0  0  0  0
  7  8  1  0  0  0  0
  7  9  1  0  0  0  0
  9 10  1  0  0  0  0
  9 11  1  0  0  0  0
  9 24  1  0  0  0  0
 11 12  1  0  0  0  0
 11 13  1  0  0  0  0
 11 14  1  0  0  0  0
 14 15  1  0  0  0  0
 14 16  1  0  0  0  0
 14 20  1  0  0  0  0
 16 17  1  0  0  0  0
 16 18  1  0  0  0  0
 16 19  1  0  0  0  0
 20 21  1  0  0  0  0
 20 22  1  0  0  0  0
 20 23  1  0  0  0  0
 24 25  2  0  0  0  0
 24 26  1  0  0  0  0
 26 27  1  0  0  0  0
 26 28  1  0  0  0  0
 28 29  1  0  0  0  0
 28 30  1  0  0  0  0
 28 31  1  0  0  0  0
M  END
$$$$

  -OEChem-04042216013D

 31 30  0     1  0  0  0  0  0999 V2000
   -2.6513   -4.5375    0.5145 H   0  0  0  0  0  0  0  0  0  0  0  0
   -2.7074   -3.5741   -0.0006 C   0  0  0  0  0  0  0  0  0  0  0  0
   -3.5177   -2.9874    0.4385 H   0  0  0  0  0  0  0  0  0  0  0  0
   -2.9249   -3.7527   -1.0565 H   0  0  0  0  0  0  0  0  0  0  0  0
   -1.3925   -2.8304    0.1395 C   0  0  0  0  0  0  0  0  0  0  0  0
   -0.4776   -3.3286    0.7696 O   0  0  0  0  0  0  0  0  0  0  0  0
   -1.2465   -1.5868   -0.4429 N   0  0  0  0  0  0  0  0  0  0  0  0
   -2.0333   -1.2363   -0.9777 H   0  0  0  0  0  0  0  0  0  0  0  0
   -0.0054   -0.7952   -0.4330 C   0  0  1  0  0  0  0  0  0  0  0  0
    0.7600   -1.4517   -0.8623 H   0  0  0  0  0  0  0  0  0  0  0  0
   -0.0104    0.4837   -1.3175 C   0  0  0  0  0  0  0  0  0  0  0  0
   -0.3608    1.2976   -0.6730 H   0  0  0  0  0  0  0  0  0  0  0  0
    1.0318    0.7102   -1.5684 H   0  0  0  0  0  0  0  0  0  0  0  0
   -0.8530    0.5810   -2.6240 C   0  0  0  0  0  0  0  0  0  0  0  0
   -0.3368   -0.0147   -3.3850 H   0  0  0  0  0  0  0  0  0  0  0  0
   -2.3063    0.0823   -2.5837 C   0  0  0  0  0  0  0  0  0  0  0  0
   -2.8020    0.4120   -1.6653 H   0  0  0  0  0  0  0  0  0  0  0  0
   -2.8699    0.4768   -3.4353 H   0  0  0  0  0  0  0  0  0  0  0  0
   -2.3463   -1.0078   -2.6558 H   0  0  0  0  0  0  0  0  0  0  0  0
   -0.8452    2.0436   -3.0917 C   0  0  0  0  0  0  0  0  0  0  0  0
    0.1814    2.4162   -3.1677 H   0  0  0  0  0  0  0  0  0  0  0  0
   -1.3119    2.1348   -4.0776 H   0  0  0  0  0  0  0  0  0  0  0  0
   -1.3941    2.6775   -2.3882 H   0  0  0  0  0  0  0  0  0  0  0  0
    0.5026   -0.4340    0.9816 C   0  0  0  0  0  0  0  0  0  0  0  0
    1.7043   -0.3160    1.1823 O   0  0  0  0  0  0  0  0  0  0  0  0
   -0.3850    0.0281    1.9372 N   0  0  0  0  0  0  0  0  0  0  0  0
   -1.3672   -0.1554    1.7624 H   0  0  0  0  0  0  0  0  0  0  0  0
    0.0296    0.4126    3.2807 C   0  0  0  0  0  0  0  0  0  0  0  0
    0.7639    1.2239    3.2388 H   0  0  0  0  0  0  0  0  0  0  0  0
   -0.8325    0.7593    3.8582 H   0  0  0  0  0  0  0  0  0  0  0  0
    0.4770   -0.4409    3.8010 H   0  0  0  0  0  0  0  0  0  0  0  0
  1  2  1  0  0  0  0
  2  3  1  0  0  0  0
  2  4  1  0  0  0  0
  2  5  1  0  0  0  0
  5  6  2  0  0  0  0
  5  7  1  0  0  0  0
  7  8  1  0  0  0  0
  7  9  1  0  0  0  0
  9 10  1  0  0  0  0
  9 11  1  0  0  0  0
  9 24  1  0  0  0  0
 11 12  1  0  0  0  0
 11 13  1  0  0  0  0
 11 14  1  0  0  0  0
 14 15  1  0  0  0  0
 14 16  1  0  0  0  0
 14 20  1  0  0  0  0
 16 17  1  0  0  0  0
 16 18  1  0  0  0  0
 16 19  1  0  0  0  0
 20 21  1  0  0  0  0
 20 22  1  0  0  0  0
 20 23  1  0  0  0  0
 24 25  2  0  0  0  0
 24 26  1  0  0  0  0
 26 27  1  0  0  0  0
 26 28  1  0  0  0  0
 28 29  1  0  0  0  0
 28 30  1  0  0  0  0
 28 31  1  0  0  0  0
M  END
$$$$

  -OEChem-04042216013D

 31 30  0     1  0  0  0  0  0999 V2000
   -2.7114   -4.4791    0.4537 H   0  0  0  0  0  0  0  0  0  0  0  0
   -2.7476   -3.5114   -0.0548 C   0  0  0  0  0  0  0  0  0  0  0  0
   -3.5436   -2.9097    0.3903 H   0  0  0  0  0  0  0  0  0  0  0  0
   -2.9717   -3.6782   -1.1112 H   0  0  0  0  0  0  0  0  0  0  0  0
   -1.4160   -2.7988    0.0858 C   0  0  0  0  0  0  0  0  0  0  0  0
   -0.5070   -3.3261    0.7007 O   0  0  0  0  0  0  0  0  0  0  0  0
   -1.2465   -1.5513   -0.4813 N   0  0  0  0  0  0  0  0  0  0  0  0
   -2.0304   -1.1713   -0.9991 H   0  0  0  0  0  0  0  0  0  0  0  0
    0.0103   -0.7860   -0.4605 C   0  0  1  0  0  0  0  0  0  0  0  0
    0.7635   -1.4477   -0.9033 H   0  0  0  0  0  0  0  0  0  0  0  0
    0.0078    0.5020   -1.3264 C   0  0  0  0  0  0  0  0  0  0  0  0
   -0.3145    1.3285   -0.6834 H   0  0  0  0  0  0  0  0  0  0  0  0
    1.0488    0.7055   -1.6015 H   0  0  0  0  0  0  0  0  0  0  0  0
   -0.8641    0.5739   -2.6104 C   0  0  0  0  0  0  0  0  0  0  0  0
   -0.5226   -0.2071   -3.2986 H   0  0  0  0  0  0  0  0  0  0  0  0
   -2.3806    0.3962   -2.4091 C   0  0  0  0  0  0  0  0  0  0  0  0
   -2.6989    0.8371   -1.4591 H   0  0  0  0  0  0  0  0  0  0  0  0
   -2.9366    0.8853   -3.2153 H   0  0  0  0  0  0  0  0  0  0  0  0
   -2.6589   -0.6604   -2.4327 H   0  0  0  0  0  0  0  0  0  0  0  0
   -0.6132    1.9336   -3.2783 C   0  0  0  0  0  0  0  0  0  0  0  0
    0.4553    2.0785   -3.4665 H   0  0  0  0  0  0  0  0  0  0  0  0
   -1.1356    1.9925   -4.2385 H   0  0  0  0  0  0  0  0  0  0  0  0
   -0.9673    2.7489   -2.6391 H   0  0  0  0  0  0  0  0  0  0  0  0
    0.5286   -0.4506    0.9561 C   0  0  0  0  0  0  0  0  0  0  0  0
    1.7328   -0.3593    1.1551 O   0  0  0  0  0  0  0  0  0  0  0  0
   -0.3472    0.0195    1.9188 N   0  0  0  0  0  0  0  0  0  0  0  0
   -1.3340   -0.1364    1.7436 H   0  0  0  0  0  0  0  0  0  0  0  0
    0.0786    0.3903    3.2623 C   0  0  0  0  0  0  0  0  0  0  0  0
    0.8255    1.1903    3.2206 H   0  0  0  0  0  0  0  0  0  0  0  0
   -0.7756    0.7476    3.8452 H   0  0  0  0  0  0  0  0  0  0  0  0
    0.5146   -0.4727    3.7767 H   0  0  0  0  0  0  0  0  0  0  0  0
  1  2  1  0  0  0  0
  2  3  1  0  0  0  0
  2  4  1  0  0  0  0
  2  5  1  0  0  0  0
  5  6  2  0  0  0  0
  5  7  1  0  0  0  0
  7  8  1  0  0  0  0
  7  9  1  0  0  0  0
  9 10  1  0  0  0  0
  9 11  1  0  0  0  0
  9 24  1  0  0  0  0
 11 12  1  0  0  0  0
 11 13  1  0  0  0  0
 11 14  1  0  0  0  0
 14 15  1  0  0  0  0
 14 16  1  0  0  0  0
 14 20  1  0  0  0  0
 16 17  1  0  0  0  0
 16 18  1  0  0  0  0
 16 19  1  0  0  0  0
 20 21  1  0  0  0  0
 20 22  1  0  0  0  0
 20 23  1  0  0  0  0
 24 25  2  0  0  0  0
 24 26  1  0  0  0  0
 26 27  1  0  0  0  0
 26 28  1  0  0  0  0
 28 29  1  0  0  0  0
 28 30  1  0  0  0  0
 28 31  1  0  0  0  0
M  END
$$$$

  -OEChem-04042216013D

 31 30  0     1  0  0  0  0  0999 V2000
   -2.7370   -4.4699    0.3373 H   0  0  0  0  0  0  0  0  0  0  0  0
   -2.7476   -3.5061   -0.1797 C   0  0  0  0  0  0  0  0  0  0  0  0
   -3.6025   -2.9261    0.1760 H   0  0  0  0  0  0  0  0  0  0  0  0
   -2.8564   -3.6846   -1.2521 H   0  0  0  0  0  0  0  0  0  0  0  0
   -1.4587   -2.7534    0.0935 C   0  0  0  0  0  0  0  0  0  0  0  0
   -0.6172   -3.2401    0.8264 O   0  0  0  0  0  0  0  0  0  0  0  0
   -1.2554   -1.5173   -0.4883 N   0  0  0  0  0  0  0  0  0  0  0  0
   -1.9330   -1.2403   -1.1883 H   0  0  0  0  0  0  0  0  0  0  0  0
    0.0203   -0.7834   -0.4508 C   0  0  1  0  0  0  0  0  0  0  0  0
    0.7688   -1.4572   -0.8825 H   0  0  0  0  0  0  0  0  0  0  0  0
    0.0340    0.5072   -1.3106 C   0  0  0  0  0  0  0  0  0  0  0  0
   -0.2605    1.3513   -0.6771 H   0  0  0  0  0  0  0  0  0  0  0  0
    1.0769    0.6811   -1.5975 H   0  0  0  0  0  0  0  0  0  0  0  0
   -0.8517    0.5580   -2.5833 C   0  0  0  0  0  0  0  0  0  0  0  0
   -0.7100   -0.3694   -3.1489 H   0  0  0  0  0  0  0  0  0  0  0  0
   -2.3572    0.7455   -2.3052 C   0  0  0  0  0  0  0  0  0  0  0  0
   -2.5133    1.5399   -1.5686 H   0  0  0  0  0  0  0  0  0  0  0  0
   -2.8777    1.0271   -3.2261 H   0  0  0  0  0  0  0  0  0  0  0  0
   -2.8330   -0.1648   -1.9414 H   0  0  0  0  0  0  0  0  0  0  0  0
   -0.3762    1.7252   -3.4598 C   0  0  0  0  0  0  0  0  0  0  0  0
    0.6808    1.6059   -3.7179 H   0  0  0  0  0  0  0  0  0  0  0  0
   -0.9481    1.7642   -4.3922 H   0  0  0  0  0  0  0  0  0  0  0  0
   -0.5006    2.6778   -2.9347 H   0  0  0  0  0  0  0  0  0  0  0  0
    0.5228   -0.4420    0.9703 C   0  0  0  0  0  0  0  0  0  0  0  0
    1.7261   -0.3826    1.1882 O   0  0  0  0  0  0  0  0  0  0  0  0
   -0.3576    0.0630    1.9104 N   0  0  0  0  0  0  0  0  0  0  0  0
   -1.3433   -0.0858    1.7215 H   0  0  0  0  0  0  0  0  0  0  0  0
    0.0513    0.4182    3.2632 C   0  0  0  0  0  0  0  0  0  0  0  0
    0.8258    1.1920    3.2397 H   0  0  0  0  0  0  0  0  0  0  0  0
   -0.8029    0.8042    3.8275 H   0  0  0  0  0  0  0  0  0  0  0  0
    0.4460   -0.4598    3.7850 H   0  0  0  0  0  0  0  0  0  0  0  0
  1  2  1  0  0  0  0
  2  3  1  0  0  0  0
  2  4  1  0  0  0  0
  2  5  1  0  0  0  0
  5  6  2  0  0  0  0
  5  7  1  0  0  0  0
  7  8  1  0  0  0  0
  7  9  1  0  0  0  0
  9 10  1  0  0  0  0
  9 11  1  0  0  0  0
  9 24  1  0  0  0  0
 11 12  1  0  0  0  0
 11 13  1  0  0  0  0
 11 14  1  0  0  0  0
 14 15  1  0  0  0  0
 14 16  1  0  0  0  0
 14 20  1  0  0  0  0
 16 17  1  0  0  0  0
 16 18  1  0  0  0  0
 16 19  1  0  0  0  0
 20 21  1  0  0  0  0
 20 22  1  0  0  0  0
 20 23  1  0  0  0  0
 24 25  2  0  0  0  0
 24 26  1  0  0  0  0
 26 27  1  0  0  0  0
 26 28  1  0  0  0  0
 28 29  1  0  0  0  0
 28 30  1  0  0  0  0
 28 31  1  0  0  0  0
M  END
$$$$

  -OEChem-04042216013D

 31 30  0     1  0  0  0  0  0999 V2000
   -2.7949   -4.4022    0.2314 H   0  0  0  0  0  0  0  0  0  0  0  0
   -2.7820   -3.4249   -0.2597 C   0  0  0  0  0  0  0  0  0  0  0  0
   -3.6183   -2.8309    0.1169 H   0  0  0  0  0  0  0  0  0  0  0  0
   -2.9020   -3.5713   -1.3359 H   0  0  0  0  0  0  0  0  0  0  0  0
   -1.4711   -2.7159    0.0242 C   0  0  0  0  0  0  0  0  0  0  0  0
   -0.6410   -3.2405    0.7439 O   0  0  0  0  0  0  0  0  0  0  0  0
   -1.2332   -1.4746   -0.5318 N   0  0  0  0  0  0  0  0  0  0  0  0
   -1.9235   -1.1338   -1.1937 H   0  0  0  0  0  0  0  0  0  0  0  0
    0.0538   -0.7582   -0.4536 C   0  0  1  0  0  0  0  0  0  0  0  0
    0.8050   -1.4300   -0.8840 H   0  0  0  0  0  0  0  0  0  0  0  0
    0.0691    0.5384   -1.2998 C   0  0  0  0  0  0  0  0  0  0  0  0
   -0.2322    1.3848   -0.6729 H   0  0  0  0  0  0  0  0  0  0  0  0
    1.1105    0.7196   -1.5876 H   0  0  0  0  0  0  0  0  0  0  0  0
   -0.8246    0.5270   -2.5642 C   0  0  0  0  0  0  0  0  0  0  0  0
   -0.8734   -0.4888   -2.9710 H   0  0  0  0  0  0  0  0  0  0  0  0
   -2.2456    1.0356   -2.2650 C   0  0  0  0  0  0  0  0  0  0  0  0
   -2.2174    2.0774   -1.9298 H   0  0  0  0  0  0  0  0  0  0  0  0
   -2.8628    0.9812   -3.1673 H   0  0  0  0  0  0  0  0  0  0  0  0
   -2.7309    0.4425   -1.4867 H   0  0  0  0  0  0  0  0  0  0  0  0
   -0.2066    1.4318   -3.6377 C   0  0  0  0  0  0  0  0  0  0  0  0
    0.7875    1.0690   -3.9175 H   0  0  0  0  0  0  0  0  0  0  0  0
   -0.8308    1.4403   -4.5368 H   0  0  0  0  0  0  0  0  0  0  0  0
   -0.1111    2.4589   -3.2704 H   0  0  0  0  0  0  0  0  0  0  0  0
    0.5333   -0.4426    0.9803 C   0  0  0  0  0  0  0  0  0  0  0  0
    1.7328   -0.4014    1.2214 O   0  0  0  0  0  0  0  0  0  0  0  0
   -0.3582    0.0624    1.9099 N   0  0  0  0  0  0  0  0  0  0  0  0
   -1.3422   -0.0742    1.7032 H   0  0  0  0  0  0  0  0  0  0  0  0
    0.0316    0.3941    3.2743 C   0  0  0  0  0  0  0  0  0  0  0  0
    0.8189    1.1552    3.2748 H   0  0  0  0  0  0  0  0  0  0  0  0
   -0.8263    0.7870    3.8281 H   0  0  0  0  0  0  0  0  0  0  0  0
    0.4026   -0.4967    3.7919 H   0  0  0  0  0  0  0  0  0  0  0  0
  1  2  1  0  0  0  0
  2  3  1  0  0  0  0
  2  4  1  0  0  0  0
  2  5  1  0  0  0  0
  5  6  2  0  0  0  0
  5  7  1  0  0  0  0
  7  8  1  0  0  0  0
  7  9  1  0  0  0  0
  9 10  1  0  0  0  0
  9 11  1  0  0  0  0
  9 24  1  0  0  0  0
 11 12  1  0  0  0  0
 11 13  1  0  0  0  0
 11 14  1  0  0  0  0
 14 15  1  0  0  0  0
 14 16  1  0  0  0  0
 14 20  1  0  0  0  0
 16 17  1  0  0  0  0
 16 18  1  0  0  0  0
 16 19  1  0  0  0  0
 20 21  1  0  0  0  0
 20 22  1  0  0  0  0
 20 23  1  0  0  0  0
 24 25  2  0  0  0  0
 24 26  1  0  0  0  0
 26 27  1  0  0  0  0
 26 28  1  0  0  0  0
 28 29  1  0  0  0  0
 28 30  1  0  0  0  0
 28 31  1  0  0  0  0
M  END
$$$$

  -OEChem-04042216013D

 31 30  0     1  0  0  0  0  0999 V2000
   -2.8158   -4.3831    0.2262 H   0  0  0  0  0  0  0  0  0  0  0  0
   -2.7980   -3.4037   -0.2607 C   0  0  0  0  0  0  0  0  0  0  0  0
   -3.6192   -2.8001    0.1328 H   0  0  0  0  0  0  0  0  0  0  0  0
   -2.9383   -3.5436   -1.3352 H   0  0  0  0  0  0  0  0  0  0  0  0
   -1.4730   -2.7140    0.0044 C   0  0  0  0  0  0  0  0  0  0  0  0
   -0.6367   -3.2543    0.7050 O   0  0  0  0  0  0  0  0  0  0  0  0
   -1.2286   -1.4709   -0.5446 N   0  0  0  0  0  0  0  0  0  0  0  0
   -1.9360   -1.1000   -1.1715 H   0  0  0  0  0  0  0  0  0  0  0  0
    0.0598   -0.7552   -0.4556 C   0  0  1  0  0  0  0  0  0  0  0  0
    0.8133   -1.4247   -0.8855 H   0  0  0  0  0  0  0  0  0  0  0  0
    0.0710    0.5390   -1.3036 C   0  0  0  0  0  0  0  0  0  0  0  0
   -0.2394    1.3803   -0.6744 H   0  0  0  0  0  0  0  0  0  0  0  0
    1.1126    0.7343   -1.5818 H   0  0  0  0  0  0  0  0  0  0  0  0
   -0.8201    0.5128   -2.5744 C   0  0  0  0  0  0  0  0  0  0  0  0
   -1.0807   -0.5132   -2.8509 H   0  0  0  0  0  0  0  0  0  0  0  0
   -2.0959    1.3387   -2.3618 C   0  0  0  0  0  0  0  0  0  0  0  0
   -1.8520    2.3862   -2.1559 H   0  0  0  0  0  0  0  0  0  0  0  0
   -2.7277    1.2996   -3.2548 H   0  0  0  0  0  0  0  0  0  0  0  0
   -2.6701    0.9441   -1.5181 H   0  0  0  0  0  0  0  0  0  0  0  0
   -0.0491    1.1151   -3.7560 C   0  0  0  0  0  0  0  0  0  0  0  0
    0.8524    0.5289   -3.9610 H   0  0  0  0  0  0  0  0  0  0  0  0
   -0.6689    1.1133   -4.6580 H   0  0  0  0  0  0  0  0  0  0  0  0
    0.2482    2.1465   -3.5402 H   0  0  0  0  0  0  0  0  0  0  0  0
    0.5342   -0.4434    0.9807 C   0  0  0  0  0  0  0  0  0  0  0  0
    1.7328   -0.4035    1.2258 O   0  0  0  0  0  0  0  0  0  0  0  0
   -0.3590    0.0604    1.9093 N   0  0  0  0  0  0  0  0  0  0  0  0
   -1.3427   -0.0695    1.6983 H   0  0  0  0  0  0  0  0  0  0  0  0
    0.0274    0.3972    3.2735 C   0  0  0  0  0  0  0  0  0  0  0  0
    0.8088    1.1644    3.2731 H   0  0  0  0  0  0  0  0  0  0  0  0
   -0.8339    0.7845    3.8257 H   0  0  0  0  0  0  0  0  0  0  0  0
    0.4046   -0.4896    3.7936 H   0  0  0  0  0  0  0  0  0  0  0  0
  1  2  1  0  0  0  0
  2  3  1  0  0  0  0
  2  4  1  0  0  0  0
  2  5  1  0  0  0  0
  5  6  2  0  0  0  0
  5  7  1  0  0  0  0
  7  8  1  0  0  0  0
  7  9  1  0  0  0  0
  9 10  1  0  0  0  0
  9 11  1  0  0  0  0
  9 24  1  0  0  0  0
 11 12  1  0  0  0  0
 11 13  1  0  0  0  0
 11 14  1  0  0  0  0
 14 15  1  0  0  0  0
 14 16  1  0  0  0  0
 14 20  1  0  0  0  0
 16 17  1  0  0  0  0
 16 18  1  0  0  0  0
 16 19  1  0  0  0  0
 20 21  1  0  0  0  0
 20 22  1  0  0  0  0
 20 23  1  0  0  0  0
 24 25  2  0  0  0  0
 24 26  1  0  0  0  0
 26 27  1  0  0  0  0
 26 28  1  0  0  0  0
 28 29  1  0  0  0  0
 28 30  1  0  0  0  0
 28 31  1  0  0  0  0
M  END
$$$$

  -OEChem-04042216013D

 31 30  0     1  0  0  0  0  0999 V2000
   -2.8018   -4.3958    0.2733 H   0  0  0  0  0  0  0  0  0  0  0  0
   -2.7951   -3.4184   -0.2180 C   0  0  0  0  0  0  0  0  0  0  0  0
   -3.6031   -2.8109    0.1966 H   0  0  0  0  0  0  0  0  0  0  0  0
   -2.9665   -3.5620   -1.2875 H   0  0  0  0  0  0  0  0  0  0  0  0
   -1.4614   -2.7312    0.0060 C   0  0  0  0  0  0  0  0  0  0  0  0
   -0.6034   -3.2749    0.6772 O   0  0  0  0  0  0  0  0  0  0  0  0
   -1.2351   -1.4847   -0.5431 N   0  0  0  0  0  0  0  0  0  0  0  0
   -1.9688   -1.1014   -1.1309 H   0  0  0  0  0  0  0  0  0  0  0  0
    0.0455   -0.7548   -0.4636 C   0  0  1  0  0  0  0  0  0  0  0  0
    0.8017   -1.4212   -0.8941 H   0  0  0  0  0  0  0  0  0  0  0  0
    0.0582    0.5385   -1.3153 C   0  0  0  0  0  0  0  0  0  0  0  0
   -0.2716    1.3644   -0.6758 H   0  0  0  0  0  0  0  0  0  0  0  0
    1.1003    0.7564   -1.5750 H   0  0  0  0  0  0  0  0  0  0  0  0
   -0.8225    0.5345   -2.5979 C   0  0  0  0  0  0  0  0  0  0  0  0
   -1.3272   -0.4238   -2.7402 H   0  0  0  0  0  0  0  0  0  0  0  0
   -1.8799    1.6438   -2.5337 C   0  0  0  0  0  0  0  0  0  0  0  0
   -1.4057    2.6263   -2.4405 H   0  0  0  0  0  0  0  0  0  0  0  0
   -2.4931    1.6394   -3.4402 H   0  0  0  0  0  0  0  0  0  0  0  0
   -2.5390    1.4920   -1.6732 H   0  0  0  0  0  0  0  0  0  0  0  0
    0.0594    0.7595   -3.8322 C   0  0  0  0  0  0  0  0  0  0  0  0
    0.8114   -0.0323   -3.9111 H   0  0  0  0  0  0  0  0  0  0  0  0
   -0.5475    0.7469   -4.7429 H   0  0  0  0  0  0  0  0  0  0  0  0
    0.5740    1.7240   -3.7717 H   0  0  0  0  0  0  0  0  0  0  0  0
    0.5239   -0.4413    0.9714 C   0  0  0  0  0  0  0  0  0  0  0  0
    1.7229   -0.3887    1.2116 O   0  0  0  0  0  0  0  0  0  0  0  0
   -0.3706    0.0499    1.9058 N   0  0  0  0  0  0  0  0  0  0  0  0
   -1.3540   -0.0880    1.6987 H   0  0  0  0  0  0  0  0  0  0  0  0
    0.0182    0.3838    3.2701 C   0  0  0  0  0  0  0  0  0  0  0  0
    0.7973    1.1535    3.2699 H   0  0  0  0  0  0  0  0  0  0  0  0
   -0.8429    0.7670    3.8258 H   0  0  0  0  0  0  0  0  0  0  0  0
    0.3992   -0.5037    3.7864 H   0  0  0  0  0  0  0  0  0  0  0  0
  1  2  1  0  0  0  0
  2  3  1  0  0  0  0
  2  4  1  0  0  0  0
  2  5  1  0  0  0  0
  5  6  2  0  0  0  0
  5  7  1  0  0  0  0
  7  8  1  0  0  0  0
  7  9  1  0  0  0  0
  9 10  1  0  0  0  0
  9 11  1  0  0  0  0
  9 24  1  0  0  0  0
 11 12  1  0  0  0  0
 11 13  1  0  0  0  0
 11 14  1  0  0  0  0
 14 15  1  0  0  0  0
 14 16  1  0  0  0  0
 14 20  1  0  0  0  0
 16 17  1  0  0  0  0
 16 18  1  0  0  0  0
 16 19  1  0  0  0  0
 20 21  1  0  0  0  0
 20 22  1  0  0  0  0
 20 23  1  0  0  0  0
 24 25  2  0  0  0  0
 24 26  1  0  0  0  0
 26 27  1  0  0  0  0
 26 28  1  0  0  0  0
 28 29  1  0  0  0  0
 28 30  1  0  0  0  0
 28 31  1  0  0  0  0
M  END
$$$$

  -OEChem-04042216013D

 31 30  0     1  0  0  0  0  0999 V2000
   -2.7820   -4.4112    0.2895 H   0  0  0  0  0  0  0  0  0  0  0  0
   -2.7870   -3.4340   -0.2019 C   0  0  0  0  0  0  0  0  0  0  0  0
   -3.5946   -2.8319    0.2210 H   0  0  0  0  0  0  0  0  0  0  0  0
   -2.9688   -3.5793   -1.2695 H   0  0  0  0  0  0  0  0  0  0  0  0
   -1.4551   -2.7382    0.0077 C   0  0  0  0  0  0  0  0  0  0  0  0
   -0.5848   -3.2797    0.6647 O   0  0  0  0  0  0  0  0  0  0  0  0
   -1.2419   -1.4897   -0.5426 N   0  0  0  0  0  0  0  0  0  0  0  0
   -1.9898   -1.1037   -1.1098 H   0  0  0  0  0  0  0  0  0  0  0  0
    0.0340   -0.7512   -0.4707 C   0  0  1  0  0  0  0  0  0  0  0  0
    0.7908   -1.4165   -0.9016 H   0  0  0  0  0  0  0  0  0  0  0  0
    0.0522    0.5424   -1.3238 C   0  0  0  0  0  0  0  0  0  0  0  0
   -0.2974    1.3544   -0.6768 H   0  0  0  0  0  0  0  0  0  0  0  0
    1.0923    0.7804   -1.5727 H   0  0  0  0  0  0  0  0  0  0  0  0
   -0.8199    0.5560   -2.6112 C   0  0  0  0  0  0  0  0  0  0  0  0
   -1.5557   -0.2498   -2.6106 H   0  0  0  0  0  0  0  0  0  0  0  0
   -1.5979    1.8726   -2.7222 C   0  0  0  0  0  0  0  0  0  0  0  0
   -0.9117    2.7257   -2.7403 H   0  0  0  0  0  0  0  0  0  0  0  0
   -2.1938    1.8871   -3.6402 H   0  0  0  0  0  0  0  0  0  0  0  0
   -2.2768    1.9888   -1.8716 H   0  0  0  0  0  0  0  0  0  0  0  0
    0.0684    0.3643   -3.8454 C   0  0  0  0  0  0  0  0  0  0  0  0
    0.6204   -0.5782   -3.7728 H   0  0  0  0  0  0  0  0  0  0  0  0
   -0.5416    0.3364   -4.7538 H   0  0  0  0  0  0  0  0  0  0  0  0
    0.7887    1.1839   -3.9368 H   0  0  0  0  0  0  0  0  0  0  0  0
    0.5155   -0.4373    0.9632 C   0  0  0  0  0  0  0  0  0  0  0  0
    1.7146   -0.3801    1.2016 O   0  0  0  0  0  0  0  0  0  0  0  0
   -0.3797    0.0460    1.9008 N   0  0  0  0  0  0  0  0  0  0  0  0
   -1.3632   -0.0888    1.6922 H   0  0  0  0  0  0  0  0  0  0  0  0
    0.0085    0.3798    3.2654 C   0  0  0  0  0  0  0  0  0  0  0  0
    0.7818    1.1553    3.2667 H   0  0  0  0  0  0  0  0  0  0  0  0
   -0.8550    0.7548    3.8231 H   0  0  0  0  0  0  0  0  0  0  0  0
    0.3971   -0.5061    3.7788 H   0  0  0  0  0  0  0  0  0  0  0  0
  1  2  1  0  0  0  0
  2  3  1  0  0  0  0
  2  4  1  0  0  0  0
  2  5  1  0  0  0  0
  5  6  2  0  0  0  0
  5  7  1  0  0  0  0
  7  8  1  0  0  0  0
  7  9  1  0  0  0  0
  9 10  1  0  0  0  0
  9 11  1  0  0  0  0
  9 24  1  0  0  0  0
 11 12  1  0  0  0  0
 11 13  1  0  0  0  0
 11 14  1  0  0  0  0
 14 15  1  0  0  0  0
 14 16  1  0  0  0  0
 14 20  1  0  0  0  0
 16 17  1  0  0  0  0
 16 18  1  0  0  0  0
 16 19  1  0  0  0  0
 20 21  1  0  0  0  0
 20 22  1  0  0  0  0
 20 23  1  0  0  0  0
 24 25  2  0  0  0  0
 24 26  1  0  0  0  0
 26 27  1  0  0  0  0
 26 28  1  0  0  0  0
 28 29  1  0  0  0  0
 28 30  1  0  0  0  0
 28 31  1  0  0  0  0
M  END
$$$$

  -OEChem-04042216013D

 31 30  0     1  0  0  0  0  0999 V2000
   -2.7750   -4.4196    0.2512 H   0  0  0  0  0  0  0  0  0  0  0  0
   -2.7817   -3.4391   -0.2336 C   0  0  0  0  0  0  0  0  0  0  0  0
   -3.6051   -2.8495    0.1765 H   0  0  0  0  0  0  0  0  0  0  0  0
   -2.9398   -3.5791   -1.3058 H   0  0  0  0  0  0  0  0  0  0  0  0
   -1.4623   -2.7300    0.0078 C   0  0  0  0  0  0  0  0  0  0  0  0
   -0.6038   -3.2617    0.6880 O   0  0  0  0  0  0  0  0  0  0  0  0
   -1.2464   -1.4820   -0.5427 N   0  0  0  0  0  0  0  0  0  0  0  0
   -1.9765   -1.1164   -1.1448 H   0  0  0  0  0  0  0  0  0  0  0  0
    0.0313   -0.7466   -0.4685 C   0  0  1  0  0  0  0  0  0  0  0  0
    0.7870   -1.4143   -0.8974 H   0  0  0  0  0  0  0  0  0  0  0  0
    0.0541    0.5465   -1.3227 C   0  0  0  0  0  0  0  0  0  0  0  0
   -0.3051    1.3566   -0.6787 H   0  0  0  0  0  0  0  0  0  0  0  0
    1.0927    0.7885   -1.5743 H   0  0  0  0  0  0  0  0  0  0  0  0
   -0.8158    0.5564   -2.6068 C   0  0  0  0  0  0  0  0  0  0  0  0
   -1.7218   -0.0382   -2.4762 H   0  0  0  0  0  0  0  0  0  0  0  0
   -1.2876    1.9812   -2.9175 C   0  0  0  0  0  0  0  0  0  0  0  0
   -0.4308    2.6503   -3.0475 H   0  0  0  0  0  0  0  0  0  0  0  0
   -1.8809    1.9944   -3.8372 H   0  0  0  0  0  0  0  0  0  0  0  0
   -1.9104    2.3659   -2.1038 H   0  0  0  0  0  0  0  0  0  0  0  0
   -0.0271   -0.0272   -3.7832 C   0  0  0  0  0  0  0  0  0  0  0  0
    0.2869   -1.0515   -3.5593 H   0  0  0  0  0  0  0  0  0  0  0  0
   -0.6460   -0.0467   -4.6857 H   0  0  0  0  0  0  0  0  0  0  0  0
    0.8649    0.5736   -3.9880 H   0  0  0  0  0  0  0  0  0  0  0  0
    0.5135   -0.4325    0.9654 C   0  0  0  0  0  0  0  0  0  0  0  0
    1.7131   -0.3717    1.2006 O   0  0  0  0  0  0  0  0  0  0  0  0
   -0.3797    0.0539    1.9034 N   0  0  0  0  0  0  0  0  0  0  0  0
   -1.3632   -0.0887    1.7002 H   0  0  0  0  0  0  0  0  0  0  0  0
    0.0137    0.3985    3.2637 C   0  0  0  0  0  0  0  0  0  0  0  0
    0.7798    1.1810    3.2549 H   0  0  0  0  0  0  0  0  0  0  0  0
   -0.8494    0.7689    3.8249 H   0  0  0  0  0  0  0  0  0  0  0  0
    0.4138   -0.4806    3.7797 H   0  0  0  0  0  0  0  0  0  0  0  0
  1  2  1  0  0  0  0
  2  3  1  0  0  0  0
  2  4  1  0  0  0  0
  2  5  1  0  0  0  0
  5  6  2  0  0  0  0
  5  7  1  0  0  0  0
  7  8  1  0  0  0  0
  7  9  1  0  0  0  0
  9 10  1  0  0  0  0
  9 11  1  0  0  0  0
  9 24  1  0  0  0  0
 11 12  1  0  0  0  0
 11 13  1  0  0  0  0
 11 14  1  0  0  0  0
 14 15  1  0  0  0  0
 14 16  1  0  0  0  0
 14 20  1  0  0  0  0
 16 17  1  0  0  0  0
 16 18  1  0  0  0  0
 16 19  1  0  0  0  0
 20 21  1  0  0  0  0
 20 22  1  0  0  0  0
 20 23  1  0  0  0  0
 24 25  2  0  0  0  0
 24 26  1  0  0  0  0
 26 27  1  0  0  0  0
 26 28  1  0  0  0  0
 28 29  1  0  0  0  0
 28 30  1  0  0  0  0
 28 31  1  0  0  0  0
M  END
$$$$

  -OEChem-04042216013D

 31 30  0     1  0  0  0  0  0999 V2000
   -2.7806   -4.4110    0.2218 H   0  0  0  0  0  0  0  0  0  0  0  0
   -2.7780   -3.4314   -0.2646 C   0  0  0  0  0  0  0  0  0  0  0  0
   -3.6146   -2.8445    0.1218 H   0  0  0  0  0  0  0  0  0  0  0  0
   -2.9063   -3.5739   -1.3403 H   0  0  0  0  0  0  0  0  0  0  0  0
   -1.4692   -2.7155    0.0121 C   0  0  0  0  0  0  0  0  0  0  0  0
   -0.6315   -3.2378    0.7247 O   0  0  0  0  0  0  0  0  0  0  0  0
   -1.2399   -1.4725   -0.5444 N   0  0  0  0  0  0  0  0  0  0  0  0
   -1.9381   -1.1343   -1.1984 H   0  0  0  0  0  0  0  0  0  0  0  0
    0.0442   -0.7482   -0.4648 C   0  0  1  0  0  0  0  0  0  0  0  0
    0.7994   -1.4189   -0.8898 H   0  0  0  0  0  0  0  0  0  0  0  0
    0.0631    0.5443   -1.3186 C   0  0  0  0  0  0  0  0  0  0  0  0
   -0.2882    1.3642   -0.6826 H   0  0  0  0  0  0  0  0  0  0  0  0
    1.1002    0.7747   -1.5867 H   0  0  0  0  0  0  0  0  0  0  0  0
   -0.8158    0.5375   -2.5914 C   0  0  0  0  0  0  0  0  0  0  0  0
   -1.8203    0.1734   -2.3604 H   0  0  0  0  0  0  0  0  0  0  0  0
   -0.9841    1.9683   -3.1135 C   0  0  0  0  0  0  0  0  0  0  0  0
   -0.0107    2.4086   -3.3526 H   0  0  0  0  0  0  0  0  0  0  0  0
   -1.5990    1.9735   -4.0191 H   0  0  0  0  0  0  0  0  0  0  0  0
   -1.4751    2.5956   -2.3629 H   0  0  0  0  0  0  0  0  0  0  0  0
   -0.1988   -0.3598   -3.6702 C   0  0  0  0  0  0  0  0  0  0  0  0
   -0.1197   -1.3914   -3.3138 H   0  0  0  0  0  0  0  0  0  0  0  0
   -0.8205   -0.3554   -4.5710 H   0  0  0  0  0  0  0  0  0  0  0  0
    0.8026   -0.0079   -3.9387 H   0  0  0  0  0  0  0  0  0  0  0  0
    0.5216   -0.4292    0.9696 C   0  0  0  0  0  0  0  0  0  0  0  0
    1.7207   -0.3753    1.2099 O   0  0  0  0  0  0  0  0  0  0  0  0
   -0.3729    0.0713    1.8988 N   0  0  0  0  0  0  0  0  0  0  0  0
   -1.3560   -0.0695    1.6917 H   0  0  0  0  0  0  0  0  0  0  0  0
    0.0144    0.4175    3.2604 C   0  0  0  0  0  0  0  0  0  0  0  0
    0.7904    1.1903    3.2542 H   0  0  0  0  0  0  0  0  0  0  0  0
   -0.8483    0.8014    3.8130 H   0  0  0  0  0  0  0  0  0  0  0  0
    0.3992   -0.4641    3.7841 H   0  0  0  0  0  0  0  0  0  0  0  0
  1  2  1  0  0  0  0
  2  3  1  0  0  0  0
  2  4  1  0  0  0  0
  2  5  1  0  0  0  0
  5  6  2  0  0  0  0
  5  7  1  0  0  0  0
  7  8  1  0  0  0  0
  7  9  1  0  0  0  0
  9 10  1  0  0  0  0
  9 11  1  0  0  0  0
  9 24  1  0  0  0  0
 11 12  1  0  0  0  0
 11 13  1  0  0  0  0
 11 14  1  0  0  0  0
 14 15  1  0  0  0  0
 14 16  1  0  0  0  0
 14 20  1  0  0  0  0
 16 17  1  0  0  0  0
 16 18  1  0  0  0  0
 16 19  1  0  0  0  0
 20 21  1  0  0  0  0
 20 22  1  0  0  0  0
 20 23  1  0  0  0  0
 24 25  2  0  0  0  0
 24 26  1  0  0  0  0
 26 27  1  0  0  0  0
 26 28  1  0  0  0  0
 28 29  1  0  0  0  0
 28 30  1  0  0  0  0
 28 31  1  0  0  0  0
M  END
$$$$

  -OEChem-04042216013D

 31 30  0     1  0  0  0  0  0999 V2000
   -2.7600   -4.4434    0.3139 H   0  0  0  0  0  0  0  0  0  0  0  0
   -2.7663   -3.4727   -0.1900 C   0  0  0  0  0  0  0  0  0  0  0  0
   -3.6073   -2.8860    0.1871 H   0  0  0  0  0  0  0  0  0  0  0  0
   -2.8937   -3.6352   -1.2630 H   0  0  0  0  0  0  0  0  0  0  0  0
   -1.4639   -2.7411    0.0724 C   0  0  0  0  0  0  0  0  0  0  0  0
   -0.6178   -3.2470    0.7868 O   0  0  0  0  0  0  0  0  0  0  0  0
   -1.2497   -1.5028   -0.4999 N   0  0  0  0  0  0  0  0  0  0  0  0
   -1.9496   -1.1818   -1.1619 H   0  0  0  0  0  0  0  0  0  0  0  0
    0.0284   -0.7671   -0.4417 C   0  0  1  0  0  0  0  0  0  0  0  0
    0.7843   -1.4392   -0.8634 H   0  0  0  0  0  0  0  0  0  0  0  0
    0.0329    0.5149   -1.3168 C   0  0  0  0  0  0  0  0  0  0  0  0
   -0.0407    1.3821   -0.6512 H   0  0  0  0  0  0  0  0  0  0  0  0
    1.0092    0.5813   -1.8092 H   0  0  0  0  0  0  0  0  0  0  0  0
   -1.0838    0.6673   -2.3777 C   0  0  0  0  0  0  0  0  0  0  0  0
   -2.0652    0.6697   -1.8920 H   0  0  0  0  0  0  0  0  0  0  0  0
   -0.8832    2.0000   -3.1119 C   0  0  0  0  0  0  0  0  0  0  0  0
    0.0856    2.0226   -3.6214 H   0  0  0  0  0  0  0  0  0  0  0  0
   -1.6710    2.1496   -3.8570 H   0  0  0  0  0  0  0  0  0  0  0  0
   -0.9210    2.8346   -2.4047 H   0  0  0  0  0  0  0  0  0  0  0  0
   -1.0254   -0.4436   -3.4442 C   0  0  0  0  0  0  0  0  0  0  0  0
   -1.2199   -1.4311   -3.0219 H   0  0  0  0  0  0  0  0  0  0  0  0
   -1.7750   -0.2619   -4.2210 H   0  0  0  0  0  0  0  0  0  0  0  0
   -0.0381   -0.4663   -3.9170 H   0  0  0  0  0  0  0  0  0  0  0  0
    0.5134   -0.4301    0.9861 C   0  0  0  0  0  0  0  0  0  0  0  0
    1.7135   -0.3661    1.2183 O   0  0  0  0  0  0  0  0  0  0  0  0
   -0.3795    0.0715    1.9160 N   0  0  0  0  0  0  0  0  0  0  0  0
   -1.3627   -0.0775    1.7149 H   0  0  0  0  0  0  0  0  0  0  0  0
    0.0129    0.4274    3.2736 C   0  0  0  0  0  0  0  0  0  0  0  0
    0.7878    1.2011    3.2593 H   0  0  0  0  0  0  0  0  0  0  0  0
   -0.8482    0.8136    3.8271 H   0  0  0  0  0  0  0  0  0  0  0  0
    0.4007   -0.4504    3.8013 H   0  0  0  0  0  0  0  0  0  0  0  0
  1  2  1  0  0  0  0
  2  3  1  0  0  0  0
  2  4  1  0  0  0  0
  2  5  1  0  0  0  0
  5  6  2  0  0  0  0
  5  7  1  0  0  0  0
  7  8  1  0  0  0  0
  7  9  1  0  0  0  0
  9 10  1  0  0  0  0
  9 11  1  0  0  0  0
  9 24  1  0  0  0  0
 11 12  1  0  0  0  0
 11 13  1  0  0  0  0
 11 14  1  0  0  0  0
 14 15  1  0  0  0  0
 14 16  1  0  0  0  0
 14 20  1  0  0  0  0
 16 17  1  0  0  0  0
 16 18  1  0  0  0  0
 16 19  1  0  0  0  0
 20 21  1  0  0  0  0
 20 22  1  0  0  0  0
 20 23  1  0  0  0  0
 24 25  2  0  0  0  0
 24 26  1  0  0  0  0
 26 27  1  0  0  0  0
 26 28  1  0  0  0  0
 28 29  1  0  0  0  0
 28 30  1  0  0  0  0
 28 31  1  0  0  0  0
M  END
$$$$

  -OEChem-04042216013D

 31 30  0     1  0  0  0  0  0999 V2000
   -2.7084   -4.4799    0.4231 H   0  0  0  0  0  0  0  0  0  0  0  0
   -2.7356   -3.5159   -0.0931 C   0  0  0  0  0  0  0  0  0  0  0  0
   -3.5614   -2.9247    0.3098 H   0  0  0  0  0  0  0  0  0  0  0  0
   -2.9066   -3.6926   -1.1577 H   0  0  0  0  0  0  0  0  0  0  0  0
   -1.4240   -2.7802    0.1069 C   0  0  0  0  0  0  0  0  0  0  0  0
   -0.5438   -3.2822    0.7818 O   0  0  0  0  0  0  0  0  0  0  0  0
   -1.2415   -1.5406   -0.4736 N   0  0  0  0  0  0  0  0  0  0  0  0
   -1.9864   -1.2002   -1.0733 H   0  0  0  0  0  0  0  0  0  0  0  0
    0.0171   -0.7762   -0.4376 C   0  0  1  0  0  0  0  0  0  0  0  0
    0.7815   -1.4390   -0.8589 H   0  0  0  0  0  0  0  0  0  0  0  0
    0.0003    0.4983   -1.3252 C   0  0  0  0  0  0  0  0  0  0  0  0
   -0.0644    1.3733   -0.6689 H   0  0  0  0  0  0  0  0  0  0  0  0
    0.9801    0.5495   -1.8133 H   0  0  0  0  0  0  0  0  0  0  0  0
   -1.1032    0.6762   -2.4048 C   0  0  0  0  0  0  0  0  0  0  0  0
   -2.0541    0.9383   -1.9289 H   0  0  0  0  0  0  0  0  0  0  0  0
   -0.6551    1.8085   -3.3431 C   0  0  0  0  0  0  0  0  0  0  0  0
    0.2592    1.5351   -3.8805 H   0  0  0  0  0  0  0  0  0  0  0  0
   -1.4356    2.0316   -4.0775 H   0  0  0  0  0  0  0  0  0  0  0  0
   -0.4601    2.7211   -2.7710 H   0  0  0  0  0  0  0  0  0  0  0  0
   -1.2971   -0.5547   -3.3175 C   0  0  0  0  0  0  0  0  0  0  0  0
   -1.9164   -1.3206   -2.8487 H   0  0  0  0  0  0  0  0  0  0  0  0
   -1.8024   -0.2701   -4.2461 H   0  0  0  0  0  0  0  0  0  0  0  0
   -0.3288   -0.9951   -3.5762 H   0  0  0  0  0  0  0  0  0  0  0  0
    0.5081   -0.4223    0.9843 C   0  0  0  0  0  0  0  0  0  0  0  0
    1.7084   -0.3326    1.2066 O   0  0  0  0  0  0  0  0  0  0  0  0
   -0.3872    0.0619    1.9215 N   0  0  0  0  0  0  0  0  0  0  0  0
   -1.3693   -0.1023    1.7276 H   0  0  0  0  0  0  0  0  0  0  0  0
    0.0085    0.4365    3.2733 C   0  0  0  0  0  0  0  0  0  0  0  0
    0.7684    1.2245    3.2467 H   0  0  0  0  0  0  0  0  0  0  0  0
   -0.8556    0.8113    3.8299 H   0  0  0  0  0  0  0  0  0  0  0  0
    0.4170   -0.4291    3.8054 H   0  0  0  0  0  0  0  0  0  0  0  0
  1  2  1  0  0  0  0
  2  3  1  0  0  0  0
  2  4  1  0  0  0  0
  2  5  1  0  0  0  0
  5  6  2  0  0  0  0
  5  7  1  0  0  0  0
  7  8  1  0  0  0  0
  7  9  1  0  0  0  0
  9 10  1  0  0  0  0
  9 11  1  0  0  0  0
  9 24  1  0  0  0  0
 11 12  1  0  0  0  0
 11 13  1  0  0  0  0
 11 14  1  0  0  0  0
 14 15  1  0  0  0  0
 14 16  1  0  0  0  0
 14 20  1  0  0  0  0
 16 17  1  0  0  0  0
 16 18  1  0  0  0  0
 16 19  1  0  0  0  0
 20 21  1  0  0  0  0
 20 22  1  0  0  0  0
 20 23  1  0  0  0  0
 24 25  2  0  0  0  0
 24 26  1  0  0  0  0
 26 27  1  0  0  0  0
 26 28  1  0  0  0  0
 28 29  1  0  0  0  0
 28 30  1  0  0  0  0
 28 31  1  0  0  0  0
M  END
$$$$

  -OEChem-04042216013D

 31 30  0     1  0  0  0  0  0999 V2000
   -2.6472   -4.5230    0.5280 H   0  0  0  0  0  0  0  0  0  0  0  0
   -2.7008   -3.5660    0.0012 C   0  0  0  0  0  0  0  0  0  0  0  0
   -3.5145   -2.9751    0.4279 H   0  0  0  0  0  0  0  0  0  0  0  0
   -2.9112   -3.7575   -1.0538 H   0  0  0  0  0  0  0  0  0  0  0  0
   -1.3871   -2.8205    0.1411 C   0  0  0  0  0  0  0  0  0  0  0  0
   -0.4725   -3.3163    0.7737 O   0  0  0  0  0  0  0  0  0  0  0  0
   -1.2399   -1.5797   -0.4466 N   0  0  0  0  0  0  0  0  0  0  0  0
   -2.0268   -1.2249   -0.9791 H   0  0  0  0  0  0  0  0  0  0  0  0
    0.0004   -0.7872   -0.4337 C   0  0  1  0  0  0  0  0  0  0  0  0
    0.7701   -1.4442   -0.8547 H   0  0  0  0  0  0  0  0  0  0  0  0
   -0.0211    0.4835   -1.3319 C   0  0  0  0  0  0  0  0  0  0  0  0
   -0.0787    1.3612   -0.6787 H   0  0  0  0  0  0  0  0  0  0  0  0
    0.9680    0.5219   -1.8021 H   0  0  0  0  0  0  0  0  0  0  0  0
   -1.1028    0.7025   -2.4363 C   0  0  0  0  0  0  0  0  0  0  0  0
   -1.9576    1.2365   -2.0076 H   0  0  0  0  0  0  0  0  0  0  0  0
   -0.4592    1.5520   -3.5461 C   0  0  0  0  0  0  0  0  0  0  0  0
    0.3430    1.0001   -4.0475 H   0  0  0  0  0  0  0  0  0  0  0  0
   -1.2045    1.8381   -4.2953 H   0  0  0  0  0  0  0  0  0  0  0  0
   -0.0372    2.4701   -3.1246 H   0  0  0  0  0  0  0  0  0  0  0  0
   -1.6117   -0.5668   -3.1530 C   0  0  0  0  0  0  0  0  0  0  0  0
   -2.4282   -1.0360   -2.6001 H   0  0  0  0  0  0  0  0  0  0  0  0
   -2.0096   -0.3241   -4.1439 H   0  0  0  0  0  0  0  0  0  0  0  0
   -0.7985   -1.2888   -3.2811 H   0  0  0  0  0  0  0  0  0  0  0  0
    0.5000   -0.4188    0.9815 C   0  0  0  0  0  0  0  0  0  0  0  0
    1.7003   -0.3001    1.1897 O   0  0  0  0  0  0  0  0  0  0  0  0
   -0.3952    0.0470    1.9281 N   0  0  0  0  0  0  0  0  0  0  0  0
   -1.3763   -0.1327    1.7443 H   0  0  0  0  0  0  0  0  0  0  0  0
    0.0074    0.4358    3.2736 C   0  0  0  0  0  0  0  0  0  0  0  0
    0.7510    1.2389    3.2349 H   0  0  0  0  0  0  0  0  0  0  0  0
   -0.8580    0.7958    3.8380 H   0  0  0  0  0  0  0  0  0  0  0  0
    0.4389   -0.4192    3.8048 H   0  0  0  0  0  0  0  0  0  0  0  0
  1  2  1  0  0  0  0
  2  3  1  0  0  0  0
  2  4  1  0  0  0  0
  2  5  1  0  0  0  0
  5  6  2  0  0  0  0
  5  7  1  0  0  0  0
  7  8  1  0  0  0  0
  7  9  1  0  0  0  0
  9 10  1  0  0  0  0
  9 11  1  0  0  0  0
  9 24  1  0  0  0  0
 11 12  1  0  0  0  0
 11 13  1  0  0  0  0
 11 14  1  0  0  0  0
 14 15  1  0  0  0  0
 14 16  1  0  0  0  0
 14 20  1  0  0  0  0
 16 17  1  0  0  0  0
 16 18  1  0  0  0  0
 16 19  1  0  0  0  0
 20 21  1  0  0  0  0
 20 22  1  0  0  0  0
 20 23  1  0  0  0  0
 24 25  2  0  0  0  0
 24 26  1  0  0  0  0
 26 27  1  0  0  0  0
 26 28  1  0  0  0  0
 28 29  1  0  0  0  0
 28 30  1  0  0  0  0
 28 31  1  0  0  0  0
M  END
$$$$

  -OEChem-04042216013D

 31 30  0     1  0  0  0  0  0999 V2000
   -2.4942   -4.5629    0.7839 H   0  0  0  0  0  0  0  0  0  0  0  0
   -2.5990   -3.6267    0.2279 C   0  0  0  0  0  0  0  0  0  0  0  0
   -3.4267   -3.0551    0.6544 H   0  0  0  0  0  0  0  0  0  0  0  0
   -2.8246   -3.8620   -0.8150 H   0  0  0  0  0  0  0  0  0  0  0  0
   -1.3146   -2.8239    0.3123 C   0  0  0  0  0  0  0  0  0  0  0  0
   -0.3793   -3.2432    0.9694 O   0  0  0  0  0  0  0  0  0  0  0  0
   -1.2179   -1.6193   -0.3561 N   0  0  0  0  0  0  0  0  0  0  0  0
   -2.0177   -1.3372   -0.9102 H   0  0  0  0  0  0  0  0  0  0  0  0
   -0.0077   -0.7830   -0.4082 C   0  0  1  0  0  0  0  0  0  0  0  0
    0.7803   -1.4453   -0.7849 H   0  0  0  0  0  0  0  0  0  0  0  0
   -0.0430    0.4312   -1.3870 C   0  0  0  0  0  0  0  0  0  0  0  0
   -0.1276    1.3382   -0.7782 H   0  0  0  0  0  0  0  0  0  0  0  0
    0.9591    0.4676   -1.8287 H   0  0  0  0  0  0  0  0  0  0  0  0
   -1.0989    0.6111   -2.5311 C   0  0  0  0  0  0  0  0  0  0  0  0
   -1.7920    1.4059   -2.2341 H   0  0  0  0  0  0  0  0  0  0  0  0
   -0.3474    1.0566   -3.7975 C   0  0  0  0  0  0  0  0  0  0  0  0
    0.3162    0.2623   -4.1554 H   0  0  0  0  0  0  0  0  0  0  0  0
   -1.0506    1.3091   -4.5976 H   0  0  0  0  0  0  0  0  0  0  0  0
    0.2556    1.9464   -3.5892 H   0  0  0  0  0  0  0  0  0  0  0  0
   -1.9401   -0.6065   -2.9563 C   0  0  0  0  0  0  0  0  0  0  0  0
   -2.4123   -0.4289   -3.9279 H   0  0  0  0  0  0  0  0  0  0  0  0
   -2.7506   -0.7875   -2.2464 H   0  0  0  0  0  0  0  0  0  0  0  0
   -1.3147   -1.5009   -3.0434 H   0  0  0  0  0  0  0  0  0  0  0  0
    0.4830   -0.3095    0.9793 C   0  0  0  0  0  0  0  0  0  0  0  0
    1.6782   -0.1275    1.1712 O   0  0  0  0  0  0  0  0  0  0  0  0
   -0.4258    0.1804    1.9002 N   0  0  0  0  0  0  0  0  0  0  0  0
   -1.3997   -0.0501    1.7358 H   0  0  0  0  0  0  0  0  0  0  0  0
   -0.0330    0.6837    3.2101 C   0  0  0  0  0  0  0  0  0  0  0  0
    0.6554    1.5289    3.1057 H   0  0  0  0  0  0  0  0  0  0  0  0
   -0.9130    1.0233    3.7645 H   0  0  0  0  0  0  0  0  0  0  0  0
    0.4609   -0.1037    3.7893 H   0  0  0  0  0  0  0  0  0  0  0  0
  1  2  1  0  0  0  0
  2  3  1  0  0  0  0
  2  4  1  0  0  0  0
  2  5  1  0  0  0  0
  5  6  2  0  0  0  0
  5  7  1  0  0  0  0
  7  8  1  0  0  0  0
  7  9  1  0  0  0  0
  9 10  1  0  0  0  0
  9 11  1  0  0  0  0
  9 24  1  0  0  0  0
 11 12  1  0  0  0  0
 11 13  1  0  0  0  0
 11 14  1  0  0  0  0
 14 15  1  0  0  0  0
 14 16  1  0  0  0  0
 14 20  1  0  0  0  0
 16 17  1  0  0  0  0
 16 18  1  0  0  0  0
 16 19  1  0  0  0  0
 20 21  1  0  0  0  0
 20 22  1  0  0  0  0
 20 23  1  0  0  0  0
 24 25  2  0  0  0  0
 24 26  1  0  0  0  0
 26 27  1  0  0  0  0
 26 28  1  0  0  0  0
 28 29  1  0  0  0  0
 28 30  1  0  0  0  0
 28 31  1  0  0  0  0
M  END
$$$$

  -OEChem-04042216013D

 31 30  0     1  0  0  0  0  0999 V2000
   -2.2267   -4.7528    0.5462 H   0  0  0  0  0  0  0  0  0  0  0  0
   -2.3951   -3.7965    0.0428 C   0  0  0  0  0  0  0  0  0  0  0  0
   -3.2570   -3.3053    0.5003 H   0  0  0  0  0  0  0  0  0  0  0  0
   -2.6088   -3.9878   -1.0115 H   0  0  0  0  0  0  0  0  0  0  0  0
   -1.1662   -2.9164    0.1711 C   0  0  0  0  0  0  0  0  0  0  0  0
   -0.1931   -3.3198    0.7817 O   0  0  0  0  0  0  0  0  0  0  0  0
   -1.1644   -1.6612   -0.4050 N   0  0  0  0  0  0  0  0  0  0  0  0
   -1.9772   -1.4168   -0.9579 H   0  0  0  0  0  0  0  0  0  0  0  0
    0.0016   -0.7633   -0.4528 C   0  0  1  0  0  0  0  0  0  0  0  0
    0.7958   -1.3601   -0.9157 H   0  0  0  0  0  0  0  0  0  0  0  0
   -0.1182    0.5219   -1.3333 C   0  0  0  0  0  0  0  0  0  0  0  0
   -0.2359    1.3595   -0.6369 H   0  0  0  0  0  0  0  0  0  0  0  0
    0.8674    0.6633   -1.7905 H   0  0  0  0  0  0  0  0  0  0  0  0
   -1.2206    0.7672   -2.4216 C   0  0  0  0  0  0  0  0  0  0  0  0
   -1.7114    1.7129   -2.1655 H   0  0  0  0  0  0  0  0  0  0  0  0
   -0.5342    0.9674   -3.7815 C   0  0  0  0  0  0  0  0  0  0  0  0
   -0.0116    0.0551   -4.0871 H   0  0  0  0  0  0  0  0  0  0  0  0
   -1.2688    1.2217   -4.5522 H   0  0  0  0  0  0  0  0  0  0  0  0
    0.1921    1.7847   -3.7279 H   0  0  0  0  0  0  0  0  0  0  0  0
   -2.3438   -0.2595   -2.6201 C   0  0  0  0  0  0  0  0  0  0  0  0
   -2.9907    0.0446   -3.4493 H   0  0  0  0  0  0  0  0  0  0  0  0
   -1.9354   -1.2465   -2.8591 H   0  0  0  0  0  0  0  0  0  0  0  0
   -2.9727   -0.3189   -1.7273 H   0  0  0  0  0  0  0  0  0  0  0  0
    0.5425   -0.3756    0.9430 C   0  0  0  0  0  0  0  0  0  0  0  0
    1.7375   -0.1545    1.0906 O   0  0  0  0  0  0  0  0  0  0  0  0
   -0.3379   -0.0056    1.9439 N   0  0  0  0  0  0  0  0  0  0  0  0
   -1.3051   -0.2798    1.8092 H   0  0  0  0  0  0  0  0  0  0  0  0
    0.1015    0.3791    3.2790 C   0  0  0  0  0  0  0  0  0  0  0  0
    0.7774    1.2391    3.2278 H   0  0  0  0  0  0  0  0  0  0  0  0
   -0.7596    0.6547    3.8951 H   0  0  0  0  0  0  0  0  0  0  0  0
    0.6244   -0.4524    3.7632 H   0  0  0  0  0  0  0  0  0  0  0  0
  1  2  1  0  0  0  0
  2  3  1  0  0  0  0
  2  4  1  0  0  0  0
  2  5  1  0  0  0  0
  5  6  2  0  0  0  0
  5  7  1  0  0  0  0
  7  8  1  0  0  0  0
  7  9  1  0  0  0  0
  9 10  1  0  0  0  0
  9 11  1  0  0  0  0
  9 24  1  0  0  0  0
 11 12  1  0  0  0  0
 11 13  1  0  0  0  0
 11 14  1  0  0  0  0
 14 15  1  0  0  0  0
 14 16  1  0  0  0  0
 14 20  1  0  0  0  0
 16 17  1  0  0  0  0
 16 18  1  0  0  0  0
 16 19  1  0  0  0  0
 20 21  1  0  0  0  0
 20 22  1  0  0  0  0
 20 23  1  0  0  0  0
 24 25  2  0  0  0  0
 24 26  1  0  0  0  0
 26 27  1  0  0  0  0
 26 28  1  0  0  0  0
 28 29  1  0  0  0  0
 28 30  1  0  0  0  0
 28 31  1  0  0  0  0
M  END
$$$$

  -OEChem-04042216013D

 31 30  0     1  0  0  0  0  0999 V2000
   -2.5424   -4.6266    0.5795 H   0  0  0  0  0  0  0  0  0  0  0  0
   -2.6268   -3.6696    0.0564 C   0  0  0  0  0  0  0  0  0  0  0  0
   -3.4594   -3.1070    0.4853 H   0  0  0  0  0  0  0  0  0  0  0  0
   -2.8312   -3.8638   -0.9992 H   0  0  0  0  0  0  0  0  0  0  0  0
   -1.3380   -2.8818    0.1989 C   0  0  0  0  0  0  0  0  0  0  0  0
   -0.4143   -3.3435    0.8439 O   0  0  0  0  0  0  0  0  0  0  0  0
   -1.2263   -1.6421   -0.3999 N   0  0  0  0  0  0  0  0  0  0  0  0
   -2.0074   -1.3421   -0.9713 H   0  0  0  0  0  0  0  0  0  0  0  0
    0.0003   -0.8278   -0.4175 C   0  0  1  0  0  0  0  0  0  0  0  0
    0.7688   -1.4864   -0.8379 H   0  0  0  0  0  0  0  0  0  0  0  0
    0.0003    0.4407   -1.3280 C   0  0  0  0  0  0  0  0  0  0  0  0
   -0.1082    1.2938   -0.6489 H   0  0  0  0  0  0  0  0  0  0  0  0
    1.0078    0.5307   -1.7489 H   0  0  0  0  0  0  0  0  0  0  0  0
   -1.0476    0.7168   -2.4554 C   0  0  0  0  0  0  0  0  0  0  0  0
   -1.2468    1.7936   -2.4102 H   0  0  0  0  0  0  0  0  0  0  0  0
   -0.4035    0.4634   -3.8244 C   0  0  0  0  0  0  0  0  0  0  0  0
   -0.1196   -0.5891   -3.9238 H   0  0  0  0  0  0  0  0  0  0  0  0
   -1.1012    0.7135   -4.6300 H   0  0  0  0  0  0  0  0  0  0  0  0
    0.4926    1.0798   -3.9496 H   0  0  0  0  0  0  0  0  0  0  0  0
   -2.4268    0.0478   -2.4040 C   0  0  0  0  0  0  0  0  0  0  0  0
   -2.8843    0.1821   -1.4191 H   0  0  0  0  0  0  0  0  0  0  0  0
   -3.0894    0.5081   -3.1442 H   0  0  0  0  0  0  0  0  0  0  0  0
   -2.3574   -1.0182   -2.6411 H   0  0  0  0  0  0  0  0  0  0  0  0
    0.5145   -0.4471    0.9904 C   0  0  0  0  0  0  0  0  0  0  0  0
    1.7156   -0.3046    1.1794 O   0  0  0  0  0  0  0  0  0  0  0  0
   -0.3741    0.0051    1.9497 N   0  0  0  0  0  0  0  0  0  0  0  0
   -1.3537   -0.1992    1.7834 H   0  0  0  0  0  0  0  0  0  0  0  0
    0.0429    0.4023    3.2884 C   0  0  0  0  0  0  0  0  0  0  0  0
    0.7650    1.2238    3.2377 H   0  0  0  0  0  0  0  0  0  0  0  0
   -0.8208    0.7395    3.8691 H   0  0  0  0  0  0  0  0  0  0  0  0
    0.5054   -0.4420    3.8103 H   0  0  0  0  0  0  0  0  0  0  0  0
  1  2  1  0  0  0  0
  2  3  1  0  0  0  0
  2  4  1  0  0  0  0
  2  5  1  0  0  0  0
  5  6  2  0  0  0  0
  5  7  1  0  0  0  0
  7  8  1  0  0  0  0
  7  9  1  0  0  0  0
  9 10  1  0  0  0  0
  9 11  1  0  0  0  0
  9 24  1  0  0  0  0
 11 12  1  0  0  0  0
 11 13  1  0  0  0  0
 11 14  1  0  0  0  0
 14 15  1  0  0  0  0
 14 16  1  0  0  0  0
 14 20  1  0  0  0  0
 16 17  1  0  0  0  0
 16 18  1  0  0  0  0
 16 19  1  0  0  0  0
 20 21  1  0  0  0  0
 20 22  1  0  0  0  0
 20 23  1  0  0  0  0
 24 25  2  0  0  0  0
 24 26  1  0  0  0  0
 26 27  1  0  0  0  0
 26 28  1  0  0  0  0
 28 29  1  0  0  0  0
 28 30  1  0  0  0  0
 28 31  1  0  0  0  0
M  END
$$$$

  -OEChem-04042216013D

 31 30  0     1  0  0  0  0  0999 V2000
   -2.5605   -4.6009    0.5510 H   0  0  0  0  0  0  0  0  0  0  0  0
   -2.6295   -3.6439    0.0262 C   0  0  0  0  0  0  0  0  0  0  0  0
   -3.4666   -3.0761    0.4392 H   0  0  0  0  0  0  0  0  0  0  0  0
   -2.8147   -3.8371   -1.0331 H   0  0  0  0  0  0  0  0  0  0  0  0
   -1.3394   -2.8633    0.1931 C   0  0  0  0  0  0  0  0  0  0  0  0
   -0.4325   -3.3261    0.8607 O   0  0  0  0  0  0  0  0  0  0  0  0
   -1.2077   -1.6281   -0.4104 N   0  0  0  0  0  0  0  0  0  0  0  0
   -1.9708   -1.3308   -1.0064 H   0  0  0  0  0  0  0  0  0  0  0  0
    0.0245   -0.8228   -0.4108 C   0  0  1  0  0  0  0  0  0  0  0  0
    0.7978   -1.4819   -0.8215 H   0  0  0  0  0  0  0  0  0  0  0  0
    0.0188    0.4412   -1.3226 C   0  0  0  0  0  0  0  0  0  0  0  0
   -0.0935    1.3020   -0.6537 H   0  0  0  0  0  0  0  0  0  0  0  0
    1.0181    0.5348   -1.7618 H   0  0  0  0  0  0  0  0  0  0  0  0
   -1.0444    0.6699   -2.4373 C   0  0  0  0  0  0  0  0  0  0  0  0
   -1.0500    1.7543   -2.5956 H   0  0  0  0  0  0  0  0  0  0  0  0
   -0.5630    0.0621   -3.7586 C   0  0  0  0  0  0  0  0  0  0  0  0
   -0.4694   -1.0247   -3.6668 H   0  0  0  0  0  0  0  0  0  0  0  0
   -1.2722    0.2845   -4.5621 H   0  0  0  0  0  0  0  0  0  0  0  0
    0.4116    0.4731   -4.0406 H   0  0  0  0  0  0  0  0  0  0  0  0
   -2.5080    0.3026   -2.1553 C   0  0  0  0  0  0  0  0  0  0  0  0
   -2.7716    0.5344   -1.1185 H   0  0  0  0  0  0  0  0  0  0  0  0
   -3.1651    0.8841   -2.8099 H   0  0  0  0  0  0  0  0  0  0  0  0
   -2.7009   -0.7549   -2.3576 H   0  0  0  0  0  0  0  0  0  0  0  0
    0.5207   -0.4347    1.0010 C   0  0  0  0  0  0  0  0  0  0  0  0
    1.7198   -0.2986    1.2064 O   0  0  0  0  0  0  0  0  0  0  0  0
   -0.3792    0.0313    1.9430 N   0  0  0  0  0  0  0  0  0  0  0  0
   -1.3578   -0.1659    1.7626 H   0  0  0  0  0  0  0  0  0  0  0  0
    0.0200    0.4406    3.2836 C   0  0  0  0  0  0  0  0  0  0  0  0
    0.7464    1.2587    3.2350 H   0  0  0  0  0  0  0  0  0  0  0  0
   -0.8508    0.7872    3.8481 H   0  0  0  0  0  0  0  0  0  0  0  0
    0.4714   -0.4003    3.8206 H   0  0  0  0  0  0  0  0  0  0  0  0
  1  2  1  0  0  0  0
  2  3  1  0  0  0  0
  2  4  1  0  0  0  0
  2  5  1  0  0  0  0
  5  6  2  0  0  0  0
  5  7  1  0  0  0  0
  7  8  1  0  0  0  0
  7  9  1  0  0  0  0
  9 10  1  0  0  0  0
  9 11  1  0  0  0  0
  9 24  1  0  0  0  0
 11 12  1  0  0  0  0
 11 13  1  0  0  0  0
 11 14  1  0  0  0  0
 14 15  1  0  0  0  0
 14 16  1  0  0  0  0
 14 20  1  0  0  0  0
 16 17  1  0  0  0  0
 16 18  1  0  0  0  0
 16 19  1  0  0  0  0
 20 21  1  0  0  0  0
 20 22  1  0  0  0  0
 20 23  1  0  0  0  0
 24 25  2  0  0  0  0
 24 26  1  0  0  0  0
 26 27  1  0  0  0  0
 26 28  1  0  0  0  0
 28 29  1  0  0  0  0
 28 30  1  0  0  0  0
 28 31  1  0  0  0  0
M  END
$$$$

  -OEChem-04042216013D

 31 30  0     1  0  0  0  0  0999 V2000
   -2.2999   -4.6819    0.4509 H   0  0  0  0  0  0  0  0  0  0  0  0
   -2.4212   -3.7250   -0.0644 C   0  0  0  0  0  0  0  0  0  0  0  0
   -3.3186   -3.2317    0.3163 H   0  0  0  0  0  0  0  0  0  0  0  0
   -2.5426   -3.9151   -1.1335 H   0  0  0  0  0  0  0  0  0  0  0  0
   -1.2064   -2.8481    0.1728 C   0  0  0  0  0  0  0  0  0  0  0  0
   -0.3081   -3.2396    0.8954 O   0  0  0  0  0  0  0  0  0  0  0  0
   -1.1358   -1.6070   -0.4286 N   0  0  0  0  0  0  0  0  0  0  0  0
   -1.8558   -1.3999   -1.1111 H   0  0  0  0  0  0  0  0  0  0  0  0
    0.0560   -0.7429   -0.4200 C   0  0  1  0  0  0  0  0  0  0  0  0
    0.8657   -1.3492   -0.8415 H   0  0  0  0  0  0  0  0  0  0  0  0
   -0.0540    0.5256   -1.3151 C   0  0  0  0  0  0  0  0  0  0  0  0
   -0.1926    1.3854   -0.6502 H   0  0  0  0  0  0  0  0  0  0  0  0
    0.9164    0.6725   -1.8015 H   0  0  0  0  0  0  0  0  0  0  0  0
   -1.1688    0.6462   -2.3880 C   0  0  0  0  0  0  0  0  0  0  0  0
   -1.1009    1.6806   -2.7432 H   0  0  0  0  0  0  0  0  0  0  0  0
   -0.8593   -0.2368   -3.6013 C   0  0  0  0  0  0  0  0  0  0  0  0
   -0.8682   -1.2948   -3.3225 H   0  0  0  0  0  0  0  0  0  0  0  0
   -1.6040   -0.0779   -4.3875 H   0  0  0  0  0  0  0  0  0  0  0  0
    0.1269    0.0054   -4.0098 H   0  0  0  0  0  0  0  0  0  0  0  0
   -2.6186    0.4824   -1.9014 C   0  0  0  0  0  0  0  0  0  0  0  0
   -2.7206    0.8321   -0.8692 H   0  0  0  0  0  0  0  0  0  0  0  0
   -2.9563   -0.5552   -1.9647 H   0  0  0  0  0  0  0  0  0  0  0  0
   -3.2864    1.0793   -2.5308 H   0  0  0  0  0  0  0  0  0  0  0  0
    0.5297   -0.3323    0.9931 C   0  0  0  0  0  0  0  0  0  0  0  0
    1.7208   -0.1390    1.1997 O   0  0  0  0  0  0  0  0  0  0  0  0
   -0.3934    0.0889    1.9335 N   0  0  0  0  0  0  0  0  0  0  0  0
   -1.3582   -0.1692    1.7547 H   0  0  0  0  0  0  0  0  0  0  0  0
   -0.0158    0.5002    3.2797 C   0  0  0  0  0  0  0  0  0  0  0  0
    0.6687    1.3542    3.2427 H   0  0  0  0  0  0  0  0  0  0  0  0
   -0.9029    0.7954    3.8479 H   0  0  0  0  0  0  0  0  0  0  0  0
    0.4768   -0.3240    3.8062 H   0  0  0  0  0  0  0  0  0  0  0  0
  1  2  1  0  0  0  0
  2  3  1  0  0  0  0
  2  4  1  0  0  0  0
  2  5  1  0  0  0  0
  5  6  2  0  0  0  0
  5  7  1  0  0  0  0
  7  8  1  0  0  0  0
  7  9  1  0  0  0  0
  9 10  1  0  0  0  0
  9 11  1  0  0  0  0
  9 24  1  0  0  0  0
 11 12  1  0  0  0  0
 11 13  1  0  0  0  0
 11 14  1  0  0  0  0
 14 15  1  0  0  0  0
 14 16  1  0  0  0  0
 14 20  1  0  0  0  0
 16 17  1  0  0  0  0
 16 18  1  0  0  0  0
 16 19  1  0  0  0  0
 20 21  1  0  0  0  0
 20 22  1  0  0  0  0
 20 23  1  0  0  0  0
 24 25  2  0  0  0  0
 24 26  1  0  0  0  0
 26 27  1  0  0  0  0
 26 28  1  0  0  0  0
 28 29  1  0  0  0  0
 28 30  1  0  0  0  0
 28 31  1  0  0  0  0
M  END
$$$$

  -OEChem-04042216013D

 31 30  0     1  0  0  0  0  0999 V2000
   -2.6035   -4.5839    0.3059 H   0  0  0  0  0  0  0  0  0  0  0  0
   -2.6437   -3.6054   -0.1813 C   0  0  0  0  0  0  0  0  0  0  0  0
   -3.5064   -3.0562    0.2032 H   0  0  0  0  0  0  0  0  0  0  0  0
   -2.7630   -3.7535   -1.2573 H   0  0  0  0  0  0  0  0  0  0  0  0
   -1.3695   -2.8309    0.0972 C   0  0  0  0  0  0  0  0  0  0  0  0
   -0.5113   -3.3131    0.8137 O   0  0  0  0  0  0  0  0  0  0  0  0
   -1.1985   -1.5803   -0.4625 N   0  0  0  0  0  0  0  0  0  0  0  0
   -1.8943   -1.2948   -1.1438 H   0  0  0  0  0  0  0  0  0  0  0  0
    0.0545   -0.8083   -0.4151 C   0  0  1  0  0  0  0  0  0  0  0  0
    0.8233   -1.4561   -0.8512 H   0  0  0  0  0  0  0  0  0  0  0  0
    0.0333    0.4932   -1.2670 C   0  0  0  0  0  0  0  0  0  0  0  0
   -0.0231    1.3477   -0.5835 H   0  0  0  0  0  0  0  0  0  0  0  0
    1.0058    0.5671   -1.7656 H   0  0  0  0  0  0  0  0  0  0  0  0
   -1.0698    0.7150   -2.3349 C   0  0  0  0  0  0  0  0  0  0  0  0
   -0.8020    1.6523   -2.8354 H   0  0  0  0  0  0  0  0  0  0  0  0
   -1.0682   -0.3698   -3.4213 C   0  0  0  0  0  0  0  0  0  0  0  0
   -1.4038   -1.3346   -3.0340 H   0  0  0  0  0  0  0  0  0  0  0  0
   -1.7360   -0.0812   -4.2390 H   0  0  0  0  0  0  0  0  0  0  0  0
   -0.0607   -0.4940   -3.8304 H   0  0  0  0  0  0  0  0  0  0  0  0
   -2.4761    0.9383   -1.7531 C   0  0  0  0  0  0  0  0  0  0  0  0
   -2.4327    1.6396   -0.9140 H   0  0  0  0  0  0  0  0  0  0  0  0
   -2.9386    0.0120   -1.4082 H   0  0  0  0  0  0  0  0  0  0  0  0
   -3.1279    1.3663   -2.5211 H   0  0  0  0  0  0  0  0  0  0  0  0
    0.5421   -0.4786    1.0141 C   0  0  0  0  0  0  0  0  0  0  0  0
    1.7418   -0.3792    1.2367 O   0  0  0  0  0  0  0  0  0  0  0  0
   -0.3580   -0.0190    1.9588 N   0  0  0  0  0  0  0  0  0  0  0  0
   -1.3373   -0.1977    1.7625 H   0  0  0  0  0  0  0  0  0  0  0  0
    0.0333    0.3250    3.3198 C   0  0  0  0  0  0  0  0  0  0  0  0
    0.7780    1.1280    3.3139 H   0  0  0  0  0  0  0  0  0  0  0  0
   -0.8367    0.6672    3.8884 H   0  0  0  0  0  0  0  0  0  0  0  0
    0.4593   -0.5475    3.8264 H   0  0  0  0  0  0  0  0  0  0  0  0
  1  2  1  0  0  0  0
  2  3  1  0  0  0  0
  2  4  1  0  0  0  0
  2  5  1  0  0  0  0
  5  6  2  0  0  0  0
  5  7  1  0  0  0  0
  7  8  1  0  0  0  0
  7  9  1  0  0  0  0
  9 10  1  0  0  0  0
  9 11  1  0  0  0  0
  9 24  1  0  0  0  0
 11 12  1  0  0  0  0
 11 13  1  0  0  0  0
 11 14  1  0  0  0  0
 14 15  1  0  0  0  0
 14 16  1  0  0  0  0
 14 20  1  0  0  0  0
 16 17  1  0  0  0  0
 16 18  1  0  0  0  0
 16 19  1  0  0  0  0
 20 21  1  0  0  0  0
 20 22  1  0  0  0  0
 20 23  1  0  0  0  0
 24 25  2  0  0  0  0
 24 26  1  0  0  0  0
 26 27  1  0  0  0  0
 26 28  1  0  0  0  0
 28 29  1  0  0  0  0
 28 30  1  0  0  0  0
 28 31  1  0  0  0  0
M  END
$$$$

  -OEChem-04042216013D

 31 30  0     1  0  0  0  0  0999 V2000
   -2.6620   -4.5278    0.4079 H   0  0  0  0  0  0  0  0  0  0  0  0
   -2.6880   -3.5603   -0.1014 C   0  0  0  0  0  0  0  0  0  0  0  0
   -3.5202   -2.9756    0.2972 H   0  0  0  0  0  0  0  0  0  0  0  0
   -2.8476   -3.7294   -1.1690 H   0  0  0  0  0  0  0  0  0  0  0  0
   -1.3814   -2.8212    0.1168 C   0  0  0  0  0  0  0  0  0  0  0  0
   -0.5043   -3.3253    0.7942 O   0  0  0  0  0  0  0  0  0  0  0  0
   -1.1997   -1.5766   -0.4523 N   0  0  0  0  0  0  0  0  0  0  0  0
   -1.9395   -1.2362   -1.0583 H   0  0  0  0  0  0  0  0  0  0  0  0
    0.0548   -0.8074   -0.4070 C   0  0  1  0  0  0  0  0  0  0  0  0
    0.8228   -1.4651   -0.8298 H   0  0  0  0  0  0  0  0  0  0  0  0
    0.0462    0.4795   -1.2807 C   0  0  0  0  0  0  0  0  0  0  0  0
    0.0103    1.3493   -0.6154 H   0  0  0  0  0  0  0  0  0  0  0  0
    1.0208    0.5226   -1.7792 H   0  0  0  0  0  0  0  0  0  0  0  0
   -1.0400    0.6977   -2.3702 C   0  0  0  0  0  0  0  0  0  0  0  0
   -0.6612    1.4910   -3.0242 H   0  0  0  0  0  0  0  0  0  0  0  0
   -1.3193   -0.5258   -3.2612 C   0  0  0  0  0  0  0  0  0  0  0  0
   -2.0255   -1.2234   -2.8064 H   0  0  0  0  0  0  0  0  0  0  0  0
   -1.7531   -0.1961   -4.2105 H   0  0  0  0  0  0  0  0  0  0  0  0
   -0.3877   -1.0578   -3.4787 H   0  0  0  0  0  0  0  0  0  0  0  0
   -2.3531    1.2045   -1.7545 C   0  0  0  0  0  0  0  0  0  0  0  0
   -2.1796    2.1327   -1.2010 H   0  0  0  0  0  0  0  0  0  0  0  0
   -3.0842    1.4105   -2.5427 H   0  0  0  0  0  0  0  0  0  0  0  0
   -2.7849    0.4714   -1.0686 H   0  0  0  0  0  0  0  0  0  0  0  0
    0.5368   -0.4646    1.0204 C   0  0  0  0  0  0  0  0  0  0  0  0
    1.7358   -0.3706    1.2488 O   0  0  0  0  0  0  0  0  0  0  0  0
   -0.3656    0.0069    1.9571 N   0  0  0  0  0  0  0  0  0  0  0  0
   -1.3457   -0.1611    1.7569 H   0  0  0  0  0  0  0  0  0  0  0  0
    0.0223    0.3687    3.3144 C   0  0  0  0  0  0  0  0  0  0  0  0
    0.7756    1.1633    3.2993 H   0  0  0  0  0  0  0  0  0  0  0  0
   -0.8464    0.7295    3.8728 H   0  0  0  0  0  0  0  0  0  0  0  0
    0.4365   -0.5000    3.8370 H   0  0  0  0  0  0  0  0  0  0  0  0
  1  2  1  0  0  0  0
  2  3  1  0  0  0  0
  2  4  1  0  0  0  0
  2  5  1  0  0  0  0
  5  6  2  0  0  0  0
  5  7  1  0  0  0  0
  7  8  1  0  0  0  0
  7  9  1  0  0  0  0
  9 10  1  0  0  0  0
  9 11  1  0  0  0  0
  9 24  1  0  0  0  0
 11 12  1  0  0  0  0
 11 13  1  0  0  0  0
 11 14  1  0  0  0  0
 14 15  1  0  0  0  0
 14 16  1  0  0  0  0
 14 20  1  0  0  0  0
 16 17  1  0  0  0  0
 16 18  1  0  0  0  0
 16 19  1  0  0  0  0
 20 21  1  0  0  0  0
 20 22  1  0  0  0  0
 20 23  1  0  0  0  0
 24 25  2  0  0  0  0
 24 26  1  0  0  0  0
 26 27  1  0  0  0  0
 26 28  1  0  0  0  0
 28 29  1  0  0  0  0
 28 30  1  0  0  0  0
 28 31  1  0  0  0  0
M  END
$$$$

  -OEChem-04042216013D

 31 30  0     1  0  0  0  0  0999 V2000
   -2.6373   -4.5450    0.4786 H   0  0  0  0  0  0  0  0  0  0  0  0
   -2.6770   -3.5804   -0.0357 C   0  0  0  0  0  0  0  0  0  0  0  0
   -3.4934   -2.9903    0.3871 H   0  0  0  0  0  0  0  0  0  0  0  0
   -2.8725   -3.7556   -1.0965 H   0  0  0  0  0  0  0  0  0  0  0  0
   -1.3615   -2.8443    0.1343 C   0  0  0  0  0  0  0  0  0  0  0  0
   -0.4607   -3.3511    0.7778 O   0  0  0  0  0  0  0  0  0  0  0  0
   -1.1985   -1.5982   -0.4373 N   0  0  0  0  0  0  0  0  0  0  0  0
   -1.9736   -1.2352   -0.9820 H   0  0  0  0  0  0  0  0  0  0  0  0
    0.0446   -0.8112   -0.3980 C   0  0  1  0  0  0  0  0  0  0  0  0
    0.8182   -1.4660   -0.8154 H   0  0  0  0  0  0  0  0  0  0  0  0
    0.0389    0.4711   -1.2808 C   0  0  0  0  0  0  0  0  0  0  0  0
    0.0194    1.3423   -0.6166 H   0  0  0  0  0  0  0  0  0  0  0  0
    1.0181    0.4976   -1.7709 H   0  0  0  0  0  0  0  0  0  0  0  0
   -1.0239    0.7137   -2.3959 C   0  0  0  0  0  0  0  0  0  0  0  0
   -0.5382    1.3295   -3.1613 H   0  0  0  0  0  0  0  0  0  0  0  0
   -1.6007   -0.5257   -3.1041 C   0  0  0  0  0  0  0  0  0  0  0  0
   -2.4453   -0.9599   -2.5633 H   0  0  0  0  0  0  0  0  0  0  0  0
   -1.9648   -0.2418   -4.0966 H   0  0  0  0  0  0  0  0  0  0  0  0
   -0.8253   -1.2876   -3.2337 H   0  0  0  0  0  0  0  0  0  0  0  0
   -2.1969    1.5198   -1.8205 C   0  0  0  0  0  0  0  0  0  0  0  0
   -1.8470    2.4805   -1.4293 H   0  0  0  0  0  0  0  0  0  0  0  0
   -2.9396    1.7219   -2.5991 H   0  0  0  0  0  0  0  0  0  0  0  0
   -2.6837    0.9713   -1.0080 H   0  0  0  0  0  0  0  0  0  0  0  0
    0.5242   -0.4604    1.0285 C   0  0  0  0  0  0  0  0  0  0  0  0
    1.7219   -0.3511    1.2558 O   0  0  0  0  0  0  0  0  0  0  0  0
   -0.3825   -0.0011    1.9673 N   0  0  0  0  0  0  0  0  0  0  0  0
   -1.3613   -0.1771    1.7680 H   0  0  0  0  0  0  0  0  0  0  0  0
    0.0033    0.3678    3.3234 C   0  0  0  0  0  0  0  0  0  0  0  0
    0.7482    1.1703    3.3061 H   0  0  0  0  0  0  0  0  0  0  0  0
   -0.8687    0.7207    3.8820 H   0  0  0  0  0  0  0  0  0  0  0  0
    0.4271   -0.4954    3.8474 H   0  0  0  0  0  0  0  0  0  0  0  0
  1  2  1  0  0  0  0
  2  3  1  0  0  0  0
  2  4  1  0  0  0  0
  2  5  1  0  0  0  0
  5  6  2  0  0  0  0
  5  7  1  0  0  0  0
  7  8  1  0  0  0  0
  7  9  1  0  0  0  0
  9 10  1  0  0  0  0
  9 11  1  0  0  0  0
  9 24  1  0  0  0  0
 11 12  1  0  0  0  0
 11 13  1  0  0  0  0
 11 14  1  0  0  0  0
 14 15  1  0  0  0  0
 14 16  1  0  0  0  0
 14 20  1  0  0  0  0
 16 17  1  0  0  0  0
 16 18  1  0  0  0  0
 16 19  1  0  0  0  0
 20 21  1  0  0  0  0
 20 22  1  0  0  0  0
 20 23  1  0  0  0  0
 24 25  2  0  0  0  0
 24 26  1  0  0  0  0
 26 27  1  0  0  0  0
 26 28  1  0  0  0  0
 28 29  1  0  0  0  0
 28 30  1  0  0  0  0
 28 31  1  0  0  0  0
M  END
$$$$

  -OEChem-04042216013D

 31 30  0     1  0  0  0  0  0999 V2000
   -2.4997   -4.5631    0.8182 H   0  0  0  0  0  0  0  0  0  0  0  0
   -2.5891   -3.6300    0.2545 C   0  0  0  0  0  0  0  0  0  0  0  0
   -3.4117   -3.0446    0.6720 H   0  0  0  0  0  0  0  0  0  0  0  0
   -2.8122   -3.8697   -0.7880 H   0  0  0  0  0  0  0  0  0  0  0  0
   -1.2949   -2.8434    0.3403 C   0  0  0  0  0  0  0  0  0  0  0  0
   -0.3665   -3.2721    1.0011 O   0  0  0  0  0  0  0  0  0  0  0  0
   -1.1833   -1.6401   -0.3277 N   0  0  0  0  0  0  0  0  0  0  0  0
   -1.9811   -1.3441   -0.8782 H   0  0  0  0  0  0  0  0  0  0  0  0
    0.0299   -0.8082   -0.3639 C   0  0  1  0  0  0  0  0  0  0  0  0
    0.8218   -1.4720   -0.7300 H   0  0  0  0  0  0  0  0  0  0  0  0
    0.0035    0.4042   -1.3448 C   0  0  0  0  0  0  0  0  0  0  0  0
   -0.0333    1.3144   -0.7359 H   0  0  0  0  0  0  0  0  0  0  0  0
    0.9900    0.4161   -1.8206 H   0  0  0  0  0  0  0  0  0  0  0  0
   -1.0435    0.5750   -2.4963 C   0  0  0  0  0  0  0  0  0  0  0  0
   -0.4775    0.8926   -3.3792 H   0  0  0  0  0  0  0  0  0  0  0  0
   -1.8872   -0.6353   -2.9286 C   0  0  0  0  0  0  0  0  0  0  0  0
   -2.3189   -0.4456   -3.9164 H   0  0  0  0  0  0  0  0  0  0  0  0
   -2.7178   -0.8201   -2.2421 H   0  0  0  0  0  0  0  0  0  0  0  0
   -1.2641   -1.5321   -3.0036 H   0  0  0  0  0  0  0  0  0  0  0  0
   -2.0167    1.7080   -2.1378 C   0  0  0  0  0  0  0  0  0  0  0  0
   -1.4733    2.6455   -1.9818 H   0  0  0  0  0  0  0  0  0  0  0  0
   -2.7369    1.8663   -2.9470 H   0  0  0  0  0  0  0  0  0  0  0  0
   -2.5677    1.4685   -1.2227 H   0  0  0  0  0  0  0  0  0  0  0  0
    0.5019   -0.3351    1.0300 C   0  0  0  0  0  0  0  0  0  0  0  0
    1.6951   -0.1615    1.2408 O   0  0  0  0  0  0  0  0  0  0  0  0
   -0.4188    0.1587    1.9371 N   0  0  0  0  0  0  0  0  0  0  0  0
   -1.3915   -0.0639    1.7554 H   0  0  0  0  0  0  0  0  0  0  0  0
   -0.0448    0.6525    3.2561 C   0  0  0  0  0  0  0  0  0  0  0  0
    0.6647    1.4821    3.1684 H   0  0  0  0  0  0  0  0  0  0  0  0
   -0.9295    1.0118    3.7902 H   0  0  0  0  0  0  0  0  0  0  0  0
    0.4175   -0.1461    3.8459 H   0  0  0  0  0  0  0  0  0  0  0  0
  1  2  1  0  0  0  0
  2  3  1  0  0  0  0
  2  4  1  0  0  0  0
  2  5  1  0  0  0  0
  5  6  2  0  0  0  0
  5  7  1  0  0  0  0
  7  8  1  0  0  0  0
  7  9  1  0  0  0  0
  9 10  1  0  0  0  0
  9 11  1  0  0  0  0
  9 24  1  0  0  0  0
 11 12  1  0  0  0  0
 11 13  1  0  0  0  0
 11 14  1  0  0  0  0
 14 15  1  0  0  0  0
 14 16  1  0  0  0  0
 14 20  1  0  0  0  0
 16 17  1  0  0  0  0
 16 18  1  0  0  0  0
 16 19  1  0  0  0  0
 20 21  1  0  0  0  0
 20 22  1  0  0  0  0
 20 23  1  0  0  0  0
 24 25  2  0  0  0  0
 24 26  1  0  0  0  0
 26 27  1  0  0  0  0
 26 28  1  0  0  0  0
 28 29  1  0  0  0  0
 28 30  1  0  0  0  0
 28 31  1  0  0  0  0
M  END
$$$$

  -OEChem-04042216013D

 31 30  0     1  0  0  0  0  0999 V2000
   -2.3344   -4.7134    0.5294 H   0  0  0  0  0  0  0  0  0  0  0  0
   -2.4907   -3.7460    0.0432 C   0  0  0  0  0  0  0  0  0  0  0  0
   -3.3006   -3.2223    0.5563 H   0  0  0  0  0  0  0  0  0  0  0  0
   -2.7765   -3.9181   -0.9972 H   0  0  0  0  0  0  0  0  0  0  0  0
   -1.2180   -2.9223    0.1011 C   0  0  0  0  0  0  0  0  0  0  0  0
   -0.2164   -3.3910    0.6104 O   0  0  0  0  0  0  0  0  0  0  0  0
   -1.2076   -1.6445   -0.4232 N   0  0  0  0  0  0  0  0  0  0  0  0
   -2.0563   -1.3338   -0.8812 H   0  0  0  0  0  0  0  0  0  0  0  0
   -0.0141   -0.7874   -0.5180 C   0  0  1  0  0  0  0  0  0  0  0  0
    0.7239   -1.3904   -1.0594 H   0  0  0  0  0  0  0  0  0  0  0  0
   -0.1511    0.5370   -1.3355 C   0  0  0  0  0  0  0  0  0  0  0  0
   -0.1337    1.3494   -0.6006 H   0  0  0  0  0  0  0  0  0  0  0  0
    0.7805    0.6418   -1.9027 H   0  0  0  0  0  0  0  0  0  0  0  0
   -1.3218    0.8586   -2.3284 C   0  0  0  0  0  0  0  0  0  0  0  0
   -0.8514    1.0015   -3.3077 H   0  0  0  0  0  0  0  0  0  0  0  0
   -2.4421   -0.1656   -2.5538 C   0  0  0  0  0  0  0  0  0  0  0  0
   -3.0859    0.1643   -3.3755 H   0  0  0  0  0  0  0  0  0  0  0  0
   -2.0265   -1.1387   -2.8329 H   0  0  0  0  0  0  0  0  0  0  0  0
   -3.0696   -0.2679   -1.6634 H   0  0  0  0  0  0  0  0  0  0  0  0
   -1.9779    2.1922   -1.9395 C   0  0  0  0  0  0  0  0  0  0  0  0
   -1.2291    2.9901   -1.9011 H   0  0  0  0  0  0  0  0  0  0  0  0
   -2.7373    2.4770   -2.6748 H   0  0  0  0  0  0  0  0  0  0  0  0
   -2.4562    2.1150   -0.9578 H   0  0  0  0  0  0  0  0  0  0  0  0
    0.6355   -0.4796    0.8515 C   0  0  0  0  0  0  0  0  0  0  0  0
    1.8458   -0.3114    0.9249 O   0  0  0  0  0  0  0  0  0  0  0  0
   -0.1586   -0.1218    1.9264 N   0  0  0  0  0  0  0  0  0  0  0  0
   -1.1450   -0.3447    1.8469 H   0  0  0  0  0  0  0  0  0  0  0  0
    0.3869    0.1891    3.2414 C   0  0  0  0  0  0  0  0  0  0  0  0
    1.0657    1.0464    3.1827 H   0  0  0  0  0  0  0  0  0  0  0  0
   -0.4205    0.4367    3.9368 H   0  0  0  0  0  0  0  0  0  0  0  0
    0.9374   -0.6702    3.6387 H   0  0  0  0  0  0  0  0  0  0  0  0
  1  2  1  0  0  0  0
  2  3  1  0  0  0  0
  2  4  1  0  0  0  0
  2  5  1  0  0  0  0
  5  6  2  0  0  0  0
  5  7  1  0  0  0  0
  7  8  1  0  0  0  0
  7  9  1  0  0  0  0
  9 10  1  0  0  0  0
  9 11  1  0  0  0  0
  9 24  1  0  0  0  0
 11 12  1  0  0  0  0
 11 13  1  0  0  0  0
 11 14  1  0  0  0  0
 14 15  1  0  0  0  0
 14 16  1  0  0  0  0
 14 20  1  0  0  0  0
 16 17  1  0  0  0  0
 16 18  1  0  0  0  0
 16 19  1  0  0  0  0
 20 21  1  0  0  0  0
 20 22  1  0  0  0  0
 20 23  1  0  0  0  0
 24 25  2  0  0  0  0
 24 26  1  0  0  0  0
 26 27  1  0  0  0  0
 26 28  1  0  0  0  0
 28 29  1  0  0  0  0
 28 30  1  0  0  0  0
 28 31  1  0  0  0  0
M  END
$$$$

  -OEChem-04042216013D

 31 30  0     1  0  0  0  0  0999 V2000
   -2.5065   -4.6511    0.5645 H   0  0  0  0  0  0  0  0  0  0  0  0
   -2.6060   -3.6874    0.0568 C   0  0  0  0  0  0  0  0  0  0  0  0
   -3.4354   -3.1369    0.5068 H   0  0  0  0  0  0  0  0  0  0  0  0
   -2.8257   -3.8675   -0.9983 H   0  0  0  0  0  0  0  0  0  0  0  0
   -1.3208   -2.8925    0.1905 C   0  0  0  0  0  0  0  0  0  0  0  0
   -0.3790   -3.3597    0.8045 O   0  0  0  0  0  0  0  0  0  0  0  0
   -1.2325   -1.6396   -0.3838 N   0  0  0  0  0  0  0  0  0  0  0  0
   -2.0354   -1.3252   -0.9164 H   0  0  0  0  0  0  0  0  0  0  0  0
   -0.0203   -0.8043   -0.3944 C   0  0  1  0  0  0  0  0  0  0  0  0
    0.7562   -1.4437   -0.8299 H   0  0  0  0  0  0  0  0  0  0  0  0
   -0.0431    0.4792   -1.2851 C   0  0  0  0  0  0  0  0  0  0  0  0
   -0.1235    1.3157   -0.5820 H   0  0  0  0  0  0  0  0  0  0  0  0
    0.9501    0.5696   -1.7384 H   0  0  0  0  0  0  0  0  0  0  0  0
   -1.0945    0.7682   -2.4101 C   0  0  0  0  0  0  0  0  0  0  0  0
   -0.5784    0.5735   -3.3568 H   0  0  0  0  0  0  0  0  0  0  0  0
   -2.3905   -0.0499   -2.4810 C   0  0  0  0  0  0  0  0  0  0  0  0
   -2.9569    0.0362   -1.5484 H   0  0  0  0  0  0  0  0  0  0  0  0
   -3.0241    0.3183   -3.2945 H   0  0  0  0  0  0  0  0  0  0  0  0
   -2.1739   -1.1011   -2.6929 H   0  0  0  0  0  0  0  0  0  0  0  0
   -1.4641    2.2590   -2.3907 C   0  0  0  0  0  0  0  0  0  0  0  0
   -0.5611    2.8765   -2.4318 H   0  0  0  0  0  0  0  0  0  0  0  0
   -2.0872    2.5127   -3.2541 H   0  0  0  0  0  0  0  0  0  0  0  0
   -2.0166    2.5084   -1.4791 H   0  0  0  0  0  0  0  0  0  0  0  0
    0.4962   -0.4434    1.0180 C   0  0  0  0  0  0  0  0  0  0  0  0
    1.6963   -0.2890    1.2039 O   0  0  0  0  0  0  0  0  0  0  0  0
   -0.3932   -0.0259    1.9921 N   0  0  0  0  0  0  0  0  0  0  0  0
   -1.3709   -0.2394    1.8261 H   0  0  0  0  0  0  0  0  0  0  0  0
    0.0267    0.3409    3.3385 C   0  0  0  0  0  0  0  0  0  0  0  0
    0.7407    1.1706    3.3057 H   0  0  0  0  0  0  0  0  0  0  0  0
   -0.8370    0.6545    3.9324 H   0  0  0  0  0  0  0  0  0  0  0  0
    0.5002   -0.5125    3.8351 H   0  0  0  0  0  0  0  0  0  0  0  0
  1  2  1  0  0  0  0
  2  3  1  0  0  0  0
  2  4  1  0  0  0  0
  2  5  1  0  0  0  0
  5  6  2  0  0  0  0
  5  7  1  0  0  0  0
  7  8  1  0  0  0  0
  7  9  1  0  0  0  0
  9 10  1  0  0  0  0
  9 11  1  0  0  0  0
  9 24  1  0  0  0  0
 11 12  1  0  0  0  0
 11 13  1  0  0  0  0
 11 14  1  0  0  0  0
 14 15  1  0  0  0  0
 14 16  1  0  0  0  0
 14 20  1  0  0  0  0
 16 17  1  0  0  0  0
 16 18  1  0  0  0  0
 16 19  1  0  0  0  0
 20 21  1  0  0  0  0
 20 22  1  0  0  0  0
 20 23  1  0  0  0  0
 24 25  2  0  0  0  0
 24 26  1  0  0  0  0
 26 27  1  0  0  0  0
 26 28  1  0  0  0  0
 28 29  1  0  0  0  0
 28 30  1  0  0  0  0
 28 31  1  0  0  0  0
M  END
$$$$

  -OEChem-04042216013D

 31 30  0     1  0  0  0  0  0999 V2000
   -2.5214   -4.6163    0.5865 H   0  0  0  0  0  0  0  0  0  0  0  0
   -2.6166   -3.6581    0.0677 C   0  0  0  0  0  0  0  0  0  0  0  0
   -3.4347   -3.0935    0.5209 H   0  0  0  0  0  0  0  0  0  0  0  0
   -2.8505   -3.8488   -0.9824 H   0  0  0  0  0  0  0  0  0  0  0  0
   -1.3214   -2.8757    0.1763 C   0  0  0  0  0  0  0  0  0  0  0  0
   -0.3753   -3.3495    0.7787 O   0  0  0  0  0  0  0  0  0  0  0  0
   -1.2300   -1.6243   -0.4007 N   0  0  0  0  0  0  0  0  0  0  0  0
   -2.0429   -1.2941   -0.9075 H   0  0  0  0  0  0  0  0  0  0  0  0
   -0.0166   -0.7910   -0.4095 C   0  0  1  0  0  0  0  0  0  0  0  0
    0.7605   -1.4302   -0.8439 H   0  0  0  0  0  0  0  0  0  0  0  0
   -0.0448    0.4903   -1.3004 C   0  0  0  0  0  0  0  0  0  0  0  0
   -0.1404    1.3293   -0.6020 H   0  0  0  0  0  0  0  0  0  0  0  0
    0.9462    0.5895   -1.7568 H   0  0  0  0  0  0  0  0  0  0  0  0
   -1.1066    0.7567   -2.4153 C   0  0  0  0  0  0  0  0  0  0  0  0
   -0.7034    0.3180   -3.3349 H   0  0  0  0  0  0  0  0  0  0  0  0
   -2.5209    0.1774   -2.2604 C   0  0  0  0  0  0  0  0  0  0  0  0
   -2.9067    0.3630   -1.2531 H   0  0  0  0  0  0  0  0  0  0  0  0
   -3.2044    0.6450   -2.9763 H   0  0  0  0  0  0  0  0  0  0  0  0
   -2.5276   -0.8956   -2.4714 H   0  0  0  0  0  0  0  0  0  0  0  0
   -1.2155    2.2722   -2.6386 C   0  0  0  0  0  0  0  0  0  0  0  0
   -0.2233    2.7078   -2.7942 H   0  0  0  0  0  0  0  0  0  0  0  0
   -1.8227    2.4877   -3.5236 H   0  0  0  0  0  0  0  0  0  0  0  0
   -1.6782    2.7582   -1.7735 H   0  0  0  0  0  0  0  0  0  0  0  0
    0.4984   -0.4263    1.0024 C   0  0  0  0  0  0  0  0  0  0  0  0
    1.6982   -0.2715    1.1895 O   0  0  0  0  0  0  0  0  0  0  0  0
   -0.3921   -0.0042    1.9737 N   0  0  0  0  0  0  0  0  0  0  0  0
   -1.3707   -0.2118    1.8060 H   0  0  0  0  0  0  0  0  0  0  0  0
    0.0256    0.3783    3.3164 C   0  0  0  0  0  0  0  0  0  0  0  0
    0.7325    1.2137    3.2751 H   0  0  0  0  0  0  0  0  0  0  0  0
   -0.8405    0.6899    3.9076 H   0  0  0  0  0  0  0  0  0  0  0  0
    0.5066   -0.4662    3.8210 H   0  0  0  0  0  0  0  0  0  0  0  0
  1  2  1  0  0  0  0
  2  3  1  0  0  0  0
  2  4  1  0  0  0  0
  2  5  1  0  0  0  0
  5  6  2  0  0  0  0
  5  7  1  0  0  0  0
  7  8  1  0  0  0  0
  7  9  1  0  0  0  0
  9 10  1  0  0  0  0
  9 11  1  0  0  0  0
  9 24  1  0  0  0  0
 11 12  1  0  0  0  0
 11 13  1  0  0  0  0
 11 14  1  0  0  0  0
 14 15  1  0  0  0  0
 14 16  1  0  0  0  0
 14 20  1  0  0  0  0
 16 17  1  0  0  0  0
 16 18  1  0  0  0  0
 16 19  1  0  0  0  0
 20 21  1  0  0  0  0
 20 22  1  0  0  0  0
 20 23  1  0  0  0  0
 24 25  2  0  0  0  0
 24 26  1  0  0  0  0
 26 27  1  0  0  0  0
 26 28  1  0  0  0  0
 28 29  1  0  0  0  0
 28 30  1  0  0  0  0
 28 31  1  0  0  0  0
M  END
$$$$

  -OEChem-04042216013D

 31 30  0     1  0  0  0  0  0999 V2000
   -2.6617   -4.5196    0.3906 H   0  0  0  0  0  0  0  0  0  0  0  0
   -2.6959   -3.5586   -0.1305 C   0  0  0  0  0  0  0  0  0  0  0  0
   -3.5518   -2.9884    0.2383 H   0  0  0  0  0  0  0  0  0  0  0  0
   -2.8217   -3.7437   -1.1999 H   0  0  0  0  0  0  0  0  0  0  0  0
   -1.4135   -2.7867    0.1155 C   0  0  0  0  0  0  0  0  0  0  0  0
   -0.5467   -3.2644    0.8245 O   0  0  0  0  0  0  0  0  0  0  0  0
   -1.2437   -1.5446   -0.4640 N   0  0  0  0  0  0  0  0  0  0  0  0
   -1.9461   -1.2675   -1.1396 H   0  0  0  0  0  0  0  0  0  0  0  0
    0.0150   -0.7816   -0.4400 C   0  0  1  0  0  0  0  0  0  0  0  0
    0.7737   -1.4434   -0.8731 H   0  0  0  0  0  0  0  0  0  0  0  0
    0.0081    0.5104   -1.3065 C   0  0  0  0  0  0  0  0  0  0  0  0
   -0.0357    1.3705   -0.6285 H   0  0  0  0  0  0  0  0  0  0  0  0
    0.9808    0.5619   -1.8076 H   0  0  0  0  0  0  0  0  0  0  0  0
   -1.1018    0.7333   -2.3699 C   0  0  0  0  0  0  0  0  0  0  0  0
   -1.0423   -0.0757   -3.1061 H   0  0  0  0  0  0  0  0  0  0  0  0
   -2.5410    0.7737   -1.8161 C   0  0  0  0  0  0  0  0  0  0  0  0
   -2.5522    1.2009   -0.8083 H   0  0  0  0  0  0  0  0  0  0  0  0
   -3.1817    1.3914   -2.4537 H   0  0  0  0  0  0  0  0  0  0  0  0
   -2.9928   -0.2198   -1.7891 H   0  0  0  0  0  0  0  0  0  0  0  0
   -0.8107    2.0531   -3.0982 C   0  0  0  0  0  0  0  0  0  0  0  0
    0.1978    2.0433   -3.5234 H   0  0  0  0  0  0  0  0  0  0  0  0
   -1.5204    2.2044   -3.9177 H   0  0  0  0  0  0  0  0  0  0  0  0
   -0.8898    2.9000   -2.4089 H   0  0  0  0  0  0  0  0  0  0  0  0
    0.5174   -0.4384    0.9812 C   0  0  0  0  0  0  0  0  0  0  0  0
    1.7199   -0.3538    1.1946 O   0  0  0  0  0  0  0  0  0  0  0  0
   -0.3700    0.0392    1.9289 N   0  0  0  0  0  0  0  0  0  0  0  0
   -1.3535   -0.1225    1.7397 H   0  0  0  0  0  0  0  0  0  0  0  0
    0.0358    0.3926    3.2832 C   0  0  0  0  0  0  0  0  0  0  0  0
    0.7995    1.1771    3.2627 H   0  0  0  0  0  0  0  0  0  0  0  0
   -0.8229    0.7636    3.8507 H   0  0  0  0  0  0  0  0  0  0  0  0
    0.4431   -0.4826    3.8003 H   0  0  0  0  0  0  0  0  0  0  0  0
  1  2  1  0  0  0  0
  2  3  1  0  0  0  0
  2  4  1  0  0  0  0
  2  5  1  0  0  0  0
  5  6  2  0  0  0  0
  5  7  1  0  0  0  0
  7  8  1  0  0  0  0
  7  9  1  0  0  0  0
  9 10  1  0  0  0  0
  9 11  1  0  0  0  0
  9 24  1  0  0  0  0
 11 12  1  0  0  0  0
 11 13  1  0  0  0  0
 11 14  1  0  0  0  0
 14 15  1  0  0  0  0
 14 16  1  0  0  0  0
 14 20  1  0  0  0  0
 16 17  1  0  0  0  0
 16 18  1  0  0  0  0
 16 19  1  0  0  0  0
 20 21  1  0  0  0  0
 20 22  1  0  0  0  0
 20 23  1  0  0  0  0
 24 25  2  0  0  0  0
 24 26  1  0  0  0  0
 26 27  1  0  0  0  0
 26 28  1  0  0  0  0
 28 29  1  0  0  0  0
 28 30  1  0  0  0  0
 28 31  1  0  0  0  0
M  END
$$$$

  -OEChem-04042216013D

 31 30  0     1  0  0  0  0  0999 V2000
   -2.7376   -4.4641    0.2994 H   0  0  0  0  0  0  0  0  0  0  0  0
   -2.7469   -3.4921   -0.2021 C   0  0  0  0  0  0  0  0  0  0  0  0
   -3.5899   -2.9093    0.1764 H   0  0  0  0  0  0  0  0  0  0  0  0
   -2.8748   -3.6523   -1.2753 H   0  0  0  0  0  0  0  0  0  0  0  0
   -1.4461   -2.7570    0.0614 C   0  0  0  0  0  0  0  0  0  0  0  0
   -0.5953   -3.2647    0.7689 O   0  0  0  0  0  0  0  0  0  0  0  0
   -1.2407   -1.5125   -0.5007 N   0  0  0  0  0  0  0  0  0  0  0  0
   -1.9416   -1.1954   -1.1629 H   0  0  0  0  0  0  0  0  0  0  0  0
    0.0333   -0.7726   -0.4493 C   0  0  1  0  0  0  0  0  0  0  0  0
    0.7871   -1.4399   -0.8819 H   0  0  0  0  0  0  0  0  0  0  0  0
    0.0427    0.5262   -1.3025 C   0  0  0  0  0  0  0  0  0  0  0  0
    0.0119    1.3931   -0.6329 H   0  0  0  0  0  0  0  0  0  0  0  0
    1.0123    0.5632   -1.8107 H   0  0  0  0  0  0  0  0  0  0  0  0
   -1.0804    0.7149   -2.3527 C   0  0  0  0  0  0  0  0  0  0  0  0
   -1.1939   -0.2148   -2.9209 H   0  0  0  0  0  0  0  0  0  0  0  0
   -2.4381    1.0936   -1.7285 C   0  0  0  0  0  0  0  0  0  0  0  0
   -2.3465    2.0269   -1.1638 H   0  0  0  0  0  0  0  0  0  0  0  0
   -3.1834    1.2414   -2.5164 H   0  0  0  0  0  0  0  0  0  0  0  0
   -2.8203    0.3286   -1.0523 H   0  0  0  0  0  0  0  0  0  0  0  0
   -0.6724    1.8222   -3.3328 C   0  0  0  0  0  0  0  0  0  0  0  0
    0.2643    1.5629   -3.8364 H   0  0  0  0  0  0  0  0  0  0  0  0
   -1.4428    1.9590   -4.0983 H   0  0  0  0  0  0  0  0  0  0  0  0
   -0.5324    2.7721   -2.8067 H   0  0  0  0  0  0  0  0  0  0  0  0
    0.5262   -0.4502    0.9796 C   0  0  0  0  0  0  0  0  0  0  0  0
    1.7277   -0.3871    1.2060 O   0  0  0  0  0  0  0  0  0  0  0  0
   -0.3622    0.0365    1.9216 N   0  0  0  0  0  0  0  0  0  0  0  0
   -1.3461   -0.1116    1.7234 H   0  0  0  0  0  0  0  0  0  0  0  0
    0.0365    0.3722    3.2825 C   0  0  0  0  0  0  0  0  0  0  0  0
    0.8100    1.1474    3.2763 H   0  0  0  0  0  0  0  0  0  0  0  0
   -0.8224    0.7483    3.8463 H   0  0  0  0  0  0  0  0  0  0  0  0
    0.4290   -0.5128    3.7943 H   0  0  0  0  0  0  0  0  0  0  0  0
  1  2  1  0  0  0  0
  2  3  1  0  0  0  0
  2  4  1  0  0  0  0
  2  5  1  0  0  0  0
  5  6  2  0  0  0  0
  5  7  1  0  0  0  0
  7  8  1  0  0  0  0
  7  9  1  0  0  0  0
  9 10  1  0  0  0  0
  9 11  1  0  0  0  0
  9 24  1  0  0  0  0
 11 12  1  0  0  0  0
 11 13  1  0  0  0  0
 11 14  1  0  0  0  0
 14 15  1  0  0  0  0
 14 16  1  0  0  0  0
 14 20  1  0  0  0  0
 16 17  1  0  0  0  0
 16 18  1  0  0  0  0
 16 19  1  0  0  0  0
 20 21  1  0  0  0  0
 20 22  1  0  0  0  0
 20 23  1  0  0  0  0
 24 25  2  0  0  0  0
 24 26  1  0  0  0  0
 26 27  1  0  0  0  0
 26 28  1  0  0  0  0
 28 29  1  0  0  0  0
 28 30  1  0  0  0  0
 28 31  1  0  0  0  0
M  END
$$$$

  -OEChem-04042216013D

 31 30  0     1  0  0  0  0  0999 V2000
   -2.7849   -4.4110    0.2797 H   0  0  0  0  0  0  0  0  0  0  0  0
   -2.7799   -3.4350   -0.2138 C   0  0  0  0  0  0  0  0  0  0  0  0
   -3.5943   -2.8312    0.1931 H   0  0  0  0  0  0  0  0  0  0  0  0
   -2.9426   -3.5823   -1.2841 H   0  0  0  0  0  0  0  0  0  0  0  0
   -1.4514   -2.7402    0.0186 C   0  0  0  0  0  0  0  0  0  0  0  0
   -0.5950   -3.2791    0.6956 O   0  0  0  0  0  0  0  0  0  0  0  0
   -1.2262   -1.4947   -0.5335 N   0  0  0  0  0  0  0  0  0  0  0  0
   -1.9546   -1.1193   -1.1333 H   0  0  0  0  0  0  0  0  0  0  0  0
    0.0540   -0.7632   -0.4571 C   0  0  1  0  0  0  0  0  0  0  0  0
    0.8112   -1.4308   -0.8840 H   0  0  0  0  0  0  0  0  0  0  0  0
    0.0676    0.5345   -1.3085 C   0  0  0  0  0  0  0  0  0  0  0  0
    0.0352    1.4079   -0.6473 H   0  0  0  0  0  0  0  0  0  0  0  0
    1.0394    0.5698   -1.8132 H   0  0  0  0  0  0  0  0  0  0  0  0
   -1.0606    0.6783   -2.3605 C   0  0  0  0  0  0  0  0  0  0  0  0
   -1.3387   -0.3002   -2.7644 H   0  0  0  0  0  0  0  0  0  0  0  0
   -2.2885    1.3745   -1.7546 C   0  0  0  0  0  0  0  0  0  0  0  0
   -2.0352    2.3852   -1.4183 H   0  0  0  0  0  0  0  0  0  0  0  0
   -3.0883    1.4487   -2.4983 H   0  0  0  0  0  0  0  0  0  0  0  0
   -2.6700    0.8135   -0.8969 H   0  0  0  0  0  0  0  0  0  0  0  0
   -0.5581    1.5302   -3.5333 C   0  0  0  0  0  0  0  0  0  0  0  0
    0.2941    1.0455   -4.0204 H   0  0  0  0  0  0  0  0  0  0  0  0
   -1.3485    1.6581   -4.2797 H   0  0  0  0  0  0  0  0  0  0  0  0
   -0.2433    2.5200   -3.1871 H   0  0  0  0  0  0  0  0  0  0  0  0
    0.5280   -0.4494    0.9791 C   0  0  0  0  0  0  0  0  0  0  0  0
    1.7260   -0.3996    1.2251 O   0  0  0  0  0  0  0  0  0  0  0  0
   -0.3711    0.0409    1.9092 N   0  0  0  0  0  0  0  0  0  0  0  0
   -1.3536   -0.0889    1.6930 H   0  0  0  0  0  0  0  0  0  0  0  0
    0.0092    0.3760    3.2755 C   0  0  0  0  0  0  0  0  0  0  0  0
    0.7856    1.1484    3.2796 H   0  0  0  0  0  0  0  0  0  0  0  0
   -0.8564    0.7557    3.8264 H   0  0  0  0  0  0  0  0  0  0  0  0
    0.3907   -0.5104    3.7933 H   0  0  0  0  0  0  0  0  0  0  0  0
  1  2  1  0  0  0  0
  2  3  1  0  0  0  0
  2  4  1  0  0  0  0
  2  5  1  0  0  0  0
  5  6  2  0  0  0  0
  5  7  1  0  0  0  0
  7  8  1  0  0  0  0
  7  9  1  0  0  0  0
  9 10  1  0  0  0  0
  9 11  1  0  0  0  0
  9 24  1  0  0  0  0
 11 12  1  0  0  0  0
 11 13  1  0  0  0  0
 11 14  1  0  0  0  0
 14 15  1  0  0  0  0
 14 16  1  0  0  0  0
 14 20  1  0  0  0  0
 16 17  1  0  0  0  0
 16 18  1  0  0  0  0
 16 19  1  0  0  0  0
 20 21  1  0  0  0  0
 20 22  1  0  0  0  0
 20 23  1  0  0  0  0
 24 25  2  0  0  0  0
 24 26  1  0  0  0  0
 26 27  1  0  0  0  0
 26 28  1  0  0  0  0
 28 29  1  0  0  0  0
 28 30  1  0  0  0  0
 28 31  1  0  0  0  0
M  END
$$$$

  -OEChem-04042216013D

 31 30  0     1  0  0  0  0  0999 V2000
   -2.7779   -4.4196    0.3223 H   0  0  0  0  0  0  0  0  0  0  0  0
   -2.7812   -3.4448   -0.1739 C   0  0  0  0  0  0  0  0  0  0  0  0
   -3.5808   -2.8355    0.2541 H   0  0  0  0  0  0  0  0  0  0  0  0
   -2.9738   -3.5936   -1.2392 H   0  0  0  0  0  0  0  0  0  0  0  0
   -1.4435   -2.7559    0.0192 C   0  0  0  0  0  0  0  0  0  0  0  0
   -0.5691   -3.2996    0.6688 O   0  0  0  0  0  0  0  0  0  0  0  0
   -1.2326   -1.5074   -0.5319 N   0  0  0  0  0  0  0  0  0  0  0  0
   -1.9863   -1.1170   -1.0888 H   0  0  0  0  0  0  0  0  0  0  0  0
    0.0411   -0.7640   -0.4617 C   0  0  1  0  0  0  0  0  0  0  0  0
    0.8008   -1.4288   -0.8888 H   0  0  0  0  0  0  0  0  0  0  0  0
    0.0550    0.5315   -1.3179 C   0  0  0  0  0  0  0  0  0  0  0  0
    0.0193    1.4001   -0.6509 H   0  0  0  0  0  0  0  0  0  0  0  0
    1.0341    0.5733   -1.8075 H   0  0  0  0  0  0  0  0  0  0  0  0
   -1.0653    0.6862   -2.3845 C   0  0  0  0  0  0  0  0  0  0  0  0
   -1.5383   -0.2701   -2.6215 H   0  0  0  0  0  0  0  0  0  0  0  0
   -2.1220    1.6936   -1.9123 C   0  0  0  0  0  0  0  0  0  0  0  0
   -1.6752    2.6794   -1.7467 H   0  0  0  0  0  0  0  0  0  0  0  0
   -2.9144    1.7948   -2.6606 H   0  0  0  0  0  0  0  0  0  0  0  0
   -2.5753    1.3561   -0.9752 H   0  0  0  0  0  0  0  0  0  0  0  0
   -0.4574    1.2136   -3.6911 C   0  0  0  0  0  0  0  0  0  0  0  0
    0.2777    0.5035   -4.0833 H   0  0  0  0  0  0  0  0  0  0  0  0
   -1.2362    1.3504   -4.4479 H   0  0  0  0  0  0  0  0  0  0  0  0
    0.0406    2.1749   -3.5274 H   0  0  0  0  0  0  0  0  0  0  0  0
    0.5175   -0.4495    0.9739 C   0  0  0  0  0  0  0  0  0  0  0  0
    1.7158   -0.3854    1.2147 O   0  0  0  0  0  0  0  0  0  0  0  0
   -0.3821    0.0296    1.9095 N   0  0  0  0  0  0  0  0  0  0  0  0
   -1.3644   -0.1099    1.6985 H   0  0  0  0  0  0  0  0  0  0  0  0
    0.0018    0.3674    3.2743 C   0  0  0  0  0  0  0  0  0  0  0  0
    0.7757    1.1420    3.2752 H   0  0  0  0  0  0  0  0  0  0  0  0
   -0.8628    0.7452    3.8278 H   0  0  0  0  0  0  0  0  0  0  0  0
    0.3880   -0.5166    3.7925 H   0  0  0  0  0  0  0  0  0  0  0  0
  1  2  1  0  0  0  0
  2  3  1  0  0  0  0
  2  4  1  0  0  0  0
  2  5  1  0  0  0  0
  5  6  2  0  0  0  0
  5  7  1  0  0  0  0
  7  8  1  0  0  0  0
  7  9  1  0  0  0  0
  9 10  1  0  0  0  0
  9 11  1  0  0  0  0
  9 24  1  0  0  0  0
 11 12  1  0  0  0  0
 11 13  1  0  0  0  0
 11 14  1  0  0  0  0
 14 15  1  0  0  0  0
 14 16  1  0  0  0  0
 14 20  1  0  0  0  0
 16 17  1  0  0  0  0
 16 18  1  0  0  0  0
 16 19  1  0  0  0  0
 20 21  1  0  0  0  0
 20 22  1  0  0  0  0
 20 23  1  0  0  0  0
 24 25  2  0  0  0  0
 24 26  1  0  0  0  0
 26 27  1  0  0  0  0
 26 28  1  0  0  0  0
 28 29  1  0  0  0  0
 28 30  1  0  0  0  0
 28 31  1  0  0  0  0
M  END
$$$$

  -OEChem-04042216013D

 31 30  0     1  0  0  0  0  0999 V2000
   -2.7561   -4.4427    0.3461 H   0  0  0  0  0  0  0  0  0  0  0  0
   -2.7754   -3.4673   -0.1486 C   0  0  0  0  0  0  0  0  0  0  0  0
   -3.5733   -2.8652    0.2923 H   0  0  0  0  0  0  0  0  0  0  0  0
   -2.9832   -3.6166   -1.2109 H   0  0  0  0  0  0  0  0  0  0  0  0
   -1.4404   -2.7679    0.0255 C   0  0  0  0  0  0  0  0  0  0  0  0
   -0.5506   -3.3078    0.6573 O   0  0  0  0  0  0  0  0  0  0  0  0
   -1.2478   -1.5156   -0.5241 N   0  0  0  0  0  0  0  0  0  0  0  0
   -2.0156   -1.1266   -1.0613 H   0  0  0  0  0  0  0  0  0  0  0  0
    0.0192   -0.7604   -0.4635 C   0  0  1  0  0  0  0  0  0  0  0  0
    0.7787   -1.4236   -0.8937 H   0  0  0  0  0  0  0  0  0  0  0  0
    0.0381    0.5349   -1.3227 C   0  0  0  0  0  0  0  0  0  0  0  0
   -0.0169    1.3907   -0.6406 H   0  0  0  0  0  0  0  0  0  0  0  0
    1.0259    0.5985   -1.7921 H   0  0  0  0  0  0  0  0  0  0  0  0
   -1.0700    0.7153   -2.4030 C   0  0  0  0  0  0  0  0  0  0  0  0
   -1.7506   -0.1357   -2.4452 H   0  0  0  0  0  0  0  0  0  0  0  0
   -1.8972    1.9766   -2.1238 C   0  0  0  0  0  0  0  0  0  0  0  0
   -1.2601    2.8671   -2.1253 H   0  0  0  0  0  0  0  0  0  0  0  0
   -2.6709    2.1028   -2.8878 H   0  0  0  0  0  0  0  0  0  0  0  0
   -2.3879    1.9009   -1.1483 H   0  0  0  0  0  0  0  0  0  0  0  0
   -0.4253    0.8368   -3.7893 C   0  0  0  0  0  0  0  0  0  0  0  0
    0.1532   -0.0638   -4.0188 H   0  0  0  0  0  0  0  0  0  0  0  0
   -1.1937    0.9556   -4.5596 H   0  0  0  0  0  0  0  0  0  0  0  0
    0.2448    1.7016   -3.8319 H   0  0  0  0  0  0  0  0  0  0  0  0
    0.5042   -0.4468    0.9697 C   0  0  0  0  0  0  0  0  0  0  0  0
    1.7039   -0.3741    1.2012 O   0  0  0  0  0  0  0  0  0  0  0  0
   -0.3920    0.0203    1.9146 N   0  0  0  0  0  0  0  0  0  0  0  0
   -1.3748   -0.1264    1.7114 H   0  0  0  0  0  0  0  0  0  0  0  0
    0.0007    0.3569    3.2770 C   0  0  0  0  0  0  0  0  0  0  0  0
    0.7665    1.1398    3.2738 H   0  0  0  0  0  0  0  0  0  0  0  0
   -0.8626    0.7234    3.8402 H   0  0  0  0  0  0  0  0  0  0  0  0
    0.4007   -0.5255    3.7875 H   0  0  0  0  0  0  0  0  0  0  0  0
  1  2  1  0  0  0  0
  2  3  1  0  0  0  0
  2  4  1  0  0  0  0
  2  5  1  0  0  0  0
  5  6  2  0  0  0  0
  5  7  1  0  0  0  0
  7  8  1  0  0  0  0
  7  9  1  0  0  0  0
  9 10  1  0  0  0  0
  9 11  1  0  0  0  0
  9 24  1  0  0  0  0
 11 12  1  0  0  0  0
 11 13  1  0  0  0  0
 11 14  1  0  0  0  0
 14 15  1  0  0  0  0
 14 16  1  0  0  0  0
 14 20  1  0  0  0  0
 16 17  1  0  0  0  0
 16 18  1  0  0  0  0
 16 19  1  0  0  0  0
 20 21  1  0  0  0  0
 20 22  1  0  0  0  0
 20 23  1  0  0  0  0
 24 25  2  0  0  0  0
 24 26  1  0  0  0  0
 26 27  1  0  0  0  0
 26 28  1  0  0  0  0
 28 29  1  0  0  0  0
 28 30  1  0  0  0  0
 28 31  1  0  0  0  0
M  END
$$$$

  -OEChem-04042216013D

 31 30  0     1  0  0  0  0  0999 V2000
   -2.7421   -4.4608    0.3104 H   0  0  0  0  0  0  0  0  0  0  0  0
   -2.7676   -3.4816   -0.1763 C   0  0  0  0  0  0  0  0  0  0  0  0
   -3.5871   -2.8983    0.2500 H   0  0  0  0  0  0  0  0  0  0  0  0
   -2.9471   -3.6257   -1.2443 H   0  0  0  0  0  0  0  0  0  0  0  0
   -1.4500   -2.7599    0.0356 C   0  0  0  0  0  0  0  0  0  0  0  0
   -0.5704   -3.2849    0.6935 O   0  0  0  0  0  0  0  0  0  0  0  0
   -1.2612   -1.5073   -0.5150 N   0  0  0  0  0  0  0  0  0  0  0  0
   -2.0109   -1.1487   -1.0964 H   0  0  0  0  0  0  0  0  0  0  0  0
    0.0066   -0.7523   -0.4593 C   0  0  1  0  0  0  0  0  0  0  0  0
    0.7631   -1.4185   -0.8896 H   0  0  0  0  0  0  0  0  0  0  0  0
    0.0344    0.5415   -1.3222 C   0  0  0  0  0  0  0  0  0  0  0  0
   -0.0416    1.3874   -0.6300 H   0  0  0  0  0  0  0  0  0  0  0  0
    1.0248    0.6256   -1.7825 H   0  0  0  0  0  0  0  0  0  0  0  0
   -1.0668    0.7320   -2.4049 C   0  0  0  0  0  0  0  0  0  0  0  0
   -1.9169    0.0695   -2.2412 H   0  0  0  0  0  0  0  0  0  0  0  0
   -1.6253    2.1594   -2.3587 C   0  0  0  0  0  0  0  0  0  0  0  0
   -0.8271    2.8908   -2.5228 H   0  0  0  0  0  0  0  0  0  0  0  0
   -2.3863    2.2969   -3.1334 H   0  0  0  0  0  0  0  0  0  0  0  0
   -2.0870    2.3590   -1.3865 H   0  0  0  0  0  0  0  0  0  0  0  0
   -0.4982    0.4243   -3.7940 C   0  0  0  0  0  0  0  0  0  0  0  0
   -0.1107   -0.5988   -3.8269 H   0  0  0  0  0  0  0  0  0  0  0  0
   -1.2782    0.5219   -4.5556 H   0  0  0  0  0  0  0  0  0  0  0  0
    0.3157    1.1134   -4.0416 H   0  0  0  0  0  0  0  0  0  0  0  0
    0.4984   -0.4389    0.9723 C   0  0  0  0  0  0  0  0  0  0  0  0
    1.6991   -0.3608    1.1969 O   0  0  0  0  0  0  0  0  0  0  0  0
   -0.3937    0.0280    1.9211 N   0  0  0  0  0  0  0  0  0  0  0  0
   -1.3768   -0.1266    1.7244 H   0  0  0  0  0  0  0  0  0  0  0  0
    0.0058    0.3662    3.2811 C   0  0  0  0  0  0  0  0  0  0  0  0
    0.7622    1.1580    3.2734 H   0  0  0  0  0  0  0  0  0  0  0  0
   -0.8574    0.7211    3.8518 H   0  0  0  0  0  0  0  0  0  0  0  0
    0.4203   -0.5122    3.7869 H   0  0  0  0  0  0  0  0  0  0  0  0
  1  2  1  0  0  0  0
  2  3  1  0  0  0  0
  2  4  1  0  0  0  0
  2  5  1  0  0  0  0
  5  6  2  0  0  0  0
  5  7  1  0  0  0  0
  7  8  1  0  0  0  0
  7  9  1  0  0  0  0
  9 10  1  0  0  0  0
  9 11  1  0  0  0  0
  9 24  1  0  0  0  0
 11 12  1  0  0  0  0
 11 13  1  0  0  0  0
 11 14  1  0  0  0  0
 14 15  1  0  0  0  0
 14 16  1  0  0  0  0
 14 20  1  0  0  0  0
 16 17  1  0  0  0  0
 16 18  1  0  0  0  0
 16 19  1  0  0  0  0
 20 21  1  0  0  0  0
 20 22  1  0  0  0  0
 20 23  1  0  0  0  0
 24 25  2  0  0  0  0
 24 26  1  0  0  0  0
 26 27  1  0  0  0  0
 26 28  1  0  0  0  0
 28 29  1  0  0  0  0
 28 30  1  0  0  0  0
 28 31  1  0  0  0  0
M  END
$$$$

  -OEChem-04042216013D

 31 30  0     1  0  0  0  0  0999 V2000
   -2.7478   -4.4499    0.2533 H   0  0  0  0  0  0  0  0  0  0  0  0
   -2.7604   -3.4704   -0.2337 C   0  0  0  0  0  0  0  0  0  0  0  0
   -3.6051   -2.8956    0.1534 H   0  0  0  0  0  0  0  0  0  0  0  0
   -2.8881   -3.6145   -1.3093 H   0  0  0  0  0  0  0  0  0  0  0  0
   -1.4622   -2.7348    0.0406 C   0  0  0  0  0  0  0  0  0  0  0  0
   -0.6143   -3.2446    0.7501 O   0  0  0  0  0  0  0  0  0  0  0  0
   -1.2557   -1.4883   -0.5166 N   0  0  0  0  0  0  0  0  0  0  0  0
   -1.9588   -1.1692   -1.1745 H   0  0  0  0  0  0  0  0  0  0  0  0
    0.0209   -0.7490   -0.4546 C   0  0  1  0  0  0  0  0  0  0  0  0
    0.7754   -1.4198   -0.8814 H   0  0  0  0  0  0  0  0  0  0  0  0
    0.0474    0.5438   -1.3179 C   0  0  0  0  0  0  0  0  0  0  0  0
   -0.0346    1.3911   -0.6282 H   0  0  0  0  0  0  0  0  0  0  0  0
    1.0316    0.6310   -1.7908 H   0  0  0  0  0  0  0  0  0  0  0  0
   -1.0634    0.7185   -2.3863 C   0  0  0  0  0  0  0  0  0  0  0  0
   -2.0050    0.2830   -2.0464 H   0  0  0  0  0  0  0  0  0  0  0  0
   -1.3618    2.2062   -2.6033 C   0  0  0  0  0  0  0  0  0  0  0  0
   -0.4591    2.7355   -2.9249 H   0  0  0  0  0  0  0  0  0  0  0  0
   -2.1307    2.3329   -3.3719 H   0  0  0  0  0  0  0  0  0  0  0  0
   -1.7247    2.6648   -1.6780 H   0  0  0  0  0  0  0  0  0  0  0  0
   -0.6553    0.0387   -3.6966 C   0  0  0  0  0  0  0  0  0  0  0  0
   -0.4647   -1.0261   -3.5296 H   0  0  0  0  0  0  0  0  0  0  0  0
   -1.4524    0.1338   -4.4405 H   0  0  0  0  0  0  0  0  0  0  0  0
    0.2532    0.4954   -4.1022 H   0  0  0  0  0  0  0  0  0  0  0  0
    0.5077   -0.4318    0.9778 C   0  0  0  0  0  0  0  0  0  0  0  0
    1.7080   -0.3680    1.2094 O   0  0  0  0  0  0  0  0  0  0  0  0
   -0.3848    0.0529    1.9169 N   0  0  0  0  0  0  0  0  0  0  0  0
   -1.3675   -0.1003    1.7169 H   0  0  0  0  0  0  0  0  0  0  0  0
    0.0095    0.3901    3.2787 C   0  0  0  0  0  0  0  0  0  0  0  0
    0.7771    1.1712    3.2743 H   0  0  0  0  0  0  0  0  0  0  0  0
   -0.8528    0.7591    3.8419 H   0  0  0  0  0  0  0  0  0  0  0  0
    0.4083   -0.4924    3.7903 H   0  0  0  0  0  0  0  0  0  0  0  0
  1  2  1  0  0  0  0
  2  3  1  0  0  0  0
  2  4  1  0  0  0  0
  2  5  1  0  0  0  0
  5  6  2  0  0  0  0
  5  7  1  0  0  0  0
  7  8  1  0  0  0  0
  7  9  1  0  0  0  0
  9 10  1  0  0  0  0
  9 11  1  0  0  0  0
  9 24  1  0  0  0  0
 11 12  1  0  0  0  0
 11 13  1  0  0  0  0
 11 14  1  0  0  0  0
 14 15  1  0  0  0  0
 14 16  1  0  0  0  0
 14 20  1  0  0  0  0
 16 17  1  0  0  0  0
 16 18  1  0  0  0  0
 16 19  1  0  0  0  0
 20 21  1  0  0  0  0
 20 22  1  0  0  0  0
 20 23  1  0  0  0  0
 24 25  2  0  0  0  0
 24 26  1  0  0  0  0
 26 27  1  0  0  0  0
 26 28  1  0  0  0  0
 28 29  1  0  0  0  0
 28 30  1  0  0  0  0
 28 31  1  0  0  0  0
M  END
$$$$

  -OEChem-04042216013D

 31 30  0     1  0  0  0  0  0999 V2000
   -2.7615   -4.4334    0.2459 H   0  0  0  0  0  0  0  0  0  0  0  0
   -2.7640   -3.4574   -0.2478 C   0  0  0  0  0  0  0  0  0  0  0  0
   -3.6127   -2.8777    0.1229 H   0  0  0  0  0  0  0  0  0  0  0  0
   -2.8756   -3.6091   -1.3241 H   0  0  0  0  0  0  0  0  0  0  0  0
   -1.4682   -2.7241    0.0417 C   0  0  0  0  0  0  0  0  0  0  0  0
   -0.6340   -3.2321    0.7686 O   0  0  0  0  0  0  0  0  0  0  0  0
   -1.2483   -1.4818   -0.5197 N   0  0  0  0  0  0  0  0  0  0  0  0
   -1.9323   -1.1695   -1.2014 H   0  0  0  0  0  0  0  0  0  0  0  0
    0.0338   -0.7526   -0.4506 C   0  0  1  0  0  0  0  0  0  0  0  0
    0.7875   -1.4259   -0.8743 H   0  0  0  0  0  0  0  0  0  0  0  0
    0.0539    0.5375   -1.3151 C   0  0  0  0  0  0  0  0  0  0  0  0
   -0.0257    1.3940   -0.6362 H   0  0  0  0  0  0  0  0  0  0  0  0
    1.0316    0.6171   -1.8026 H   0  0  0  0  0  0  0  0  0  0  0  0
   -1.0653    0.6891   -2.3722 C   0  0  0  0  0  0  0  0  0  0  0  0
   -2.0394    0.4731   -1.9235 H   0  0  0  0  0  0  0  0  0  0  0  0
   -1.1198    2.1407   -2.8622 C   0  0  0  0  0  0  0  0  0  0  0  0
   -0.1642    2.4326   -3.3096 H   0  0  0  0  0  0  0  0  0  0  0  0
   -1.9061    2.2602   -3.6144 H   0  0  0  0  0  0  0  0  0  0  0  0
   -1.3361    2.8193   -2.0311 H   0  0  0  0  0  0  0  0  0  0  0  0
   -0.8307   -0.2564   -3.5581 C   0  0  0  0  0  0  0  0  0  0  0  0
   -0.8061   -1.2990   -3.2282 H   0  0  0  0  0  0  0  0  0  0  0  0
   -1.6340   -0.1494   -4.2938 H   0  0  0  0  0  0  0  0  0  0  0  0
    0.1211   -0.0286   -4.0488 H   0  0  0  0  0  0  0  0  0  0  0  0
    0.5153   -0.4311    0.9822 C   0  0  0  0  0  0  0  0  0  0  0  0
    1.7150   -0.3773    1.2196 O   0  0  0  0  0  0  0  0  0  0  0  0
   -0.3783    0.0665    1.9137 N   0  0  0  0  0  0  0  0  0  0  0  0
   -1.3613   -0.0784    1.7088 H   0  0  0  0  0  0  0  0  0  0  0  0
    0.0108    0.4090    3.2757 C   0  0  0  0  0  0  0  0  0  0  0  0
    0.7866    1.1819    3.2703 H   0  0  0  0  0  0  0  0  0  0  0  0
   -0.8514    0.7908    3.8305 H   0  0  0  0  0  0  0  0  0  0  0  0
    0.3964   -0.4740    3.7962 H   0  0  0  0  0  0  0  0  0  0  0  0
  1  2  1  0  0  0  0
  2  3  1  0  0  0  0
  2  4  1  0  0  0  0
  2  5  1  0  0  0  0
  5  6  2  0  0  0  0
  5  7  1  0  0  0  0
  7  8  1  0  0  0  0
  7  9  1  0  0  0  0
  9 10  1  0  0  0  0
  9 11  1  0  0  0  0
  9 24  1  0  0  0  0
 11 12  1  0  0  0  0
 11 13  1  0  0  0  0
 11 14  1  0  0  0  0
 14 15  1  0  0  0  0
 14 16  1  0  0  0  0
 14 20  1  0  0  0  0
 16 17  1  0  0  0  0
 16 18  1  0  0  0  0
 16 19  1  0  0  0  0
 20 21  1  0  0  0  0
 20 22  1  0  0  0  0
 20 23  1  0  0  0  0
 24 25  2  0  0  0  0
 24 26  1  0  0  0  0
 26 27  1  0  0  0  0
 26 28  1  0  0  0  0
 28 29  1  0  0  0  0
 28 30  1  0  0  0  0
 28 31  1  0  0  0  0
M  END
$$$$

  -OEChem-04042216013D

 31 30  0     1  0  0  0  0  0999 V2000
   -2.6920   -4.4807    0.4159 H   0  0  0  0  0  0  0  0  0  0  0  0
   -2.7217   -3.5140   -0.0947 C   0  0  0  0  0  0  0  0  0  0  0  0
   -3.5392   -2.9213    0.3226 H   0  0  0  0  0  0  0  0  0  0  0  0
   -2.9077   -3.6841   -1.1579 H   0  0  0  0  0  0  0  0  0  0  0  0
   -1.4037   -2.7862    0.0902 C   0  0  0  0  0  0  0  0  0  0  0  0
   -0.5151   -3.2986    0.7462 O   0  0  0  0  0  0  0  0  0  0  0  0
   -1.2245   -1.5429   -0.4835 N   0  0  0  0  0  0  0  0  0  0  0  0
   -1.9830   -1.1865   -1.0561 H   0  0  0  0  0  0  0  0  0  0  0  0
    0.0312   -0.7732   -0.4425 C   0  0  1  0  0  0  0  0  0  0  0  0
    0.8054   -1.4261   -0.8615 H   0  0  0  0  0  0  0  0  0  0  0  0
    0.0120    0.5143   -1.3154 C   0  0  0  0  0  0  0  0  0  0  0  0
    0.2259    1.3720   -0.6676 H   0  0  0  0  0  0  0  0  0  0  0  0
    0.8514    0.4428   -2.0157 H   0  0  0  0  0  0  0  0  0  0  0  0
   -1.2669    0.8595   -2.1222 C   0  0  0  0  0  0  0  0  0  0  0  0
   -2.1182    0.9832   -1.4444 H   0  0  0  0  0  0  0  0  0  0  0  0
   -1.0086    2.1727   -2.8771 C   0  0  0  0  0  0  0  0  0  0  0  0
   -0.1778    2.0626   -3.5822 H   0  0  0  0  0  0  0  0  0  0  0  0
   -1.8996    2.4780   -3.4350 H   0  0  0  0  0  0  0  0  0  0  0  0
   -0.7606    2.9738   -2.1739 H   0  0  0  0  0  0  0  0  0  0  0  0
   -1.5992   -0.1810   -3.2144 C   0  0  0  0  0  0  0  0  0  0  0  0
   -1.9619   -1.1233   -2.8035 H   0  0  0  0  0  0  0  0  0  0  0  0
   -2.3831    0.2017   -3.8757 H   0  0  0  0  0  0  0  0  0  0  0  0
   -0.7124   -0.3921   -3.8208 H   0  0  0  0  0  0  0  0  0  0  0  0
    0.5064   -0.4319    0.9884 C   0  0  0  0  0  0  0  0  0  0  0  0
    1.7038   -0.3415    1.2255 O   0  0  0  0  0  0  0  0  0  0  0  0
   -0.4004    0.0386    1.9215 N   0  0  0  0  0  0  0  0  0  0  0  0
   -1.3800   -0.1232    1.7139 H   0  0  0  0  0  0  0  0  0  0  0  0
   -0.0208    0.3958    3.2825 C   0  0  0  0  0  0  0  0  0  0  0  0
    0.7392    1.1843    3.2752 H   0  0  0  0  0  0  0  0  0  0  0  0
   -0.8915    0.7629    3.8340 H   0  0  0  0  0  0  0  0  0  0  0  0
    0.3820   -0.4765    3.8077 H   0  0  0  0  0  0  0  0  0  0  0  0
  1  2  1  0  0  0  0
  2  3  1  0  0  0  0
  2  4  1  0  0  0  0
  2  5  1  0  0  0  0
  5  6  2  0  0  0  0
  5  7  1  0  0  0  0
  7  8  1  0  0  0  0
  7  9  1  0  0  0  0
  9 10  1  0  0  0  0
  9 11  1  0  0  0  0
  9 24  1  0  0  0  0
 11 12  1  0  0  0  0
 11 13  1  0  0  0  0
 11 14  1  0  0  0  0
 14 15  1  0  0  0  0
 14 16  1  0  0  0  0
 14 20  1  0  0  0  0
 16 17  1  0  0  0  0
 16 18  1  0  0  0  0
 16 19  1  0  0  0  0
 20 21  1  0  0  0  0
 20 22  1  0  0  0  0
 20 23  1  0  0  0  0
 24 25  2  0  0  0  0
 24 26  1  0  0  0  0
 26 27  1  0  0  0  0
 26 28  1  0  0  0  0
 28 29  1  0  0  0  0
 28 30  1  0  0  0  0
 28 31  1  0  0  0  0
M  END
$$$$

  -OEChem-04042216013D

 31 30  0     1  0  0  0  0  0999 V2000
   -2.6073   -4.5403    0.4887 H   0  0  0  0  0  0  0  0  0  0  0  0
   -2.6701   -3.5728   -0.0180 C   0  0  0  0  0  0  0  0  0  0  0  0
   -3.4768   -2.9907    0.4336 H   0  0  0  0  0  0  0  0  0  0  0  0
   -2.8978   -3.7434   -1.0730 H   0  0  0  0  0  0  0  0  0  0  0  0
   -1.3548   -2.8287    0.1142 C   0  0  0  0  0  0  0  0  0  0  0  0
   -0.4316   -3.3324    0.7275 O   0  0  0  0  0  0  0  0  0  0  0  0
   -1.2153   -1.5818   -0.4624 N   0  0  0  0  0  0  0  0  0  0  0  0
   -2.0150   -1.2150   -0.9658 H   0  0  0  0  0  0  0  0  0  0  0  0
    0.0175   -0.7782   -0.4403 C   0  0  1  0  0  0  0  0  0  0  0  0
    0.8016   -1.4180   -0.8615 H   0  0  0  0  0  0  0  0  0  0  0  0
   -0.0214    0.5078   -1.3184 C   0  0  0  0  0  0  0  0  0  0  0  0
    0.2036    1.3706   -0.6811 H   0  0  0  0  0  0  0  0  0  0  0  0
    0.8201    0.4170   -2.0140 H   0  0  0  0  0  0  0  0  0  0  0  0
   -1.2825    0.8848   -2.1497 C   0  0  0  0  0  0  0  0  0  0  0  0
   -2.0572    1.2814   -1.4850 H   0  0  0  0  0  0  0  0  0  0  0  0
   -0.8532    1.9673   -3.1546 C   0  0  0  0  0  0  0  0  0  0  0  0
   -0.1352    1.5680   -3.8788 H   0  0  0  0  0  0  0  0  0  0  0  0
   -1.7204    2.3520   -3.7010 H   0  0  0  0  0  0  0  0  0  0  0  0
   -0.3857    2.8077   -2.6317 H   0  0  0  0  0  0  0  0  0  0  0  0
   -1.8744   -0.2562   -3.0068 C   0  0  0  0  0  0  0  0  0  0  0  0
   -2.6059   -0.8415   -2.4464 H   0  0  0  0  0  0  0  0  0  0  0  0
   -2.4027    0.1428   -3.8789 H   0  0  0  0  0  0  0  0  0  0  0  0
   -1.0806   -0.9203   -3.3640 H   0  0  0  0  0  0  0  0  0  0  0  0
    0.4993   -0.4235    0.9851 C   0  0  0  0  0  0  0  0  0  0  0  0
    1.6963   -0.3003    1.2089 O   0  0  0  0  0  0  0  0  0  0  0  0
   -0.4090    0.0219    1.9291 N   0  0  0  0  0  0  0  0  0  0  0  0
   -1.3874   -0.1560    1.7301 H   0  0  0  0  0  0  0  0  0  0  0  0
   -0.0232    0.3974    3.2833 C   0  0  0  0  0  0  0  0  0  0  0  0
    0.7008    1.2188    3.2627 H   0  0  0  0  0  0  0  0  0  0  0  0
   -0.9001    0.7263    3.8490 H   0  0  0  0  0  0  0  0  0  0  0  0
    0.4265   -0.4555    3.8025 H   0  0  0  0  0  0  0  0  0  0  0  0
  1  2  1  0  0  0  0
  2  3  1  0  0  0  0
  2  4  1  0  0  0  0
  2  5  1  0  0  0  0
  5  6  2  0  0  0  0
  5  7  1  0  0  0  0
  7  8  1  0  0  0  0
  7  9  1  0  0  0  0
  9 10  1  0  0  0  0
  9 11  1  0  0  0  0
  9 24  1  0  0  0  0
 11 12  1  0  0  0  0
 11 13  1  0  0  0  0
 11 14  1  0  0  0  0
 14 15  1  0  0  0  0
 14 16  1  0  0  0  0
 14 20  1  0  0  0  0
 16 17  1  0  0  0  0
 16 18  1  0  0  0  0
 16 19  1  0  0  0  0
 20 21  1  0  0  0  0
 20 22  1  0  0  0  0
 20 23  1  0  0  0  0
 24 25  2  0  0  0  0
 24 26  1  0  0  0  0
 26 27  1  0  0  0  0
 26 28  1  0  0  0  0
 28 29  1  0  0  0  0
 28 30  1  0  0  0  0
 28 31  1  0  0  0  0
M  END
$$$$

  -OEChem-04042216013D

 31 30  0     1  0  0  0  0  0999 V2000
   -2.4340   -4.5751    0.8187 H   0  0  0  0  0  0  0  0  0  0  0  0
   -2.5562   -3.6423    0.2607 C   0  0  0  0  0  0  0  0  0  0  0  0
   -3.3857   -3.0791    0.6946 H   0  0  0  0  0  0  0  0  0  0  0  0
   -2.7907   -3.8836   -0.7788 H   0  0  0  0  0  0  0  0  0  0  0  0
   -1.2804   -2.8240    0.3282 C   0  0  0  0  0  0  0  0  0  0  0  0
   -0.3339   -3.2314    0.9765 O   0  0  0  0  0  0  0  0  0  0  0  0
   -1.2049   -1.6201   -0.3449 N   0  0  0  0  0  0  0  0  0  0  0  0
   -2.0035   -1.3655   -0.9123 H   0  0  0  0  0  0  0  0  0  0  0  0
    0.0016   -0.7806   -0.4272 C   0  0  1  0  0  0  0  0  0  0  0  0
    0.7896   -1.4340   -0.8194 H   0  0  0  0  0  0  0  0  0  0  0  0
   -0.0683    0.4471   -1.3910 C   0  0  0  0  0  0  0  0  0  0  0  0
    0.1793    1.3496   -0.8207 H   0  0  0  0  0  0  0  0  0  0  0  0
    0.7678    0.2975   -2.0827 H   0  0  0  0  0  0  0  0  0  0  0  0
   -1.3233    0.8119   -2.2496 C   0  0  0  0  0  0  0  0  0  0  0  0
   -1.9506    1.5028   -1.6762 H   0  0  0  0  0  0  0  0  0  0  0  0
   -0.8198    1.5156   -3.5225 C   0  0  0  0  0  0  0  0  0  0  0  0
   -0.2565    0.8231   -4.1572 H   0  0  0  0  0  0  0  0  0  0  0  0
   -1.6590    1.9132   -4.1024 H   0  0  0  0  0  0  0  0  0  0  0  0
   -0.1670    2.3545   -3.2599 H   0  0  0  0  0  0  0  0  0  0  0  0
   -2.2118   -0.3439   -2.7496 C   0  0  0  0  0  0  0  0  0  0  0  0
   -2.7918   -0.0387   -3.6270 H   0  0  0  0  0  0  0  0  0  0  0  0
   -2.9383   -0.6353   -1.9870 H   0  0  0  0  0  0  0  0  0  0  0  0
   -1.6022   -1.2087   -3.0313 H   0  0  0  0  0  0  0  0  0  0  0  0
    0.5120   -0.3115    0.9555 C   0  0  0  0  0  0  0  0  0  0  0  0
    1.7106   -0.1376    1.1337 O   0  0  0  0  0  0  0  0  0  0  0  0
   -0.3832    0.1713    1.8934 N   0  0  0  0  0  0  0  0  0  0  0  0
   -1.3588   -0.0600    1.7406 H   0  0  0  0  0  0  0  0  0  0  0  0
    0.0292    0.6452    3.2082 C   0  0  0  0  0  0  0  0  0  0  0  0
    0.7147    1.4937    3.1123 H   0  0  0  0  0  0  0  0  0  0  0  0
   -0.8423    0.9707    3.7839 H   0  0  0  0  0  0  0  0  0  0  0  0
    0.5333   -0.1542    3.7615 H   0  0  0  0  0  0  0  0  0  0  0  0
  1  2  1  0  0  0  0
  2  3  1  0  0  0  0
  2  4  1  0  0  0  0
  2  5  1  0  0  0  0
  5  6  2  0  0  0  0
  5  7  1  0  0  0  0
  7  8  1  0  0  0  0
  7  9  1  0  0  0  0
  9 10  1  0  0  0  0
  9 11  1  0  0  0  0
  9 24  1  0  0  0  0
 11 12  1  0  0  0  0
 11 13  1  0  0  0  0
 11 14  1  0  0  0  0
 14 15  1  0  0  0  0
 14 16  1  0  0  0  0
 14 20  1  0  0  0  0
 16 17  1  0  0  0  0
 16 18  1  0  0  0  0
 16 19  1  0  0  0  0
 20 21  1  0  0  0  0
 20 22  1  0  0  0  0
 20 23  1  0  0  0  0
 24 25  2  0  0  0  0
 24 26  1  0  0  0  0
 26 27  1  0  0  0  0
 26 28  1  0  0  0  0
 28 29  1  0  0  0  0
 28 30  1  0  0  0  0
 28 31  1  0  0  0  0
M  END
$$$$

  -OEChem-04042216013D

 31 30  0     1  0  0  0  0  0999 V2000
   -2.0822   -4.8133    0.4540 H   0  0  0  0  0  0  0  0  0  0  0  0
   -2.2756   -3.8624   -0.0504 C   0  0  0  0  0  0  0  0  0  0  0  0
   -3.1611   -3.4027    0.3947 H   0  0  0  0  0  0  0  0  0  0  0  0
   -2.4665   -4.0584   -1.1082 H   0  0  0  0  0  0  0  0  0  0  0  0
   -1.0797   -2.9408    0.0985 C   0  0  0  0  0  0  0  0  0  0  0  0
   -0.0870   -3.3282    0.6872 O   0  0  0  0  0  0  0  0  0  0  0  0
   -1.1289   -1.6697   -0.4404 N   0  0  0  0  0  0  0  0  0  0  0  0
   -1.9417   -1.4566   -1.0058 H   0  0  0  0  0  0  0  0  0  0  0  0
    0.0139   -0.7426   -0.5007 C   0  0  1  0  0  0  0  0  0  0  0  0
    0.8135   -1.2958   -1.0069 H   0  0  0  0  0  0  0  0  0  0  0  0
   -0.1789    0.5824   -1.3128 C   0  0  0  0  0  0  0  0  0  0  0  0
    0.0518    1.4219   -0.6469 H   0  0  0  0  0  0  0  0  0  0  0  0
    0.6339    0.5693   -2.0470 H   0  0  0  0  0  0  0  0  0  0  0  0
   -1.4892    1.0004   -2.0671 C   0  0  0  0  0  0  0  0  0  0  0  0
   -1.9414    1.8205   -1.4982 H   0  0  0  0  0  0  0  0  0  0  0  0
   -1.0987    1.5355   -3.4550 C   0  0  0  0  0  0  0  0  0  0  0  0
   -0.6826    0.7352   -4.0757 H   0  0  0  0  0  0  0  0  0  0  0  0
   -1.9700    1.9550   -3.9680 H   0  0  0  0  0  0  0  0  0  0  0  0
   -0.3500    2.3289   -3.3617 H   0  0  0  0  0  0  0  0  0  0  0  0
   -2.5973   -0.0377   -2.3004 C   0  0  0  0  0  0  0  0  0  0  0  0
   -3.3660    0.3687   -2.9658 H   0  0  0  0  0  0  0  0  0  0  0  0
   -2.1934   -0.9427   -2.7657 H   0  0  0  0  0  0  0  0  0  0  0  0
   -3.0942   -0.2890   -1.3590 H   0  0  0  0  0  0  0  0  0  0  0  0
    0.5817   -0.3924    0.8955 C   0  0  0  0  0  0  0  0  0  0  0  0
    1.7762   -0.1551    1.0221 O   0  0  0  0  0  0  0  0  0  0  0  0
   -0.2792   -0.0791    1.9323 N   0  0  0  0  0  0  0  0  0  0  0  0
   -1.2448   -0.3656    1.8114 H   0  0  0  0  0  0  0  0  0  0  0  0
    0.1878    0.2685    3.2682 C   0  0  0  0  0  0  0  0  0  0  0  0
    0.8414    1.1464    3.2300 H   0  0  0  0  0  0  0  0  0  0  0  0
   -0.6615    0.5004    3.9175 H   0  0  0  0  0  0  0  0  0  0  0  0
    0.7440   -0.5665    3.7070 H   0  0  0  0  0  0  0  0  0  0  0  0
  1  2  1  0  0  0  0
  2  3  1  0  0  0  0
  2  4  1  0  0  0  0
  2  5  1  0  0  0  0
  5  6  2  0  0  0  0
  5  7  1  0  0  0  0
  7  8  1  0  0  0  0
  7  9  1  0  0  0  0
  9 10  1  0  0  0  0
  9 11  1  0  0  0  0
  9 24  1  0  0  0  0
 11 12  1  0  0  0  0
 11 13  1  0  0  0  0
 11 14  1  0  0  0  0
 14 15  1  0  0  0  0
 14 16  1  0  0  0  0
 14 20  1  0  0  0  0
 16 17  1  0  0  0  0
 16 18  1  0  0  0  0
 16 19  1  0  0  0  0
 20 21  1  0  0  0  0
 20 22  1  0  0  0  0
 20 23  1  0  0  0  0
 24 25  2  0  0  0  0
 24 26  1  0  0  0  0
 26 27  1  0  0  0  0
 26 28  1  0  0  0  0
 28 29  1  0  0  0  0
 28 30  1  0  0  0  0
 28 31  1  0  0  0  0
M  END
$$$$

  -OEChem-04042216013D

 31 30  0     1  0  0  0  0  0999 V2000
   -2.5240   -4.6498    0.5749 H   0  0  0  0  0  0  0  0  0  0  0  0
   -2.6028   -3.7046    0.0301 C   0  0  0  0  0  0  0  0  0  0  0  0
   -3.4457   -3.1376    0.4318 H   0  0  0  0  0  0  0  0  0  0  0  0
   -2.7868   -3.9213   -1.0249 H   0  0  0  0  0  0  0  0  0  0  0  0
   -1.3205   -2.9080    0.1802 C   0  0  0  0  0  0  0  0  0  0  0  0
   -0.3942   -3.3672    0.8231 O   0  0  0  0  0  0  0  0  0  0  0  0
   -1.2205   -1.6618   -0.4072 N   0  0  0  0  0  0  0  0  0  0  0  0
   -1.9939   -1.3807   -0.9976 H   0  0  0  0  0  0  0  0  0  0  0  0
    0.0049   -0.8457   -0.4392 C   0  0  1  0  0  0  0  0  0  0  0  0
    0.7740   -1.4914   -0.8788 H   0  0  0  0  0  0  0  0  0  0  0  0
   -0.0192    0.4513   -1.3166 C   0  0  0  0  0  0  0  0  0  0  0  0
    0.2223    1.2904   -0.6541 H   0  0  0  0  0  0  0  0  0  0  0  0
    0.8431    0.3645   -1.9863 H   0  0  0  0  0  0  0  0  0  0  0  0
   -1.2422    0.9499   -2.1627 C   0  0  0  0  0  0  0  0  0  0  0  0
   -1.4312    1.9787   -1.8357 H   0  0  0  0  0  0  0  0  0  0  0  0
   -0.8409    1.0231   -3.6434 C   0  0  0  0  0  0  0  0  0  0  0  0
   -0.6178    0.0237   -4.0301 H   0  0  0  0  0  0  0  0  0  0  0  0
   -1.6496    1.4546   -4.2416 H   0  0  0  0  0  0  0  0  0  0  0  0
    0.0456    1.6528   -3.7710 H   0  0  0  0  0  0  0  0  0  0  0  0
   -2.5963    0.2354   -2.0667 C   0  0  0  0  0  0  0  0  0  0  0  0
   -2.9360    0.1888   -1.0277 H   0  0  0  0  0  0  0  0  0  0  0  0
   -3.3508    0.7905   -2.6334 H   0  0  0  0  0  0  0  0  0  0  0  0
   -2.5399   -0.7727   -2.4890 H   0  0  0  0  0  0  0  0  0  0  0  0
    0.5300   -0.4894    0.9719 C   0  0  0  0  0  0  0  0  0  0  0  0
    1.7327   -0.3501    1.1538 O   0  0  0  0  0  0  0  0  0  0  0  0
   -0.3511   -0.0557    1.9462 N   0  0  0  0  0  0  0  0  0  0  0  0
   -1.3311   -0.2621    1.7849 H   0  0  0  0  0  0  0  0  0  0  0  0
    0.0768    0.3189    3.2878 C   0  0  0  0  0  0  0  0  0  0  0  0
    0.8037    1.1368    3.2445 H   0  0  0  0  0  0  0  0  0  0  0  0
   -0.7811    0.6528    3.8790 H   0  0  0  0  0  0  0  0  0  0  0  0
    0.5377   -0.5359    3.7938 H   0  0  0  0  0  0  0  0  0  0  0  0
  1  2  1  0  0  0  0
  2  3  1  0  0  0  0
  2  4  1  0  0  0  0
  2  5  1  0  0  0  0
  5  6  2  0  0  0  0
  5  7  1  0  0  0  0
  7  8  1  0  0  0  0
  7  9  1  0  0  0  0
  9 10  1  0  0  0  0
  9 11  1  0  0  0  0
  9 24  1  0  0  0  0
 11 12  1  0  0  0  0
 11 13  1  0  0  0  0
 11 14  1  0  0  0  0
 14 15  1  0  0  0  0
 14 16  1  0  0  0  0
 14 20  1  0  0  0  0
 16 17  1  0  0  0  0
 16 18  1  0  0  0  0
 16 19  1  0  0  0  0
 20 21  1  0  0  0  0
 20 22  1  0  0  0  0
 20 23  1  0  0  0  0
 24 25  2  0  0  0  0
 24 26  1  0  0  0  0
 26 27  1  0  0  0  0
 26 28  1  0  0  0  0
 28 29  1  0  0  0  0
 28 30  1  0  0  0  0
 28 31  1  0  0  0  0
M  END
$$$$

  -OEChem-04042216013D

 31 30  0     1  0  0  0  0  0999 V2000
   -2.2896   -4.6961    0.6625 H   0  0  0  0  0  0  0  0  0  0  0  0
   -2.4091   -3.7657    0.1001 C   0  0  0  0  0  0  0  0  0  0  0  0
   -3.3199   -3.2654    0.4371 H   0  0  0  0  0  0  0  0  0  0  0  0
   -2.5044   -4.0073   -0.9611 H   0  0  0  0  0  0  0  0  0  0  0  0
   -1.2093   -2.8645    0.3222 C   0  0  0  0  0  0  0  0  0  0  0  0
   -0.3316   -3.2048    1.0942 O   0  0  0  0  0  0  0  0  0  0  0  0
   -1.1278   -1.6617   -0.3517 N   0  0  0  0  0  0  0  0  0  0  0  0
   -1.8322   -1.4996   -1.0614 H   0  0  0  0  0  0  0  0  0  0  0  0
    0.0502   -0.7789   -0.3474 C   0  0  1  0  0  0  0  0  0  0  0  0
    0.8896   -1.3998   -0.6810 H   0  0  0  0  0  0  0  0  0  0  0  0
   -0.0033    0.4445   -1.3188 C   0  0  0  0  0  0  0  0  0  0  0  0
    0.1129    1.3429   -0.7019 H   0  0  0  0  0  0  0  0  0  0  0  0
    0.9048    0.3981   -1.9293 H   0  0  0  0  0  0  0  0  0  0  0  0
   -1.2124    0.7586   -2.2583 C   0  0  0  0  0  0  0  0  0  0  0  0
   -1.2907    1.8518   -2.2476 H   0  0  0  0  0  0  0  0  0  0  0  0
   -0.8729    0.3900   -3.7071 C   0  0  0  0  0  0  0  0  0  0  0  0
   -0.7160   -0.6893   -3.7995 H   0  0  0  0  0  0  0  0  0  0  0  0
   -1.6874    0.6827   -4.3772 H   0  0  0  0  0  0  0  0  0  0  0  0
    0.0366    0.9042   -4.0339 H   0  0  0  0  0  0  0  0  0  0  0  0
   -2.6190    0.2678   -1.8867 C   0  0  0  0  0  0  0  0  0  0  0  0
   -2.7972    0.3815   -0.8128 H   0  0  0  0  0  0  0  0  0  0  0  0
   -3.3677    0.8655   -2.4162 H   0  0  0  0  0  0  0  0  0  0  0  0
   -2.7692   -0.7750   -2.1798 H   0  0  0  0  0  0  0  0  0  0  0  0
    0.4383   -0.2852    1.0666 C   0  0  0  0  0  0  0  0  0  0  0  0
    1.6129   -0.0606    1.3288 O   0  0  0  0  0  0  0  0  0  0  0  0
   -0.5421    0.1687    1.9305 N   0  0  0  0  0  0  0  0  0  0  0  0
   -1.4931   -0.1071    1.7097 H   0  0  0  0  0  0  0  0  0  0  0  0
   -0.2476    0.6679    3.2675 C   0  0  0  0  0  0  0  0  0  0  0  0
    0.4122    1.5404    3.2147 H   0  0  0  0  0  0  0  0  0  0  0  0
   -1.1718    0.9651    3.7718 H   0  0  0  0  0  0  0  0  0  0  0  0
    0.2412   -0.1083    3.8657 H   0  0  0  0  0  0  0  0  0  0  0  0
  1  2  1  0  0  0  0
  2  3  1  0  0  0  0
  2  4  1  0  0  0  0
  2  5  1  0  0  0  0
  5  6  2  0  0  0  0
  5  7  1  0  0  0  0
  7  8  1  0  0  0  0
  7  9  1  0  0  0  0
  9 10  1  0  0  0  0
  9 11  1  0  0  0  0
  9 24  1  0  0  0  0
 11 12  1  0  0  0  0
 11 13  1  0  0  0  0
 11 14  1  0  0  0  0
 14 15  1  0  0  0  0
 14 16  1  0  0  0  0
 14 20  1  0  0  0  0
 16 17  1  0  0  0  0
 16 18  1  0  0  0  0
 16 19  1  0  0  0  0
 20 21  1  0  0  0  0
 20 22  1  0  0  0  0
 20 23  1  0  0  0  0
 24 25  2  0  0  0  0
 24 26  1  0  0  0  0
 26 27  1  0  0  0  0
 26 28  1  0  0  0  0
 28 29  1  0  0  0  0
 28 30  1  0  0  0  0
 28 31  1  0  0  0  0
M  END
$$$$

  -OEChem-04042216013D

 31 30  0     1  0  0  0  0  0999 V2000
   -2.0705   -4.7718    0.4238 H   0  0  0  0  0  0  0  0  0  0  0  0
   -2.2367   -3.8228   -0.0943 C   0  0  0  0  0  0  0  0  0  0  0  0
   -3.1680   -3.3821    0.2692 H   0  0  0  0  0  0  0  0  0  0  0  0
   -2.3268   -4.0193   -1.1654 H   0  0  0  0  0  0  0  0  0  0  0  0
   -1.0783   -2.8779    0.1653 C   0  0  0  0  0  0  0  0  0  0  0  0
   -0.1696   -3.2228    0.8985 O   0  0  0  0  0  0  0  0  0  0  0  0
   -1.0663   -1.6334   -0.4338 N   0  0  0  0  0  0  0  0  0  0  0  0
   -1.7835   -1.4675   -1.1314 H   0  0  0  0  0  0  0  0  0  0  0  0
    0.0812   -0.7109   -0.4166 C   0  0  1  0  0  0  0  0  0  0  0  0
    0.9290   -1.2686   -0.8303 H   0  0  0  0  0  0  0  0  0  0  0  0
   -0.0919    0.5624   -1.3004 C   0  0  0  0  0  0  0  0  0  0  0  0
    0.0123    1.4333   -0.6430 H   0  0  0  0  0  0  0  0  0  0  0  0
    0.7648    0.6052   -1.9812 H   0  0  0  0  0  0  0  0  0  0  0  0
   -1.3874    0.8168   -2.1235 C   0  0  0  0  0  0  0  0  0  0  0  0
   -1.3929    1.9005   -2.2866 H   0  0  0  0  0  0  0  0  0  0  0  0
   -1.2808    0.2045   -3.5234 C   0  0  0  0  0  0  0  0  0  0  0  0
   -1.2106   -0.8858   -3.4597 H   0  0  0  0  0  0  0  0  0  0  0  0
   -2.1616    0.4628   -4.1196 H   0  0  0  0  0  0  0  0  0  0  0  0
   -0.3937    0.5806   -4.0431 H   0  0  0  0  0  0  0  0  0  0  0  0
   -2.7378    0.5195   -1.4520 C   0  0  0  0  0  0  0  0  0  0  0  0
   -2.6830    0.7155   -0.3765 H   0  0  0  0  0  0  0  0  0  0  0  0
   -3.0562   -0.5129   -1.6164 H   0  0  0  0  0  0  0  0  0  0  0  0
   -3.5096    1.1689   -1.8770 H   0  0  0  0  0  0  0  0  0  0  0  0
    0.5141   -0.2885    1.0072 C   0  0  0  0  0  0  0  0  0  0  0  0
    1.6910   -0.0374    1.2326 O   0  0  0  0  0  0  0  0  0  0  0  0
   -0.4420    0.0783    1.9374 N   0  0  0  0  0  0  0  0  0  0  0  0
   -1.3906   -0.2248    1.7434 H   0  0  0  0  0  0  0  0  0  0  0  0
   -0.1054    0.5127    3.2869 C   0  0  0  0  0  0  0  0  0  0  0  0
    0.5241    1.4082    3.2560 H   0  0  0  0  0  0  0  0  0  0  0  0
   -1.0153    0.7512    3.8456 H   0  0  0  0  0  0  0  0  0  0  0  0
    0.4329   -0.2785    3.8193 H   0  0  0  0  0  0  0  0  0  0  0  0
  1  2  1  0  0  0  0
  2  3  1  0  0  0  0
  2  4  1  0  0  0  0
  2  5  1  0  0  0  0
  5  6  2  0  0  0  0
  5  7  1  0  0  0  0
  7  8  1  0  0  0  0
  7  9  1  0  0  0  0
  9 10  1  0  0  0  0
  9 11  1  0  0  0  0
  9 24  1  0  0  0  0
 11 12  1  0  0  0  0
 11 13  1  0  0  0  0
 11 14  1  0  0  0  0
 14 15  1  0  0  0  0
 14 16  1  0  0  0  0
 14 20  1  0  0  0  0
 16 17  1  0  0  0  0
 16 18  1  0  0  0  0
 16 19  1  0  0  0  0
 20 21  1  0  0  0  0
 20 22  1  0  0  0  0
 20 23  1  0  0  0  0
 24 25  2  0  0  0  0
 24 26  1  0  0  0  0
 26 27  1  0  0  0  0
 26 28  1  0  0  0  0
 28 29  1  0  0  0  0
 28 30  1  0  0  0  0
 28 31  1  0  0  0  0
M  END
$$$$

  -OEChem-04042216013D

 31 30  0     1  0  0  0  0  0999 V2000
   -2.5927   -4.5700    0.3828 H   0  0  0  0  0  0  0  0  0  0  0  0
   -2.6286   -3.6042   -0.1294 C   0  0  0  0  0  0  0  0  0  0  0  0
   -3.4801   -3.0355    0.2520 H   0  0  0  0  0  0  0  0  0  0  0  0
   -2.7638   -3.7794   -1.1994 H   0  0  0  0  0  0  0  0  0  0  0  0
   -1.3420   -2.8377    0.1122 C   0  0  0  0  0  0  0  0  0  0  0  0
   -0.4745   -3.3178    0.8186 O   0  0  0  0  0  0  0  0  0  0  0  0
   -1.1719   -1.5946   -0.4646 N   0  0  0  0  0  0  0  0  0  0  0  0
   -1.8824   -1.3029   -1.1281 H   0  0  0  0  0  0  0  0  0  0  0  0
    0.0775   -0.8162   -0.4271 C   0  0  1  0  0  0  0  0  0  0  0  0
    0.8575   -1.4594   -0.8502 H   0  0  0  0  0  0  0  0  0  0  0  0
    0.0426    0.4821   -1.2880 C   0  0  0  0  0  0  0  0  0  0  0  0
    0.2572    1.3325   -0.6309 H   0  0  0  0  0  0  0  0  0  0  0  0
    0.8807    0.4295   -1.9912 H   0  0  0  0  0  0  0  0  0  0  0  0
   -1.2307    0.8633   -2.0888 C   0  0  0  0  0  0  0  0  0  0  0  0
   -1.0374    1.8778   -2.4553 H   0  0  0  0  0  0  0  0  0  0  0  0
   -1.4035   -0.0073   -3.3395 C   0  0  0  0  0  0  0  0  0  0  0  0
   -1.5951   -1.0504   -3.0739 H   0  0  0  0  0  0  0  0  0  0  0  0
   -2.2445    0.3560   -3.9386 H   0  0  0  0  0  0  0  0  0  0  0  0
   -0.5015    0.0315   -3.9582 H   0  0  0  0  0  0  0  0  0  0  0  0
   -2.5249    0.9673   -1.2639 C   0  0  0  0  0  0  0  0  0  0  0  0
   -2.3148    1.3900   -0.2764 H   0  0  0  0  0  0  0  0  0  0  0  0
   -3.2328    1.6275   -1.7747 H   0  0  0  0  0  0  0  0  0  0  0  0
   -3.0157    0.0001   -1.1371 H   0  0  0  0  0  0  0  0  0  0  0  0
    0.5469   -0.4716    1.0053 C   0  0  0  0  0  0  0  0  0  0  0  0
    1.7433   -0.3745    1.2452 O   0  0  0  0  0  0  0  0  0  0  0  0
   -0.3667   -0.0082    1.9350 N   0  0  0  0  0  0  0  0  0  0  0  0
   -1.3428   -0.1868    1.7242 H   0  0  0  0  0  0  0  0  0  0  0  0
    0.0042    0.3353    3.3017 C   0  0  0  0  0  0  0  0  0  0  0  0
    0.7672    1.1209    3.3071 H   0  0  0  0  0  0  0  0  0  0  0  0
   -0.8690    0.7011    3.8499 H   0  0  0  0  0  0  0  0  0  0  0  0
    0.3992   -0.5437    3.8218 H   0  0  0  0  0  0  0  0  0  0  0  0
  1  2  1  0  0  0  0
  2  3  1  0  0  0  0
  2  4  1  0  0  0  0
  2  5  1  0  0  0  0
  5  6  2  0  0  0  0
  5  7  1  0  0  0  0
  7  8  1  0  0  0  0
  7  9  1  0  0  0  0
  9 10  1  0  0  0  0
  9 11  1  0  0  0  0
  9 24  1  0  0  0  0
 11 12  1  0  0  0  0
 11 13  1  0  0  0  0
 11 14  1  0  0  0  0
 14 15  1  0  0  0  0
 14 16  1  0  0  0  0
 14 20  1  0  0  0  0
 16 17  1  0  0  0  0
 16 18  1  0  0  0  0
 16 19  1  0  0  0  0
 20 21  1  0  0  0  0
 20 22  1  0  0  0  0
 20 23  1  0  0  0  0
 24 25  2  0  0  0  0
 24 26  1  0  0  0  0
 26 27  1  0  0  0  0
 26 28  1  0  0  0  0
 28 29  1  0  0  0  0
 28 30  1  0  0  0  0
 28 31  1  0  0  0  0
M  END
$$$$

  -OEChem-04042216013D

 31 30  0     1  0  0  0  0  0999 V2000
   -2.6218   -4.5499    0.4147 H   0  0  0  0  0  0  0  0  0  0  0  0
   -2.6572   -3.5809   -0.0916 C   0  0  0  0  0  0  0  0  0  0  0  0
   -3.4779   -2.9944    0.3281 H   0  0  0  0  0  0  0  0  0  0  0  0
   -2.8414   -3.7471   -1.1558 H   0  0  0  0  0  0  0  0  0  0  0  0
   -1.3438   -2.8463    0.0975 C   0  0  0  0  0  0  0  0  0  0  0  0
   -0.4507   -3.3580    0.7478 O   0  0  0  0  0  0  0  0  0  0  0  0
   -1.1738   -1.5983   -0.4680 N   0  0  0  0  0  0  0  0  0  0  0  0
   -1.9347   -1.2431   -1.0379 H   0  0  0  0  0  0  0  0  0  0  0  0
    0.0739   -0.8181   -0.4253 C   0  0  1  0  0  0  0  0  0  0  0  0
    0.8538   -1.4607   -0.8493 H   0  0  0  0  0  0  0  0  0  0  0  0
    0.0506    0.4839   -1.2806 C   0  0  0  0  0  0  0  0  0  0  0  0
    0.2891    1.3331   -0.6303 H   0  0  0  0  0  0  0  0  0  0  0  0
    0.8823    0.4081   -1.9893 H   0  0  0  0  0  0  0  0  0  0  0  0
   -1.2087    0.8822   -2.0949 C   0  0  0  0  0  0  0  0  0  0  0  0
   -0.9301    1.7895   -2.6424 H   0  0  0  0  0  0  0  0  0  0  0  0
   -1.6260   -0.1517   -3.1545 C   0  0  0  0  0  0  0  0  0  0  0  0
   -2.1537   -1.0045   -2.7239 H   0  0  0  0  0  0  0  0  0  0  0  0
   -2.2962    0.3180   -3.8813 H   0  0  0  0  0  0  0  0  0  0  0  0
   -0.7463   -0.5207   -3.6912 H   0  0  0  0  0  0  0  0  0  0  0  0
   -2.3947    1.2581   -1.1938 C   0  0  0  0  0  0  0  0  0  0  0  0
   -2.0877    2.0101   -0.4602 H   0  0  0  0  0  0  0  0  0  0  0  0
   -3.2030    1.6813   -1.7983 H   0  0  0  0  0  0  0  0  0  0  0  0
   -2.7912    0.3945   -0.6558 H   0  0  0  0  0  0  0  0  0  0  0  0
    0.5416   -0.4853    1.0101 C   0  0  0  0  0  0  0  0  0  0  0  0
    1.7373   -0.3875    1.2528 O   0  0  0  0  0  0  0  0  0  0  0  0
   -0.3735   -0.0316    1.9434 N   0  0  0  0  0  0  0  0  0  0  0  0
   -1.3509   -0.1969    1.7289 H   0  0  0  0  0  0  0  0  0  0  0  0
   -0.0030    0.3237    3.3071 C   0  0  0  0  0  0  0  0  0  0  0  0
    0.7441    1.1243    3.3052 H   0  0  0  0  0  0  0  0  0  0  0  0
   -0.8805    0.6738    3.8586 H   0  0  0  0  0  0  0  0  0  0  0  0
    0.4124   -0.5452    3.8283 H   0  0  0  0  0  0  0  0  0  0  0  0
  1  2  1  0  0  0  0
  2  3  1  0  0  0  0
  2  4  1  0  0  0  0
  2  5  1  0  0  0  0
  5  6  2  0  0  0  0
  5  7  1  0  0  0  0
  7  8  1  0  0  0  0
  7  9  1  0  0  0  0
  9 10  1  0  0  0  0
  9 11  1  0  0  0  0
  9 24  1  0  0  0  0
 11 12  1  0  0  0  0
 11 13  1  0  0  0  0
 11 14  1  0  0  0  0
 14 15  1  0  0  0  0
 14 16  1  0  0  0  0
 14 20  1  0  0  0  0
 16 17  1  0  0  0  0
 16 18  1  0  0  0  0
 16 19  1  0  0  0  0
 20 21  1  0  0  0  0
 20 22  1  0  0  0  0
 20 23  1  0  0  0  0
 24 25  2  0  0  0  0
 24 26  1  0  0  0  0
 26 27  1  0  0  0  0
 26 28  1  0  0  0  0
 28 29  1  0  0  0  0
 28 30  1  0  0  0  0
 28 31  1  0  0  0  0
M  END
$$$$

  -OEChem-04042216013D

 31 30  0     1  0  0  0  0  0999 V2000
   -2.6105   -4.5492    0.4543 H   0  0  0  0  0  0  0  0  0  0  0  0
   -2.6528   -3.5796   -0.0502 C   0  0  0  0  0  0  0  0  0  0  0  0
   -3.4579   -2.9880    0.3920 H   0  0  0  0  0  0  0  0  0  0  0  0
   -2.8681   -3.7437   -1.1088 H   0  0  0  0  0  0  0  0  0  0  0  0
   -1.3293   -2.8539    0.1035 C   0  0  0  0  0  0  0  0  0  0  0  0
   -0.4216   -3.3709    0.7288 O   0  0  0  0  0  0  0  0  0  0  0  0
   -1.1690   -1.6042   -0.4609 N   0  0  0  0  0  0  0  0  0  0  0  0
   -1.9557   -1.2278   -0.9776 H   0  0  0  0  0  0  0  0  0  0  0  0
    0.0700   -0.8111   -0.4177 C   0  0  1  0  0  0  0  0  0  0  0  0
    0.8555   -1.4510   -0.8357 H   0  0  0  0  0  0  0  0  0  0  0  0
    0.0492    0.4888   -1.2784 C   0  0  0  0  0  0  0  0  0  0  0  0
    0.3069    1.3400   -0.6378 H   0  0  0  0  0  0  0  0  0  0  0  0
    0.8789    0.3913   -1.9866 H   0  0  0  0  0  0  0  0  0  0  0  0
   -1.1935    0.9013   -2.1179 C   0  0  0  0  0  0  0  0  0  0  0  0
   -0.8523    1.6702   -2.8200 H   0  0  0  0  0  0  0  0  0  0  0  0
   -1.8569   -0.2121   -2.9491 C   0  0  0  0  0  0  0  0  0  0  0  0
   -2.6296   -0.7472   -2.3919 H   0  0  0  0  0  0  0  0  0  0  0  0
   -2.3398    0.2279   -3.8273 H   0  0  0  0  0  0  0  0  0  0  0  0
   -1.1060   -0.9278   -3.2986 H   0  0  0  0  0  0  0  0  0  0  0  0
   -2.2506    1.5348   -1.2030 C   0  0  0  0  0  0  0  0  0  0  0  0
   -1.8356    2.4062   -0.6866 H   0  0  0  0  0  0  0  0  0  0  0  0
   -3.1128    1.8661   -1.7904 H   0  0  0  0  0  0  0  0  0  0  0  0
   -2.5969    0.8205   -0.4503 H   0  0  0  0  0  0  0  0  0  0  0  0
    0.5339   -0.4731    1.0176 C   0  0  0  0  0  0  0  0  0  0  0  0
    1.7287   -0.3638    1.2604 O   0  0  0  0  0  0  0  0  0  0  0  0
   -0.3845   -0.0287    1.9522 N   0  0  0  0  0  0  0  0  0  0  0  0
   -1.3608   -0.1995    1.7379 H   0  0  0  0  0  0  0  0  0  0  0  0
   -0.0159    0.3244    3.3171 C   0  0  0  0  0  0  0  0  0  0  0  0
    0.7228    1.1328    3.3182 H   0  0  0  0  0  0  0  0  0  0  0  0
   -0.8966    0.6626    3.8712 H   0  0  0  0  0  0  0  0  0  0  0  0
    0.4090   -0.5426    3.8338 H   0  0  0  0  0  0  0  0  0  0  0  0
  1  2  1  0  0  0  0
  2  3  1  0  0  0  0
  2  4  1  0  0  0  0
  2  5  1  0  0  0  0
  5  6  2  0  0  0  0
  5  7  1  0  0  0  0
  7  8  1  0  0  0  0
  7  9  1  0  0  0  0
  9 10  1  0  0  0  0
  9 11  1  0  0  0  0
  9 24  1  0  0  0  0
 11 12  1  0  0  0  0
 11 13  1  0  0  0  0
 11 14  1  0  0  0  0
 14 15  1  0  0  0  0
 14 16  1  0  0  0  0
 14 20  1  0  0  0  0
 16 17  1  0  0  0  0
 16 18  1  0  0  0  0
 16 19  1  0  0  0  0
 20 21  1  0  0  0  0
 20 22  1  0  0  0  0
 20 23  1  0  0  0  0
 24 25  2  0  0  0  0
 24 26  1  0  0  0  0
 26 27  1  0  0  0  0
 26 28  1  0  0  0  0
 28 29  1  0  0  0  0
 28 30  1  0  0  0  0
 28 31  1  0  0  0  0
M  END
$$$$

  -OEChem-04042216013D

 31 30  0     1  0  0  0  0  0999 V2000
   -2.4689   -4.5802    0.8129 H   0  0  0  0  0  0  0  0  0  0  0  0
   -2.5676   -3.6440    0.2559 C   0  0  0  0  0  0  0  0  0  0  0  0
   -3.3789   -3.0579    0.6941 H   0  0  0  0  0  0  0  0  0  0  0  0
   -2.8142   -3.8779   -0.7826 H   0  0  0  0  0  0  0  0  0  0  0  0
   -1.2693   -2.8616    0.3180 C   0  0  0  0  0  0  0  0  0  0  0  0
   -0.3302   -3.2957    0.9599 O   0  0  0  0  0  0  0  0  0  0  0  0
   -1.1658   -1.6576   -0.3503 N   0  0  0  0  0  0  0  0  0  0  0  0
   -1.9667   -1.3686   -0.8982 H   0  0  0  0  0  0  0  0  0  0  0  0
    0.0523   -0.8341   -0.4152 C   0  0  1  0  0  0  0  0  0  0  0  0
    0.8394   -1.4903   -0.8047 H   0  0  0  0  0  0  0  0  0  0  0  0
   -0.0032    0.4048   -1.3646 C   0  0  0  0  0  0  0  0  0  0  0  0
    0.2983    1.2932   -0.7977 H   0  0  0  0  0  0  0  0  0  0  0  0
    0.8028    0.2400   -2.0875 H   0  0  0  0  0  0  0  0  0  0  0  0
   -1.2512    0.7905   -2.2191 C   0  0  0  0  0  0  0  0  0  0  0  0
   -0.8731    1.3096   -3.1069 H   0  0  0  0  0  0  0  0  0  0  0  0
   -2.1820   -0.3305   -2.7116 C   0  0  0  0  0  0  0  0  0  0  0  0
   -2.7365    0.0167   -3.5892 H   0  0  0  0  0  0  0  0  0  0  0  0
   -2.9199   -0.6148   -1.9562 H   0  0  0  0  0  0  0  0  0  0  0  0
   -1.6013   -1.2099   -3.0079 H   0  0  0  0  0  0  0  0  0  0  0  0
   -2.1072    1.7835   -1.4199 C   0  0  0  0  0  0  0  0  0  0  0  0
   -1.5298    2.6817   -1.1789 H   0  0  0  0  0  0  0  0  0  0  0  0
   -2.9826    2.0904   -2.0012 H   0  0  0  0  0  0  0  0  0  0  0  0
   -2.4507    1.3309   -0.4842 H   0  0  0  0  0  0  0  0  0  0  0  0
    0.5465   -0.3773    0.9771 C   0  0  0  0  0  0  0  0  0  0  0  0
    1.7440   -0.2180    1.1752 O   0  0  0  0  0  0  0  0  0  0  0  0
   -0.3581    0.1137    1.9019 N   0  0  0  0  0  0  0  0  0  0  0  0
   -1.3354   -0.0950    1.7291 H   0  0  0  0  0  0  0  0  0  0  0  0
    0.0378    0.5917    3.2203 C   0  0  0  0  0  0  0  0  0  0  0  0
    0.7429    1.4249    3.1304 H   0  0  0  0  0  0  0  0  0  0  0  0
   -0.8382    0.9410    3.7750 H   0  0  0  0  0  0  0  0  0  0  0  0
    0.5135   -0.2129    3.7908 H   0  0  0  0  0  0  0  0  0  0  0  0
  1  2  1  0  0  0  0
  2  3  1  0  0  0  0
  2  4  1  0  0  0  0
  2  5  1  0  0  0  0
  5  6  2  0  0  0  0
  5  7  1  0  0  0  0
  7  8  1  0  0  0  0
  7  9  1  0  0  0  0
  9 10  1  0  0  0  0
  9 11  1  0  0  0  0
  9 24  1  0  0  0  0
 11 12  1  0  0  0  0
 11 13  1  0  0  0  0
 11 14  1  0  0  0  0
 14 15  1  0  0  0  0
 14 16  1  0  0  0  0
 14 20  1  0  0  0  0
 16 17  1  0  0  0  0
 16 18  1  0  0  0  0
 16 19  1  0  0  0  0
 20 21  1  0  0  0  0
 20 22  1  0  0  0  0
 20 23  1  0  0  0  0
 24 25  2  0  0  0  0
 24 26  1  0  0  0  0
 26 27  1  0  0  0  0
 26 28  1  0  0  0  0
 28 29  1  0  0  0  0
 28 30  1  0  0  0  0
 28 31  1  0  0  0  0
M  END
$$$$

  -OEChem-04042216013D

 31 30  0     1  0  0  0  0  0999 V2000
   -2.1937   -4.7556    0.5129 H   0  0  0  0  0  0  0  0  0  0  0  0
   -2.3549   -3.8030   -0.0000 C   0  0  0  0  0  0  0  0  0  0  0  0
   -3.2206   -3.3064    0.4445 H   0  0  0  0  0  0  0  0  0  0  0  0
   -2.5582   -4.0023   -1.0551 H   0  0  0  0  0  0  0  0  0  0  0  0
   -1.1256   -2.9240    0.1344 C   0  0  0  0  0  0  0  0  0  0  0  0
   -0.1503   -3.3355    0.7357 O   0  0  0  0  0  0  0  0  0  0  0  0
   -1.1267   -1.6617   -0.4269 N   0  0  0  0  0  0  0  0  0  0  0  0
   -1.9365   -1.4178   -0.9841 H   0  0  0  0  0  0  0  0  0  0  0  0
    0.0373   -0.7602   -0.4648 C   0  0  1  0  0  0  0  0  0  0  0  0
    0.8430   -1.3345   -0.9366 H   0  0  0  0  0  0  0  0  0  0  0  0
   -0.1081    0.5570   -1.2978 C   0  0  0  0  0  0  0  0  0  0  0  0
    0.1784    1.3965   -0.6541 H   0  0  0  0  0  0  0  0  0  0  0  0
    0.6861    0.4971   -2.0497 H   0  0  0  0  0  0  0  0  0  0  0  0
   -1.3899    0.9849   -2.0905 C   0  0  0  0  0  0  0  0  0  0  0  0
   -1.0435    1.3555   -3.0617 H   0  0  0  0  0  0  0  0  0  0  0  0
   -2.4882   -0.0475   -2.3816 C   0  0  0  0  0  0  0  0  0  0  0  0
   -3.0595   -0.2898   -1.4804 H   0  0  0  0  0  0  0  0  0  0  0  0
   -3.1905    0.3592   -3.1164 H   0  0  0  0  0  0  0  0  0  0  0  0
   -2.0561   -0.9592   -2.8062 H   0  0  0  0  0  0  0  0  0  0  0  0
   -2.0582    2.1596   -1.3598 C   0  0  0  0  0  0  0  0  0  0  0  0
   -1.3624    2.9995   -1.2655 H   0  0  0  0  0  0  0  0  0  0  0  0
   -2.9345    2.5099   -1.9147 H   0  0  0  0  0  0  0  0  0  0  0  0
   -2.3781    1.8582   -0.3571 H   0  0  0  0  0  0  0  0  0  0  0  0
    0.5630   -0.3993    0.9449 C   0  0  0  0  0  0  0  0  0  0  0  0
    1.7577   -0.1913    1.1129 O   0  0  0  0  0  0  0  0  0  0  0  0
   -0.3275   -0.0507    1.9447 N   0  0  0  0  0  0  0  0  0  0  0  0
   -1.2970   -0.3046    1.7882 H   0  0  0  0  0  0  0  0  0  0  0  0
    0.0965    0.3102    3.2915 C   0  0  0  0  0  0  0  0  0  0  0  0
    0.7798    1.1656    3.2634 H   0  0  0  0  0  0  0  0  0  0  0  0
   -0.7705    0.5836    3.9002 H   0  0  0  0  0  0  0  0  0  0  0  0
    0.6066   -0.5325    3.7696 H   0  0  0  0  0  0  0  0  0  0  0  0
  1  2  1  0  0  0  0
  2  3  1  0  0  0  0
  2  4  1  0  0  0  0
  2  5  1  0  0  0  0
  5  6  2  0  0  0  0
  5  7  1  0  0  0  0
  7  8  1  0  0  0  0
  7  9  1  0  0  0  0
  9 10  1  0  0  0  0
  9 11  1  0  0  0  0
  9 24  1  0  0  0  0
 11 12  1  0  0  0  0
 11 13  1  0  0  0  0
 11 14  1  0  0  0  0
 14 15  1  0  0  0  0
 14 16  1  0  0  0  0
 14 20  1  0  0  0  0
 16 17  1  0  0  0  0
 16 18  1  0  0  0  0
 16 19  1  0  0  0  0
 20 21  1  0  0  0  0
 20 22  1  0  0  0  0
 20 23  1  0  0  0  0
 24 25  2  0  0  0  0
 24 26  1  0  0  0  0
 26 27  1  0  0  0  0
 26 28  1  0  0  0  0
 28 29  1  0  0  0  0
 28 30  1  0  0  0  0
 28 31  1  0  0  0  0
M  END
$$$$

  -OEChem-04042216013D

 31 30  0     1  0  0  0  0  0999 V2000
   -2.4675   -4.6777    0.5538 H   0  0  0  0  0  0  0  0  0  0  0  0
   -2.5597   -3.7230    0.0280 C   0  0  0  0  0  0  0  0  0  0  0  0
   -3.4035   -3.1706    0.4479 H   0  0  0  0  0  0  0  0  0  0  0  0
   -2.7515   -3.9219   -1.0292 H   0  0  0  0  0  0  0  0  0  0  0  0
   -1.2834   -2.9173    0.1812 C   0  0  0  0  0  0  0  0  0  0  0  0
   -0.3484   -3.3769    0.8110 O   0  0  0  0  0  0  0  0  0  0  0  0
   -1.1961   -1.6655   -0.3961 N   0  0  0  0  0  0  0  0  0  0  0  0
   -1.9852   -1.3715   -0.9590 H   0  0  0  0  0  0  0  0  0  0  0  0
    0.0126   -0.8245   -0.3997 C   0  0  1  0  0  0  0  0  0  0  0  0
    0.8043   -1.4515   -0.8258 H   0  0  0  0  0  0  0  0  0  0  0  0
   -0.0186    0.4795   -1.2670 C   0  0  0  0  0  0  0  0  0  0  0  0
    0.2596    1.3083   -0.6063 H   0  0  0  0  0  0  0  0  0  0  0  0
    0.8212    0.3823   -1.9635 H   0  0  0  0  0  0  0  0  0  0  0  0
   -1.2324    0.9660   -2.1350 C   0  0  0  0  0  0  0  0  0  0  0  0
   -0.8698    1.0176   -3.1678 H   0  0  0  0  0  0  0  0  0  0  0  0
   -2.5271    0.1438   -2.1838 C   0  0  0  0  0  0  0  0  0  0  0  0
   -2.9838    0.0710   -1.1919 H   0  0  0  0  0  0  0  0  0  0  0  0
   -3.2510    0.6237   -2.8505 H   0  0  0  0  0  0  0  0  0  0  0  0
   -2.3335   -0.8564   -2.5828 H   0  0  0  0  0  0  0  0  0  0  0  0
   -1.6111    2.3949   -1.7133 C   0  0  0  0  0  0  0  0  0  0  0  0
   -0.7437    3.0590   -1.7865 H   0  0  0  0  0  0  0  0  0  0  0  0
   -2.3959    2.7949   -2.3632 H   0  0  0  0  0  0  0  0  0  0  0  0
   -1.9746    2.4082   -0.6806 H   0  0  0  0  0  0  0  0  0  0  0  0
    0.4992   -0.4690    1.0259 C   0  0  0  0  0  0  0  0  0  0  0  0
    1.6949   -0.3148    1.2385 O   0  0  0  0  0  0  0  0  0  0  0  0
   -0.4109   -0.0608    1.9849 N   0  0  0  0  0  0  0  0  0  0  0  0
   -1.3850   -0.2706    1.7956 H   0  0  0  0  0  0  0  0  0  0  0  0
   -0.0212    0.3126    3.3388 C   0  0  0  0  0  0  0  0  0  0  0  0
    0.6985    1.1377    3.3179 H   0  0  0  0  0  0  0  0  0  0  0  0
   -0.8972    0.6355    3.9092 H   0  0  0  0  0  0  0  0  0  0  0  0
    0.4352   -0.5397    3.8532 H   0  0  0  0  0  0  0  0  0  0  0  0
  1  2  1  0  0  0  0
  2  3  1  0  0  0  0
  2  4  1  0  0  0  0
  2  5  1  0  0  0  0
  5  6  2  0  0  0  0
  5  7  1  0  0  0  0
  7  8  1  0  0  0  0
  7  9  1  0  0  0  0
  9 10  1  0  0  0  0
  9 11  1  0  0  0  0
  9 24  1  0  0  0  0
 11 12  1  0  0  0  0
 11 13  1  0  0  0  0
 11 14  1  0  0  0  0
 14 15  1  0  0  0  0
 14 16  1  0  0  0  0
 14 20  1  0  0  0  0
 16 17  1  0  0  0  0
 16 18  1  0  0  0  0
 16 19  1  0  0  0  0
 20 21  1  0  0  0  0
 20 22  1  0  0  0  0
 20 23  1  0  0  0  0
 24 25  2  0  0  0  0
 24 26  1  0  0  0  0
 26 27  1  0  0  0  0
 26 28  1  0  0  0  0
 28 29  1  0  0  0  0
 28 30  1  0  0  0  0
 28 31  1  0  0  0  0
M  END
$$$$

  -OEChem-04042216013D

 31 30  0     1  0  0  0  0  0999 V2000
   -2.4460   -4.6666    0.5657 H   0  0  0  0  0  0  0  0  0  0  0  0
   -2.5495   -3.7098    0.0458 C   0  0  0  0  0  0  0  0  0  0  0  0
   -3.3863   -3.1606    0.4838 H   0  0  0  0  0  0  0  0  0  0  0  0
   -2.7607   -3.9042   -1.0084 H   0  0  0  0  0  0  0  0  0  0  0  0
   -1.2716   -2.9031    0.1785 C   0  0  0  0  0  0  0  0  0  0  0  0
   -0.3254   -3.3630    0.7914 O   0  0  0  0  0  0  0  0  0  0  0  0
   -1.1957   -1.6492   -0.3956 N   0  0  0  0  0  0  0  0  0  0  0  0
   -1.9980   -1.3491   -0.9354 H   0  0  0  0  0  0  0  0  0  0  0  0
    0.0079   -0.8015   -0.4071 C   0  0  1  0  0  0  0  0  0  0  0  0
    0.7989   -1.4232   -0.8421 H   0  0  0  0  0  0  0  0  0  0  0  0
   -0.0417    0.4983   -1.2783 C   0  0  0  0  0  0  0  0  0  0  0  0
    0.1942    1.3274   -0.6015 H   0  0  0  0  0  0  0  0  0  0  0  0
    0.8087    0.4385   -1.9660 H   0  0  0  0  0  0  0  0  0  0  0  0
   -1.2701    0.9619   -2.1342 C   0  0  0  0  0  0  0  0  0  0  0  0
   -1.0179    0.7391   -3.1770 H   0  0  0  0  0  0  0  0  0  0  0  0
   -2.6502    0.3312   -1.8990 C   0  0  0  0  0  0  0  0  0  0  0  0
   -2.9094    0.3473   -0.8356 H   0  0  0  0  0  0  0  0  0  0  0  0
   -3.4203    0.8886   -2.4420 H   0  0  0  0  0  0  0  0  0  0  0  0
   -2.6766   -0.6945   -2.2775 H   0  0  0  0  0  0  0  0  0  0  0  0
   -1.4130    2.4875   -2.0184 C   0  0  0  0  0  0  0  0  0  0  0  0
   -0.4639    2.9801   -2.2529 H   0  0  0  0  0  0  0  0  0  0  0  0
   -2.1676    2.8584   -2.7190 H   0  0  0  0  0  0  0  0  0  0  0  0
   -1.7119    2.7708   -1.0039 H   0  0  0  0  0  0  0  0  0  0  0  0
    0.5070   -0.4459    1.0140 C   0  0  0  0  0  0  0  0  0  0  0  0
    1.7040   -0.2859    1.2149 O   0  0  0  0  0  0  0  0  0  0  0  0
   -0.3959   -0.0446    1.9825 N   0  0  0  0  0  0  0  0  0  0  0  0
   -1.3710   -0.2570    1.8020 H   0  0  0  0  0  0  0  0  0  0  0  0
    0.0048    0.3270    3.3335 C   0  0  0  0  0  0  0  0  0  0  0  0
    0.7124    1.1625    3.3084 H   0  0  0  0  0  0  0  0  0  0  0  0
   -0.8690    0.6343    3.9159 H   0  0  0  0  0  0  0  0  0  0  0  0
    0.4791   -0.5216    3.8377 H   0  0  0  0  0  0  0  0  0  0  0  0
  1  2  1  0  0  0  0
  2  3  1  0  0  0  0
  2  4  1  0  0  0  0
  2  5  1  0  0  0  0
  5  6  2  0  0  0  0
  5  7  1  0  0  0  0
  7  8  1  0  0  0  0
  7  9  1  0  0  0  0
  9 10  1  0  0  0  0
  9 11  1  0  0  0  0
  9 24  1  0  0  0  0
 11 12  1  0  0  0  0
 11 13  1  0  0  0  0
 11 14  1  0  0  0  0
 14 15  1  0  0  0  0
 14 16  1  0  0  0  0
 14 20  1  0  0  0  0
 16 17  1  0  0  0  0
 16 18  1  0  0  0  0
 16 19  1  0  0  0  0
 20 21  1  0  0  0  0
 20 22  1  0  0  0  0
 20 23  1  0  0  0  0
 24 25  2  0  0  0  0
 24 26  1  0  0  0  0
 26 27  1  0  0  0  0
 26 28  1  0  0  0  0
 28 29  1  0  0  0  0
 28 30  1  0  0  0  0
 28 31  1  0  0  0  0
M  END
$$$$

  -OEChem-04042216013D

 31 30  0     1  0  0  0  0  0999 V2000
   -2.2462   -4.7117    0.4821 H   0  0  0  0  0  0  0  0  0  0  0  0
   -2.3974   -3.7506   -0.0179 C   0  0  0  0  0  0  0  0  0  0  0  0
   -3.2735   -3.2627    0.4156 H   0  0  0  0  0  0  0  0  0  0  0  0
   -2.5766   -3.9321   -1.0804 H   0  0  0  0  0  0  0  0  0  0  0  0
   -1.1733   -2.8725    0.1600 C   0  0  0  0  0  0  0  0  0  0  0  0
   -0.2269   -3.2782    0.8097 O   0  0  0  0  0  0  0  0  0  0  0  0
   -1.1473   -1.6170   -0.4153 N   0  0  0  0  0  0  0  0  0  0  0  0
   -1.9156   -1.3944   -1.0364 H   0  0  0  0  0  0  0  0  0  0  0  0
    0.0313   -0.7355   -0.4428 C   0  0  1  0  0  0  0  0  0  0  0  0
    0.8348   -1.3244   -0.8998 H   0  0  0  0  0  0  0  0  0  0  0  0
   -0.1022    0.5653   -1.2998 C   0  0  0  0  0  0  0  0  0  0  0  0
    0.0997    1.4037   -0.6234 H   0  0  0  0  0  0  0  0  0  0  0  0
    0.7264    0.5585   -2.0161 H   0  0  0  0  0  0  0  0  0  0  0  0
   -1.3887    0.9543   -2.0966 C   0  0  0  0  0  0  0  0  0  0  0  0
   -1.2913    0.5047   -3.0909 H   0  0  0  0  0  0  0  0  0  0  0  0
   -2.7560    0.5000   -1.5565 C   0  0  0  0  0  0  0  0  0  0  0  0
   -2.7842    0.5750   -0.4648 H   0  0  0  0  0  0  0  0  0  0  0  0
   -3.5553    1.1309   -1.9582 H   0  0  0  0  0  0  0  0  0  0  0  0
   -2.9819   -0.5238   -1.8648 H   0  0  0  0  0  0  0  0  0  0  0  0
   -1.4070    2.4786   -2.2840 C   0  0  0  0  0  0  0  0  0  0  0  0
   -0.4560    2.8236   -2.7020 H   0  0  0  0  0  0  0  0  0  0  0  0
   -2.2061    2.7726   -2.9721 H   0  0  0  0  0  0  0  0  0  0  0  0
   -1.5707    2.9834   -1.3265 H   0  0  0  0  0  0  0  0  0  0  0  0
    0.5440   -0.3647    0.9696 C   0  0  0  0  0  0  0  0  0  0  0  0
    1.7391   -0.1685    1.1490 O   0  0  0  0  0  0  0  0  0  0  0  0
   -0.3546    0.0111    1.9521 N   0  0  0  0  0  0  0  0  0  0  0  0
   -1.3238   -0.2401    1.7889 H   0  0  0  0  0  0  0  0  0  0  0  0
    0.0575    0.3831    3.2994 C   0  0  0  0  0  0  0  0  0  0  0  0
    0.7286    1.2480    3.2708 H   0  0  0  0  0  0  0  0  0  0  0  0
   -0.8161    0.6458    3.9034 H   0  0  0  0  0  0  0  0  0  0  0  0
    0.5772   -0.4506    3.7834 H   0  0  0  0  0  0  0  0  0  0  0  0
  1  2  1  0  0  0  0
  2  3  1  0  0  0  0
  2  4  1  0  0  0  0
  2  5  1  0  0  0  0
  5  6  2  0  0  0  0
  5  7  1  0  0  0  0
  7  8  1  0  0  0  0
  7  9  1  0  0  0  0
  9 10  1  0  0  0  0
  9 11  1  0  0  0  0
  9 24  1  0  0  0  0
 11 12  1  0  0  0  0
 11 13  1  0  0  0  0
 11 14  1  0  0  0  0
 14 15  1  0  0  0  0
 14 16  1  0  0  0  0
 14 20  1  0  0  0  0
 16 17  1  0  0  0  0
 16 18  1  0  0  0  0
 16 19  1  0  0  0  0
 20 21  1  0  0  0  0
 20 22  1  0  0  0  0
 20 23  1  0  0  0  0
 24 25  2  0  0  0  0
 24 26  1  0  0  0  0
 26 27  1  0  0  0  0
 26 28  1  0  0  0  0
 28 29  1  0  0  0  0
 28 30  1  0  0  0  0
 28 31  1  0  0  0  0
M  END
$$$$

  -OEChem-04042216013D

 31 30  0     1  0  0  0  0  0999 V2000
   -2.5998   -4.5663    0.3808 H   0  0  0  0  0  0  0  0  0  0  0  0
   -2.6496   -3.6008   -0.1310 C   0  0  0  0  0  0  0  0  0  0  0  0
   -3.5102   -3.0453    0.2492 H   0  0  0  0  0  0  0  0  0  0  0  0
   -2.7807   -3.7778   -1.2012 H   0  0  0  0  0  0  0  0  0  0  0  0
   -1.3751   -2.8149    0.1129 C   0  0  0  0  0  0  0  0  0  0  0  0
   -0.4968   -3.2895    0.8096 O   0  0  0  0  0  0  0  0  0  0  0  0
   -1.2252   -1.5657   -0.4571 N   0  0  0  0  0  0  0  0  0  0  0  0
   -1.9359   -1.2936   -1.1271 H   0  0  0  0  0  0  0  0  0  0  0  0
    0.0240   -0.7867   -0.4432 C   0  0  1  0  0  0  0  0  0  0  0  0
    0.7924   -1.4300   -0.8869 H   0  0  0  0  0  0  0  0  0  0  0  0
   -0.0117    0.5223   -1.2909 C   0  0  0  0  0  0  0  0  0  0  0  0
    0.2340    1.3537   -0.6201 H   0  0  0  0  0  0  0  0  0  0  0  0
    0.8132    0.4600   -2.0086 H   0  0  0  0  0  0  0  0  0  0  0  0
   -1.2824    0.9541   -2.0794 C   0  0  0  0  0  0  0  0  0  0  0  0
   -1.3590    0.3123   -2.9640 H   0  0  0  0  0  0  0  0  0  0  0  0
   -2.6234    0.8526   -1.3260 C   0  0  0  0  0  0  0  0  0  0  0  0
   -2.4822    1.0737   -0.2630 H   0  0  0  0  0  0  0  0  0  0  0  0
   -3.3454    1.5701   -1.7292 H   0  0  0  0  0  0  0  0  0  0  0  0
   -3.0732   -0.1367   -1.4334 H   0  0  0  0  0  0  0  0  0  0  0  0
   -1.0839    2.3965   -2.5663 C   0  0  0  0  0  0  0  0  0  0  0  0
   -0.1454    2.4876   -3.1222 H   0  0  0  0  0  0  0  0  0  0  0  0
   -1.9014    2.6937   -3.2306 H   0  0  0  0  0  0  0  0  0  0  0  0
   -1.0555    3.0895   -1.7191 H   0  0  0  0  0  0  0  0  0  0  0  0
    0.5283   -0.4567    0.9816 C   0  0  0  0  0  0  0  0  0  0  0  0
    1.7307   -0.3623    1.1919 O   0  0  0  0  0  0  0  0  0  0  0  0
   -0.3604   -0.0037    1.9401 N   0  0  0  0  0  0  0  0  0  0  0  0
   -1.3424   -0.1766    1.7533 H   0  0  0  0  0  0  0  0  0  0  0  0
    0.0478    0.3308    3.2984 C   0  0  0  0  0  0  0  0  0  0  0  0
    0.8006    1.1262    3.2885 H   0  0  0  0  0  0  0  0  0  0  0  0
   -0.8126    0.6794    3.8772 H   0  0  0  0  0  0  0  0  0  0  0  0
    0.4701   -0.5483    3.7964 H   0  0  0  0  0  0  0  0  0  0  0  0
  1  2  1  0  0  0  0
  2  3  1  0  0  0  0
  2  4  1  0  0  0  0
  2  5  1  0  0  0  0
  5  6  2  0  0  0  0
  5  7  1  0  0  0  0
  7  8  1  0  0  0  0
  7  9  1  0  0  0  0
  9 10  1  0  0  0  0
  9 11  1  0  0  0  0
  9 24  1  0  0  0  0
 11 12  1  0  0  0  0
 11 13  1  0  0  0  0
 11 14  1  0  0  0  0
 14 15  1  0  0  0  0
 14 16  1  0  0  0  0
 14 20  1  0  0  0  0
 16 17  1  0  0  0  0
 16 18  1  0  0  0  0
 16 19  1  0  0  0  0
 20 21  1  0  0  0  0
 20 22  1  0  0  0  0
 20 23  1  0  0  0  0
 24 25  2  0  0  0  0
 24 26  1  0  0  0  0
 26 27  1  0  0  0  0
 26 28  1  0  0  0  0
 28 29  1  0  0  0  0
 28 30  1  0  0  0  0
 28 31  1  0  0  0  0
M  END
$$$$

  -OEChem-04042216013D

 31 30  0     1  0  0  0  0  0999 V2000
   -2.6814   -4.4963    0.3409 H   0  0  0  0  0  0  0  0  0  0  0  0
   -2.7041   -3.5264   -0.1642 C   0  0  0  0  0  0  0  0  0  0  0  0
   -3.5430   -2.9459    0.2267 H   0  0  0  0  0  0  0  0  0  0  0  0
   -2.8496   -3.6912   -1.2344 H   0  0  0  0  0  0  0  0  0  0  0  0
   -1.4029   -2.7839    0.0739 C   0  0  0  0  0  0  0  0  0  0  0  0
   -0.5360   -3.2866    0.7653 O   0  0  0  0  0  0  0  0  0  0  0  0
   -1.2162   -1.5387   -0.4938 N   0  0  0  0  0  0  0  0  0  0  0  0
   -1.9333   -1.2241   -1.1397 H   0  0  0  0  0  0  0  0  0  0  0  0
    0.0476   -0.7825   -0.4567 C   0  0  1  0  0  0  0  0  0  0  0  0
    0.8148   -1.4336   -0.8908 H   0  0  0  0  0  0  0  0  0  0  0  0
    0.0266    0.5250   -1.3008 C   0  0  0  0  0  0  0  0  0  0  0  0
    0.2819    1.3669   -0.6472 H   0  0  0  0  0  0  0  0  0  0  0  0
    0.8427    0.4436   -2.0268 H   0  0  0  0  0  0  0  0  0  0  0  0
   -1.2573    0.9203   -2.0765 C   0  0  0  0  0  0  0  0  0  0  0  0
   -1.4832    0.1311   -2.8014 H   0  0  0  0  0  0  0  0  0  0  0  0
   -2.4995    1.1324   -1.1869 C   0  0  0  0  0  0  0  0  0  0  0  0
   -2.2403    1.7427   -0.3159 H   0  0  0  0  0  0  0  0  0  0  0  0
   -3.2805    1.6536   -1.7496 H   0  0  0  0  0  0  0  0  0  0  0  0
   -2.9335    0.1954   -0.8375 H   0  0  0  0  0  0  0  0  0  0  0  0
   -0.9801    2.2126   -2.8558 C   0  0  0  0  0  0  0  0  0  0  0  0
   -0.1179    2.0844   -3.5179 H   0  0  0  0  0  0  0  0  0  0  0  0
   -1.8439    2.4817   -3.4719 H   0  0  0  0  0  0  0  0  0  0  0  0
   -0.7714    3.0402   -2.1699 H   0  0  0  0  0  0  0  0  0  0  0  0
    0.5321   -0.4582    0.9753 C   0  0  0  0  0  0  0  0  0  0  0  0
    1.7317   -0.3846    1.2082 O   0  0  0  0  0  0  0  0  0  0  0  0
   -0.3667    0.0137    1.9151 N   0  0  0  0  0  0  0  0  0  0  0  0
   -1.3483   -0.1366    1.7079 H   0  0  0  0  0  0  0  0  0  0  0  0
    0.0204    0.3464    3.2798 C   0  0  0  0  0  0  0  0  0  0  0  0
    0.7868    1.1286    3.2820 H   0  0  0  0  0  0  0  0  0  0  0  0
   -0.8453    0.7121    3.8400 H   0  0  0  0  0  0  0  0  0  0  0  0
    0.4176   -0.5377    3.7898 H   0  0  0  0  0  0  0  0  0  0  0  0
  1  2  1  0  0  0  0
  2  3  1  0  0  0  0
  2  4  1  0  0  0  0
  2  5  1  0  0  0  0
  5  6  2  0  0  0  0
  5  7  1  0  0  0  0
  7  8  1  0  0  0  0
  7  9  1  0  0  0  0
  9 10  1  0  0  0  0
  9 11  1  0  0  0  0
  9 24  1  0  0  0  0
 11 12  1  0  0  0  0
 11 13  1  0  0  0  0
 11 14  1  0  0  0  0
 14 15  1  0  0  0  0
 14 16  1  0  0  0  0
 14 20  1  0  0  0  0
 16 17  1  0  0  0  0
 16 18  1  0  0  0  0
 16 19  1  0  0  0  0
 20 21  1  0  0  0  0
 20 22  1  0  0  0  0
 20 23  1  0  0  0  0
 24 25  2  0  0  0  0
 24 26  1  0  0  0  0
 26 27  1  0  0  0  0
 26 28  1  0  0  0  0
 28 29  1  0  0  0  0
 28 30  1  0  0  0  0
 28 31  1  0  0  0  0
M  END
$$$$

  -OEChem-04042216013D

 31 30  0     1  0  0  0  0  0999 V2000
   -2.7553   -4.4279    0.3079 H   0  0  0  0  0  0  0  0  0  0  0  0
   -2.7569   -3.4538   -0.1895 C   0  0  0  0  0  0  0  0  0  0  0  0
   -3.5648   -2.8475    0.2269 H   0  0  0  0  0  0  0  0  0  0  0  0
   -2.9354   -3.6052   -1.2568 H   0  0  0  0  0  0  0  0  0  0  0  0
   -1.4249   -2.7590    0.0213 C   0  0  0  0  0  0  0  0  0  0  0  0
   -0.5596   -3.2961    0.6882 O   0  0  0  0  0  0  0  0  0  0  0  0
   -1.2089   -1.5138   -0.5351 N   0  0  0  0  0  0  0  0  0  0  0  0
   -1.9468   -1.1395   -1.1234 H   0  0  0  0  0  0  0  0  0  0  0  0
    0.0659   -0.7722   -0.4657 C   0  0  1  0  0  0  0  0  0  0  0  0
    0.8348   -1.4289   -0.8883 H   0  0  0  0  0  0  0  0  0  0  0  0
    0.0673    0.5352   -1.3075 C   0  0  0  0  0  0  0  0  0  0  0  0
    0.3200    1.3872   -0.6659 H   0  0  0  0  0  0  0  0  0  0  0  0
    0.8860    0.4424   -2.0292 H   0  0  0  0  0  0  0  0  0  0  0  0
   -1.2259    0.8808   -2.0838 C   0  0  0  0  0  0  0  0  0  0  0  0
   -1.5854   -0.0030   -2.6208 H   0  0  0  0  0  0  0  0  0  0  0  0
   -2.3263    1.4037   -1.1445 C   0  0  0  0  0  0  0  0  0  0  0  0
   -1.9883    2.3058   -0.6243 H   0  0  0  0  0  0  0  0  0  0  0  0
   -3.2255    1.6521   -1.7172 H   0  0  0  0  0  0  0  0  0  0  0  0
   -2.6005    0.6609   -0.3919 H   0  0  0  0  0  0  0  0  0  0  0  0
   -0.9176    1.9644   -3.1244 C   0  0  0  0  0  0  0  0  0  0  0  0
   -0.1668    1.6083   -3.8369 H   0  0  0  0  0  0  0  0  0  0  0  0
   -1.8214    2.2255   -3.6841 H   0  0  0  0  0  0  0  0  0  0  0  0
   -0.5352    2.8691   -2.6404 H   0  0  0  0  0  0  0  0  0  0  0  0
    0.5278   -0.4576    0.9755 C   0  0  0  0  0  0  0  0  0  0  0  0
    1.7236   -0.3987    1.2301 O   0  0  0  0  0  0  0  0  0  0  0  0
   -0.3807    0.0235    1.9014 N   0  0  0  0  0  0  0  0  0  0  0  0
   -1.3608   -0.1137    1.6789 H   0  0  0  0  0  0  0  0  0  0  0  0
   -0.0110    0.3545    3.2717 C   0  0  0  0  0  0  0  0  0  0  0  0
    0.7649    1.1272    3.2848 H   0  0  0  0  0  0  0  0  0  0  0  0
   -0.8806    0.7319    3.8176 H   0  0  0  0  0  0  0  0  0  0  0  0
    0.3673   -0.5333    3.7895 H   0  0  0  0  0  0  0  0  0  0  0  0
  1  2  1  0  0  0  0
  2  3  1  0  0  0  0
  2  4  1  0  0  0  0
  2  5  1  0  0  0  0
  5  6  2  0  0  0  0
  5  7  1  0  0  0  0
  7  8  1  0  0  0  0
  7  9  1  0  0  0  0
  9 10  1  0  0  0  0
  9 11  1  0  0  0  0
  9 24  1  0  0  0  0
 11 12  1  0  0  0  0
 11 13  1  0  0  0  0
 11 14  1  0  0  0  0
 14 15  1  0  0  0  0
 14 16  1  0  0  0  0
 14 20  1  0  0  0  0
 16 17  1  0  0  0  0
 16 18  1  0  0  0  0
 16 19  1  0  0  0  0
 20 21  1  0  0  0  0
 20 22  1  0  0  0  0
 20 23  1  0  0  0  0
 24 25  2  0  0  0  0
 24 26  1  0  0  0  0
 26 27  1  0  0  0  0
 26 28  1  0  0  0  0
 28 29  1  0  0  0  0
 28 30  1  0  0  0  0
 28 31  1  0  0  0  0
M  END
$$$$

  -OEChem-04042216013D

 31 30  0     1  0  0  0  0  0999 V2000
   -2.7590   -4.4245    0.3383 H   0  0  0  0  0  0  0  0  0  0  0  0
   -2.7638   -3.4515   -0.1614 C   0  0  0  0  0  0  0  0  0  0  0  0
   -3.5592   -2.8392    0.2700 H   0  0  0  0  0  0  0  0  0  0  0  0
   -2.9647   -3.6042   -1.2244 H   0  0  0  0  0  0  0  0  0  0  0  0
   -1.4231   -2.7649    0.0192 C   0  0  0  0  0  0  0  0  0  0  0  0
   -0.5462   -3.3077    0.6662 O   0  0  0  0  0  0  0  0  0  0  0  0
   -1.2121   -1.5203   -0.5408 N   0  0  0  0  0  0  0  0  0  0  0  0
   -1.9678   -1.1318   -1.0957 H   0  0  0  0  0  0  0  0  0  0  0  0
    0.0608   -0.7748   -0.4732 C   0  0  1  0  0  0  0  0  0  0  0  0
    0.8311   -1.4325   -0.8920 H   0  0  0  0  0  0  0  0  0  0  0  0
    0.0671    0.5304   -1.3189 C   0  0  0  0  0  0  0  0  0  0  0  0
    0.3307    1.3850   -0.6853 H   0  0  0  0  0  0  0  0  0  0  0  0
    0.8885    0.4248   -2.0356 H   0  0  0  0  0  0  0  0  0  0  0  0
   -1.2263    0.8702   -2.1035 C   0  0  0  0  0  0  0  0  0  0  0  0
   -1.7351   -0.0319   -2.4535 H   0  0  0  0  0  0  0  0  0  0  0  0
   -2.1665    1.7179   -1.2362 C   0  0  0  0  0  0  0  0  0  0  0  0
   -1.6873    2.6580   -0.9435 H   0  0  0  0  0  0  0  0  0  0  0  0
   -3.0834    1.9535   -1.7857 H   0  0  0  0  0  0  0  0  0  0  0  0
   -2.4413    1.1730   -0.3279 H   0  0  0  0  0  0  0  0  0  0  0  0
   -0.8628    1.6905   -3.3482 C   0  0  0  0  0  0  0  0  0  0  0  0
   -0.2228    1.1068   -4.0175 H   0  0  0  0  0  0  0  0  0  0  0  0
   -1.7662    1.9697   -3.8997 H   0  0  0  0  0  0  0  0  0  0  0  0
   -0.3299    2.6052   -3.0683 H   0  0  0  0  0  0  0  0  0  0  0  0
    0.5176   -0.4577    0.9687 C   0  0  0  0  0  0  0  0  0  0  0  0
    1.7124   -0.3972    1.2277 O   0  0  0  0  0  0  0  0  0  0  0  0
   -0.3956    0.0215    1.8911 N   0  0  0  0  0  0  0  0  0  0  0  0
   -1.3751   -0.1121    1.6638 H   0  0  0  0  0  0  0  0  0  0  0  0
   -0.0317    0.3603    3.2608 C   0  0  0  0  0  0  0  0  0  0  0  0
    0.7397    1.1375    3.2716 H   0  0  0  0  0  0  0  0  0  0  0  0
   -0.9049    0.7354    3.8027 H   0  0  0  0  0  0  0  0  0  0  0  0
    0.3500   -0.5228    3.7837 H   0  0  0  0  0  0  0  0  0  0  0  0
  1  2  1  0  0  0  0
  2  3  1  0  0  0  0
  2  4  1  0  0  0  0
  2  5  1  0  0  0  0
  5  6  2  0  0  0  0
  5  7  1  0  0  0  0
  7  8  1  0  0  0  0
  7  9  1  0  0  0  0
  9 10  1  0  0  0  0
  9 11  1  0  0  0  0
  9 24  1  0  0  0  0
 11 12  1  0  0  0  0
 11 13  1  0  0  0  0
 11 14  1  0  0  0  0
 14 15  1  0  0  0  0
 14 16  1  0  0  0  0
 14 20  1  0  0  0  0
 16 17  1  0  0  0  0
 16 18  1  0  0  0  0
 16 19  1  0  0  0  0
 20 21  1  0  0  0  0
 20 22  1  0  0  0  0
 20 23  1  0  0  0  0
 24 25  2  0  0  0  0
 24 26  1  0  0  0  0
 26 27  1  0  0  0  0
 26 28  1  0  0  0  0
 28 29  1  0  0  0  0
 28 30  1  0  0  0  0
 28 31  1  0  0  0  0
M  END
$$$$

  -OEChem-04042216013D

 31 30  0     1  0  0  0  0  0999 V2000
   -2.7368   -4.4567    0.3634 H   0  0  0  0  0  0  0  0  0  0  0  0
   -2.7573   -3.4833   -0.1348 C   0  0  0  0  0  0  0  0  0  0  0  0
   -3.5554   -2.8803    0.3044 H   0  0  0  0  0  0  0  0  0  0  0  0
   -2.9662   -3.6368   -1.1962 H   0  0  0  0  0  0  0  0  0  0  0  0
   -1.4229   -2.7822    0.0354 C   0  0  0  0  0  0  0  0  0  0  0  0
   -0.5344   -3.3168    0.6732 O   0  0  0  0  0  0  0  0  0  0  0  0
   -1.2302   -1.5354   -0.5266 N   0  0  0  0  0  0  0  0  0  0  0  0
   -1.9953   -1.1579   -1.0751 H   0  0  0  0  0  0  0  0  0  0  0  0
    0.0363   -0.7779   -0.4711 C   0  0  1  0  0  0  0  0  0  0  0  0
    0.8063   -1.4356   -0.8908 H   0  0  0  0  0  0  0  0  0  0  0  0
    0.0464    0.5263   -1.3209 C   0  0  0  0  0  0  0  0  0  0  0  0
    0.3148    1.3751   -0.6816 H   0  0  0  0  0  0  0  0  0  0  0  0
    0.8783    0.4186   -2.0254 H   0  0  0  0  0  0  0  0  0  0  0  0
   -1.2368    0.8913   -2.1216 C   0  0  0  0  0  0  0  0  0  0  0  0
   -1.9068    0.0402   -2.2525 H   0  0  0  0  0  0  0  0  0  0  0  0
   -1.9863    2.0342   -1.4255 C   0  0  0  0  0  0  0  0  0  0  0  0
   -1.3580    2.9282   -1.3533 H   0  0  0  0  0  0  0  0  0  0  0  0
   -2.8922    2.2921   -1.9831 H   0  0  0  0  0  0  0  0  0  0  0  0
   -2.2794    1.7331   -0.4148 H   0  0  0  0  0  0  0  0  0  0  0  0
   -0.8474    1.3658   -3.5282 C   0  0  0  0  0  0  0  0  0  0  0  0
   -0.3463    0.5617   -4.0764 H   0  0  0  0  0  0  0  0  0  0  0  0
   -1.7375    1.6596   -4.0933 H   0  0  0  0  0  0  0  0  0  0  0  0
   -0.1708    2.2252   -3.4750 H   0  0  0  0  0  0  0  0  0  0  0  0
    0.5039   -0.4568    0.9670 C   0  0  0  0  0  0  0  0  0  0  0  0
    1.7004   -0.3810    1.2140 O   0  0  0  0  0  0  0  0  0  0  0  0
   -0.4049    0.0135    1.8982 N   0  0  0  0  0  0  0  0  0  0  0  0
   -1.3846   -0.1352    1.6820 H   0  0  0  0  0  0  0  0  0  0  0  0
   -0.0306    0.3566    3.2643 C   0  0  0  0  0  0  0  0  0  0  0  0
    0.7323    1.1424    3.2685 H   0  0  0  0  0  0  0  0  0  0  0  0
   -0.9026    0.7219    3.8150 H   0  0  0  0  0  0  0  0  0  0  0  0
    0.3666   -0.5221    3.7833 H   0  0  0  0  0  0  0  0  0  0  0  0
  1  2  1  0  0  0  0
  2  3  1  0  0  0  0
  2  4  1  0  0  0  0
  2  5  1  0  0  0  0
  5  6  2  0  0  0  0
  5  7  1  0  0  0  0
  7  8  1  0  0  0  0
  7  9  1  0  0  0  0
  9 10  1  0  0  0  0
  9 11  1  0  0  0  0
  9 24  1  0  0  0  0
 11 12  1  0  0  0  0
 11 13  1  0  0  0  0
 11 14  1  0  0  0  0
 14 15  1  0  0  0  0
 14 16  1  0  0  0  0
 14 20  1  0  0  0  0
 16 17  1  0  0  0  0
 16 18  1  0  0  0  0
 16 19  1  0  0  0  0
 20 21  1  0  0  0  0
 20 22  1  0  0  0  0
 20 23  1  0  0  0  0
 24 25  2  0  0  0  0
 24 26  1  0  0  0  0
 26 27  1  0  0  0  0
 26 28  1  0  0  0  0
 28 29  1  0  0  0  0
 28 30  1  0  0  0  0
 28 31  1  0  0  0  0
M  END
$$$$

  -OEChem-04042216013D

 31 30  0     1  0  0  0  0  0999 V2000
   -2.7188   -4.4871    0.3348 H   0  0  0  0  0  0  0  0  0  0  0  0
   -2.7458   -3.5140   -0.1641 C   0  0  0  0  0  0  0  0  0  0  0  0
   -3.5805   -2.9355    0.2391 H   0  0  0  0  0  0  0  0  0  0  0  0
   -2.9022   -3.6727   -1.2338 H   0  0  0  0  0  0  0  0  0  0  0  0
   -1.4415   -2.7742    0.0657 C   0  0  0  0  0  0  0  0  0  0  0  0
   -0.5717   -3.2803    0.7508 O   0  0  0  0  0  0  0  0  0  0  0  0
   -1.2531   -1.5301   -0.5044 N   0  0  0  0  0  0  0  0  0  0  0  0
   -1.9779   -1.2123   -1.1382 H   0  0  0  0  0  0  0  0  0  0  0  0
    0.0169   -0.7773   -0.4619 C   0  0  1  0  0  0  0  0  0  0  0  0
    0.7799   -1.4409   -0.8842 H   0  0  0  0  0  0  0  0  0  0  0  0
    0.0359    0.5263   -1.3161 C   0  0  0  0  0  0  0  0  0  0  0  0
    0.3002    1.3649   -0.6620 H   0  0  0  0  0  0  0  0  0  0  0  0
    0.8760    0.4323   -2.0126 H   0  0  0  0  0  0  0  0  0  0  0  0
   -1.2410    0.9188   -2.1194 C   0  0  0  0  0  0  0  0  0  0  0  0
   -2.0539    0.2062   -1.9840 H   0  0  0  0  0  0  0  0  0  0  0  0
   -1.7577    2.2875   -1.6592 C   0  0  0  0  0  0  0  0  0  0  0  0
   -1.0014    3.0625   -1.8212 H   0  0  0  0  0  0  0  0  0  0  0  0
   -2.6592    2.5620   -2.2160 H   0  0  0  0  0  0  0  0  0  0  0  0
   -2.0070    2.2609   -0.5936 H   0  0  0  0  0  0  0  0  0  0  0  0
   -0.9273    0.9731   -3.6195 C   0  0  0  0  0  0  0  0  0  0  0  0
   -0.5783   -0.0033   -3.9704 H   0  0  0  0  0  0  0  0  0  0  0  0
   -1.8236    1.2415   -4.1876 H   0  0  0  0  0  0  0  0  0  0  0  0
   -0.1504    1.7163   -3.8268 H   0  0  0  0  0  0  0  0  0  0  0  0
    0.4955   -0.4537    0.9727 C   0  0  0  0  0  0  0  0  0  0  0  0
    1.6943   -0.3840    1.2111 O   0  0  0  0  0  0  0  0  0  0  0  0
   -0.4050    0.0229    1.9086 N   0  0  0  0  0  0  0  0  0  0  0  0
   -1.3868   -0.1218    1.6984 H   0  0  0  0  0  0  0  0  0  0  0  0
   -0.0214    0.3656    3.2720 C   0  0  0  0  0  0  0  0  0  0  0  0
    0.7362    1.1565    3.2698 H   0  0  0  0  0  0  0  0  0  0  0  0
   -0.8911    0.7238    3.8310 H   0  0  0  0  0  0  0  0  0  0  0  0
    0.3859   -0.5116    3.7861 H   0  0  0  0  0  0  0  0  0  0  0  0
  1  2  1  0  0  0  0
  2  3  1  0  0  0  0
  2  4  1  0  0  0  0
  2  5  1  0  0  0  0
  5  6  2  0  0  0  0
  5  7  1  0  0  0  0
  7  8  1  0  0  0  0
  7  9  1  0  0  0  0
  9 10  1  0  0  0  0
  9 11  1  0  0  0  0
  9 24  1  0  0  0  0
 11 12  1  0  0  0  0
 11 13  1  0  0  0  0
 11 14  1  0  0  0  0
 14 15  1  0  0  0  0
 14 16  1  0  0  0  0
 14 20  1  0  0  0  0
 16 17  1  0  0  0  0
 16 18  1  0  0  0  0
 16 19  1  0  0  0  0
 20 21  1  0  0  0  0
 20 22  1  0  0  0  0
 20 23  1  0  0  0  0
 24 25  2  0  0  0  0
 24 26  1  0  0  0  0
 26 27  1  0  0  0  0
 26 28  1  0  0  0  0
 28 29  1  0  0  0  0
 28 30  1  0  0  0  0
 28 31  1  0  0  0  0
M  END
$$$$

  -OEChem-04042216013D

 31 30  0     1  0  0  0  0  0999 V2000
   -2.7264   -4.4705    0.2885 H   0  0  0  0  0  0  0  0  0  0  0  0
   -2.7418   -3.4978   -0.2115 C   0  0  0  0  0  0  0  0  0  0  0  0
   -3.5915   -2.9228    0.1642 H   0  0  0  0  0  0  0  0  0  0  0  0
   -2.8634   -3.6579   -1.2854 H   0  0  0  0  0  0  0  0  0  0  0  0
   -1.4487   -2.7515    0.0594 C   0  0  0  0  0  0  0  0  0  0  0  0
   -0.6007   -3.2513    0.7758 O   0  0  0  0  0  0  0  0  0  0  0  0
   -1.2471   -1.5084   -0.5086 N   0  0  0  0  0  0  0  0  0  0  0  0
   -1.9387   -1.2122   -1.1893 H   0  0  0  0  0  0  0  0  0  0  0  0
    0.0288   -0.7662   -0.4561 C   0  0  1  0  0  0  0  0  0  0  0  0
    0.7904   -1.4320   -0.8773 H   0  0  0  0  0  0  0  0  0  0  0  0
    0.0485    0.5364   -1.3114 C   0  0  0  0  0  0  0  0  0  0  0  0
    0.2868    1.3707   -0.6419 H   0  0  0  0  0  0  0  0  0  0  0  0
    0.8944    0.4697   -2.0040 H   0  0  0  0  0  0  0  0  0  0  0  0
   -1.2325    0.9168   -2.1089 C   0  0  0  0  0  0  0  0  0  0  0  0
   -2.1118    0.3989   -1.7234 H   0  0  0  0  0  0  0  0  0  0  0  0
   -1.5419    2.4090   -1.9415 C   0  0  0  0  0  0  0  0  0  0  0  0
   -0.7066    3.0178   -2.3025 H   0  0  0  0  0  0  0  0  0  0  0  0
   -2.4384    2.6791   -2.5082 H   0  0  0  0  0  0  0  0  0  0  0  0
   -1.7187    2.6475   -0.8879 H   0  0  0  0  0  0  0  0  0  0  0  0
   -1.0737    0.5561   -3.5894 C   0  0  0  0  0  0  0  0  0  0  0  0
   -0.8724   -0.5140   -3.6998 H   0  0  0  0  0  0  0  0  0  0  0  0
   -1.9890    0.7932   -4.1406 H   0  0  0  0  0  0  0  0  0  0  0  0
   -0.2455    1.1150   -4.0369 H   0  0  0  0  0  0  0  0  0  0  0  0
    0.5031   -0.4462    0.9810 C   0  0  0  0  0  0  0  0  0  0  0  0
    1.7013   -0.3834    1.2240 O   0  0  0  0  0  0  0  0  0  0  0  0
   -0.3982    0.0380    1.9120 N   0  0  0  0  0  0  0  0  0  0  0  0
   -1.3792   -0.1089    1.6998 H   0  0  0  0  0  0  0  0  0  0  0  0
   -0.0185    0.3745    3.2781 C   0  0  0  0  0  0  0  0  0  0  0  0
    0.7536    1.1511    3.2818 H   0  0  0  0  0  0  0  0  0  0  0  0
   -0.8854    0.7492    3.8304 H   0  0  0  0  0  0  0  0  0  0  0  0
    0.3685   -0.5098    3.7954 H   0  0  0  0  0  0  0  0  0  0  0  0
  1  2  1  0  0  0  0
  2  3  1  0  0  0  0
  2  4  1  0  0  0  0
  2  5  1  0  0  0  0
  5  6  2  0  0  0  0
  5  7  1  0  0  0  0
  7  8  1  0  0  0  0
  7  9  1  0  0  0  0
  9 10  1  0  0  0  0
  9 11  1  0  0  0  0
  9 24  1  0  0  0  0
 11 12  1  0  0  0  0
 11 13  1  0  0  0  0
 11 14  1  0  0  0  0
 14 15  1  0  0  0  0
 14 16  1  0  0  0  0
 14 20  1  0  0  0  0
 16 17  1  0  0  0  0
 16 18  1  0  0  0  0
 16 19  1  0  0  0  0
 20 21  1  0  0  0  0
 20 22  1  0  0  0  0
 20 23  1  0  0  0  0
 24 25  2  0  0  0  0
 24 26  1  0  0  0  0
 26 27  1  0  0  0  0
 26 28  1  0  0  0  0
 28 29  1  0  0  0  0
 28 30  1  0  0  0  0
 28 31  1  0  0  0  0
M  END
$$$$

  -OEChem-04042216013D

 31 30  0     1  0  0  0  0  0999 V2000
   -2.7442   -4.4449    0.2515 H   0  0  0  0  0  0  0  0  0  0  0  0
   -2.7475   -3.4697   -0.2437 C   0  0  0  0  0  0  0  0  0  0  0  0
   -3.5977   -2.8907    0.1248 H   0  0  0  0  0  0  0  0  0  0  0  0
   -2.8573   -3.6236   -1.3199 H   0  0  0  0  0  0  0  0  0  0  0  0
   -1.4532   -2.7336    0.0459 C   0  0  0  0  0  0  0  0  0  0  0  0
   -0.6168   -3.2411    0.7706 O   0  0  0  0  0  0  0  0  0  0  0  0
   -1.2359   -1.4917   -0.5176 N   0  0  0  0  0  0  0  0  0  0  0  0
   -1.9203   -1.1840   -1.2015 H   0  0  0  0  0  0  0  0  0  0  0  0
    0.0447   -0.7587   -0.4520 C   0  0  1  0  0  0  0  0  0  0  0  0
    0.8064   -1.4257   -0.8710 H   0  0  0  0  0  0  0  0  0  0  0  0
    0.0611    0.5401   -1.3096 C   0  0  0  0  0  0  0  0  0  0  0  0
    0.2795    1.3801   -0.6404 H   0  0  0  0  0  0  0  0  0  0  0  0
    0.9045    0.4848   -2.0060 H   0  0  0  0  0  0  0  0  0  0  0  0
   -1.2276    0.8888   -2.0980 C   0  0  0  0  0  0  0  0  0  0  0  0
   -2.1134    0.5787   -1.5373 H   0  0  0  0  0  0  0  0  0  0  0  0
   -1.3568    2.4081   -2.2540 C   0  0  0  0  0  0  0  0  0  0  0  0
   -0.4889    2.8149   -2.7829 H   0  0  0  0  0  0  0  0  0  0  0  0
   -2.2582    2.6581   -2.8222 H   0  0  0  0  0  0  0  0  0  0  0  0
   -1.4261    2.8908   -1.2741 H   0  0  0  0  0  0  0  0  0  0  0  0
   -1.2338    0.1962   -3.4654 C   0  0  0  0  0  0  0  0  0  0  0  0
   -1.1555   -0.8888   -3.3470 H   0  0  0  0  0  0  0  0  0  0  0  0
   -2.1620    0.4183   -4.0011 H   0  0  0  0  0  0  0  0  0  0  0  0
   -0.3921    0.5398   -4.0754 H   0  0  0  0  0  0  0  0  0  0  0  0
    0.5136   -0.4408    0.9869 C   0  0  0  0  0  0  0  0  0  0  0  0
    1.7111   -0.3855    1.2352 O   0  0  0  0  0  0  0  0  0  0  0  0
   -0.3889    0.0508    1.9129 N   0  0  0  0  0  0  0  0  0  0  0  0
   -1.3701   -0.0901    1.6966 H   0  0  0  0  0  0  0  0  0  0  0  0
   -0.0121    0.3871    3.2799 C   0  0  0  0  0  0  0  0  0  0  0  0
    0.7645    1.1593    3.2850 H   0  0  0  0  0  0  0  0  0  0  0  0
   -0.8788    0.7677    3.8284 H   0  0  0  0  0  0  0  0  0  0  0  0
    0.3683   -0.4985    3.8002 H   0  0  0  0  0  0  0  0  0  0  0  0
  1  2  1  0  0  0  0
  2  3  1  0  0  0  0
  2  4  1  0  0  0  0
  2  5  1  0  0  0  0
  5  6  2  0  0  0  0
  5  7  1  0  0  0  0
  7  8  1  0  0  0  0
  7  9  1  0  0  0  0
  9 10  1  0  0  0  0
  9 11  1  0  0  0  0
  9 24  1  0  0  0  0
 11 12  1  0  0  0  0
 11 13  1  0  0  0  0
 11 14  1  0  0  0  0
 14 15  1  0  0  0  0
 14 16  1  0  0  0  0
 14 20  1  0  0  0  0
 16 17  1  0  0  0  0
 16 18  1  0  0  0  0
 16 19  1  0  0  0  0
 20 21  1  0  0  0  0
 20 22  1  0  0  0  0
 20 23  1  0  0  0  0
 24 25  2  0  0  0  0
 24 26  1  0  0  0  0
 26 27  1  0  0  0  0
 26 28  1  0  0  0  0
 28 29  1  0  0  0  0
 28 30  1  0  0  0  0
 28 31  1  0  0  0  0
M  END
$$$$

  -OEChem-04042216013D

 31 30  0     1  0  0  0  0  0999 V2000
   -2.7468   -4.4438    0.2992 H   0  0  0  0  0  0  0  0  0  0  0  0
   -2.7516   -3.4715   -0.2019 C   0  0  0  0  0  0  0  0  0  0  0  0
   -3.5896   -2.8836    0.1799 H   0  0  0  0  0  0  0  0  0  0  0  0
   -2.8840   -3.6304   -1.2748 H   0  0  0  0  0  0  0  0  0  0  0  0
   -1.4454   -2.7449    0.0579 C   0  0  0  0  0  0  0  0  0  0  0  0
   -0.5967   -3.2572    0.7645 O   0  0  0  0  0  0  0  0  0  0  0  0
   -1.2304   -1.5043   -0.5095 N   0  0  0  0  0  0  0  0  0  0  0  0
   -1.9341   -1.1764   -1.1638 H   0  0  0  0  0  0  0  0  0  0  0  0
    0.0462   -0.7653   -0.4472 C   0  0  1  0  0  0  0  0  0  0  0  0
    0.8112   -1.4303   -0.8644 H   0  0  0  0  0  0  0  0  0  0  0  0
    0.0513    0.5282   -1.3113 C   0  0  0  0  0  0  0  0  0  0  0  0
    0.2639    1.3774   -0.6520 H   0  0  0  0  0  0  0  0  0  0  0  0
    0.8901    0.4685   -2.0129 H   0  0  0  0  0  0  0  0  0  0  0  0
   -1.2387    0.8604   -2.0996 C   0  0  0  0  0  0  0  0  0  0  0  0
   -2.1121    0.7528   -1.4482 H   0  0  0  0  0  0  0  0  0  0  0  0
   -1.1830    2.3187   -2.5715 C   0  0  0  0  0  0  0  0  0  0  0  0
   -0.3122    2.4846   -3.2143 H   0  0  0  0  0  0  0  0  0  0  0  0
   -2.0854    2.5729   -3.1364 H   0  0  0  0  0  0  0  0  0  0  0  0
   -1.1156    2.9959   -1.7143 H   0  0  0  0  0  0  0  0  0  0  0  0
   -1.3943   -0.0422   -3.3355 C   0  0  0  0  0  0  0  0  0  0  0  0
   -1.4342   -1.0989   -3.0610 H   0  0  0  0  0  0  0  0  0  0  0  0
   -2.3173    0.2043   -3.8697 H   0  0  0  0  0  0  0  0  0  0  0  0
   -0.5517    0.0986   -4.0204 H   0  0  0  0  0  0  0  0  0  0  0  0
    0.5151   -0.4384    0.9895 C   0  0  0  0  0  0  0  0  0  0  0  0
    1.7124   -0.3741    1.2360 O   0  0  0  0  0  0  0  0  0  0  0  0
   -0.3888    0.0533    1.9142 N   0  0  0  0  0  0  0  0  0  0  0  0
   -1.3696   -0.0900    1.6984 H   0  0  0  0  0  0  0  0  0  0  0  0
   -0.0131    0.3962    3.2798 C   0  0  0  0  0  0  0  0  0  0  0  0
    0.7612    1.1705    3.2824 H   0  0  0  0  0  0  0  0  0  0  0  0
   -0.8808    0.7764    3.8269 H   0  0  0  0  0  0  0  0  0  0  0  0
    0.3693   -0.4863    3.8034 H   0  0  0  0  0  0  0  0  0  0  0  0
  1  2  1  0  0  0  0
  2  3  1  0  0  0  0
  2  4  1  0  0  0  0
  2  5  1  0  0  0  0
  5  6  2  0  0  0  0
  5  7  1  0  0  0  0
  7  8  1  0  0  0  0
  7  9  1  0  0  0  0
  9 10  1  0  0  0  0
  9 11  1  0  0  0  0
  9 24  1  0  0  0  0
 11 12  1  0  0  0  0
 11 13  1  0  0  0  0
 11 14  1  0  0  0  0
 14 15  1  0  0  0  0
 14 16  1  0  0  0  0
 14 20  1  0  0  0  0
 16 17  1  0  0  0  0
 16 18  1  0  0  0  0
 16 19  1  0  0  0  0
 20 21  1  0  0  0  0
 20 22  1  0  0  0  0
 20 23  1  0  0  0  0
 24 25  2  0  0  0  0
 24 26  1  0  0  0  0
 26 27  1  0  0  0  0
 26 28  1  0  0  0  0
 28 29  1  0  0  0  0
 28 30  1  0  0  0  0
 28 31  1  0  0  0  0
M  END
$$$$

  -OEChem-04042216013D

 31 30  0     1  0  0  0  0  0999 V2000
   -2.6084   -4.5170    0.4404 H   0  0  0  0  0  0  0  0  0  0  0  0
   -2.6613   -3.5427   -0.0541 C   0  0  0  0  0  0  0  0  0  0  0  0
   -3.4537   -2.9535    0.4137 H   0  0  0  0  0  0  0  0  0  0  0  0
   -2.9033   -3.6965   -1.1086 H   0  0  0  0  0  0  0  0  0  0  0  0
   -1.3333   -2.8207    0.0721 C   0  0  0  0  0  0  0  0  0  0  0  0
   -0.4162   -3.3389    0.6824 O   0  0  0  0  0  0  0  0  0  0  0  0
   -1.1795   -1.5738   -0.5007 N   0  0  0  0  0  0  0  0  0  0  0  0
   -1.9734   -1.1995   -1.0058 H   0  0  0  0  0  0  0  0  0  0  0  0
    0.0578   -0.7778   -0.4627 C   0  0  1  0  0  0  0  0  0  0  0  0
    0.8544   -1.4035   -0.8816 H   0  0  0  0  0  0  0  0  0  0  0  0
    0.0100    0.5271   -1.3092 C   0  0  0  0  0  0  0  0  0  0  0  0
    0.5064    1.3249   -0.7445 H   0  0  0  0  0  0  0  0  0  0  0  0
    0.6338    0.3472   -2.1914 H   0  0  0  0  0  0  0  0  0  0  0  0
   -1.3526    1.0770   -1.8146 C   0  0  0  0  0  0  0  0  0  0  0  0
   -1.9972    1.3125   -0.9610 H   0  0  0  0  0  0  0  0  0  0  0  0
   -1.0614    2.3640   -2.6036 C   0  0  0  0  0  0  0  0  0  0  0  0
   -0.4524    2.1499   -3.4881 H   0  0  0  0  0  0  0  0  0  0  0  0
   -1.9938    2.8364   -2.9291 H   0  0  0  0  0  0  0  0  0  0  0  0
   -0.5228    3.0827   -1.9778 H   0  0  0  0  0  0  0  0  0  0  0  0
   -2.0982    0.1409   -2.7921 C   0  0  0  0  0  0  0  0  0  0  0  0
   -2.7283   -0.5787   -2.2672 H   0  0  0  0  0  0  0  0  0  0  0  0
   -2.7635    0.7133   -3.4466 H   0  0  0  0  0  0  0  0  0  0  0  0
   -1.3865   -0.4019   -3.4224 H   0  0  0  0  0  0  0  0  0  0  0  0
    0.5091   -0.4381    0.9771 C   0  0  0  0  0  0  0  0  0  0  0  0
    1.7015   -0.3344    1.2335 O   0  0  0  0  0  0  0  0  0  0  0  0
   -0.4181    0.0044    1.9040 N   0  0  0  0  0  0  0  0  0  0  0  0
   -1.3929   -0.1601    1.6781 H   0  0  0  0  0  0  0  0  0  0  0  0
   -0.0632    0.3555    3.2729 C   0  0  0  0  0  0  0  0  0  0  0  0
    0.6604    1.1774    3.2832 H   0  0  0  0  0  0  0  0  0  0  0  0
   -0.9530    0.6734    3.8246 H   0  0  0  0  0  0  0  0  0  0  0  0
    0.3750   -0.5068    3.7866 H   0  0  0  0  0  0  0  0  0  0  0  0
  1  2  1  0  0  0  0
  2  3  1  0  0  0  0
  2  4  1  0  0  0  0
  2  5  1  0  0  0  0
  5  6  2  0  0  0  0
  5  7  1  0  0  0  0
  7  8  1  0  0  0  0
  7  9  1  0  0  0  0
  9 10  1  0  0  0  0
  9 11  1  0  0  0  0
  9 24  1  0  0  0  0
 11 12  1  0  0  0  0
 11 13  1  0  0  0  0
 11 14  1  0  0  0  0
 14 15  1  0  0  0  0
 14 16  1  0  0  0  0
 14 20  1  0  0  0  0
 16 17  1  0  0  0  0
 16 18  1  0  0  0  0
 16 19  1  0  0  0  0
 20 21  1  0  0  0  0
 20 22  1  0  0  0  0
 20 23  1  0  0  0  0
 24 25  2  0  0  0  0
 24 26  1  0  0  0  0
 26 27  1  0  0  0  0
 26 28  1  0  0  0  0
 28 29  1  0  0  0  0
 28 30  1  0  0  0  0
 28 31  1  0  0  0  0
M  END
$$$$

  -OEChem-04042216013D

 31 30  0     1  0  0  0  0  0999 V2000
   -2.1826   -4.7614    0.4303 H   0  0  0  0  0  0  0  0  0  0  0  0
   -2.3403   -3.8081   -0.0823 C   0  0  0  0  0  0  0  0  0  0  0  0
   -3.2247   -3.3249    0.3394 H   0  0  0  0  0  0  0  0  0  0  0  0
   -2.5098   -4.0037   -1.1439 H   0  0  0  0  0  0  0  0  0  0  0  0
   -1.1267   -2.9149    0.0937 C   0  0  0  0  0  0  0  0  0  0  0  0
   -0.1681   -3.3155    0.7282 O   0  0  0  0  0  0  0  0  0  0  0  0
   -1.1229   -1.6540   -0.4709 N   0  0  0  0  0  0  0  0  0  0  0  0
   -1.8994   -1.4407   -1.0862 H   0  0  0  0  0  0  0  0  0  0  0  0
    0.0449   -0.7571   -0.5071 C   0  0  1  0  0  0  0  0  0  0  0  0
    0.8581   -1.3151   -0.9856 H   0  0  0  0  0  0  0  0  0  0  0  0
   -0.1257    0.5778   -1.3028 C   0  0  0  0  0  0  0  0  0  0  0  0
    0.4028    1.3778   -0.7714 H   0  0  0  0  0  0  0  0  0  0  0  0
    0.4488    0.4072   -2.2195 H   0  0  0  0  0  0  0  0  0  0  0  0
   -1.5031    1.1672   -1.7532 C   0  0  0  0  0  0  0  0  0  0  0  0
   -1.8437    1.8515   -0.9687 H   0  0  0  0  0  0  0  0  0  0  0  0
   -1.2716    1.9653   -3.0474 C   0  0  0  0  0  0  0  0  0  0  0  0
   -1.0008    1.3005   -3.8745 H   0  0  0  0  0  0  0  0  0  0  0  0
   -2.1742    2.5177   -3.3273 H   0  0  0  0  0  0  0  0  0  0  0  0
   -0.4639    2.6908   -2.9066 H   0  0  0  0  0  0  0  0  0  0  0  0
   -2.6607    0.2017   -2.0553 C   0  0  0  0  0  0  0  0  0  0  0  0
   -3.0882   -0.1906   -1.1285 H   0  0  0  0  0  0  0  0  0  0  0  0
   -3.4690    0.7228   -2.5790 H   0  0  0  0  0  0  0  0  0  0  0  0
   -2.3230   -0.6243   -2.6894 H   0  0  0  0  0  0  0  0  0  0  0  0
    0.5593   -0.4020    0.9087 C   0  0  0  0  0  0  0  0  0  0  0  0
    1.7537   -0.2018    1.0887 O   0  0  0  0  0  0  0  0  0  0  0  0
   -0.3386   -0.0521    1.9014 N   0  0  0  0  0  0  0  0  0  0  0  0
   -1.3064   -0.3077    1.7367 H   0  0  0  0  0  0  0  0  0  0  0  0
    0.0748    0.3027    3.2531 C   0  0  0  0  0  0  0  0  0  0  0  0
    0.7610    1.1560    3.2347 H   0  0  0  0  0  0  0  0  0  0  0  0
   -0.7967    0.5765    3.8549 H   0  0  0  0  0  0  0  0  0  0  0  0
    0.5780   -0.5436    3.7325 H   0  0  0  0  0  0  0  0  0  0  0  0
  1  2  1  0  0  0  0
  2  3  1  0  0  0  0
  2  4  1  0  0  0  0
  2  5  1  0  0  0  0
  5  6  2  0  0  0  0
  5  7  1  0  0  0  0
  7  8  1  0  0  0  0
  7  9  1  0  0  0  0
  9 10  1  0  0  0  0
  9 11  1  0  0  0  0
  9 24  1  0  0  0  0
 11 12  1  0  0  0  0
 11 13  1  0  0  0  0
 11 14  1  0  0  0  0
 14 15  1  0  0  0  0
 14 16  1  0  0  0  0
 14 20  1  0  0  0  0
 16 17  1  0  0  0  0
 16 18  1  0  0  0  0
 16 19  1  0  0  0  0
 20 21  1  0  0  0  0
 20 22  1  0  0  0  0
 20 23  1  0  0  0  0
 24 25  2  0  0  0  0
 24 26  1  0  0  0  0
 26 27  1  0  0  0  0
 26 28  1  0  0  0  0
 28 29  1  0  0  0  0
 28 30  1  0  0  0  0
 28 31  1  0  0  0  0
M  END
$$$$

  -OEChem-04042216013D

 31 30  0     1  0  0  0  0  0999 V2000
   -2.4744   -4.6660    0.5419 H   0  0  0  0  0  0  0  0  0  0  0  0
   -2.5594   -3.7154    0.0075 C   0  0  0  0  0  0  0  0  0  0  0  0
   -3.4124   -3.1624    0.4077 H   0  0  0  0  0  0  0  0  0  0  0  0
   -2.7313   -3.9226   -1.0515 H   0  0  0  0  0  0  0  0  0  0  0  0
   -1.2879   -2.9051    0.1792 C   0  0  0  0  0  0  0  0  0  0  0  0
   -0.3738   -3.3485    0.8500 O   0  0  0  0  0  0  0  0  0  0  0  0
   -1.1823   -1.6681   -0.4269 N   0  0  0  0  0  0  0  0  0  0  0  0
   -1.9349   -1.4119   -1.0553 H   0  0  0  0  0  0  0  0  0  0  0  0
    0.0360   -0.8404   -0.4410 C   0  0  1  0  0  0  0  0  0  0  0  0
    0.8351   -1.4646   -0.8574 H   0  0  0  0  0  0  0  0  0  0  0  0
   -0.0122    0.4687   -1.2970 C   0  0  0  0  0  0  0  0  0  0  0  0
    0.5343    1.2536   -0.7616 H   0  0  0  0  0  0  0  0  0  0  0  0
    0.6100    0.2323   -2.1666 H   0  0  0  0  0  0  0  0  0  0  0  0
   -1.3188    1.1367   -1.8508 C   0  0  0  0  0  0  0  0  0  0  0  0
   -1.4666    2.0532   -1.2690 H   0  0  0  0  0  0  0  0  0  0  0  0
   -1.0926    1.5366   -3.3175 C   0  0  0  0  0  0  0  0  0  0  0  0
   -0.9710    0.6490   -3.9468 H   0  0  0  0  0  0  0  0  0  0  0  0
   -1.9414    2.1158   -3.6948 H   0  0  0  0  0  0  0  0  0  0  0  0
   -0.1943    2.1556   -3.4098 H   0  0  0  0  0  0  0  0  0  0  0  0
   -2.6532    0.3795   -1.7951 C   0  0  0  0  0  0  0  0  0  0  0  0
   -2.9336    0.1638   -0.7601 H   0  0  0  0  0  0  0  0  0  0  0  0
   -3.4511    0.9938   -2.2248 H   0  0  0  0  0  0  0  0  0  0  0  0
   -2.6013   -0.5497   -2.3711 H   0  0  0  0  0  0  0  0  0  0  0  0
    0.5067   -0.4628    0.9841 C   0  0  0  0  0  0  0  0  0  0  0  0
    1.7016   -0.3239    1.2128 O   0  0  0  0  0  0  0  0  0  0  0  0
   -0.4125   -0.0265    1.9216 N   0  0  0  0  0  0  0  0  0  0  0  0
   -1.3856   -0.2316    1.7215 H   0  0  0  0  0  0  0  0  0  0  0  0
   -0.0386    0.3544    3.2774 C   0  0  0  0  0  0  0  0  0  0  0  0
    0.7053    1.1579    3.2595 H   0  0  0  0  0  0  0  0  0  0  0  0
   -0.9155    0.7111    3.8258 H   0  0  0  0  0  0  0  0  0  0  0  0
    0.3823   -0.5036    3.8119 H   0  0  0  0  0  0  0  0  0  0  0  0
  1  2  1  0  0  0  0
  2  3  1  0  0  0  0
  2  4  1  0  0  0  0
  2  5  1  0  0  0  0
  5  6  2  0  0  0  0
  5  7  1  0  0  0  0
  7  8  1  0  0  0  0
  7  9  1  0  0  0  0
  9 10  1  0  0  0  0
  9 11  1  0  0  0  0
  9 24  1  0  0  0  0
 11 12  1  0  0  0  0
 11 13  1  0  0  0  0
 11 14  1  0  0  0  0
 14 15  1  0  0  0  0
 14 16  1  0  0  0  0
 14 20  1  0  0  0  0
 16 17  1  0  0  0  0
 16 18  1  0  0  0  0
 16 19  1  0  0  0  0
 20 21  1  0  0  0  0
 20 22  1  0  0  0  0
 20 23  1  0  0  0  0
 24 25  2  0  0  0  0
 24 26  1  0  0  0  0
 26 27  1  0  0  0  0
 26 28  1  0  0  0  0
 28 29  1  0  0  0  0
 28 30  1  0  0  0  0
 28 31  1  0  0  0  0
M  END
$$$$

  -OEChem-04042216013D

 31 30  0     1  0  0  0  0  0999 V2000
   -2.2564   -4.6959    0.6961 H   0  0  0  0  0  0  0  0  0  0  0  0
   -2.3902   -3.7644    0.1386 C   0  0  0  0  0  0  0  0  0  0  0  0
   -3.2757   -3.2505    0.5200 H   0  0  0  0  0  0  0  0  0  0  0  0
   -2.5411   -4.0057   -0.9162 H   0  0  0  0  0  0  0  0  0  0  0  0
   -1.1681   -2.8802    0.2989 C   0  0  0  0  0  0  0  0  0  0  0  0
   -0.2555   -3.2372    1.0212 O   0  0  0  0  0  0  0  0  0  0  0  0
   -1.1054   -1.6756   -0.3748 N   0  0  0  0  0  0  0  0  0  0  0  0
   -1.8420   -1.5004   -1.0491 H   0  0  0  0  0  0  0  0  0  0  0  0
    0.0785   -0.8007   -0.4165 C   0  0  1  0  0  0  0  0  0  0  0  0
    0.9102   -1.4085   -0.7908 H   0  0  0  0  0  0  0  0  0  0  0  0
   -0.0299    0.4516   -1.3457 C   0  0  0  0  0  0  0  0  0  0  0  0
    0.4491    1.2936   -0.8324 H   0  0  0  0  0  0  0  0  0  0  0  0
    0.6260    0.2297   -2.1940 H   0  0  0  0  0  0  0  0  0  0  0  0
   -1.3743    1.0037   -1.9321 C   0  0  0  0  0  0  0  0  0  0  0  0
   -1.3954    2.0600   -1.6412 H   0  0  0  0  0  0  0  0  0  0  0  0
   -1.3347    0.9823   -3.4662 C   0  0  0  0  0  0  0  0  0  0  0  0
   -1.2865   -0.0473   -3.8350 H   0  0  0  0  0  0  0  0  0  0  0  0
   -2.2294    1.4584   -3.8798 H   0  0  0  0  0  0  0  0  0  0  0  0
   -0.4598    1.5273   -3.8354 H   0  0  0  0  0  0  0  0  0  0  0  0
   -2.7173    0.4384   -1.4488 C   0  0  0  0  0  0  0  0  0  0  0  0
   -2.9137   -0.5470   -1.8803 H   0  0  0  0  0  0  0  0  0  0  0  0
   -2.7418    0.3781   -0.3565 H   0  0  0  0  0  0  0  0  0  0  0  0
   -3.5301    1.1014   -1.7627 H   0  0  0  0  0  0  0  0  0  0  0  0
    0.5106   -0.3252    0.9912 C   0  0  0  0  0  0  0  0  0  0  0  0
    1.6948   -0.1236    1.2282 O   0  0  0  0  0  0  0  0  0  0  0  0
   -0.4413    0.1244    1.8886 N   0  0  0  0  0  0  0  0  0  0  0  0
   -1.4011   -0.1341    1.6866 H   0  0  0  0  0  0  0  0  0  0  0  0
   -0.1062    0.5957    3.2259 C   0  0  0  0  0  0  0  0  0  0  0  0
    0.5765    1.4503    3.1718 H   0  0  0  0  0  0  0  0  0  0  0  0
   -1.0111    0.9116    3.7535 H   0  0  0  0  0  0  0  0  0  0  0  0
    0.3733   -0.2026    3.8022 H   0  0  0  0  0  0  0  0  0  0  0  0
  1  2  1  0  0  0  0
  2  3  1  0  0  0  0
  2  4  1  0  0  0  0
  2  5  1  0  0  0  0
  5  6  2  0  0  0  0
  5  7  1  0  0  0  0
  7  8  1  0  0  0  0
  7  9  1  0  0  0  0
  9 10  1  0  0  0  0
  9 11  1  0  0  0  0
  9 24  1  0  0  0  0
 11 12  1  0  0  0  0
 11 13  1  0  0  0  0
 11 14  1  0  0  0  0
 14 15  1  0  0  0  0
 14 16  1  0  0  0  0
 14 20  1  0  0  0  0
 16 17  1  0  0  0  0
 16 18  1  0  0  0  0
 16 19  1  0  0  0  0
 20 21  1  0  0  0  0
 20 22  1  0  0  0  0
 20 23  1  0  0  0  0
 24 25  2  0  0  0  0
 24 26  1  0  0  0  0
 26 27  1  0  0  0  0
 26 28  1  0  0  0  0
 28 29  1  0  0  0  0
 28 30  1  0  0  0  0
 28 31  1  0  0  0  0
M  END
$$$$

  -OEChem-04042216013D

 31 30  0     1  0  0  0  0  0999 V2000
   -2.1275   -4.7608    0.3015 H   0  0  0  0  0  0  0  0  0  0  0  0
   -2.2710   -3.7963   -0.1941 C   0  0  0  0  0  0  0  0  0  0  0  0
   -3.1844   -3.3362    0.1903 H   0  0  0  0  0  0  0  0  0  0  0  0
   -2.3792   -3.9665   -1.2680 H   0  0  0  0  0  0  0  0  0  0  0  0
   -1.0823   -2.8918    0.0705 C   0  0  0  0  0  0  0  0  0  0  0  0
   -0.1688   -3.2833    0.7736 O   0  0  0  0  0  0  0  0  0  0  0  0
   -1.0510   -1.6288   -0.4874 N   0  0  0  0  0  0  0  0  0  0  0  0
   -1.7845   -1.4137   -1.1549 H   0  0  0  0  0  0  0  0  0  0  0  0
    0.1066   -0.7202   -0.4402 C   0  0  1  0  0  0  0  0  0  0  0  0
    0.9568   -1.2620   -0.8694 H   0  0  0  0  0  0  0  0  0  0  0  0
   -0.0687    0.5887   -1.2698 C   0  0  0  0  0  0  0  0  0  0  0  0
    0.3431    1.4132   -0.6764 H   0  0  0  0  0  0  0  0  0  0  0  0
    0.5972    0.4975   -2.1341 H   0  0  0  0  0  0  0  0  0  0  0  0
   -1.4600    1.0731   -1.7882 C   0  0  0  0  0  0  0  0  0  0  0  0
   -1.4203    2.1638   -1.6876 H   0  0  0  0  0  0  0  0  0  0  0  0
   -1.6070    0.8159   -3.2921 C   0  0  0  0  0  0  0  0  0  0  0  0
   -1.5933   -0.2587   -3.4995 H   0  0  0  0  0  0  0  0  0  0  0  0
   -2.5513    1.2299   -3.6595 H   0  0  0  0  0  0  0  0  0  0  0  0
   -0.7901    1.2890   -3.8463 H   0  0  0  0  0  0  0  0  0  0  0  0
   -2.7264    0.6640   -1.0193 C   0  0  0  0  0  0  0  0  0  0  0  0
   -2.5430    0.6733    0.0592 H   0  0  0  0  0  0  0  0  0  0  0  0
   -3.0814   -0.3250   -1.3199 H   0  0  0  0  0  0  0  0  0  0  0  0
   -3.5306    1.3760   -1.2311 H   0  0  0  0  0  0  0  0  0  0  0  0
    0.5321   -0.3555    1.0023 C   0  0  0  0  0  0  0  0  0  0  0  0
    1.7114   -0.1386    1.2495 O   0  0  0  0  0  0  0  0  0  0  0  0
   -0.4249   -0.0123    1.9403 N   0  0  0  0  0  0  0  0  0  0  0  0
   -1.3761   -0.2915    1.7254 H   0  0  0  0  0  0  0  0  0  0  0  0
   -0.0915    0.3428    3.3138 C   0  0  0  0  0  0  0  0  0  0  0  0
    0.5799    1.2078    3.3347 H   0  0  0  0  0  0  0  0  0  0  0  0
   -0.9986    0.5985    3.8696 H   0  0  0  0  0  0  0  0  0  0  0  0
    0.4000   -0.4971    3.8162 H   0  0  0  0  0  0  0  0  0  0  0  0
  1  2  1  0  0  0  0
  2  3  1  0  0  0  0
  2  4  1  0  0  0  0
  2  5  1  0  0  0  0
  5  6  2  0  0  0  0
  5  7  1  0  0  0  0
  7  8  1  0  0  0  0
  7  9  1  0  0  0  0
  9 10  1  0  0  0  0
  9 11  1  0  0  0  0
  9 24  1  0  0  0  0
 11 12  1  0  0  0  0
 11 13  1  0  0  0  0
 11 14  1  0  0  0  0
 14 15  1  0  0  0  0
 14 16  1  0  0  0  0
 14 20  1  0  0  0  0
 16 17  1  0  0  0  0
 16 18  1  0  0  0  0
 16 19  1  0  0  0  0
 20 21  1  0  0  0  0
 20 22  1  0  0  0  0
 20 23  1  0  0  0  0
 24 25  2  0  0  0  0
 24 26  1  0  0  0  0
 26 27  1  0  0  0  0
 26 28  1  0  0  0  0
 28 29  1  0  0  0  0
 28 30  1  0  0  0  0
 28 31  1  0  0  0  0
M  END
$$$$

  -OEChem-04042216013D

 31 30  0     1  0  0  0  0  0999 V2000
   -2.6085   -4.5621    0.3338 H   0  0  0  0  0  0  0  0  0  0  0  0
   -2.6378   -3.5903   -0.1671 C   0  0  0  0  0  0  0  0  0  0  0  0
   -3.4748   -3.0132    0.2330 H   0  0  0  0  0  0  0  0  0  0  0  0
   -2.7912   -3.7510   -1.2369 H   0  0  0  0  0  0  0  0  0  0  0  0
   -1.3370   -2.8453    0.0639 C   0  0  0  0  0  0  0  0  0  0  0  0
   -0.4611   -3.3494    0.7428 O   0  0  0  0  0  0  0  0  0  0  0  0
   -1.1625   -1.5938   -0.4922 N   0  0  0  0  0  0  0  0  0  0  0  0
   -1.8904   -1.2691   -1.1213 H   0  0  0  0  0  0  0  0  0  0  0  0
    0.0895   -0.8205   -0.4457 C   0  0  1  0  0  0  0  0  0  0  0  0
    0.8732   -1.4525   -0.8788 H   0  0  0  0  0  0  0  0  0  0  0  0
    0.0385    0.4875   -1.2873 C   0  0  0  0  0  0  0  0  0  0  0  0
    0.5225    1.2802   -0.7051 H   0  0  0  0  0  0  0  0  0  0  0  0
    0.6784    0.3332   -2.1625 H   0  0  0  0  0  0  0  0  0  0  0  0
   -1.3200    1.0618   -1.7821 C   0  0  0  0  0  0  0  0  0  0  0  0
   -1.1197    2.1251   -1.9561 H   0  0  0  0  0  0  0  0  0  0  0  0
   -1.7022    0.4959   -3.1544 C   0  0  0  0  0  0  0  0  0  0  0  0
   -1.8833   -0.5813   -3.0921 H   0  0  0  0  0  0  0  0  0  0  0  0
   -2.6110    0.9804   -3.5249 H   0  0  0  0  0  0  0  0  0  0  0  0
   -0.9018    0.6717   -3.8800 H   0  0  0  0  0  0  0  0  0  0  0  0
   -2.4949    1.0390   -0.7899 C   0  0  0  0  0  0  0  0  0  0  0  0
   -2.1446    1.2607    0.2222 H   0  0  0  0  0  0  0  0  0  0  0  0
   -3.2259    1.8038   -1.0707 H   0  0  0  0  0  0  0  0  0  0  0  0
   -3.0149    0.0788   -0.7868 H   0  0  0  0  0  0  0  0  0  0  0  0
    0.5623   -0.5021    0.9924 C   0  0  0  0  0  0  0  0  0  0  0  0
    1.7600   -0.4162    1.2308 O   0  0  0  0  0  0  0  0  0  0  0  0
   -0.3434   -0.0516    1.9359 N   0  0  0  0  0  0  0  0  0  0  0  0
   -1.3224   -0.2134    1.7252 H   0  0  0  0  0  0  0  0  0  0  0  0
    0.0356    0.2719    3.3053 C   0  0  0  0  0  0  0  0  0  0  0  0
    0.8008    1.0552    3.3176 H   0  0  0  0  0  0  0  0  0  0  0  0
   -0.8340    0.6325    3.8628 H   0  0  0  0  0  0  0  0  0  0  0  0
    0.4309   -0.6152    3.8113 H   0  0  0  0  0  0  0  0  0  0  0  0
  1  2  1  0  0  0  0
  2  3  1  0  0  0  0
  2  4  1  0  0  0  0
  2  5  1  0  0  0  0
  5  6  2  0  0  0  0
  5  7  1  0  0  0  0
  7  8  1  0  0  0  0
  7  9  1  0  0  0  0
  9 10  1  0  0  0  0
  9 11  1  0  0  0  0
  9 24  1  0  0  0  0
 11 12  1  0  0  0  0
 11 13  1  0  0  0  0
 11 14  1  0  0  0  0
 14 15  1  0  0  0  0
 14 16  1  0  0  0  0
 14 20  1  0  0  0  0
 16 17  1  0  0  0  0
 16 18  1  0  0  0  0
 16 19  1  0  0  0  0
 20 21  1  0  0  0  0
 20 22  1  0  0  0  0
 20 23  1  0  0  0  0
 24 25  2  0  0  0  0
 24 26  1  0  0  0  0
 26 27  1  0  0  0  0
 26 28  1  0  0  0  0
 28 29  1  0  0  0  0
 28 30  1  0  0  0  0
 28 31  1  0  0  0  0
M  END
$$$$

  -OEChem-04042216013D

 31 30  0     1  0  0  0  0  0999 V2000
   -2.6238   -4.5411    0.3712 H   0  0  0  0  0  0  0  0  0  0  0  0
   -2.6535   -3.5670   -0.1250 C   0  0  0  0  0  0  0  0  0  0  0  0
   -3.4644   -2.9764    0.3076 H   0  0  0  0  0  0  0  0  0  0  0  0
   -2.8495   -3.7207   -1.1888 H   0  0  0  0  0  0  0  0  0  0  0  0
   -1.3313   -2.8472    0.0596 C   0  0  0  0  0  0  0  0  0  0  0  0
   -0.4390   -3.3713    0.7011 O   0  0  0  0  0  0  0  0  0  0  0  0
   -1.1546   -1.5960   -0.4967 N   0  0  0  0  0  0  0  0  0  0  0  0
   -1.9180   -1.2280   -1.0551 H   0  0  0  0  0  0  0  0  0  0  0  0
    0.0951   -0.8186   -0.4427 C   0  0  1  0  0  0  0  0  0  0  0  0
    0.8848   -1.4492   -0.8668 H   0  0  0  0  0  0  0  0  0  0  0  0
    0.0573    0.4933   -1.2807 C   0  0  0  0  0  0  0  0  0  0  0  0
    0.5499    1.2846   -0.7043 H   0  0  0  0  0  0  0  0  0  0  0  0
    0.6883    0.3284   -2.1601 H   0  0  0  0  0  0  0  0  0  0  0  0
   -1.2930    1.0682   -1.7860 C   0  0  0  0  0  0  0  0  0  0  0  0
   -1.0534    2.0633   -2.1775 H   0  0  0  0  0  0  0  0  0  0  0  0
   -1.8786    0.2836   -2.9705 C   0  0  0  0  0  0  0  0  0  0  0  0
   -2.2276   -0.7078   -2.6756 H   0  0  0  0  0  0  0  0  0  0  0  0
   -2.7284    0.8281   -3.3940 H   0  0  0  0  0  0  0  0  0  0  0  0
   -1.1260    0.1642   -3.7560 H   0  0  0  0  0  0  0  0  0  0  0  0
   -2.3328    1.2878   -0.6764 C   0  0  0  0  0  0  0  0  0  0  0  0
   -1.8740    1.8010    0.1744 H   0  0  0  0  0  0  0  0  0  0  0  0
   -3.1483    1.9138   -1.0520 H   0  0  0  0  0  0  0  0  0  0  0  0
   -2.7677    0.3500   -0.3255 H   0  0  0  0  0  0  0  0  0  0  0  0
    0.5499   -0.4999    1.0011 C   0  0  0  0  0  0  0  0  0  0  0  0
    1.7439   -0.4120    1.2566 O   0  0  0  0  0  0  0  0  0  0  0  0
   -0.3702   -0.0529    1.9327 N   0  0  0  0  0  0  0  0  0  0  0  0
   -1.3468   -0.2082    1.7072 H   0  0  0  0  0  0  0  0  0  0  0  0
   -0.0099    0.2846    3.3036 C   0  0  0  0  0  0  0  0  0  0  0  0
    0.7423    1.0803    3.3188 H   0  0  0  0  0  0  0  0  0  0  0  0
   -0.8905    0.6341    3.8507 H   0  0  0  0  0  0  0  0  0  0  0  0
    0.3947   -0.5931    3.8186 H   0  0  0  0  0  0  0  0  0  0  0  0
  1  2  1  0  0  0  0
  2  3  1  0  0  0  0
  2  4  1  0  0  0  0
  2  5  1  0  0  0  0
  5  6  2  0  0  0  0
  5  7  1  0  0  0  0
  7  8  1  0  0  0  0
  7  9  1  0  0  0  0
  9 10  1  0  0  0  0
  9 11  1  0  0  0  0
  9 24  1  0  0  0  0
 11 12  1  0  0  0  0
 11 13  1  0  0  0  0
 11 14  1  0  0  0  0
 14 15  1  0  0  0  0
 14 16  1  0  0  0  0
 14 20  1  0  0  0  0
 16 17  1  0  0  0  0
 16 18  1  0  0  0  0
 16 19  1  0  0  0  0
 20 21  1  0  0  0  0
 20 22  1  0  0  0  0
 20 23  1  0  0  0  0
 24 25  2  0  0  0  0
 24 26  1  0  0  0  0
 26 27  1  0  0  0  0
 26 28  1  0  0  0  0
 28 29  1  0  0  0  0
 28 30  1  0  0  0  0
 28 31  1  0  0  0  0
M  END
$$$$

  -OEChem-04042216013D

 31 30  0     1  0  0  0  0  0999 V2000
   -2.6061   -4.5503    0.3897 H   0  0  0  0  0  0  0  0  0  0  0  0
   -2.6486   -3.5718   -0.0972 C   0  0  0  0  0  0  0  0  0  0  0  0
   -3.4522   -2.9874    0.3572 H   0  0  0  0  0  0  0  0  0  0  0  0
   -2.8663   -3.7173   -1.1579 H   0  0  0  0  0  0  0  0  0  0  0  0
   -1.3243   -2.8502    0.0669 C   0  0  0  0  0  0  0  0  0  0  0  0
   -0.4208   -3.3752    0.6919 O   0  0  0  0  0  0  0  0  0  0  0  0
   -1.1566   -1.5979   -0.4901 N   0  0  0  0  0  0  0  0  0  0  0  0
   -1.9333   -1.2230   -1.0218 H   0  0  0  0  0  0  0  0  0  0  0  0
    0.0885   -0.8141   -0.4390 C   0  0  1  0  0  0  0  0  0  0  0  0
    0.8794   -1.4439   -0.8623 H   0  0  0  0  0  0  0  0  0  0  0  0
    0.0585    0.4999   -1.2748 C   0  0  0  0  0  0  0  0  0  0  0  0
    0.5731    1.2873   -0.7122 H   0  0  0  0  0  0  0  0  0  0  0  0
    0.6771    0.3149   -2.1592 H   0  0  0  0  0  0  0  0  0  0  0  0
   -1.2794    1.0921   -1.7943 C   0  0  0  0  0  0  0  0  0  0  0  0
   -1.0079    1.9802   -2.3758 H   0  0  0  0  0  0  0  0  0  0  0  0
   -2.0805    0.1751   -2.7363 C   0  0  0  0  0  0  0  0  0  0  0  0
   -2.7629   -0.4853   -2.1963 H   0  0  0  0  0  0  0  0  0  0  0  0
   -2.6886    0.7871   -3.4099 H   0  0  0  0  0  0  0  0  0  0  0  0
   -1.4049   -0.4327   -3.3465 H   0  0  0  0  0  0  0  0  0  0  0  0
   -2.1678    1.5550   -0.6318 C   0  0  0  0  0  0  0  0  0  0  0  0
   -1.6164    2.2434    0.0168 H   0  0  0  0  0  0  0  0  0  0  0  0
   -3.0486    2.0788   -1.0163 H   0  0  0  0  0  0  0  0  0  0  0  0
   -2.5075    0.7089   -0.0285 H   0  0  0  0  0  0  0  0  0  0  0  0
    0.5438   -0.4935    1.0040 C   0  0  0  0  0  0  0  0  0  0  0  0
    1.7378   -0.4035    1.2589 O   0  0  0  0  0  0  0  0  0  0  0  0
   -0.3761   -0.0516    1.9381 N   0  0  0  0  0  0  0  0  0  0  0  0
   -1.3533   -0.2018    1.7123 H   0  0  0  0  0  0  0  0  0  0  0  0
   -0.0140    0.2892    3.3076 C   0  0  0  0  0  0  0  0  0  0  0  0
    0.7196    1.1021    3.3197 H   0  0  0  0  0  0  0  0  0  0  0  0
   -0.8987    0.6158    3.8624 H   0  0  0  0  0  0  0  0  0  0  0  0
    0.4148   -0.5808    3.8162 H   0  0  0  0  0  0  0  0  0  0  0  0
  1  2  1  0  0  0  0
  2  3  1  0  0  0  0
  2  4  1  0  0  0  0
  2  5  1  0  0  0  0
  5  6  2  0  0  0  0
  5  7  1  0  0  0  0
  7  8  1  0  0  0  0
  7  9  1  0  0  0  0
  9 10  1  0  0  0  0
  9 11  1  0  0  0  0
  9 24  1  0  0  0  0
 11 12  1  0  0  0  0
 11 13  1  0  0  0  0
 11 14  1  0  0  0  0
 14 15  1  0  0  0  0
 14 16  1  0  0  0  0
 14 20  1  0  0  0  0
 16 17  1  0  0  0  0
 16 18  1  0  0  0  0
 16 19  1  0  0  0  0
 20 21  1  0  0  0  0
 20 22  1  0  0  0  0
 20 23  1  0  0  0  0
 24 25  2  0  0  0  0
 24 26  1  0  0  0  0
 26 27  1  0  0  0  0
 26 28  1  0  0  0  0
 28 29  1  0  0  0  0
 28 30  1  0  0  0  0
 28 31  1  0  0  0  0
M  END
$$$$

  -OEChem-04042216013D

 31 30  0     1  0  0  0  0  0999 V2000
   -2.2331   -4.7331    0.4060 H   0  0  0  0  0  0  0  0  0  0  0  0
   -2.3780   -3.7713   -0.0945 C   0  0  0  0  0  0  0  0  0  0  0  0
   -3.2444   -3.2726    0.3466 H   0  0  0  0  0  0  0  0  0  0  0  0
   -2.5699   -3.9530   -1.1548 H   0  0  0  0  0  0  0  0  0  0  0  0
   -1.1416   -2.9072    0.0683 C   0  0  0  0  0  0  0  0  0  0  0  0
   -0.1815   -3.3355    0.6820 O   0  0  0  0  0  0  0  0  0  0  0  0
   -1.1193   -1.6410   -0.4835 N   0  0  0  0  0  0  0  0  0  0  0  0
   -1.9051   -1.3978   -1.0756 H   0  0  0  0  0  0  0  0  0  0  0  0
    0.0614   -0.7610   -0.5144 C   0  0  1  0  0  0  0  0  0  0  0  0
    0.8660   -1.3243   -1.0006 H   0  0  0  0  0  0  0  0  0  0  0  0
   -0.0959    0.5823   -1.2975 C   0  0  0  0  0  0  0  0  0  0  0  0
    0.4778    1.3620   -0.7832 H   0  0  0  0  0  0  0  0  0  0  0  0
    0.4384    0.4088   -2.2375 H   0  0  0  0  0  0  0  0  0  0  0  0
   -1.4662    1.1901   -1.7360 C   0  0  0  0  0  0  0  0  0  0  0  0
   -1.2729    1.7765   -2.6411 H   0  0  0  0  0  0  0  0  0  0  0  0
   -2.6373    0.2478   -2.0508 C   0  0  0  0  0  0  0  0  0  0  0  0
   -3.0884   -0.1547   -1.1391 H   0  0  0  0  0  0  0  0  0  0  0  0
   -3.4178    0.7979   -2.5860 H   0  0  0  0  0  0  0  0  0  0  0  0
   -2.3060   -0.5737   -2.6937 H   0  0  0  0  0  0  0  0  0  0  0  0
   -1.9435    2.1573   -0.6433 C   0  0  0  0  0  0  0  0  0  0  0  0
   -1.1993    2.9412   -0.4707 H   0  0  0  0  0  0  0  0  0  0  0  0
   -2.8796    2.6405   -0.9409 H   0  0  0  0  0  0  0  0  0  0  0  0
   -2.1110    1.6249    0.2981 H   0  0  0  0  0  0  0  0  0  0  0  0
    0.5844   -0.4278    0.9033 C   0  0  0  0  0  0  0  0  0  0  0  0
    1.7828   -0.2526    1.0839 O   0  0  0  0  0  0  0  0  0  0  0  0
   -0.3051   -0.0747    1.9023 N   0  0  0  0  0  0  0  0  0  0  0  0
   -1.2783   -0.3076    1.7356 H   0  0  0  0  0  0  0  0  0  0  0  0
    0.1171    0.2580    3.2565 C   0  0  0  0  0  0  0  0  0  0  0  0
    0.8120    1.1044    3.2453 H   0  0  0  0  0  0  0  0  0  0  0  0
   -0.7488    0.5327    3.8662 H   0  0  0  0  0  0  0  0  0  0  0  0
    0.6137   -0.5997    3.7223 H   0  0  0  0  0  0  0  0  0  0  0  0
  1  2  1  0  0  0  0
  2  3  1  0  0  0  0
  2  4  1  0  0  0  0
  2  5  1  0  0  0  0
  5  6  2  0  0  0  0
  5  7  1  0  0  0  0
  7  8  1  0  0  0  0
  7  9  1  0  0  0  0
  9 10  1  0  0  0  0
  9 11  1  0  0  0  0
  9 24  1  0  0  0  0
 11 12  1  0  0  0  0
 11 13  1  0  0  0  0
 11 14  1  0  0  0  0
 14 15  1  0  0  0  0
 14 16  1  0  0  0  0
 14 20  1  0  0  0  0
 16 17  1  0  0  0  0
 16 18  1  0  0  0  0
 16 19  1  0  0  0  0
 20 21  1  0  0  0  0
 20 22  1  0  0  0  0
 20 23  1  0  0  0  0
 24 25  2  0  0  0  0
 24 26  1  0  0  0  0
 26 27  1  0  0  0  0
 26 28  1  0  0  0  0
 28 29  1  0  0  0  0
 28 30  1  0  0  0  0
 28 31  1  0  0  0  0
M  END
$$$$

  -OEChem-04042216013D

 31 30  0     1  0  0  0  0  0999 V2000
   -2.4699   -4.6695    0.4761 H   0  0  0  0  0  0  0  0  0  0  0  0
   -2.5496   -3.7111   -0.0449 C   0  0  0  0  0  0  0  0  0  0  0  0
   -3.3993   -3.1589    0.3633 H   0  0  0  0  0  0  0  0  0  0  0  0
   -2.7223   -3.9017   -1.1069 H   0  0  0  0  0  0  0  0  0  0  0  0
   -1.2737   -2.9114    0.1382 C   0  0  0  0  0  0  0  0  0  0  0  0
   -0.3625   -3.3710    0.8019 O   0  0  0  0  0  0  0  0  0  0  0  0
   -1.1611   -1.6661   -0.4491 N   0  0  0  0  0  0  0  0  0  0  0  0
   -1.9151   -1.3916   -1.0680 H   0  0  0  0  0  0  0  0  0  0  0  0
    0.0590   -0.8412   -0.4408 C   0  0  1  0  0  0  0  0  0  0  0  0
    0.8621   -1.4559   -0.8635 H   0  0  0  0  0  0  0  0  0  0  0  0
    0.0153    0.4881   -1.2633 C   0  0  0  0  0  0  0  0  0  0  0  0
    0.6135    1.2417   -0.7381 H   0  0  0  0  0  0  0  0  0  0  0  0
    0.5888    0.2568   -2.1670 H   0  0  0  0  0  0  0  0  0  0  0  0
   -1.2884    1.1706   -1.8005 C   0  0  0  0  0  0  0  0  0  0  0  0
   -1.0779    1.4971   -2.8252 H   0  0  0  0  0  0  0  0  0  0  0  0
   -2.6056    0.3836   -1.8440 C   0  0  0  0  0  0  0  0  0  0  0  0
   -2.9502    0.1283   -0.8373 H   0  0  0  0  0  0  0  0  0  0  0  0
   -3.3852    0.9888   -2.3180 H   0  0  0  0  0  0  0  0  0  0  0  0
   -2.4894   -0.5258   -2.4413 H   0  0  0  0  0  0  0  0  0  0  0  0
   -1.5528    2.4284   -0.9579 C   0  0  0  0  0  0  0  0  0  0  0  0
   -0.6996    3.1125   -1.0084 H   0  0  0  0  0  0  0  0  0  0  0  0
   -2.4335    2.9636   -1.3273 H   0  0  0  0  0  0  0  0  0  0  0  0
   -1.7222    2.1610    0.0902 H   0  0  0  0  0  0  0  0  0  0  0  0
    0.5130   -0.4892    0.9960 C   0  0  0  0  0  0  0  0  0  0  0  0
    1.7053   -0.3615    1.2440 O   0  0  0  0  0  0  0  0  0  0  0  0
   -0.4174   -0.0668    1.9289 N   0  0  0  0  0  0  0  0  0  0  0  0
   -1.3894   -0.2537    1.7079 H   0  0  0  0  0  0  0  0  0  0  0  0
   -0.0615    0.2928    3.2951 C   0  0  0  0  0  0  0  0  0  0  0  0
    0.6687    1.1089    3.2993 H   0  0  0  0  0  0  0  0  0  0  0  0
   -0.9489    0.6232    3.8430 H   0  0  0  0  0  0  0  0  0  0  0  0
    0.3693   -0.5687    3.8160 H   0  0  0  0  0  0  0  0  0  0  0  0
  1  2  1  0  0  0  0
  2  3  1  0  0  0  0
  2  4  1  0  0  0  0
  2  5  1  0  0  0  0
  5  6  2  0  0  0  0
  5  7  1  0  0  0  0
  7  8  1  0  0  0  0
  7  9  1  0  0  0  0
  9 10  1  0  0  0  0
  9 11  1  0  0  0  0
  9 24  1  0  0  0  0
 11 12  1  0  0  0  0
 11 13  1  0  0  0  0
 11 14  1  0  0  0  0
 14 15  1  0  0  0  0
 14 16  1  0  0  0  0
 14 20  1  0  0  0  0
 16 17  1  0  0  0  0
 16 18  1  0  0  0  0
 16 19  1  0  0  0  0
 20 21  1  0  0  0  0
 20 22  1  0  0  0  0
 20 23  1  0  0  0  0
 24 25  2  0  0  0  0
 24 26  1  0  0  0  0
 26 27  1  0  0  0  0
 26 28  1  0  0  0  0
 28 29  1  0  0  0  0
 28 30  1  0  0  0  0
 28 31  1  0  0  0  0
M  END
$$$$

  -OEChem-04042216013D

 31 30  0     1  0  0  0  0  0999 V2000
   -2.3765   -4.6917    0.5178 H   0  0  0  0  0  0  0  0  0  0  0  0
   -2.4799   -3.7375   -0.0069 C   0  0  0  0  0  0  0  0  0  0  0  0
   -3.3430   -3.2048    0.3992 H   0  0  0  0  0  0  0  0  0  0  0  0
   -2.6480   -3.9369   -1.0680 H   0  0  0  0  0  0  0  0  0  0  0  0
   -1.2242   -2.9053    0.1720 C   0  0  0  0  0  0  0  0  0  0  0  0
   -0.3021   -3.3375    0.8391 O   0  0  0  0  0  0  0  0  0  0  0  0
   -1.1413   -1.6630   -0.4267 N   0  0  0  0  0  0  0  0  0  0  0  0
   -1.9011   -1.4135   -1.0487 H   0  0  0  0  0  0  0  0  0  0  0  0
    0.0616   -0.8133   -0.4353 C   0  0  1  0  0  0  0  0  0  0  0  0
    0.8740   -1.4149   -0.8592 H   0  0  0  0  0  0  0  0  0  0  0  0
   -0.0186    0.5047   -1.2743 C   0  0  0  0  0  0  0  0  0  0  0  0
    0.5496    1.2738   -0.7382 H   0  0  0  0  0  0  0  0  0  0  0  0
    0.5727    0.2978   -2.1724 H   0  0  0  0  0  0  0  0  0  0  0  0
   -1.3441    1.1517   -1.8098 C   0  0  0  0  0  0  0  0  0  0  0  0
   -1.2546    1.2052   -2.9005 H   0  0  0  0  0  0  0  0  0  0  0  0
   -2.6970    0.4853   -1.5188 C   0  0  0  0  0  0  0  0  0  0  0  0
   -2.8324    0.3263   -0.4446 H   0  0  0  0  0  0  0  0  0  0  0  0
   -3.5154    1.1224   -1.8691 H   0  0  0  0  0  0  0  0  0  0  0  0
   -2.7830   -0.4648   -2.0533 H   0  0  0  0  0  0  0  0  0  0  0  0
   -1.4251    2.5951   -1.2878 C   0  0  0  0  0  0  0  0  0  0  0  0
   -0.5298    3.1571   -1.5729 H   0  0  0  0  0  0  0  0  0  0  0  0
   -2.2931    3.1122   -1.7088 H   0  0  0  0  0  0  0  0  0  0  0  0
   -1.5102    2.6043   -0.1962 H   0  0  0  0  0  0  0  0  0  0  0  0
    0.5196   -0.4398    0.9950 C   0  0  0  0  0  0  0  0  0  0  0  0
    1.7108   -0.2860    1.2329 O   0  0  0  0  0  0  0  0  0  0  0  0
   -0.4126   -0.0289    1.9311 N   0  0  0  0  0  0  0  0  0  0  0  0
   -1.3816   -0.2396    1.7184 H   0  0  0  0  0  0  0  0  0  0  0  0
   -0.0554    0.3434    3.2936 C   0  0  0  0  0  0  0  0  0  0  0  0
    0.6494    1.1816    3.2903 H   0  0  0  0  0  0  0  0  0  0  0  0
   -0.9480    0.6467    3.8487 H   0  0  0  0  0  0  0  0  0  0  0  0
    0.4063   -0.5037    3.8120 H   0  0  0  0  0  0  0  0  0  0  0  0
  1  2  1  0  0  0  0
  2  3  1  0  0  0  0
  2  4  1  0  0  0  0
  2  5  1  0  0  0  0
  5  6  2  0  0  0  0
  5  7  1  0  0  0  0
  7  8  1  0  0  0  0
  7  9  1  0  0  0  0
  9 10  1  0  0  0  0
  9 11  1  0  0  0  0
  9 24  1  0  0  0  0
 11 12  1  0  0  0  0
 11 13  1  0  0  0  0
 11 14  1  0  0  0  0
 14 15  1  0  0  0  0
 14 16  1  0  0  0  0
 14 20  1  0  0  0  0
 16 17  1  0  0  0  0
 16 18  1  0  0  0  0
 16 19  1  0  0  0  0
 20 21  1  0  0  0  0
 20 22  1  0  0  0  0
 20 23  1  0  0  0  0
 24 25  2  0  0  0  0
 24 26  1  0  0  0  0
 26 27  1  0  0  0  0
 26 28  1  0  0  0  0
 28 29  1  0  0  0  0
 28 30  1  0  0  0  0
 28 31  1  0  0  0  0
M  END
$$$$

  -OEChem-04042216013D

 31 30  0     1  0  0  0  0  0999 V2000
   -2.1658   -4.7380    0.4477 H   0  0  0  0  0  0  0  0  0  0  0  0
   -2.3196   -3.7740   -0.0459 C   0  0  0  0  0  0  0  0  0  0  0  0
   -3.2114   -3.3026    0.3738 H   0  0  0  0  0  0  0  0  0  0  0  0
   -2.4740   -3.9472   -1.1135 H   0  0  0  0  0  0  0  0  0  0  0  0
   -1.1119   -2.8807    0.1667 C   0  0  0  0  0  0  0  0  0  0  0  0
   -0.1899   -3.2665    0.8618 O   0  0  0  0  0  0  0  0  0  0  0  0
   -1.0747   -1.6335   -0.4266 N   0  0  0  0  0  0  0  0  0  0  0  0
   -1.8139   -1.4326   -1.0903 H   0  0  0  0  0  0  0  0  0  0  0  0
    0.0920   -0.7347   -0.4144 C   0  0  1  0  0  0  0  0  0  0  0  0
    0.9341   -1.2984   -0.8317 H   0  0  0  0  0  0  0  0  0  0  0  0
   -0.0504    0.5709   -1.2618 C   0  0  0  0  0  0  0  0  0  0  0  0
    0.4342    1.3745   -0.6950 H   0  0  0  0  0  0  0  0  0  0  0  0
    0.5808    0.4244   -2.1445 H   0  0  0  0  0  0  0  0  0  0  0  0
   -1.4124    1.1240   -1.8035 C   0  0  0  0  0  0  0  0  0  0  0  0
   -1.4405    0.8983   -2.8754 H   0  0  0  0  0  0  0  0  0  0  0  0
   -2.7291    0.5808   -1.2229 C   0  0  0  0  0  0  0  0  0  0  0  0
   -2.6771    0.5243   -0.1311 H   0  0  0  0  0  0  0  0  0  0  0  0
   -3.5625    1.2396   -1.4871 H   0  0  0  0  0  0  0  0  0  0  0  0
   -2.9654   -0.4033   -1.6351 H   0  0  0  0  0  0  0  0  0  0  0  0
   -1.4150    2.6538   -1.6619 C   0  0  0  0  0  0  0  0  0  0  0  0
   -0.5206    3.0827   -2.1255 H   0  0  0  0  0  0  0  0  0  0  0  0
   -2.2910    3.0862   -2.1557 H   0  0  0  0  0  0  0  0  0  0  0  0
   -1.4334    2.9427   -0.6058 H   0  0  0  0  0  0  0  0  0  0  0  0
    0.5209   -0.3440    1.0209 C   0  0  0  0  0  0  0  0  0  0  0  0
    1.7030   -0.1420    1.2683 O   0  0  0  0  0  0  0  0  0  0  0  0
   -0.4344    0.0273    1.9502 N   0  0  0  0  0  0  0  0  0  0  0  0
   -1.3913   -0.2291    1.7318 H   0  0  0  0  0  0  0  0  0  0  0  0
   -0.1023    0.4034    3.3183 C   0  0  0  0  0  0  0  0  0  0  0  0
    0.5837    1.2569    3.3265 H   0  0  0  0  0  0  0  0  0  0  0  0
   -1.0077    0.6858    3.8636 H   0  0  0  0  0  0  0  0  0  0  0  0
    0.3716   -0.4348    3.8399 H   0  0  0  0  0  0  0  0  0  0  0  0
  1  2  1  0  0  0  0
  2  3  1  0  0  0  0
  2  4  1  0  0  0  0
  2  5  1  0  0  0  0
  5  6  2  0  0  0  0
  5  7  1  0  0  0  0
  7  8  1  0  0  0  0
  7  9  1  0  0  0  0
  9 10  1  0  0  0  0
  9 11  1  0  0  0  0
  9 24  1  0  0  0  0
 11 12  1  0  0  0  0
 11 13  1  0  0  0  0
 11 14  1  0  0  0  0
 14 15  1  0  0  0  0
 14 16  1  0  0  0  0
 14 20  1  0  0  0  0
 16 17  1  0  0  0  0
 16 18  1  0  0  0  0
 16 19  1  0  0  0  0
 20 21  1  0  0  0  0
 20 22  1  0  0  0  0
 20 23  1  0  0  0  0
 24 25  2  0  0  0  0
 24 26  1  0  0  0  0
 26 27  1  0  0  0  0
 26 28  1  0  0  0  0
 28 29  1  0  0  0  0
 28 30  1  0  0  0  0
 28 31  1  0  0  0  0
M  END
$$$$

  -OEChem-04042216013D

 31 30  0     1  0  0  0  0  0999 V2000
   -2.5690   -4.5822    0.3480 H   0  0  0  0  0  0  0  0  0  0  0  0
   -2.6240   -3.6093   -0.1488 C   0  0  0  0  0  0  0  0  0  0  0  0
   -3.4789   -3.0585    0.2505 H   0  0  0  0  0  0  0  0  0  0  0  0
   -2.7689   -3.7698   -1.2198 H   0  0  0  0  0  0  0  0  0  0  0  0
   -1.3452   -2.8290    0.0910 C   0  0  0  0  0  0  0  0  0  0  0  0
   -0.4609   -3.3126    0.7739 O   0  0  0  0  0  0  0  0  0  0  0  0
   -1.1979   -1.5741   -0.4672 N   0  0  0  0  0  0  0  0  0  0  0  0
   -1.9199   -1.2849   -1.1188 H   0  0  0  0  0  0  0  0  0  0  0  0
    0.0479   -0.7893   -0.4438 C   0  0  1  0  0  0  0  0  0  0  0  0
    0.8294   -1.4142   -0.8911 H   0  0  0  0  0  0  0  0  0  0  0  0
   -0.0073    0.5333   -1.2680 C   0  0  0  0  0  0  0  0  0  0  0  0
    0.5219    1.2975   -0.6870 H   0  0  0  0  0  0  0  0  0  0  0  0
    0.6016    0.3689   -2.1632 H   0  0  0  0  0  0  0  0  0  0  0  0
   -1.3475    1.1648   -1.7590 C   0  0  0  0  0  0  0  0  0  0  0  0
   -1.5653    0.7345   -2.7426 H   0  0  0  0  0  0  0  0  0  0  0  0
   -2.6055    0.9381   -0.8992 C   0  0  0  0  0  0  0  0  0  0  0  0
   -2.3601    1.0030    0.1650 H   0  0  0  0  0  0  0  0  0  0  0  0
   -3.3594    1.7006   -1.1192 H   0  0  0  0  0  0  0  0  0  0  0  0
   -3.0684   -0.0286   -1.1084 H   0  0  0  0  0  0  0  0  0  0  0  0
   -1.1359    2.6730   -1.9531 C   0  0  0  0  0  0  0  0  0  0  0  0
   -0.2662    2.8579   -2.5920 H   0  0  0  0  0  0  0  0  0  0  0  0
   -2.0103    3.1256   -2.4312 H   0  0  0  0  0  0  0  0  0  0  0  0
   -0.9720    3.1671   -0.9899 H   0  0  0  0  0  0  0  0  0  0  0  0
    0.5385   -0.4749    0.9900 C   0  0  0  0  0  0  0  0  0  0  0  0
    1.7390   -0.3850    1.2136 O   0  0  0  0  0  0  0  0  0  0  0  0
   -0.3576   -0.0381    1.9490 N   0  0  0  0  0  0  0  0  0  0  0  0
   -1.3381   -0.2066    1.7508 H   0  0  0  0  0  0  0  0  0  0  0  0
    0.0389    0.2781    3.3150 C   0  0  0  0  0  0  0  0  0  0  0  0
    0.7886    1.0762    3.3222 H   0  0  0  0  0  0  0  0  0  0  0  0
   -0.8272    0.6153    3.8922 H   0  0  0  0  0  0  0  0  0  0  0  0
    0.4608   -0.6061    3.8043 H   0  0  0  0  0  0  0  0  0  0  0  0
  1  2  1  0  0  0  0
  2  3  1  0  0  0  0
  2  4  1  0  0  0  0
  2  5  1  0  0  0  0
  5  6  2  0  0  0  0
  5  7  1  0  0  0  0
  7  8  1  0  0  0  0
  7  9  1  0  0  0  0
  9 10  1  0  0  0  0
  9 11  1  0  0  0  0
  9 24  1  0  0  0  0
 11 12  1  0  0  0  0
 11 13  1  0  0  0  0
 11 14  1  0  0  0  0
 14 15  1  0  0  0  0
 14 16  1  0  0  0  0
 14 20  1  0  0  0  0
 16 17  1  0  0  0  0
 16 18  1  0  0  0  0
 16 19  1  0  0  0  0
 20 21  1  0  0  0  0
 20 22  1  0  0  0  0
 20 23  1  0  0  0  0
 24 25  2  0  0  0  0
 24 26  1  0  0  0  0
 26 27  1  0  0  0  0
 26 28  1  0  0  0  0
 28 29  1  0  0  0  0
 28 30  1  0  0  0  0
 28 31  1  0  0  0  0
M  END
$$$$

  -OEChem-04042216013D

 31 30  0     1  0  0  0  0  0999 V2000
   -2.6527   -4.5054    0.3196 H   0  0  0  0  0  0  0  0  0  0  0  0
   -2.6800   -3.5299   -0.1745 C   0  0  0  0  0  0  0  0  0  0  0  0
   -3.5125   -2.9523    0.2342 H   0  0  0  0  0  0  0  0  0  0  0  0
   -2.8404   -3.6822   -1.2445 H   0  0  0  0  0  0  0  0  0  0  0  0
   -1.3738   -2.7933    0.0539 C   0  0  0  0  0  0  0  0  0  0  0  0
   -0.4972   -3.3079    0.7240 O   0  0  0  0  0  0  0  0  0  0  0  0
   -1.1930   -1.5406   -0.4985 N   0  0  0  0  0  0  0  0  0  0  0  0
   -1.9234   -1.2078   -1.1202 H   0  0  0  0  0  0  0  0  0  0  0  0
    0.0660   -0.7775   -0.4524 C   0  0  1  0  0  0  0  0  0  0  0  0
    0.8446   -1.4118   -0.8912 H   0  0  0  0  0  0  0  0  0  0  0  0
    0.0236    0.5394   -1.2801 C   0  0  0  0  0  0  0  0  0  0  0  0
    0.5422    1.3151   -0.7046 H   0  0  0  0  0  0  0  0  0  0  0  0
    0.6311    0.3700   -2.1752 H   0  0  0  0  0  0  0  0  0  0  0  0
   -1.3304    1.1336   -1.7614 C   0  0  0  0  0  0  0  0  0  0  0  0
   -1.6875    0.5223   -2.5970 H   0  0  0  0  0  0  0  0  0  0  0  0
   -2.4574    1.1749   -0.7104 C   0  0  0  0  0  0  0  0  0  0  0  0
   -2.0683    1.5279    0.2493 H   0  0  0  0  0  0  0  0  0  0  0  0
   -3.2463    1.8628   -1.0306 H   0  0  0  0  0  0  0  0  0  0  0  0
   -2.9294    0.2022   -0.5666 H   0  0  0  0  0  0  0  0  0  0  0  0
   -1.0816    2.5519   -2.2909 C   0  0  0  0  0  0  0  0  0  0  0  0
   -0.2997    2.5427   -3.0571 H   0  0  0  0  0  0  0  0  0  0  0  0
   -1.9929    2.9593   -2.7397 H   0  0  0  0  0  0  0  0  0  0  0  0
   -0.7666    3.2174   -1.4805 H   0  0  0  0  0  0  0  0  0  0  0  0
    0.5428   -0.4705    0.9870 C   0  0  0  0  0  0  0  0  0  0  0  0
    1.7414   -0.4000    1.2264 O   0  0  0  0  0  0  0  0  0  0  0  0
   -0.3583   -0.0174    1.9337 N   0  0  0  0  0  0  0  0  0  0  0  0
   -1.3395   -0.1627    1.7213 H   0  0  0  0  0  0  0  0  0  0  0  0
    0.0251    0.2995    3.3031 C   0  0  0  0  0  0  0  0  0  0  0  0
    0.7868    1.0860    3.3166 H   0  0  0  0  0  0  0  0  0  0  0  0
   -0.8433    0.6528    3.8669 H   0  0  0  0  0  0  0  0  0  0  0  0
    0.4267   -0.5887    3.8020 H   0  0  0  0  0  0  0  0  0  0  0  0
  1  2  1  0  0  0  0
  2  3  1  0  0  0  0
  2  4  1  0  0  0  0
  2  5  1  0  0  0  0
  5  6  2  0  0  0  0
  5  7  1  0  0  0  0
  7  8  1  0  0  0  0
  7  9  1  0  0  0  0
  9 10  1  0  0  0  0
  9 11  1  0  0  0  0
  9 24  1  0  0  0  0
 11 12  1  0  0  0  0
 11 13  1  0  0  0  0
 11 14  1  0  0  0  0
 14 15  1  0  0  0  0
 14 16  1  0  0  0  0
 14 20  1  0  0  0  0
 16 17  1  0  0  0  0
 16 18  1  0  0  0  0
 16 19  1  0  0  0  0
 20 21  1  0  0  0  0
 20 22  1  0  0  0  0
 20 23  1  0  0  0  0
 24 25  2  0  0  0  0
 24 26  1  0  0  0  0
 26 27  1  0  0  0  0
 26 28  1  0  0  0  0
 28 29  1  0  0  0  0
 28 30  1  0  0  0  0
 28 31  1  0  0  0  0
M  END
$$$$

  -OEChem-04042216013D

 31 30  0     1  0  0  0  0  0999 V2000
   -2.7305   -4.4364    0.2911 H   0  0  0  0  0  0  0  0  0  0  0  0
   -2.7352   -3.4587   -0.1994 C   0  0  0  0  0  0  0  0  0  0  0  0
   -3.5474   -2.8595    0.2189 H   0  0  0  0  0  0  0  0  0  0  0  0
   -2.9094   -3.6031   -1.2684 H   0  0  0  0  0  0  0  0  0  0  0  0
   -1.4070   -2.7597    0.0202 C   0  0  0  0  0  0  0  0  0  0  0  0
   -0.5430   -3.2963    0.6893 O   0  0  0  0  0  0  0  0  0  0  0  0
   -1.1927   -1.5130   -0.5334 N   0  0  0  0  0  0  0  0  0  0  0  0
   -1.9257   -1.1449   -1.1316 H   0  0  0  0  0  0  0  0  0  0  0  0
    0.0818   -0.7721   -0.4647 C   0  0  1  0  0  0  0  0  0  0  0  0
    0.8580   -1.4181   -0.8902 H   0  0  0  0  0  0  0  0  0  0  0  0
    0.0629    0.5407   -1.2954 C   0  0  0  0  0  0  0  0  0  0  0  0
    0.5807    1.3271   -0.7340 H   0  0  0  0  0  0  0  0  0  0  0  0
    0.6651    0.3555   -2.1911 H   0  0  0  0  0  0  0  0  0  0  0  0
   -1.3050    1.0944   -1.7657 C   0  0  0  0  0  0  0  0  0  0  0  0
   -1.7853    0.3524   -2.4120 H   0  0  0  0  0  0  0  0  0  0  0  0
   -2.2581    1.4261   -0.6028 C   0  0  0  0  0  0  0  0  0  0  0  0
   -1.7744    2.1157    0.0967 H   0  0  0  0  0  0  0  0  0  0  0  0
   -3.1656    1.9044   -0.9846 H   0  0  0  0  0  0  0  0  0  0  0  0
   -2.5634    0.5358   -0.0507 H   0  0  0  0  0  0  0  0  0  0  0  0
   -1.0720    2.3624   -2.5952 C   0  0  0  0  0  0  0  0  0  0  0  0
   -0.4204    2.1476   -3.4480 H   0  0  0  0  0  0  0  0  0  0  0  0
   -2.0216    2.7475   -2.9799 H   0  0  0  0  0  0  0  0  0  0  0  0
   -0.6020    3.1416   -1.9865 H   0  0  0  0  0  0  0  0  0  0  0  0
    0.5400   -0.4655    0.9803 C   0  0  0  0  0  0  0  0  0  0  0  0
    1.7352   -0.4180    1.2408 O   0  0  0  0  0  0  0  0  0  0  0  0
   -0.3687    0.0103    1.9084 N   0  0  0  0  0  0  0  0  0  0  0  0
   -1.3488   -0.1107    1.6771 H   0  0  0  0  0  0  0  0  0  0  0  0
   -0.0042    0.3264    3.2830 C   0  0  0  0  0  0  0  0  0  0  0  0
    0.7677    1.1027    3.3068 H   0  0  0  0  0  0  0  0  0  0  0  0
   -0.8776    0.6924    3.8308 H   0  0  0  0  0  0  0  0  0  0  0  0
    0.3772   -0.5658    3.7907 H   0  0  0  0  0  0  0  0  0  0  0  0
  1  2  1  0  0  0  0
  2  3  1  0  0  0  0
  2  4  1  0  0  0  0
  2  5  1  0  0  0  0
  5  6  2  0  0  0  0
  5  7  1  0  0  0  0
  7  8  1  0  0  0  0
  7  9  1  0  0  0  0
  9 10  1  0  0  0  0
  9 11  1  0  0  0  0
  9 24  1  0  0  0  0
 11 12  1  0  0  0  0
 11 13  1  0  0  0  0
 11 14  1  0  0  0  0
 14 15  1  0  0  0  0
 14 16  1  0  0  0  0
 14 20  1  0  0  0  0
 16 17  1  0  0  0  0
 16 18  1  0  0  0  0
 16 19  1  0  0  0  0
 20 21  1  0  0  0  0
 20 22  1  0  0  0  0
 20 23  1  0  0  0  0
 24 25  2  0  0  0  0
 24 26  1  0  0  0  0
 26 27  1  0  0  0  0
 26 28  1  0  0  0  0
 28 29  1  0  0  0  0
 28 30  1  0  0  0  0
 28 31  1  0  0  0  0
M  END
$$$$

  -OEChem-04042216013D

 31 30  0     1  0  0  0  0  0999 V2000
   -2.7517   -4.4302    0.2750 H   0  0  0  0  0  0  0  0  0  0  0  0
   -2.7558   -3.4497   -0.2099 C   0  0  0  0  0  0  0  0  0  0  0  0
   -3.5697   -2.8534    0.2093 H   0  0  0  0  0  0  0  0  0  0  0  0
   -2.9270   -3.5891   -1.2800 H   0  0  0  0  0  0  0  0  0  0  0  0
   -1.4289   -2.7502    0.0168 C   0  0  0  0  0  0  0  0  0  0  0  0
   -0.5664   -3.2883    0.6866 O   0  0  0  0  0  0  0  0  0  0  0  0
   -1.2117   -1.5033   -0.5356 N   0  0  0  0  0  0  0  0  0  0  0  0
   -1.9460   -1.1318   -1.1293 H   0  0  0  0  0  0  0  0  0  0  0  0
    0.0650   -0.7650   -0.4605 C   0  0  1  0  0  0  0  0  0  0  0  0
    0.8383   -1.4200   -0.8778 H   0  0  0  0  0  0  0  0  0  0  0  0
    0.0668    0.5398   -1.3039 C   0  0  0  0  0  0  0  0  0  0  0  0
    0.5875    1.3350   -0.7577 H   0  0  0  0  0  0  0  0  0  0  0  0
    0.6724    0.3307   -2.1919 H   0  0  0  0  0  0  0  0  0  0  0  0
   -1.3040    1.0713   -1.7881 C   0  0  0  0  0  0  0  0  0  0  0  0
   -1.8970    0.2673   -2.2338 H   0  0  0  0  0  0  0  0  0  0  0  0
   -2.0824    1.7214   -0.6360 C   0  0  0  0  0  0  0  0  0  0  0  0
   -1.4944    2.5205   -0.1729 H   0  0  0  0  0  0  0  0  0  0  0  0
   -3.0201    2.1499   -1.0034 H   0  0  0  0  0  0  0  0  0  0  0  0
   -2.3271    0.9822    0.1310 H   0  0  0  0  0  0  0  0  0  0  0  0
   -1.0732    2.1287   -2.8753 C   0  0  0  0  0  0  0  0  0  0  0  0
   -0.5513    1.6899   -3.7316 H   0  0  0  0  0  0  0  0  0  0  0  0
   -2.0285    2.5301   -3.2281 H   0  0  0  0  0  0  0  0  0  0  0  0
   -0.4702    2.9569   -2.4891 H   0  0  0  0  0  0  0  0  0  0  0  0
    0.5254   -0.4563    0.9834 C   0  0  0  0  0  0  0  0  0  0  0  0
    1.7218   -0.4056    1.2381 O   0  0  0  0  0  0  0  0  0  0  0  0
   -0.3777    0.0239    1.9148 N   0  0  0  0  0  0  0  0  0  0  0  0
   -1.3592   -0.1033    1.6934 H   0  0  0  0  0  0  0  0  0  0  0  0
   -0.0036    0.3528    3.2842 C   0  0  0  0  0  0  0  0  0  0  0  0
    0.7610    1.1366    3.2958 H   0  0  0  0  0  0  0  0  0  0  0  0
   -0.8752    0.7145    3.8378 H   0  0  0  0  0  0  0  0  0  0  0  0
    0.3905   -0.5321    3.7950 H   0  0  0  0  0  0  0  0  0  0  0  0
  1  2  1  0  0  0  0
  2  3  1  0  0  0  0
  2  4  1  0  0  0  0
  2  5  1  0  0  0  0
  5  6  2  0  0  0  0
  5  7  1  0  0  0  0
  7  8  1  0  0  0  0
  7  9  1  0  0  0  0
  9 10  1  0  0  0  0
  9 11  1  0  0  0  0
  9 24  1  0  0  0  0
 11 12  1  0  0  0  0
 11 13  1  0  0  0  0
 11 14  1  0  0  0  0
 14 15  1  0  0  0  0
 14 16  1  0  0  0  0
 14 20  1  0  0  0  0
 16 17  1  0  0  0  0
 16 18  1  0  0  0  0
 16 19  1  0  0  0  0
 20 21  1  0  0  0  0
 20 22  1  0  0  0  0
 20 23  1  0  0  0  0
 24 25  2  0  0  0  0
 24 26  1  0  0  0  0
 26 27  1  0  0  0  0
 26 28  1  0  0  0  0
 28 29  1  0  0  0  0
 28 30  1  0  0  0  0
 28 31  1  0  0  0  0
M  END
$$$$

  -OEChem-04042216013D

 31 30  0     1  0  0  0  0  0999 V2000
   -2.7346   -4.4536    0.3080 H   0  0  0  0  0  0  0  0  0  0  0  0
   -2.7483   -3.4767   -0.1838 C   0  0  0  0  0  0  0  0  0  0  0  0
   -3.5667   -2.8848    0.2330 H   0  0  0  0  0  0  0  0  0  0  0  0
   -2.9202   -3.6248   -1.2527 H   0  0  0  0  0  0  0  0  0  0  0  0
   -1.4273   -2.7637    0.0361 C   0  0  0  0  0  0  0  0  0  0  0  0
   -0.5625   -3.2865    0.7150 O   0  0  0  0  0  0  0  0  0  0  0  0
   -1.2209   -1.5207   -0.5294 N   0  0  0  0  0  0  0  0  0  0  0  0
   -1.9517   -1.1735   -1.1411 H   0  0  0  0  0  0  0  0  0  0  0  0
    0.0525   -0.7753   -0.4691 C   0  0  1  0  0  0  0  0  0  0  0  0
    0.8279   -1.4294   -0.8842 H   0  0  0  0  0  0  0  0  0  0  0  0
    0.0553    0.5315   -1.3119 C   0  0  0  0  0  0  0  0  0  0  0  0
    0.5975    1.3210   -0.7785 H   0  0  0  0  0  0  0  0  0  0  0  0
    0.6542    0.3064   -2.2006 H   0  0  0  0  0  0  0  0  0  0  0  0
   -1.3122    1.0820   -1.7979 C   0  0  0  0  0  0  0  0  0  0  0  0
   -2.0256    0.2838   -2.0128 H   0  0  0  0  0  0  0  0  0  0  0  0
   -1.8988    2.0433   -0.7569 C   0  0  0  0  0  0  0  0  0  0  0  0
   -1.2124    2.8733   -0.5600 H   0  0  0  0  0  0  0  0  0  0  0  0
   -2.8485    2.4568   -1.1107 H   0  0  0  0  0  0  0  0  0  0  0  0
   -2.0858    1.5172    0.1833 H   0  0  0  0  0  0  0  0  0  0  0  0
   -1.1072    1.8636   -3.1026 C   0  0  0  0  0  0  0  0  0  0  0  0
   -0.7369    1.2008   -3.8912 H   0  0  0  0  0  0  0  0  0  0  0  0
   -2.0527    2.2991   -3.4412 H   0  0  0  0  0  0  0  0  0  0  0  0
   -0.3833    2.6727   -2.9600 H   0  0  0  0  0  0  0  0  0  0  0  0
    0.5110   -0.4564    0.9732 C   0  0  0  0  0  0  0  0  0  0  0  0
    1.7067   -0.3978    1.2293 O   0  0  0  0  0  0  0  0  0  0  0  0
   -0.3970    0.0238    1.8999 N   0  0  0  0  0  0  0  0  0  0  0  0
   -1.3767   -0.1186    1.6793 H   0  0  0  0  0  0  0  0  0  0  0  0
   -0.0270    0.3596    3.2688 C   0  0  0  0  0  0  0  0  0  0  0  0
    0.7367    1.1443    3.2789 H   0  0  0  0  0  0  0  0  0  0  0  0
   -0.9004    0.7230    3.8182 H   0  0  0  0  0  0  0  0  0  0  0  0
    0.3670   -0.5223    3.7850 H   0  0  0  0  0  0  0  0  0  0  0  0
  1  2  1  0  0  0  0
  2  3  1  0  0  0  0
  2  4  1  0  0  0  0
  2  5  1  0  0  0  0
  5  6  2  0  0  0  0
  5  7  1  0  0  0  0
  7  8  1  0  0  0  0
  7  9  1  0  0  0  0
  9 10  1  0  0  0  0
  9 11  1  0  0  0  0
  9 24  1  0  0  0  0
 11 12  1  0  0  0  0
 11 13  1  0  0  0  0
 11 14  1  0  0  0  0
 14 15  1  0  0  0  0
 14 16  1  0  0  0  0
 14 20  1  0  0  0  0
 16 17  1  0  0  0  0
 16 18  1  0  0  0  0
 16 19  1  0  0  0  0
 20 21  1  0  0  0  0
 20 22  1  0  0  0  0
 20 23  1  0  0  0  0
 24 25  2  0  0  0  0
 24 26  1  0  0  0  0
 26 27  1  0  0  0  0
 26 28  1  0  0  0  0
 28 29  1  0  0  0  0
 28 30  1  0  0  0  0
 28 31  1  0  0  0  0
M  END
$$$$

  -OEChem-04042216013D

 31 30  0     1  0  0  0  0  0999 V2000
   -2.7240   -4.4740    0.3233 H   0  0  0  0  0  0  0  0  0  0  0  0
   -2.7370   -3.5058   -0.1856 C   0  0  0  0  0  0  0  0  0  0  0  0
   -3.5765   -2.9193    0.1952 H   0  0  0  0  0  0  0  0  0  0  0  0
   -2.8733   -3.6742   -1.2565 H   0  0  0  0  0  0  0  0  0  0  0  0
   -1.4340   -2.7694    0.0624 C   0  0  0  0  0  0  0  0  0  0  0  0
   -0.5824   -3.2701    0.7738 O   0  0  0  0  0  0  0  0  0  0  0  0
   -1.2273   -1.5352   -0.5227 N   0  0  0  0  0  0  0  0  0  0  0  0
   -1.9287   -1.2338   -1.1909 H   0  0  0  0  0  0  0  0  0  0  0  0
    0.0484   -0.7922   -0.4758 C   0  0  1  0  0  0  0  0  0  0  0  0
    0.8238   -1.4479   -0.8881 H   0  0  0  0  0  0  0  0  0  0  0  0
    0.0514    0.5202   -1.3119 C   0  0  0  0  0  0  0  0  0  0  0  0
    0.6108    1.2983   -0.7794 H   0  0  0  0  0  0  0  0  0  0  0  0
    0.6461    0.2950   -2.2035 H   0  0  0  0  0  0  0  0  0  0  0  0
   -1.3143    1.0964   -1.7875 C   0  0  0  0  0  0  0  0  0  0  0  0
   -2.1239    0.3688   -1.7256 H   0  0  0  0  0  0  0  0  0  0  0  0
   -1.6875    2.3169   -0.9372 C   0  0  0  0  0  0  0  0  0  0  0  0
   -0.9315    3.1036   -1.0301 H   0  0  0  0  0  0  0  0  0  0  0  0
   -2.6520    2.7242   -1.2563 H   0  0  0  0  0  0  0  0  0  0  0  0
   -1.7669    2.0344    0.1171 H   0  0  0  0  0  0  0  0  0  0  0  0
   -1.2145    1.5391   -3.2533 C   0  0  0  0  0  0  0  0  0  0  0  0
   -0.9931    0.6818   -3.8967 H   0  0  0  0  0  0  0  0  0  0  0  0
   -2.1603    1.9788   -3.5853 H   0  0  0  0  0  0  0  0  0  0  0  0
   -0.4218    2.2839   -3.3797 H   0  0  0  0  0  0  0  0  0  0  0  0
    0.5016   -0.4583    0.9650 C   0  0  0  0  0  0  0  0  0  0  0  0
    1.6960   -0.4018    1.2277 O   0  0  0  0  0  0  0  0  0  0  0  0
   -0.4119    0.0347    1.8796 N   0  0  0  0  0  0  0  0  0  0  0  0
   -1.3907   -0.1011    1.6504 H   0  0  0  0  0  0  0  0  0  0  0  0
   -0.0515    0.3812    3.2482 C   0  0  0  0  0  0  0  0  0  0  0  0
    0.7204    1.1581    3.2571 H   0  0  0  0  0  0  0  0  0  0  0  0
   -0.9260    0.7596    3.7857 H   0  0  0  0  0  0  0  0  0  0  0  0
    0.3285   -0.4991    3.7772 H   0  0  0  0  0  0  0  0  0  0  0  0
  1  2  1  0  0  0  0
  2  3  1  0  0  0  0
  2  4  1  0  0  0  0
  2  5  1  0  0  0  0
  5  6  2  0  0  0  0
  5  7  1  0  0  0  0
  7  8  1  0  0  0  0
  7  9  1  0  0  0  0
  9 10  1  0  0  0  0
  9 11  1  0  0  0  0
  9 24  1  0  0  0  0
 11 12  1  0  0  0  0
 11 13  1  0  0  0  0
 11 14  1  0  0  0  0
 14 15  1  0  0  0  0
 14 16  1  0  0  0  0
 14 20  1  0  0  0  0
 16 17  1  0  0  0  0
 16 18  1  0  0  0  0
 16 19  1  0  0  0  0
 20 21  1  0  0  0  0
 20 22  1  0  0  0  0
 20 23  1  0  0  0  0
 24 25  2  0  0  0  0
 24 26  1  0  0  0  0
 26 27  1  0  0  0  0
 26 28  1  0  0  0  0
 28 29  1  0  0  0  0
 28 30  1  0  0  0  0
 28 31  1  0  0  0  0
M  END
$$$$

  -OEChem-04042216013D

 31 30  0     1  0  0  0  0  0999 V2000
   -2.7265   -4.4677    0.3021 H   0  0  0  0  0  0  0  0  0  0  0  0
   -2.7334   -3.4984   -0.2047 C   0  0  0  0  0  0  0  0  0  0  0  0
   -3.5782   -2.9136    0.1665 H   0  0  0  0  0  0  0  0  0  0  0  0
   -2.8560   -3.6646   -1.2775 H   0  0  0  0  0  0  0  0  0  0  0  0
   -1.4347   -2.7607    0.0604 C   0  0  0  0  0  0  0  0  0  0  0  0
   -0.5932   -3.2591    0.7854 O   0  0  0  0  0  0  0  0  0  0  0  0
   -1.2209   -1.5274   -0.5245 N   0  0  0  0  0  0  0  0  0  0  0  0
   -1.9085   -1.2321   -1.2103 H   0  0  0  0  0  0  0  0  0  0  0  0
    0.0573   -0.7891   -0.4720 C   0  0  1  0  0  0  0  0  0  0  0  0
    0.8329   -1.4448   -0.8835 H   0  0  0  0  0  0  0  0  0  0  0  0
    0.0611    0.5246   -1.3070 C   0  0  0  0  0  0  0  0  0  0  0  0
    0.6073    1.2977   -0.7539 H   0  0  0  0  0  0  0  0  0  0  0  0
    0.6716    0.3227   -2.1935 H   0  0  0  0  0  0  0  0  0  0  0  0
   -1.3064    1.1017   -1.7816 C   0  0  0  0  0  0  0  0  0  0  0  0
   -2.1487    0.5050   -1.4294 H   0  0  0  0  0  0  0  0  0  0  0  0
   -1.5040    2.5111   -1.2111 C   0  0  0  0  0  0  0  0  0  0  0  0
   -0.7108    3.1834   -1.5543 H   0  0  0  0  0  0  0  0  0  0  0  0
   -2.4676    2.9207   -1.5299 H   0  0  0  0  0  0  0  0  0  0  0  0
   -1.4882    2.4835   -0.1168 H   0  0  0  0  0  0  0  0  0  0  0  0
   -1.3723    1.1496   -3.3131 C   0  0  0  0  0  0  0  0  0  0  0  0
   -1.2669    0.1434   -3.7308 H   0  0  0  0  0  0  0  0  0  0  0  0
   -2.3331    1.5584   -3.6415 H   0  0  0  0  0  0  0  0  0  0  0  0
   -0.5721    1.7798   -3.7150 H   0  0  0  0  0  0  0  0  0  0  0  0
    0.5044   -0.4565    0.9707 C   0  0  0  0  0  0  0  0  0  0  0  0
    1.6979   -0.4014    1.2381 O   0  0  0  0  0  0  0  0  0  0  0  0
   -0.4131    0.0399    1.8794 N   0  0  0  0  0  0  0  0  0  0  0  0
   -1.3906   -0.1020    1.6481 H   0  0  0  0  0  0  0  0  0  0  0  0
   -0.0587    0.3853    3.2496 C   0  0  0  0  0  0  0  0  0  0  0  0
    0.7195    1.1555    3.2620 H   0  0  0  0  0  0  0  0  0  0  0  0
   -0.9333    0.7720    3.7809 H   0  0  0  0  0  0  0  0  0  0  0  0
    0.3101   -0.4977    3.7821 H   0  0  0  0  0  0  0  0  0  0  0  0
  1  2  1  0  0  0  0
  2  3  1  0  0  0  0
  2  4  1  0  0  0  0
  2  5  1  0  0  0  0
  5  6  2  0  0  0  0
  5  7  1  0  0  0  0
  7  8  1  0  0  0  0
  7  9  1  0  0  0  0
  9 10  1  0  0  0  0
  9 11  1  0  0  0  0
  9 24  1  0  0  0  0
 11 12  1  0  0  0  0
 11 13  1  0  0  0  0
 11 14  1  0  0  0  0
 14 15  1  0  0  0  0
 14 16  1  0  0  0  0
 14 20  1  0  0  0  0
 16 17  1  0  0  0  0
 16 18  1  0  0  0  0
 16 19  1  0  0  0  0
 20 21  1  0  0  0  0
 20 22  1  0  0  0  0
 20 23  1  0  0  0  0
 24 25  2  0  0  0  0
 24 26  1  0  0  0  0
 26 27  1  0  0  0  0
 26 28  1  0  0  0  0
 28 29  1  0  0  0  0
 28 30  1  0  0  0  0
 28 31  1  0  0  0  0
M  END
$$$$

  -OEChem-04042216013D

 31 30  0     1  0  0  0  0  0999 V2000
   -2.7499   -4.4311    0.2619 H   0  0  0  0  0  0  0  0  0  0  0  0
   -2.7424   -3.4598   -0.2411 C   0  0  0  0  0  0  0  0  0  0  0  0
   -3.5829   -2.8664    0.1265 H   0  0  0  0  0  0  0  0  0  0  0  0
   -2.8598   -3.6204   -1.3156 H   0  0  0  0  0  0  0  0  0  0  0  0
   -1.4369   -2.7393    0.0374 C   0  0  0  0  0  0  0  0  0  0  0  0
   -0.6055   -3.2522    0.7638 O   0  0  0  0  0  0  0  0  0  0  0  0
   -1.2049   -1.5047   -0.5366 N   0  0  0  0  0  0  0  0  0  0  0  0
   -1.8884   -1.1896   -1.2183 H   0  0  0  0  0  0  0  0  0  0  0  0
    0.0784   -0.7769   -0.4669 C   0  0  1  0  0  0  0  0  0  0  0  0
    0.8531   -1.4342   -0.8773 H   0  0  0  0  0  0  0  0  0  0  0  0
    0.0822    0.5337   -1.3047 C   0  0  0  0  0  0  0  0  0  0  0  0
    0.5999    1.3102   -0.7298 H   0  0  0  0  0  0  0  0  0  0  0  0
    0.7066    0.3601   -2.1875 H   0  0  0  0  0  0  0  0  0  0  0  0
   -1.2935    1.0844   -1.7749 C   0  0  0  0  0  0  0  0  0  0  0  0
   -2.1049    0.6648   -1.1756 H   0  0  0  0  0  0  0  0  0  0  0  0
   -1.3654    2.5979   -1.5437 C   0  0  0  0  0  0  0  0  0  0  0  0
   -0.5773    3.1110   -2.1041 H   0  0  0  0  0  0  0  0  0  0  0  0
   -2.3341    2.9881   -1.8710 H   0  0  0  0  0  0  0  0  0  0  0  0
   -1.2446    2.8285   -0.4804 H   0  0  0  0  0  0  0  0  0  0  0  0
   -1.5484    0.7445   -3.2473 C   0  0  0  0  0  0  0  0  0  0  0  0
   -1.5113   -0.3385   -3.4004 H   0  0  0  0  0  0  0  0  0  0  0  0
   -2.5356    1.1029   -3.5556 H   0  0  0  0  0  0  0  0  0  0  0  0
   -0.7947    1.2129   -3.8886 H   0  0  0  0  0  0  0  0  0  0  0  0
    0.5190   -0.4536    0.9802 C   0  0  0  0  0  0  0  0  0  0  0  0
    1.7109   -0.4096    1.2561 O   0  0  0  0  0  0  0  0  0  0  0  0
   -0.4006    0.0466    1.8846 N   0  0  0  0  0  0  0  0  0  0  0  0
   -1.3776   -0.0846    1.6452 H   0  0  0  0  0  0  0  0  0  0  0  0
   -0.0536    0.3870    3.2583 C   0  0  0  0  0  0  0  0  0  0  0  0
    0.7258    1.1561    3.2781 H   0  0  0  0  0  0  0  0  0  0  0  0
   -0.9312    0.7735    3.7851 H   0  0  0  0  0  0  0  0  0  0  0  0
    0.3105   -0.4982    3.7903 H   0  0  0  0  0  0  0  0  0  0  0  0
  1  2  1  0  0  0  0
  2  3  1  0  0  0  0
  2  4  1  0  0  0  0
  2  5  1  0  0  0  0
  5  6  2  0  0  0  0
  5  7  1  0  0  0  0
  7  8  1  0  0  0  0
  7  9  1  0  0  0  0
  9 10  1  0  0  0  0
  9 11  1  0  0  0  0
  9 24  1  0  0  0  0
 11 12  1  0  0  0  0
 11 13  1  0  0  0  0
 11 14  1  0  0  0  0
 14 15  1  0  0  0  0
 14 16  1  0  0  0  0
 14 20  1  0  0  0  0
 16 17  1  0  0  0  0
 16 18  1  0  0  0  0
 16 19  1  0  0  0  0
 20 21  1  0  0  0  0
 20 22  1  0  0  0  0
 20 23  1  0  0  0  0
 24 25  2  0  0  0  0
 24 26  1  0  0  0  0
 26 27  1  0  0  0  0
 26 28  1  0  0  0  0
 28 29  1  0  0  0  0
 28 30  1  0  0  0  0
 28 31  1  0  0  0  0
M  END
$$$$

  -OEChem-04042216013D

 31 30  0     1  0  0  0  0  0999 V2000
   -2.7554   -4.4207    0.2682 H   0  0  0  0  0  0  0  0  0  0  0  0
   -2.7472   -3.4474   -0.2308 C   0  0  0  0  0  0  0  0  0  0  0  0
   -3.5793   -2.8501    0.1495 H   0  0  0  0  0  0  0  0  0  0  0  0
   -2.8781   -3.6026   -1.3045 H   0  0  0  0  0  0  0  0  0  0  0  0
   -1.4332   -2.7370    0.0342 C   0  0  0  0  0  0  0  0  0  0  0  0
   -0.5957   -3.2584    0.7475 O   0  0  0  0  0  0  0  0  0  0  0  0
   -1.1995   -1.5014   -0.5366 N   0  0  0  0  0  0  0  0  0  0  0  0
   -1.8982   -1.1636   -1.1914 H   0  0  0  0  0  0  0  0  0  0  0  0
    0.0830   -0.7728   -0.4633 C   0  0  1  0  0  0  0  0  0  0  0  0
    0.8588   -1.4299   -0.8727 H   0  0  0  0  0  0  0  0  0  0  0  0
    0.0841    0.5330   -1.3072 C   0  0  0  0  0  0  0  0  0  0  0  0
    0.5828    1.3180   -0.7275 H   0  0  0  0  0  0  0  0  0  0  0  0
    0.7116    0.3686   -2.1893 H   0  0  0  0  0  0  0  0  0  0  0  0
   -1.2966    1.0582   -1.7757 C   0  0  0  0  0  0  0  0  0  0  0  0
   -2.0575    0.8276   -1.0235 H   0  0  0  0  0  0  0  0  0  0  0  0
   -1.2588    2.5856   -1.9021 C   0  0  0  0  0  0  0  0  0  0  0  0
   -0.4934    2.8941   -2.6216 H   0  0  0  0  0  0  0  0  0  0  0  0
   -2.2279    2.9650   -2.2411 H   0  0  0  0  0  0  0  0  0  0  0  0
   -1.0322    3.0444   -0.9344 H   0  0  0  0  0  0  0  0  0  0  0  0
   -1.7028    0.4359   -3.1197 C   0  0  0  0  0  0  0  0  0  0  0  0
   -1.7270   -0.6553   -3.0564 H   0  0  0  0  0  0  0  0  0  0  0  0
   -2.6978    0.7844   -3.4140 H   0  0  0  0  0  0  0  0  0  0  0  0
   -0.9929    0.7179   -3.9039 H   0  0  0  0  0  0  0  0  0  0  0  0
    0.5231   -0.4501    0.9837 C   0  0  0  0  0  0  0  0  0  0  0  0
    1.7149   -0.4036    1.2593 O   0  0  0  0  0  0  0  0  0  0  0  0
   -0.3965    0.0490    1.8887 N   0  0  0  0  0  0  0  0  0  0  0  0
   -1.3737   -0.0826    1.6507 H   0  0  0  0  0  0  0  0  0  0  0  0
   -0.0477    0.3889    3.2620 C   0  0  0  0  0  0  0  0  0  0  0  0
    0.7311    1.1586    3.2808 H   0  0  0  0  0  0  0  0  0  0  0  0
   -0.9245    0.7741    3.7910 H   0  0  0  0  0  0  0  0  0  0  0  0
    0.3187   -0.4960    3.7931 H   0  0  0  0  0  0  0  0  0  0  0  0
  1  2  1  0  0  0  0
  2  3  1  0  0  0  0
  2  4  1  0  0  0  0
  2  5  1  0  0  0  0
  5  6  2  0  0  0  0
  5  7  1  0  0  0  0
  7  8  1  0  0  0  0
  7  9  1  0  0  0  0
  9 10  1  0  0  0  0
  9 11  1  0  0  0  0
  9 24  1  0  0  0  0
 11 12  1  0  0  0  0
 11 13  1  0  0  0  0
 11 14  1  0  0  0  0
 14 15  1  0  0  0  0
 14 16  1  0  0  0  0
 14 20  1  0  0  0  0
 16 17  1  0  0  0  0
 16 18  1  0  0  0  0
 16 19  1  0  0  0  0
 20 21  1  0  0  0  0
 20 22  1  0  0  0  0
 20 23  1  0  0  0  0
 24 25  2  0  0  0  0
 24 26  1  0  0  0  0
 26 27  1  0  0  0  0
 26 28  1  0  0  0  0
 28 29  1  0  0  0  0
 28 30  1  0  0  0  0
 28 31  1  0  0  0  0
M  END
$$$$

  -OEChem-04042216013D

 31 30  0     1  0  0  0  0  0999 V2000
   -2.7122   -4.4529    0.3658 H   0  0  0  0  0  0  0  0  0  0  0  0
   -2.7264   -3.4821   -0.1379 C   0  0  0  0  0  0  0  0  0  0  0  0
   -3.5364   -2.8803    0.2807 H   0  0  0  0  0  0  0  0  0  0  0  0
   -2.9113   -3.6420   -1.2028 H   0  0  0  0  0  0  0  0  0  0  0  0
   -1.3988   -2.7746    0.0566 C   0  0  0  0  0  0  0  0  0  0  0  0
   -0.5221   -3.3006    0.7175 O   0  0  0  0  0  0  0  0  0  0  0  0
   -1.1974   -1.5341   -0.5155 N   0  0  0  0  0  0  0  0  0  0  0  0
   -1.9499   -1.1633   -1.0865 H   0  0  0  0  0  0  0  0  0  0  0  0
    0.0671   -0.7781   -0.4584 C   0  0  1  0  0  0  0  0  0  0  0  0
    0.8498   -1.4250   -0.8705 H   0  0  0  0  0  0  0  0  0  0  0  0
    0.0527    0.5243   -1.3082 C   0  0  0  0  0  0  0  0  0  0  0  0
    0.5438    1.3176   -0.7327 H   0  0  0  0  0  0  0  0  0  0  0  0
    0.6814    0.3550   -2.1888 H   0  0  0  0  0  0  0  0  0  0  0  0
   -1.3215    1.0503   -1.7936 C   0  0  0  0  0  0  0  0  0  0  0  0
   -2.0429    1.0241   -0.9700 H   0  0  0  0  0  0  0  0  0  0  0  0
   -1.1557    2.5017   -2.2654 C   0  0  0  0  0  0  0  0  0  0  0  0
   -0.4272    2.5664   -3.0803 H   0  0  0  0  0  0  0  0  0  0  0  0
   -2.1109    2.9022   -2.6199 H   0  0  0  0  0  0  0  0  0  0  0  0
   -0.8097    3.1330   -1.4409 H   0  0  0  0  0  0  0  0  0  0  0  0
   -1.8620    0.2573   -3.0017 C   0  0  0  0  0  0  0  0  0  0  0  0
   -2.0298   -0.7954   -2.7702 H   0  0  0  0  0  0  0  0  0  0  0  0
   -2.8160    0.6801   -3.3327 H   0  0  0  0  0  0  0  0  0  0  0  0
   -1.1561    0.3078   -3.8372 H   0  0  0  0  0  0  0  0  0  0  0  0
    0.5139   -0.4479    0.9848 C   0  0  0  0  0  0  0  0  0  0  0  0
    1.7069   -0.3767    1.2500 O   0  0  0  0  0  0  0  0  0  0  0  0
   -0.4074    0.0287    1.9004 N   0  0  0  0  0  0  0  0  0  0  0  0
   -1.3842   -0.1191    1.6713 H   0  0  0  0  0  0  0  0  0  0  0  0
   -0.0519    0.3784    3.2696 C   0  0  0  0  0  0  0  0  0  0  0  0
    0.7112    1.1637    3.2793 H   0  0  0  0  0  0  0  0  0  0  0  0
   -0.9312    0.7470    3.8063 H   0  0  0  0  0  0  0  0  0  0  0  0
    0.3373   -0.4981    3.7984 H   0  0  0  0  0  0  0  0  0  0  0  0
  1  2  1  0  0  0  0
  2  3  1  0  0  0  0
  2  4  1  0  0  0  0
  2  5  1  0  0  0  0
  5  6  2  0  0  0  0
  5  7  1  0  0  0  0
  7  8  1  0  0  0  0
  7  9  1  0  0  0  0
  9 10  1  0  0  0  0
  9 11  1  0  0  0  0
  9 24  1  0  0  0  0
 11 12  1  0  0  0  0
 11 13  1  0  0  0  0
 11 14  1  0  0  0  0
 14 15  1  0  0  0  0
 14 16  1  0  0  0  0
 14 20  1  0  0  0  0
 16 17  1  0  0  0  0
 16 18  1  0  0  0  0
 16 19  1  0  0  0  0
 20 21  1  0  0  0  0
 20 22  1  0  0  0  0
 20 23  1  0  0  0  0
 24 25  2  0  0  0  0
 24 26  1  0  0  0  0
 26 27  1  0  0  0  0
 26 28  1  0  0  0  0
 28 29  1  0  0  0  0
 28 30  1  0  0  0  0
 28 31  1  0  0  0  0
M  END
$$$$

  -OEChem-04042216013D

 31 30  0     1  0  0  0  0  0999 V2000
   -2.5627   -4.5523    0.4094 H   0  0  0  0  0  0  0  0  0  0  0  0
   -2.6137   -3.5954   -0.1185 C   0  0  0  0  0  0  0  0  0  0  0  0
   -3.4711   -3.0319    0.2574 H   0  0  0  0  0  0  0  0  0  0  0  0
   -2.7513   -3.7901   -1.1848 H   0  0  0  0  0  0  0  0  0  0  0  0
   -1.3362   -2.8083    0.1053 C   0  0  0  0  0  0  0  0  0  0  0  0
   -0.4596   -3.2693    0.8131 O   0  0  0  0  0  0  0  0  0  0  0  0
   -1.1833   -1.5729   -0.4941 N   0  0  0  0  0  0  0  0  0  0  0  0
   -1.8939   -1.3145   -1.1697 H   0  0  0  0  0  0  0  0  0  0  0  0
    0.0647   -0.7906   -0.4880 C   0  0  1  0  0  0  0  0  0  0  0  0
    0.8535   -1.4159   -0.9215 H   0  0  0  0  0  0  0  0  0  0  0  0
   -0.0009    0.5252   -1.3137 C   0  0  0  0  0  0  0  0  0  0  0  0
    0.7466    1.2207   -0.9151 H   0  0  0  0  0  0  0  0  0  0  0  0
    0.3304    0.2684   -2.3253 H   0  0  0  0  0  0  0  0  0  0  0  0
   -1.3486    1.2860   -1.4621 C   0  0  0  0  0  0  0  0  0  0  0  0
   -1.6895    1.6073   -0.4721 H   0  0  0  0  0  0  0  0  0  0  0  0
   -1.0782    2.5312   -2.3212 C   0  0  0  0  0  0  0  0  0  0  0  0
   -0.7715    2.2468   -3.3331 H   0  0  0  0  0  0  0  0  0  0  0  0
   -1.9759    3.1534   -2.3916 H   0  0  0  0  0  0  0  0  0  0  0  0
   -0.2836    3.1384   -1.8758 H   0  0  0  0  0  0  0  0  0  0  0  0
   -2.4836    0.5063   -2.1546 C   0  0  0  0  0  0  0  0  0  0  0  0
   -3.2111    1.1927   -2.6000 H   0  0  0  0  0  0  0  0  0  0  0  0
   -3.0330   -0.1069   -1.4363 H   0  0  0  0  0  0  0  0  0  0  0  0
   -2.0856   -0.1322   -2.9497 H   0  0  0  0  0  0  0  0  0  0  0  0
    0.5374   -0.4349    0.9415 C   0  0  0  0  0  0  0  0  0  0  0  0
    1.7348   -0.3440    1.1803 O   0  0  0  0  0  0  0  0  0  0  0  0
   -0.3728    0.0323    1.8731 N   0  0  0  0  0  0  0  0  0  0  0  0
   -1.3499   -0.1456    1.6660 H   0  0  0  0  0  0  0  0  0  0  0  0
    0.0025    0.3804    3.2374 C   0  0  0  0  0  0  0  0  0  0  0  0
    0.7571    1.1739    3.2382 H   0  0  0  0  0  0  0  0  0  0  0  0
   -0.8713    0.7369    3.7907 H   0  0  0  0  0  0  0  0  0  0  0  0
    0.4100   -0.4941    3.7555 H   0  0  0  0  0  0  0  0  0  0  0  0
  1  2  1  0  0  0  0
  2  3  1  0  0  0  0
  2  4  1  0  0  0  0
  2  5  1  0  0  0  0
  5  6  2  0  0  0  0
  5  7  1  0  0  0  0
  7  8  1  0  0  0  0
  7  9  1  0  0  0  0
  9 10  1  0  0  0  0
  9 11  1  0  0  0  0
  9 24  1  0  0  0  0
 11 12  1  0  0  0  0
 11 13  1  0  0  0  0
 11 14  1  0  0  0  0
 14 15  1  0  0  0  0
 14 16  1  0  0  0  0
 14 20  1  0  0  0  0
 16 17  1  0  0  0  0
 16 18  1  0  0  0  0
 16 19  1  0  0  0  0
 20 21  1  0  0  0  0
 20 22  1  0  0  0  0
 20 23  1  0  0  0  0
 24 25  2  0  0  0  0
 24 26  1  0  0  0  0
 26 27  1  0  0  0  0
 26 28  1  0  0  0  0
 28 29  1  0  0  0  0
 28 30  1  0  0  0  0
 28 31  1  0  0  0  0
M  END
$$$$

  -OEChem-04042216013D

 31 30  0     1  0  0  0  0  0999 V2000
   -2.2841   -4.7035    0.2454 H   0  0  0  0  0  0  0  0  0  0  0  0
   -2.4066   -3.7301   -0.2382 C   0  0  0  0  0  0  0  0  0  0  0  0
   -3.2818   -3.2333    0.1873 H   0  0  0  0  0  0  0  0  0  0  0  0
   -2.5674   -3.8874   -1.3075 H   0  0  0  0  0  0  0  0  0  0  0  0
   -1.1692   -2.8800   -0.0201 C   0  0  0  0  0  0  0  0  0  0  0  0
   -0.2306   -3.3283    0.6124 O   0  0  0  0  0  0  0  0  0  0  0  0
   -1.1204   -1.6042   -0.5472 N   0  0  0  0  0  0  0  0  0  0  0  0
   -1.8871   -1.3420   -1.1574 H   0  0  0  0  0  0  0  0  0  0  0  0
    0.0708   -0.7385   -0.5379 C   0  0  1  0  0  0  0  0  0  0  0  0
    0.8811   -1.2873   -1.0316 H   0  0  0  0  0  0  0  0  0  0  0  0
   -0.0922    0.6220   -1.2778 C   0  0  0  0  0  0  0  0  0  0  0  0
    0.6434    1.3295   -0.8780 H   0  0  0  0  0  0  0  0  0  0  0  0
    0.2151    0.4161   -2.3085 H   0  0  0  0  0  0  0  0  0  0  0  0
   -1.4635    1.3583   -1.3703 C   0  0  0  0  0  0  0  0  0  0  0  0
   -1.6592    1.8428   -0.4075 H   0  0  0  0  0  0  0  0  0  0  0  0
   -1.3332    2.4362   -2.4585 C   0  0  0  0  0  0  0  0  0  0  0  0
   -1.1968    1.9816   -3.4452 H   0  0  0  0  0  0  0  0  0  0  0  0
   -2.2286    3.0653   -2.4874 H   0  0  0  0  0  0  0  0  0  0  0  0
   -0.4744    3.0830   -2.2527 H   0  0  0  0  0  0  0  0  0  0  0  0
   -2.6978    0.5192   -1.7443 C   0  0  0  0  0  0  0  0  0  0  0  0
   -3.5179    1.1648   -2.0749 H   0  0  0  0  0  0  0  0  0  0  0  0
   -2.4622   -0.1750   -2.5572 H   0  0  0  0  0  0  0  0  0  0  0  0
   -3.0662   -0.0378   -0.8790 H   0  0  0  0  0  0  0  0  0  0  0  0
    0.5726   -0.4355    0.8937 C   0  0  0  0  0  0  0  0  0  0  0  0
    1.7694   -0.2759    1.0973 O   0  0  0  0  0  0  0  0  0  0  0  0
   -0.3304   -0.0884    1.8830 N   0  0  0  0  0  0  0  0  0  0  0  0
   -1.3029   -0.3091    1.6972 H   0  0  0  0  0  0  0  0  0  0  0  0
    0.0728    0.2223    3.2484 C   0  0  0  0  0  0  0  0  0  0  0  0
    0.7763    1.0615    3.2599 H   0  0  0  0  0  0  0  0  0  0  0  0
   -0.8001    0.4981    3.8475 H   0  0  0  0  0  0  0  0  0  0  0  0
    0.5532   -0.6462    3.7110 H   0  0  0  0  0  0  0  0  0  0  0  0
  1  2  1  0  0  0  0
  2  3  1  0  0  0  0
  2  4  1  0  0  0  0
  2  5  1  0  0  0  0
  5  6  2  0  0  0  0
  5  7  1  0  0  0  0
  7  8  1  0  0  0  0
  7  9  1  0  0  0  0
  9 10  1  0  0  0  0
  9 11  1  0  0  0  0
  9 24  1  0  0  0  0
 11 12  1  0  0  0  0
 11 13  1  0  0  0  0
 11 14  1  0  0  0  0
 14 15  1  0  0  0  0
 14 16  1  0  0  0  0
 14 20  1  0  0  0  0
 16 17  1  0  0  0  0
 16 18  1  0  0  0  0
 16 19  1  0  0  0  0
 20 21  1  0  0  0  0
 20 22  1  0  0  0  0
 20 23  1  0  0  0  0
 24 25  2  0  0  0  0
 24 26  1  0  0  0  0
 26 27  1  0  0  0  0
 26 28  1  0  0  0  0
 28 29  1  0  0  0  0
 28 30  1  0  0  0  0
 28 31  1  0  0  0  0
M  END
$$$$

  -OEChem-04042216013D

 31 30  0     1  0  0  0  0  0999 V2000
   -2.4841   -4.6412    0.4287 H   0  0  0  0  0  0  0  0  0  0  0  0
   -2.5606   -3.6798   -0.0873 C   0  0  0  0  0  0  0  0  0  0  0  0
   -3.4075   -3.1257    0.3242 H   0  0  0  0  0  0  0  0  0  0  0  0
   -2.7357   -3.8651   -1.1498 H   0  0  0  0  0  0  0  0  0  0  0  0
   -1.2815   -2.8855    0.0986 C   0  0  0  0  0  0  0  0  0  0  0  0
   -0.3736   -3.3481    0.7648 O   0  0  0  0  0  0  0  0  0  0  0  0
   -1.1629   -1.6395   -0.4862 N   0  0  0  0  0  0  0  0  0  0  0  0
   -1.9129   -1.3600   -1.1093 H   0  0  0  0  0  0  0  0  0  0  0  0
    0.0616   -0.8207   -0.4755 C   0  0  1  0  0  0  0  0  0  0  0  0
    0.8654   -1.4256   -0.9103 H   0  0  0  0  0  0  0  0  0  0  0  0
   -0.0068    0.5123   -1.2801 C   0  0  0  0  0  0  0  0  0  0  0  0
    0.7568    1.1971   -0.8934 H   0  0  0  0  0  0  0  0  0  0  0  0
    0.3294    0.2279   -2.2828 H   0  0  0  0  0  0  0  0  0  0  0  0
   -1.3207    1.3365   -1.4791 C   0  0  0  0  0  0  0  0  0  0  0  0
   -1.3613    2.0773   -0.6728 H   0  0  0  0  0  0  0  0  0  0  0  0
   -1.2262    2.0742   -2.8241 C   0  0  0  0  0  0  0  0  0  0  0  0
   -1.2416    1.3663   -3.6591 H   0  0  0  0  0  0  0  0  0  0  0  0
   -2.0642    2.7683   -2.9427 H   0  0  0  0  0  0  0  0  0  0  0  0
   -0.2985    2.6531   -2.8757 H   0  0  0  0  0  0  0  0  0  0  0  0
   -2.6700    0.6021   -1.4791 C   0  0  0  0  0  0  0  0  0  0  0  0
   -2.8974    0.2061   -0.4852 H   0  0  0  0  0  0  0  0  0  0  0  0
   -3.4771    1.2945   -1.7399 H   0  0  0  0  0  0  0  0  0  0  0  0
   -2.6719   -0.2098   -2.2130 H   0  0  0  0  0  0  0  0  0  0  0  0
    0.5205   -0.4717    0.9598 C   0  0  0  0  0  0  0  0  0  0  0  0
    1.7138   -0.3521    1.2062 O   0  0  0  0  0  0  0  0  0  0  0  0
   -0.4061   -0.0450    1.8944 N   0  0  0  0  0  0  0  0  0  0  0  0
   -1.3789   -0.2304    1.6756 H   0  0  0  0  0  0  0  0  0  0  0  0
   -0.0469    0.3093    3.2612 C   0  0  0  0  0  0  0  0  0  0  0  0
    0.7017    1.1085    3.2666 H   0  0  0  0  0  0  0  0  0  0  0  0
   -0.9289    0.6611    3.8048 H   0  0  0  0  0  0  0  0  0  0  0  0
    0.3622   -0.5608    3.7854 H   0  0  0  0  0  0  0  0  0  0  0  0
  1  2  1  0  0  0  0
  2  3  1  0  0  0  0
  2  4  1  0  0  0  0
  2  5  1  0  0  0  0
  5  6  2  0  0  0  0
  5  7  1  0  0  0  0
  7  8  1  0  0  0  0
  7  9  1  0  0  0  0
  9 10  1  0  0  0  0
  9 11  1  0  0  0  0
  9 24  1  0  0  0  0
 11 12  1  0  0  0  0
 11 13  1  0  0  0  0
 11 14  1  0  0  0  0
 14 15  1  0  0  0  0
 14 16  1  0  0  0  0
 14 20  1  0  0  0  0
 16 17  1  0  0  0  0
 16 18  1  0  0  0  0
 16 19  1  0  0  0  0
 20 21  1  0  0  0  0
 20 22  1  0  0  0  0
 20 23  1  0  0  0  0
 24 25  2  0  0  0  0
 24 26  1  0  0  0  0
 26 27  1  0  0  0  0
 26 28  1  0  0  0  0
 28 29  1  0  0  0  0
 28 30  1  0  0  0  0
 28 31  1  0  0  0  0
M  END
$$$$

  -OEChem-04042216013D

 31 30  0     1  0  0  0  0  0999 V2000
   -2.4881   -4.6482    0.4046 H   0  0  0  0  0  0  0  0  0  0  0  0
   -2.5599   -3.6856   -0.1097 C   0  0  0  0  0  0  0  0  0  0  0  0
   -3.4143   -3.1355    0.2913 H   0  0  0  0  0  0  0  0  0  0  0  0
   -2.7186   -3.8683   -1.1752 H   0  0  0  0  0  0  0  0  0  0  0  0
   -1.2859   -2.8884    0.0964 C   0  0  0  0  0  0  0  0  0  0  0  0
   -0.3856   -3.3511    0.7728 O   0  0  0  0  0  0  0  0  0  0  0  0
   -1.1614   -1.6412   -0.4844 N   0  0  0  0  0  0  0  0  0  0  0  0
   -1.9031   -1.3621   -1.1179 H   0  0  0  0  0  0  0  0  0  0  0  0
    0.0675   -0.8294   -0.4715 C   0  0  1  0  0  0  0  0  0  0  0  0
    0.8669   -1.4384   -0.9089 H   0  0  0  0  0  0  0  0  0  0  0  0
   -0.0042    0.4984   -1.2837 C   0  0  0  0  0  0  0  0  0  0  0  0
    0.7556    1.1853   -0.8934 H   0  0  0  0  0  0  0  0  0  0  0  0
    0.3456    0.2159   -2.2820 H   0  0  0  0  0  0  0  0  0  0  0  0
   -1.3190    1.3251   -1.4895 C   0  0  0  0  0  0  0  0  0  0  0  0
   -1.1983    2.2318   -0.8865 H   0  0  0  0  0  0  0  0  0  0  0  0
   -1.4316    1.7541   -2.9600 C   0  0  0  0  0  0  0  0  0  0  0  0
   -1.5796    0.8842   -3.6079 H   0  0  0  0  0  0  0  0  0  0  0  0
   -2.2760    2.4370   -3.0973 H   0  0  0  0  0  0  0  0  0  0  0  0
   -0.5212    2.2735   -3.2761 H   0  0  0  0  0  0  0  0  0  0  0  0
   -2.6702    0.7272   -1.0704 C   0  0  0  0  0  0  0  0  0  0  0  0
   -2.6531    0.4264   -0.0190 H   0  0  0  0  0  0  0  0  0  0  0  0
   -3.4590    1.4778   -1.1833 H   0  0  0  0  0  0  0  0  0  0  0  0
   -2.9358   -0.1292   -1.6969 H   0  0  0  0  0  0  0  0  0  0  0  0
    0.5374   -0.4825    0.9611 C   0  0  0  0  0  0  0  0  0  0  0  0
    1.7336   -0.3706    1.1973 O   0  0  0  0  0  0  0  0  0  0  0  0
   -0.3771   -0.0500    1.9047 N   0  0  0  0  0  0  0  0  0  0  0  0
   -1.3531   -0.2304    1.6960 H   0  0  0  0  0  0  0  0  0  0  0  0
   -0.0019    0.2965    3.2693 C   0  0  0  0  0  0  0  0  0  0  0  0
    0.7349    1.1067    3.2709 H   0  0  0  0  0  0  0  0  0  0  0  0
   -0.8802    0.6297    3.8302 H   0  0  0  0  0  0  0  0  0  0  0  0
    0.4281   -0.5723    3.7787 H   0  0  0  0  0  0  0  0  0  0  0  0
  1  2  1  0  0  0  0
  2  3  1  0  0  0  0
  2  4  1  0  0  0  0
  2  5  1  0  0  0  0
  5  6  2  0  0  0  0
  5  7  1  0  0  0  0
  7  8  1  0  0  0  0
  7  9  1  0  0  0  0
  9 10  1  0  0  0  0
  9 11  1  0  0  0  0
  9 24  1  0  0  0  0
 11 12  1  0  0  0  0
 11 13  1  0  0  0  0
 11 14  1  0  0  0  0
 14 15  1  0  0  0  0
 14 16  1  0  0  0  0
 14 20  1  0  0  0  0
 16 17  1  0  0  0  0
 16 18  1  0  0  0  0
 16 19  1  0  0  0  0
 20 21  1  0  0  0  0
 20 22  1  0  0  0  0
 20 23  1  0  0  0  0
 24 25  2  0  0  0  0
 24 26  1  0  0  0  0
 26 27  1  0  0  0  0
 26 28  1  0  0  0  0
 28 29  1  0  0  0  0
 28 30  1  0  0  0  0
 28 31  1  0  0  0  0
M  END
$$$$

  -OEChem-04042216013D

 31 30  0     1  0  0  0  0  0999 V2000
   -2.2474   -4.7131    0.2877 H   0  0  0  0  0  0  0  0  0  0  0  0
   -2.3558   -3.7451   -0.2100 C   0  0  0  0  0  0  0  0  0  0  0  0
   -3.2598   -3.2575    0.1626 H   0  0  0  0  0  0  0  0  0  0  0  0
   -2.4558   -3.9124   -1.2851 H   0  0  0  0  0  0  0  0  0  0  0  0
   -1.1435   -2.8768    0.0698 C   0  0  0  0  0  0  0  0  0  0  0  0
   -0.2497   -3.2950    0.7828 O   0  0  0  0  0  0  0  0  0  0  0  0
   -1.0692   -1.6135   -0.4828 N   0  0  0  0  0  0  0  0  0  0  0  0
   -1.7968   -1.3655   -1.1455 H   0  0  0  0  0  0  0  0  0  0  0  0
    0.1066   -0.7311   -0.4027 C   0  0  1  0  0  0  0  0  0  0  0  0
    0.9564   -1.2903   -0.8108 H   0  0  0  0  0  0  0  0  0  0  0  0
   -0.0248    0.5734   -1.2402 C   0  0  0  0  0  0  0  0  0  0  0  0
    0.6374    1.3248   -0.7949 H   0  0  0  0  0  0  0  0  0  0  0  0
    0.4205    0.3373   -2.2121 H   0  0  0  0  0  0  0  0  0  0  0  0
   -1.3981    1.2742   -1.5139 C   0  0  0  0  0  0  0  0  0  0  0  0
   -1.2630    2.3080   -1.1764 H   0  0  0  0  0  0  0  0  0  0  0  0
   -1.6707    1.3407   -3.0228 C   0  0  0  0  0  0  0  0  0  0  0  0
   -1.7886    0.3343   -3.4370 H   0  0  0  0  0  0  0  0  0  0  0  0
   -2.5851    1.9083   -3.2225 H   0  0  0  0  0  0  0  0  0  0  0  0
   -0.8432    1.8367   -3.5403 H   0  0  0  0  0  0  0  0  0  0  0  0
   -2.6605    0.7808   -0.7894 C   0  0  0  0  0  0  0  0  0  0  0  0
   -2.4662    0.6315    0.2753 H   0  0  0  0  0  0  0  0  0  0  0  0
   -3.0372   -0.1480   -1.2259 H   0  0  0  0  0  0  0  0  0  0  0  0
   -3.4529    1.5303   -0.8806 H   0  0  0  0  0  0  0  0  0  0  0  0
    0.5148   -0.3711    1.0461 C   0  0  0  0  0  0  0  0  0  0  0  0
    1.6957   -0.1845    1.3105 O   0  0  0  0  0  0  0  0  0  0  0  0
   -0.4428   -0.0023    1.9736 N   0  0  0  0  0  0  0  0  0  0  0  0
   -1.3998   -0.2509    1.7478 H   0  0  0  0  0  0  0  0  0  0  0  0
   -0.1163    0.3541    3.3483 C   0  0  0  0  0  0  0  0  0  0  0  0
    0.5641    1.2119    3.3714 H   0  0  0  0  0  0  0  0  0  0  0  0
   -1.0249    0.6214    3.8959 H   0  0  0  0  0  0  0  0  0  0  0  0
    0.3622   -0.4893    3.8574 H   0  0  0  0  0  0  0  0  0  0  0  0
  1  2  1  0  0  0  0
  2  3  1  0  0  0  0
  2  4  1  0  0  0  0
  2  5  1  0  0  0  0
  5  6  2  0  0  0  0
  5  7  1  0  0  0  0
  7  8  1  0  0  0  0
  7  9  1  0  0  0  0
  9 10  1  0  0  0  0
  9 11  1  0  0  0  0
  9 24  1  0  0  0  0
 11 12  1  0  0  0  0
 11 13  1  0  0  0  0
 11 14  1  0  0  0  0
 14 15  1  0  0  0  0
 14 16  1  0  0  0  0
 14 20  1  0  0  0  0
 16 17  1  0  0  0  0
 16 18  1  0  0  0  0
 16 19  1  0  0  0  0
 20 21  1  0  0  0  0
 20 22  1  0  0  0  0
 20 23  1  0  0  0  0
 24 25  2  0  0  0  0
 24 26  1  0  0  0  0
 26 27  1  0  0  0  0
 26 28  1  0  0  0  0
 28 29  1  0  0  0  0
 28 30  1  0  0  0  0
 28 31  1  0  0  0  0
M  END
$$$$

  -OEChem-04042216013D

 31 30  0     1  0  0  0  0  0999 V2000
   -2.6034   -4.5684    0.2783 H   0  0  0  0  0  0  0  0  0  0  0  0
   -2.6416   -3.5858   -0.2009 C   0  0  0  0  0  0  0  0  0  0  0  0
   -3.4803   -3.0236    0.2166 H   0  0  0  0  0  0  0  0  0  0  0  0
   -2.8002   -3.7238   -1.2731 H   0  0  0  0  0  0  0  0  0  0  0  0
   -1.3435   -2.8383    0.0396 C   0  0  0  0  0  0  0  0  0  0  0  0
   -0.4611   -3.3538    0.7013 O   0  0  0  0  0  0  0  0  0  0  0  0
   -1.1778   -1.5721   -0.4854 N   0  0  0  0  0  0  0  0  0  0  0  0
   -1.9131   -1.2302   -1.0965 H   0  0  0  0  0  0  0  0  0  0  0  0
    0.0706   -0.7948   -0.4189 C   0  0  1  0  0  0  0  0  0  0  0  0
    0.8559   -1.4221   -0.8562 H   0  0  0  0  0  0  0  0  0  0  0  0
    0.0181    0.5040   -1.2691 C   0  0  0  0  0  0  0  0  0  0  0  0
    0.7198    1.2159   -0.8191 H   0  0  0  0  0  0  0  0  0  0  0  0
    0.4420    0.2538   -2.2470 H   0  0  0  0  0  0  0  0  0  0  0  0
   -1.3201    1.2713   -1.5099 C   0  0  0  0  0  0  0  0  0  0  0  0
   -1.0453    2.3315   -1.4743 H   0  0  0  0  0  0  0  0  0  0  0  0
   -1.8354    1.0292   -2.9338 C   0  0  0  0  0  0  0  0  0  0  0  0
   -2.0882   -0.0261   -3.0759 H   0  0  0  0  0  0  0  0  0  0  0  0
   -2.7303    1.6302   -3.1237 H   0  0  0  0  0  0  0  0  0  0  0  0
   -1.0762    1.3088   -3.6713 H   0  0  0  0  0  0  0  0  0  0  0  0
   -2.4544    1.1215   -0.4833 C   0  0  0  0  0  0  0  0  0  0  0  0
   -2.0698    1.2231    0.5334 H   0  0  0  0  0  0  0  0  0  0  0  0
   -3.1940    1.9131   -0.6389 H   0  0  0  0  0  0  0  0  0  0  0  0
   -2.9761    0.1671   -0.5811 H   0  0  0  0  0  0  0  0  0  0  0  0
    0.5614   -0.4991    1.0190 C   0  0  0  0  0  0  0  0  0  0  0  0
    1.7632   -0.4183    1.2385 O   0  0  0  0  0  0  0  0  0  0  0  0
   -0.3220   -0.0695    1.9923 N   0  0  0  0  0  0  0  0  0  0  0  0
   -1.3055   -0.2285    1.8019 H   0  0  0  0  0  0  0  0  0  0  0  0
    0.0881    0.2321    3.3579 C   0  0  0  0  0  0  0  0  0  0  0  0
    0.8528    1.0160    3.3656 H   0  0  0  0  0  0  0  0  0  0  0  0
   -0.7686    0.5828    3.9411 H   0  0  0  0  0  0  0  0  0  0  0  0
    0.4956   -0.6626    3.8403 H   0  0  0  0  0  0  0  0  0  0  0  0
  1  2  1  0  0  0  0
  2  3  1  0  0  0  0
  2  4  1  0  0  0  0
  2  5  1  0  0  0  0
  5  6  2  0  0  0  0
  5  7  1  0  0  0  0
  7  8  1  0  0  0  0
  7  9  1  0  0  0  0
  9 10  1  0  0  0  0
  9 11  1  0  0  0  0
  9 24  1  0  0  0  0
 11 12  1  0  0  0  0
 11 13  1  0  0  0  0
 11 14  1  0  0  0  0
 14 15  1  0  0  0  0
 14 16  1  0  0  0  0
 14 20  1  0  0  0  0
 16 17  1  0  0  0  0
 16 18  1  0  0  0  0
 16 19  1  0  0  0  0
 20 21  1  0  0  0  0
 20 22  1  0  0  0  0
 20 23  1  0  0  0  0
 24 25  2  0  0  0  0
 24 26  1  0  0  0  0
 26 27  1  0  0  0  0
 26 28  1  0  0  0  0
 28 29  1  0  0  0  0
 28 30  1  0  0  0  0
 28 31  1  0  0  0  0
M  END
$$$$

  -OEChem-04042216013D

 31 30  0     1  0  0  0  0  0999 V2000
   -2.6450   -4.5263    0.2730 H   0  0  0  0  0  0  0  0  0  0  0  0
   -2.6716   -3.5395   -0.1984 C   0  0  0  0  0  0  0  0  0  0  0  0
   -3.4885   -2.9620    0.2409 H   0  0  0  0  0  0  0  0  0  0  0  0
   -2.8559   -3.6663   -1.2678 H   0  0  0  0  0  0  0  0  0  0  0  0
   -1.3527   -2.8223    0.0192 C   0  0  0  0  0  0  0  0  0  0  0  0
   -0.4678   -3.3609    0.6589 O   0  0  0  0  0  0  0  0  0  0  0  0
   -1.1703   -1.5562   -0.5005 N   0  0  0  0  0  0  0  0  0  0  0  0
   -1.9238   -1.1759   -1.0649 H   0  0  0  0  0  0  0  0  0  0  0  0
    0.0854   -0.7898   -0.4233 C   0  0  1  0  0  0  0  0  0  0  0  0
    0.8698   -1.4202   -0.8574 H   0  0  0  0  0  0  0  0  0  0  0  0
    0.0439    0.5101   -1.2713 C   0  0  0  0  0  0  0  0  0  0  0  0
    0.7416    1.2229   -0.8174 H   0  0  0  0  0  0  0  0  0  0  0  0
    0.4609    0.2691   -2.2544 H   0  0  0  0  0  0  0  0  0  0  0  0
   -1.3013    1.2572   -1.4971 C   0  0  0  0  0  0  0  0  0  0  0  0
   -1.0174    2.2906   -1.7267 H   0  0  0  0  0  0  0  0  0  0  0  0
   -2.0276    0.7506   -2.7506 C   0  0  0  0  0  0  0  0  0  0  0  0
   -2.3477   -0.2876   -2.6286 H   0  0  0  0  0  0  0  0  0  0  0  0
   -2.9130    1.3631   -2.9481 H   0  0  0  0  0  0  0  0  0  0  0  0
   -1.3717    0.8109   -3.6248 H   0  0  0  0  0  0  0  0  0  0  0  0
   -2.2433    1.3538   -0.2879 C   0  0  0  0  0  0  0  0  0  0  0  0
   -1.7027    1.7425    0.5796 H   0  0  0  0  0  0  0  0  0  0  0  0
   -3.0596    2.0478   -0.5110 H   0  0  0  0  0  0  0  0  0  0  0  0
   -2.6889    0.3917   -0.0294 H   0  0  0  0  0  0  0  0  0  0  0  0
    0.5627   -0.5060    1.0212 C   0  0  0  0  0  0  0  0  0  0  0  0
    1.7620   -0.4372    1.2571 O   0  0  0  0  0  0  0  0  0  0  0  0
   -0.3306   -0.0736    1.9844 N   0  0  0  0  0  0  0  0  0  0  0  0
   -1.3135   -0.2111    1.7752 H   0  0  0  0  0  0  0  0  0  0  0  0
    0.0606    0.2214    3.3568 C   0  0  0  0  0  0  0  0  0  0  0  0
    0.8195    1.0106    3.3792 H   0  0  0  0  0  0  0  0  0  0  0  0
   -0.8061    0.5617    3.9313 H   0  0  0  0  0  0  0  0  0  0  0  0
    0.4680   -0.6738    3.8383 H   0  0  0  0  0  0  0  0  0  0  0  0
  1  2  1  0  0  0  0
  2  3  1  0  0  0  0
  2  4  1  0  0  0  0
  2  5  1  0  0  0  0
  5  6  2  0  0  0  0
  5  7  1  0  0  0  0
  7  8  1  0  0  0  0
  7  9  1  0  0  0  0
  9 10  1  0  0  0  0
  9 11  1  0  0  0  0
  9 24  1  0  0  0  0
 11 12  1  0  0  0  0
 11 13  1  0  0  0  0
 11 14  1  0  0  0  0
 14 15  1  0  0  0  0
 14 16  1  0  0  0  0
 14 20  1  0  0  0  0
 16 17  1  0  0  0  0
 16 18  1  0  0  0  0
 16 19  1  0  0  0  0
 20 21  1  0  0  0  0
 20 22  1  0  0  0  0
 20 23  1  0  0  0  0
 24 25  2  0  0  0  0
 24 26  1  0  0  0  0
 26 27  1  0  0  0  0
 26 28  1  0  0  0  0
 28 29  1  0  0  0  0
 28 30  1  0  0  0  0
 28 31  1  0  0  0  0
M  END
$$$$

  -OEChem-04042216013D

 31 30  0     1  0  0  0  0  0999 V2000
   -2.6393   -4.5305    0.2876 H   0  0  0  0  0  0  0  0  0  0  0  0
   -2.6725   -3.5388   -0.1727 C   0  0  0  0  0  0  0  0  0  0  0  0
   -3.4816   -2.9652    0.2855 H   0  0  0  0  0  0  0  0  0  0  0  0
   -2.8749   -3.6541   -1.2402 H   0  0  0  0  0  0  0  0  0  0  0  0
   -1.3495   -2.8247    0.0307 C   0  0  0  0  0  0  0  0  0  0  0  0
   -0.4577   -3.3653    0.6588 O   0  0  0  0  0  0  0  0  0  0  0  0
   -1.1726   -1.5582   -0.4895 N   0  0  0  0  0  0  0  0  0  0  0  0
   -1.9346   -1.1765   -1.0377 H   0  0  0  0  0  0  0  0  0  0  0  0
    0.0782   -0.7855   -0.4135 C   0  0  1  0  0  0  0  0  0  0  0  0
    0.8632   -1.4181   -0.8436 H   0  0  0  0  0  0  0  0  0  0  0  0
    0.0523    0.5165   -1.2619 C   0  0  0  0  0  0  0  0  0  0  0  0
    0.7574    1.2249   -0.8123 H   0  0  0  0  0  0  0  0  0  0  0  0
    0.4634    0.2655   -2.2450 H   0  0  0  0  0  0  0  0  0  0  0  0
   -1.2815    1.2746   -1.5059 C   0  0  0  0  0  0  0  0  0  0  0  0
   -0.9959    2.2368   -1.9456 H   0  0  0  0  0  0  0  0  0  0  0  0
   -2.2042    0.5917   -2.5303 C   0  0  0  0  0  0  0  0  0  0  0  0
   -2.7490   -0.2512   -2.1015 H   0  0  0  0  0  0  0  0  0  0  0  0
   -2.9451    1.3108   -2.8938 H   0  0  0  0  0  0  0  0  0  0  0  0
   -1.6272    0.2363   -3.3898 H   0  0  0  0  0  0  0  0  0  0  0  0
   -2.0505    1.5828   -0.2157 C   0  0  0  0  0  0  0  0  0  0  0  0
   -1.3966    2.0853    0.5039 H   0  0  0  0  0  0  0  0  0  0  0  0
   -2.8934    2.2469   -0.4314 H   0  0  0  0  0  0  0  0  0  0  0  0
   -2.4453    0.6726    0.2424 H   0  0  0  0  0  0  0  0  0  0  0  0
    0.5558   -0.4972    1.0303 C   0  0  0  0  0  0  0  0  0  0  0  0
    1.7555   -0.4235    1.2634 O   0  0  0  0  0  0  0  0  0  0  0  0
   -0.3358   -0.0679    1.9967 N   0  0  0  0  0  0  0  0  0  0  0  0
   -1.3196   -0.2049    1.7919 H   0  0  0  0  0  0  0  0  0  0  0  0
    0.0624    0.2339    3.3657 C   0  0  0  0  0  0  0  0  0  0  0  0
    0.8001    1.0430    3.3812 H   0  0  0  0  0  0  0  0  0  0  0  0
   -0.8060    0.5486    3.9519 H   0  0  0  0  0  0  0  0  0  0  0  0
    0.4999   -0.6511    3.8397 H   0  0  0  0  0  0  0  0  0  0  0  0
  1  2  1  0  0  0  0
  2  3  1  0  0  0  0
  2  4  1  0  0  0  0
  2  5  1  0  0  0  0
  5  6  2  0  0  0  0
  5  7  1  0  0  0  0
  7  8  1  0  0  0  0
  7  9  1  0  0  0  0
  9 10  1  0  0  0  0
  9 11  1  0  0  0  0
  9 24  1  0  0  0  0
 11 12  1  0  0  0  0
 11 13  1  0  0  0  0
 11 14  1  0  0  0  0
 14 15  1  0  0  0  0
 14 16  1  0  0  0  0
 14 20  1  0  0  0  0
 16 17  1  0  0  0  0
 16 18  1  0  0  0  0
 16 19  1  0  0  0  0
 20 21  1  0  0  0  0
 20 22  1  0  0  0  0
 20 23  1  0  0  0  0
 24 25  2  0  0  0  0
 24 26  1  0  0  0  0
 26 27  1  0  0  0  0
 26 28  1  0  0  0  0
 28 29  1  0  0  0  0
 28 30  1  0  0  0  0
 28 31  1  0  0  0  0
M  END
$$$$

  -OEChem-04042216013D

 31 30  0     1  0  0  0  0  0999 V2000
   -2.5790   -4.5718    0.3558 H   0  0  0  0  0  0  0  0  0  0  0  0
   -2.6276   -3.5991   -0.1422 C   0  0  0  0  0  0  0  0  0  0  0  0
   -3.4724   -3.0379    0.2643 H   0  0  0  0  0  0  0  0  0  0  0  0
   -2.7852   -3.7599   -1.2113 H   0  0  0  0  0  0  0  0  0  0  0  0
   -1.3377   -2.8332    0.0837 C   0  0  0  0  0  0  0  0  0  0  0  0
   -0.4469   -3.3297    0.7486 O   0  0  0  0  0  0  0  0  0  0  0  0
   -1.1895   -1.5727   -0.4607 N   0  0  0  0  0  0  0  0  0  0  0  0
   -1.9238   -1.2631   -1.0873 H   0  0  0  0  0  0  0  0  0  0  0  0
    0.0577   -0.7911   -0.4303 C   0  0  1  0  0  0  0  0  0  0  0  0
    0.8352   -1.4235   -0.8742 H   0  0  0  0  0  0  0  0  0  0  0  0
    0.0134    0.5120   -1.2790 C   0  0  0  0  0  0  0  0  0  0  0  0
    0.7523    1.2124   -0.8734 H   0  0  0  0  0  0  0  0  0  0  0  0
    0.3744    0.2382   -2.2757 H   0  0  0  0  0  0  0  0  0  0  0  0
   -1.3122    1.2926   -1.5015 C   0  0  0  0  0  0  0  0  0  0  0  0
   -1.0552    2.1350   -2.1534 H   0  0  0  0  0  0  0  0  0  0  0  0
   -2.4341    0.5098   -2.2039 C   0  0  0  0  0  0  0  0  0  0  0  0
   -3.1148    1.2101   -2.6984 H   0  0  0  0  0  0  0  0  0  0  0  0
   -3.0274   -0.0775   -1.4983 H   0  0  0  0  0  0  0  0  0  0  0  0
   -2.0188   -0.1566   -2.9665 H   0  0  0  0  0  0  0  0  0  0  0  0
   -1.8497    1.8722   -0.1884 C   0  0  0  0  0  0  0  0  0  0  0  0
   -1.0628    2.4203    0.3394 H   0  0  0  0  0  0  0  0  0  0  0  0
   -2.6722    2.5653   -0.3913 H   0  0  0  0  0  0  0  0  0  0  0  0
   -2.2244    1.0801    0.4652 H   0  0  0  0  0  0  0  0  0  0  0  0
    0.5698   -0.4822    0.9973 C   0  0  0  0  0  0  0  0  0  0  0  0
    1.7746   -0.3937    1.1975 O   0  0  0  0  0  0  0  0  0  0  0  0
   -0.3012   -0.0471    1.9791 N   0  0  0  0  0  0  0  0  0  0  0  0
   -1.2868   -0.2108    1.8037 H   0  0  0  0  0  0  0  0  0  0  0  0
    0.1273    0.2731    3.3342 C   0  0  0  0  0  0  0  0  0  0  0  0
    0.8825    1.0659    3.3210 H   0  0  0  0  0  0  0  0  0  0  0  0
   -0.7240    0.6193    3.9278 H   0  0  0  0  0  0  0  0  0  0  0  0
    0.5534   -0.6120    3.8181 H   0  0  0  0  0  0  0  0  0  0  0  0
  1  2  1  0  0  0  0
  2  3  1  0  0  0  0
  2  4  1  0  0  0  0
  2  5  1  0  0  0  0
  5  6  2  0  0  0  0
  5  7  1  0  0  0  0
  7  8  1  0  0  0  0
  7  9  1  0  0  0  0
  9 10  1  0  0  0  0
  9 11  1  0  0  0  0
  9 24  1  0  0  0  0
 11 12  1  0  0  0  0
 11 13  1  0  0  0  0
 11 14  1  0  0  0  0
 14 15  1  0  0  0  0
 14 16  1  0  0  0  0
 14 20  1  0  0  0  0
 16 17  1  0  0  0  0
 16 18  1  0  0  0  0
 16 19  1  0  0  0  0
 20 21  1  0  0  0  0
 20 22  1  0  0  0  0
 20 23  1  0  0  0  0
 24 25  2  0  0  0  0
 24 26  1  0  0  0  0
 26 27  1  0  0  0  0
 26 28  1  0  0  0  0
 28 29  1  0  0  0  0
 28 30  1  0  0  0  0
 28 31  1  0  0  0  0
M  END
$$$$

  -OEChem-04042216013D

 31 30  0     1  0  0  0  0  0999 V2000
   -2.5022   -4.6287    0.3176 H   0  0  0  0  0  0  0  0  0  0  0  0
   -2.5714   -3.6493   -0.1645 C   0  0  0  0  0  0  0  0  0  0  0  0
   -3.4203   -3.1083    0.2600 H   0  0  0  0  0  0  0  0  0  0  0  0
   -2.7372   -3.7960   -1.2345 H   0  0  0  0  0  0  0  0  0  0  0  0
   -1.2922   -2.8657    0.0609 C   0  0  0  0  0  0  0  0  0  0  0  0
   -0.3907   -3.3553    0.7163 O   0  0  0  0  0  0  0  0  0  0  0  0
   -1.1663   -1.5981   -0.4731 N   0  0  0  0  0  0  0  0  0  0  0  0
   -1.9096   -1.2940   -1.0924 H   0  0  0  0  0  0  0  0  0  0  0  0
    0.0643   -0.7905   -0.4305 C   0  0  1  0  0  0  0  0  0  0  0  0
    0.8580   -1.4028   -0.8739 H   0  0  0  0  0  0  0  0  0  0  0  0
    0.0171    0.5333   -1.2507 C   0  0  0  0  0  0  0  0  0  0  0  0
    0.7729    1.2180   -0.8491 H   0  0  0  0  0  0  0  0  0  0  0  0
    0.3668    0.2604   -2.2518 H   0  0  0  0  0  0  0  0  0  0  0  0
   -1.2956    1.3393   -1.4859 C   0  0  0  0  0  0  0  0  0  0  0  0
   -1.0782    2.0380   -2.3013 H   0  0  0  0  0  0  0  0  0  0  0  0
   -2.5498    0.5507   -1.8917 C   0  0  0  0  0  0  0  0  0  0  0  0
   -3.0188    0.0645   -1.0316 H   0  0  0  0  0  0  0  0  0  0  0  0
   -3.2883    1.2327   -2.3252 H   0  0  0  0  0  0  0  0  0  0  0  0
   -2.3011   -0.2022   -2.6463 H   0  0  0  0  0  0  0  0  0  0  0  0
   -1.6354    2.1723   -0.2437 C   0  0  0  0  0  0  0  0  0  0  0  0
   -0.7697    2.7616    0.0745 H   0  0  0  0  0  0  0  0  0  0  0  0
   -2.4550    2.8631   -0.4648 H   0  0  0  0  0  0  0  0  0  0  0  0
   -1.9436    1.5307    0.5857 H   0  0  0  0  0  0  0  0  0  0  0  0
    0.5490   -0.4903    1.0084 C   0  0  0  0  0  0  0  0  0  0  0  0
    1.7483   -0.3831    1.2312 O   0  0  0  0  0  0  0  0  0  0  0  0
   -0.3479   -0.0868    1.9807 N   0  0  0  0  0  0  0  0  0  0  0  0
   -1.3274   -0.2614    1.7836 H   0  0  0  0  0  0  0  0  0  0  0  0
    0.0492    0.2271    3.3471 C   0  0  0  0  0  0  0  0  0  0  0  0
    0.7858    1.0373    3.3565 H   0  0  0  0  0  0  0  0  0  0  0  0
   -0.8201    0.5463    3.9297 H   0  0  0  0  0  0  0  0  0  0  0  0
    0.4871   -0.6534    3.8286 H   0  0  0  0  0  0  0  0  0  0  0  0
  1  2  1  0  0  0  0
  2  3  1  0  0  0  0
  2  4  1  0  0  0  0
  2  5  1  0  0  0  0
  5  6  2  0  0  0  0
  5  7  1  0  0  0  0
  7  8  1  0  0  0  0
  7  9  1  0  0  0  0
  9 10  1  0  0  0  0
  9 11  1  0  0  0  0
  9 24  1  0  0  0  0
 11 12  1  0  0  0  0
 11 13  1  0  0  0  0
 11 14  1  0  0  0  0
 14 15  1  0  0  0  0
 14 16  1  0  0  0  0
 14 20  1  0  0  0  0
 16 17  1  0  0  0  0
 16 18  1  0  0  0  0
 16 19  1  0  0  0  0
 20 21  1  0  0  0  0
 20 22  1  0  0  0  0
 20 23  1  0  0  0  0
 24 25  2  0  0  0  0
 24 26  1  0  0  0  0
 26 27  1  0  0  0  0
 26 28  1  0  0  0  0
 28 29  1  0  0  0  0
 28 30  1  0  0  0  0
 28 31  1  0  0  0  0
M  END
$$$$

  -OEChem-04042216013D

 31 30  0     1  0  0  0  0  0999 V2000
   -2.5245   -4.6292    0.3628 H   0  0  0  0  0  0  0  0  0  0  0  0
   -2.5881   -3.6539   -0.1281 C   0  0  0  0  0  0  0  0  0  0  0  0
   -3.4281   -3.1004    0.2978 H   0  0  0  0  0  0  0  0  0  0  0  0
   -2.7642   -3.8087   -1.1952 H   0  0  0  0  0  0  0  0  0  0  0  0
   -1.2990   -2.8819    0.0789 C   0  0  0  0  0  0  0  0  0  0  0  0
   -0.3983   -3.3734    0.7341 O   0  0  0  0  0  0  0  0  0  0  0  0
   -1.1623   -1.6236   -0.4743 N   0  0  0  0  0  0  0  0  0  0  0  0
   -1.9119   -1.3129   -1.0826 H   0  0  0  0  0  0  0  0  0  0  0  0
    0.0711   -0.8194   -0.4366 C   0  0  1  0  0  0  0  0  0  0  0  0
    0.8678   -1.4352   -0.8692 H   0  0  0  0  0  0  0  0  0  0  0  0
    0.0367    0.5110   -1.2485 C   0  0  0  0  0  0  0  0  0  0  0  0
    0.8208    1.1731   -0.8637 H   0  0  0  0  0  0  0  0  0  0  0  0
    0.3657    0.2236   -2.2525 H   0  0  0  0  0  0  0  0  0  0  0  0
   -1.2582    1.3523   -1.4872 C   0  0  0  0  0  0  0  0  0  0  0  0
   -1.1211    1.8687   -2.4439 H   0  0  0  0  0  0  0  0  0  0  0  0
   -2.6105    0.6292   -1.5567 C   0  0  0  0  0  0  0  0  0  0  0  0
   -2.9058    0.2389   -0.5782 H   0  0  0  0  0  0  0  0  0  0  0  0
   -3.3877    1.3282   -1.8822 H   0  0  0  0  0  0  0  0  0  0  0  0
   -2.5719   -0.1870   -2.2844 H   0  0  0  0  0  0  0  0  0  0  0  0
   -1.3668    2.4289   -0.3976 C   0  0  0  0  0  0  0  0  0  0  0  0
   -0.4563    3.0355   -0.3625 H   0  0  0  0  0  0  0  0  0  0  0  0
   -2.2090    3.0969   -0.6038 H   0  0  0  0  0  0  0  0  0  0  0  0
   -1.5193    1.9752    0.5855 H   0  0  0  0  0  0  0  0  0  0  0  0
    0.5322   -0.5063    1.0066 C   0  0  0  0  0  0  0  0  0  0  0  0
    1.7268   -0.4023    1.2542 O   0  0  0  0  0  0  0  0  0  0  0  0
   -0.3868   -0.0898    1.9527 N   0  0  0  0  0  0  0  0  0  0  0  0
   -1.3619   -0.2588    1.7315 H   0  0  0  0  0  0  0  0  0  0  0  0
   -0.0225    0.2371    3.3250 C   0  0  0  0  0  0  0  0  0  0  0  0
    0.7177    1.0439    3.3445 H   0  0  0  0  0  0  0  0  0  0  0  0
   -0.9049    0.5669    3.8814 H   0  0  0  0  0  0  0  0  0  0  0  0
    0.3987   -0.6400    3.8273 H   0  0  0  0  0  0  0  0  0  0  0  0
  1  2  1  0  0  0  0
  2  3  1  0  0  0  0
  2  4  1  0  0  0  0
  2  5  1  0  0  0  0
  5  6  2  0  0  0  0
  5  7  1  0  0  0  0
  7  8  1  0  0  0  0
  7  9  1  0  0  0  0
  9 10  1  0  0  0  0
  9 11  1  0  0  0  0
  9 24  1  0  0  0  0
 11 12  1  0  0  0  0
 11 13  1  0  0  0  0
 11 14  1  0  0  0  0
 14 15  1  0  0  0  0
 14 16  1  0  0  0  0
 14 20  1  0  0  0  0
 16 17  1  0  0  0  0
 16 18  1  0  0  0  0
 16 19  1  0  0  0  0
 20 21  1  0  0  0  0
 20 22  1  0  0  0  0
 20 23  1  0  0  0  0
 24 25  2  0  0  0  0
 24 26  1  0  0  0  0
 26 27  1  0  0  0  0
 26 28  1  0  0  0  0
 28 29  1  0  0  0  0
 28 30  1  0  0  0  0
 28 31  1  0  0  0  0
M  END
$$$$

  -OEChem-04042216013D

 31 30  0     1  0  0  0  0  0999 V2000
   -2.5219   -4.6315    0.3720 H   0  0  0  0  0  0  0  0  0  0  0  0
   -2.5816   -3.6623   -0.1315 C   0  0  0  0  0  0  0  0  0  0  0  0
   -3.4296   -3.1065    0.2754 H   0  0  0  0  0  0  0  0  0  0  0  0
   -2.7417   -3.8311   -1.1991 H   0  0  0  0  0  0  0  0  0  0  0  0
   -1.2983   -2.8827    0.0844 C   0  0  0  0  0  0  0  0  0  0  0  0
   -0.4054   -3.3625    0.7585 O   0  0  0  0  0  0  0  0  0  0  0  0
   -1.1570   -1.6322   -0.4854 N   0  0  0  0  0  0  0  0  0  0  0  0
   -1.8953   -1.3366   -1.1147 H   0  0  0  0  0  0  0  0  0  0  0  0
    0.0772   -0.8286   -0.4488 C   0  0  1  0  0  0  0  0  0  0  0  0
    0.8787   -1.4409   -0.8774 H   0  0  0  0  0  0  0  0  0  0  0  0
    0.0367    0.5082   -1.2488 C   0  0  0  0  0  0  0  0  0  0  0  0
    0.8318    1.1602   -0.8689 H   0  0  0  0  0  0  0  0  0  0  0  0
    0.3560    0.2264   -2.2574 H   0  0  0  0  0  0  0  0  0  0  0  0
   -1.2608    1.3559   -1.4717 C   0  0  0  0  0  0  0  0  0  0  0  0
   -1.2585    1.6789   -2.5186 H   0  0  0  0  0  0  0  0  0  0  0  0
   -2.6342    0.7255   -1.1975 C   0  0  0  0  0  0  0  0  0  0  0  0
   -2.7206    0.4022   -0.1557 H   0  0  0  0  0  0  0  0  0  0  0  0
   -3.4269    1.4563   -1.3873 H   0  0  0  0  0  0  0  0  0  0  0  0
   -2.8088   -0.1220   -1.8660 H   0  0  0  0  0  0  0  0  0  0  0  0
   -1.1651    2.6184   -0.6005 C   0  0  0  0  0  0  0  0  0  0  0  0
   -0.2626    3.1877   -0.8452 H   0  0  0  0  0  0  0  0  0  0  0  0
   -2.0278    3.2708   -0.7685 H   0  0  0  0  0  0  0  0  0  0  0  0
   -1.1313    2.3536    0.4610 H   0  0  0  0  0  0  0  0  0  0  0  0
    0.5237   -0.4983    0.9953 C   0  0  0  0  0  0  0  0  0  0  0  0
    1.7158   -0.3950    1.2550 O   0  0  0  0  0  0  0  0  0  0  0  0
   -0.4054   -0.0687    1.9260 N   0  0  0  0  0  0  0  0  0  0  0  0
   -1.3791   -0.2332    1.6952 H   0  0  0  0  0  0  0  0  0  0  0  0
   -0.0540    0.2774    3.2969 C   0  0  0  0  0  0  0  0  0  0  0  0
    0.6735    1.0958    3.3118 H   0  0  0  0  0  0  0  0  0  0  0  0
   -0.9442    0.5986    3.8457 H   0  0  0  0  0  0  0  0  0  0  0  0
    0.3783   -0.5880    3.8102 H   0  0  0  0  0  0  0  0  0  0  0  0
  1  2  1  0  0  0  0
  2  3  1  0  0  0  0
  2  4  1  0  0  0  0
  2  5  1  0  0  0  0
  5  6  2  0  0  0  0
  5  7  1  0  0  0  0
  7  8  1  0  0  0  0
  7  9  1  0  0  0  0
  9 10  1  0  0  0  0
  9 11  1  0  0  0  0
  9 24  1  0  0  0  0
 11 12  1  0  0  0  0
 11 13  1  0  0  0  0
 11 14  1  0  0  0  0
 14 15  1  0  0  0  0
 14 16  1  0  0  0  0
 14 20  1  0  0  0  0
 16 17  1  0  0  0  0
 16 18  1  0  0  0  0
 16 19  1  0  0  0  0
 20 21  1  0  0  0  0
 20 22  1  0  0  0  0
 20 23  1  0  0  0  0
 24 25  2  0  0  0  0
 24 26  1  0  0  0  0
 26 27  1  0  0  0  0
 26 28  1  0  0  0  0
 28 29  1  0  0  0  0
 28 30  1  0  0  0  0
 28 31  1  0  0  0  0
M  END
$$$$

  -OEChem-04042216013D

 31 30  0     1  0  0  0  0  0999 V2000
   -2.4632   -4.6428    0.3321 H   0  0  0  0  0  0  0  0  0  0  0  0
   -2.5355   -3.6685   -0.1599 C   0  0  0  0  0  0  0  0  0  0  0  0
   -3.3983   -3.1337    0.2442 H   0  0  0  0  0  0  0  0  0  0  0  0
   -2.6806   -3.8264   -1.2313 H   0  0  0  0  0  0  0  0  0  0  0  0
   -1.2692   -2.8681    0.0802 C   0  0  0  0  0  0  0  0  0  0  0  0
   -0.3799   -3.3354    0.7679 O   0  0  0  0  0  0  0  0  0  0  0  0
   -1.1389   -1.6135   -0.4829 N   0  0  0  0  0  0  0  0  0  0  0  0
   -1.8678   -1.3315   -1.1295 H   0  0  0  0  0  0  0  0  0  0  0  0
    0.0866   -0.7974   -0.4365 C   0  0  1  0  0  0  0  0  0  0  0  0
    0.8962   -1.3986   -0.8661 H   0  0  0  0  0  0  0  0  0  0  0  0
    0.0207    0.5340   -1.2416 C   0  0  0  0  0  0  0  0  0  0  0  0
    0.7905    1.2024   -0.8384 H   0  0  0  0  0  0  0  0  0  0  0  0
    0.3669    0.2735   -2.2471 H   0  0  0  0  0  0  0  0  0  0  0  0
   -1.3001    1.3483   -1.4655 C   0  0  0  0  0  0  0  0  0  0  0  0
   -1.4539    1.4250   -2.5475 H   0  0  0  0  0  0  0  0  0  0  0  0
   -2.6185    0.8283   -0.8680 C   0  0  0  0  0  0  0  0  0  0  0  0
   -2.5068    0.6059    0.1967 H   0  0  0  0  0  0  0  0  0  0  0  0
   -3.4057    1.5818   -0.9728 H   0  0  0  0  0  0  0  0  0  0  0  0
   -2.9618   -0.0638   -1.3977 H   0  0  0  0  0  0  0  0  0  0  0  0
   -1.0850    2.7735   -0.9319 C   0  0  0  0  0  0  0  0  0  0  0  0
   -0.2134    3.2345   -1.4076 H   0  0  0  0  0  0  0  0  0  0  0  0
   -1.9549    3.4029   -1.1448 H   0  0  0  0  0  0  0  0  0  0  0  0
   -0.9234    2.7573    0.1510 H   0  0  0  0  0  0  0  0  0  0  0  0
    0.5324   -0.4638    1.0074 C   0  0  0  0  0  0  0  0  0  0  0  0
    1.7244   -0.3502    1.2635 O   0  0  0  0  0  0  0  0  0  0  0  0
   -0.3972   -0.0444    1.9421 N   0  0  0  0  0  0  0  0  0  0  0  0
   -1.3694   -0.2252    1.7166 H   0  0  0  0  0  0  0  0  0  0  0  0
   -0.0441    0.2940    3.3145 C   0  0  0  0  0  0  0  0  0  0  0  0
    0.6876    1.1086    3.3331 H   0  0  0  0  0  0  0  0  0  0  0  0
   -0.9328    0.6174    3.8646 H   0  0  0  0  0  0  0  0  0  0  0  0
    0.3837   -0.5761    3.8237 H   0  0  0  0  0  0  0  0  0  0  0  0
  1  2  1  0  0  0  0
  2  3  1  0  0  0  0
  2  4  1  0  0  0  0
  2  5  1  0  0  0  0
  5  6  2  0  0  0  0
  5  7  1  0  0  0  0
  7  8  1  0  0  0  0
  7  9  1  0  0  0  0
  9 10  1  0  0  0  0
  9 11  1  0  0  0  0
  9 24  1  0  0  0  0
 11 12  1  0  0  0  0
 11 13  1  0  0  0  0
 11 14  1  0  0  0  0
 14 15  1  0  0  0  0
 14 16  1  0  0  0  0
 14 20  1  0  0  0  0
 16 17  1  0  0  0  0
 16 18  1  0  0  0  0
 16 19  1  0  0  0  0
 20 21  1  0  0  0  0
 20 22  1  0  0  0  0
 20 23  1  0  0  0  0
 24 25  2  0  0  0  0
 24 26  1  0  0  0  0
 26 27  1  0  0  0  0
 26 28  1  0  0  0  0
 28 29  1  0  0  0  0
 28 30  1  0  0  0  0
 28 31  1  0  0  0  0
M  END
$$$$

  -OEChem-04042216013D

 31 30  0     1  0  0  0  0  0999 V2000
   -2.5856   -4.5723    0.2824 H   0  0  0  0  0  0  0  0  0  0  0  0
   -2.6309   -3.5893   -0.1954 C   0  0  0  0  0  0  0  0  0  0  0  0
   -3.4748   -3.0343    0.2209 H   0  0  0  0  0  0  0  0  0  0  0  0
   -2.7864   -3.7278   -1.2680 H   0  0  0  0  0  0  0  0  0  0  0  0
   -1.3399   -2.8309    0.0486 C   0  0  0  0  0  0  0  0  0  0  0  0
   -0.4547   -3.3398    0.7118 O   0  0  0  0  0  0  0  0  0  0  0  0
   -1.1838   -1.5639   -0.4786 N   0  0  0  0  0  0  0  0  0  0  0  0
   -1.9150   -1.2394   -1.1031 H   0  0  0  0  0  0  0  0  0  0  0  0
    0.0626   -0.7822   -0.4204 C   0  0  1  0  0  0  0  0  0  0  0  0
    0.8489   -1.4017   -0.8669 H   0  0  0  0  0  0  0  0  0  0  0  0
    0.0150    0.5404   -1.2373 C   0  0  0  0  0  0  0  0  0  0  0  0
    0.7655    1.2097   -0.8005 H   0  0  0  0  0  0  0  0  0  0  0  0
    0.3883    0.2938   -2.2369 H   0  0  0  0  0  0  0  0  0  0  0  0
   -1.3033    1.3529   -1.4628 C   0  0  0  0  0  0  0  0  0  0  0  0
   -1.6183    1.1698   -2.4960 H   0  0  0  0  0  0  0  0  0  0  0  0
   -2.5272    1.0428   -0.5821 C   0  0  0  0  0  0  0  0  0  0  0  0
   -2.2467    0.9949    0.4724 H   0  0  0  0  0  0  0  0  0  0  0  0
   -3.2808    1.8290   -0.6932 H   0  0  0  0  0  0  0  0  0  0  0  0
   -3.0057    0.1066   -0.8763 H   0  0  0  0  0  0  0  0  0  0  0  0
   -0.9848    2.8501   -1.3394 C   0  0  0  0  0  0  0  0  0  0  0  0
   -0.1595    3.1220   -2.0052 H   0  0  0  0  0  0  0  0  0  0  0  0
   -1.8547    3.4543   -1.6155 H   0  0  0  0  0  0  0  0  0  0  0  0
   -0.7005    3.0994   -0.3116 H   0  0  0  0  0  0  0  0  0  0  0  0
    0.5494   -0.4923    1.0204 C   0  0  0  0  0  0  0  0  0  0  0  0
    1.7503   -0.4119    1.2460 O   0  0  0  0  0  0  0  0  0  0  0  0
   -0.3405   -0.0701    1.9911 N   0  0  0  0  0  0  0  0  0  0  0  0
   -1.3229   -0.2269    1.7931 H   0  0  0  0  0  0  0  0  0  0  0  0
    0.0610    0.2320    3.3589 C   0  0  0  0  0  0  0  0  0  0  0  0
    0.8182    1.0229    3.3711 H   0  0  0  0  0  0  0  0  0  0  0  0
   -0.8014    0.5733    3.9391 H   0  0  0  0  0  0  0  0  0  0  0  0
    0.4747   -0.6600    3.8408 H   0  0  0  0  0  0  0  0  0  0  0  0
  1  2  1  0  0  0  0
  2  3  1  0  0  0  0
  2  4  1  0  0  0  0
  2  5  1  0  0  0  0
  5  6  2  0  0  0  0
  5  7  1  0  0  0  0
  7  8  1  0  0  0  0
  7  9  1  0  0  0  0
  9 10  1  0  0  0  0
  9 11  1  0  0  0  0
  9 24  1  0  0  0  0
 11 12  1  0  0  0  0
 11 13  1  0  0  0  0
 11 14  1  0  0  0  0
 14 15  1  0  0  0  0
 14 16  1  0  0  0  0
 14 20  1  0  0  0  0
 16 17  1  0  0  0  0
 16 18  1  0  0  0  0
 16 19  1  0  0  0  0
 20 21  1  0  0  0  0
 20 22  1  0  0  0  0
 20 23  1  0  0  0  0
 24 25  2  0  0  0  0
 24 26  1  0  0  0  0
 26 27  1  0  0  0  0
 26 28  1  0  0  0  0
 28 29  1  0  0  0  0
 28 30  1  0  0  0  0
 28 31  1  0  0  0  0
M  END
$$$$

  -OEChem-04042216013D

 31 30  0     1  0  0  0  0  0999 V2000
   -2.6473   -4.5117    0.2502 H   0  0  0  0  0  0  0  0  0  0  0  0
   -2.6767   -3.5239   -0.2187 C   0  0  0  0  0  0  0  0  0  0  0  0
   -3.5065   -2.9564    0.2092 H   0  0  0  0  0  0  0  0  0  0  0  0
   -2.8429   -3.6494   -1.2913 H   0  0  0  0  0  0  0  0  0  0  0  0
   -1.3685   -2.7940    0.0221 C   0  0  0  0  0  0  0  0  0  0  0  0
   -0.4897   -3.3270    0.6746 O   0  0  0  0  0  0  0  0  0  0  0  0
   -1.1894   -1.5246   -0.4920 N   0  0  0  0  0  0  0  0  0  0  0  0
   -1.9251   -1.1676   -1.0939 H   0  0  0  0  0  0  0  0  0  0  0  0
    0.0692   -0.7628   -0.4208 C   0  0  1  0  0  0  0  0  0  0  0  0
    0.8484   -1.3898   -0.8690 H   0  0  0  0  0  0  0  0  0  0  0  0
    0.0271    0.5534   -1.2439 C   0  0  0  0  0  0  0  0  0  0  0  0
    0.7595    1.2337   -0.7943 H   0  0  0  0  0  0  0  0  0  0  0  0
    0.4099    0.3159   -2.2420 H   0  0  0  0  0  0  0  0  0  0  0  0
   -1.3007    1.3428   -1.4580 C   0  0  0  0  0  0  0  0  0  0  0  0
   -1.7679    0.9403   -2.3633 H   0  0  0  0  0  0  0  0  0  0  0  0
   -2.3696    1.2660   -0.3522 C   0  0  0  0  0  0  0  0  0  0  0  0
   -1.9345    1.5228    0.6170 H   0  0  0  0  0  0  0  0  0  0  0  0
   -3.1707    1.9824   -0.5602 H   0  0  0  0  0  0  0  0  0  0  0  0
   -2.8364    0.2828   -0.2885 H   0  0  0  0  0  0  0  0  0  0  0  0
   -0.9633    2.8159   -1.7247 C   0  0  0  0  0  0  0  0  0  0  0  0
   -0.2362    2.8995   -2.5387 H   0  0  0  0  0  0  0  0  0  0  0  0
   -1.8619    3.3705   -2.0127 H   0  0  0  0  0  0  0  0  0  0  0  0
   -0.5395    3.2829   -0.8296 H   0  0  0  0  0  0  0  0  0  0  0  0
    0.5583   -0.4912    1.0222 C   0  0  0  0  0  0  0  0  0  0  0  0
    1.7600   -0.4321    1.2494 O   0  0  0  0  0  0  0  0  0  0  0  0
   -0.3253   -0.0630    1.9958 N   0  0  0  0  0  0  0  0  0  0  0  0
   -1.3104   -0.1941    1.7931 H   0  0  0  0  0  0  0  0  0  0  0  0
    0.0800    0.2178    3.3669 C   0  0  0  0  0  0  0  0  0  0  0  0
    0.8415    1.0043    3.3887 H   0  0  0  0  0  0  0  0  0  0  0  0
   -0.7793    0.5551    3.9538 H   0  0  0  0  0  0  0  0  0  0  0  0
    0.4900   -0.6831    3.8352 H   0  0  0  0  0  0  0  0  0  0  0  0
  1  2  1  0  0  0  0
  2  3  1  0  0  0  0
  2  4  1  0  0  0  0
  2  5  1  0  0  0  0
  5  6  2  0  0  0  0
  5  7  1  0  0  0  0
  7  8  1  0  0  0  0
  7  9  1  0  0  0  0
  9 10  1  0  0  0  0
  9 11  1  0  0  0  0
  9 24  1  0  0  0  0
 11 12  1  0  0  0  0
 11 13  1  0  0  0  0
 11 14  1  0  0  0  0
 14 15  1  0  0  0  0
 14 16  1  0  0  0  0
 14 20  1  0  0  0  0
 16 17  1  0  0  0  0
 16 18  1  0  0  0  0
 16 19  1  0  0  0  0
 20 21  1  0  0  0  0
 20 22  1  0  0  0  0
 20 23  1  0  0  0  0
 24 25  2  0  0  0  0
 24 26  1  0  0  0  0
 26 27  1  0  0  0  0
 26 28  1  0  0  0  0
 28 29  1  0  0  0  0
 28 30  1  0  0  0  0
 28 31  1  0  0  0  0
M  END
$$$$

  -OEChem-04042216013D

 31 30  0     1  0  0  0  0  0999 V2000
   -2.7262   -4.4356    0.2226 H   0  0  0  0  0  0  0  0  0  0  0  0
   -2.7291   -3.4476   -0.2466 C   0  0  0  0  0  0  0  0  0  0  0  0
   -3.5426   -2.8575    0.1820 H   0  0  0  0  0  0  0  0  0  0  0  0
   -2.8993   -3.5683   -1.3191 H   0  0  0  0  0  0  0  0  0  0  0  0
   -1.4019   -2.7534   -0.0071 C   0  0  0  0  0  0  0  0  0  0  0  0
   -0.5351   -3.3095    0.6423 O   0  0  0  0  0  0  0  0  0  0  0  0
   -1.1923   -1.4874   -0.5168 N   0  0  0  0  0  0  0  0  0  0  0  0
   -1.9273   -1.0988   -1.0999 H   0  0  0  0  0  0  0  0  0  0  0  0
    0.0799   -0.7479   -0.4224 C   0  0  1  0  0  0  0  0  0  0  0  0
    0.8554   -1.3874   -0.8593 H   0  0  0  0  0  0  0  0  0  0  0  0
    0.0564    0.5576   -1.2585 C   0  0  0  0  0  0  0  0  0  0  0  0
    0.7766    1.2536   -0.8130 H   0  0  0  0  0  0  0  0  0  0  0  0
    0.4402    0.3096   -2.2536 H   0  0  0  0  0  0  0  0  0  0  0  0
   -1.2876    1.3069   -1.4666 C   0  0  0  0  0  0  0  0  0  0  0  0
   -1.8779    0.7386   -2.1929 H   0  0  0  0  0  0  0  0  0  0  0  0
   -2.1542    1.4753   -0.2071 C   0  0  0  0  0  0  0  0  0  0  0  0
   -1.5834    1.9780    0.5797 H   0  0  0  0  0  0  0  0  0  0  0  0
   -3.0311    2.0888   -0.4362 H   0  0  0  0  0  0  0  0  0  0  0  0
   -2.5173    0.5209    0.1770 H   0  0  0  0  0  0  0  0  0  0  0  0
   -1.0002    2.6870   -2.0698 C   0  0  0  0  0  0  0  0  0  0  0  0
   -0.4208    2.5870   -2.9929 H   0  0  0  0  0  0  0  0  0  0  0  0
   -1.9353    3.2036   -2.3078 H   0  0  0  0  0  0  0  0  0  0  0  0
   -0.4318    3.3053   -1.3673 H   0  0  0  0  0  0  0  0  0  0  0  0
    0.5590   -0.4804    1.0249 C   0  0  0  0  0  0  0  0  0  0  0  0
    1.7593   -0.4412    1.2632 O   0  0  0  0  0  0  0  0  0  0  0  0
   -0.3245   -0.0329    1.9902 N   0  0  0  0  0  0  0  0  0  0  0  0
   -1.3107   -0.1418    1.7801 H   0  0  0  0  0  0  0  0  0  0  0  0
    0.0751    0.2533    3.3619 C   0  0  0  0  0  0  0  0  0  0  0  0
    0.8440    1.0327    3.3829 H   0  0  0  0  0  0  0  0  0  0  0  0
   -0.7849    0.6028    3.9408 H   0  0  0  0  0  0  0  0  0  0  0  0
    0.4731   -0.6483    3.8392 H   0  0  0  0  0  0  0  0  0  0  0  0
  1  2  1  0  0  0  0
  2  3  1  0  0  0  0
  2  4  1  0  0  0  0
  2  5  1  0  0  0  0
  5  6  2  0  0  0  0
  5  7  1  0  0  0  0
  7  8  1  0  0  0  0
  7  9  1  0  0  0  0
  9 10  1  0  0  0  0
  9 11  1  0  0  0  0
  9 24  1  0  0  0  0
 11 12  1  0  0  0  0
 11 13  1  0  0  0  0
 11 14  1  0  0  0  0
 14 15  1  0  0  0  0
 14 16  1  0  0  0  0
 14 20  1  0  0  0  0
 16 17  1  0  0  0  0
 16 18  1  0  0  0  0
 16 19  1  0  0  0  0
 20 21  1  0  0  0  0
 20 22  1  0  0  0  0
 20 23  1  0  0  0  0
 24 25  2  0  0  0  0
 24 26  1  0  0  0  0
 26 27  1  0  0  0  0
 26 28  1  0  0  0  0
 28 29  1  0  0  0  0
 28 30  1  0  0  0  0
 28 31  1  0  0  0  0
M  END
$$$$

  -OEChem-04042216013D

 31 30  0     1  0  0  0  0  0999 V2000
   -2.7538   -4.4134    0.1966 H   0  0  0  0  0  0  0  0  0  0  0  0
   -2.7546   -3.4224   -0.2662 C   0  0  0  0  0  0  0  0  0  0  0  0
   -3.5745   -2.8378    0.1577 H   0  0  0  0  0  0  0  0  0  0  0  0
   -2.9134   -3.5373   -1.3412 H   0  0  0  0  0  0  0  0  0  0  0  0
   -1.4316   -2.7259   -0.0084 C   0  0  0  0  0  0  0  0  0  0  0  0
   -0.5748   -3.2793    0.6562 O   0  0  0  0  0  0  0  0  0  0  0  0
   -1.2126   -1.4618   -0.5191 N   0  0  0  0  0  0  0  0  0  0  0  0
   -1.9380   -1.0759   -1.1151 H   0  0  0  0  0  0  0  0  0  0  0  0
    0.0642   -0.7299   -0.4161 C   0  0  1  0  0  0  0  0  0  0  0  0
    0.8352   -1.3832   -0.8411 H   0  0  0  0  0  0  0  0  0  0  0  0
    0.0646    0.5610   -1.2737 C   0  0  0  0  0  0  0  0  0  0  0  0
    0.7794    1.2707   -0.8414 H   0  0  0  0  0  0  0  0  0  0  0  0
    0.4526    0.2890   -2.2609 H   0  0  0  0  0  0  0  0  0  0  0  0
   -1.2904    1.2788   -1.4925 C   0  0  0  0  0  0  0  0  0  0  0  0
   -1.9777    0.6073   -2.0168 H   0  0  0  0  0  0  0  0  0  0  0  0
   -1.9488    1.7337   -0.1837 C   0  0  0  0  0  0  0  0  0  0  0  0
   -1.2401    2.3034    0.4257 H   0  0  0  0  0  0  0  0  0  0  0  0
   -2.8143    2.3702   -0.3926 H   0  0  0  0  0  0  0  0  0  0  0  0
   -2.3013    0.8752    0.3926 H   0  0  0  0  0  0  0  0  0  0  0  0
   -1.0611    2.5041   -2.3859 C   0  0  0  0  0  0  0  0  0  0  0  0
   -0.6157    2.2051   -3.3400 H   0  0  0  0  0  0  0  0  0  0  0  0
   -2.0098    3.0078   -2.5964 H   0  0  0  0  0  0  0  0  0  0  0  0
   -0.3895    3.2181   -1.8983 H   0  0  0  0  0  0  0  0  0  0  0  0
    0.5463   -0.4568    1.0295 C   0  0  0  0  0  0  0  0  0  0  0  0
    1.7478   -0.4214    1.2620 O   0  0  0  0  0  0  0  0  0  0  0  0
   -0.3280    0.0019    1.9980 N   0  0  0  0  0  0  0  0  0  0  0  0
   -1.3156   -0.1140    1.7989 H   0  0  0  0  0  0  0  0  0  0  0  0
    0.0829    0.2842    3.3673 C   0  0  0  0  0  0  0  0  0  0  0  0
    0.8530    1.0627    3.3848 H   0  0  0  0  0  0  0  0  0  0  0  0
   -0.7718    0.6332    3.9543 H   0  0  0  0  0  0  0  0  0  0  0  0
    0.4840   -0.6191    3.8391 H   0  0  0  0  0  0  0  0  0  0  0  0
  1  2  1  0  0  0  0
  2  3  1  0  0  0  0
  2  4  1  0  0  0  0
  2  5  1  0  0  0  0
  5  6  2  0  0  0  0
  5  7  1  0  0  0  0
  7  8  1  0  0  0  0
  7  9  1  0  0  0  0
  9 10  1  0  0  0  0
  9 11  1  0  0  0  0
  9 24  1  0  0  0  0
 11 12  1  0  0  0  0
 11 13  1  0  0  0  0
 11 14  1  0  0  0  0
 14 15  1  0  0  0  0
 14 16  1  0  0  0  0
 14 20  1  0  0  0  0
 16 17  1  0  0  0  0
 16 18  1  0  0  0  0
 16 19  1  0  0  0  0
 20 21  1  0  0  0  0
 20 22  1  0  0  0  0
 20 23  1  0  0  0  0
 24 25  2  0  0  0  0
 24 26  1  0  0  0  0
 26 27  1  0  0  0  0
 26 28  1  0  0  0  0
 28 29  1  0  0  0  0
 28 30  1  0  0  0  0
 28 31  1  0  0  0  0
M  END
$$$$

  -OEChem-04042216013D

 31 30  0     1  0  0  0  0  0999 V2000
   -2.7508   -4.4242    0.2151 H   0  0  0  0  0  0  0  0  0  0  0  0
   -2.7565   -3.4359   -0.2537 C   0  0  0  0  0  0  0  0  0  0  0  0
   -3.5816   -2.8538    0.1632 H   0  0  0  0  0  0  0  0  0  0  0  0
   -2.9106   -3.5582   -1.3285 H   0  0  0  0  0  0  0  0  0  0  0  0
   -1.4389   -2.7295    0.0047 C   0  0  0  0  0  0  0  0  0  0  0  0
   -0.5813   -3.2729    0.6768 O   0  0  0  0  0  0  0  0  0  0  0  0
   -1.2262   -1.4682   -0.5156 N   0  0  0  0  0  0  0  0  0  0  0  0
   -1.9494   -1.0978   -1.1234 H   0  0  0  0  0  0  0  0  0  0  0  0
    0.0497   -0.7333   -0.4256 C   0  0  1  0  0  0  0  0  0  0  0  0
    0.8191   -1.3891   -0.8493 H   0  0  0  0  0  0  0  0  0  0  0  0
    0.0536    0.5564   -1.2856 C   0  0  0  0  0  0  0  0  0  0  0  0
    0.7827    1.2651   -0.8761 H   0  0  0  0  0  0  0  0  0  0  0  0
    0.4273    0.2635   -2.2725 H   0  0  0  0  0  0  0  0  0  0  0  0
   -1.3013    1.2780   -1.5003 C   0  0  0  0  0  0  0  0  0  0  0  0
   -2.0789    0.5688   -1.7966 H   0  0  0  0  0  0  0  0  0  0  0  0
   -1.7525    2.0380   -0.2474 C   0  0  0  0  0  0  0  0  0  0  0  0
   -0.9442    2.6665    0.1404 H   0  0  0  0  0  0  0  0  0  0  0  0
   -2.6103    2.6785   -0.4753 H   0  0  0  0  0  0  0  0  0  0  0  0
   -2.0605    1.3382    0.5321 H   0  0  0  0  0  0  0  0  0  0  0  0
   -1.1402    2.2885   -2.6440 C   0  0  0  0  0  0  0  0  0  0  0  0
   -0.8549    1.7784   -3.5695 H   0  0  0  0  0  0  0  0  0  0  0  0
   -2.0814    2.8174   -2.8244 H   0  0  0  0  0  0  0  0  0  0  0  0
   -0.3681    3.0261   -2.4021 H   0  0  0  0  0  0  0  0  0  0  0  0
    0.5350   -0.4533    1.0168 C   0  0  0  0  0  0  0  0  0  0  0  0
    1.7369   -0.4109    1.2464 O   0  0  0  0  0  0  0  0  0  0  0  0
   -0.3409    0.0074    1.9823 N   0  0  0  0  0  0  0  0  0  0  0  0
   -1.3278   -0.1167    1.7842 H   0  0  0  0  0  0  0  0  0  0  0  0
    0.0686    0.3014    3.3492 C   0  0  0  0  0  0  0  0  0  0  0  0
    0.8371    1.0814    3.3601 H   0  0  0  0  0  0  0  0  0  0  0  0
   -0.7872    0.6535    3.9327 H   0  0  0  0  0  0  0  0  0  0  0  0
    0.4711   -0.5973    3.8283 H   0  0  0  0  0  0  0  0  0  0  0  0
  1  2  1  0  0  0  0
  2  3  1  0  0  0  0
  2  4  1  0  0  0  0
  2  5  1  0  0  0  0
  5  6  2  0  0  0  0
  5  7  1  0  0  0  0
  7  8  1  0  0  0  0
  7  9  1  0  0  0  0
  9 10  1  0  0  0  0
  9 11  1  0  0  0  0
  9 24  1  0  0  0  0
 11 12  1  0  0  0  0
 11 13  1  0  0  0  0
 11 14  1  0  0  0  0
 14 15  1  0  0  0  0
 14 16  1  0  0  0  0
 14 20  1  0  0  0  0
 16 17  1  0  0  0  0
 16 18  1  0  0  0  0
 16 19  1  0  0  0  0
 20 21  1  0  0  0  0
 20 22  1  0  0  0  0
 20 23  1  0  0  0  0
 24 25  2  0  0  0  0
 24 26  1  0  0  0  0
 26 27  1  0  0  0  0
 26 28  1  0  0  0  0
 28 29  1  0  0  0  0
 28 30  1  0  0  0  0
 28 31  1  0  0  0  0
M  END
$$$$

  -OEChem-04042216013D

 31 30  0     1  0  0  0  0  0999 V2000
   -2.7388   -4.4413    0.2435 H   0  0  0  0  0  0  0  0  0  0  0  0
   -2.7493   -3.4574   -0.2341 C   0  0  0  0  0  0  0  0  0  0  0  0
   -3.5829   -2.8785    0.1707 H   0  0  0  0  0  0  0  0  0  0  0  0
   -2.8936   -3.5917   -1.3088 H   0  0  0  0  0  0  0  0  0  0  0  0
   -1.4406   -2.7364    0.0290 C   0  0  0  0  0  0  0  0  0  0  0  0
   -0.5892   -3.2628    0.7220 O   0  0  0  0  0  0  0  0  0  0  0  0
   -1.2295   -1.4838   -0.5139 N   0  0  0  0  0  0  0  0  0  0  0  0
   -1.9358   -1.1469   -1.1602 H   0  0  0  0  0  0  0  0  0  0  0  0
    0.0484   -0.7485   -0.4414 C   0  0  1  0  0  0  0  0  0  0  0  0
    0.8193   -1.4046   -0.8621 H   0  0  0  0  0  0  0  0  0  0  0  0
    0.0511    0.5472   -1.2954 C   0  0  0  0  0  0  0  0  0  0  0  0
    0.8007    1.2442   -0.9033 H   0  0  0  0  0  0  0  0  0  0  0  0
    0.4082    0.2447   -2.2856 H   0  0  0  0  0  0  0  0  0  0  0  0
   -1.2999    1.2886   -1.4948 C   0  0  0  0  0  0  0  0  0  0  0  0
   -2.1431    0.5947   -1.5190 H   0  0  0  0  0  0  0  0  0  0  0  0
   -1.5321    2.3255   -0.3882 C   0  0  0  0  0  0  0  0  0  0  0  0
   -0.6918    3.0248   -0.3260 H   0  0  0  0  0  0  0  0  0  0  0  0
   -2.4434    2.8982   -0.5869 H   0  0  0  0  0  0  0  0  0  0  0  0
   -1.6498    1.8364    0.5804 H   0  0  0  0  0  0  0  0  0  0  0  0
   -1.2766    2.0271   -2.8399 C   0  0  0  0  0  0  0  0  0  0  0  0
   -1.1657    1.3170   -3.6654 H   0  0  0  0  0  0  0  0  0  0  0  0
   -2.2097    2.5792   -2.9905 H   0  0  0  0  0  0  0  0  0  0  0  0
   -0.4435    2.7369   -2.8772 H   0  0  0  0  0  0  0  0  0  0  0  0
    0.5224   -0.4546    1.0016 C   0  0  0  0  0  0  0  0  0  0  0  0
    1.7214   -0.4146    1.2455 O   0  0  0  0  0  0  0  0  0  0  0  0
   -0.3666    0.0166    1.9501 N   0  0  0  0  0  0  0  0  0  0  0  0
   -1.3508   -0.1033    1.7361 H   0  0  0  0  0  0  0  0  0  0  0  0
    0.0216    0.3151    3.3224 C   0  0  0  0  0  0  0  0  0  0  0  0
    0.7932    1.0918    3.3433 H   0  0  0  0  0  0  0  0  0  0  0  0
   -0.8424    0.6731    3.8899 H   0  0  0  0  0  0  0  0  0  0  0  0
    0.4117   -0.5832    3.8123 H   0  0  0  0  0  0  0  0  0  0  0  0
  1  2  1  0  0  0  0
  2  3  1  0  0  0  0
  2  4  1  0  0  0  0
  2  5  1  0  0  0  0
  5  6  2  0  0  0  0
  5  7  1  0  0  0  0
  7  8  1  0  0  0  0
  7  9  1  0  0  0  0
  9 10  1  0  0  0  0
  9 11  1  0  0  0  0
  9 24  1  0  0  0  0
 11 12  1  0  0  0  0
 11 13  1  0  0  0  0
 11 14  1  0  0  0  0
 14 15  1  0  0  0  0
 14 16  1  0  0  0  0
 14 20  1  0  0  0  0
 16 17  1  0  0  0  0
 16 18  1  0  0  0  0
 16 19  1  0  0  0  0
 20 21  1  0  0  0  0
 20 22  1  0  0  0  0
 20 23  1  0  0  0  0
 24 25  2  0  0  0  0
 24 26  1  0  0  0  0
 26 27  1  0  0  0  0
 26 28  1  0  0  0  0
 28 29  1  0  0  0  0
 28 30  1  0  0  0  0
 28 31  1  0  0  0  0
M  END
$$$$

  -OEChem-04042216013D

 31 30  0     1  0  0  0  0  0999 V2000
   -2.7480   -4.4357    0.2620 H   0  0  0  0  0  0  0  0  0  0  0  0
   -2.7461   -3.4609   -0.2340 C   0  0  0  0  0  0  0  0  0  0  0  0
   -3.5832   -2.8710    0.1466 H   0  0  0  0  0  0  0  0  0  0  0  0
   -2.8740   -3.6139   -1.3082 H   0  0  0  0  0  0  0  0  0  0  0  0
   -1.4382   -2.7414    0.0356 C   0  0  0  0  0  0  0  0  0  0  0  0
   -0.6009   -3.2568    0.7537 O   0  0  0  0  0  0  0  0  0  0  0  0
   -1.2111   -1.5038   -0.5346 N   0  0  0  0  0  0  0  0  0  0  0  0
   -1.9007   -1.1838   -1.2076 H   0  0  0  0  0  0  0  0  0  0  0  0
    0.0708   -0.7747   -0.4642 C   0  0  1  0  0  0  0  0  0  0  0  0
    0.8483   -1.4285   -0.8753 H   0  0  0  0  0  0  0  0  0  0  0  0
    0.0701    0.5328   -1.2995 C   0  0  0  0  0  0  0  0  0  0  0  0
    0.8282    1.2197   -0.9059 H   0  0  0  0  0  0  0  0  0  0  0  0
    0.4204    0.2457   -2.2966 H   0  0  0  0  0  0  0  0  0  0  0  0
   -1.2855    1.2785   -1.4679 C   0  0  0  0  0  0  0  0  0  0  0  0
   -2.1364    0.6510   -1.1965 H   0  0  0  0  0  0  0  0  0  0  0  0
   -1.3148    2.5272   -0.5775 C   0  0  0  0  0  0  0  0  0  0  0  0
   -0.5042    3.2137   -0.8426 H   0  0  0  0  0  0  0  0  0  0  0  0
   -2.2665    3.0551   -0.6925 H   0  0  0  0  0  0  0  0  0  0  0  0
   -1.2036    2.2510    0.4746 H   0  0  0  0  0  0  0  0  0  0  0  0
   -1.4746    1.7106   -2.9278 C   0  0  0  0  0  0  0  0  0  0  0  0
   -1.5101    0.8351   -3.5837 H   0  0  0  0  0  0  0  0  0  0  0  0
   -2.4126    2.2625   -3.0449 H   0  0  0  0  0  0  0  0  0  0  0  0
   -0.6502    2.3549   -3.2506 H   0  0  0  0  0  0  0  0  0  0  0  0
    0.5155   -0.4559    0.9822 C   0  0  0  0  0  0  0  0  0  0  0  0
    1.7088   -0.4130    1.2526 O   0  0  0  0  0  0  0  0  0  0  0  0
   -0.3973    0.0393    1.8960 N   0  0  0  0  0  0  0  0  0  0  0  0
   -1.3762   -0.0863    1.6616 H   0  0  0  0  0  0  0  0  0  0  0  0
   -0.0400    0.3696    3.2693 C   0  0  0  0  0  0  0  0  0  0  0  0
    0.7390    1.1389    3.2884 H   0  0  0  0  0  0  0  0  0  0  0  0
   -0.9134    0.7510    3.8065 H   0  0  0  0  0  0  0  0  0  0  0  0
    0.3292   -0.5195    3.7912 H   0  0  0  0  0  0  0  0  0  0  0  0
  1  2  1  0  0  0  0
  2  3  1  0  0  0  0
  2  4  1  0  0  0  0
  2  5  1  0  0  0  0
  5  6  2  0  0  0  0
  5  7  1  0  0  0  0
  7  8  1  0  0  0  0
  7  9  1  0  0  0  0
  9 10  1  0  0  0  0
  9 11  1  0  0  0  0
  9 24  1  0  0  0  0
 11 12  1  0  0  0  0
 11 13  1  0  0  0  0
 11 14  1  0  0  0  0
 14 15  1  0  0  0  0
 14 16  1  0  0  0  0
 14 20  1  0  0  0  0
 16 17  1  0  0  0  0
 16 18  1  0  0  0  0
 16 19  1  0  0  0  0
 20 21  1  0  0  0  0
 20 22  1  0  0  0  0
 20 23  1  0  0  0  0
 24 25  2  0  0  0  0
 24 26  1  0  0  0  0
 26 27  1  0  0  0  0
 26 28  1  0  0  0  0
 28 29  1  0  0  0  0
 28 30  1  0  0  0  0
 28 31  1  0  0  0  0
M  END
$$$$

  -OEChem-04042216013D

 31 30  0     1  0  0  0  0  0999 V2000
   -2.7663   -4.4128    0.2461 H   0  0  0  0  0  0  0  0  0  0  0  0
   -2.7497   -3.4403   -0.2544 C   0  0  0  0  0  0  0  0  0  0  0  0
   -3.5839   -2.8398    0.1160 H   0  0  0  0  0  0  0  0  0  0  0  0
   -2.8693   -3.5967   -1.3292 H   0  0  0  0  0  0  0  0  0  0  0  0
   -1.4366   -2.7332    0.0233 C   0  0  0  0  0  0  0  0  0  0  0  0
   -0.6125   -3.2509    0.7547 O   0  0  0  0  0  0  0  0  0  0  0  0
   -1.1894   -1.5041   -0.5562 N   0  0  0  0  0  0  0  0  0  0  0  0
   -1.8711   -1.1777   -1.2344 H   0  0  0  0  0  0  0  0  0  0  0  0
    0.0981   -0.7852   -0.4751 C   0  0  1  0  0  0  0  0  0  0  0  0
    0.8791   -1.4385   -0.8806 H   0  0  0  0  0  0  0  0  0  0  0  0
    0.0952    0.5274   -1.2997 C   0  0  0  0  0  0  0  0  0  0  0  0
    0.8453    1.2111   -0.8850 H   0  0  0  0  0  0  0  0  0  0  0  0
    0.4561    0.2692   -2.3006 H   0  0  0  0  0  0  0  0  0  0  0  0
   -1.2698    1.2602   -1.4465 C   0  0  0  0  0  0  0  0  0  0  0  0
   -2.0592    0.7481   -0.8917 H   0  0  0  0  0  0  0  0  0  0  0  0
   -1.1704    2.6711   -0.8551 C   0  0  0  0  0  0  0  0  0  0  0  0
   -0.4114    3.2588   -1.3817 H   0  0  0  0  0  0  0  0  0  0  0  0
   -2.1305    3.1895   -0.9391 H   0  0  0  0  0  0  0  0  0  0  0  0
   -0.8992    2.6215    0.2044 H   0  0  0  0  0  0  0  0  0  0  0  0
   -1.6937    1.3388   -2.9180 C   0  0  0  0  0  0  0  0  0  0  0  0
   -1.7987    0.3342   -3.3394 H   0  0  0  0  0  0  0  0  0  0  0  0
   -2.6557    1.8526   -3.0110 H   0  0  0  0  0  0  0  0  0  0  0  0
   -0.9500    1.8874   -3.5051 H   0  0  0  0  0  0  0  0  0  0  0  0
    0.5228   -0.4555    0.9748 C   0  0  0  0  0  0  0  0  0  0  0  0
    1.7115   -0.4200    1.2653 O   0  0  0  0  0  0  0  0  0  0  0  0
   -0.4023    0.0575    1.8666 N   0  0  0  0  0  0  0  0  0  0  0  0
   -1.3779   -0.0622    1.6161 H   0  0  0  0  0  0  0  0  0  0  0  0
   -0.0664    0.4047    3.2413 C   0  0  0  0  0  0  0  0  0  0  0  0
    0.7182    1.1685    3.2637 H   0  0  0  0  0  0  0  0  0  0  0  0
   -0.9462    0.8003    3.7574 H   0  0  0  0  0  0  0  0  0  0  0  0
    0.2871   -0.4794    3.7824 H   0  0  0  0  0  0  0  0  0  0  0  0
  1  2  1  0  0  0  0
  2  3  1  0  0  0  0
  2  4  1  0  0  0  0
  2  5  1  0  0  0  0
  5  6  2  0  0  0  0
  5  7  1  0  0  0  0
  7  8  1  0  0  0  0
  7  9  1  0  0  0  0
  9 10  1  0  0  0  0
  9 11  1  0  0  0  0
  9 24  1  0  0  0  0
 11 12  1  0  0  0  0
 11 13  1  0  0  0  0
 11 14  1  0  0  0  0
 14 15  1  0  0  0  0
 14 16  1  0  0  0  0
 14 20  1  0  0  0  0
 16 17  1  0  0  0  0
 16 18  1  0  0  0  0
 16 19  1  0  0  0  0
 20 21  1  0  0  0  0
 20 22  1  0  0  0  0
 20 23  1  0  0  0  0
 24 25  2  0  0  0  0
 24 26  1  0  0  0  0
 26 27  1  0  0  0  0
 26 28  1  0  0  0  0
 28 29  1  0  0  0  0
 28 30  1  0  0  0  0
 28 31  1  0  0  0  0
M  END
$$$$

  -OEChem-04042216013D

 31 30  0     1  0  0  0  0  0999 V2000
   -2.7847   -4.3831    0.2267 H   0  0  0  0  0  0  0  0  0  0  0  0
   -2.7580   -3.4084   -0.2688 C   0  0  0  0  0  0  0  0  0  0  0  0
   -3.5829   -2.7993    0.1083 H   0  0  0  0  0  0  0  0  0  0  0  0
   -2.8840   -3.5579   -1.3437 H   0  0  0  0  0  0  0  0  0  0  0  0
   -1.4353   -2.7190    0.0070 C   0  0  0  0  0  0  0  0  0  0  0  0
   -0.6140   -3.2502    0.7317 O   0  0  0  0  0  0  0  0  0  0  0  0
   -1.1760   -1.4895   -0.5656 N   0  0  0  0  0  0  0  0  0  0  0  0
   -1.8626   -1.1408   -1.2276 H   0  0  0  0  0  0  0  0  0  0  0  0
    0.1142   -0.7774   -0.4726 C   0  0  1  0  0  0  0  0  0  0  0  0
    0.8949   -1.4318   -0.8757 H   0  0  0  0  0  0  0  0  0  0  0  0
    0.1113    0.5311   -1.3022 C   0  0  0  0  0  0  0  0  0  0  0  0
    0.8418    1.2213   -0.8644 H   0  0  0  0  0  0  0  0  0  0  0  0
    0.4878    0.2943   -2.3028 H   0  0  0  0  0  0  0  0  0  0  0  0
   -1.2630    1.2392   -1.4450 C   0  0  0  0  0  0  0  0  0  0  0  0
   -1.9529    0.8843   -0.6735 H   0  0  0  0  0  0  0  0  0  0  0  0
   -1.1059    2.7460   -1.2129 C   0  0  0  0  0  0  0  0  0  0  0  0
   -0.4127    3.1788   -1.9414 H   0  0  0  0  0  0  0  0  0  0  0  0
   -2.0721    3.2508   -1.3099 H   0  0  0  0  0  0  0  0  0  0  0  0
   -0.7195    2.9378   -0.2067 H   0  0  0  0  0  0  0  0  0  0  0  0
   -1.8837    0.9732   -2.8223 C   0  0  0  0  0  0  0  0  0  0  0  0
   -2.0072   -0.1011   -2.9883 H   0  0  0  0  0  0  0  0  0  0  0  0
   -2.8676    1.4475   -2.8942 H   0  0  0  0  0  0  0  0  0  0  0  0
   -1.2468    1.3760   -3.6166 H   0  0  0  0  0  0  0  0  0  0  0  0
    0.5338   -0.4526    0.9797 C   0  0  0  0  0  0  0  0  0  0  0  0
    1.7211   -0.4266    1.2767 O   0  0  0  0  0  0  0  0  0  0  0  0
   -0.3929    0.0635    1.8678 N   0  0  0  0  0  0  0  0  0  0  0  0
   -1.3680   -0.0517    1.6133 H   0  0  0  0  0  0  0  0  0  0  0  0
   -0.0621    0.4039    3.2453 C   0  0  0  0  0  0  0  0  0  0  0  0
    0.7255    1.1643    3.2742 H   0  0  0  0  0  0  0  0  0  0  0  0
   -0.9428    0.8011    3.7589 H   0  0  0  0  0  0  0  0  0  0  0  0
    0.2850   -0.4839    3.7845 H   0  0  0  0  0  0  0  0  0  0  0  0
  1  2  1  0  0  0  0
  2  3  1  0  0  0  0
  2  4  1  0  0  0  0
  2  5  1  0  0  0  0
  5  6  2  0  0  0  0
  5  7  1  0  0  0  0
  7  8  1  0  0  0  0
  7  9  1  0  0  0  0
  9 10  1  0  0  0  0
  9 11  1  0  0  0  0
  9 24  1  0  0  0  0
 11 12  1  0  0  0  0
 11 13  1  0  0  0  0
 11 14  1  0  0  0  0
 14 15  1  0  0  0  0
 14 16  1  0  0  0  0
 14 20  1  0  0  0  0
 16 17  1  0  0  0  0
 16 18  1  0  0  0  0
 16 19  1  0  0  0  0
 20 21  1  0  0  0  0
 20 22  1  0  0  0  0
 20 23  1  0  0  0  0
 24 25  2  0  0  0  0
 24 26  1  0  0  0  0
 26 27  1  0  0  0  0
 26 28  1  0  0  0  0
 28 29  1  0  0  0  0
 28 30  1  0  0  0  0
 28 31  1  0  0  0  0
M  END
$$$$

  -OEChem-04042216013D

 31 30  0     1  0  0  0  0  0999 V2000
   -2.7587   -4.4007    0.2885 H   0  0  0  0  0  0  0  0  0  0  0  0
   -2.7473   -3.4266   -0.2091 C   0  0  0  0  0  0  0  0  0  0  0  0
   -3.5550   -2.8140    0.1984 H   0  0  0  0  0  0  0  0  0  0  0  0
   -2.9156   -3.5770   -1.2782 H   0  0  0  0  0  0  0  0  0  0  0  0
   -1.4118   -2.7423    0.0149 C   0  0  0  0  0  0  0  0  0  0  0  0
   -0.5611   -3.2818    0.6985 O   0  0  0  0  0  0  0  0  0  0  0  0
   -1.1741   -1.5070   -0.5546 N   0  0  0  0  0  0  0  0  0  0  0  0
   -1.9021   -1.1289   -1.1518 H   0  0  0  0  0  0  0  0  0  0  0  0
    0.1047   -0.7758   -0.4712 C   0  0  1  0  0  0  0  0  0  0  0  0
    0.8900   -1.4237   -0.8766 H   0  0  0  0  0  0  0  0  0  0  0  0
    0.0971    0.5310   -1.3060 C   0  0  0  0  0  0  0  0  0  0  0  0
    0.8151    1.2286   -0.8590 H   0  0  0  0  0  0  0  0  0  0  0  0
    0.4810    0.2997   -2.3049 H   0  0  0  0  0  0  0  0  0  0  0  0
   -1.2770    1.2306   -1.4593 C   0  0  0  0  0  0  0  0  0  0  0  0
   -1.8828    1.0570   -0.5638 H   0  0  0  0  0  0  0  0  0  0  0  0
   -1.0700    2.7438   -1.5996 C   0  0  0  0  0  0  0  0  0  0  0  0
   -0.4442    2.9708   -2.4685 H   0  0  0  0  0  0  0  0  0  0  0  0
   -2.0314    3.2527   -1.7206 H   0  0  0  0  0  0  0  0  0  0  0  0
   -0.5827    3.1460   -0.7057 H   0  0  0  0  0  0  0  0  0  0  0  0
   -2.0360    0.7323   -2.7015 C   0  0  0  0  0  0  0  0  0  0  0  0
   -2.1956   -0.3477   -2.6718 H   0  0  0  0  0  0  0  0  0  0  0  0
   -3.0148    1.2181   -2.7651 H   0  0  0  0  0  0  0  0  0  0  0  0
   -1.4754    0.9668   -3.6123 H   0  0  0  0  0  0  0  0  0  0  0  0
    0.5289   -0.4514    0.9800 C   0  0  0  0  0  0  0  0  0  0  0  0
    1.7173   -0.4091    1.2705 O   0  0  0  0  0  0  0  0  0  0  0  0
   -0.3998    0.0458    1.8771 N   0  0  0  0  0  0  0  0  0  0  0  0
   -1.3746   -0.0792    1.6271 H   0  0  0  0  0  0  0  0  0  0  0  0
   -0.0652    0.3840    3.2543 C   0  0  0  0  0  0  0  0  0  0  0  0
    0.7130    1.1541    3.2824 H   0  0  0  0  0  0  0  0  0  0  0  0
   -0.9478    0.7679    3.7744 H   0  0  0  0  0  0  0  0  0  0  0  0
    0.2960   -0.5018    3.7877 H   0  0  0  0  0  0  0  0  0  0  0  0
  1  2  1  0  0  0  0
  2  3  1  0  0  0  0
  2  4  1  0  0  0  0
  2  5  1  0  0  0  0
  5  6  2  0  0  0  0
  5  7  1  0  0  0  0
  7  8  1  0  0  0  0
  7  9  1  0  0  0  0
  9 10  1  0  0  0  0
  9 11  1  0  0  0  0
  9 24  1  0  0  0  0
 11 12  1  0  0  0  0
 11 13  1  0  0  0  0
 11 14  1  0  0  0  0
 14 15  1  0  0  0  0
 14 16  1  0  0  0  0
 14 20  1  0  0  0  0
 16 17  1  0  0  0  0
 16 18  1  0  0  0  0
 16 19  1  0  0  0  0
 20 21  1  0  0  0  0
 20 22  1  0  0  0  0
 20 23  1  0  0  0  0
 24 25  2  0  0  0  0
 24 26  1  0  0  0  0
 26 27  1  0  0  0  0
 26 28  1  0  0  0  0
 28 29  1  0  0  0  0
 28 30  1  0  0  0  0
 28 31  1  0  0  0  0
M  END
$$$$

  -OEChem-04042216013D

 31 30  0     1  0  0  0  0  0999 V2000
   -2.6549   -4.5079    0.2997 H   0  0  0  0  0  0  0  0  0  0  0  0
   -2.6764   -3.5353   -0.2004 C   0  0  0  0  0  0  0  0  0  0  0  0
   -3.5305   -2.9659    0.1736 H   0  0  0  0  0  0  0  0  0  0  0  0
   -2.7950   -3.6963   -1.2745 H   0  0  0  0  0  0  0  0  0  0  0  0
   -1.3893   -2.7800    0.0720 C   0  0  0  0  0  0  0  0  0  0  0  0
   -0.5447   -3.2666    0.8013 O   0  0  0  0  0  0  0  0  0  0  0  0
   -1.1885   -1.5457   -0.5148 N   0  0  0  0  0  0  0  0  0  0  0  0
   -1.8775   -1.2600   -1.1999 H   0  0  0  0  0  0  0  0  0  0  0  0
    0.0761   -0.7918   -0.4634 C   0  0  1  0  0  0  0  0  0  0  0  0
    0.8650   -1.4305   -0.8769 H   0  0  0  0  0  0  0  0  0  0  0  0
    0.0473    0.5197   -1.2937 C   0  0  0  0  0  0  0  0  0  0  0  0
    0.7780    1.2122   -0.8601 H   0  0  0  0  0  0  0  0  0  0  0  0
    0.4154    0.2806   -2.2967 H   0  0  0  0  0  0  0  0  0  0  0  0
   -1.3095    1.2571   -1.4550 C   0  0  0  0  0  0  0  0  0  0  0  0
   -1.8056    1.3319   -0.4814 H   0  0  0  0  0  0  0  0  0  0  0  0
   -1.0163    2.6759   -1.9660 C   0  0  0  0  0  0  0  0  0  0  0  0
   -0.5178    2.6418   -2.9402 H   0  0  0  0  0  0  0  0  0  0  0  0
   -1.9432    3.2488   -2.0690 H   0  0  0  0  0  0  0  0  0  0  0  0
   -0.3689    3.2100   -1.2633 H   0  0  0  0  0  0  0  0  0  0  0  0
   -2.2659    0.6048   -2.4748 C   0  0  0  0  0  0  0  0  0  0  0  0
   -2.7812   -0.2603   -2.0564 H   0  0  0  0  0  0  0  0  0  0  0  0
   -3.0418    1.3151   -2.7780 H   0  0  0  0  0  0  0  0  0  0  0  0
   -1.7204    0.2927   -3.3711 H   0  0  0  0  0  0  0  0  0  0  0  0
    0.5170   -0.4491    0.9794 C   0  0  0  0  0  0  0  0  0  0  0  0
    1.7093   -0.3785    1.2490 O   0  0  0  0  0  0  0  0  0  0  0  0
   -0.4069    0.0372    1.8870 N   0  0  0  0  0  0  0  0  0  0  0  0
   -1.3826   -0.1175    1.6567 H   0  0  0  0  0  0  0  0  0  0  0  0
   -0.0560    0.4048    3.2525 C   0  0  0  0  0  0  0  0  0  0  0  0
    0.6761    1.2191    3.2539 H   0  0  0  0  0  0  0  0  0  0  0  0
   -0.9452    0.7404    3.7943 H   0  0  0  0  0  0  0  0  0  0  0  0
    0.3705   -0.4538    3.7818 H   0  0  0  0  0  0  0  0  0  0  0  0
  1  2  1  0  0  0  0
  2  3  1  0  0  0  0
  2  4  1  0  0  0  0
  2  5  1  0  0  0  0
  5  6  2  0  0  0  0
  5  7  1  0  0  0  0
  7  8  1  0  0  0  0
  7  9  1  0  0  0  0
  9 10  1  0  0  0  0
  9 11  1  0  0  0  0
  9 24  1  0  0  0  0
 11 12  1  0  0  0  0
 11 13  1  0  0  0  0
 11 14  1  0  0  0  0
 14 15  1  0  0  0  0
 14 16  1  0  0  0  0
 14 20  1  0  0  0  0
 16 17  1  0  0  0  0
 16 18  1  0  0  0  0
 16 19  1  0  0  0  0
 20 21  1  0  0  0  0
 20 22  1  0  0  0  0
 20 23  1  0  0  0  0
 24 25  2  0  0  0  0
 24 26  1  0  0  0  0
 26 27  1  0  0  0  0
 26 28  1  0  0  0  0
 28 29  1  0  0  0  0
 28 30  1  0  0  0  0
 28 31  1  0  0  0  0
M  END
$$$$

  -OEChem-04042216013D

 31 30  0     1  0  0  0  0  0999 V2000
   -2.6178   -4.5202    0.2844 H   0  0  0  0  0  0  0  0  0  0  0  0
   -2.6459   -3.5473   -0.2149 C   0  0  0  0  0  0  0  0  0  0  0  0
   -3.4922   -2.9765    0.1748 H   0  0  0  0  0  0  0  0  0  0  0  0
   -2.7840   -3.7069   -1.2870 H   0  0  0  0  0  0  0  0  0  0  0  0
   -1.3524   -2.7952    0.0359 C   0  0  0  0  0  0  0  0  0  0  0  0
   -0.4879   -3.2931    0.7336 O   0  0  0  0  0  0  0  0  0  0  0  0
   -1.1699   -1.5468   -0.5260 N   0  0  0  0  0  0  0  0  0  0  0  0
   -1.8848   -1.2328   -1.1745 H   0  0  0  0  0  0  0  0  0  0  0  0
    0.0820   -0.7740   -0.4608 C   0  0  1  0  0  0  0  0  0  0  0  0
    0.8771   -1.3962   -0.8871 H   0  0  0  0  0  0  0  0  0  0  0  0
    0.0380    0.5450   -1.2749 C   0  0  0  0  0  0  0  0  0  0  0  0
    0.9278    1.1302   -1.0148 H   0  0  0  0  0  0  0  0  0  0  0  0
    0.1448    0.2658   -2.3282 H   0  0  0  0  0  0  0  0  0  0  0  0
   -1.2063    1.4707   -1.1672 C   0  0  0  0  0  0  0  0  0  0  0  0
   -1.2992    1.8212   -0.1339 H   0  0  0  0  0  0  0  0  0  0  0  0
   -0.9589    2.6857   -2.0740 C   0  0  0  0  0  0  0  0  0  0  0  0
   -0.8862    2.3798   -3.1228 H   0  0  0  0  0  0  0  0  0  0  0  0
   -1.7742    3.4099   -1.9788 H   0  0  0  0  0  0  0  0  0  0  0  0
   -0.0277    3.1887   -1.7941 H   0  0  0  0  0  0  0  0  0  0  0  0
   -2.5463    0.8466   -1.5946 C   0  0  0  0  0  0  0  0  0  0  0  0
   -2.9543    0.2159   -0.8009 H   0  0  0  0  0  0  0  0  0  0  0  0
   -3.2883    1.6270   -1.7919 H   0  0  0  0  0  0  0  0  0  0  0  0
   -2.4236    0.2522   -2.5056 H   0  0  0  0  0  0  0  0  0  0  0  0
    0.5247   -0.4492    0.9847 C   0  0  0  0  0  0  0  0  0  0  0  0
    1.7170   -0.3722    1.2519 O   0  0  0  0  0  0  0  0  0  0  0  0
   -0.4011    0.0065    1.9064 N   0  0  0  0  0  0  0  0  0  0  0  0
   -1.3754   -0.1554    1.6755 H   0  0  0  0  0  0  0  0  0  0  0  0
   -0.0512    0.3339    3.2824 C   0  0  0  0  0  0  0  0  0  0  0  0
    0.7100    1.1208    3.3086 H   0  0  0  0  0  0  0  0  0  0  0  0
   -0.9334    0.6911    3.8220 H   0  0  0  0  0  0  0  0  0  0  0  0
    0.3380   -0.5509    3.7970 H   0  0  0  0  0  0  0  0  0  0  0  0
  1  2  1  0  0  0  0
  2  3  1  0  0  0  0
  2  4  1  0  0  0  0
  2  5  1  0  0  0  0
  5  6  2  0  0  0  0
  5  7  1  0  0  0  0
  7  8  1  0  0  0  0
  7  9  1  0  0  0  0
  9 10  1  0  0  0  0
  9 11  1  0  0  0  0
  9 24  1  0  0  0  0
 11 12  1  0  0  0  0
 11 13  1  0  0  0  0
 11 14  1  0  0  0  0
 14 15  1  0  0  0  0
 14 16  1  0  0  0  0
 14 20  1  0  0  0  0
 16 17  1  0  0  0  0
 16 18  1  0  0  0  0
 16 19  1  0  0  0  0
 20 21  1  0  0  0  0
 20 22  1  0  0  0  0
 20 23  1  0  0  0  0
 24 25  2  0  0  0  0
 24 26  1  0  0  0  0
 26 27  1  0  0  0  0
 26 28  1  0  0  0  0
 28 29  1  0  0  0  0
 28 30  1  0  0  0  0
 28 31  1  0  0  0  0
M  END
$$$$

  -OEChem-04042216013D

 31 30  0     1  0  0  0  0  0999 V2000
   -2.5780   -4.5628    0.3109 H   0  0  0  0  0  0  0  0  0  0  0  0
   -2.6228   -3.5896   -0.1864 C   0  0  0  0  0  0  0  0  0  0  0  0
   -3.4632   -3.0242    0.2229 H   0  0  0  0  0  0  0  0  0  0  0  0
   -2.7835   -3.7488   -1.2552 H   0  0  0  0  0  0  0  0  0  0  0  0
   -1.3285   -2.8304    0.0363 C   0  0  0  0  0  0  0  0  0  0  0  0
   -0.4450   -3.3259    0.7117 O   0  0  0  0  0  0  0  0  0  0  0  0
   -1.1674   -1.5784   -0.5244 N   0  0  0  0  0  0  0  0  0  0  0  0
   -1.9053   -1.2580   -1.1434 H   0  0  0  0  0  0  0  0  0  0  0  0
    0.0764   -0.7906   -0.4720 C   0  0  1  0  0  0  0  0  0  0  0  0
    0.8729   -1.4032   -0.9091 H   0  0  0  0  0  0  0  0  0  0  0  0
    0.0237    0.5404   -1.2686 C   0  0  0  0  0  0  0  0  0  0  0  0
    0.9228    1.1199   -1.0298 H   0  0  0  0  0  0  0  0  0  0  0  0
    0.1121    0.2514   -2.3210 H   0  0  0  0  0  0  0  0  0  0  0  0
   -1.2051    1.4923   -1.1623 C   0  0  0  0  0  0  0  0  0  0  0  0
   -1.1293    2.0374   -0.2150 H   0  0  0  0  0  0  0  0  0  0  0  0
   -1.1218    2.4963   -2.3216 C   0  0  0  0  0  0  0  0  0  0  0  0
   -1.2418    1.9901   -3.2850 H   0  0  0  0  0  0  0  0  0  0  0  0
   -1.9035    3.2569   -2.2293 H   0  0  0  0  0  0  0  0  0  0  0  0
   -0.1528    3.0058   -2.3151 H   0  0  0  0  0  0  0  0  0  0  0  0
   -2.6021    0.8549   -1.2257 C   0  0  0  0  0  0  0  0  0  0  0  0
   -2.8267    0.3180   -0.3001 H   0  0  0  0  0  0  0  0  0  0  0  0
   -3.3687    1.6280   -1.3406 H   0  0  0  0  0  0  0  0  0  0  0  0
   -2.6776    0.1705   -2.0764 H   0  0  0  0  0  0  0  0  0  0  0  0
    0.5279   -0.4668    0.9707 C   0  0  0  0  0  0  0  0  0  0  0  0
    1.7214   -0.3757    1.2281 O   0  0  0  0  0  0  0  0  0  0  0  0
   -0.3958   -0.0261    1.9016 N   0  0  0  0  0  0  0  0  0  0  0  0
   -1.3708   -0.1889    1.6746 H   0  0  0  0  0  0  0  0  0  0  0  0
   -0.0383    0.3047    3.2747 C   0  0  0  0  0  0  0  0  0  0  0  0
    0.7152    1.0993    3.2943 H   0  0  0  0  0  0  0  0  0  0  0  0
   -0.9194    0.6531    3.8217 H   0  0  0  0  0  0  0  0  0  0  0  0
    0.3646   -0.5756    3.7865 H   0  0  0  0  0  0  0  0  0  0  0  0
  1  2  1  0  0  0  0
  2  3  1  0  0  0  0
  2  4  1  0  0  0  0
  2  5  1  0  0  0  0
  5  6  2  0  0  0  0
  5  7  1  0  0  0  0
  7  8  1  0  0  0  0
  7  9  1  0  0  0  0
  9 10  1  0  0  0  0
  9 11  1  0  0  0  0
  9 24  1  0  0  0  0
 11 12  1  0  0  0  0
 11 13  1  0  0  0  0
 11 14  1  0  0  0  0
 14 15  1  0  0  0  0
 14 16  1  0  0  0  0
 14 20  1  0  0  0  0
 16 17  1  0  0  0  0
 16 18  1  0  0  0  0
 16 19  1  0  0  0  0
 20 21  1  0  0  0  0
 20 22  1  0  0  0  0
 20 23  1  0  0  0  0
 24 25  2  0  0  0  0
 24 26  1  0  0  0  0
 26 27  1  0  0  0  0
 26 28  1  0  0  0  0
 28 29  1  0  0  0  0
 28 30  1  0  0  0  0
 28 31  1  0  0  0  0
M  END
$$$$

  -OEChem-04042216013D

 31 30  0     1  0  0  0  0  0999 V2000
   -2.5694   -4.5794    0.3058 H   0  0  0  0  0  0  0  0  0  0  0  0
   -2.6163   -3.6038   -0.1865 C   0  0  0  0  0  0  0  0  0  0  0  0
   -3.4565   -3.0408    0.2273 H   0  0  0  0  0  0  0  0  0  0  0  0
   -2.7791   -3.7580   -1.2559 H   0  0  0  0  0  0  0  0  0  0  0  0
   -1.3222   -2.8447    0.0368 C   0  0  0  0  0  0  0  0  0  0  0  0
   -0.4363   -3.3414    0.7081 O   0  0  0  0  0  0  0  0  0  0  0  0
   -1.1642   -1.5896   -0.5170 N   0  0  0  0  0  0  0  0  0  0  0  0
   -1.9046   -1.2658   -1.1310 H   0  0  0  0  0  0  0  0  0  0  0  0
    0.0777   -0.7986   -0.4617 C   0  0  1  0  0  0  0  0  0  0  0  0
    0.8742   -1.4102   -0.9007 H   0  0  0  0  0  0  0  0  0  0  0  0
    0.0223    0.5310   -1.2611 C   0  0  0  0  0  0  0  0  0  0  0  0
    0.9232    1.1112   -1.0307 H   0  0  0  0  0  0  0  0  0  0  0  0
    0.1161    0.2267   -2.3087 H   0  0  0  0  0  0  0  0  0  0  0  0
   -1.2016    1.4973   -1.1754 C   0  0  0  0  0  0  0  0  0  0  0  0
   -0.9782    2.2252   -0.3876 H   0  0  0  0  0  0  0  0  0  0  0  0
   -1.3329    2.2418   -2.5122 C   0  0  0  0  0  0  0  0  0  0  0  0
   -1.6010    1.5515   -3.3186 H   0  0  0  0  0  0  0  0  0  0  0  0
   -2.1048    3.0151   -2.4470 H   0  0  0  0  0  0  0  0  0  0  0  0
   -0.3867    2.7281   -2.7703 H   0  0  0  0  0  0  0  0  0  0  0  0
   -2.5827    0.9073   -0.8524 C   0  0  0  0  0  0  0  0  0  0  0  0
   -2.5901    0.4537    0.1422 H   0  0  0  0  0  0  0  0  0  0  0  0
   -3.3381    1.6996   -0.8532 H   0  0  0  0  0  0  0  0  0  0  0  0
   -2.8749    0.1621   -1.5982 H   0  0  0  0  0  0  0  0  0  0  0  0
    0.5358   -0.4776    0.9798 C   0  0  0  0  0  0  0  0  0  0  0  0
    1.7306   -0.3825    1.2294 O   0  0  0  0  0  0  0  0  0  0  0  0
   -0.3817   -0.0419    1.9189 N   0  0  0  0  0  0  0  0  0  0  0  0
   -1.3575   -0.2094    1.6996 H   0  0  0  0  0  0  0  0  0  0  0  0
   -0.0159    0.2846    3.2907 C   0  0  0  0  0  0  0  0  0  0  0  0
    0.7343    1.0822    3.3083 H   0  0  0  0  0  0  0  0  0  0  0  0
   -0.8949    0.6268    3.8450 H   0  0  0  0  0  0  0  0  0  0  0  0
    0.3942   -0.5963    3.7961 H   0  0  0  0  0  0  0  0  0  0  0  0
  1  2  1  0  0  0  0
  2  3  1  0  0  0  0
  2  4  1  0  0  0  0
  2  5  1  0  0  0  0
  5  6  2  0  0  0  0
  5  7  1  0  0  0  0
  7  8  1  0  0  0  0
  7  9  1  0  0  0  0
  9 10  1  0  0  0  0
  9 11  1  0  0  0  0
  9 24  1  0  0  0  0
 11 12  1  0  0  0  0
 11 13  1  0  0  0  0
 11 14  1  0  0  0  0
 14 15  1  0  0  0  0
 14 16  1  0  0  0  0
 14 20  1  0  0  0  0
 16 17  1  0  0  0  0
 16 18  1  0  0  0  0
 16 19  1  0  0  0  0
 20 21  1  0  0  0  0
 20 22  1  0  0  0  0
 20 23  1  0  0  0  0
 24 25  2  0  0  0  0
 24 26  1  0  0  0  0
 26 27  1  0  0  0  0
 26 28  1  0  0  0  0
 28 29  1  0  0  0  0
 28 30  1  0  0  0  0
 28 31  1  0  0  0  0
M  END
$$$$

  -OEChem-04042216013D

 31 30  0     1  0  0  0  0  0999 V2000
   -2.5782   -4.5816    0.2568 H   0  0  0  0  0  0  0  0  0  0  0  0
   -2.6230   -3.5989   -0.2214 C   0  0  0  0  0  0  0  0  0  0  0  0
   -3.4725   -3.0470    0.1880 H   0  0  0  0  0  0  0  0  0  0  0  0
   -2.7686   -3.7373   -1.2954 H   0  0  0  0  0  0  0  0  0  0  0  0
   -1.3365   -2.8363    0.0337 C   0  0  0  0  0  0  0  0  0  0  0  0
   -0.4557   -3.3409    0.7058 O   0  0  0  0  0  0  0  0  0  0  0  0
   -1.1808   -1.5676   -0.4883 N   0  0  0  0  0  0  0  0  0  0  0  0
   -1.9153   -1.2348   -1.1049 H   0  0  0  0  0  0  0  0  0  0  0  0
    0.0607   -0.7783   -0.4127 C   0  0  1  0  0  0  0  0  0  0  0  0
    0.8519   -1.3954   -0.8535 H   0  0  0  0  0  0  0  0  0  0  0  0
    0.0114    0.5331   -1.2405 C   0  0  0  0  0  0  0  0  0  0  0  0
    0.9001    1.1244   -0.9914 H   0  0  0  0  0  0  0  0  0  0  0  0
    0.1477    0.2120   -2.2783 H   0  0  0  0  0  0  0  0  0  0  0  0
   -1.2202    1.4979   -1.2096 C   0  0  0  0  0  0  0  0  0  0  0  0
   -0.9047    2.3853   -0.6496 H   0  0  0  0  0  0  0  0  0  0  0  0
   -1.5647    1.9287   -2.6432 C   0  0  0  0  0  0  0  0  0  0  0  0
   -1.9080    1.0737   -3.2347 H   0  0  0  0  0  0  0  0  0  0  0  0
   -2.3547    2.6862   -2.6373 H   0  0  0  0  0  0  0  0  0  0  0  0
   -0.6855    2.3601   -3.1324 H   0  0  0  0  0  0  0  0  0  0  0  0
   -2.5252    1.0158   -0.5554 C   0  0  0  0  0  0  0  0  0  0  0  0
   -2.3534    0.6803    0.4686 H   0  0  0  0  0  0  0  0  0  0  0  0
   -3.2443    1.8400   -0.5137 H   0  0  0  0  0  0  0  0  0  0  0  0
   -2.9816    0.2054   -1.1307 H   0  0  0  0  0  0  0  0  0  0  0  0
    0.5470   -0.4765    1.0252 C   0  0  0  0  0  0  0  0  0  0  0  0
    1.7483   -0.3875    1.2452 O   0  0  0  0  0  0  0  0  0  0  0  0
   -0.3395   -0.0534    1.9987 N   0  0  0  0  0  0  0  0  0  0  0  0
   -1.3211   -0.2264    1.8115 H   0  0  0  0  0  0  0  0  0  0  0  0
    0.0694    0.2532    3.3636 C   0  0  0  0  0  0  0  0  0  0  0  0
    0.8163    1.0541    3.3704 H   0  0  0  0  0  0  0  0  0  0  0  0
   -0.7925    0.5825    3.9514 H   0  0  0  0  0  0  0  0  0  0  0  0
    0.4988   -0.6334    3.8417 H   0  0  0  0  0  0  0  0  0  0  0  0
  1  2  1  0  0  0  0
  2  3  1  0  0  0  0
  2  4  1  0  0  0  0
  2  5  1  0  0  0  0
  5  6  2  0  0  0  0
  5  7  1  0  0  0  0
  7  8  1  0  0  0  0
  7  9  1  0  0  0  0
  9 10  1  0  0  0  0
  9 11  1  0  0  0  0
  9 24  1  0  0  0  0
 11 12  1  0  0  0  0
 11 13  1  0  0  0  0
 11 14  1  0  0  0  0
 14 15  1  0  0  0  0
 14 16  1  0  0  0  0
 14 20  1  0  0  0  0
 16 17  1  0  0  0  0
 16 18  1  0  0  0  0
 16 19  1  0  0  0  0
 20 21  1  0  0  0  0
 20 22  1  0  0  0  0
 20 23  1  0  0  0  0
 24 25  2  0  0  0  0
 24 26  1  0  0  0  0
 26 27  1  0  0  0  0
 26 28  1  0  0  0  0
 28 29  1  0  0  0  0
 28 30  1  0  0  0  0
 28 31  1  0  0  0  0
M  END
$$$$

  -OEChem-04042216013D

 31 30  0     1  0  0  0  0  0999 V2000
   -2.6274   -4.5641    0.1857 H   0  0  0  0  0  0  0  0  0  0  0  0
   -2.6622   -3.5668   -0.2624 C   0  0  0  0  0  0  0  0  0  0  0  0
   -3.5136   -3.0238    0.1544 H   0  0  0  0  0  0  0  0  0  0  0  0
   -2.7969   -3.6715   -1.3416 H   0  0  0  0  0  0  0  0  0  0  0  0
   -1.3749   -2.8190    0.0296 C   0  0  0  0  0  0  0  0  0  0  0  0
   -0.5061   -3.3451    0.7012 O   0  0  0  0  0  0  0  0  0  0  0  0
   -1.2037   -1.5386   -0.4576 N   0  0  0  0  0  0  0  0  0  0  0  0
   -1.9309   -1.1800   -1.0689 H   0  0  0  0  0  0  0  0  0  0  0  0
    0.0443   -0.7648   -0.3512 C   0  0  1  0  0  0  0  0  0  0  0  0
    0.8276   -1.3992   -0.7821 H   0  0  0  0  0  0  0  0  0  0  0  0
    0.0256    0.5202   -1.2181 C   0  0  0  0  0  0  0  0  0  0  0  0
    0.8959    1.1194   -0.9270 H   0  0  0  0  0  0  0  0  0  0  0  0
    0.2243    0.1889   -2.2427 H   0  0  0  0  0  0  0  0  0  0  0  0
   -1.2066    1.4835   -1.2555 C   0  0  0  0  0  0  0  0  0  0  0  0
   -0.8236    2.4748   -0.9878 H   0  0  0  0  0  0  0  0  0  0  0  0
   -1.7468    1.5780   -2.6896 C   0  0  0  0  0  0  0  0  0  0  0  0
   -2.1303    0.6082   -3.0221 H   0  0  0  0  0  0  0  0  0  0  0  0
   -2.5577    2.3111   -2.7474 H   0  0  0  0  0  0  0  0  0  0  0  0
   -0.9553    1.8948   -3.3762 H   0  0  0  0  0  0  0  0  0  0  0  0
   -2.3903    1.2197   -0.3108 C   0  0  0  0  0  0  0  0  0  0  0  0
   -3.0979    2.0529   -0.3681 H   0  0  0  0  0  0  0  0  0  0  0  0
   -2.0576    1.1489    0.7242 H   0  0  0  0  0  0  0  0  0  0  0  0
   -2.9319    0.3108   -0.5825 H   0  0  0  0  0  0  0  0  0  0  0  0
    0.5431   -0.4930    1.0891 C   0  0  0  0  0  0  0  0  0  0  0  0
    1.7475   -0.4103    1.2949 O   0  0  0  0  0  0  0  0  0  0  0  0
   -0.3234   -0.0796    2.0836 N   0  0  0  0  0  0  0  0  0  0  0  0
   -1.3099   -0.2394    1.9098 H   0  0  0  0  0  0  0  0  0  0  0  0
    0.1103    0.2199    3.4423 C   0  0  0  0  0  0  0  0  0  0  0  0
    0.8476    1.0298    3.4399 H   0  0  0  0  0  0  0  0  0  0  0  0
   -0.7430    0.5336    4.0509 H   0  0  0  0  0  0  0  0  0  0  0  0
    0.5607   -0.6656    3.9031 H   0  0  0  0  0  0  0  0  0  0  0  0
  1  2  1  0  0  0  0
  2  3  1  0  0  0  0
  2  4  1  0  0  0  0
  2  5  1  0  0  0  0
  5  6  2  0  0  0  0
  5  7  1  0  0  0  0
  7  8  1  0  0  0  0
  7  9  1  0  0  0  0
  9 10  1  0  0  0  0
  9 11  1  0  0  0  0
  9 24  1  0  0  0  0
 11 12  1  0  0  0  0
 11 13  1  0  0  0  0
 11 14  1  0  0  0  0
 14 15  1  0  0  0  0
 14 16  1  0  0  0  0
 14 20  1  0  0  0  0
 16 17  1  0  0  0  0
 16 18  1  0  0  0  0
 16 19  1  0  0  0  0
 20 21  1  0  0  0  0
 20 22  1  0  0  0  0
 20 23  1  0  0  0  0
 24 25  2  0  0  0  0
 24 26  1  0  0  0  0
 26 27  1  0  0  0  0
 26 28  1  0  0  0  0
 28 29  1  0  0  0  0
 28 30  1  0  0  0  0
 28 31  1  0  0  0  0
M  END
$$$$

  -OEChem-04042216013D

 31 30  0     1  0  0  0  0  0999 V2000
   -2.6680   -4.5162    0.1765 H   0  0  0  0  0  0  0  0  0  0  0  0
   -2.6938   -3.5161   -0.2655 C   0  0  0  0  0  0  0  0  0  0  0  0
   -3.5181   -2.9555    0.1813 H   0  0  0  0  0  0  0  0  0  0  0  0
   -2.8656   -3.6118   -1.3401 H   0  0  0  0  0  0  0  0  0  0  0  0
   -1.3805   -2.8001   -0.0124 C   0  0  0  0  0  0  0  0  0  0  0  0
   -0.4949   -3.3586    0.6092 O   0  0  0  0  0  0  0  0  0  0  0  0
   -1.2023   -1.5132   -0.4796 N   0  0  0  0  0  0  0  0  0  0  0  0
   -1.9536   -1.1158   -1.0354 H   0  0  0  0  0  0  0  0  0  0  0  0
    0.0559   -0.7537   -0.3787 C   0  0  1  0  0  0  0  0  0  0  0  0
    0.8282   -1.3889   -0.8281 H   0  0  0  0  0  0  0  0  0  0  0  0
    0.0209    0.5289   -1.2461 C   0  0  0  0  0  0  0  0  0  0  0  0
    0.8824    1.1359   -0.9456 H   0  0  0  0  0  0  0  0  0  0  0  0
    0.2172    0.2221   -2.2787 H   0  0  0  0  0  0  0  0  0  0  0  0
   -1.2249    1.4670   -1.2427 C   0  0  0  0  0  0  0  0  0  0  0  0
   -0.8241    2.4858   -1.2914 H   0  0  0  0  0  0  0  0  0  0  0  0
   -2.0346    1.2821   -2.5327 C   0  0  0  0  0  0  0  0  0  0  0  0
   -2.4465    0.2698   -2.5867 H   0  0  0  0  0  0  0  0  0  0  0  0
   -2.8628    1.9968   -2.5703 H   0  0  0  0  0  0  0  0  0  0  0  0
   -1.4034    1.4500   -3.4114 H   0  0  0  0  0  0  0  0  0  0  0  0
   -2.1464    1.4514   -0.0148 C   0  0  0  0  0  0  0  0  0  0  0  0
   -1.5861    1.7326    0.8796 H   0  0  0  0  0  0  0  0  0  0  0  0
   -2.9457    2.1879   -0.1432 H   0  0  0  0  0  0  0  0  0  0  0  0
   -2.6162    0.4789    0.1406 H   0  0  0  0  0  0  0  0  0  0  0  0
    0.5741   -0.5149    1.0602 C   0  0  0  0  0  0  0  0  0  0  0  0
    1.7812   -0.4512    1.2553 O   0  0  0  0  0  0  0  0  0  0  0  0
   -0.2781   -0.1122    2.0716 N   0  0  0  0  0  0  0  0  0  0  0  0
   -1.2693   -0.2410    1.8983 H   0  0  0  0  0  0  0  0  0  0  0  0
    0.1691    0.1468    3.4342 C   0  0  0  0  0  0  0  0  0  0  0  0
    0.9250    0.9391    3.4465 H   0  0  0  0  0  0  0  0  0  0  0  0
   -0.6739    0.4664    4.0541 H   0  0  0  0  0  0  0  0  0  0  0  0
    0.6001   -0.7594    3.8729 H   0  0  0  0  0  0  0  0  0  0  0  0
  1  2  1  0  0  0  0
  2  3  1  0  0  0  0
  2  4  1  0  0  0  0
  2  5  1  0  0  0  0
  5  6  2  0  0  0  0
  5  7  1  0  0  0  0
  7  8  1  0  0  0  0
  7  9  1  0  0  0  0
  9 10  1  0  0  0  0
  9 11  1  0  0  0  0
  9 24  1  0  0  0  0
 11 12  1  0  0  0  0
 11 13  1  0  0  0  0
 11 14  1  0  0  0  0
 14 15  1  0  0  0  0
 14 16  1  0  0  0  0
 14 20  1  0  0  0  0
 16 17  1  0  0  0  0
 16 18  1  0  0  0  0
 16 19  1  0  0  0  0
 20 21  1  0  0  0  0
 20 22  1  0  0  0  0
 20 23  1  0  0  0  0
 24 25  2  0  0  0  0
 24 26  1  0  0  0  0
 26 27  1  0  0  0  0
 26 28  1  0  0  0  0
 28 29  1  0  0  0  0
 28 30  1  0  0  0  0
 28 31  1  0  0  0  0
M  END
$$$$

  -OEChem-04042216013D

 31 30  0     1  0  0  0  0  0999 V2000
   -2.6885   -4.4910    0.1912 H   0  0  0  0  0  0  0  0  0  0  0  0
   -2.7115   -3.4898   -0.2489 C   0  0  0  0  0  0  0  0  0  0  0  0
   -3.5262   -2.9236    0.2085 H   0  0  0  0  0  0  0  0  0  0  0  0
   -2.8965   -3.5820   -1.3218 H   0  0  0  0  0  0  0  0  0  0  0  0
   -1.3897   -2.7849   -0.0087 C   0  0  0  0  0  0  0  0  0  0  0  0
   -0.5029   -3.3516    0.6036 O   0  0  0  0  0  0  0  0  0  0  0  0
   -1.2069   -1.4972   -0.4717 N   0  0  0  0  0  0  0  0  0  0  0  0
   -1.9640   -1.0879   -1.0093 H   0  0  0  0  0  0  0  0  0  0  0  0
    0.0538   -0.7431   -0.3675 C   0  0  1  0  0  0  0  0  0  0  0  0
    0.8220   -1.3867   -0.8118 H   0  0  0  0  0  0  0  0  0  0  0  0
    0.0418    0.5349   -1.2451 C   0  0  0  0  0  0  0  0  0  0  0  0
    0.9026    1.1398   -0.9390 H   0  0  0  0  0  0  0  0  0  0  0  0
    0.2392    0.2272   -2.2771 H   0  0  0  0  0  0  0  0  0  0  0  0
   -1.2011    1.4692   -1.2521 C   0  0  0  0  0  0  0  0  0  0  0  0
   -0.8304    2.4581   -1.5444 H   0  0  0  0  0  0  0  0  0  0  0  0
   -2.2087    1.0561   -2.3351 C   0  0  0  0  0  0  0  0  0  0  0  0
   -2.6706    0.0936   -2.1034 H   0  0  0  0  0  0  0  0  0  0  0  0
   -3.0030    1.8051   -2.4151 H   0  0  0  0  0  0  0  0  0  0  0  0
   -1.7161    0.9802   -3.3096 H   0  0  0  0  0  0  0  0  0  0  0  0
   -1.9109    1.6533    0.0930 C   0  0  0  0  0  0  0  0  0  0  0  0
   -1.2063    2.0253    0.8424 H   0  0  0  0  0  0  0  0  0  0  0  0
   -2.7134    2.3911   -0.0054 H   0  0  0  0  0  0  0  0  0  0  0  0
   -2.3543    0.7186    0.4449 H   0  0  0  0  0  0  0  0  0  0  0  0
    0.5721   -0.5113    1.0736 C   0  0  0  0  0  0  0  0  0  0  0  0
    1.7795   -0.4563    1.2692 O   0  0  0  0  0  0  0  0  0  0  0  0
   -0.2765   -0.1090    2.0887 N   0  0  0  0  0  0  0  0  0  0  0  0
   -1.2688   -0.2287    1.9165 H   0  0  0  0  0  0  0  0  0  0  0  0
    0.1742    0.1378    3.4524 C   0  0  0  0  0  0  0  0  0  0  0  0
    0.9274    0.9324    3.4700 H   0  0  0  0  0  0  0  0  0  0  0  0
   -0.6676    0.4482    4.0783 H   0  0  0  0  0  0  0  0  0  0  0  0
    0.6098   -0.7708    3.8810 H   0  0  0  0  0  0  0  0  0  0  0  0
  1  2  1  0  0  0  0
  2  3  1  0  0  0  0
  2  4  1  0  0  0  0
  2  5  1  0  0  0  0
  5  6  2  0  0  0  0
  5  7  1  0  0  0  0
  7  8  1  0  0  0  0
  7  9  1  0  0  0  0
  9 10  1  0  0  0  0
  9 11  1  0  0  0  0
  9 24  1  0  0  0  0
 11 12  1  0  0  0  0
 11 13  1  0  0  0  0
 11 14  1  0  0  0  0
 14 15  1  0  0  0  0
 14 16  1  0  0  0  0
 14 20  1  0  0  0  0
 16 17  1  0  0  0  0
 16 18  1  0  0  0  0
 16 19  1  0  0  0  0
 20 21  1  0  0  0  0
 20 22  1  0  0  0  0
 20 23  1  0  0  0  0
 24 25  2  0  0  0  0
 24 26  1  0  0  0  0
 26 27  1  0  0  0  0
 26 28  1  0  0  0  0
 28 29  1  0  0  0  0
 28 30  1  0  0  0  0
 28 31  1  0  0  0  0
M  END
$$$$

  -OEChem-04042216013D

 31 30  0     1  0  0  0  0  0999 V2000
   -2.6510   -4.5331    0.1844 H   0  0  0  0  0  0  0  0  0  0  0  0
   -2.6808   -3.5318   -0.2546 C   0  0  0  0  0  0  0  0  0  0  0  0
   -3.5233   -2.9846    0.1749 H   0  0  0  0  0  0  0  0  0  0  0  0
   -2.8266   -3.6260   -1.3333 H   0  0  0  0  0  0  0  0  0  0  0  0
   -1.3841   -2.7982    0.0317 C   0  0  0  0  0  0  0  0  0  0  0  0
   -0.5124   -3.3406    0.6864 O   0  0  0  0  0  0  0  0  0  0  0  0
   -1.2056   -1.5150   -0.4456 N   0  0  0  0  0  0  0  0  0  0  0  0
   -1.9311   -1.1498   -1.0533 H   0  0  0  0  0  0  0  0  0  0  0  0
    0.0507   -0.7546   -0.3438 C   0  0  1  0  0  0  0  0  0  0  0  0
    0.8225   -1.4024   -0.7756 H   0  0  0  0  0  0  0  0  0  0  0  0
    0.0525    0.5200   -1.2288 C   0  0  0  0  0  0  0  0  0  0  0  0
    0.9199    1.1200   -0.9311 H   0  0  0  0  0  0  0  0  0  0  0  0
    0.2423    0.1982   -2.2578 H   0  0  0  0  0  0  0  0  0  0  0  0
   -1.1792    1.4666   -1.2622 C   0  0  0  0  0  0  0  0  0  0  0  0
   -0.8427    2.3694   -1.7840 H   0  0  0  0  0  0  0  0  0  0  0  0
   -2.3588    0.9053   -2.0716 C   0  0  0  0  0  0  0  0  0  0  0  0
   -2.9161    0.1535   -1.5080 H   0  0  0  0  0  0  0  0  0  0  0  0
   -3.0529    1.7142   -2.3208 H   0  0  0  0  0  0  0  0  0  0  0  0
   -2.0079    0.4589   -3.0072 H   0  0  0  0  0  0  0  0  0  0  0  0
   -1.6701    1.9019    0.1200 C   0  0  0  0  0  0  0  0  0  0  0  0
   -0.8350    2.2716    0.7232 H   0  0  0  0  0  0  0  0  0  0  0  0
   -2.4022    2.7095    0.0211 H   0  0  0  0  0  0  0  0  0  0  0  0
   -2.1516    1.0719    0.6432 H   0  0  0  0  0  0  0  0  0  0  0  0
    0.5617   -0.5035    1.0966 C   0  0  0  0  0  0  0  0  0  0  0  0
    1.7679   -0.4325    1.2953 O   0  0  0  0  0  0  0  0  0  0  0  0
   -0.2943   -0.0928    2.1018 N   0  0  0  0  0  0  0  0  0  0  0  0
   -1.2846   -0.2284    1.9294 H   0  0  0  0  0  0  0  0  0  0  0  0
    0.1503    0.2006    3.4581 C   0  0  0  0  0  0  0  0  0  0  0  0
    0.8737    1.0227    3.4545 H   0  0  0  0  0  0  0  0  0  0  0  0
   -0.7011    0.4937    4.0794 H   0  0  0  0  0  0  0  0  0  0  0  0
    0.6205   -0.6812    3.9058 H   0  0  0  0  0  0  0  0  0  0  0  0
  1  2  1  0  0  0  0
  2  3  1  0  0  0  0
  2  4  1  0  0  0  0
  2  5  1  0  0  0  0
  5  6  2  0  0  0  0
  5  7  1  0  0  0  0
  7  8  1  0  0  0  0
  7  9  1  0  0  0  0
  9 10  1  0  0  0  0
  9 11  1  0  0  0  0
  9 24  1  0  0  0  0
 11 12  1  0  0  0  0
 11 13  1  0  0  0  0
 11 14  1  0  0  0  0
 14 15  1  0  0  0  0
 14 16  1  0  0  0  0
 14 20  1  0  0  0  0
 16 17  1  0  0  0  0
 16 18  1  0  0  0  0
 16 19  1  0  0  0  0
 20 21  1  0  0  0  0
 20 22  1  0  0  0  0
 20 23  1  0  0  0  0
 24 25  2  0  0  0  0
 24 26  1  0  0  0  0
 26 27  1  0  0  0  0
 26 28  1  0  0  0  0
 28 29  1  0  0  0  0
 28 30  1  0  0  0  0
 28 31  1  0  0  0  0
M  END
$$$$

  -OEChem-04042216013D

 31 30  0     1  0  0  0  0  0999 V2000
   -2.6998   -4.5287    0.2164 H   0  0  0  0  0  0  0  0  0  0  0  0
   -2.7138   -3.5350   -0.2406 C   0  0  0  0  0  0  0  0  0  0  0  0
   -3.5462   -2.9662    0.1807 H   0  0  0  0  0  0  0  0  0  0  0  0
   -2.8633   -3.6461   -1.3172 H   0  0  0  0  0  0  0  0  0  0  0  0
   -1.4047   -2.8177    0.0308 C   0  0  0  0  0  0  0  0  0  0  0  0
   -0.5357   -3.3681    0.6822 O   0  0  0  0  0  0  0  0  0  0  0  0
   -1.2136   -1.5389   -0.4540 N   0  0  0  0  0  0  0  0  0  0  0  0
   -1.9378   -1.1693   -1.0612 H   0  0  0  0  0  0  0  0  0  0  0  0
    0.0496   -0.7887   -0.3581 C   0  0  1  0  0  0  0  0  0  0  0  0
    0.8167   -1.4402   -0.7924 H   0  0  0  0  0  0  0  0  0  0  0  0
    0.0700    0.5022   -1.2214 C   0  0  0  0  0  0  0  0  0  0  0  0
    0.9637    1.0728   -0.9446 H   0  0  0  0  0  0  0  0  0  0  0  0
    0.2225    0.1782   -2.2560 H   0  0  0  0  0  0  0  0  0  0  0  0
   -1.1335    1.4865   -1.2456 C   0  0  0  0  0  0  0  0  0  0  0  0
   -0.8570    2.2672   -1.9629 H   0  0  0  0  0  0  0  0  0  0  0  0
   -2.4585    0.8815   -1.7329 C   0  0  0  0  0  0  0  0  0  0  0  0
   -2.9484    0.2989   -0.9482 H   0  0  0  0  0  0  0  0  0  0  0  0
   -3.1442    1.6826   -2.0263 H   0  0  0  0  0  0  0  0  0  0  0  0
   -2.2900    0.2408   -2.6042 H   0  0  0  0  0  0  0  0  0  0  0  0
   -1.3615    2.1771    0.1028 C   0  0  0  0  0  0  0  0  0  0  0  0
   -0.4110    2.5071    0.5342 H   0  0  0  0  0  0  0  0  0  0  0  0
   -1.8574    1.5070    0.8087 H   0  0  0  0  0  0  0  0  0  0  0  0
   -1.9999    3.0560   -0.0306 H   0  0  0  0  0  0  0  0  0  0  0  0
    0.5521   -0.5406    1.0846 C   0  0  0  0  0  0  0  0  0  0  0  0
    1.7571   -0.4776    1.2936 O   0  0  0  0  0  0  0  0  0  0  0  0
   -0.3118   -0.1207    2.0790 N   0  0  0  0  0  0  0  0  0  0  0  0
   -1.3017   -0.2437    1.8952 H   0  0  0  0  0  0  0  0  0  0  0  0
    0.1213    0.1826    3.4367 C   0  0  0  0  0  0  0  0  0  0  0  0
    0.8638    0.9875    3.4315 H   0  0  0  0  0  0  0  0  0  0  0  0
   -0.7310    0.5050    4.0421 H   0  0  0  0  0  0  0  0  0  0  0  0
    0.5646   -0.7033    3.9032 H   0  0  0  0  0  0  0  0  0  0  0  0
  1  2  1  0  0  0  0
  2  3  1  0  0  0  0
  2  4  1  0  0  0  0
  2  5  1  0  0  0  0
  5  6  2  0  0  0  0
  5  7  1  0  0  0  0
  7  8  1  0  0  0  0
  7  9  1  0  0  0  0
  9 10  1  0  0  0  0
  9 11  1  0  0  0  0
  9 24  1  0  0  0  0
 11 12  1  0  0  0  0
 11 13  1  0  0  0  0
 11 14  1  0  0  0  0
 14 15  1  0  0  0  0
 14 16  1  0  0  0  0
 14 20  1  0  0  0  0
 16 17  1  0  0  0  0
 16 18  1  0  0  0  0
 16 19  1  0  0  0  0
 20 21  1  0  0  0  0
 20 22  1  0  0  0  0
 20 23  1  0  0  0  0
 24 25  2  0  0  0  0
 24 26  1  0  0  0  0
 26 27  1  0  0  0  0
 26 28  1  0  0  0  0
 28 29  1  0  0  0  0
 28 30  1  0  0  0  0
 28 31  1  0  0  0  0
M  END
$$$$

  -OEChem-04042216013D

 31 30  0     1  0  0  0  0  0999 V2000
   -2.6231   -4.5629    0.2330 H   0  0  0  0  0  0  0  0  0  0  0  0
   -2.6586   -3.5693   -0.2230 C   0  0  0  0  0  0  0  0  0  0  0  0
   -3.4889   -3.0106    0.2152 H   0  0  0  0  0  0  0  0  0  0  0  0
   -2.8283   -3.6816   -1.2965 H   0  0  0  0  0  0  0  0  0  0  0  0
   -1.3530   -2.8367    0.0216 C   0  0  0  0  0  0  0  0  0  0  0  0
   -0.4643   -3.3765    0.6550 O   0  0  0  0  0  0  0  0  0  0  0  0
   -1.1879   -1.5568   -0.4700 N   0  0  0  0  0  0  0  0  0  0  0  0
   -1.9358   -1.1911   -1.0504 H   0  0  0  0  0  0  0  0  0  0  0  0
    0.0629   -0.7833   -0.3909 C   0  0  1  0  0  0  0  0  0  0  0  0
    0.8401   -1.4149   -0.8362 H   0  0  0  0  0  0  0  0  0  0  0  0
    0.0548    0.5269   -1.2268 C   0  0  0  0  0  0  0  0  0  0  0  0
    0.9634    1.0886   -0.9826 H   0  0  0  0  0  0  0  0  0  0  0  0
    0.1674    0.2080   -2.2680 H   0  0  0  0  0  0  0  0  0  0  0  0
   -1.1486    1.5161   -1.2210 C   0  0  0  0  0  0  0  0  0  0  0  0
   -1.0049    2.1597   -2.0960 H   0  0  0  0  0  0  0  0  0  0  0  0
   -2.5483    0.8998   -1.3451 C   0  0  0  0  0  0  0  0  0  0  0  0
   -2.8496    0.4046   -0.4172 H   0  0  0  0  0  0  0  0  0  0  0  0
   -3.2814    1.6847   -1.5564 H   0  0  0  0  0  0  0  0  0  0  0  0
   -2.5775    0.1801   -2.1688 H   0  0  0  0  0  0  0  0  0  0  0  0
   -1.1208    2.4305    0.0105 C   0  0  0  0  0  0  0  0  0  0  0  0
   -0.1171    2.8373    0.1689 H   0  0  0  0  0  0  0  0  0  0  0  0
   -1.8092    3.2696   -0.1307 H   0  0  0  0  0  0  0  0  0  0  0  0
   -1.4258    1.8935    0.9106 H   0  0  0  0  0  0  0  0  0  0  0  0
    0.5554   -0.5325    1.0536 C   0  0  0  0  0  0  0  0  0  0  0  0
    1.7573   -0.4537    1.2734 O   0  0  0  0  0  0  0  0  0  0  0  0
   -0.3268   -0.1321    2.0401 N   0  0  0  0  0  0  0  0  0  0  0  0
   -1.3121   -0.2693    1.8426 H   0  0  0  0  0  0  0  0  0  0  0  0
    0.0853    0.1492    3.4092 C   0  0  0  0  0  0  0  0  0  0  0  0
    0.8210    0.9602    3.4296 H   0  0  0  0  0  0  0  0  0  0  0  0
   -0.7778    0.4525    4.0092 H   0  0  0  0  0  0  0  0  0  0  0  0
    0.5299   -0.7421    3.8644 H   0  0  0  0  0  0  0  0  0  0  0  0
  1  2  1  0  0  0  0
  2  3  1  0  0  0  0
  2  4  1  0  0  0  0
  2  5  1  0  0  0  0
  5  6  2  0  0  0  0
  5  7  1  0  0  0  0
  7  8  1  0  0  0  0
  7  9  1  0  0  0  0
  9 10  1  0  0  0  0
  9 11  1  0  0  0  0
  9 24  1  0  0  0  0
 11 12  1  0  0  0  0
 11 13  1  0  0  0  0
 11 14  1  0  0  0  0
 14 15  1  0  0  0  0
 14 16  1  0  0  0  0
 14 20  1  0  0  0  0
 16 17  1  0  0  0  0
 16 18  1  0  0  0  0
 16 19  1  0  0  0  0
 20 21  1  0  0  0  0
 20 22  1  0  0  0  0
 20 23  1  0  0  0  0
 24 25  2  0  0  0  0
 24 26  1  0  0  0  0
 26 27  1  0  0  0  0
 26 28  1  0  0  0  0
 28 29  1  0  0  0  0
 28 30  1  0  0  0  0
 28 31  1  0  0  0  0
M  END
$$$$

  -OEChem-04042216013D

 31 30  0     1  0  0  0  0  0999 V2000
   -2.6119   -4.5647    0.2656 H   0  0  0  0  0  0  0  0  0  0  0  0
   -2.6468   -3.5784   -0.2062 C   0  0  0  0  0  0  0  0  0  0  0  0
   -3.4740   -3.0109    0.2266 H   0  0  0  0  0  0  0  0  0  0  0  0
   -2.8214   -3.7076   -1.2770 H   0  0  0  0  0  0  0  0  0  0  0  0
   -1.3385   -2.8452    0.0219 C   0  0  0  0  0  0  0  0  0  0  0  0
   -0.4497   -3.3773    0.6615 O   0  0  0  0  0  0  0  0  0  0  0  0
   -1.1703   -1.5744   -0.4925 N   0  0  0  0  0  0  0  0  0  0  0  0
   -1.9178   -1.2163   -1.0778 H   0  0  0  0  0  0  0  0  0  0  0  0
    0.0794   -0.7973   -0.4172 C   0  0  1  0  0  0  0  0  0  0  0  0
    0.8648   -1.4225   -0.8573 H   0  0  0  0  0  0  0  0  0  0  0  0
    0.0650    0.5270   -1.2312 C   0  0  0  0  0  0  0  0  0  0  0  0
    0.9858    1.0752   -1.0022 H   0  0  0  0  0  0  0  0  0  0  0  0
    0.1548    0.2169   -2.2774 H   0  0  0  0  0  0  0  0  0  0  0  0
   -1.1360    1.5240   -1.1989 C   0  0  0  0  0  0  0  0  0  0  0  0
   -1.1538    2.0190   -2.1762 H   0  0  0  0  0  0  0  0  0  0  0  0
   -2.5392    0.9498   -0.9627 C   0  0  0  0  0  0  0  0  0  0  0  0
   -2.6245    0.5128    0.0366 H   0  0  0  0  0  0  0  0  0  0  0  0
   -3.2873    1.7446   -1.0453 H   0  0  0  0  0  0  0  0  0  0  0  0
   -2.7753    0.1935   -1.7167 H   0  0  0  0  0  0  0  0  0  0  0  0
   -0.8823    2.6180   -0.1513 C   0  0  0  0  0  0  0  0  0  0  0  0
    0.0817    3.1049   -0.3290 H   0  0  0  0  0  0  0  0  0  0  0  0
   -1.6617    3.3845   -0.2058 H   0  0  0  0  0  0  0  0  0  0  0  0
   -0.8789    2.2050    0.8599 H   0  0  0  0  0  0  0  0  0  0  0  0
    0.5452   -0.5269    1.0322 C   0  0  0  0  0  0  0  0  0  0  0  0
    1.7421   -0.4453    1.2766 O   0  0  0  0  0  0  0  0  0  0  0  0
   -0.3613   -0.1137    1.9919 N   0  0  0  0  0  0  0  0  0  0  0  0
   -1.3417   -0.2522    1.7724 H   0  0  0  0  0  0  0  0  0  0  0  0
    0.0183    0.1897    3.3654 C   0  0  0  0  0  0  0  0  0  0  0  0
    0.7577    0.9972    3.3896 H   0  0  0  0  0  0  0  0  0  0  0  0
   -0.8576    0.5080    3.9385 H   0  0  0  0  0  0  0  0  0  0  0  0
    0.4467   -0.6958    3.8469 H   0  0  0  0  0  0  0  0  0  0  0  0
  1  2  1  0  0  0  0
  2  3  1  0  0  0  0
  2  4  1  0  0  0  0
  2  5  1  0  0  0  0
  5  6  2  0  0  0  0
  5  7  1  0  0  0  0
  7  8  1  0  0  0  0
  7  9  1  0  0  0  0
  9 10  1  0  0  0  0
  9 11  1  0  0  0  0
  9 24  1  0  0  0  0
 11 12  1  0  0  0  0
 11 13  1  0  0  0  0
 11 14  1  0  0  0  0
 14 15  1  0  0  0  0
 14 16  1  0  0  0  0
 14 20  1  0  0  0  0
 16 17  1  0  0  0  0
 16 18  1  0  0  0  0
 16 19  1  0  0  0  0
 20 21  1  0  0  0  0
 20 22  1  0  0  0  0
 20 23  1  0  0  0  0
 24 25  2  0  0  0  0
 24 26  1  0  0  0  0
 26 27  1  0  0  0  0
 26 28  1  0  0  0  0
 28 29  1  0  0  0  0
 28 30  1  0  0  0  0
 28 31  1  0  0  0  0
M  END
$$$$

  -OEChem-04042216013D

 31 30  0     1  0  0  0  0  0999 V2000
   -2.6181   -4.5603    0.2434 H   0  0  0  0  0  0  0  0  0  0  0  0
   -2.6479   -3.5754   -0.2314 C   0  0  0  0  0  0  0  0  0  0  0  0
   -3.4893   -3.0122    0.1794 H   0  0  0  0  0  0  0  0  0  0  0  0
   -2.7953   -3.7080   -1.3058 H   0  0  0  0  0  0  0  0  0  0  0  0
   -1.3501   -2.8332    0.0261 C   0  0  0  0  0  0  0  0  0  0  0  0
   -0.4774   -3.3525    0.6977 O   0  0  0  0  0  0  0  0  0  0  0  0
   -1.1734   -1.5676   -0.4974 N   0  0  0  0  0  0  0  0  0  0  0  0
   -1.9007   -1.2254   -1.1169 H   0  0  0  0  0  0  0  0  0  0  0  0
    0.0787   -0.7957   -0.4141 C   0  0  1  0  0  0  0  0  0  0  0  0
    0.8648   -1.4232   -0.8496 H   0  0  0  0  0  0  0  0  0  0  0  0
    0.0616    0.5248   -1.2298 C   0  0  0  0  0  0  0  0  0  0  0  0
    0.9838    1.0714   -1.0010 H   0  0  0  0  0  0  0  0  0  0  0  0
    0.1555    0.2146   -2.2755 H   0  0  0  0  0  0  0  0  0  0  0  0
   -1.1482    1.5159   -1.1988 C   0  0  0  0  0  0  0  0  0  0  0  0
   -1.3317    1.8389   -2.2295 H   0  0  0  0  0  0  0  0  0  0  0  0
   -2.4894    1.0268   -0.6287 C   0  0  0  0  0  0  0  0  0  0  0  0
   -2.3825    0.6730    0.3994 H   0  0  0  0  0  0  0  0  0  0  0  0
   -3.2178    1.8440   -0.6280 H   0  0  0  0  0  0  0  0  0  0  0  0
   -2.9019    0.2267   -1.2488 H   0  0  0  0  0  0  0  0  0  0  0  0
   -0.7376    2.7588   -0.3936 C   0  0  0  0  0  0  0  0  0  0  0  0
    0.1482    3.2272   -0.8345 H   0  0  0  0  0  0  0  0  0  0  0  0
   -1.5422    3.5009   -0.3901 H   0  0  0  0  0  0  0  0  0  0  0  0
   -0.5086    2.4903    0.6427 H   0  0  0  0  0  0  0  0  0  0  0  0
    0.5484   -0.5044    1.0309 C   0  0  0  0  0  0  0  0  0  0  0  0
    1.7469   -0.4286    1.2704 O   0  0  0  0  0  0  0  0  0  0  0  0
   -0.3497   -0.0714    1.9895 N   0  0  0  0  0  0  0  0  0  0  0  0
   -1.3313   -0.2166    1.7804 H   0  0  0  0  0  0  0  0  0  0  0  0
    0.0384    0.2418    3.3583 C   0  0  0  0  0  0  0  0  0  0  0  0
    0.7867    1.0413    3.3713 H   0  0  0  0  0  0  0  0  0  0  0  0
   -0.8321    0.5759    3.9306 H   0  0  0  0  0  0  0  0  0  0  0  0
    0.4585   -0.6433    3.8477 H   0  0  0  0  0  0  0  0  0  0  0  0
  1  2  1  0  0  0  0
  2  3  1  0  0  0  0
  2  4  1  0  0  0  0
  2  5  1  0  0  0  0
  5  6  2  0  0  0  0
  5  7  1  0  0  0  0
  7  8  1  0  0  0  0
  7  9  1  0  0  0  0
  9 10  1  0  0  0  0
  9 11  1  0  0  0  0
  9 24  1  0  0  0  0
 11 12  1  0  0  0  0
 11 13  1  0  0  0  0
 11 14  1  0  0  0  0
 14 15  1  0  0  0  0
 14 16  1  0  0  0  0
 14 20  1  0  0  0  0
 16 17  1  0  0  0  0
 16 18  1  0  0  0  0
 16 19  1  0  0  0  0
 20 21  1  0  0  0  0
 20 22  1  0  0  0  0
 20 23  1  0  0  0  0
 24 25  2  0  0  0  0
 24 26  1  0  0  0  0
 26 27  1  0  0  0  0
 26 28  1  0  0  0  0
 28 29  1  0  0  0  0
 28 30  1  0  0  0  0
 28 31  1  0  0  0  0
M  END
$$$$

  -OEChem-04042216013D

 31 30  0     1  0  0  0  0  0999 V2000
   -2.6163   -4.5611    0.1821 H   0  0  0  0  0  0  0  0  0  0  0  0
   -2.6401   -3.5689   -0.2777 C   0  0  0  0  0  0  0  0  0  0  0  0
   -3.4958   -3.0180    0.1197 H   0  0  0  0  0  0  0  0  0  0  0  0
   -2.7583   -3.6854   -1.3576 H   0  0  0  0  0  0  0  0  0  0  0  0
   -1.3549   -2.8223    0.0260 C   0  0  0  0  0  0  0  0  0  0  0  0
   -0.4974   -3.3459    0.7139 O   0  0  0  0  0  0  0  0  0  0  0  0
   -1.1738   -1.5463   -0.4698 N   0  0  0  0  0  0  0  0  0  0  0  0
   -1.8868   -1.1968   -1.1022 H   0  0  0  0  0  0  0  0  0  0  0  0
    0.0735   -0.7737   -0.3462 C   0  0  1  0  0  0  0  0  0  0  0  0
    0.8641   -1.4071   -0.7648 H   0  0  0  0  0  0  0  0  0  0  0  0
    0.0773    0.5247   -1.1936 C   0  0  0  0  0  0  0  0  0  0  0  0
    0.9782    1.0836   -0.9156 H   0  0  0  0  0  0  0  0  0  0  0  0
    0.2376    0.2047   -2.2284 H   0  0  0  0  0  0  0  0  0  0  0  0
   -1.1432    1.5038   -1.2354 C   0  0  0  0  0  0  0  0  0  0  0  0
   -1.4655    1.5723   -2.2801 H   0  0  0  0  0  0  0  0  0  0  0  0
   -2.3965    1.1706   -0.4081 C   0  0  0  0  0  0  0  0  0  0  0  0
   -3.1166    1.9923   -0.4745 H   0  0  0  0  0  0  0  0  0  0  0  0
   -2.1542    1.0267    0.6451 H   0  0  0  0  0  0  0  0  0  0  0  0
   -2.8964    0.2788   -0.7921 H   0  0  0  0  0  0  0  0  0  0  0  0
   -0.6650    2.9000   -0.8084 C   0  0  0  0  0  0  0  0  0  0  0  0
    0.1718    3.2269   -1.4342 H   0  0  0  0  0  0  0  0  0  0  0  0
   -1.4703    3.6340   -0.9130 H   0  0  0  0  0  0  0  0  0  0  0  0
   -0.3363    2.8904    0.2363 H   0  0  0  0  0  0  0  0  0  0  0  0
    0.5396   -0.4935    1.1035 C   0  0  0  0  0  0  0  0  0  0  0  0
    1.7389   -0.4151    1.3385 O   0  0  0  0  0  0  0  0  0  0  0  0
   -0.3499   -0.0715    2.0741 N   0  0  0  0  0  0  0  0  0  0  0  0
   -1.3331   -0.2212    1.8752 H   0  0  0  0  0  0  0  0  0  0  0  0
    0.0516    0.2430    3.4392 C   0  0  0  0  0  0  0  0  0  0  0  0
    0.7646    1.0743    3.4471 H   0  0  0  0  0  0  0  0  0  0  0  0
   -0.8209    0.5319    4.0329 H   0  0  0  0  0  0  0  0  0  0  0  0
    0.5198   -0.6279    3.9099 H   0  0  0  0  0  0  0  0  0  0  0  0
  1  2  1  0  0  0  0
  2  3  1  0  0  0  0
  2  4  1  0  0  0  0
  2  5  1  0  0  0  0
  5  6  2  0  0  0  0
  5  7  1  0  0  0  0
  7  8  1  0  0  0  0
  7  9  1  0  0  0  0
  9 10  1  0  0  0  0
  9 11  1  0  0  0  0
  9 24  1  0  0  0  0
 11 12  1  0  0  0  0
 11 13  1  0  0  0  0
 11 14  1  0  0  0  0
 14 15  1  0  0  0  0
 14 16  1  0  0  0  0
 14 20  1  0  0  0  0
 16 17  1  0  0  0  0
 16 18  1  0  0  0  0
 16 19  1  0  0  0  0
 20 21  1  0  0  0  0
 20 22  1  0  0  0  0
 20 23  1  0  0  0  0
 24 25  2  0  0  0  0
 24 26  1  0  0  0  0
 26 27  1  0  0  0  0
 26 28  1  0  0  0  0
 28 29  1  0  0  0  0
 28 30  1  0  0  0  0
 28 31  1  0  0  0  0
M  END
$$$$

  -OEChem-04042216013D

 31 30  0     1  0  0  0  0  0999 V2000
   -2.6732   -4.5082    0.1477 H   0  0  0  0  0  0  0  0  0  0  0  0
   -2.6940   -3.5059   -0.2898 C   0  0  0  0  0  0  0  0  0  0  0  0
   -3.5268   -2.9495    0.1464 H   0  0  0  0  0  0  0  0  0  0  0  0
   -2.8484   -3.5969   -1.3676 H   0  0  0  0  0  0  0  0  0  0  0  0
   -1.3864   -2.7884   -0.0116 C   0  0  0  0  0  0  0  0  0  0  0  0
   -0.5120   -3.3477    0.6249 O   0  0  0  0  0  0  0  0  0  0  0  0
   -1.2002   -1.5013   -0.4758 N   0  0  0  0  0  0  0  0  0  0  0  0
   -1.9374   -1.1108   -1.0547 H   0  0  0  0  0  0  0  0  0  0  0  0
    0.0617   -0.7497   -0.3676 C   0  0  1  0  0  0  0  0  0  0  0  0
    0.8321   -1.3846   -0.8204 H   0  0  0  0  0  0  0  0  0  0  0  0
    0.0465    0.5527   -1.2066 C   0  0  0  0  0  0  0  0  0  0  0  0
    0.9417    1.1140   -0.9156 H   0  0  0  0  0  0  0  0  0  0  0  0
    0.2028    0.2584   -2.2495 H   0  0  0  0  0  0  0  0  0  0  0  0
   -1.1733    1.5287   -1.2019 C   0  0  0  0  0  0  0  0  0  0  0  0
   -1.7049    1.3631   -2.1453 H   0  0  0  0  0  0  0  0  0  0  0  0
   -2.2325    1.3903   -0.0955 C   0  0  0  0  0  0  0  0  0  0  0  0
   -1.7902    1.5697    0.8865 H   0  0  0  0  0  0  0  0  0  0  0  0
   -3.0187    2.1372   -0.2450 H   0  0  0  0  0  0  0  0  0  0  0  0
   -2.7170    0.4136   -0.1033 H   0  0  0  0  0  0  0  0  0  0  0  0
   -0.6601    2.9751   -1.2078 C   0  0  0  0  0  0  0  0  0  0  0  0
    0.0356    3.1301   -2.0387 H   0  0  0  0  0  0  0  0  0  0  0  0
   -1.4909    3.6783   -1.3236 H   0  0  0  0  0  0  0  0  0  0  0  0
   -0.1404    3.2029   -0.2712 H   0  0  0  0  0  0  0  0  0  0  0  0
    0.5716   -0.5195    1.0757 C   0  0  0  0  0  0  0  0  0  0  0  0
    1.7776   -0.4682    1.2810 O   0  0  0  0  0  0  0  0  0  0  0  0
   -0.2858   -0.1149    2.0817 N   0  0  0  0  0  0  0  0  0  0  0  0
   -1.2764   -0.2360    1.9006 H   0  0  0  0  0  0  0  0  0  0  0  0
    0.1537    0.1417    3.4471 C   0  0  0  0  0  0  0  0  0  0  0  0
    0.9038    0.9393    3.4650 H   0  0  0  0  0  0  0  0  0  0  0  0
   -0.6941    0.4529    4.0649 H   0  0  0  0  0  0  0  0  0  0  0  0
    0.5899   -0.7628    3.8841 H   0  0  0  0  0  0  0  0  0  0  0  0
  1  2  1  0  0  0  0
  2  3  1  0  0  0  0
  2  4  1  0  0  0  0
  2  5  1  0  0  0  0
  5  6  2  0  0  0  0
  5  7  1  0  0  0  0
  7  8  1  0  0  0  0
  7  9  1  0  0  0  0
  9 10  1  0  0  0  0
  9 11  1  0  0  0  0
  9 24  1  0  0  0  0
 11 12  1  0  0  0  0
 11 13  1  0  0  0  0
 11 14  1  0  0  0  0
 14 15  1  0  0  0  0
 14 16  1  0  0  0  0
 14 20  1  0  0  0  0
 16 17  1  0  0  0  0
 16 18  1  0  0  0  0
 16 19  1  0  0  0  0
 20 21  1  0  0  0  0
 20 22  1  0  0  0  0
 20 23  1  0  0  0  0
 24 25  2  0  0  0  0
 24 26  1  0  0  0  0
 26 27  1  0  0  0  0
 26 28  1  0  0  0  0
 28 29  1  0  0  0  0
 28 30  1  0  0  0  0
 28 31  1  0  0  0  0
M  END
$$$$

  -OEChem-04042216013D

 31 30  0     1  0  0  0  0  0999 V2000
   -2.7317   -4.4396    0.1237 H   0  0  0  0  0  0  0  0  0  0  0  0
   -2.7343   -3.4353   -0.3096 C   0  0  0  0  0  0  0  0  0  0  0  0
   -3.5532   -2.8636    0.1334 H   0  0  0  0  0  0  0  0  0  0  0  0
   -2.8964   -3.5187   -1.3869 H   0  0  0  0  0  0  0  0  0  0  0  0
   -1.4103   -2.7467   -0.0358 C   0  0  0  0  0  0  0  0  0  0  0  0
   -0.5442   -3.3259    0.5940 O   0  0  0  0  0  0  0  0  0  0  0  0
   -1.2023   -1.4587   -0.4879 N   0  0  0  0  0  0  0  0  0  0  0  0
   -1.9387   -1.0431   -1.0499 H   0  0  0  0  0  0  0  0  0  0  0  0
    0.0697   -0.7249   -0.3618 C   0  0  1  0  0  0  0  0  0  0  0  0
    0.8356   -1.3693   -0.8089 H   0  0  0  0  0  0  0  0  0  0  0  0
    0.0654    0.5653   -1.2170 C   0  0  0  0  0  0  0  0  0  0  0  0
    0.9449    1.1435   -0.9113 H   0  0  0  0  0  0  0  0  0  0  0  0
    0.2365    0.2707   -2.2576 H   0  0  0  0  0  0  0  0  0  0  0  0
   -1.1694    1.5121   -1.2095 C   0  0  0  0  0  0  0  0  0  0  0  0
   -1.8451    1.1529   -1.9931 H   0  0  0  0  0  0  0  0  0  0  0  0
   -2.0033    1.5738    0.0785 C   0  0  0  0  0  0  0  0  0  0  0  0
   -1.3958    1.9531    0.9052 H   0  0  0  0  0  0  0  0  0  0  0  0
   -2.8481    2.2565   -0.0579 H   0  0  0  0  0  0  0  0  0  0  0  0
   -2.4124    0.5998    0.3512 H   0  0  0  0  0  0  0  0  0  0  0  0
   -0.7231    2.9292   -1.5892 C   0  0  0  0  0  0  0  0  0  0  0  0
   -0.1784    2.9162   -2.5387 H   0  0  0  0  0  0  0  0  0  0  0  0
   -1.5901    3.5879   -1.7014 H   0  0  0  0  0  0  0  0  0  0  0  0
   -0.0680    3.3470   -0.8178 H   0  0  0  0  0  0  0  0  0  0  0  0
    0.5771   -0.5087    1.0851 C   0  0  0  0  0  0  0  0  0  0  0  0
    1.7832   -0.4720    1.2928 O   0  0  0  0  0  0  0  0  0  0  0  0
   -0.2758   -0.0981    2.0927 N   0  0  0  0  0  0  0  0  0  0  0  0
   -1.2678   -0.2048    1.9107 H   0  0  0  0  0  0  0  0  0  0  0  0
    0.1654    0.1452    3.4600 C   0  0  0  0  0  0  0  0  0  0  0  0
    0.9265    0.9322    3.4830 H   0  0  0  0  0  0  0  0  0  0  0  0
   -0.6788    0.4649    4.0780 H   0  0  0  0  0  0  0  0  0  0  0  0
    0.5882   -0.7677    3.8930 H   0  0  0  0  0  0  0  0  0  0  0  0
  1  2  1  0  0  0  0
  2  3  1  0  0  0  0
  2  4  1  0  0  0  0
  2  5  1  0  0  0  0
  5  6  2  0  0  0  0
  5  7  1  0  0  0  0
  7  8  1  0  0  0  0
  7  9  1  0  0  0  0
  9 10  1  0  0  0  0
  9 11  1  0  0  0  0
  9 24  1  0  0  0  0
 11 12  1  0  0  0  0
 11 13  1  0  0  0  0
 11 14  1  0  0  0  0
 14 15  1  0  0  0  0
 14 16  1  0  0  0  0
 14 20  1  0  0  0  0
 16 17  1  0  0  0  0
 16 18  1  0  0  0  0
 16 19  1  0  0  0  0
 20 21  1  0  0  0  0
 20 22  1  0  0  0  0
 20 23  1  0  0  0  0
 24 25  2  0  0  0  0
 24 26  1  0  0  0  0
 26 27  1  0  0  0  0
 26 28  1  0  0  0  0
 28 29  1  0  0  0  0
 28 30  1  0  0  0  0
 28 31  1  0  0  0  0
M  END
$$$$

  -OEChem-04042216013D

 31 30  0     1  0  0  0  0  0999 V2000
   -2.7295   -4.4248    0.0933 H   0  0  0  0  0  0  0  0  0  0  0  0
   -2.7321   -3.4161   -0.3299 C   0  0  0  0  0  0  0  0  0  0  0  0
   -3.5582   -2.8524    0.1099 H   0  0  0  0  0  0  0  0  0  0  0  0
   -2.8819   -3.4889   -1.4097 H   0  0  0  0  0  0  0  0  0  0  0  0
   -1.4152   -2.7233   -0.0351 C   0  0  0  0  0  0  0  0  0  0  0  0
   -0.5555   -3.3002    0.6058 O   0  0  0  0  0  0  0  0  0  0  0  0
   -1.2059   -1.4345   -0.4834 N   0  0  0  0  0  0  0  0  0  0  0  0
   -1.9372   -1.0207   -1.0534 H   0  0  0  0  0  0  0  0  0  0  0  0
    0.0634   -0.6990   -0.3407 C   0  0  1  0  0  0  0  0  0  0  0  0
    0.8318   -1.3515   -0.7718 H   0  0  0  0  0  0  0  0  0  0  0  0
    0.0739    0.5701   -1.2250 C   0  0  0  0  0  0  0  0  0  0  0  0
    0.9366    1.1728   -0.9191 H   0  0  0  0  0  0  0  0  0  0  0  0
    0.2612    0.2532   -2.2563 H   0  0  0  0  0  0  0  0  0  0  0  0
   -1.1820    1.4796   -1.2407 C   0  0  0  0  0  0  0  0  0  0  0  0
   -1.9530    0.9775   -1.8342 H   0  0  0  0  0  0  0  0  0  0  0  0
   -1.7916    1.7848    0.1313 C   0  0  0  0  0  0  0  0  0  0  0  0
   -1.0348    2.2017    0.8032 H   0  0  0  0  0  0  0  0  0  0  0  0
   -2.6006    2.5154    0.0329 H   0  0  0  0  0  0  0  0  0  0  0  0
   -2.2162    0.8830    0.5781 H   0  0  0  0  0  0  0  0  0  0  0  0
   -0.8313    2.7973   -1.9420 C   0  0  0  0  0  0  0  0  0  0  0  0
   -0.4203    2.6026   -2.9376 H   0  0  0  0  0  0  0  0  0  0  0  0
   -1.7242    3.4197   -2.0569 H   0  0  0  0  0  0  0  0  0  0  0  0
   -0.0897    3.3580   -1.3634 H   0  0  0  0  0  0  0  0  0  0  0  0
    0.5686   -0.4744    1.1065 C   0  0  0  0  0  0  0  0  0  0  0  0
    1.7749   -0.4303    1.3110 O   0  0  0  0  0  0  0  0  0  0  0  0
   -0.2806   -0.0609    2.1163 N   0  0  0  0  0  0  0  0  0  0  0  0
   -1.2736   -0.1715    1.9420 H   0  0  0  0  0  0  0  0  0  0  0  0
    0.1688    0.2135    3.4751 C   0  0  0  0  0  0  0  0  0  0  0  0
    0.9039    1.0252    3.4789 H   0  0  0  0  0  0  0  0  0  0  0  0
   -0.6779    0.5130    4.1000 H   0  0  0  0  0  0  0  0  0  0  0  0
    0.6265   -0.6791    3.9142 H   0  0  0  0  0  0  0  0  0  0  0  0
  1  2  1  0  0  0  0
  2  3  1  0  0  0  0
  2  4  1  0  0  0  0
  2  5  1  0  0  0  0
  5  6  2  0  0  0  0
  5  7  1  0  0  0  0
  7  8  1  0  0  0  0
  7  9  1  0  0  0  0
  9 10  1  0  0  0  0
  9 11  1  0  0  0  0
  9 24  1  0  0  0  0
 11 12  1  0  0  0  0
 11 13  1  0  0  0  0
 11 14  1  0  0  0  0
 14 15  1  0  0  0  0
 14 16  1  0  0  0  0
 14 20  1  0  0  0  0
 16 17  1  0  0  0  0
 16 18  1  0  0  0  0
 16 19  1  0  0  0  0
 20 21  1  0  0  0  0
 20 22  1  0  0  0  0
 20 23  1  0  0  0  0
 24 25  2  0  0  0  0
 24 26  1  0  0  0  0
 26 27  1  0  0  0  0
 26 28  1  0  0  0  0
 28 29  1  0  0  0  0
 28 30  1  0  0  0  0
 28 31  1  0  0  0  0
M  END
$$$$

  -OEChem-04042216013D

 31 30  0     1  0  0  0  0  0999 V2000
   -2.7949   -4.3881    0.1086 H   0  0  0  0  0  0  0  0  0  0  0  0
   -2.7864   -3.3821   -0.3207 C   0  0  0  0  0  0  0  0  0  0  0  0
   -3.6088   -2.8081    0.1128 H   0  0  0  0  0  0  0  0  0  0  0  0
   -2.9334   -3.4604   -1.4006 H   0  0  0  0  0  0  0  0  0  0  0  0
   -1.4640   -2.7000   -0.0253 C   0  0  0  0  0  0  0  0  0  0  0  0
   -0.6136   -3.2809    0.6243 O   0  0  0  0  0  0  0  0  0  0  0  0
   -1.2396   -1.4169   -0.4831 N   0  0  0  0  0  0  0  0  0  0  0  0
   -1.9617   -1.0046   -1.0653 H   0  0  0  0  0  0  0  0  0  0  0  0
    0.0410   -0.6990   -0.3534 C   0  0  1  0  0  0  0  0  0  0  0  0
    0.7971   -1.3661   -0.7838 H   0  0  0  0  0  0  0  0  0  0  0  0
    0.0690    0.5637   -1.2464 C   0  0  0  0  0  0  0  0  0  0  0  0
    0.9446    1.1600   -0.9655 H   0  0  0  0  0  0  0  0  0  0  0  0
    0.2334    0.2266   -2.2752 H   0  0  0  0  0  0  0  0  0  0  0  0
   -1.1801    1.4799   -1.2501 C   0  0  0  0  0  0  0  0  0  0  0  0
   -2.0420    0.9125   -1.6147 H   0  0  0  0  0  0  0  0  0  0  0  0
   -1.5330    2.0619    0.1220 C   0  0  0  0  0  0  0  0  0  0  0  0
   -0.6384    2.4456    0.6231 H   0  0  0  0  0  0  0  0  0  0  0  0
   -1.9993    1.2992    0.7492 H   0  0  0  0  0  0  0  0  0  0  0  0
   -2.2493    2.8831    0.0190 H   0  0  0  0  0  0  0  0  0  0  0  0
   -0.9317    2.6351   -2.2285 C   0  0  0  0  0  0  0  0  0  0  0  0
   -0.6955    2.2498   -3.2254 H   0  0  0  0  0  0  0  0  0  0  0  0
   -1.8223    3.2659   -2.3108 H   0  0  0  0  0  0  0  0  0  0  0  0
   -0.0964    3.2561   -1.8891 H   0  0  0  0  0  0  0  0  0  0  0  0
    0.5565   -0.4748    1.0899 C   0  0  0  0  0  0  0  0  0  0  0  0
    1.7642   -0.4493    1.2894 O   0  0  0  0  0  0  0  0  0  0  0  0
   -0.2825   -0.0442    2.1010 N   0  0  0  0  0  0  0  0  0  0  0  0
   -1.2770   -0.1489    1.9317 H   0  0  0  0  0  0  0  0  0  0  0  0
    0.1747    0.2069    3.4618 C   0  0  0  0  0  0  0  0  0  0  0  0
    0.9314    0.9983    3.4722 H   0  0  0  0  0  0  0  0  0  0  0  0
   -0.6632    0.5238    4.0899 H   0  0  0  0  0  0  0  0  0  0  0  0
    0.6083   -0.7017    3.8929 H   0  0  0  0  0  0  0  0  0  0  0  0
  1  2  1  0  0  0  0
  2  3  1  0  0  0  0
  2  4  1  0  0  0  0
  2  5  1  0  0  0  0
  5  6  2  0  0  0  0
  5  7  1  0  0  0  0
  7  8  1  0  0  0  0
  7  9  1  0  0  0  0
  9 10  1  0  0  0  0
  9 11  1  0  0  0  0
  9 24  1  0  0  0  0
 11 12  1  0  0  0  0
 11 13  1  0  0  0  0
 11 14  1  0  0  0  0
 14 15  1  0  0  0  0
 14 16  1  0  0  0  0
 14 20  1  0  0  0  0
 16 17  1  0  0  0  0
 16 18  1  0  0  0  0
 16 19  1  0  0  0  0
 20 21  1  0  0  0  0
 20 22  1  0  0  0  0
 20 23  1  0  0  0  0
 24 25  2  0  0  0  0
 24 26  1  0  0  0  0
 26 27  1  0  0  0  0
 26 28  1  0  0  0  0
 28 29  1  0  0  0  0
 28 30  1  0  0  0  0
 28 31  1  0  0  0  0
M  END
$$$$

  -OEChem-04042216013D

 31 30  0     1  0  0  0  0  0999 V2000
   -2.7670   -4.3999    0.1483 H   0  0  0  0  0  0  0  0  0  0  0  0
   -2.7677   -3.4012   -0.2978 C   0  0  0  0  0  0  0  0  0  0  0  0
   -3.5898   -2.8248    0.1328 H   0  0  0  0  0  0  0  0  0  0  0  0
   -2.9226   -3.4979   -1.3751 H   0  0  0  0  0  0  0  0  0  0  0  0
   -1.4470   -2.7069   -0.0239 C   0  0  0  0  0  0  0  0  0  0  0  0
   -0.5865   -3.2756    0.6231 O   0  0  0  0  0  0  0  0  0  0  0  0
   -1.2351   -1.4269   -0.4971 N   0  0  0  0  0  0  0  0  0  0  0  0
   -1.9600   -1.0314   -1.0874 H   0  0  0  0  0  0  0  0  0  0  0  0
    0.0425   -0.6994   -0.3848 C   0  0  1  0  0  0  0  0  0  0  0  0
    0.8022   -1.3597   -0.8192 H   0  0  0  0  0  0  0  0  0  0  0  0
    0.0549    0.5724   -1.2651 C   0  0  0  0  0  0  0  0  0  0  0  0
    0.9400    1.1672   -1.0131 H   0  0  0  0  0  0  0  0  0  0  0  0
    0.1919    0.2293   -2.2960 H   0  0  0  0  0  0  0  0  0  0  0  0
   -1.1993    1.4842   -1.2373 C   0  0  0  0  0  0  0  0  0  0  0  0
   -2.1078    0.8852   -1.3485 H   0  0  0  0  0  0  0  0  0  0  0  0
   -1.3074    2.3201    0.0447 C   0  0  0  0  0  0  0  0  0  0  0  0
   -0.3343    2.7366    0.3240 H   0  0  0  0  0  0  0  0  0  0  0  0
   -2.0097    3.1483   -0.0921 H   0  0  0  0  0  0  0  0  0  0  0  0
   -1.6834    1.7109    0.8675 H   0  0  0  0  0  0  0  0  0  0  0  0
   -1.1259    2.4449   -2.4325 C   0  0  0  0  0  0  0  0  0  0  0  0
   -1.0850    1.8865   -3.3730 H   0  0  0  0  0  0  0  0  0  0  0  0
   -2.0094    3.0904   -2.4613 H   0  0  0  0  0  0  0  0  0  0  0  0
   -0.2352    3.0782   -2.3646 H   0  0  0  0  0  0  0  0  0  0  0  0
    0.5515   -0.4663    1.0580 C   0  0  0  0  0  0  0  0  0  0  0  0
    1.7579   -0.4286    1.2642 O   0  0  0  0  0  0  0  0  0  0  0  0
   -0.3009   -0.0363    2.0576 N   0  0  0  0  0  0  0  0  0  0  0  0
   -1.2928   -0.1507    1.8784 H   0  0  0  0  0  0  0  0  0  0  0  0
    0.1410    0.2224    3.4220 C   0  0  0  0  0  0  0  0  0  0  0  0
    0.9085    1.0034    3.4354 H   0  0  0  0  0  0  0  0  0  0  0  0
   -0.7010    0.5574    4.0350 H   0  0  0  0  0  0  0  0  0  0  0  0
    0.5560   -0.6878    3.8677 H   0  0  0  0  0  0  0  0  0  0  0  0
  1  2  1  0  0  0  0
  2  3  1  0  0  0  0
  2  4  1  0  0  0  0
  2  5  1  0  0  0  0
  5  6  2  0  0  0  0
  5  7  1  0  0  0  0
  7  8  1  0  0  0  0
  7  9  1  0  0  0  0
  9 10  1  0  0  0  0
  9 11  1  0  0  0  0
  9 24  1  0  0  0  0
 11 12  1  0  0  0  0
 11 13  1  0  0  0  0
 11 14  1  0  0  0  0
 14 15  1  0  0  0  0
 14 16  1  0  0  0  0
 14 20  1  0  0  0  0
 16 17  1  0  0  0  0
 16 18  1  0  0  0  0
 16 19  1  0  0  0  0
 20 21  1  0  0  0  0
 20 22  1  0  0  0  0
 20 23  1  0  0  0  0
 24 25  2  0  0  0  0
 24 26  1  0  0  0  0
 26 27  1  0  0  0  0
 26 28  1  0  0  0  0
 28 29  1  0  0  0  0
 28 30  1  0  0  0  0
 28 31  1  0  0  0  0
M  END
$$$$

  -OEChem-04042216013D

 31 30  0     1  0  0  0  0  0999 V2000
   -2.7772   -4.3917    0.1738 H   0  0  0  0  0  0  0  0  0  0  0  0
   -2.7701   -3.3989   -0.2854 C   0  0  0  0  0  0  0  0  0  0  0  0
   -3.5957   -2.8145    0.1276 H   0  0  0  0  0  0  0  0  0  0  0  0
   -2.9123   -3.5100   -1.3631 H   0  0  0  0  0  0  0  0  0  0  0  0
   -1.4508   -2.7045   -0.0050 C   0  0  0  0  0  0  0  0  0  0  0  0
   -0.6017   -3.2651    0.6637 O   0  0  0  0  0  0  0  0  0  0  0  0
   -1.2263   -1.4364   -0.5041 N   0  0  0  0  0  0  0  0  0  0  0  0
   -1.9374   -1.0582   -1.1222 H   0  0  0  0  0  0  0  0  0  0  0  0
    0.0570   -0.7155   -0.4027 C   0  0  1  0  0  0  0  0  0  0  0  0
    0.8195   -1.3772   -0.8298 H   0  0  0  0  0  0  0  0  0  0  0  0
    0.0661    0.5614   -1.2777 C   0  0  0  0  0  0  0  0  0  0  0  0
    0.9603    1.1497   -1.0432 H   0  0  0  0  0  0  0  0  0  0  0  0
    0.1864    0.2163   -2.3097 H   0  0  0  0  0  0  0  0  0  0  0  0
   -1.1863    1.4781   -1.2243 C   0  0  0  0  0  0  0  0  0  0  0  0
   -2.0903    0.8903   -1.0446 H   0  0  0  0  0  0  0  0  0  0  0  0
   -1.0708    2.5505   -0.1315 C   0  0  0  0  0  0  0  0  0  0  0  0
   -0.1517    3.1323   -0.2555 H   0  0  0  0  0  0  0  0  0  0  0  0
   -1.9220    3.2367   -0.1815 H   0  0  0  0  0  0  0  0  0  0  0  0
   -1.0655    2.1041    0.8624 H   0  0  0  0  0  0  0  0  0  0  0  0
   -1.3517    2.1889   -2.5745 C   0  0  0  0  0  0  0  0  0  0  0  0
   -1.4982    1.4595   -3.3771 H   0  0  0  0  0  0  0  0  0  0  0  0
   -2.2232    2.8509   -2.5552 H   0  0  0  0  0  0  0  0  0  0  0  0
   -0.4652    2.7884   -2.8062 H   0  0  0  0  0  0  0  0  0  0  0  0
    0.5411   -0.4675    1.0451 C   0  0  0  0  0  0  0  0  0  0  0  0
    1.7427   -0.4404    1.2786 O   0  0  0  0  0  0  0  0  0  0  0  0
   -0.3338   -0.0177    2.0168 N   0  0  0  0  0  0  0  0  0  0  0  0
   -1.3219   -0.1191    1.8111 H   0  0  0  0  0  0  0  0  0  0  0  0
    0.0750    0.2536    3.3889 C   0  0  0  0  0  0  0  0  0  0  0  0
    0.8447    1.0322    3.4133 H   0  0  0  0  0  0  0  0  0  0  0  0
   -0.7806    0.5975    3.9775 H   0  0  0  0  0  0  0  0  0  0  0  0
    0.4757   -0.6531    3.8543 H   0  0  0  0  0  0  0  0  0  0  0  0
  1  2  1  0  0  0  0
  2  3  1  0  0  0  0
  2  4  1  0  0  0  0
  2  5  1  0  0  0  0
  5  6  2  0  0  0  0
  5  7  1  0  0  0  0
  7  8  1  0  0  0  0
  7  9  1  0  0  0  0
  9 10  1  0  0  0  0
  9 11  1  0  0  0  0
  9 24  1  0  0  0  0
 11 12  1  0  0  0  0
 11 13  1  0  0  0  0
 11 14  1  0  0  0  0
 14 15  1  0  0  0  0
 14 16  1  0  0  0  0
 14 20  1  0  0  0  0
 16 17  1  0  0  0  0
 16 18  1  0  0  0  0
 16 19  1  0  0  0  0
 20 21  1  0  0  0  0
 20 22  1  0  0  0  0
 20 23  1  0  0  0  0
 24 25  2  0  0  0  0
 24 26  1  0  0  0  0
 26 27  1  0  0  0  0
 26 28  1  0  0  0  0
 28 29  1  0  0  0  0
 28 30  1  0  0  0  0
 28 31  1  0  0  0  0
M  END
$$$$

  -OEChem-04042216013D

 31 30  0     1  0  0  0  0  0999 V2000
   -2.7991   -4.3704    0.1990 H   0  0  0  0  0  0  0  0  0  0  0  0
   -2.7719   -3.3900   -0.2854 C   0  0  0  0  0  0  0  0  0  0  0  0
   -3.5952   -2.7841    0.1001 H   0  0  0  0  0  0  0  0  0  0  0  0
   -2.9010   -3.5275   -1.3616 H   0  0  0  0  0  0  0  0  0  0  0  0
   -1.4476   -2.7053   -0.0035 C   0  0  0  0  0  0  0  0  0  0  0  0
   -0.6228   -3.2510    0.7065 O   0  0  0  0  0  0  0  0  0  0  0  0
   -1.1920   -1.4619   -0.5481 N   0  0  0  0  0  0  0  0  0  0  0  0
   -1.8809   -1.1010   -1.2013 H   0  0  0  0  0  0  0  0  0  0  0  0
    0.0992   -0.7531   -0.4449 C   0  0  1  0  0  0  0  0  0  0  0  0
    0.8721   -1.4124   -0.8560 H   0  0  0  0  0  0  0  0  0  0  0  0
    0.1020    0.5395   -1.2933 C   0  0  0  0  0  0  0  0  0  0  0  0
    0.9998    1.1220   -1.0562 H   0  0  0  0  0  0  0  0  0  0  0  0
    0.2107    0.2248   -2.3364 H   0  0  0  0  0  0  0  0  0  0  0  0
   -1.1605    1.4377   -1.1779 C   0  0  0  0  0  0  0  0  0  0  0  0
   -1.9842    0.8975   -0.7046 H   0  0  0  0  0  0  0  0  0  0  0  0
   -0.8605    2.6792   -0.3268 C   0  0  0  0  0  0  0  0  0  0  0  0
   -0.0817    3.2894   -0.7955 H   0  0  0  0  0  0  0  0  0  0  0  0
   -1.7605    3.2921   -0.2167 H   0  0  0  0  0  0  0  0  0  0  0  0
   -0.5185    2.3945    0.6713 H   0  0  0  0  0  0  0  0  0  0  0  0
   -1.6275    1.8860   -2.5683 C   0  0  0  0  0  0  0  0  0  0  0  0
   -1.8958    1.0184   -3.1792 H   0  0  0  0  0  0  0  0  0  0  0  0
   -2.5080    2.5309   -2.4858 H   0  0  0  0  0  0  0  0  0  0  0  0
   -0.8363    2.4426   -3.0812 H   0  0  0  0  0  0  0  0  0  0  0  0
    0.5379   -0.4586    1.0081 C   0  0  0  0  0  0  0  0  0  0  0  0
    1.7302   -0.4302    1.2845 O   0  0  0  0  0  0  0  0  0  0  0  0
   -0.3718    0.0386    1.9243 N   0  0  0  0  0  0  0  0  0  0  0  0
   -1.3514   -0.0702    1.6852 H   0  0  0  0  0  0  0  0  0  0  0  0
   -0.0160    0.3602    3.3004 C   0  0  0  0  0  0  0  0  0  0  0  0
    0.7661    1.1263    3.3257 H   0  0  0  0  0  0  0  0  0  0  0  0
   -0.8892    0.7427    3.8372 H   0  0  0  0  0  0  0  0  0  0  0  0
    0.3480   -0.5330    3.8192 H   0  0  0  0  0  0  0  0  0  0  0  0
  1  2  1  0  0  0  0
  2  3  1  0  0  0  0
  2  4  1  0  0  0  0
  2  5  1  0  0  0  0
  5  6  2  0  0  0  0
  5  7  1  0  0  0  0
  7  8  1  0  0  0  0
  7  9  1  0  0  0  0
  9 10  1  0  0  0  0
  9 11  1  0  0  0  0
  9 24  1  0  0  0  0
 11 12  1  0  0  0  0
 11 13  1  0  0  0  0
 11 14  1  0  0  0  0
 14 15  1  0  0  0  0
 14 16  1  0  0  0  0
 14 20  1  0  0  0  0
 16 17  1  0  0  0  0
 16 18  1  0  0  0  0
 16 19  1  0  0  0  0
 20 21  1  0  0  0  0
 20 22  1  0  0  0  0
 20 23  1  0  0  0  0
 24 25  2  0  0  0  0
 24 26  1  0  0  0  0
 26 27  1  0  0  0  0
 26 28  1  0  0  0  0
 28 29  1  0  0  0  0
 28 30  1  0  0  0  0
 28 31  1  0  0  0  0
M  END
$$$$

  -OEChem-04042216013D

 31 30  0     1  0  0  0  0  0999 V2000
   -2.8183   -4.3514    0.1816 H   0  0  0  0  0  0  0  0  0  0  0  0
   -2.7787   -3.3736   -0.3070 C   0  0  0  0  0  0  0  0  0  0  0  0
   -3.6013   -2.7599    0.0677 H   0  0  0  0  0  0  0  0  0  0  0  0
   -2.8976   -3.5148   -1.3839 H   0  0  0  0  0  0  0  0  0  0  0  0
   -1.4519   -2.6981   -0.0149 C   0  0  0  0  0  0  0  0  0  0  0  0
   -0.6426   -3.2416    0.7146 O   0  0  0  0  0  0  0  0  0  0  0  0
   -1.1749   -1.4660   -0.5739 N   0  0  0  0  0  0  0  0  0  0  0  0
   -1.8545   -1.1004   -1.2341 H   0  0  0  0  0  0  0  0  0  0  0  0
    0.1211   -0.7679   -0.4589 C   0  0  1  0  0  0  0  0  0  0  0  0
    0.8972   -1.4278   -0.8626 H   0  0  0  0  0  0  0  0  0  0  0  0
    0.1226    0.5292   -1.2965 C   0  0  0  0  0  0  0  0  0  0  0  0
    1.0141    1.1123   -1.0378 H   0  0  0  0  0  0  0  0  0  0  0  0
    0.2429    0.2429   -2.3463 H   0  0  0  0  0  0  0  0  0  0  0  0
   -1.1517    1.4055   -1.1528 C   0  0  0  0  0  0  0  0  0  0  0  0
   -1.8473    0.9605   -0.4354 H   0  0  0  0  0  0  0  0  0  0  0  0
   -0.7802    2.7932   -0.6182 C   0  0  0  0  0  0  0  0  0  0  0  0
   -0.1008    3.3043   -1.3080 H   0  0  0  0  0  0  0  0  0  0  0  0
   -1.6772    3.4081   -0.4954 H   0  0  0  0  0  0  0  0  0  0  0  0
   -0.2873    2.7066    0.3554 H   0  0  0  0  0  0  0  0  0  0  0  0
   -1.8742    1.5442   -2.4977 C   0  0  0  0  0  0  0  0  0  0  0  0
   -2.1687    0.5607   -2.8765 H   0  0  0  0  0  0  0  0  0  0  0  0
   -2.7768    2.1529   -2.3840 H   0  0  0  0  0  0  0  0  0  0  0  0
   -1.2245    2.0228   -3.2377 H   0  0  0  0  0  0  0  0  0  0  0  0
    0.5446   -0.4513    0.9944 C   0  0  0  0  0  0  0  0  0  0  0  0
    1.7331   -0.4349    1.2870 O   0  0  0  0  0  0  0  0  0  0  0  0
   -0.3722    0.0723    1.8890 N   0  0  0  0  0  0  0  0  0  0  0  0
   -1.3498   -0.0298    1.6389 H   0  0  0  0  0  0  0  0  0  0  0  0
   -0.0308    0.4148    3.2636 C   0  0  0  0  0  0  0  0  0  0  0  0
    0.7597    1.1724    3.2857 H   0  0  0  0  0  0  0  0  0  0  0  0
   -0.9066    0.8166    3.7817 H   0  0  0  0  0  0  0  0  0  0  0  0
    0.3160   -0.4728    3.8033 H   0  0  0  0  0  0  0  0  0  0  0  0
  1  2  1  0  0  0  0
  2  3  1  0  0  0  0
  2  4  1  0  0  0  0
  2  5  1  0  0  0  0
  5  6  2  0  0  0  0
  5  7  1  0  0  0  0
  7  8  1  0  0  0  0
  7  9  1  0  0  0  0
  9 10  1  0  0  0  0
  9 11  1  0  0  0  0
  9 24  1  0  0  0  0
 11 12  1  0  0  0  0
 11 13  1  0  0  0  0
 11 14  1  0  0  0  0
 14 15  1  0  0  0  0
 14 16  1  0  0  0  0
 14 20  1  0  0  0  0
 16 17  1  0  0  0  0
 16 18  1  0  0  0  0
 16 19  1  0  0  0  0
 20 21  1  0  0  0  0
 20 22  1  0  0  0  0
 20 23  1  0  0  0  0
 24 25  2  0  0  0  0
 24 26  1  0  0  0  0
 26 27  1  0  0  0  0
 26 28  1  0  0  0  0
 28 29  1  0  0  0  0
 28 30  1  0  0  0  0
 28 31  1  0  0  0  0
M  END
$$$$

  -OEChem-04042216013D

 31 30  0     1  0  0  0  0  0999 V2000
   -2.8149   -4.3490    0.1769 H   0  0  0  0  0  0  0  0  0  0  0  0
   -2.7788   -3.3667   -0.3029 C   0  0  0  0  0  0  0  0  0  0  0  0
   -3.5970   -2.7554    0.0850 H   0  0  0  0  0  0  0  0  0  0  0  0
   -2.9079   -3.4976   -1.3800 H   0  0  0  0  0  0  0  0  0  0  0  0
   -1.4488   -2.6955   -0.0166 C   0  0  0  0  0  0  0  0  0  0  0  0
   -0.6364   -3.2422    0.7068 O   0  0  0  0  0  0  0  0  0  0  0  0
   -1.1749   -1.4601   -0.5690 N   0  0  0  0  0  0  0  0  0  0  0  0
   -1.8616   -1.0848   -1.2158 H   0  0  0  0  0  0  0  0  0  0  0  0
    0.1180   -0.7594   -0.4512 C   0  0  1  0  0  0  0  0  0  0  0  0
    0.8942   -1.4197   -0.8542 H   0  0  0  0  0  0  0  0  0  0  0  0
    0.1204    0.5323   -1.2972 C   0  0  0  0  0  0  0  0  0  0  0  0
    1.0019    1.1203   -1.0160 H   0  0  0  0  0  0  0  0  0  0  0  0
    0.2594    0.2571   -2.3478 H   0  0  0  0  0  0  0  0  0  0  0  0
   -1.1588    1.3993   -1.1630 C   0  0  0  0  0  0  0  0  0  0  0  0
   -1.7187    1.1078   -0.2691 H   0  0  0  0  0  0  0  0  0  0  0  0
   -0.7795    2.8752   -0.9992 C   0  0  0  0  0  0  0  0  0  0  0  0
   -0.2004    3.2235   -1.8605 H   0  0  0  0  0  0  0  0  0  0  0  0
   -1.6782    3.4936   -0.9109 H   0  0  0  0  0  0  0  0  0  0  0  0
   -0.1782    3.0149   -0.0951 H   0  0  0  0  0  0  0  0  0  0  0  0
   -2.0712    1.2361   -2.3867 C   0  0  0  0  0  0  0  0  0  0  0  0
   -2.3605    0.1899   -2.5200 H   0  0  0  0  0  0  0  0  0  0  0  0
   -2.9822    1.8300   -2.2617 H   0  0  0  0  0  0  0  0  0  0  0  0
   -1.5613    1.5726   -3.2953 H   0  0  0  0  0  0  0  0  0  0  0  0
    0.5462   -0.4465    1.0017 C   0  0  0  0  0  0  0  0  0  0  0  0
    1.7363   -0.4274    1.2885 O   0  0  0  0  0  0  0  0  0  0  0  0
   -0.3670    0.0713    1.9029 N   0  0  0  0  0  0  0  0  0  0  0  0
   -1.3453   -0.0447    1.6616 H   0  0  0  0  0  0  0  0  0  0  0  0
   -0.0189    0.3986    3.2794 C   0  0  0  0  0  0  0  0  0  0  0  0
    0.7710    1.1566    3.3056 H   0  0  0  0  0  0  0  0  0  0  0  0
   -0.8924    0.7938    3.8062 H   0  0  0  0  0  0  0  0  0  0  0  0
    0.3315   -0.4947    3.8069 H   0  0  0  0  0  0  0  0  0  0  0  0
  1  2  1  0  0  0  0
  2  3  1  0  0  0  0
  2  4  1  0  0  0  0
  2  5  1  0  0  0  0
  5  6  2  0  0  0  0
  5  7  1  0  0  0  0
  7  8  1  0  0  0  0
  7  9  1  0  0  0  0
  9 10  1  0  0  0  0
  9 11  1  0  0  0  0
  9 24  1  0  0  0  0
 11 12  1  0  0  0  0
 11 13  1  0  0  0  0
 11 14  1  0  0  0  0
 14 15  1  0  0  0  0
 14 16  1  0  0  0  0
 14 20  1  0  0  0  0
 16 17  1  0  0  0  0
 16 18  1  0  0  0  0
 16 19  1  0  0  0  0
 20 21  1  0  0  0  0
 20 22  1  0  0  0  0
 20 23  1  0  0  0  0
 24 25  2  0  0  0  0
 24 26  1  0  0  0  0
 26 27  1  0  0  0  0
 26 28  1  0  0  0  0
 28 29  1  0  0  0  0
 28 30  1  0  0  0  0
 28 31  1  0  0  0  0
M  END
$$$$

  -OEChem-04042216013D

 31 30  0     1  0  0  0  0  0999 V2000
   -2.7425   -4.4205    0.2224 H   0  0  0  0  0  0  0  0  0  0  0  0
   -2.7385   -3.4363   -0.2548 C   0  0  0  0  0  0  0  0  0  0  0  0
   -3.5680   -2.8486    0.1455 H   0  0  0  0  0  0  0  0  0  0  0  0
   -2.8778   -3.5679   -1.3305 H   0  0  0  0  0  0  0  0  0  0  0  0
   -1.4235   -2.7300    0.0165 C   0  0  0  0  0  0  0  0  0  0  0  0
   -0.5892   -3.2564    0.7301 O   0  0  0  0  0  0  0  0  0  0  0  0
   -1.1887   -1.4882   -0.5404 N   0  0  0  0  0  0  0  0  0  0  0  0
   -1.8868   -1.1420   -1.1892 H   0  0  0  0  0  0  0  0  0  0  0  0
    0.0892   -0.7604   -0.4480 C   0  0  1  0  0  0  0  0  0  0  0  0
    0.8693   -1.4121   -0.8577 H   0  0  0  0  0  0  0  0  0  0  0  0
    0.0850    0.5358   -1.2929 C   0  0  0  0  0  0  0  0  0  0  0  0
    0.9665    1.1201   -1.0045 H   0  0  0  0  0  0  0  0  0  0  0  0
    0.2264    0.2646   -2.3439 H   0  0  0  0  0  0  0  0  0  0  0  0
   -1.1819    1.4223   -1.1754 C   0  0  0  0  0  0  0  0  0  0  0  0
   -1.6110    1.3283   -0.1732 H   0  0  0  0  0  0  0  0  0  0  0  0
   -0.7914    2.8899   -1.3944 C   0  0  0  0  0  0  0  0  0  0  0  0
   -0.3296    3.0255   -2.3779 H   0  0  0  0  0  0  0  0  0  0  0  0
   -1.6727    3.5361   -1.3317 H   0  0  0  0  0  0  0  0  0  0  0  0
   -0.0791    3.2129   -0.6283 H   0  0  0  0  0  0  0  0  0  0  0  0
   -2.2505    1.0628   -2.2227 C   0  0  0  0  0  0  0  0  0  0  0  0
   -2.6243    0.0466   -2.0900 H   0  0  0  0  0  0  0  0  0  0  0  0
   -3.1035    1.7434   -2.1380 H   0  0  0  0  0  0  0  0  0  0  0  0
   -1.8414    1.1500   -3.2344 H   0  0  0  0  0  0  0  0  0  0  0  0
    0.5298   -0.4446    1.0006 C   0  0  0  0  0  0  0  0  0  0  0  0
    1.7229   -0.4019    1.2720 O   0  0  0  0  0  0  0  0  0  0  0  0
   -0.3824    0.0485    1.9166 N   0  0  0  0  0  0  0  0  0  0  0  0
   -1.3610   -0.0898    1.6885 H   0  0  0  0  0  0  0  0  0  0  0  0
   -0.0224    0.3728    3.2907 C   0  0  0  0  0  0  0  0  0  0  0  0
    0.7463    1.1524    3.3122 H   0  0  0  0  0  0  0  0  0  0  0  0
   -0.8981    0.7379    3.8354 H   0  0  0  0  0  0  0  0  0  0  0  0
    0.3616   -0.5152    3.8037 H   0  0  0  0  0  0  0  0  0  0  0  0
  1  2  1  0  0  0  0
  2  3  1  0  0  0  0
  2  4  1  0  0  0  0
  2  5  1  0  0  0  0
  5  6  2  0  0  0  0
  5  7  1  0  0  0  0
  7  8  1  0  0  0  0
  7  9  1  0  0  0  0
  9 10  1  0  0  0  0
  9 11  1  0  0  0  0
  9 24  1  0  0  0  0
 11 12  1  0  0  0  0
 11 13  1  0  0  0  0
 11 14  1  0  0  0  0
 14 15  1  0  0  0  0
 14 16  1  0  0  0  0
 14 20  1  0  0  0  0
 16 17  1  0  0  0  0
 16 18  1  0  0  0  0
 16 19  1  0  0  0  0
 20 21  1  0  0  0  0
 20 22  1  0  0  0  0
 20 23  1  0  0  0  0
 24 25  2  0  0  0  0
 24 26  1  0  0  0  0
 26 27  1  0  0  0  0
 26 28  1  0  0  0  0
 28 29  1  0  0  0  0
 28 30  1  0  0  0  0
 28 31  1  0  0  0  0
M  END
$$$$

  -OEChem-04042216013D

 31 30  0     1  0  0  0  0  0999 V2000
   -2.6713   -4.4762    0.2335 H   0  0  0  0  0  0  0  0  0  0  0  0
   -2.6848   -3.4966   -0.2531 C   0  0  0  0  0  0  0  0  0  0  0  0
   -3.5355   -2.9263    0.1278 H   0  0  0  0  0  0  0  0  0  0  0  0
   -2.8033   -3.6419   -1.3297 H   0  0  0  0  0  0  0  0  0  0  0  0
   -1.3925   -2.7547    0.0327 C   0  0  0  0  0  0  0  0  0  0  0  0
   -0.5545   -3.2567    0.7594 O   0  0  0  0  0  0  0  0  0  0  0  0
   -1.1827   -1.5104   -0.5288 N   0  0  0  0  0  0  0  0  0  0  0  0
   -1.8679   -1.2036   -1.2115 H   0  0  0  0  0  0  0  0  0  0  0  0
    0.0839   -0.7630   -0.4520 C   0  0  1  0  0  0  0  0  0  0  0  0
    0.8702   -1.4011   -0.8710 H   0  0  0  0  0  0  0  0  0  0  0  0
    0.0561    0.5429   -1.2838 C   0  0  0  0  0  0  0  0  0  0  0  0
    0.9411    1.1274   -1.0071 H   0  0  0  0  0  0  0  0  0  0  0  0
    0.1815    0.2714   -2.3369 H   0  0  0  0  0  0  0  0  0  0  0  0
   -1.2002    1.4484   -1.1692 C   0  0  0  0  0  0  0  0  0  0  0  0
   -1.4582    1.5850   -0.1142 H   0  0  0  0  0  0  0  0  0  0  0  0
   -0.8506    2.8229   -1.7572 C   0  0  0  0  0  0  0  0  0  0  0  0
   -0.5859    2.7346   -2.8158 H   0  0  0  0  0  0  0  0  0  0  0  0
   -1.6995    3.5078   -1.6666 H   0  0  0  0  0  0  0  0  0  0  0  0
   -0.0036    3.2651   -1.2230 H   0  0  0  0  0  0  0  0  0  0  0  0
   -2.4343    0.9195   -1.9243 C   0  0  0  0  0  0  0  0  0  0  0  0
   -2.9340    0.1261   -1.3652 H   0  0  0  0  0  0  0  0  0  0  0  0
   -3.1687    1.7193   -2.0641 H   0  0  0  0  0  0  0  0  0  0  0  0
   -2.1513    0.5393   -2.9109 H   0  0  0  0  0  0  0  0  0  0  0  0
    0.5290   -0.4415    0.9942 C   0  0  0  0  0  0  0  0  0  0  0  0
    1.7225   -0.3850    1.2615 O   0  0  0  0  0  0  0  0  0  0  0  0
   -0.3874    0.0366    1.9138 N   0  0  0  0  0  0  0  0  0  0  0  0
   -1.3643   -0.1108    1.6837 H   0  0  0  0  0  0  0  0  0  0  0  0
   -0.0321    0.3493    3.2919 C   0  0  0  0  0  0  0  0  0  0  0  0
    0.7416    1.1237    3.3236 H   0  0  0  0  0  0  0  0  0  0  0  0
   -0.9086    0.7165    3.8341 H   0  0  0  0  0  0  0  0  0  0  0  0
    0.3432   -0.5447    3.8010 H   0  0  0  0  0  0  0  0  0  0  0  0
  1  2  1  0  0  0  0
  2  3  1  0  0  0  0
  2  4  1  0  0  0  0
  2  5  1  0  0  0  0
  5  6  2  0  0  0  0
  5  7  1  0  0  0  0
  7  8  1  0  0  0  0
  7  9  1  0  0  0  0
  9 10  1  0  0  0  0
  9 11  1  0  0  0  0
  9 24  1  0  0  0  0
 11 12  1  0  0  0  0
 11 13  1  0  0  0  0
 11 14  1  0  0  0  0
 14 15  1  0  0  0  0
 14 16  1  0  0  0  0
 14 20  1  0  0  0  0
 16 17  1  0  0  0  0
 16 18  1  0  0  0  0
 16 19  1  0  0  0  0
 20 21  1  0  0  0  0
 20 22  1  0  0  0  0
 20 23  1  0  0  0  0
 24 25  2  0  0  0  0
 24 26  1  0  0  0  0
 26 27  1  0  0  0  0
 26 28  1  0  0  0  0
 28 29  1  0  0  0  0
 28 30  1  0  0  0  0
 28 31  1  0  0  0  0
M  END
$$$$

  -OEChem-04042216013D

 31 30  0     1  0  0  0  0  0999 V2000
   -2.6865   -4.4610    0.1968 H   0  0  0  0  0  0  0  0  0  0  0  0
   -2.6960   -3.4738   -0.2738 C   0  0  0  0  0  0  0  0  0  0  0  0
   -3.5253   -2.8949    0.1392 H   0  0  0  0  0  0  0  0  0  0  0  0
   -2.8458   -3.5991   -1.3488 H   0  0  0  0  0  0  0  0  0  0  0  0
   -1.3837   -2.7592   -0.0126 C   0  0  0  0  0  0  0  0  0  0  0  0
   -0.5260   -3.2947    0.6655 O   0  0  0  0  0  0  0  0  0  0  0  0
   -1.1761   -1.5000   -0.5398 N   0  0  0  0  0  0  0  0  0  0  0  0
   -1.9000   -1.1333   -1.1502 H   0  0  0  0  0  0  0  0  0  0  0  0
    0.0885   -0.7503   -0.4417 C   0  0  1  0  0  0  0  0  0  0  0  0
    0.8703   -1.3846   -0.8746 H   0  0  0  0  0  0  0  0  0  0  0  0
    0.0604    0.5575   -1.2671 C   0  0  0  0  0  0  0  0  0  0  0  0
    1.0495    1.0215   -1.1804 H   0  0  0  0  0  0  0  0  0  0  0  0
   -0.0681    0.2780   -2.3180 H   0  0  0  0  0  0  0  0  0  0  0  0
   -1.0073    1.6293   -0.9182 C   0  0  0  0  0  0  0  0  0  0  0  0
   -0.8337    1.9843    0.1030 H   0  0  0  0  0  0  0  0  0  0  0  0
   -0.8196    2.8155   -1.8736 C   0  0  0  0  0  0  0  0  0  0  0  0
   -0.9978    2.5112   -2.9100 H   0  0  0  0  0  0  0  0  0  0  0  0
   -1.5145    3.6234   -1.6244 H   0  0  0  0  0  0  0  0  0  0  0  0
    0.1986    3.2101   -1.7978 H   0  0  0  0  0  0  0  0  0  0  0  0
   -2.4656    1.1577   -1.0264 C   0  0  0  0  0  0  0  0  0  0  0  0
   -2.7239    0.4972   -0.1948 H   0  0  0  0  0  0  0  0  0  0  0  0
   -3.1473    2.0132   -0.9831 H   0  0  0  0  0  0  0  0  0  0  0  0
   -2.6330    0.6321   -1.9718 H   0  0  0  0  0  0  0  0  0  0  0  0
    0.5420   -0.4595    1.0073 C   0  0  0  0  0  0  0  0  0  0  0  0
    1.7370   -0.4021    1.2666 O   0  0  0  0  0  0  0  0  0  0  0  0
   -0.3691   -0.0050    1.9443 N   0  0  0  0  0  0  0  0  0  0  0  0
   -1.3484   -0.1377    1.7159 H   0  0  0  0  0  0  0  0  0  0  0  0
   -0.0029    0.2950    3.3222 C   0  0  0  0  0  0  0  0  0  0  0  0
    0.7592    1.0807    3.3545 H   0  0  0  0  0  0  0  0  0  0  0  0
   -0.8783    0.6415    3.8793 H   0  0  0  0  0  0  0  0  0  0  0  0
    0.3918   -0.5999    3.8148 H   0  0  0  0  0  0  0  0  0  0  0  0
  1  2  1  0  0  0  0
  2  3  1  0  0  0  0
  2  4  1  0  0  0  0
  2  5  1  0  0  0  0
  5  6  2  0  0  0  0
  5  7  1  0  0  0  0
  7  8  1  0  0  0  0
  7  9  1  0  0  0  0
  9 10  1  0  0  0  0
  9 11  1  0  0  0  0
  9 24  1  0  0  0  0
 11 12  1  0  0  0  0
 11 13  1  0  0  0  0
 11 14  1  0  0  0  0
 14 15  1  0  0  0  0
 14 16  1  0  0  0  0
 14 20  1  0  0  0  0
 16 17  1  0  0  0  0
 16 18  1  0  0  0  0
 16 19  1  0  0  0  0
 20 21  1  0  0  0  0
 20 22  1  0  0  0  0
 20 23  1  0  0  0  0
 24 25  2  0  0  0  0
 24 26  1  0  0  0  0
 26 27  1  0  0  0  0
 26 28  1  0  0  0  0
 28 29  1  0  0  0  0
 28 30  1  0  0  0  0
 28 31  1  0  0  0  0
M  END
$$$$

  -OEChem-04042216013D

 31 30  0     1  0  0  0  0  0999 V2000
   -2.6672   -4.4883    0.2103 H   0  0  0  0  0  0  0  0  0  0  0  0
   -2.6844   -3.5019   -0.2623 C   0  0  0  0  0  0  0  0  0  0  0  0
   -3.5121   -2.9252    0.1575 H   0  0  0  0  0  0  0  0  0  0  0  0
   -2.8442   -3.6301   -1.3355 H   0  0  0  0  0  0  0  0  0  0  0  0
   -1.3714   -2.7832   -0.0152 C   0  0  0  0  0  0  0  0  0  0  0  0
   -0.5034   -3.3183    0.6500 O   0  0  0  0  0  0  0  0  0  0  0  0
   -1.1752   -1.5195   -0.5360 N   0  0  0  0  0  0  0  0  0  0  0  0
   -1.9086   -1.1499   -1.1328 H   0  0  0  0  0  0  0  0  0  0  0  0
    0.0843   -0.7603   -0.4382 C   0  0  1  0  0  0  0  0  0  0  0  0
    0.8678   -1.3880   -0.8777 H   0  0  0  0  0  0  0  0  0  0  0  0
    0.0523    0.5547   -1.2532 C   0  0  0  0  0  0  0  0  0  0  0  0
    1.0418    1.0204   -1.1820 H   0  0  0  0  0  0  0  0  0  0  0  0
   -0.0847    0.2650   -2.3001 H   0  0  0  0  0  0  0  0  0  0  0  0
   -1.0104    1.6385   -0.9136 C   0  0  0  0  0  0  0  0  0  0  0  0
   -0.6846    2.1636   -0.0087 H   0  0  0  0  0  0  0  0  0  0  0  0
   -1.0649    2.6381   -2.0772 C   0  0  0  0  0  0  0  0  0  0  0  0
   -1.4291    2.1559   -2.9902 H   0  0  0  0  0  0  0  0  0  0  0  0
   -1.7317    3.4718   -1.8356 H   0  0  0  0  0  0  0  0  0  0  0  0
   -0.0687    3.0471   -2.2735 H   0  0  0  0  0  0  0  0  0  0  0  0
   -2.4451    1.1394   -0.6794 C   0  0  0  0  0  0  0  0  0  0  0  0
   -2.5115    0.5548    0.2414 H   0  0  0  0  0  0  0  0  0  0  0  0
   -3.1284    1.9884   -0.5746 H   0  0  0  0  0  0  0  0  0  0  0  0
   -2.7855    0.5283   -1.5209 H   0  0  0  0  0  0  0  0  0  0  0  0
    0.5482   -0.4695    1.0078 C   0  0  0  0  0  0  0  0  0  0  0  0
    1.7452   -0.4023    1.2559 O   0  0  0  0  0  0  0  0  0  0  0  0
   -0.3556   -0.0242    1.9556 N   0  0  0  0  0  0  0  0  0  0  0  0
   -1.3361   -0.1619    1.7366 H   0  0  0  0  0  0  0  0  0  0  0  0
    0.0214    0.2802    3.3298 C   0  0  0  0  0  0  0  0  0  0  0  0
    0.7803    1.0692    3.3543 H   0  0  0  0  0  0  0  0  0  0  0  0
   -0.8509    0.6245    3.8932 H   0  0  0  0  0  0  0  0  0  0  0  0
    0.4240   -0.6118    3.8214 H   0  0  0  0  0  0  0  0  0  0  0  0
  1  2  1  0  0  0  0
  2  3  1  0  0  0  0
  2  4  1  0  0  0  0
  2  5  1  0  0  0  0
  5  6  2  0  0  0  0
  5  7  1  0  0  0  0
  7  8  1  0  0  0  0
  7  9  1  0  0  0  0
  9 10  1  0  0  0  0
  9 11  1  0  0  0  0
  9 24  1  0  0  0  0
 11 12  1  0  0  0  0
 11 13  1  0  0  0  0
 11 14  1  0  0  0  0
 14 15  1  0  0  0  0
 14 16  1  0  0  0  0
 14 20  1  0  0  0  0
 16 17  1  0  0  0  0
 16 18  1  0  0  0  0
 16 19  1  0  0  0  0
 20 21  1  0  0  0  0
 20 22  1  0  0  0  0
 20 23  1  0  0  0  0
 24 25  2  0  0  0  0
 24 26  1  0  0  0  0
 26 27  1  0  0  0  0
 26 28  1  0  0  0  0
 28 29  1  0  0  0  0
 28 30  1  0  0  0  0
 28 31  1  0  0  0  0
M  END
$$$$

  -OEChem-04042216013D

 31 30  0     1  0  0  0  0  0999 V2000
   -2.5600   -4.5571    0.2422 H   0  0  0  0  0  0  0  0  0  0  0  0
   -2.6078   -3.5693   -0.2252 C   0  0  0  0  0  0  0  0  0  0  0  0
   -3.4682   -3.0301    0.1781 H   0  0  0  0  0  0  0  0  0  0  0  0
   -2.7374   -3.6977   -1.3026 H   0  0  0  0  0  0  0  0  0  0  0  0
   -1.3324   -2.7972    0.0562 C   0  0  0  0  0  0  0  0  0  0  0  0
   -0.4602   -3.2961    0.7440 O   0  0  0  0  0  0  0  0  0  0  0  0
   -1.1732   -1.5273   -0.4619 N   0  0  0  0  0  0  0  0  0  0  0  0
   -1.9053   -1.1882   -1.0784 H   0  0  0  0  0  0  0  0  0  0  0  0
    0.0655   -0.7350   -0.3601 C   0  0  1  0  0  0  0  0  0  0  0  0
    0.8580   -1.3625   -0.7834 H   0  0  0  0  0  0  0  0  0  0  0  0
    0.0299    0.5466   -1.2264 C   0  0  0  0  0  0  0  0  0  0  0  0
    1.0093    1.0328   -1.1537 H   0  0  0  0  0  0  0  0  0  0  0  0
   -0.0668    0.1989   -2.2602 H   0  0  0  0  0  0  0  0  0  0  0  0
   -1.0575    1.6365   -0.9834 C   0  0  0  0  0  0  0  0  0  0  0  0
   -0.6545    2.3595   -0.2655 H   0  0  0  0  0  0  0  0  0  0  0  0
   -1.3479    2.3427   -2.3162 C   0  0  0  0  0  0  0  0  0  0  0  0
   -1.7928    1.6505   -3.0385 H   0  0  0  0  0  0  0  0  0  0  0  0
   -2.0386    3.1783   -2.1656 H   0  0  0  0  0  0  0  0  0  0  0  0
   -0.4220    2.7416   -2.7423 H   0  0  0  0  0  0  0  0  0  0  0  0
   -2.4198    1.1582   -0.4523 C   0  0  0  0  0  0  0  0  0  0  0  0
   -3.1000    2.0094   -0.3443 H   0  0  0  0  0  0  0  0  0  0  0  0
   -2.3247    0.6927    0.5294 H   0  0  0  0  0  0  0  0  0  0  0  0
   -2.8788    0.4443   -1.1427 H   0  0  0  0  0  0  0  0  0  0  0  0
    0.5483   -0.4185    1.0757 C   0  0  0  0  0  0  0  0  0  0  0  0
    1.7493   -0.3152    1.2905 O   0  0  0  0  0  0  0  0  0  0  0  0
   -0.3350    0.0119    2.0488 N   0  0  0  0  0  0  0  0  0  0  0  0
   -1.3174   -0.1654    1.8700 H   0  0  0  0  0  0  0  0  0  0  0  0
    0.0803    0.3532    3.4032 C   0  0  0  0  0  0  0  0  0  0  0  0
    0.8031    1.1757    3.3867 H   0  0  0  0  0  0  0  0  0  0  0  0
   -0.7842    0.6667    3.9959 H   0  0  0  0  0  0  0  0  0  0  0  0
    0.5414   -0.5121    3.8911 H   0  0  0  0  0  0  0  0  0  0  0  0
  1  2  1  0  0  0  0
  2  3  1  0  0  0  0
  2  4  1  0  0  0  0
  2  5  1  0  0  0  0
  5  6  2  0  0  0  0
  5  7  1  0  0  0  0
  7  8  1  0  0  0  0
  7  9  1  0  0  0  0
  9 10  1  0  0  0  0
  9 11  1  0  0  0  0
  9 24  1  0  0  0  0
 11 12  1  0  0  0  0
 11 13  1  0  0  0  0
 11 14  1  0  0  0  0
 14 15  1  0  0  0  0
 14 16  1  0  0  0  0
 14 20  1  0  0  0  0
 16 17  1  0  0  0  0
 16 18  1  0  0  0  0
 16 19  1  0  0  0  0
 20 21  1  0  0  0  0
 20 22  1  0  0  0  0
 20 23  1  0  0  0  0
 24 25  2  0  0  0  0
 24 26  1  0  0  0  0
 26 27  1  0  0  0  0
 26 28  1  0  0  0  0
 28 29  1  0  0  0  0
 28 30  1  0  0  0  0
 28 31  1  0  0  0  0
M  END
$$$$

  -OEChem-04042216013D

 31 30  0     1  0  0  0  0  0999 V2000
   -2.6851   -4.5197   -0.0154 H   0  0  0  0  0  0  0  0  0  0  0  0
   -2.6862   -3.5050   -0.4236 C   0  0  0  0  0  0  0  0  0  0  0  0
   -3.5608   -2.9730   -0.0417 H   0  0  0  0  0  0  0  0  0  0  0  0
   -2.7500   -3.5656   -1.5126 H   0  0  0  0  0  0  0  0  0  0  0  0
   -1.4174   -2.7792   -0.0177 C   0  0  0  0  0  0  0  0  0  0  0  0
   -0.6047   -3.3335    0.6998 O   0  0  0  0  0  0  0  0  0  0  0  0
   -1.1989   -1.4872   -0.4522 N   0  0  0  0  0  0  0  0  0  0  0  0
   -1.8791   -1.0982   -1.0980 H   0  0  0  0  0  0  0  0  0  0  0  0
    0.0446   -0.7319   -0.2230 C   0  0  1  0  0  0  0  0  0  0  0  0
    0.8417   -1.3848   -0.5974 H   0  0  0  0  0  0  0  0  0  0  0  0
    0.1366    0.5384   -1.1015 C   0  0  0  0  0  0  0  0  0  0  0  0
    1.1156    0.9951   -0.9182 H   0  0  0  0  0  0  0  0  0  0  0  0
    0.1603    0.1758   -2.1345 H   0  0  0  0  0  0  0  0  0  0  0  0
   -0.9287    1.6768   -1.0109 C   0  0  0  0  0  0  0  0  0  0  0  0
   -0.4657    2.5231   -0.4913 H   0  0  0  0  0  0  0  0  0  0  0  0
   -1.3148    2.1081   -2.4348 C   0  0  0  0  0  0  0  0  0  0  0  0
   -1.8120    1.2917   -2.9688 H   0  0  0  0  0  0  0  0  0  0  0  0
   -1.9920    2.9678   -2.4065 H   0  0  0  0  0  0  0  0  0  0  0  0
   -0.4226    2.3996   -2.9984 H   0  0  0  0  0  0  0  0  0  0  0  0
   -2.2519    1.3634   -0.2926 C   0  0  0  0  0  0  0  0  0  0  0  0
   -2.8977    2.2473   -0.3019 H   0  0  0  0  0  0  0  0  0  0  0  0
   -2.0873    1.0989    0.7496 H   0  0  0  0  0  0  0  0  0  0  0  0
   -2.7900    0.5516   -0.7887 H   0  0  0  0  0  0  0  0  0  0  0  0
    0.4556   -0.4929    1.2509 C   0  0  0  0  0  0  0  0  0  0  0  0
    1.6467   -0.4281    1.5278 O   0  0  0  0  0  0  0  0  0  0  0  0
   -0.4586   -0.0890    2.2057 N   0  0  0  0  0  0  0  0  0  0  0  0
   -1.4361   -0.2306    1.9752 H   0  0  0  0  0  0  0  0  0  0  0  0
   -0.0971    0.1743    3.5928 C   0  0  0  0  0  0  0  0  0  0  0  0
    0.6153    1.0037    3.6521 H   0  0  0  0  0  0  0  0  0  0  0  0
   -0.9864    0.4420    4.1711 H   0  0  0  0  0  0  0  0  0  0  0  0
    0.3566   -0.7139    4.0451 H   0  0  0  0  0  0  0  0  0  0  0  0
  1  2  1  0  0  0  0
  2  3  1  0  0  0  0
  2  4  1  0  0  0  0
  2  5  1  0  0  0  0
  5  6  2  0  0  0  0
  5  7  1  0  0  0  0
  7  8  1  0  0  0  0
  7  9  1  0  0  0  0
  9 10  1  0  0  0  0
  9 11  1  0  0  0  0
  9 24  1  0  0  0  0
 11 12  1  0  0  0  0
 11 13  1  0  0  0  0
 11 14  1  0  0  0  0
 14 15  1  0  0  0  0
 14 16  1  0  0  0  0
 14 20  1  0  0  0  0
 16 17  1  0  0  0  0
 16 18  1  0  0  0  0
 16 19  1  0  0  0  0
 20 21  1  0  0  0  0
 20 22  1  0  0  0  0
 20 23  1  0  0  0  0
 24 25  2  0  0  0  0
 24 26  1  0  0  0  0
 26 27  1  0  0  0  0
 26 28  1  0  0  0  0
 28 29  1  0  0  0  0
 28 30  1  0  0  0  0
 28 31  1  0  0  0  0
M  END
$$$$

  -OEChem-04042216013D

 31 30  0     1  0  0  0  0  0999 V2000
   -2.8067   -4.4570    0.0692 H   0  0  0  0  0  0  0  0  0  0  0  0
   -2.8022   -3.4398   -0.3329 C   0  0  0  0  0  0  0  0  0  0  0  0
   -3.6185   -2.8769    0.1257 H   0  0  0  0  0  0  0  0  0  0  0  0
   -2.9624   -3.4886   -1.4126 H   0  0  0  0  0  0  0  0  0  0  0  0
   -1.4752   -2.7673   -0.0354 C   0  0  0  0  0  0  0  0  0  0  0  0
   -0.6132   -3.3699    0.5783 O   0  0  0  0  0  0  0  0  0  0  0  0
   -1.2589   -1.4682   -0.4498 N   0  0  0  0  0  0  0  0  0  0  0  0
   -1.9937   -1.0306   -0.9975 H   0  0  0  0  0  0  0  0  0  0  0  0
    0.0192   -0.7493   -0.3111 C   0  0  1  0  0  0  0  0  0  0  0  0
    0.7654   -1.4141   -0.7622 H   0  0  0  0  0  0  0  0  0  0  0  0
    0.0553    0.5188   -1.1965 C   0  0  0  0  0  0  0  0  0  0  0  0
    1.0494    0.9605   -1.0659 H   0  0  0  0  0  0  0  0  0  0  0  0
    0.0161    0.1705   -2.2340 H   0  0  0  0  0  0  0  0  0  0  0  0
   -0.9788    1.6762   -1.0216 C   0  0  0  0  0  0  0  0  0  0  0  0
   -0.3989    2.5928   -0.8654 H   0  0  0  0  0  0  0  0  0  0  0  0
   -1.7618    1.8620   -2.3299 C   0  0  0  0  0  0  0  0  0  0  0  0
   -2.3689    0.9770   -2.5453 H   0  0  0  0  0  0  0  0  0  0  0  0
   -2.4249    2.7301   -2.2616 H   0  0  0  0  0  0  0  0  0  0  0  0
   -1.0763    2.0283   -3.1671 H   0  0  0  0  0  0  0  0  0  0  0  0
   -1.9780    1.5983    0.1417 C   0  0  0  0  0  0  0  0  0  0  0  0
   -2.7062    2.4117    0.0645 H   0  0  0  0  0  0  0  0  0  0  0  0
   -1.4611    1.7265    1.0936 H   0  0  0  0  0  0  0  0  0  0  0  0
   -2.5311    0.6572    0.1461 H   0  0  0  0  0  0  0  0  0  0  0  0
    0.5565   -0.5697    1.1298 C   0  0  0  0  0  0  0  0  0  0  0  0
    1.7672   -0.5399    1.3102 O   0  0  0  0  0  0  0  0  0  0  0  0
   -0.2684   -0.1776    2.1670 N   0  0  0  0  0  0  0  0  0  0  0  0
   -1.2656   -0.2736    2.0072 H   0  0  0  0  0  0  0  0  0  0  0  0
    0.2081    0.0468    3.5259 C   0  0  0  0  0  0  0  0  0  0  0  0
    0.9507    0.8514    3.5439 H   0  0  0  0  0  0  0  0  0  0  0  0
   -0.6245    0.3324    4.1756 H   0  0  0  0  0  0  0  0  0  0  0  0
    0.6648   -0.8643    3.9266 H   0  0  0  0  0  0  0  0  0  0  0  0
  1  2  1  0  0  0  0
  2  3  1  0  0  0  0
  2  4  1  0  0  0  0
  2  5  1  0  0  0  0
  5  6  2  0  0  0  0
  5  7  1  0  0  0  0
  7  8  1  0  0  0  0
  7  9  1  0  0  0  0
  9 10  1  0  0  0  0
  9 11  1  0  0  0  0
  9 24  1  0  0  0  0
 11 12  1  0  0  0  0
 11 13  1  0  0  0  0
 11 14  1  0  0  0  0
 14 15  1  0  0  0  0
 14 16  1  0  0  0  0
 14 20  1  0  0  0  0
 16 17  1  0  0  0  0
 16 18  1  0  0  0  0
 16 19  1  0  0  0  0
 20 21  1  0  0  0  0
 20 22  1  0  0  0  0
 20 23  1  0  0  0  0
 24 25  2  0  0  0  0
 24 26  1  0  0  0  0
 26 27  1  0  0  0  0
 26 28  1  0  0  0  0
 28 29  1  0  0  0  0
 28 30  1  0  0  0  0
 28 31  1  0  0  0  0
M  END
$$$$

  -OEChem-04042216013D

 31 30  0     1  0  0  0  0  0999 V2000
   -2.7392   -4.4537    0.0907 H   0  0  0  0  0  0  0  0  0  0  0  0
   -2.7481   -3.4395   -0.3190 C   0  0  0  0  0  0  0  0  0  0  0  0
   -3.5605   -2.8784    0.1491 H   0  0  0  0  0  0  0  0  0  0  0  0
   -2.9253   -3.4970   -1.3957 H   0  0  0  0  0  0  0  0  0  0  0  0
   -1.4211   -2.7560   -0.0482 C   0  0  0  0  0  0  0  0  0  0  0  0
   -0.5360   -3.3558    0.5345 O   0  0  0  0  0  0  0  0  0  0  0  0
   -1.2333   -1.4478   -0.4468 N   0  0  0  0  0  0  0  0  0  0  0  0
   -1.9904   -1.0084   -0.9614 H   0  0  0  0  0  0  0  0  0  0  0  0
    0.0331   -0.7075   -0.3154 C   0  0  1  0  0  0  0  0  0  0  0  0
    0.7846   -1.3591   -0.7770 H   0  0  0  0  0  0  0  0  0  0  0  0
    0.0313    0.5507   -1.2161 C   0  0  0  0  0  0  0  0  0  0  0  0
    1.0087    1.0259   -1.0764 H   0  0  0  0  0  0  0  0  0  0  0  0
    0.0078    0.2094   -2.2563 H   0  0  0  0  0  0  0  0  0  0  0  0
   -1.0391    1.6663   -1.0286 C   0  0  0  0  0  0  0  0  0  0  0  0
   -0.5199    2.6218   -1.1622 H   0  0  0  0  0  0  0  0  0  0  0  0
   -2.0824    1.5793   -2.1517 C   0  0  0  0  0  0  0  0  0  0  0  0
   -2.6322    0.6350   -2.0962 H   0  0  0  0  0  0  0  0  0  0  0  0
   -2.7989    2.4030   -2.0730 H   0  0  0  0  0  0  0  0  0  0  0  0
   -1.5995    1.6455   -3.1320 H   0  0  0  0  0  0  0  0  0  0  0  0
   -1.7494    1.7461    0.3257 C   0  0  0  0  0  0  0  0  0  0  0  0
   -1.0313    1.9975    1.1103 H   0  0  0  0  0  0  0  0  0  0  0  0
   -2.5044    2.5385    0.3097 H   0  0  0  0  0  0  0  0  0  0  0  0
   -2.2522    0.8076    0.5716 H   0  0  0  0  0  0  0  0  0  0  0  0
    0.5920   -0.5350    1.1193 C   0  0  0  0  0  0  0  0  0  0  0  0
    1.8052   -0.4868    1.2778 O   0  0  0  0  0  0  0  0  0  0  0  0
   -0.2182   -0.1713    2.1792 N   0  0  0  0  0  0  0  0  0  0  0  0
   -1.2166   -0.2815    2.0386 H   0  0  0  0  0  0  0  0  0  0  0  0
    0.2823    0.0346    3.5325 C   0  0  0  0  0  0  0  0  0  0  0  0
    1.0349    0.8301    3.5465 H   0  0  0  0  0  0  0  0  0  0  0  0
   -0.5360    0.3243    4.1983 H   0  0  0  0  0  0  0  0  0  0  0  0
    0.7345   -0.8859    3.9166 H   0  0  0  0  0  0  0  0  0  0  0  0
  1  2  1  0  0  0  0
  2  3  1  0  0  0  0
  2  4  1  0  0  0  0
  2  5  1  0  0  0  0
  5  6  2  0  0  0  0
  5  7  1  0  0  0  0
  7  8  1  0  0  0  0
  7  9  1  0  0  0  0
  9 10  1  0  0  0  0
  9 11  1  0  0  0  0
  9 24  1  0  0  0  0
 11 12  1  0  0  0  0
 11 13  1  0  0  0  0
 11 14  1  0  0  0  0
 14 15  1  0  0  0  0
 14 16  1  0  0  0  0
 14 20  1  0  0  0  0
 16 17  1  0  0  0  0
 16 18  1  0  0  0  0
 16 19  1  0  0  0  0
 20 21  1  0  0  0  0
 20 22  1  0  0  0  0
 20 23  1  0  0  0  0
 24 25  2  0  0  0  0
 24 26  1  0  0  0  0
 26 27  1  0  0  0  0
 26 28  1  0  0  0  0
 28 29  1  0  0  0  0
 28 30  1  0  0  0  0
 28 31  1  0  0  0  0
M  END
$$$$

  -OEChem-04042216013D

 31 30  0     1  0  0  0  0  0999 V2000
   -2.8454   -4.1728    0.8760 H   0  0  0  0  0  0  0  0  0  0  0  0
   -2.8337   -3.1968    0.3826 C   0  0  0  0  0  0  0  0  0  0  0  0
   -3.5177   -2.5275    0.9095 H   0  0  0  0  0  0  0  0  0  0  0  0
   -3.1756   -3.3202   -0.6477 H   0  0  0  0  0  0  0  0  0  0  0  0
   -1.4300   -2.6218    0.3970 C   0  0  0  0  0  0  0  0  0  0  0  0
   -0.5246   -3.2380    0.9316 O   0  0  0  0  0  0  0  0  0  0  0  0
   -1.1918   -1.3874   -0.1718 N   0  0  0  0  0  0  0  0  0  0  0  0
   -1.9821   -0.9056   -0.5878 H   0  0  0  0  0  0  0  0  0  0  0  0
    0.1287   -0.7430   -0.2469 C   0  0  1  0  0  0  0  0  0  0  0  0
    0.7740   -1.5173   -0.6777 H   0  0  0  0  0  0  0  0  0  0  0  0
    0.1560    0.3756   -1.3198 C   0  0  0  0  0  0  0  0  0  0  0  0
    1.1761    0.7750   -1.3259 H   0  0  0  0  0  0  0  0  0  0  0  0
    0.0089   -0.0968   -2.2965 H   0  0  0  0  0  0  0  0  0  0  0  0
   -0.8014    1.5926   -1.2195 C   0  0  0  0  0  0  0  0  0  0  0  0
   -0.3122    2.4067   -1.7658 H   0  0  0  0  0  0  0  0  0  0  0  0
   -2.1267    1.3192   -1.9440 C   0  0  0  0  0  0  0  0  0  0  0  0
   -2.6993    0.5387   -1.4363 H   0  0  0  0  0  0  0  0  0  0  0  0
   -2.7361    2.2280   -1.9713 H   0  0  0  0  0  0  0  0  0  0  0  0
   -1.9433    1.0037   -2.9759 H   0  0  0  0  0  0  0  0  0  0  0  0
   -1.0709    2.1144    0.1906 C   0  0  0  0  0  0  0  0  0  0  0  0
   -0.1295    2.3007    0.7156 H   0  0  0  0  0  0  0  0  0  0  0  0
   -1.6714    1.4034    0.7589 H   0  0  0  0  0  0  0  0  0  0  0  0
   -1.6219    3.0587    0.1424 H   0  0  0  0  0  0  0  0  0  0  0  0
    0.8754   -0.4355    1.0824 C   0  0  0  0  0  0  0  0  0  0  0  0
    2.0857   -0.2747    1.0413 O   0  0  0  0  0  0  0  0  0  0  0  0
    0.3468    0.1177    2.2294 N   0  0  0  0  0  0  0  0  0  0  0  0
    1.0875    0.3960    2.8681 H   0  0  0  0  0  0  0  0  0  0  0  0
   -0.8811   -0.3688    2.8433 C   0  0  0  0  0  0  0  0  0  0  0  0
   -1.0928    0.2049    3.7506 H   0  0  0  0  0  0  0  0  0  0  0  0
   -1.7382   -0.2664    2.1745 H   0  0  0  0  0  0  0  0  0  0  0  0
   -0.7744   -1.4230    3.1195 H   0  0  0  0  0  0  0  0  0  0  0  0
  1  2  1  0  0  0  0
  2  3  1  0  0  0  0
  2  4  1  0  0  0  0
  2  5  1  0  0  0  0
  5  6  2  0  0  0  0
  5  7  1  0  0  0  0
  7  8  1  0  0  0  0
  7  9  1  0  0  0  0
  9 10  1  0  0  0  0
  9 11  1  0  0  0  0
  9 24  1  0  0  0  0
 11 12  1  0  0  0  0
 11 13  1  0  0  0  0
 11 14  1  0  0  0  0
 14 15  1  0  0  0  0
 14 16  1  0  0  0  0
 14 20  1  0  0  0  0
 16 17  1  0  0  0  0
 16 18  1  0  0  0  0
 16 19  1  0  0  0  0
 20 21  1  0  0  0  0
 20 22  1  0  0  0  0
 20 23  1  0  0  0  0
 24 25  2  0  0  0  0
 24 26  1  0  0  0  0
 26 27  1  0  0  0  0
 26 28  1  0  0  0  0
 28 29  1  0  0  0  0
 28 30  1  0  0  0  0
 28 31  1  0  0  0  0
M  END
$$$$

  -OEChem-04042216013D

 31 30  0     1  0  0  0  0  0999 V2000
   -2.8611   -4.4264    0.1079 H   0  0  0  0  0  0  0  0  0  0  0  0
   -2.8335   -3.4149   -0.3072 C   0  0  0  0  0  0  0  0  0  0  0  0
   -3.6444   -2.8314    0.1350 H   0  0  0  0  0  0  0  0  0  0  0  0
   -2.9825   -3.4749   -1.3879 H   0  0  0  0  0  0  0  0  0  0  0  0
   -1.4984   -2.7618   -0.0032 C   0  0  0  0  0  0  0  0  0  0  0  0
   -0.6516   -3.3732    0.6226 O   0  0  0  0  0  0  0  0  0  0  0  0
   -1.2593   -1.4696   -0.4264 N   0  0  0  0  0  0  0  0  0  0  0  0
   -1.9772   -1.0340   -0.9968 H   0  0  0  0  0  0  0  0  0  0  0  0
    0.0296   -0.7709   -0.2914 C   0  0  1  0  0  0  0  0  0  0  0  0
    0.7648   -1.4572   -0.7280 H   0  0  0  0  0  0  0  0  0  0  0  0
    0.1024    0.4812   -1.2018 C   0  0  0  0  0  0  0  0  0  0  0  0
    1.1019    0.9091   -1.0656 H   0  0  0  0  0  0  0  0  0  0  0  0
    0.0540    0.1354   -2.2396 H   0  0  0  0  0  0  0  0  0  0  0  0
   -0.9135    1.6451   -1.0465 C   0  0  0  0  0  0  0  0  0  0  0  0
   -0.5171    2.4602   -1.6624 H   0  0  0  0  0  0  0  0  0  0  0  0
   -2.2965    1.2964   -1.6143 C   0  0  0  0  0  0  0  0  0  0  0  0
   -2.8267    0.5951   -0.9650 H   0  0  0  0  0  0  0  0  0  0  0  0
   -2.9041    2.2030   -1.6984 H   0  0  0  0  0  0  0  0  0  0  0  0
   -2.2043    0.8548   -2.6114 H   0  0  0  0  0  0  0  0  0  0  0  0
   -1.0607    2.2012    0.3709 C   0  0  0  0  0  0  0  0  0  0  0  0
   -0.0807    2.3113    0.8461 H   0  0  0  0  0  0  0  0  0  0  0  0
   -1.6901    1.5510    0.9826 H   0  0  0  0  0  0  0  0  0  0  0  0
   -1.5347    3.1871    0.3368 H   0  0  0  0  0  0  0  0  0  0  0  0
    0.5607   -0.5937    1.1522 C   0  0  0  0  0  0  0  0  0  0  0  0
    1.7707   -0.5722    1.3385 O   0  0  0  0  0  0  0  0  0  0  0  0
   -0.2655   -0.1834    2.1819 N   0  0  0  0  0  0  0  0  0  0  0  0
   -1.2631   -0.2651    2.0171 H   0  0  0  0  0  0  0  0  0  0  0  0
    0.2077    0.0563    3.5391 C   0  0  0  0  0  0  0  0  0  0  0  0
    0.9483    0.8628    3.5494 H   0  0  0  0  0  0  0  0  0  0  0  0
   -0.6268    0.3466    4.1843 H   0  0  0  0  0  0  0  0  0  0  0  0
    0.6662   -0.8495    3.9499 H   0  0  0  0  0  0  0  0  0  0  0  0
  1  2  1  0  0  0  0
  2  3  1  0  0  0  0
  2  4  1  0  0  0  0
  2  5  1  0  0  0  0
  5  6  2  0  0  0  0
  5  7  1  0  0  0  0
  7  8  1  0  0  0  0
  7  9  1  0  0  0  0
  9 10  1  0  0  0  0
  9 11  1  0  0  0  0
  9 24  1  0  0  0  0
 11 12  1  0  0  0  0
 11 13  1  0  0  0  0
 11 14  1  0  0  0  0
 14 15  1  0  0  0  0
 14 16  1  0  0  0  0
 14 20  1  0  0  0  0
 16 17  1  0  0  0  0
 16 18  1  0  0  0  0
 16 19  1  0  0  0  0
 20 21  1  0  0  0  0
 20 22  1  0  0  0  0
 20 23  1  0  0  0  0
 24 25  2  0  0  0  0
 24 26  1  0  0  0  0
 26 27  1  0  0  0  0
 26 28  1  0  0  0  0
 28 29  1  0  0  0  0
 28 30  1  0  0  0  0
 28 31  1  0  0  0  0
M  END
$$$$

  -OEChem-04042216013D

 31 30  0     1  0  0  0  0  0999 V2000
   -2.7232   -4.4817    0.1323 H   0  0  0  0  0  0  0  0  0  0  0  0
   -2.7291   -3.4748   -0.2951 C   0  0  0  0  0  0  0  0  0  0  0  0
   -3.5421   -2.9046    0.1605 H   0  0  0  0  0  0  0  0  0  0  0  0
   -2.9028   -3.5508   -1.3712 H   0  0  0  0  0  0  0  0  0  0  0  0
   -1.4018   -2.7891   -0.0316 C   0  0  0  0  0  0  0  0  0  0  0  0
   -0.5221   -3.3797    0.5680 O   0  0  0  0  0  0  0  0  0  0  0  0
   -1.2056   -1.4920   -0.4625 N   0  0  0  0  0  0  0  0  0  0  0  0
   -1.9545   -1.0683   -1.0015 H   0  0  0  0  0  0  0  0  0  0  0  0
    0.0621   -0.7518   -0.3417 C   0  0  1  0  0  0  0  0  0  0  0  0
    0.8189   -1.4028   -0.7948 H   0  0  0  0  0  0  0  0  0  0  0  0
    0.0786    0.5303   -1.2132 C   0  0  0  0  0  0  0  0  0  0  0  0
    1.0747    0.9757   -1.1133 H   0  0  0  0  0  0  0  0  0  0  0  0
   -0.0117    0.2062   -2.2550 H   0  0  0  0  0  0  0  0  0  0  0  0
   -0.9621    1.6632   -1.0004 C   0  0  0  0  0  0  0  0  0  0  0  0
   -0.7500    2.3966   -1.7863 H   0  0  0  0  0  0  0  0  0  0  0  0
   -2.4171    1.2167   -1.1931 C   0  0  0  0  0  0  0  0  0  0  0  0
   -2.7594    0.6080   -0.3515 H   0  0  0  0  0  0  0  0  0  0  0  0
   -3.0699    2.0925   -1.2616 H   0  0  0  0  0  0  0  0  0  0  0  0
   -2.5220    0.6395   -2.1169 H   0  0  0  0  0  0  0  0  0  0  0  0
   -0.8124    2.4047    0.3327 C   0  0  0  0  0  0  0  0  0  0  0  0
    0.2433    2.5119    0.6021 H   0  0  0  0  0  0  0  0  0  0  0  0
   -1.2477    3.4054    0.2510 H   0  0  0  0  0  0  0  0  0  0  0  0
   -1.3337    1.8842    1.1380 H   0  0  0  0  0  0  0  0  0  0  0  0
    0.5788   -0.5630    1.1039 C   0  0  0  0  0  0  0  0  0  0  0  0
    1.7855   -0.5079    1.3034 O   0  0  0  0  0  0  0  0  0  0  0  0
   -0.2751   -0.1806    2.1218 N   0  0  0  0  0  0  0  0  0  0  0  0
   -1.2671   -0.2904    1.9411 H   0  0  0  0  0  0  0  0  0  0  0  0
    0.1699    0.0684    3.4870 C   0  0  0  0  0  0  0  0  0  0  0  0
    0.9127    0.8729    3.5073 H   0  0  0  0  0  0  0  0  0  0  0  0
   -0.6771    0.3663    4.1121 H   0  0  0  0  0  0  0  0  0  0  0  0
    0.6168   -0.8353    3.9142 H   0  0  0  0  0  0  0  0  0  0  0  0
  1  2  1  0  0  0  0
  2  3  1  0  0  0  0
  2  4  1  0  0  0  0
  2  5  1  0  0  0  0
  5  6  2  0  0  0  0
  5  7  1  0  0  0  0
  7  8  1  0  0  0  0
  7  9  1  0  0  0  0
  9 10  1  0  0  0  0
  9 11  1  0  0  0  0
  9 24  1  0  0  0  0
 11 12  1  0  0  0  0
 11 13  1  0  0  0  0
 11 14  1  0  0  0  0
 14 15  1  0  0  0  0
 14 16  1  0  0  0  0
 14 20  1  0  0  0  0
 16 17  1  0  0  0  0
 16 18  1  0  0  0  0
 16 19  1  0  0  0  0
 20 21  1  0  0  0  0
 20 22  1  0  0  0  0
 20 23  1  0  0  0  0
 24 25  2  0  0  0  0
 24 26  1  0  0  0  0
 26 27  1  0  0  0  0
 26 28  1  0  0  0  0
 28 29  1  0  0  0  0
 28 30  1  0  0  0  0
 28 31  1  0  0  0  0
M  END
$$$$

  -OEChem-04042216013D

 31 30  0     1  0  0  0  0  0999 V2000
   -2.7152   -4.4765    0.1709 H   0  0  0  0  0  0  0  0  0  0  0  0
   -2.7198   -3.4749   -0.2684 C   0  0  0  0  0  0  0  0  0  0  0  0
   -3.5257   -2.8950    0.1874 H   0  0  0  0  0  0  0  0  0  0  0  0
   -2.9039   -3.5630   -1.3417 H   0  0  0  0  0  0  0  0  0  0  0  0
   -1.3865   -2.7933   -0.0251 C   0  0  0  0  0  0  0  0  0  0  0  0
   -0.5067   -3.3788    0.5796 O   0  0  0  0  0  0  0  0  0  0  0  0
   -1.1863   -1.5049   -0.4797 N   0  0  0  0  0  0  0  0  0  0  0  0
   -1.9370   -1.0863   -1.0197 H   0  0  0  0  0  0  0  0  0  0  0  0
    0.0821   -0.7628   -0.3668 C   0  0  1  0  0  0  0  0  0  0  0  0
    0.8459   -1.4090   -0.8148 H   0  0  0  0  0  0  0  0  0  0  0  0
    0.0939    0.5320   -1.2209 C   0  0  0  0  0  0  0  0  0  0  0  0
    1.0984    0.9637   -1.1510 H   0  0  0  0  0  0  0  0  0  0  0  0
   -0.0304    0.2119   -2.2604 H   0  0  0  0  0  0  0  0  0  0  0  0
   -0.9384    1.6713   -0.9850 C   0  0  0  0  0  0  0  0  0  0  0  0
   -0.9103    2.2842   -1.8926 H   0  0  0  0  0  0  0  0  0  0  0  0
   -2.3911    1.2154   -0.8040 C   0  0  0  0  0  0  0  0  0  0  0  0
   -2.5230    0.6878    0.1452 H   0  0  0  0  0  0  0  0  0  0  0  0
   -3.0576    2.0838   -0.8028 H   0  0  0  0  0  0  0  0  0  0  0  0
   -2.6913    0.5590   -1.6262 H   0  0  0  0  0  0  0  0  0  0  0  0
   -0.5371    2.6007    0.1690 C   0  0  0  0  0  0  0  0  0  0  0  0
    0.5240    2.8612    0.1051 H   0  0  0  0  0  0  0  0  0  0  0  0
   -1.1172    3.5273    0.1194 H   0  0  0  0  0  0  0  0  0  0  0  0
   -0.7246    2.1427    1.1405 H   0  0  0  0  0  0  0  0  0  0  0  0
    0.5709   -0.5591    1.0855 C   0  0  0  0  0  0  0  0  0  0  0  0
    1.7726   -0.5107    1.3141 O   0  0  0  0  0  0  0  0  0  0  0  0
   -0.3090   -0.1638    2.0765 N   0  0  0  0  0  0  0  0  0  0  0  0
   -1.2957   -0.2739    1.8694 H   0  0  0  0  0  0  0  0  0  0  0  0
    0.0997    0.0697    3.4556 C   0  0  0  0  0  0  0  0  0  0  0  0
    0.8577    0.8586    3.5024 H   0  0  0  0  0  0  0  0  0  0  0  0
   -0.7592    0.3823    4.0567 H   0  0  0  0  0  0  0  0  0  0  0  0
    0.5154   -0.8452    3.8909 H   0  0  0  0  0  0  0  0  0  0  0  0
  1  2  1  0  0  0  0
  2  3  1  0  0  0  0
  2  4  1  0  0  0  0
  2  5  1  0  0  0  0
  5  6  2  0  0  0  0
  5  7  1  0  0  0  0
  7  8  1  0  0  0  0
  7  9  1  0  0  0  0
  9 10  1  0  0  0  0
  9 11  1  0  0  0  0
  9 24  1  0  0  0  0
 11 12  1  0  0  0  0
 11 13  1  0  0  0  0
 11 14  1  0  0  0  0
 14 15  1  0  0  0  0
 14 16  1  0  0  0  0
 14 20  1  0  0  0  0
 16 17  1  0  0  0  0
 16 18  1  0  0  0  0
 16 19  1  0  0  0  0
 20 21  1  0  0  0  0
 20 22  1  0  0  0  0
 20 23  1  0  0  0  0
 24 25  2  0  0  0  0
 24 26  1  0  0  0  0
 26 27  1  0  0  0  0
 26 28  1  0  0  0  0
 28 29  1  0  0  0  0
 28 30  1  0  0  0  0
 28 31  1  0  0  0  0
M  END
$$$$

  -OEChem-04042216013D

 31 30  0     1  0  0  0  0  0999 V2000
   -2.7063   -4.4899    0.1518 H   0  0  0  0  0  0  0  0  0  0  0  0
   -2.7110   -3.4892   -0.2897 C   0  0  0  0  0  0  0  0  0  0  0  0
   -3.5351   -2.9174    0.1434 H   0  0  0  0  0  0  0  0  0  0  0  0
   -2.8659   -3.5819   -1.3673 H   0  0  0  0  0  0  0  0  0  0  0  0
   -1.3928   -2.7910   -0.0135 C   0  0  0  0  0  0  0  0  0  0  0  0
   -0.5301   -3.3569    0.6330 O   0  0  0  0  0  0  0  0  0  0  0  0
   -1.1868   -1.5102   -0.4861 N   0  0  0  0  0  0  0  0  0  0  0  0
   -1.9178   -1.1128   -1.0676 H   0  0  0  0  0  0  0  0  0  0  0  0
    0.0807   -0.7682   -0.3652 C   0  0  1  0  0  0  0  0  0  0  0  0
    0.8476   -1.4184   -0.8021 H   0  0  0  0  0  0  0  0  0  0  0  0
    0.0999    0.5246   -1.2196 C   0  0  0  0  0  0  0  0  0  0  0  0
    1.1073    0.9503   -1.1559 H   0  0  0  0  0  0  0  0  0  0  0  0
   -0.0270    0.2000   -2.2574 H   0  0  0  0  0  0  0  0  0  0  0  0
   -0.9387    1.6628   -0.9879 C   0  0  0  0  0  0  0  0  0  0  0  0
   -1.0913    2.1538   -1.9552 H   0  0  0  0  0  0  0  0  0  0  0  0
   -2.3215    1.2430   -0.4686 C   0  0  0  0  0  0  0  0  0  0  0  0
   -2.2584    0.7848    0.5204 H   0  0  0  0  0  0  0  0  0  0  0  0
   -2.9734    2.1190   -0.3920 H   0  0  0  0  0  0  0  0  0  0  0  0
   -2.7910    0.5393   -1.1616 H   0  0  0  0  0  0  0  0  0  0  0  0
   -0.3587    2.7205   -0.0370 C   0  0  0  0  0  0  0  0  0  0  0  0
    0.5899    3.1052   -0.4246 H   0  0  0  0  0  0  0  0  0  0  0  0
   -1.0493    3.5638    0.0618 H   0  0  0  0  0  0  0  0  0  0  0  0
   -0.1807    2.3046    0.9576 H   0  0  0  0  0  0  0  0  0  0  0  0
    0.5672   -0.5310    1.0841 C   0  0  0  0  0  0  0  0  0  0  0  0
    1.7695   -0.4798    1.3099 O   0  0  0  0  0  0  0  0  0  0  0  0
   -0.3083   -0.1108    2.0690 N   0  0  0  0  0  0  0  0  0  0  0  0
   -1.2956   -0.2306    1.8706 H   0  0  0  0  0  0  0  0  0  0  0  0
    0.1058    0.1561    3.4403 C   0  0  0  0  0  0  0  0  0  0  0  0
    0.8596    0.9501    3.4656 H   0  0  0  0  0  0  0  0  0  0  0  0
   -0.7520    0.4774    4.0386 H   0  0  0  0  0  0  0  0  0  0  0  0
    0.5285   -0.7463    3.8946 H   0  0  0  0  0  0  0  0  0  0  0  0
  1  2  1  0  0  0  0
  2  3  1  0  0  0  0
  2  4  1  0  0  0  0
  2  5  1  0  0  0  0
  5  6  2  0  0  0  0
  5  7  1  0  0  0  0
  7  8  1  0  0  0  0
  7  9  1  0  0  0  0
  9 10  1  0  0  0  0
  9 11  1  0  0  0  0
  9 24  1  0  0  0  0
 11 12  1  0  0  0  0
 11 13  1  0  0  0  0
 11 14  1  0  0  0  0
 14 15  1  0  0  0  0
 14 16  1  0  0  0  0
 14 20  1  0  0  0  0
 16 17  1  0  0  0  0
 16 18  1  0  0  0  0
 16 19  1  0  0  0  0
 20 21  1  0  0  0  0
 20 22  1  0  0  0  0
 20 23  1  0  0  0  0
 24 25  2  0  0  0  0
 24 26  1  0  0  0  0
 26 27  1  0  0  0  0
 26 28  1  0  0  0  0
 28 29  1  0  0  0  0
 28 30  1  0  0  0  0
 28 31  1  0  0  0  0
M  END
$$$$

  -OEChem-04042216013D

 31 30  0     1  0  0  0  0  0999 V2000
   -2.7426   -4.4929    0.1027 H   0  0  0  0  0  0  0  0  0  0  0  0
   -2.7237   -3.4924   -0.3391 C   0  0  0  0  0  0  0  0  0  0  0  0
   -3.5748   -2.9235    0.0424 H   0  0  0  0  0  0  0  0  0  0  0  0
   -2.8122   -3.5865   -1.4241 H   0  0  0  0  0  0  0  0  0  0  0  0
   -1.4271   -2.7900    0.0176 C   0  0  0  0  0  0  0  0  0  0  0  0
   -0.6110   -3.3473    0.7290 O   0  0  0  0  0  0  0  0  0  0  0  0
   -1.1882   -1.5138   -0.4517 N   0  0  0  0  0  0  0  0  0  0  0  0
   -1.8762   -1.1214   -1.0868 H   0  0  0  0  0  0  0  0  0  0  0  0
    0.0756   -0.7811   -0.2629 C   0  0  1  0  0  0  0  0  0  0  0  0
    0.8508   -1.4590   -0.6389 H   0  0  0  0  0  0  0  0  0  0  0  0
    0.1810    0.4722   -1.1643 C   0  0  0  0  0  0  0  0  0  0  0  0
    1.1899    0.8806   -1.0367 H   0  0  0  0  0  0  0  0  0  0  0  0
    0.1353    0.1052   -2.1947 H   0  0  0  0  0  0  0  0  0  0  0  0
   -0.8554    1.6353   -1.0714 C   0  0  0  0  0  0  0  0  0  0  0  0
   -1.1069    1.9306   -2.0959 H   0  0  0  0  0  0  0  0  0  0  0  0
   -2.1766    1.3684   -0.3324 C   0  0  0  0  0  0  0  0  0  0  0  0
   -2.8129    2.2577   -0.3798 H   0  0  0  0  0  0  0  0  0  0  0  0
   -2.0173    1.1339    0.7187 H   0  0  0  0  0  0  0  0  0  0  0  0
   -2.7254    0.5504   -0.8055 H   0  0  0  0  0  0  0  0  0  0  0  0
   -0.1872    2.8394   -0.3909 C   0  0  0  0  0  0  0  0  0  0  0  0
    0.7008    3.1526   -0.9492 H   0  0  0  0  0  0  0  0  0  0  0  0
   -0.8754    3.6895   -0.3483 H   0  0  0  0  0  0  0  0  0  0  0  0
    0.1159    2.5858    0.6304 H   0  0  0  0  0  0  0  0  0  0  0  0
    0.5168   -0.5177    1.1976 C   0  0  0  0  0  0  0  0  0  0  0  0
    1.7133   -0.4691    1.4540 O   0  0  0  0  0  0  0  0  0  0  0  0
   -0.3744   -0.0719    2.1552 N   0  0  0  0  0  0  0  0  0  0  0  0
   -1.3583   -0.1938    1.9415 H   0  0  0  0  0  0  0  0  0  0  0  0
    0.0144    0.2302    3.5266 C   0  0  0  0  0  0  0  0  0  0  0  0
    0.7501    1.0412    3.5459 H   0  0  0  0  0  0  0  0  0  0  0  0
   -0.8585    0.5430    4.1074 H   0  0  0  0  0  0  0  0  0  0  0  0
    0.4507   -0.6538    4.0035 H   0  0  0  0  0  0  0  0  0  0  0  0
  1  2  1  0  0  0  0
  2  3  1  0  0  0  0
  2  4  1  0  0  0  0
  2  5  1  0  0  0  0
  5  6  2  0  0  0  0
  5  7  1  0  0  0  0
  7  8  1  0  0  0  0
  7  9  1  0  0  0  0
  9 10  1  0  0  0  0
  9 11  1  0  0  0  0
  9 24  1  0  0  0  0
 11 12  1  0  0  0  0
 11 13  1  0  0  0  0
 11 14  1  0  0  0  0
 14 15  1  0  0  0  0
 14 16  1  0  0  0  0
 14 20  1  0  0  0  0
 16 17  1  0  0  0  0
 16 18  1  0  0  0  0
 16 19  1  0  0  0  0
 20 21  1  0  0  0  0
 20 22  1  0  0  0  0
 20 23  1  0  0  0  0
 24 25  2  0  0  0  0
 24 26  1  0  0  0  0
 26 27  1  0  0  0  0
 26 28  1  0  0  0  0
 28 29  1  0  0  0  0
 28 30  1  0  0  0  0
 28 31  1  0  0  0  0
M  END
$$$$

  -OEChem-04042216013D

 31 30  0     1  0  0  0  0  0999 V2000
   -2.7384   -4.4841    0.0615 H   0  0  0  0  0  0  0  0  0  0  0  0
   -2.7418   -3.4696   -0.3474 C   0  0  0  0  0  0  0  0  0  0  0  0
   -3.5722   -2.9148    0.0956 H   0  0  0  0  0  0  0  0  0  0  0  0
   -2.8852   -3.5279   -1.4291 H   0  0  0  0  0  0  0  0  0  0  0  0
   -1.4285   -2.7771   -0.0351 C   0  0  0  0  0  0  0  0  0  0  0  0
   -0.5677   -3.3650    0.5942 O   0  0  0  0  0  0  0  0  0  0  0  0
   -1.2208   -1.4794   -0.4584 N   0  0  0  0  0  0  0  0  0  0  0  0
   -1.9496   -1.0589   -1.0269 H   0  0  0  0  0  0  0  0  0  0  0  0
    0.0499   -0.7489   -0.3106 C   0  0  1  0  0  0  0  0  0  0  0  0
    0.8053   -1.4083   -0.7539 H   0  0  0  0  0  0  0  0  0  0  0  0
    0.0931    0.5271   -1.1843 C   0  0  0  0  0  0  0  0  0  0  0  0
    1.1016    0.9407   -1.0706 H   0  0  0  0  0  0  0  0  0  0  0  0
    0.0212    0.1953   -2.2251 H   0  0  0  0  0  0  0  0  0  0  0  0
   -0.9423    1.6839   -1.0129 C   0  0  0  0  0  0  0  0  0  0  0  0
   -1.4633    1.7771   -1.9723 H   0  0  0  0  0  0  0  0  0  0  0  0
   -2.0356    1.5467    0.0574 C   0  0  0  0  0  0  0  0  0  0  0  0
   -1.6165    1.6292    1.0610 H   0  0  0  0  0  0  0  0  0  0  0  0
   -2.7624    2.3568   -0.0585 H   0  0  0  0  0  0  0  0  0  0  0  0
   -2.5804    0.6061   -0.0360 H   0  0  0  0  0  0  0  0  0  0  0  0
   -0.1980    3.0030   -0.7612 C   0  0  0  0  0  0  0  0  0  0  0  0
    0.5151    3.2007   -1.5679 H   0  0  0  0  0  0  0  0  0  0  0  0
   -0.9021    3.8400   -0.7181 H   0  0  0  0  0  0  0  0  0  0  0  0
    0.3501    2.9610    0.1859 H   0  0  0  0  0  0  0  0  0  0  0  0
    0.5710   -0.5521    1.1338 C   0  0  0  0  0  0  0  0  0  0  0  0
    1.7798   -0.5133    1.3262 O   0  0  0  0  0  0  0  0  0  0  0  0
   -0.2664   -0.1573    2.1599 N   0  0  0  0  0  0  0  0  0  0  0  0
   -1.2620   -0.2544    1.9913 H   0  0  0  0  0  0  0  0  0  0  0  0
    0.1978    0.0924    3.5186 C   0  0  0  0  0  0  0  0  0  0  0  0
    0.9327    0.9042    3.5293 H   0  0  0  0  0  0  0  0  0  0  0  0
   -0.6417    0.3797    4.1586 H   0  0  0  0  0  0  0  0  0  0  0  0
    0.6605   -0.8083    3.9358 H   0  0  0  0  0  0  0  0  0  0  0  0
  1  2  1  0  0  0  0
  2  3  1  0  0  0  0
  2  4  1  0  0  0  0
  2  5  1  0  0  0  0
  5  6  2  0  0  0  0
  5  7  1  0  0  0  0
  7  8  1  0  0  0  0
  7  9  1  0  0  0  0
  9 10  1  0  0  0  0
  9 11  1  0  0  0  0
  9 24  1  0  0  0  0
 11 12  1  0  0  0  0
 11 13  1  0  0  0  0
 11 14  1  0  0  0  0
 14 15  1  0  0  0  0
 14 16  1  0  0  0  0
 14 20  1  0  0  0  0
 16 17  1  0  0  0  0
 16 18  1  0  0  0  0
 16 19  1  0  0  0  0
 20 21  1  0  0  0  0
 20 22  1  0  0  0  0
 20 23  1  0  0  0  0
 24 25  2  0  0  0  0
 24 26  1  0  0  0  0
 26 27  1  0  0  0  0
 26 28  1  0  0  0  0
 28 29  1  0  0  0  0
 28 30  1  0  0  0  0
 28 31  1  0  0  0  0
M  END
$$$$

  -OEChem-04042216013D

 31 30  0     1  0  0  0  0  0999 V2000
   -2.7525   -4.4374    0.0277 H   0  0  0  0  0  0  0  0  0  0  0  0
   -2.7493   -3.4187   -0.3706 C   0  0  0  0  0  0  0  0  0  0  0  0
   -3.5697   -2.8600    0.0860 H   0  0  0  0  0  0  0  0  0  0  0  0
   -2.9040   -3.4641   -1.4513 H   0  0  0  0  0  0  0  0  0  0  0  0
   -1.4261   -2.7430   -0.0631 C   0  0  0  0  0  0  0  0  0  0  0  0
   -0.5633   -3.3473    0.5477 O   0  0  0  0  0  0  0  0  0  0  0  0
   -1.2150   -1.4381   -0.4617 N   0  0  0  0  0  0  0  0  0  0  0  0
   -1.9511   -0.9970   -1.0045 H   0  0  0  0  0  0  0  0  0  0  0  0
    0.0584   -0.7138   -0.3036 C   0  0  1  0  0  0  0  0  0  0  0  0
    0.8109   -1.3720   -0.7538 H   0  0  0  0  0  0  0  0  0  0  0  0
    0.0920    0.5559   -1.1859 C   0  0  0  0  0  0  0  0  0  0  0  0
    1.0888    0.9889   -1.0438 H   0  0  0  0  0  0  0  0  0  0  0  0
    0.0452    0.2328   -2.2309 H   0  0  0  0  0  0  0  0  0  0  0  0
   -0.9596    1.6918   -1.0076 C   0  0  0  0  0  0  0  0  0  0  0  0
   -1.6711    1.5797   -1.8330 H   0  0  0  0  0  0  0  0  0  0  0  0
   -1.8039    1.7008    0.2724 C   0  0  0  0  0  0  0  0  0  0  0  0
   -1.1856    1.9575    1.1364 H   0  0  0  0  0  0  0  0  0  0  0  0
   -2.5902    2.4579    0.1914 H   0  0  0  0  0  0  0  0  0  0  0  0
   -2.2905    0.7387    0.4438 H   0  0  0  0  0  0  0  0  0  0  0  0
   -0.2786    3.0577   -1.1638 C   0  0  0  0  0  0  0  0  0  0  0  0
    0.2672    3.1062   -2.1115 H   0  0  0  0  0  0  0  0  0  0  0  0
   -1.0226    3.8606   -1.1566 H   0  0  0  0  0  0  0  0  0  0  0  0
    0.4279    3.2320   -0.3456 H   0  0  0  0  0  0  0  0  0  0  0  0
    0.5873   -0.5443    1.1423 C   0  0  0  0  0  0  0  0  0  0  0  0
    1.7972   -0.5133    1.3283 O   0  0  0  0  0  0  0  0  0  0  0  0
   -0.2427   -0.1665    2.1813 N   0  0  0  0  0  0  0  0  0  0  0  0
   -1.2392   -0.2605    2.0172 H   0  0  0  0  0  0  0  0  0  0  0  0
    0.2292    0.0406    3.5444 C   0  0  0  0  0  0  0  0  0  0  0  0
    0.9751    0.8417    3.5744 H   0  0  0  0  0  0  0  0  0  0  0  0
   -0.6045    0.3218    4.1943 H   0  0  0  0  0  0  0  0  0  0  0  0
    0.6808   -0.8769    3.9358 H   0  0  0  0  0  0  0  0  0  0  0  0
  1  2  1  0  0  0  0
  2  3  1  0  0  0  0
  2  4  1  0  0  0  0
  2  5  1  0  0  0  0
  5  6  2  0  0  0  0
  5  7  1  0  0  0  0
  7  8  1  0  0  0  0
  7  9  1  0  0  0  0
  9 10  1  0  0  0  0
  9 11  1  0  0  0  0
  9 24  1  0  0  0  0
 11 12  1  0  0  0  0
 11 13  1  0  0  0  0
 11 14  1  0  0  0  0
 14 15  1  0  0  0  0
 14 16  1  0  0  0  0
 14 20  1  0  0  0  0
 16 17  1  0  0  0  0
 16 18  1  0  0  0  0
 16 19  1  0  0  0  0
 20 21  1  0  0  0  0
 20 22  1  0  0  0  0
 20 23  1  0  0  0  0
 24 25  2  0  0  0  0
 24 26  1  0  0  0  0
 26 27  1  0  0  0  0
 26 28  1  0  0  0  0
 28 29  1  0  0  0  0
 28 30  1  0  0  0  0
 28 31  1  0  0  0  0
M  END
$$$$

  -OEChem-04042216013D

 31 30  0     1  0  0  0  0  0999 V2000
   -2.6787   -4.4578    0.0359 H   0  0  0  0  0  0  0  0  0  0  0  0
   -2.6945   -3.4345   -0.3504 C   0  0  0  0  0  0  0  0  0  0  0  0
   -3.5304   -2.8992    0.1062 H   0  0  0  0  0  0  0  0  0  0  0  0
   -2.8399   -3.4707   -1.4327 H   0  0  0  0  0  0  0  0  0  0  0  0
   -1.3885   -2.7342   -0.0254 C   0  0  0  0  0  0  0  0  0  0  0  0
   -0.5266   -3.3189    0.6054 O   0  0  0  0  0  0  0  0  0  0  0  0
   -1.1919   -1.4295   -0.4321 N   0  0  0  0  0  0  0  0  0  0  0  0
   -1.9274   -1.0041   -0.9879 H   0  0  0  0  0  0  0  0  0  0  0  0
    0.0668   -0.6836   -0.2610 C   0  0  1  0  0  0  0  0  0  0  0  0
    0.8338   -1.3441   -0.6823 H   0  0  0  0  0  0  0  0  0  0  0  0
    0.1024    0.5525   -1.1899 C   0  0  0  0  0  0  0  0  0  0  0  0
    1.0804    1.0206   -1.0308 H   0  0  0  0  0  0  0  0  0  0  0  0
    0.0921    0.1967   -2.2254 H   0  0  0  0  0  0  0  0  0  0  0  0
   -0.9837    1.6562   -1.0644 C   0  0  0  0  0  0  0  0  0  0  0  0
   -1.8117    1.3611   -1.7179 H   0  0  0  0  0  0  0  0  0  0  0  0
   -1.5911    1.8777    0.3220 C   0  0  0  0  0  0  0  0  0  0  0  0
   -0.8166    2.1666    1.0389 H   0  0  0  0  0  0  0  0  0  0  0  0
   -2.3328    2.6815    0.2837 H   0  0  0  0  0  0  0  0  0  0  0  0
   -2.1007    0.9766    0.6719 H   0  0  0  0  0  0  0  0  0  0  0  0
   -0.4228    2.9839   -1.5885 C   0  0  0  0  0  0  0  0  0  0  0  0
   -0.0356    2.8599   -2.6048 H   0  0  0  0  0  0  0  0  0  0  0  0
   -1.2058    3.7482   -1.6119 H   0  0  0  0  0  0  0  0  0  0  0  0
    0.3899    3.3398   -0.9468 H   0  0  0  0  0  0  0  0  0  0  0  0
    0.5818   -0.4863    1.1879 C   0  0  0  0  0  0  0  0  0  0  0  0
    1.7898   -0.4255    1.3783 O   0  0  0  0  0  0  0  0  0  0  0  0
   -0.2569   -0.1094    2.2210 N   0  0  0  0  0  0  0  0  0  0  0  0
   -1.2515   -0.2233    2.0587 H   0  0  0  0  0  0  0  0  0  0  0  0
    0.2103    0.1464    3.5777 C   0  0  0  0  0  0  0  0  0  0  0  0
    0.9215    0.9791    3.5866 H   0  0  0  0  0  0  0  0  0  0  0  0
   -0.6324    0.4060    4.2254 H   0  0  0  0  0  0  0  0  0  0  0  0
    0.7024   -0.7421    3.9869 H   0  0  0  0  0  0  0  0  0  0  0  0
  1  2  1  0  0  0  0
  2  3  1  0  0  0  0
  2  4  1  0  0  0  0
  2  5  1  0  0  0  0
  5  6  2  0  0  0  0
  5  7  1  0  0  0  0
  7  8  1  0  0  0  0
  7  9  1  0  0  0  0
  9 10  1  0  0  0  0
  9 11  1  0  0  0  0
  9 24  1  0  0  0  0
 11 12  1  0  0  0  0
 11 13  1  0  0  0  0
 11 14  1  0  0  0  0
 14 15  1  0  0  0  0
 14 16  1  0  0  0  0
 14 20  1  0  0  0  0
 16 17  1  0  0  0  0
 16 18  1  0  0  0  0
 16 19  1  0  0  0  0
 20 21  1  0  0  0  0
 20 22  1  0  0  0  0
 20 23  1  0  0  0  0
 24 25  2  0  0  0  0
 24 26  1  0  0  0  0
 26 27  1  0  0  0  0
 26 28  1  0  0  0  0
 28 29  1  0  0  0  0
 28 30  1  0  0  0  0
 28 31  1  0  0  0  0
M  END
$$$$

  -OEChem-04042216013D

 31 30  0     1  0  0  0  0  0999 V2000
   -2.8611   -4.3540    0.0204 H   0  0  0  0  0  0  0  0  0  0  0  0
   -2.8366   -3.3323   -0.3693 C   0  0  0  0  0  0  0  0  0  0  0  0
   -3.6460   -2.7610    0.0911 H   0  0  0  0  0  0  0  0  0  0  0  0
   -2.9906   -3.3652   -1.4505 H   0  0  0  0  0  0  0  0  0  0  0  0
   -1.5007   -2.6858   -0.0553 C   0  0  0  0  0  0  0  0  0  0  0  0
   -0.6522   -3.3100    0.5557 O   0  0  0  0  0  0  0  0  0  0  0  0
   -1.2624   -1.3840   -0.4486 N   0  0  0  0  0  0  0  0  0  0  0  0
   -1.9881   -0.9278   -0.9926 H   0  0  0  0  0  0  0  0  0  0  0  0
    0.0256   -0.6875   -0.2880 C   0  0  1  0  0  0  0  0  0  0  0  0
    0.7609   -1.3721   -0.7271 H   0  0  0  0  0  0  0  0  0  0  0  0
    0.0962    0.5540   -1.2073 C   0  0  0  0  0  0  0  0  0  0  0  0
    1.0905    0.9916   -1.0637 H   0  0  0  0  0  0  0  0  0  0  0  0
    0.0515    0.2044   -2.2441 H   0  0  0  0  0  0  0  0  0  0  0  0
   -0.9516    1.6854   -1.0469 C   0  0  0  0  0  0  0  0  0  0  0  0
   -1.8943    1.3315   -1.4772 H   0  0  0  0  0  0  0  0  0  0  0  0
   -1.2491    2.1253    0.3875 C   0  0  0  0  0  0  0  0  0  0  0  0
   -0.3202    2.3087    0.9370 H   0  0  0  0  0  0  0  0  0  0  0  0
   -1.8382    1.3634    0.9026 H   0  0  0  0  0  0  0  0  0  0  0  0
   -1.8364    3.0491    0.3910 H   0  0  0  0  0  0  0  0  0  0  0  0
   -0.4906    2.9014   -1.8608 C   0  0  0  0  0  0  0  0  0  0  0  0
   -0.2986    2.6159   -2.9000 H   0  0  0  0  0  0  0  0  0  0  0  0
   -1.2608    3.6791   -1.8583 H   0  0  0  0  0  0  0  0  0  0  0  0
    0.4286    3.3222   -1.4401 H   0  0  0  0  0  0  0  0  0  0  0  0
    0.5671   -0.5302    1.1555 C   0  0  0  0  0  0  0  0  0  0  0  0
    1.7791   -0.5151    1.3299 O   0  0  0  0  0  0  0  0  0  0  0  0
   -0.2446   -0.1373    2.2038 N   0  0  0  0  0  0  0  0  0  0  0  0
   -1.2443   -0.2191    2.0529 H   0  0  0  0  0  0  0  0  0  0  0  0
    0.2473    0.0692    3.5599 C   0  0  0  0  0  0  0  0  0  0  0  0
    0.9932    0.8708    3.5790 H   0  0  0  0  0  0  0  0  0  0  0  0
   -0.5770    0.3496    4.2224 H   0  0  0  0  0  0  0  0  0  0  0  0
    0.7054   -0.8483    3.9441 H   0  0  0  0  0  0  0  0  0  0  0  0
  1  2  1  0  0  0  0
  2  3  1  0  0  0  0
  2  4  1  0  0  0  0
  2  5  1  0  0  0  0
  5  6  2  0  0  0  0
  5  7  1  0  0  0  0
  7  8  1  0  0  0  0
  7  9  1  0  0  0  0
  9 10  1  0  0  0  0
  9 11  1  0  0  0  0
  9 24  1  0  0  0  0
 11 12  1  0  0  0  0
 11 13  1  0  0  0  0
 11 14  1  0  0  0  0
 14 15  1  0  0  0  0
 14 16  1  0  0  0  0
 14 20  1  0  0  0  0
 16 17  1  0  0  0  0
 16 18  1  0  0  0  0
 16 19  1  0  0  0  0
 20 21  1  0  0  0  0
 20 22  1  0  0  0  0
 20 23  1  0  0  0  0
 24 25  2  0  0  0  0
 24 26  1  0  0  0  0
 26 27  1  0  0  0  0
 26 28  1  0  0  0  0
 28 29  1  0  0  0  0
 28 30  1  0  0  0  0
 28 31  1  0  0  0  0
M  END
$$$$

  -OEChem-04042216013D

 31 30  0     1  0  0  0  0  0999 V2000
   -2.7880   -4.3740    0.0435 H   0  0  0  0  0  0  0  0  0  0  0  0
   -2.7814   -3.3582   -0.3619 C   0  0  0  0  0  0  0  0  0  0  0  0
   -3.5988   -2.7931    0.0922 H   0  0  0  0  0  0  0  0  0  0  0  0
   -2.9382   -3.4107   -1.4419 H   0  0  0  0  0  0  0  0  0  0  0  0
   -1.4547   -2.6861   -0.0622 C   0  0  0  0  0  0  0  0  0  0  0  0
   -0.5915   -3.2918    0.5467 O   0  0  0  0  0  0  0  0  0  0  0  0
   -1.2401   -1.3838   -0.4681 N   0  0  0  0  0  0  0  0  0  0  0  0
   -1.9745   -0.9460   -1.0155 H   0  0  0  0  0  0  0  0  0  0  0  0
    0.0384   -0.6664   -0.3221 C   0  0  1  0  0  0  0  0  0  0  0  0
    0.7849   -1.3342   -0.7680 H   0  0  0  0  0  0  0  0  0  0  0  0
    0.0714    0.5835   -1.2306 C   0  0  0  0  0  0  0  0  0  0  0  0
    1.0600    1.0430   -1.1191 H   0  0  0  0  0  0  0  0  0  0  0  0
   -0.0000    0.2332   -2.2656 H   0  0  0  0  0  0  0  0  0  0  0  0
   -0.9994    1.6842   -1.0276 C   0  0  0  0  0  0  0  0  0  0  0  0
   -1.9889    1.2516   -1.2058 H   0  0  0  0  0  0  0  0  0  0  0  0
   -1.0065    2.3290    0.3626 C   0  0  0  0  0  0  0  0  0  0  0  0
    0.0139    2.4622    0.7366 H   0  0  0  0  0  0  0  0  0  0  0  0
   -1.4917    3.3097    0.3332 H   0  0  0  0  0  0  0  0  0  0  0  0
   -1.5734    1.7131    1.0626 H   0  0  0  0  0  0  0  0  0  0  0  0
   -0.7675    2.7778   -2.0792 C   0  0  0  0  0  0  0  0  0  0  0  0
   -0.7847    2.3517   -3.0873 H   0  0  0  0  0  0  0  0  0  0  0  0
   -1.5515    3.5394   -2.0203 H   0  0  0  0  0  0  0  0  0  0  0  0
    0.2013    3.2638   -1.9235 H   0  0  0  0  0  0  0  0  0  0  0  0
    0.5740   -0.4969    1.1210 C   0  0  0  0  0  0  0  0  0  0  0  0
    1.7846   -0.4646    1.3012 O   0  0  0  0  0  0  0  0  0  0  0  0
   -0.2513   -0.1122    2.1616 N   0  0  0  0  0  0  0  0  0  0  0  0
   -1.2483   -0.2127    2.0041 H   0  0  0  0  0  0  0  0  0  0  0  0
    0.2270    0.0965    3.5226 C   0  0  0  0  0  0  0  0  0  0  0  0
    0.9797    0.8915    3.5470 H   0  0  0  0  0  0  0  0  0  0  0  0
   -0.6020    0.3876    4.1745 H   0  0  0  0  0  0  0  0  0  0  0  0
    0.6721   -0.8235    3.9160 H   0  0  0  0  0  0  0  0  0  0  0  0
  1  2  1  0  0  0  0
  2  3  1  0  0  0  0
  2  4  1  0  0  0  0
  2  5  1  0  0  0  0
  5  6  2  0  0  0  0
  5  7  1  0  0  0  0
  7  8  1  0  0  0  0
  7  9  1  0  0  0  0
  9 10  1  0  0  0  0
  9 11  1  0  0  0  0
  9 24  1  0  0  0  0
 11 12  1  0  0  0  0
 11 13  1  0  0  0  0
 11 14  1  0  0  0  0
 14 15  1  0  0  0  0
 14 16  1  0  0  0  0
 14 20  1  0  0  0  0
 16 17  1  0  0  0  0
 16 18  1  0  0  0  0
 16 19  1  0  0  0  0
 20 21  1  0  0  0  0
 20 22  1  0  0  0  0
 20 23  1  0  0  0  0
 24 25  2  0  0  0  0
 24 26  1  0  0  0  0
 26 27  1  0  0  0  0
 26 28  1  0  0  0  0
 28 29  1  0  0  0  0
 28 30  1  0  0  0  0
 28 31  1  0  0  0  0
M  END
$$$$

  -OEChem-04042216013D

 31 30  0     1  0  0  0  0  0999 V2000
   -2.7981   -4.3657    0.0722 H   0  0  0  0  0  0  0  0  0  0  0  0
   -2.7880   -3.3541   -0.3436 C   0  0  0  0  0  0  0  0  0  0  0  0
   -3.6064   -2.7831    0.1013 H   0  0  0  0  0  0  0  0  0  0  0  0
   -2.9399   -3.4175   -1.4237 H   0  0  0  0  0  0  0  0  0  0  0  0
   -1.4616   -2.6806   -0.0456 C   0  0  0  0  0  0  0  0  0  0  0  0
   -0.6069   -3.2770    0.5840 O   0  0  0  0  0  0  0  0  0  0  0  0
   -1.2373   -1.3893   -0.4810 N   0  0  0  0  0  0  0  0  0  0  0  0
   -1.9616   -0.9665   -1.0534 H   0  0  0  0  0  0  0  0  0  0  0  0
    0.0473   -0.6779   -0.3512 C   0  0  1  0  0  0  0  0  0  0  0  0
    0.7946   -1.3469   -0.7943 H   0  0  0  0  0  0  0  0  0  0  0  0
    0.0683    0.5774   -1.2517 C   0  0  0  0  0  0  0  0  0  0  0  0
    1.0612    1.0346   -1.1770 H   0  0  0  0  0  0  0  0  0  0  0  0
   -0.0371    0.2228   -2.2823 H   0  0  0  0  0  0  0  0  0  0  0  0
   -1.0015    1.6718   -1.0073 C   0  0  0  0  0  0  0  0  0  0  0  0
   -1.9880    1.2080   -0.9111 H   0  0  0  0  0  0  0  0  0  0  0  0
   -0.7361    2.5281    0.2403 C   0  0  0  0  0  0  0  0  0  0  0  0
    0.3352    2.7144    0.3664 H   0  0  0  0  0  0  0  0  0  0  0  0
   -1.2445    3.4943    0.1628 H   0  0  0  0  0  0  0  0  0  0  0  0
   -1.1205    2.0396    1.1351 H   0  0  0  0  0  0  0  0  0  0  0  0
   -1.0328    2.5971   -2.2326 C   0  0  0  0  0  0  0  0  0  0  0  0
   -1.2621    2.0285   -3.1391 H   0  0  0  0  0  0  0  0  0  0  0  0
   -1.8021    3.3667   -2.1144 H   0  0  0  0  0  0  0  0  0  0  0  0
   -0.0649    3.0910   -2.3670 H   0  0  0  0  0  0  0  0  0  0  0  0
    0.5672   -0.4898    1.0936 C   0  0  0  0  0  0  0  0  0  0  0  0
    1.7750   -0.4615    1.2917 O   0  0  0  0  0  0  0  0  0  0  0  0
   -0.2756   -0.0811    2.1104 N   0  0  0  0  0  0  0  0  0  0  0  0
   -1.2698   -0.1782    1.9341 H   0  0  0  0  0  0  0  0  0  0  0  0
    0.1772    0.1451    3.4771 C   0  0  0  0  0  0  0  0  0  0  0  0
    0.9417    0.9286    3.5033 H   0  0  0  0  0  0  0  0  0  0  0  0
   -0.6606    0.4611    4.1059 H   0  0  0  0  0  0  0  0  0  0  0  0
    0.5994   -0.7743    3.8961 H   0  0  0  0  0  0  0  0  0  0  0  0
  1  2  1  0  0  0  0
  2  3  1  0  0  0  0
  2  4  1  0  0  0  0
  2  5  1  0  0  0  0
  5  6  2  0  0  0  0
  5  7  1  0  0  0  0
  7  8  1  0  0  0  0
  7  9  1  0  0  0  0
  9 10  1  0  0  0  0
  9 11  1  0  0  0  0
  9 24  1  0  0  0  0
 11 12  1  0  0  0  0
 11 13  1  0  0  0  0
 11 14  1  0  0  0  0
 14 15  1  0  0  0  0
 14 16  1  0  0  0  0
 14 20  1  0  0  0  0
 16 17  1  0  0  0  0
 16 18  1  0  0  0  0
 16 19  1  0  0  0  0
 20 21  1  0  0  0  0
 20 22  1  0  0  0  0
 20 23  1  0  0  0  0
 24 25  2  0  0  0  0
 24 26  1  0  0  0  0
 26 27  1  0  0  0  0
 26 28  1  0  0  0  0
 28 29  1  0  0  0  0
 28 30  1  0  0  0  0
 28 31  1  0  0  0  0
M  END
$$$$

  -OEChem-04042216013D

 31 30  0     1  0  0  0  0  0999 V2000
   -2.8225   -4.3236    0.1397 H   0  0  0  0  0  0  0  0  0  0  0  0
   -2.7895   -3.3276   -0.3111 C   0  0  0  0  0  0  0  0  0  0  0  0
   -3.5984   -2.7248    0.1081 H   0  0  0  0  0  0  0  0  0  0  0  0
   -2.9364   -3.4251   -1.3893 H   0  0  0  0  0  0  0  0  0  0  0  0
   -1.4519   -2.6707   -0.0269 C   0  0  0  0  0  0  0  0  0  0  0  0
   -0.6140   -3.2614    0.6299 O   0  0  0  0  0  0  0  0  0  0  0  0
   -1.1991   -1.4008   -0.5076 N   0  0  0  0  0  0  0  0  0  0  0  0
   -1.9083   -0.9897   -1.1068 H   0  0  0  0  0  0  0  0  0  0  0  0
    0.0942   -0.7022   -0.3845 C   0  0  1  0  0  0  0  0  0  0  0  0
    0.8501   -1.3722   -0.8096 H   0  0  0  0  0  0  0  0  0  0  0  0
    0.1033    0.5588   -1.2793 C   0  0  0  0  0  0  0  0  0  0  0  0
    1.0961    1.0187   -1.2242 H   0  0  0  0  0  0  0  0  0  0  0  0
   -0.0226    0.2120   -2.3103 H   0  0  0  0  0  0  0  0  0  0  0  0
   -0.9700    1.6373   -0.9855 C   0  0  0  0  0  0  0  0  0  0  0  0
   -1.8705    1.1600   -0.5875 H   0  0  0  0  0  0  0  0  0  0  0  0
   -0.4823    2.6832    0.0296 C   0  0  0  0  0  0  0  0  0  0  0  0
    0.3774    3.2304   -0.3702 H   0  0  0  0  0  0  0  0  0  0  0  0
   -1.2796    3.4021    0.2428 H   0  0  0  0  0  0  0  0  0  0  0  0
   -0.1805    2.2291    0.9721 H   0  0  0  0  0  0  0  0  0  0  0  0
   -1.3500    2.3607   -2.2838 C   0  0  0  0  0  0  0  0  0  0  0  0
   -1.7689    1.6551   -3.0080 H   0  0  0  0  0  0  0  0  0  0  0  0
   -2.1017    3.1315   -2.0863 H   0  0  0  0  0  0  0  0  0  0  0  0
   -0.4722    2.8384   -2.7310 H   0  0  0  0  0  0  0  0  0  0  0  0
    0.5597   -0.4830    1.0732 C   0  0  0  0  0  0  0  0  0  0  0  0
    1.7573   -0.4707    1.3261 O   0  0  0  0  0  0  0  0  0  0  0  0
   -0.3282   -0.0334    2.0345 N   0  0  0  0  0  0  0  0  0  0  0  0
   -1.3135   -0.1216    1.8105 H   0  0  0  0  0  0  0  0  0  0  0  0
    0.0593    0.2169    3.4168 C   0  0  0  0  0  0  0  0  0  0  0  0
    0.8388    0.9845    3.4634 H   0  0  0  0  0  0  0  0  0  0  0  0
   -0.8022    0.5661    3.9936 H   0  0  0  0  0  0  0  0  0  0  0  0
    0.4391   -0.7005    3.8786 H   0  0  0  0  0  0  0  0  0  0  0  0
  1  2  1  0  0  0  0
  2  3  1  0  0  0  0
  2  4  1  0  0  0  0
  2  5  1  0  0  0  0
  5  6  2  0  0  0  0
  5  7  1  0  0  0  0
  7  8  1  0  0  0  0
  7  9  1  0  0  0  0
  9 10  1  0  0  0  0
  9 11  1  0  0  0  0
  9 24  1  0  0  0  0
 11 12  1  0  0  0  0
 11 13  1  0  0  0  0
 11 14  1  0  0  0  0
 14 15  1  0  0  0  0
 14 16  1  0  0  0  0
 14 20  1  0  0  0  0
 16 17  1  0  0  0  0
 16 18  1  0  0  0  0
 16 19  1  0  0  0  0
 20 21  1  0  0  0  0
 20 22  1  0  0  0  0
 20 23  1  0  0  0  0
 24 25  2  0  0  0  0
 24 26  1  0  0  0  0
 26 27  1  0  0  0  0
 26 28  1  0  0  0  0
 28 29  1  0  0  0  0
 28 30  1  0  0  0  0
 28 31  1  0  0  0  0
M  END
$$$$

  -OEChem-04042216013D

 31 30  0     1  0  0  0  0  0999 V2000
   -2.8344   -4.3233    0.1432 H   0  0  0  0  0  0  0  0  0  0  0  0
   -2.7930   -3.3348   -0.3234 C   0  0  0  0  0  0  0  0  0  0  0  0
   -3.6080   -2.7243    0.0725 H   0  0  0  0  0  0  0  0  0  0  0  0
   -2.9232   -3.4507   -1.4020 H   0  0  0  0  0  0  0  0  0  0  0  0
   -1.4590   -2.6748   -0.0287 C   0  0  0  0  0  0  0  0  0  0  0  0
   -0.6449   -3.2417    0.6771 O   0  0  0  0  0  0  0  0  0  0  0  0
   -1.1823   -1.4279   -0.5538 N   0  0  0  0  0  0  0  0  0  0  0  0
   -1.8705   -1.0344   -1.1885 H   0  0  0  0  0  0  0  0  0  0  0  0
    0.1147   -0.7373   -0.4230 C   0  0  1  0  0  0  0  0  0  0  0  0
    0.8786   -1.4080   -0.8320 H   0  0  0  0  0  0  0  0  0  0  0  0
    0.1234    0.5349   -1.2942 C   0  0  0  0  0  0  0  0  0  0  0  0
    1.1147    0.9977   -1.2319 H   0  0  0  0  0  0  0  0  0  0  0  0
   -0.0044    0.2181   -2.3343 H   0  0  0  0  0  0  0  0  0  0  0  0
   -0.9664    1.5781   -0.9359 C   0  0  0  0  0  0  0  0  0  0  0  0
   -1.7316    1.1247   -0.2985 H   0  0  0  0  0  0  0  0  0  0  0  0
   -0.3537    2.7712   -0.1889 C   0  0  0  0  0  0  0  0  0  0  0  0
    0.3776    3.2878   -0.8190 H   0  0  0  0  0  0  0  0  0  0  0  0
   -1.1342    3.4850    0.0921 H   0  0  0  0  0  0  0  0  0  0  0  0
    0.1516    2.4416    0.7232 H   0  0  0  0  0  0  0  0  0  0  0  0
   -1.6521    2.0905   -2.2084 C   0  0  0  0  0  0  0  0  0  0  0  0
   -2.1395    1.2666   -2.7388 H   0  0  0  0  0  0  0  0  0  0  0  0
   -2.4150    2.8342   -1.9578 H   0  0  0  0  0  0  0  0  0  0  0  0
   -0.9226    2.5546   -2.8803 H   0  0  0  0  0  0  0  0  0  0  0  0
    0.5575   -0.4561    1.0314 C   0  0  0  0  0  0  0  0  0  0  0  0
    1.7508   -0.4436    1.3049 O   0  0  0  0  0  0  0  0  0  0  0  0
   -0.3431    0.0476    1.9532 N   0  0  0  0  0  0  0  0  0  0  0  0
   -1.3250   -0.0500    1.7186 H   0  0  0  0  0  0  0  0  0  0  0  0
    0.0227    0.3568    3.3293 C   0  0  0  0  0  0  0  0  0  0  0  0
    0.8132    1.1141    3.3551 H   0  0  0  0  0  0  0  0  0  0  0  0
   -0.8436    0.7456    3.8725 H   0  0  0  0  0  0  0  0  0  0  0  0
    0.3793   -0.5434    3.8410 H   0  0  0  0  0  0  0  0  0  0  0  0
  1  2  1  0  0  0  0
  2  3  1  0  0  0  0
  2  4  1  0  0  0  0
  2  5  1  0  0  0  0
  5  6  2  0  0  0  0
  5  7  1  0  0  0  0
  7  8  1  0  0  0  0
  7  9  1  0  0  0  0
  9 10  1  0  0  0  0
  9 11  1  0  0  0  0
  9 24  1  0  0  0  0
 11 12  1  0  0  0  0
 11 13  1  0  0  0  0
 11 14  1  0  0  0  0
 14 15  1  0  0  0  0
 14 16  1  0  0  0  0
 14 20  1  0  0  0  0
 16 17  1  0  0  0  0
 16 18  1  0  0  0  0
 16 19  1  0  0  0  0
 20 21  1  0  0  0  0
 20 22  1  0  0  0  0
 20 23  1  0  0  0  0
 24 25  2  0  0  0  0
 24 26  1  0  0  0  0
 26 27  1  0  0  0  0
 26 28  1  0  0  0  0
 28 29  1  0  0  0  0
 28 30  1  0  0  0  0
 28 31  1  0  0  0  0
M  END
$$$$

  -OEChem-04042216013D

 31 30  0     1  0  0  0  0  0999 V2000
   -2.8467   -4.3230    0.1110 H   0  0  0  0  0  0  0  0  0  0  0  0
   -2.8003   -3.3342   -0.3544 C   0  0  0  0  0  0  0  0  0  0  0  0
   -3.6240   -2.7262    0.0270 H   0  0  0  0  0  0  0  0  0  0  0  0
   -2.9104   -3.4500   -1.4353 H   0  0  0  0  0  0  0  0  0  0  0  0
   -1.4740   -2.6706   -0.0349 C   0  0  0  0  0  0  0  0  0  0  0  0
   -0.6724   -3.2339    0.6881 O   0  0  0  0  0  0  0  0  0  0  0  0
   -1.1881   -1.4261   -0.5599 N   0  0  0  0  0  0  0  0  0  0  0  0
   -1.8676   -1.0321   -1.2034 H   0  0  0  0  0  0  0  0  0  0  0  0
    0.1096   -0.7405   -0.4174 C   0  0  1  0  0  0  0  0  0  0  0  0
    0.8731   -1.4143   -0.8226 H   0  0  0  0  0  0  0  0  0  0  0  0
    0.1250    0.5291   -1.2891 C   0  0  0  0  0  0  0  0  0  0  0  0
    1.1148    0.9912   -1.2012 H   0  0  0  0  0  0  0  0  0  0  0  0
    0.0192    0.2261   -2.3360 H   0  0  0  0  0  0  0  0  0  0  0  0
   -0.9738    1.5623   -0.9281 C   0  0  0  0  0  0  0  0  0  0  0  0
   -1.5782    1.2016   -0.0912 H   0  0  0  0  0  0  0  0  0  0  0  0
   -0.3396    2.8964   -0.5179 C   0  0  0  0  0  0  0  0  0  0  0  0
    0.2545    3.3122   -1.3381 H   0  0  0  0  0  0  0  0  0  0  0  0
   -1.1144    3.6205   -0.2476 H   0  0  0  0  0  0  0  0  0  0  0  0
    0.3143    2.7551    0.3490 H   0  0  0  0  0  0  0  0  0  0  0  0
   -1.9113    1.7905   -2.1199 C   0  0  0  0  0  0  0  0  0  0  0  0
   -2.3937    0.8529   -2.4121 H   0  0  0  0  0  0  0  0  0  0  0  0
   -2.6925    2.5106   -1.8568 H   0  0  0  0  0  0  0  0  0  0  0  0
   -1.3563    2.1801   -2.9796 H   0  0  0  0  0  0  0  0  0  0  0  0
    0.5571   -0.4486    1.0350 C   0  0  0  0  0  0  0  0  0  0  0  0
    1.7516   -0.4416    1.3026 O   0  0  0  0  0  0  0  0  0  0  0  0
   -0.3332    0.0673    1.9602 N   0  0  0  0  0  0  0  0  0  0  0  0
   -1.3177   -0.0267    1.7351 H   0  0  0  0  0  0  0  0  0  0  0  0
    0.0454    0.3907    3.3298 C   0  0  0  0  0  0  0  0  0  0  0  0
    0.8336    1.1509    3.3409 H   0  0  0  0  0  0  0  0  0  0  0  0
   -0.8167    0.7815    3.8784 H   0  0  0  0  0  0  0  0  0  0  0  0
    0.4103   -0.5033    3.8463 H   0  0  0  0  0  0  0  0  0  0  0  0
  1  2  1  0  0  0  0
  2  3  1  0  0  0  0
  2  4  1  0  0  0  0
  2  5  1  0  0  0  0
  5  6  2  0  0  0  0
  5  7  1  0  0  0  0
  7  8  1  0  0  0  0
  7  9  1  0  0  0  0
  9 10  1  0  0  0  0
  9 11  1  0  0  0  0
  9 24  1  0  0  0  0
 11 12  1  0  0  0  0
 11 13  1  0  0  0  0
 11 14  1  0  0  0  0
 14 15  1  0  0  0  0
 14 16  1  0  0  0  0
 14 20  1  0  0  0  0
 16 17  1  0  0  0  0
 16 18  1  0  0  0  0
 16 19  1  0  0  0  0
 20 21  1  0  0  0  0
 20 22  1  0  0  0  0
 20 23  1  0  0  0  0
 24 25  2  0  0  0  0
 24 26  1  0  0  0  0
 26 27  1  0  0  0  0
 26 28  1  0  0  0  0
 28 29  1  0  0  0  0
 28 30  1  0  0  0  0
 28 31  1  0  0  0  0
M  END
$$$$

  -OEChem-04042216013D

 31 30  0     1  0  0  0  0  0999 V2000
   -2.8253   -4.3383    0.1219 H   0  0  0  0  0  0  0  0  0  0  0  0
   -2.7904   -3.3462   -0.3372 C   0  0  0  0  0  0  0  0  0  0  0  0
   -3.6130   -2.7463    0.0590 H   0  0  0  0  0  0  0  0  0  0  0  0
   -2.9140   -3.4555   -1.4172 H   0  0  0  0  0  0  0  0  0  0  0  0
   -1.4637   -2.6768   -0.0312 C   0  0  0  0  0  0  0  0  0  0  0  0
   -0.6477   -3.2420    0.6739 O   0  0  0  0  0  0  0  0  0  0  0  0
   -1.1949   -1.4238   -0.5453 N   0  0  0  0  0  0  0  0  0  0  0  0
   -1.8862   -1.0269   -1.1739 H   0  0  0  0  0  0  0  0  0  0  0  0
    0.0956   -0.7259   -0.4062 C   0  0  1  0  0  0  0  0  0  0  0  0
    0.8606   -1.3961   -0.8143 H   0  0  0  0  0  0  0  0  0  0  0  0
    0.1116    0.5410   -1.2850 C   0  0  0  0  0  0  0  0  0  0  0  0
    1.0989    1.0029   -1.1708 H   0  0  0  0  0  0  0  0  0  0  0  0
    0.0295    0.2450   -2.3359 H   0  0  0  0  0  0  0  0  0  0  0  0
   -0.9869    1.5810   -0.9476 C   0  0  0  0  0  0  0  0  0  0  0  0
   -1.4131    1.3771    0.0377 H   0  0  0  0  0  0  0  0  0  0  0  0
   -0.3879    2.9914   -0.9140 C   0  0  0  0  0  0  0  0  0  0  0  0
    0.0584    3.2452   -1.8810 H   0  0  0  0  0  0  0  0  0  0  0  0
   -1.1615    3.7304   -0.6832 H   0  0  0  0  0  0  0  0  0  0  0  0
    0.3875    3.0567   -0.1438 H   0  0  0  0  0  0  0  0  0  0  0  0
   -2.1218    1.5348   -1.9795 C   0  0  0  0  0  0  0  0  0  0  0  0
   -2.5789    0.5421   -2.0094 H   0  0  0  0  0  0  0  0  0  0  0  0
   -2.8992    2.2608   -1.7211 H   0  0  0  0  0  0  0  0  0  0  0  0
   -1.7448    1.7742   -2.9791 H   0  0  0  0  0  0  0  0  0  0  0  0
    0.5513   -0.4445    1.0461 C   0  0  0  0  0  0  0  0  0  0  0  0
    1.7478   -0.4310    1.3046 O   0  0  0  0  0  0  0  0  0  0  0  0
   -0.3355    0.0513    1.9854 N   0  0  0  0  0  0  0  0  0  0  0  0
   -1.3207   -0.0540    1.7684 H   0  0  0  0  0  0  0  0  0  0  0  0
    0.0511    0.3497    3.3584 C   0  0  0  0  0  0  0  0  0  0  0  0
    0.8357    1.1134    3.3792 H   0  0  0  0  0  0  0  0  0  0  0  0
   -0.8092    0.7252    3.9206 H   0  0  0  0  0  0  0  0  0  0  0  0
    0.4241   -0.5525    3.8546 H   0  0  0  0  0  0  0  0  0  0  0  0
  1  2  1  0  0  0  0
  2  3  1  0  0  0  0
  2  4  1  0  0  0  0
  2  5  1  0  0  0  0
  5  6  2  0  0  0  0
  5  7  1  0  0  0  0
  7  8  1  0  0  0  0
  7  9  1  0  0  0  0
  9 10  1  0  0  0  0
  9 11  1  0  0  0  0
  9 24  1  0  0  0  0
 11 12  1  0  0  0  0
 11 13  1  0  0  0  0
 11 14  1  0  0  0  0
 14 15  1  0  0  0  0
 14 16  1  0  0  0  0
 14 20  1  0  0  0  0
 16 17  1  0  0  0  0
 16 18  1  0  0  0  0
 16 19  1  0  0  0  0
 20 21  1  0  0  0  0
 20 22  1  0  0  0  0
 20 23  1  0  0  0  0
 24 25  2  0  0  0  0
 24 26  1  0  0  0  0
 26 27  1  0  0  0  0
 26 28  1  0  0  0  0
 28 29  1  0  0  0  0
 28 30  1  0  0  0  0
 28 31  1  0  0  0  0
M  END
$$$$

  -OEChem-04042216013D

 31 30  0     1  0  0  0  0  0999 V2000
   -2.7660   -4.3936    0.1441 H   0  0  0  0  0  0  0  0  0  0  0  0
   -2.7502   -3.4032   -0.3195 C   0  0  0  0  0  0  0  0  0  0  0  0
   -3.5880   -2.8195    0.0689 H   0  0  0  0  0  0  0  0  0  0  0  0
   -2.8646   -3.5200   -1.3998 H   0  0  0  0  0  0  0  0  0  0  0  0
   -1.4409   -2.7027   -0.0089 C   0  0  0  0  0  0  0  0  0  0  0  0
   -0.6146   -3.2476    0.7001 O   0  0  0  0  0  0  0  0  0  0  0  0
   -1.2008   -1.4448   -0.5256 N   0  0  0  0  0  0  0  0  0  0  0  0
   -1.8919   -1.0790   -1.1726 H   0  0  0  0  0  0  0  0  0  0  0  0
    0.0794   -0.7256   -0.4070 C   0  0  1  0  0  0  0  0  0  0  0  0
    0.8488   -1.3855   -0.8238 H   0  0  0  0  0  0  0  0  0  0  0  0
    0.0835    0.5507   -1.2774 C   0  0  0  0  0  0  0  0  0  0  0  0
    1.0719    1.0095   -1.1604 H   0  0  0  0  0  0  0  0  0  0  0  0
   -0.0024    0.2621   -2.3298 H   0  0  0  0  0  0  0  0  0  0  0  0
   -1.0027    1.6079   -0.9498 C   0  0  0  0  0  0  0  0  0  0  0  0
   -1.2300    1.5966    0.1190 H   0  0  0  0  0  0  0  0  0  0  0  0
   -0.4707    3.0050   -1.2933 C   0  0  0  0  0  0  0  0  0  0  0  0
   -0.2145    3.0702   -2.3557 H   0  0  0  0  0  0  0  0  0  0  0  0
   -1.2232    3.7677   -1.0698 H   0  0  0  0  0  0  0  0  0  0  0  0
    0.4247    3.2289   -0.7046 H   0  0  0  0  0  0  0  0  0  0  0  0
   -2.3033    1.3698   -1.7322 C   0  0  0  0  0  0  0  0  0  0  0  0
   -2.7827    0.4369   -1.4291 H   0  0  0  0  0  0  0  0  0  0  0  0
   -3.0113    2.1831   -1.5438 H   0  0  0  0  0  0  0  0  0  0  0  0
   -2.1050    1.3287   -2.8080 H   0  0  0  0  0  0  0  0  0  0  0  0
    0.5407   -0.4451    1.0432 C   0  0  0  0  0  0  0  0  0  0  0  0
    1.7385   -0.4108    1.2945 O   0  0  0  0  0  0  0  0  0  0  0  0
   -0.3507    0.0298    1.9890 N   0  0  0  0  0  0  0  0  0  0  0  0
   -1.3343   -0.0996    1.7775 H   0  0  0  0  0  0  0  0  0  0  0  0
    0.0373    0.3235    3.3625 C   0  0  0  0  0  0  0  0  0  0  0  0
    0.8128    1.0964    3.3857 H   0  0  0  0  0  0  0  0  0  0  0  0
   -0.8253    0.6847    3.9304 H   0  0  0  0  0  0  0  0  0  0  0  0
    0.4229   -0.5779    3.8505 H   0  0  0  0  0  0  0  0  0  0  0  0
  1  2  1  0  0  0  0
  2  3  1  0  0  0  0
  2  4  1  0  0  0  0
  2  5  1  0  0  0  0
  5  6  2  0  0  0  0
  5  7  1  0  0  0  0
  7  8  1  0  0  0  0
  7  9  1  0  0  0  0
  9 10  1  0  0  0  0
  9 11  1  0  0  0  0
  9 24  1  0  0  0  0
 11 12  1  0  0  0  0
 11 13  1  0  0  0  0
 11 14  1  0  0  0  0
 14 15  1  0  0  0  0
 14 16  1  0  0  0  0
 14 20  1  0  0  0  0
 16 17  1  0  0  0  0
 16 18  1  0  0  0  0
 16 19  1  0  0  0  0
 20 21  1  0  0  0  0
 20 22  1  0  0  0  0
 20 23  1  0  0  0  0
 24 25  2  0  0  0  0
 24 26  1  0  0  0  0
 26 27  1  0  0  0  0
 26 28  1  0  0  0  0
 28 29  1  0  0  0  0
 28 30  1  0  0  0  0
 28 31  1  0  0  0  0
M  END
$$$$

  -OEChem-04042216013D

 31 30  0     1  0  0  0  0  0999 V2000
   -2.7214   -4.4252    0.1755 H   0  0  0  0  0  0  0  0  0  0  0  0
   -2.7177   -3.4375   -0.2945 C   0  0  0  0  0  0  0  0  0  0  0  0
   -3.5495   -2.8537    0.1067 H   0  0  0  0  0  0  0  0  0  0  0  0
   -2.8522   -3.5613   -1.3717 H   0  0  0  0  0  0  0  0  0  0  0  0
   -1.4047   -2.7313   -0.0140 C   0  0  0  0  0  0  0  0  0  0  0  0
   -0.5593   -3.2736    0.6742 O   0  0  0  0  0  0  0  0  0  0  0  0
   -1.1833   -1.4711   -0.5333 N   0  0  0  0  0  0  0  0  0  0  0  0
   -1.8934   -1.1031   -1.1588 H   0  0  0  0  0  0  0  0  0  0  0  0
    0.0870   -0.7334   -0.4250 C   0  0  1  0  0  0  0  0  0  0  0  0
    0.8648   -1.3781   -0.8499 H   0  0  0  0  0  0  0  0  0  0  0  0
    0.0707    0.5590   -1.2734 C   0  0  0  0  0  0  0  0  0  0  0  0
    1.0582    1.0223   -1.1663 H   0  0  0  0  0  0  0  0  0  0  0  0
   -0.0327    0.2787   -2.3266 H   0  0  0  0  0  0  0  0  0  0  0  0
   -1.0088    1.6210   -0.9362 C   0  0  0  0  0  0  0  0  0  0  0  0
   -1.0259    1.7995    0.1427 H   0  0  0  0  0  0  0  0  0  0  0  0
   -0.6197    2.9410   -1.6149 C   0  0  0  0  0  0  0  0  0  0  0  0
   -0.5842    2.8213   -2.7025 H   0  0  0  0  0  0  0  0  0  0  0  0
   -1.3448    3.7250   -1.3746 H   0  0  0  0  0  0  0  0  0  0  0  0
    0.3641    3.2737   -1.2691 H   0  0  0  0  0  0  0  0  0  0  0  0
   -2.4240    1.2341   -1.3951 C   0  0  0  0  0  0  0  0  0  0  0  0
   -2.8473    0.4595   -0.7517 H   0  0  0  0  0  0  0  0  0  0  0  0
   -3.0910    2.1006   -1.3416 H   0  0  0  0  0  0  0  0  0  0  0  0
   -2.4120    0.8736   -2.4286 H   0  0  0  0  0  0  0  0  0  0  0  0
    0.5413   -0.4514    1.0258 C   0  0  0  0  0  0  0  0  0  0  0  0
    1.7371   -0.4006    1.2833 O   0  0  0  0  0  0  0  0  0  0  0  0
   -0.3643    0.0075    1.9659 N   0  0  0  0  0  0  0  0  0  0  0  0
   -1.3445   -0.1298    1.7437 H   0  0  0  0  0  0  0  0  0  0  0  0
    0.0082    0.3035    3.3430 C   0  0  0  0  0  0  0  0  0  0  0  0
    0.7793    1.0803    3.3734 H   0  0  0  0  0  0  0  0  0  0  0  0
   -0.8619    0.6604    3.9018 H   0  0  0  0  0  0  0  0  0  0  0  0
    0.3936   -0.5956    3.8352 H   0  0  0  0  0  0  0  0  0  0  0  0
  1  2  1  0  0  0  0
  2  3  1  0  0  0  0
  2  4  1  0  0  0  0
  2  5  1  0  0  0  0
  5  6  2  0  0  0  0
  5  7  1  0  0  0  0
  7  8  1  0  0  0  0
  7  9  1  0  0  0  0
  9 10  1  0  0  0  0
  9 11  1  0  0  0  0
  9 24  1  0  0  0  0
 11 12  1  0  0  0  0
 11 13  1  0  0  0  0
 11 14  1  0  0  0  0
 14 15  1  0  0  0  0
 14 16  1  0  0  0  0
 14 20  1  0  0  0  0
 16 17  1  0  0  0  0
 16 18  1  0  0  0  0
 16 19  1  0  0  0  0
 20 21  1  0  0  0  0
 20 22  1  0  0  0  0
 20 23  1  0  0  0  0
 24 25  2  0  0  0  0
 24 26  1  0  0  0  0
 26 27  1  0  0  0  0
 26 28  1  0  0  0  0
 28 29  1  0  0  0  0
 28 30  1  0  0  0  0
 28 31  1  0  0  0  0
M  END
$$$$

  -OEChem-04042216013D

 31 30  0     1  0  0  0  0  0999 V2000
   -2.7441   -4.4057    0.1270 H   0  0  0  0  0  0  0  0  0  0  0  0
   -2.7384   -3.4077   -0.3208 C   0  0  0  0  0  0  0  0  0  0  0  0
   -3.5597   -2.8264    0.1047 H   0  0  0  0  0  0  0  0  0  0  0  0
   -2.8895   -3.5062   -1.3985 H   0  0  0  0  0  0  0  0  0  0  0  0
   -1.4154   -2.7197   -0.0422 C   0  0  0  0  0  0  0  0  0  0  0  0
   -0.5662   -3.2846    0.6229 O   0  0  0  0  0  0  0  0  0  0  0  0
   -1.1885   -1.4489   -0.5320 N   0  0  0  0  0  0  0  0  0  0  0  0
   -1.9114   -1.0456   -1.1200 H   0  0  0  0  0  0  0  0  0  0  0  0
    0.0864   -0.7206   -0.4007 C   0  0  1  0  0  0  0  0  0  0  0  0
    0.8532   -1.3726   -0.8347 H   0  0  0  0  0  0  0  0  0  0  0  0
    0.0818    0.5653   -1.2574 C   0  0  0  0  0  0  0  0  0  0  0  0
    1.1223    0.8957   -1.3505 H   0  0  0  0  0  0  0  0  0  0  0  0
   -0.2621    0.3061   -2.2641 H   0  0  0  0  0  0  0  0  0  0  0  0
   -0.7466    1.7647   -0.7349 C   0  0  0  0  0  0  0  0  0  0  0  0
   -0.3413    2.0911    0.2288 H   0  0  0  0  0  0  0  0  0  0  0  0
   -0.6096    2.9236   -1.7300 C   0  0  0  0  0  0  0  0  0  0  0  0
   -1.0146    2.6462   -2.7086 H   0  0  0  0  0  0  0  0  0  0  0  0
   -1.1486    3.8048   -1.3679 H   0  0  0  0  0  0  0  0  0  0  0  0
    0.4431    3.1964   -1.8543 H   0  0  0  0  0  0  0  0  0  0  0  0
   -2.2408    1.4528   -0.5629 C   0  0  0  0  0  0  0  0  0  0  0  0
   -2.4019    0.7467    0.2549 H   0  0  0  0  0  0  0  0  0  0  0  0
   -2.7937    2.3665   -0.3223 H   0  0  0  0  0  0  0  0  0  0  0  0
   -2.6555    1.0307   -1.4836 H   0  0  0  0  0  0  0  0  0  0  0  0
    0.5572   -0.4630    1.0499 C   0  0  0  0  0  0  0  0  0  0  0  0
    1.7562   -0.4238    1.2936 O   0  0  0  0  0  0  0  0  0  0  0  0
   -0.3319   -0.0134    2.0101 N   0  0  0  0  0  0  0  0  0  0  0  0
   -1.3167   -0.1287    1.7964 H   0  0  0  0  0  0  0  0  0  0  0  0
    0.0607    0.2626    3.3862 C   0  0  0  0  0  0  0  0  0  0  0  0
    0.8283    1.0430    3.4177 H   0  0  0  0  0  0  0  0  0  0  0  0
   -0.8027    0.6056    3.9641 H   0  0  0  0  0  0  0  0  0  0  0  0
    0.4587   -0.6419    3.8586 H   0  0  0  0  0  0  0  0  0  0  0  0
  1  2  1  0  0  0  0
  2  3  1  0  0  0  0
  2  4  1  0  0  0  0
  2  5  1  0  0  0  0
  5  6  2  0  0  0  0
  5  7  1  0  0  0  0
  7  8  1  0  0  0  0
  7  9  1  0  0  0  0
  9 10  1  0  0  0  0
  9 11  1  0  0  0  0
  9 24  1  0  0  0  0
 11 12  1  0  0  0  0
 11 13  1  0  0  0  0
 11 14  1  0  0  0  0
 14 15  1  0  0  0  0
 14 16  1  0  0  0  0
 14 20  1  0  0  0  0
 16 17  1  0  0  0  0
 16 18  1  0  0  0  0
 16 19  1  0  0  0  0
 20 21  1  0  0  0  0
 20 22  1  0  0  0  0
 20 23  1  0  0  0  0
 24 25  2  0  0  0  0
 24 26  1  0  0  0  0
 26 27  1  0  0  0  0
 26 28  1  0  0  0  0
 28 29  1  0  0  0  0
 28 30  1  0  0  0  0
 28 31  1  0  0  0  0
M  END
$$$$

  -OEChem-04042216013D

 31 30  0     1  0  0  0  0  0999 V2000
   -2.6468   -4.4769    0.1774 H   0  0  0  0  0  0  0  0  0  0  0  0
   -2.6677   -3.4810   -0.2745 C   0  0  0  0  0  0  0  0  0  0  0  0
   -3.5094   -2.9235    0.1429 H   0  0  0  0  0  0  0  0  0  0  0  0
   -2.8073   -3.5882   -1.3527 H   0  0  0  0  0  0  0  0  0  0  0  0
   -1.3682   -2.7521    0.0111 C   0  0  0  0  0  0  0  0  0  0  0  0
   -0.5080   -3.2881    0.6859 O   0  0  0  0  0  0  0  0  0  0  0  0
   -1.1769   -1.4745   -0.4763 N   0  0  0  0  0  0  0  0  0  0  0  0
   -1.9086   -1.0909   -1.0669 H   0  0  0  0  0  0  0  0  0  0  0  0
    0.0756   -0.7099   -0.3367 C   0  0  1  0  0  0  0  0  0  0  0  0
    0.8549   -1.3570   -0.7559 H   0  0  0  0  0  0  0  0  0  0  0  0
    0.0730    0.5556   -1.2227 C   0  0  0  0  0  0  0  0  0  0  0  0
    1.1086    0.9029   -1.3102 H   0  0  0  0  0  0  0  0  0  0  0  0
   -0.2448    0.2502   -2.2251 H   0  0  0  0  0  0  0  0  0  0  0  0
   -0.7876    1.7648   -0.7717 C   0  0  0  0  0  0  0  0  0  0  0  0
   -0.2888    2.2695    0.0633 H   0  0  0  0  0  0  0  0  0  0  0  0
   -0.9259    2.7293   -1.9585 C   0  0  0  0  0  0  0  0  0  0  0  0
   -1.4558    2.2558   -2.7913 H   0  0  0  0  0  0  0  0  0  0  0  0
   -1.4779    3.6264   -1.6610 H   0  0  0  0  0  0  0  0  0  0  0  0
    0.0631    3.0406   -2.3095 H   0  0  0  0  0  0  0  0  0  0  0  0
   -2.2234    1.4011   -0.3524 C   0  0  0  0  0  0  0  0  0  0  0  0
   -2.7925    2.3093   -0.1298 H   0  0  0  0  0  0  0  0  0  0  0  0
   -2.2378    0.7802    0.5437 H   0  0  0  0  0  0  0  0  0  0  0  0
   -2.7350    0.8638   -1.1570 H   0  0  0  0  0  0  0  0  0  0  0  0
    0.5599   -0.4236    1.1050 C   0  0  0  0  0  0  0  0  0  0  0  0
    1.7621   -0.3448    1.3229 O   0  0  0  0  0  0  0  0  0  0  0  0
   -0.3156    0.0102    2.0837 N   0  0  0  0  0  0  0  0  0  0  0  0
   -1.3017   -0.1395    1.9002 H   0  0  0  0  0  0  0  0  0  0  0  0
    0.1046    0.3378    3.4400 C   0  0  0  0  0  0  0  0  0  0  0  0
    0.8355    1.1533    3.4288 H   0  0  0  0  0  0  0  0  0  0  0  0
   -0.7564    0.6557    4.0355 H   0  0  0  0  0  0  0  0  0  0  0  0
    0.5578   -0.5354    3.9209 H   0  0  0  0  0  0  0  0  0  0  0  0
  1  2  1  0  0  0  0
  2  3  1  0  0  0  0
  2  4  1  0  0  0  0
  2  5  1  0  0  0  0
  5  6  2  0  0  0  0
  5  7  1  0  0  0  0
  7  8  1  0  0  0  0
  7  9  1  0  0  0  0
  9 10  1  0  0  0  0
  9 11  1  0  0  0  0
  9 24  1  0  0  0  0
 11 12  1  0  0  0  0
 11 13  1  0  0  0  0
 11 14  1  0  0  0  0
 14 15  1  0  0  0  0
 14 16  1  0  0  0  0
 14 20  1  0  0  0  0
 16 17  1  0  0  0  0
 16 18  1  0  0  0  0
 16 19  1  0  0  0  0
 20 21  1  0  0  0  0
 20 22  1  0  0  0  0
 20 23  1  0  0  0  0
 24 25  2  0  0  0  0
 24 26  1  0  0  0  0
 26 27  1  0  0  0  0
 26 28  1  0  0  0  0
 28 29  1  0  0  0  0
 28 30  1  0  0  0  0
 28 31  1  0  0  0  0
M  END
$$$$

  -OEChem-04042216013D

 31 30  0     1  0  0  0  0  0999 V2000
   -2.8168   -4.4313   -0.0409 H   0  0  0  0  0  0  0  0  0  0  0  0
   -2.7860   -3.4121   -0.4368 C   0  0  0  0  0  0  0  0  0  0  0  0
   -3.6446   -2.8583   -0.0500 H   0  0  0  0  0  0  0  0  0  0  0  0
   -2.8494   -3.4571   -1.5267 H   0  0  0  0  0  0  0  0  0  0  0  0
   -1.4965   -2.7301   -0.0200 C   0  0  0  0  0  0  0  0  0  0  0  0
   -0.7024   -3.3159    0.6935 O   0  0  0  0  0  0  0  0  0  0  0  0
   -1.2374   -1.4402   -0.4381 N   0  0  0  0  0  0  0  0  0  0  0  0
   -1.9126   -1.0145   -1.0657 H   0  0  0  0  0  0  0  0  0  0  0  0
    0.0268   -0.7251   -0.1918 C   0  0  1  0  0  0  0  0  0  0  0  0
    0.7941   -1.4161   -0.5604 H   0  0  0  0  0  0  0  0  0  0  0  0
    0.1820    0.5161   -1.0994 C   0  0  0  0  0  0  0  0  0  0  0  0
    1.2392    0.8034   -1.0906 H   0  0  0  0  0  0  0  0  0  0  0  0
   -0.0406    0.1822   -2.1183 H   0  0  0  0  0  0  0  0  0  0  0  0
   -0.6435    1.8004   -0.8055 C   0  0  0  0  0  0  0  0  0  0  0  0
   -0.0776    2.4399   -0.1190 H   0  0  0  0  0  0  0  0  0  0  0  0
   -0.8935    2.5287   -2.1364 C   0  0  0  0  0  0  0  0  0  0  0  0
   -1.5108    1.9237   -2.8085 H   0  0  0  0  0  0  0  0  0  0  0  0
   -1.4017    3.4828   -1.9631 H   0  0  0  0  0  0  0  0  0  0  0  0
    0.0579    2.7390   -2.6355 H   0  0  0  0  0  0  0  0  0  0  0  0
   -2.0487    1.5613   -0.2226 C   0  0  0  0  0  0  0  0  0  0  0  0
   -2.5858    2.5113   -0.1351 H   0  0  0  0  0  0  0  0  0  0  0  0
   -2.0080    1.1247    0.7723 H   0  0  0  0  0  0  0  0  0  0  0  0
   -2.6305    0.8997   -0.8712 H   0  0  0  0  0  0  0  0  0  0  0  0
    0.4593   -0.5016    1.2788 C   0  0  0  0  0  0  0  0  0  0  0  0
    1.6553   -0.4699    1.5399 O   0  0  0  0  0  0  0  0  0  0  0  0
   -0.4280   -0.0731    2.2483 N   0  0  0  0  0  0  0  0  0  0  0  0
   -1.4131   -0.1855    2.0342 H   0  0  0  0  0  0  0  0  0  0  0  0
   -0.0355    0.1846    3.6280 C   0  0  0  0  0  0  0  0  0  0  0  0
    0.6973    0.9970    3.6724 H   0  0  0  0  0  0  0  0  0  0  0  0
   -0.9076    0.4748    4.2216 H   0  0  0  0  0  0  0  0  0  0  0  0
    0.4054   -0.7133    4.0737 H   0  0  0  0  0  0  0  0  0  0  0  0
  1  2  1  0  0  0  0
  2  3  1  0  0  0  0
  2  4  1  0  0  0  0
  2  5  1  0  0  0  0
  5  6  2  0  0  0  0
  5  7  1  0  0  0  0
  7  8  1  0  0  0  0
  7  9  1  0  0  0  0
  9 10  1  0  0  0  0
  9 11  1  0  0  0  0
  9 24  1  0  0  0  0
 11 12  1  0  0  0  0
 11 13  1  0  0  0  0
 11 14  1  0  0  0  0
 14 15  1  0  0  0  0
 14 16  1  0  0  0  0
 14 20  1  0  0  0  0
 16 17  1  0  0  0  0
 16 18  1  0  0  0  0
 16 19  1  0  0  0  0
 20 21  1  0  0  0  0
 20 22  1  0  0  0  0
 20 23  1  0  0  0  0
 24 25  2  0  0  0  0
 24 26  1  0  0  0  0
 26 27  1  0  0  0  0
 26 28  1  0  0  0  0
 28 29  1  0  0  0  0
 28 30  1  0  0  0  0
 28 31  1  0  0  0  0
M  END
$$$$

  -OEChem-04042216013D

 31 30  0     1  0  0  0  0  0999 V2000
   -2.7537   -4.4650    0.0075 H   0  0  0  0  0  0  0  0  0  0  0  0
   -2.7699   -3.4346   -0.3595 C   0  0  0  0  0  0  0  0  0  0  0  0
   -3.6035   -2.9073    0.1103 H   0  0  0  0  0  0  0  0  0  0  0  0
   -2.9191   -3.4504   -1.4418 H   0  0  0  0  0  0  0  0  0  0  0  0
   -1.4618   -2.7419   -0.0262 C   0  0  0  0  0  0  0  0  0  0  0  0
   -0.5974   -3.3409    0.5877 O   0  0  0  0  0  0  0  0  0  0  0  0
   -1.2638   -1.4305   -0.4108 N   0  0  0  0  0  0  0  0  0  0  0  0
   -1.9983   -0.9964   -0.9615 H   0  0  0  0  0  0  0  0  0  0  0  0
    0.0058   -0.6996   -0.2518 C   0  0  1  0  0  0  0  0  0  0  0  0
    0.7478   -1.3719   -0.6990 H   0  0  0  0  0  0  0  0  0  0  0  0
    0.0682    0.5486   -1.1633 C   0  0  0  0  0  0  0  0  0  0  0  0
    1.1217    0.8441   -1.2229 H   0  0  0  0  0  0  0  0  0  0  0  0
   -0.2069    0.2036   -2.1655 H   0  0  0  0  0  0  0  0  0  0  0  0
   -0.7375    1.8450   -0.8422 C   0  0  0  0  0  0  0  0  0  0  0  0
   -0.0300    2.6079   -0.4981 H   0  0  0  0  0  0  0  0  0  0  0  0
   -1.4009    2.3391   -2.1381 C   0  0  0  0  0  0  0  0  0  0  0  0
   -2.1572    1.6273   -2.4841 H   0  0  0  0  0  0  0  0  0  0  0  0
   -1.8831    3.3089   -1.9790 H   0  0  0  0  0  0  0  0  0  0  0  0
   -0.6512    2.4625   -2.9263 H   0  0  0  0  0  0  0  0  0  0  0  0
   -1.8524    1.7401    0.2104 C   0  0  0  0  0  0  0  0  0  0  0  0
   -2.5104    2.6132    0.1570 H   0  0  0  0  0  0  0  0  0  0  0  0
   -1.4313    1.7314    1.2149 H   0  0  0  0  0  0  0  0  0  0  0  0
   -2.4661    0.8492    0.0597 H   0  0  0  0  0  0  0  0  0  0  0  0
    0.5556   -0.5361    1.1859 C   0  0  0  0  0  0  0  0  0  0  0  0
    1.7680   -0.4949    1.3523 O   0  0  0  0  0  0  0  0  0  0  0  0
   -0.2599   -0.1726    2.2406 N   0  0  0  0  0  0  0  0  0  0  0  0
   -1.2578   -0.2786    2.0922 H   0  0  0  0  0  0  0  0  0  0  0  0
    0.2318    0.0266    3.5980 C   0  0  0  0  0  0  0  0  0  0  0  0
    0.9995    0.8071    3.6175 H   0  0  0  0  0  0  0  0  0  0  0  0
   -0.5873    0.3337    4.2551 H   0  0  0  0  0  0  0  0  0  0  0  0
    0.6624   -0.9014    3.9882 H   0  0  0  0  0  0  0  0  0  0  0  0
  1  2  1  0  0  0  0
  2  3  1  0  0  0  0
  2  4  1  0  0  0  0
  2  5  1  0  0  0  0
  5  6  2  0  0  0  0
  5  7  1  0  0  0  0
  7  8  1  0  0  0  0
  7  9  1  0  0  0  0
  9 10  1  0  0  0  0
  9 11  1  0  0  0  0
  9 24  1  0  0  0  0
 11 12  1  0  0  0  0
 11 13  1  0  0  0  0
 11 14  1  0  0  0  0
 14 15  1  0  0  0  0
 14 16  1  0  0  0  0
 14 20  1  0  0  0  0
 16 17  1  0  0  0  0
 16 18  1  0  0  0  0
 16 19  1  0  0  0  0
 20 21  1  0  0  0  0
 20 22  1  0  0  0  0
 20 23  1  0  0  0  0
 24 25  2  0  0  0  0
 24 26  1  0  0  0  0
 26 27  1  0  0  0  0
 26 28  1  0  0  0  0
 28 29  1  0  0  0  0
 28 30  1  0  0  0  0
 28 31  1  0  0  0  0
M  END
$$$$

  -OEChem-04042216013D

 31 30  0     1  0  0  0  0  0999 V2000
   -2.8150   -4.4160    0.0471 H   0  0  0  0  0  0  0  0  0  0  0  0
   -2.8095   -3.3932   -0.3406 C   0  0  0  0  0  0  0  0  0  0  0  0
   -3.6155   -2.8317    0.1377 H   0  0  0  0  0  0  0  0  0  0  0  0
   -2.9850   -3.4252   -1.4185 H   0  0  0  0  0  0  0  0  0  0  0  0
   -1.4738   -2.7340   -0.0533 C   0  0  0  0  0  0  0  0  0  0  0  0
   -0.5933   -3.3634    0.5049 O   0  0  0  0  0  0  0  0  0  0  0  0
   -1.2700   -1.4164   -0.4120 N   0  0  0  0  0  0  0  0  0  0  0  0
   -2.0259   -0.9499   -0.9041 H   0  0  0  0  0  0  0  0  0  0  0  0
    0.0080   -0.6986   -0.2642 C   0  0  1  0  0  0  0  0  0  0  0  0
    0.7368   -1.3726   -0.7303 H   0  0  0  0  0  0  0  0  0  0  0  0
    0.0534    0.5440   -1.1859 C   0  0  0  0  0  0  0  0  0  0  0  0
    1.1064    0.8429   -1.2345 H   0  0  0  0  0  0  0  0  0  0  0  0
   -0.2081    0.2031   -2.1933 H   0  0  0  0  0  0  0  0  0  0  0  0
   -0.7484    1.8412   -0.8616 C   0  0  0  0  0  0  0  0  0  0  0  0
   -0.0332    2.6711   -0.8339 H   0  0  0  0  0  0  0  0  0  0  0  0
   -1.7300    2.1220   -2.0097 C   0  0  0  0  0  0  0  0  0  0  0  0
   -2.4754    1.3240   -2.0840 H   0  0  0  0  0  0  0  0  0  0  0  0
   -2.2513    3.0709   -1.8478 H   0  0  0  0  0  0  0  0  0  0  0  0
   -1.1952    2.1912   -2.9624 H   0  0  0  0  0  0  0  0  0  0  0  0
   -1.5303    1.8822    0.4554 C   0  0  0  0  0  0  0  0  0  0  0  0
   -0.8406    1.9973    1.2943 H   0  0  0  0  0  0  0  0  0  0  0  0
   -2.2017    2.7463    0.4743 H   0  0  0  0  0  0  0  0  0  0  0  0
   -2.1350    0.9818    0.5904 H   0  0  0  0  0  0  0  0  0  0  0  0
    0.5857   -0.5732    1.1677 C   0  0  0  0  0  0  0  0  0  0  0  0
    1.8012   -0.5402    1.3113 O   0  0  0  0  0  0  0  0  0  0  0  0
   -0.2062   -0.2292    2.2480 N   0  0  0  0  0  0  0  0  0  0  0  0
   -1.2081   -0.3200    2.1186 H   0  0  0  0  0  0  0  0  0  0  0  0
    0.3160   -0.0505    3.5970 C   0  0  0  0  0  0  0  0  0  0  0  0
    1.0609    0.7521    3.6160 H   0  0  0  0  0  0  0  0  0  0  0  0
   -0.4932    0.2148    4.2838 H   0  0  0  0  0  0  0  0  0  0  0  0
    0.7840   -0.9749    3.9513 H   0  0  0  0  0  0  0  0  0  0  0  0
  1  2  1  0  0  0  0
  2  3  1  0  0  0  0
  2  4  1  0  0  0  0
  2  5  1  0  0  0  0
  5  6  2  0  0  0  0
  5  7  1  0  0  0  0
  7  8  1  0  0  0  0
  7  9  1  0  0  0  0
  9 10  1  0  0  0  0
  9 11  1  0  0  0  0
  9 24  1  0  0  0  0
 11 12  1  0  0  0  0
 11 13  1  0  0  0  0
 11 14  1  0  0  0  0
 14 15  1  0  0  0  0
 14 16  1  0  0  0  0
 14 20  1  0  0  0  0
 16 17  1  0  0  0  0
 16 18  1  0  0  0  0
 16 19  1  0  0  0  0
 20 21  1  0  0  0  0
 20 22  1  0  0  0  0
 20 23  1  0  0  0  0
 24 25  2  0  0  0  0
 24 26  1  0  0  0  0
 26 27  1  0  0  0  0
 26 28  1  0  0  0  0
 28 29  1  0  0  0  0
 28 30  1  0  0  0  0
 28 31  1  0  0  0  0
M  END
$$$$

  -OEChem-04042216013D

 31 30  0     1  0  0  0  0  0999 V2000
   -2.7055   -4.4837    0.3364 H   0  0  0  0  0  0  0  0  0  0  0  0
   -2.7447   -3.4679   -0.0678 C   0  0  0  0  0  0  0  0  0  0  0  0
   -3.5580   -2.9259    0.4205 H   0  0  0  0  0  0  0  0  0  0  0  0
   -2.9450   -3.5253   -1.1405 H   0  0  0  0  0  0  0  0  0  0  0  0
   -1.4266   -2.7576    0.1769 C   0  0  0  0  0  0  0  0  0  0  0  0
   -0.5382   -3.3209    0.7905 O   0  0  0  0  0  0  0  0  0  0  0  0
   -1.2473   -1.4685   -0.2844 N   0  0  0  0  0  0  0  0  0  0  0  0
   -2.0085   -1.0596   -0.8177 H   0  0  0  0  0  0  0  0  0  0  0  0
    0.0181   -0.7194   -0.2002 C   0  0  1  0  0  0  0  0  0  0  0  0
    0.7557   -1.4215   -0.6070 H   0  0  0  0  0  0  0  0  0  0  0  0
    0.0467    0.4291   -1.2393 C   0  0  0  0  0  0  0  0  0  0  0  0
    1.0944    0.7451   -1.2937 H   0  0  0  0  0  0  0  0  0  0  0  0
   -0.1885   -0.0009   -2.2184 H   0  0  0  0  0  0  0  0  0  0  0  0
   -0.7794    1.7328   -1.0437 C   0  0  0  0  0  0  0  0  0  0  0  0
   -0.1441    2.5632   -1.3714 H   0  0  0  0  0  0  0  0  0  0  0  0
   -1.9993    1.7102   -1.9754 C   0  0  0  0  0  0  0  0  0  0  0  0
   -2.6716    0.8881   -1.7112 H   0  0  0  0  0  0  0  0  0  0  0  0
   -2.5547    2.6506   -1.9015 H   0  0  0  0  0  0  0  0  0  0  0  0
   -1.6858    1.5853   -3.0168 H   0  0  0  0  0  0  0  0  0  0  0  0
   -1.2453    2.0664    0.3728 C   0  0  0  0  0  0  0  0  0  0  0  0
   -0.3830    2.2058    1.0307 H   0  0  0  0  0  0  0  0  0  0  0  0
   -1.8933    1.2792    0.7677 H   0  0  0  0  0  0  0  0  0  0  0  0
   -1.8125    3.0024    0.3725 H   0  0  0  0  0  0  0  0  0  0  0  0
    0.6004   -0.4720    1.2144 C   0  0  0  0  0  0  0  0  0  0  0  0
    1.8158   -0.3991    1.3447 O   0  0  0  0  0  0  0  0  0  0  0  0
   -0.1920   -0.0584    2.2703 N   0  0  0  0  0  0  0  0  0  0  0  0
   -1.1918   -0.1894    2.1597 H   0  0  0  0  0  0  0  0  0  0  0  0
    0.3362    0.2333    3.5971 C   0  0  0  0  0  0  0  0  0  0  0  0
    1.0586    1.0549    3.5497 H   0  0  0  0  0  0  0  0  0  0  0  0
   -0.4744    0.5263    4.2709 H   0  0  0  0  0  0  0  0  0  0  0  0
    0.8328   -0.6493    4.0137 H   0  0  0  0  0  0  0  0  0  0  0  0
  1  2  1  0  0  0  0
  2  3  1  0  0  0  0
  2  4  1  0  0  0  0
  2  5  1  0  0  0  0
  5  6  2  0  0  0  0
  5  7  1  0  0  0  0
  7  8  1  0  0  0  0
  7  9  1  0  0  0  0
  9 10  1  0  0  0  0
  9 11  1  0  0  0  0
  9 24  1  0  0  0  0
 11 12  1  0  0  0  0
 11 13  1  0  0  0  0
 11 14  1  0  0  0  0
 14 15  1  0  0  0  0
 14 16  1  0  0  0  0
 14 20  1  0  0  0  0
 16 17  1  0  0  0  0
 16 18  1  0  0  0  0
 16 19  1  0  0  0  0
 20 21  1  0  0  0  0
 20 22  1  0  0  0  0
 20 23  1  0  0  0  0
 24 25  2  0  0  0  0
 24 26  1  0  0  0  0
 26 27  1  0  0  0  0
 26 28  1  0  0  0  0
 28 29  1  0  0  0  0
 28 30  1  0  0  0  0
 28 31  1  0  0  0  0
M  END
$$$$

  -OEChem-04042216013D

 31 30  0     1  0  0  0  0  0999 V2000
   -2.9683   -4.3519   -0.0151 H   0  0  0  0  0  0  0  0  0  0  0  0
   -2.9232   -3.3199   -0.3752 C   0  0  0  0  0  0  0  0  0  0  0  0
   -3.7164   -2.7444    0.1080 H   0  0  0  0  0  0  0  0  0  0  0  0
   -3.0858   -3.3177   -1.4556 H   0  0  0  0  0  0  0  0  0  0  0  0
   -1.5693   -2.7152   -0.0532 C   0  0  0  0  0  0  0  0  0  0  0  0
   -0.7317   -3.3798    0.5296 O   0  0  0  0  0  0  0  0  0  0  0  0
   -1.2992   -1.4087   -0.4099 N   0  0  0  0  0  0  0  0  0  0  0  0
   -2.0183   -0.9146   -0.9293 H   0  0  0  0  0  0  0  0  0  0  0  0
    0.0077   -0.7507   -0.2410 C   0  0  1  0  0  0  0  0  0  0  0  0
    0.7135   -1.4602   -0.6893 H   0  0  0  0  0  0  0  0  0  0  0  0
    0.1294    0.4812   -1.1736 C   0  0  0  0  0  0  0  0  0  0  0  0
    1.1959    0.7325   -1.1858 H   0  0  0  0  0  0  0  0  0  0  0  0
   -0.1194    0.1613   -2.1909 H   0  0  0  0  0  0  0  0  0  0  0  0
   -0.6163    1.8105   -0.8748 C   0  0  0  0  0  0  0  0  0  0  0  0
   -0.0381    2.5966   -1.3732 H   0  0  0  0  0  0  0  0  0  0  0  0
   -2.0043    1.8022   -1.5286 C   0  0  0  0  0  0  0  0  0  0  0  0
   -2.6409    1.0346   -1.0792 H   0  0  0  0  0  0  0  0  0  0  0  0
   -2.4908    2.7740   -1.3971 H   0  0  0  0  0  0  0  0  0  0  0  0
   -1.9237    1.6060   -2.6024 H   0  0  0  0  0  0  0  0  0  0  0  0
   -0.7402    2.2304    0.5891 C   0  0  0  0  0  0  0  0  0  0  0  0
    0.2269    2.1543    1.0953 H   0  0  0  0  0  0  0  0  0  0  0  0
   -1.4796    1.6161    1.1079 H   0  0  0  0  0  0  0  0  0  0  0  0
   -1.0706    3.2718    0.6516 H   0  0  0  0  0  0  0  0  0  0  0  0
    0.5556   -0.6559    1.2046 C   0  0  0  0  0  0  0  0  0  0  0  0
    1.7675   -0.6703    1.3787 O   0  0  0  0  0  0  0  0  0  0  0  0
   -0.2501   -0.2765    2.2629 N   0  0  0  0  0  0  0  0  0  0  0  0
   -1.2511   -0.3258    2.1062 H   0  0  0  0  0  0  0  0  0  0  0  0
    0.2424   -0.1126    3.6247 C   0  0  0  0  0  0  0  0  0  0  0  0
    0.9892    0.6870    3.6675 H   0  0  0  0  0  0  0  0  0  0  0  0
   -0.5816    0.1486    4.2952 H   0  0  0  0  0  0  0  0  0  0  0  0
    0.6989   -1.0419    3.9813 H   0  0  0  0  0  0  0  0  0  0  0  0
  1  2  1  0  0  0  0
  2  3  1  0  0  0  0
  2  4  1  0  0  0  0
  2  5  1  0  0  0  0
  5  6  2  0  0  0  0
  5  7  1  0  0  0  0
  7  8  1  0  0  0  0
  7  9  1  0  0  0  0
  9 10  1  0  0  0  0
  9 11  1  0  0  0  0
  9 24  1  0  0  0  0
 11 12  1  0  0  0  0
 11 13  1  0  0  0  0
 11 14  1  0  0  0  0
 14 15  1  0  0  0  0
 14 16  1  0  0  0  0
 14 20  1  0  0  0  0
 16 17  1  0  0  0  0
 16 18  1  0  0  0  0
 16 19  1  0  0  0  0
 20 21  1  0  0  0  0
 20 22  1  0  0  0  0
 20 23  1  0  0  0  0
 24 25  2  0  0  0  0
 24 26  1  0  0  0  0
 26 27  1  0  0  0  0
 26 28  1  0  0  0  0
 28 29  1  0  0  0  0
 28 30  1  0  0  0  0
 28 31  1  0  0  0  0
M  END
$$$$

  -OEChem-04042216013D

 31 30  0     1  0  0  0  0  0999 V2000
   -2.7806   -4.4310    0.1186 H   0  0  0  0  0  0  0  0  0  0  0  0
   -2.7716   -3.4186   -0.2957 C   0  0  0  0  0  0  0  0  0  0  0  0
   -3.5733   -2.8414    0.1707 H   0  0  0  0  0  0  0  0  0  0  0  0
   -2.9512   -3.4775   -1.3718 H   0  0  0  0  0  0  0  0  0  0  0  0
   -1.4321   -2.7581   -0.0289 C   0  0  0  0  0  0  0  0  0  0  0  0
   -0.5532   -3.3775    0.5428 O   0  0  0  0  0  0  0  0  0  0  0  0
   -1.2234   -1.4507   -0.4215 N   0  0  0  0  0  0  0  0  0  0  0  0
   -1.9758   -0.9962   -0.9295 H   0  0  0  0  0  0  0  0  0  0  0  0
    0.0545   -0.7301   -0.2859 C   0  0  1  0  0  0  0  0  0  0  0  0
    0.7918   -1.4024   -0.7405 H   0  0  0  0  0  0  0  0  0  0  0  0
    0.0844    0.5126   -1.2108 C   0  0  0  0  0  0  0  0  0  0  0  0
    1.1351    0.8170   -1.2731 H   0  0  0  0  0  0  0  0  0  0  0  0
   -0.2028    0.1901   -2.2168 H   0  0  0  0  0  0  0  0  0  0  0  0
   -0.7189    1.7937   -0.8669 C   0  0  0  0  0  0  0  0  0  0  0  0
   -0.3718    2.5476   -1.5822 H   0  0  0  0  0  0  0  0  0  0  0  0
   -2.2178    1.6023   -1.1269 C   0  0  0  0  0  0  0  0  0  0  0  0
   -2.6503    0.8971   -0.4113 H   0  0  0  0  0  0  0  0  0  0  0  0
   -2.7423    2.5577   -1.0256 H   0  0  0  0  0  0  0  0  0  0  0  0
   -2.3880    1.2250   -2.1400 H   0  0  0  0  0  0  0  0  0  0  0  0
   -0.4834    2.3942    0.5214 C   0  0  0  0  0  0  0  0  0  0  0  0
    0.5641    2.2856    0.8204 H   0  0  0  0  0  0  0  0  0  0  0  0
   -1.1262    1.9248    1.2684 H   0  0  0  0  0  0  0  0  0  0  0  0
   -0.7236    3.4618    0.5081 H   0  0  0  0  0  0  0  0  0  0  0  0
    0.5983   -0.5823    1.1551 C   0  0  0  0  0  0  0  0  0  0  0  0
    1.8093   -0.5431    1.3313 O   0  0  0  0  0  0  0  0  0  0  0  0
   -0.2289   -0.2166    2.2012 N   0  0  0  0  0  0  0  0  0  0  0  0
   -1.2262   -0.3099    2.0406 H   0  0  0  0  0  0  0  0  0  0  0  0
    0.2503   -0.0045    3.5612 C   0  0  0  0  0  0  0  0  0  0  0  0
    0.9980    0.7952    3.5842 H   0  0  0  0  0  0  0  0  0  0  0  0
   -0.5796    0.2824    4.2137 H   0  0  0  0  0  0  0  0  0  0  0  0
    0.7019   -0.9216    3.9542 H   0  0  0  0  0  0  0  0  0  0  0  0
  1  2  1  0  0  0  0
  2  3  1  0  0  0  0
  2  4  1  0  0  0  0
  2  5  1  0  0  0  0
  5  6  2  0  0  0  0
  5  7  1  0  0  0  0
  7  8  1  0  0  0  0
  7  9  1  0  0  0  0
  9 10  1  0  0  0  0
  9 11  1  0  0  0  0
  9 24  1  0  0  0  0
 11 12  1  0  0  0  0
 11 13  1  0  0  0  0
 11 14  1  0  0  0  0
 14 15  1  0  0  0  0
 14 16  1  0  0  0  0
 14 20  1  0  0  0  0
 16 17  1  0  0  0  0
 16 18  1  0  0  0  0
 16 19  1  0  0  0  0
 20 21  1  0  0  0  0
 20 22  1  0  0  0  0
 20 23  1  0  0  0  0
 24 25  2  0  0  0  0
 24 26  1  0  0  0  0
 26 27  1  0  0  0  0
 26 28  1  0  0  0  0
 28 29  1  0  0  0  0
 28 30  1  0  0  0  0
 28 31  1  0  0  0  0
M  END
$$$$

  -OEChem-04042216013D

 31 30  0     1  0  0  0  0  0999 V2000
   -2.8022   -4.4066    0.0860 H   0  0  0  0  0  0  0  0  0  0  0  0
   -2.7835   -3.3917   -0.3218 C   0  0  0  0  0  0  0  0  0  0  0  0
   -3.5775   -2.8085    0.1504 H   0  0  0  0  0  0  0  0  0  0  0  0
   -2.9668   -3.4423   -1.3977 H   0  0  0  0  0  0  0  0  0  0  0  0
   -1.4360   -2.7481   -0.0549 C   0  0  0  0  0  0  0  0  0  0  0  0
   -0.5718   -3.3727    0.5329 O   0  0  0  0  0  0  0  0  0  0  0  0
   -1.2031   -1.4514   -0.4691 N   0  0  0  0  0  0  0  0  0  0  0  0
   -1.9453   -0.9933   -0.9891 H   0  0  0  0  0  0  0  0  0  0  0  0
    0.0839   -0.7459   -0.3292 C   0  0  1  0  0  0  0  0  0  0  0  0
    0.8256   -1.4146   -0.7818 H   0  0  0  0  0  0  0  0  0  0  0  0
    0.1159    0.5228   -1.2174 C   0  0  0  0  0  0  0  0  0  0  0  0
    1.1673    0.8153   -1.3133 H   0  0  0  0  0  0  0  0  0  0  0  0
   -0.2165    0.2315   -2.2190 H   0  0  0  0  0  0  0  0  0  0  0  0
   -0.6727    1.7939   -0.8111 C   0  0  0  0  0  0  0  0  0  0  0  0
   -0.5380    2.4892   -1.6472 H   0  0  0  0  0  0  0  0  0  0  0  0
   -2.1796    1.5424   -0.6882 C   0  0  0  0  0  0  0  0  0  0  0  0
   -2.4004    0.9141    0.1797 H   0  0  0  0  0  0  0  0  0  0  0  0
   -2.7104    2.4919   -0.5667 H   0  0  0  0  0  0  0  0  0  0  0  0
   -2.5607    1.0498   -1.5880 H   0  0  0  0  0  0  0  0  0  0  0  0
   -0.1281    2.5217    0.4255 C   0  0  0  0  0  0  0  0  0  0  0  0
    0.9582    2.4076    0.4988 H   0  0  0  0  0  0  0  0  0  0  0  0
   -0.3546    3.5900    0.3541 H   0  0  0  0  0  0  0  0  0  0  0  0
   -0.5855    2.1535    1.3447 H   0  0  0  0  0  0  0  0  0  0  0  0
    0.5868   -0.5921    1.1241 C   0  0  0  0  0  0  0  0  0  0  0  0
    1.7911   -0.5765    1.3435 O   0  0  0  0  0  0  0  0  0  0  0  0
   -0.2759   -0.2017    2.1319 N   0  0  0  0  0  0  0  0  0  0  0  0
   -1.2667   -0.2742    1.9283 H   0  0  0  0  0  0  0  0  0  0  0  0
    0.1482   -0.0061    3.5122 C   0  0  0  0  0  0  0  0  0  0  0  0
    0.9314    0.7570    3.5682 H   0  0  0  0  0  0  0  0  0  0  0  0
   -0.6970    0.3233    4.1238 H   0  0  0  0  0  0  0  0  0  0  0  0
    0.5364   -0.9415    3.9287 H   0  0  0  0  0  0  0  0  0  0  0  0
  1  2  1  0  0  0  0
  2  3  1  0  0  0  0
  2  4  1  0  0  0  0
  2  5  1  0  0  0  0
  5  6  2  0  0  0  0
  5  7  1  0  0  0  0
  7  8  1  0  0  0  0
  7  9  1  0  0  0  0
  9 10  1  0  0  0  0
  9 11  1  0  0  0  0
  9 24  1  0  0  0  0
 11 12  1  0  0  0  0
 11 13  1  0  0  0  0
 11 14  1  0  0  0  0
 14 15  1  0  0  0  0
 14 16  1  0  0  0  0
 14 20  1  0  0  0  0
 16 17  1  0  0  0  0
 16 18  1  0  0  0  0
 16 19  1  0  0  0  0
 20 21  1  0  0  0  0
 20 22  1  0  0  0  0
 20 23  1  0  0  0  0
 24 25  2  0  0  0  0
 24 26  1  0  0  0  0
 26 27  1  0  0  0  0
 26 28  1  0  0  0  0
 28 29  1  0  0  0  0
 28 30  1  0  0  0  0
 28 31  1  0  0  0  0
M  END
$$$$

  -OEChem-04042216013D

 31 30  0     1  0  0  0  0  0999 V2000
   -2.7970   -4.4060    0.0999 H   0  0  0  0  0  0  0  0  0  0  0  0
   -2.7723   -3.3980   -0.3241 C   0  0  0  0  0  0  0  0  0  0  0  0
   -3.5725   -2.8072    0.1277 H   0  0  0  0  0  0  0  0  0  0  0  0
   -2.9404   -3.4660   -1.4016 H   0  0  0  0  0  0  0  0  0  0  0  0
   -1.4286   -2.7497   -0.0492 C   0  0  0  0  0  0  0  0  0  0  0  0
   -0.5711   -3.3651    0.5581 O   0  0  0  0  0  0  0  0  0  0  0  0
   -1.1934   -1.4572   -0.4744 N   0  0  0  0  0  0  0  0  0  0  0  0
   -1.9308   -1.0049   -1.0059 H   0  0  0  0  0  0  0  0  0  0  0  0
    0.0900   -0.7477   -0.3242 C   0  0  1  0  0  0  0  0  0  0  0  0
    0.8372   -1.4194   -0.7626 H   0  0  0  0  0  0  0  0  0  0  0  0
    0.1357    0.5175   -1.2173 C   0  0  0  0  0  0  0  0  0  0  0  0
    1.1880    0.8035   -1.3213 H   0  0  0  0  0  0  0  0  0  0  0  0
   -0.2021    0.2178   -2.2146 H   0  0  0  0  0  0  0  0  0  0  0  0
   -0.6607    1.7895   -0.8227 C   0  0  0  0  0  0  0  0  0  0  0  0
   -0.7296    2.3961   -1.7323 H   0  0  0  0  0  0  0  0  0  0  0  0
   -2.0975    1.5126   -0.3624 C   0  0  0  0  0  0  0  0  0  0  0  0
   -2.1167    0.9618    0.5802 H   0  0  0  0  0  0  0  0  0  0  0  0
   -2.6314    2.4566   -0.2140 H   0  0  0  0  0  0  0  0  0  0  0  0
   -2.6341    0.9346   -1.1204 H   0  0  0  0  0  0  0  0  0  0  0  0
    0.0778    2.6535    0.2096 C   0  0  0  0  0  0  0  0  0  0  0  0
    1.1070    2.8389   -0.1132 H   0  0  0  0  0  0  0  0  0  0  0  0
   -0.4242    3.6201    0.3156 H   0  0  0  0  0  0  0  0  0  0  0  0
    0.1058    2.1810    1.1916 H   0  0  0  0  0  0  0  0  0  0  0  0
    0.5835   -0.5702    1.1307 C   0  0  0  0  0  0  0  0  0  0  0  0
    1.7868   -0.5520    1.3554 O   0  0  0  0  0  0  0  0  0  0  0  0
   -0.2817   -0.1662    2.1317 N   0  0  0  0  0  0  0  0  0  0  0  0
   -1.2717   -0.2567    1.9316 H   0  0  0  0  0  0  0  0  0  0  0  0
    0.1408    0.0448    3.5103 C   0  0  0  0  0  0  0  0  0  0  0  0
    0.9217    0.8109    3.5593 H   0  0  0  0  0  0  0  0  0  0  0  0
   -0.7058    0.3774    4.1182 H   0  0  0  0  0  0  0  0  0  0  0  0
    0.5317   -0.8852    3.9361 H   0  0  0  0  0  0  0  0  0  0  0  0
  1  2  1  0  0  0  0
  2  3  1  0  0  0  0
  2  4  1  0  0  0  0
  2  5  1  0  0  0  0
  5  6  2  0  0  0  0
  5  7  1  0  0  0  0
  7  8  1  0  0  0  0
  7  9  1  0  0  0  0
  9 10  1  0  0  0  0
  9 11  1  0  0  0  0
  9 24  1  0  0  0  0
 11 12  1  0  0  0  0
 11 13  1  0  0  0  0
 11 14  1  0  0  0  0
 14 15  1  0  0  0  0
 14 16  1  0  0  0  0
 14 20  1  0  0  0  0
 16 17  1  0  0  0  0
 16 18  1  0  0  0  0
 16 19  1  0  0  0  0
 20 21  1  0  0  0  0
 20 22  1  0  0  0  0
 20 23  1  0  0  0  0
 24 25  2  0  0  0  0
 24 26  1  0  0  0  0
 26 27  1  0  0  0  0
 26 28  1  0  0  0  0
 28 29  1  0  0  0  0
 28 30  1  0  0  0  0
 28 31  1  0  0  0  0
M  END
$$$$

  -OEChem-04042216013D

 31 30  0     1  0  0  0  0  0999 V2000
   -2.8430   -4.4263   -0.0068 H   0  0  0  0  0  0  0  0  0  0  0  0
   -2.8040   -3.4054   -0.3979 C   0  0  0  0  0  0  0  0  0  0  0  0
   -3.6391   -2.8369    0.0181 H   0  0  0  0  0  0  0  0  0  0  0  0
   -2.9014   -3.4426   -1.4856 H   0  0  0  0  0  0  0  0  0  0  0  0
   -1.4891   -2.7516   -0.0167 C   0  0  0  0  0  0  0  0  0  0  0  0
   -0.6915   -3.3535    0.6794 O   0  0  0  0  0  0  0  0  0  0  0  0
   -1.2107   -1.4700   -0.4480 N   0  0  0  0  0  0  0  0  0  0  0  0
   -1.8938   -1.0297   -1.0565 H   0  0  0  0  0  0  0  0  0  0  0  0
    0.0705   -0.7770   -0.2257 C   0  0  1  0  0  0  0  0  0  0  0  0
    0.8187   -1.4900   -0.5918 H   0  0  0  0  0  0  0  0  0  0  0  0
    0.2421    0.4410   -1.1646 C   0  0  0  0  0  0  0  0  0  0  0  0
    1.3106    0.6811   -1.1969 H   0  0  0  0  0  0  0  0  0  0  0  0
   -0.0230    0.1004   -2.1707 H   0  0  0  0  0  0  0  0  0  0  0  0
   -0.5465    1.7563   -0.9106 C   0  0  0  0  0  0  0  0  0  0  0  0
   -0.7007    2.2332   -1.8847 H   0  0  0  0  0  0  0  0  0  0  0  0
   -1.9219    1.6005   -0.2442 C   0  0  0  0  0  0  0  0  0  0  0  0
   -2.4416    2.5638   -0.2415 H   0  0  0  0  0  0  0  0  0  0  0  0
   -1.8463    1.2658    0.7884 H   0  0  0  0  0  0  0  0  0  0  0  0
   -2.5378    0.8910   -0.8032 H   0  0  0  0  0  0  0  0  0  0  0  0
    0.2943    2.7157   -0.0553 C   0  0  0  0  0  0  0  0  0  0  0  0
    1.2534    2.9224   -0.5404 H   0  0  0  0  0  0  0  0  0  0  0  0
   -0.2297    3.6674    0.0775 H   0  0  0  0  0  0  0  0  0  0  0  0
    0.4922    2.2905    0.9328 H   0  0  0  0  0  0  0  0  0  0  0  0
    0.5188   -0.5561    1.2398 C   0  0  0  0  0  0  0  0  0  0  0  0
    1.7168   -0.5419    1.4929 O   0  0  0  0  0  0  0  0  0  0  0  0
   -0.3565   -0.1073    2.2111 N   0  0  0  0  0  0  0  0  0  0  0  0
   -1.3449   -0.1897    1.9985 H   0  0  0  0  0  0  0  0  0  0  0  0
    0.0472    0.1737    3.5829 C   0  0  0  0  0  0  0  0  0  0  0  0
    0.7738    0.9926    3.6079 H   0  0  0  0  0  0  0  0  0  0  0  0
   -0.8218    0.4652    4.1806 H   0  0  0  0  0  0  0  0  0  0  0  0
    0.4999   -0.7137    4.0380 H   0  0  0  0  0  0  0  0  0  0  0  0
  1  2  1  0  0  0  0
  2  3  1  0  0  0  0
  2  4  1  0  0  0  0
  2  5  1  0  0  0  0
  5  6  2  0  0  0  0
  5  7  1  0  0  0  0
  7  8  1  0  0  0  0
  7  9  1  0  0  0  0
  9 10  1  0  0  0  0
  9 11  1  0  0  0  0
  9 24  1  0  0  0  0
 11 12  1  0  0  0  0
 11 13  1  0  0  0  0
 11 14  1  0  0  0  0
 14 15  1  0  0  0  0
 14 16  1  0  0  0  0
 14 20  1  0  0  0  0
 16 17  1  0  0  0  0
 16 18  1  0  0  0  0
 16 19  1  0  0  0  0
 20 21  1  0  0  0  0
 20 22  1  0  0  0  0
 20 23  1  0  0  0  0
 24 25  2  0  0  0  0
 24 26  1  0  0  0  0
 26 27  1  0  0  0  0
 26 28  1  0  0  0  0
 28 29  1  0  0  0  0
 28 30  1  0  0  0  0
 28 31  1  0  0  0  0
M  END
$$$$

  -OEChem-04042216013D

 31 30  0     1  0  0  0  0  0999 V2000
   -2.7823   -4.4516   -0.0469 H   0  0  0  0  0  0  0  0  0  0  0  0
   -2.7681   -3.4242   -0.4222 C   0  0  0  0  0  0  0  0  0  0  0  0
   -3.5999   -2.8746    0.0250 H   0  0  0  0  0  0  0  0  0  0  0  0
   -2.8943   -3.4454   -1.5074 H   0  0  0  0  0  0  0  0  0  0  0  0
   -1.4527   -2.7570   -0.0666 C   0  0  0  0  0  0  0  0  0  0  0  0
   -0.6131   -3.3690    0.5685 O   0  0  0  0  0  0  0  0  0  0  0  0
   -1.2208   -1.4526   -0.4553 N   0  0  0  0  0  0  0  0  0  0  0  0
   -1.9378   -1.0062   -1.0189 H   0  0  0  0  0  0  0  0  0  0  0  0
    0.0540   -0.7390   -0.2629 C   0  0  1  0  0  0  0  0  0  0  0  0
    0.7990   -1.4238   -0.6846 H   0  0  0  0  0  0  0  0  0  0  0  0
    0.1603    0.5057   -1.1745 C   0  0  0  0  0  0  0  0  0  0  0  0
    1.2247    0.7588   -1.2353 H   0  0  0  0  0  0  0  0  0  0  0  0
   -0.1285    0.1823   -2.1798 H   0  0  0  0  0  0  0  0  0  0  0  0
   -0.6376    1.8098   -0.8731 C   0  0  0  0  0  0  0  0  0  0  0  0
   -1.0638    2.1447   -1.8252 H   0  0  0  0  0  0  0  0  0  0  0  0
   -1.7949    1.7237    0.1324 C   0  0  0  0  0  0  0  0  0  0  0  0
   -2.4410    2.5999    0.0187 H   0  0  0  0  0  0  0  0  0  0  0  0
   -1.4332    1.7235    1.1608 H   0  0  0  0  0  0  0  0  0  0  0  0
   -2.4079    0.8366   -0.0401 H   0  0  0  0  0  0  0  0  0  0  0  0
    0.3259    2.9005   -0.3842 C   0  0  0  0  0  0  0  0  0  0  0  0
    1.0965    3.0975   -1.1362 H   0  0  0  0  0  0  0  0  0  0  0  0
   -0.2137    3.8348   -0.1991 H   0  0  0  0  0  0  0  0  0  0  0  0
    0.8173    2.5920    0.5447 H   0  0  0  0  0  0  0  0  0  0  0  0
    0.5632   -0.5690    1.1890 C   0  0  0  0  0  0  0  0  0  0  0  0
    1.7706   -0.5395    1.3907 O   0  0  0  0  0  0  0  0  0  0  0  0
   -0.2775   -0.1827    2.2155 N   0  0  0  0  0  0  0  0  0  0  0  0
   -1.2729   -0.2626    2.0372 H   0  0  0  0  0  0  0  0  0  0  0  0
    0.1789    0.0489    3.5801 C   0  0  0  0  0  0  0  0  0  0  0  0
    0.8981    0.8742    3.6080 H   0  0  0  0  0  0  0  0  0  0  0  0
   -0.6677    0.3071    4.2232 H   0  0  0  0  0  0  0  0  0  0  0  0
    0.6581   -0.8503    3.9817 H   0  0  0  0  0  0  0  0  0  0  0  0
  1  2  1  0  0  0  0
  2  3  1  0  0  0  0
  2  4  1  0  0  0  0
  2  5  1  0  0  0  0
  5  6  2  0  0  0  0
  5  7  1  0  0  0  0
  7  8  1  0  0  0  0
  7  9  1  0  0  0  0
  9 10  1  0  0  0  0
  9 11  1  0  0  0  0
  9 24  1  0  0  0  0
 11 12  1  0  0  0  0
 11 13  1  0  0  0  0
 11 14  1  0  0  0  0
 14 15  1  0  0  0  0
 14 16  1  0  0  0  0
 14 20  1  0  0  0  0
 16 17  1  0  0  0  0
 16 18  1  0  0  0  0
 16 19  1  0  0  0  0
 20 21  1  0  0  0  0
 20 22  1  0  0  0  0
 20 23  1  0  0  0  0
 24 25  2  0  0  0  0
 24 26  1  0  0  0  0
 26 27  1  0  0  0  0
 26 28  1  0  0  0  0
 28 29  1  0  0  0  0
 28 30  1  0  0  0  0
 28 31  1  0  0  0  0
M  END
$$$$

  -OEChem-04042216013D

 31 30  0     1  0  0  0  0  0999 V2000
   -2.7987   -4.4183   -0.0142 H   0  0  0  0  0  0  0  0  0  0  0  0
   -2.7810   -3.3935   -0.3964 C   0  0  0  0  0  0  0  0  0  0  0  0
   -3.5926   -2.8306    0.0706 H   0  0  0  0  0  0  0  0  0  0  0  0
   -2.9372   -3.4191   -1.4776 H   0  0  0  0  0  0  0  0  0  0  0  0
   -1.4482   -2.7415   -0.0800 C   0  0  0  0  0  0  0  0  0  0  0  0
   -0.5888   -3.3712    0.5098 O   0  0  0  0  0  0  0  0  0  0  0  0
   -1.2256   -1.4286   -0.4455 N   0  0  0  0  0  0  0  0  0  0  0  0
   -1.9643   -0.9622   -0.9632 H   0  0  0  0  0  0  0  0  0  0  0  0
    0.0516   -0.7166   -0.2637 C   0  0  1  0  0  0  0  0  0  0  0  0
    0.7902   -1.3964   -0.7053 H   0  0  0  0  0  0  0  0  0  0  0  0
    0.1361    0.5277   -1.1792 C   0  0  0  0  0  0  0  0  0  0  0  0
    1.1997    0.7871   -1.2251 H   0  0  0  0  0  0  0  0  0  0  0  0
   -0.1393    0.2079   -2.1895 H   0  0  0  0  0  0  0  0  0  0  0  0
   -0.6637    1.8299   -0.8724 C   0  0  0  0  0  0  0  0  0  0  0  0
   -1.3345    1.9838   -1.7246 H   0  0  0  0  0  0  0  0  0  0  0  0
   -1.5510    1.8518    0.3769 C   0  0  0  0  0  0  0  0  0  0  0  0
   -0.9488    1.9882    1.2784 H   0  0  0  0  0  0  0  0  0  0  0  0
   -2.2479    2.6938    0.3188 H   0  0  0  0  0  0  0  0  0  0  0  0
   -2.1414    0.9366    0.4629 H   0  0  0  0  0  0  0  0  0  0  0  0
    0.2903    3.0308   -0.8124 C   0  0  0  0  0  0  0  0  0  0  0  0
    0.8558    3.1173   -1.7457 H   0  0  0  0  0  0  0  0  0  0  0  0
   -0.2707    3.9593   -0.6663 H   0  0  0  0  0  0  0  0  0  0  0  0
    0.9989    2.9187    0.0152 H   0  0  0  0  0  0  0  0  0  0  0  0
    0.5843   -0.5796    1.1841 C   0  0  0  0  0  0  0  0  0  0  0  0
    1.7947   -0.5516    1.3672 O   0  0  0  0  0  0  0  0  0  0  0  0
   -0.2411   -0.2192    2.2333 N   0  0  0  0  0  0  0  0  0  0  0  0
   -1.2388   -0.3019    2.0703 H   0  0  0  0  0  0  0  0  0  0  0  0
    0.2359   -0.0217    3.5962 C   0  0  0  0  0  0  0  0  0  0  0  0
    0.9790    0.7819    3.6294 H   0  0  0  0  0  0  0  0  0  0  0  0
   -0.5962    0.2519    4.2517 H   0  0  0  0  0  0  0  0  0  0  0  0
    0.6922   -0.9409    3.9783 H   0  0  0  0  0  0  0  0  0  0  0  0
  1  2  1  0  0  0  0
  2  3  1  0  0  0  0
  2  4  1  0  0  0  0
  2  5  1  0  0  0  0
  5  6  2  0  0  0  0
  5  7  1  0  0  0  0
  7  8  1  0  0  0  0
  7  9  1  0  0  0  0
  9 10  1  0  0  0  0
  9 11  1  0  0  0  0
  9 24  1  0  0  0  0
 11 12  1  0  0  0  0
 11 13  1  0  0  0  0
 11 14  1  0  0  0  0
 14 15  1  0  0  0  0
 14 16  1  0  0  0  0
 14 20  1  0  0  0  0
 16 17  1  0  0  0  0
 16 18  1  0  0  0  0
 16 19  1  0  0  0  0
 20 21  1  0  0  0  0
 20 22  1  0  0  0  0
 20 23  1  0  0  0  0
 24 25  2  0  0  0  0
 24 26  1  0  0  0  0
 26 27  1  0  0  0  0
 26 28  1  0  0  0  0
 28 29  1  0  0  0  0
 28 30  1  0  0  0  0
 28 31  1  0  0  0  0
M  END
$$$$

  -OEChem-04042216013D

 31 30  0     1  0  0  0  0  0999 V2000
   -2.7280   -4.4405   -0.0104 H   0  0  0  0  0  0  0  0  0  0  0  0
   -2.7300   -3.4112   -0.3807 C   0  0  0  0  0  0  0  0  0  0  0  0
   -3.5581   -2.8718    0.0851 H   0  0  0  0  0  0  0  0  0  0  0  0
   -2.8767   -3.4282   -1.4634 H   0  0  0  0  0  0  0  0  0  0  0  0
   -1.4143   -2.7340   -0.0458 C   0  0  0  0  0  0  0  0  0  0  0  0
   -0.5526   -3.3471    0.5579 O   0  0  0  0  0  0  0  0  0  0  0  0
   -1.2086   -1.4186   -0.4123 N   0  0  0  0  0  0  0  0  0  0  0  0
   -1.9481   -0.9663   -0.9413 H   0  0  0  0  0  0  0  0  0  0  0  0
    0.0565   -0.6880   -0.2226 C   0  0  1  0  0  0  0  0  0  0  0  0
    0.8057   -1.3686   -0.6447 H   0  0  0  0  0  0  0  0  0  0  0  0
    0.1409    0.5306   -1.1742 C   0  0  0  0  0  0  0  0  0  0  0  0
    1.1998    0.8123   -1.1795 H   0  0  0  0  0  0  0  0  0  0  0  0
   -0.0888    0.1845   -2.1872 H   0  0  0  0  0  0  0  0  0  0  0  0
   -0.6841    1.8257   -0.9205 C   0  0  0  0  0  0  0  0  0  0  0  0
   -1.5220    1.7994   -1.6254 H   0  0  0  0  0  0  0  0  0  0  0  0
   -1.3073    2.0100    0.4631 C   0  0  0  0  0  0  0  0  0  0  0  0
   -0.5299    2.1459    1.2202 H   0  0  0  0  0  0  0  0  0  0  0  0
   -1.9418    2.9017    0.4722 H   0  0  0  0  0  0  0  0  0  0  0  0
   -1.9350    1.1537    0.7227 H   0  0  0  0  0  0  0  0  0  0  0  0
    0.1646    3.0596   -1.2549 C   0  0  0  0  0  0  0  0  0  0  0  0
    0.5570    2.9882   -2.2743 H   0  0  0  0  0  0  0  0  0  0  0  0
   -0.4379    3.9705   -1.1839 H   0  0  0  0  0  0  0  0  0  0  0  0
    1.0081    3.1472   -0.5620 H   0  0  0  0  0  0  0  0  0  0  0  0
    0.5814   -0.5378    1.2280 C   0  0  0  0  0  0  0  0  0  0  0  0
    1.7909   -0.4935    1.4139 O   0  0  0  0  0  0  0  0  0  0  0  0
   -0.2503   -0.1863    2.2760 N   0  0  0  0  0  0  0  0  0  0  0  0
   -1.2465   -0.2869    2.1139 H   0  0  0  0  0  0  0  0  0  0  0  0
    0.2243    0.0096    3.6401 C   0  0  0  0  0  0  0  0  0  0  0  0
    0.9637    0.8167    3.6763 H   0  0  0  0  0  0  0  0  0  0  0  0
   -0.6093    0.2770    4.2963 H   0  0  0  0  0  0  0  0  0  0  0  0
    0.6853   -0.9085    4.0196 H   0  0  0  0  0  0  0  0  0  0  0  0
  1  2  1  0  0  0  0
  2  3  1  0  0  0  0
  2  4  1  0  0  0  0
  2  5  1  0  0  0  0
  5  6  2  0  0  0  0
  5  7  1  0  0  0  0
  7  8  1  0  0  0  0
  7  9  1  0  0  0  0
  9 10  1  0  0  0  0
  9 11  1  0  0  0  0
  9 24  1  0  0  0  0
 11 12  1  0  0  0  0
 11 13  1  0  0  0  0
 11 14  1  0  0  0  0
 14 15  1  0  0  0  0
 14 16  1  0  0  0  0
 14 20  1  0  0  0  0
 16 17  1  0  0  0  0
 16 18  1  0  0  0  0
 16 19  1  0  0  0  0
 20 21  1  0  0  0  0
 20 22  1  0  0  0  0
 20 23  1  0  0  0  0
 24 25  2  0  0  0  0
 24 26  1  0  0  0  0
 26 27  1  0  0  0  0
 26 28  1  0  0  0  0
 28 29  1  0  0  0  0
 28 30  1  0  0  0  0
 28 31  1  0  0  0  0
M  END
$$$$

  -OEChem-04042216013D

 31 30  0     1  0  0  0  0  0999 V2000
   -2.9681   -4.2979   -0.1284 H   0  0  0  0  0  0  0  0  0  0  0  0
   -2.9240   -3.2572   -0.4624 C   0  0  0  0  0  0  0  0  0  0  0  0
   -3.7192   -2.6952    0.0329 H   0  0  0  0  0  0  0  0  0  0  0  0
   -3.0840   -3.2290   -1.5429 H   0  0  0  0  0  0  0  0  0  0  0  0
   -1.5728   -2.6572   -0.1215 C   0  0  0  0  0  0  0  0  0  0  0  0
   -0.7375   -3.3327    0.4518 O   0  0  0  0  0  0  0  0  0  0  0  0
   -1.3040   -1.3420   -0.4459 N   0  0  0  0  0  0  0  0  0  0  0  0
   -2.0243   -0.8357   -0.9518 H   0  0  0  0  0  0  0  0  0  0  0  0
    0.0011   -0.6863   -0.2534 C   0  0  1  0  0  0  0  0  0  0  0  0
    0.7064   -1.3926   -0.7077 H   0  0  0  0  0  0  0  0  0  0  0  0
    0.1384    0.5523   -1.1731 C   0  0  0  0  0  0  0  0  0  0  0  0
    1.2093    0.7847   -1.1785 H   0  0  0  0  0  0  0  0  0  0  0  0
   -0.1185    0.2489   -2.1934 H   0  0  0  0  0  0  0  0  0  0  0  0
   -0.6141    1.8768   -0.8689 C   0  0  0  0  0  0  0  0  0  0  0  0
   -1.5907    1.8077   -1.3596 H   0  0  0  0  0  0  0  0  0  0  0  0
   -0.8944    2.2018    0.5975 C   0  0  0  0  0  0  0  0  0  0  0  0
    0.0308    2.1885    1.1817 H   0  0  0  0  0  0  0  0  0  0  0  0
   -1.6091    1.4882    1.0142 H   0  0  0  0  0  0  0  0  0  0  0  0
   -1.3380    3.1983    0.6873 H   0  0  0  0  0  0  0  0  0  0  0  0
    0.1482    3.0458   -1.5070 C   0  0  0  0  0  0  0  0  0  0  0  0
    0.3133    2.8584   -2.5728 H   0  0  0  0  0  0  0  0  0  0  0  0
   -0.4210    3.9754   -1.4086 H   0  0  0  0  0  0  0  0  0  0  0  0
    1.1207    3.1826   -1.0227 H   0  0  0  0  0  0  0  0  0  0  0  0
    0.5542   -0.6170    1.1930 C   0  0  0  0  0  0  0  0  0  0  0  0
    1.7671   -0.6363    1.3597 O   0  0  0  0  0  0  0  0  0  0  0  0
   -0.2425   -0.2608    2.2663 N   0  0  0  0  0  0  0  0  0  0  0  0
   -1.2448   -0.3077    2.1181 H   0  0  0  0  0  0  0  0  0  0  0  0
    0.2621   -0.1311    3.6275 C   0  0  0  0  0  0  0  0  0  0  0  0
    1.0063    0.6701    3.6853 H   0  0  0  0  0  0  0  0  0  0  0  0
   -0.5562    0.1082    4.3130 H   0  0  0  0  0  0  0  0  0  0  0  0
    0.7261   -1.0676    3.9545 H   0  0  0  0  0  0  0  0  0  0  0  0
  1  2  1  0  0  0  0
  2  3  1  0  0  0  0
  2  4  1  0  0  0  0
  2  5  1  0  0  0  0
  5  6  2  0  0  0  0
  5  7  1  0  0  0  0
  7  8  1  0  0  0  0
  7  9  1  0  0  0  0
  9 10  1  0  0  0  0
  9 11  1  0  0  0  0
  9 24  1  0  0  0  0
 11 12  1  0  0  0  0
 11 13  1  0  0  0  0
 11 14  1  0  0  0  0
 14 15  1  0  0  0  0
 14 16  1  0  0  0  0
 14 20  1  0  0  0  0
 16 17  1  0  0  0  0
 16 18  1  0  0  0  0
 16 19  1  0  0  0  0
 20 21  1  0  0  0  0
 20 22  1  0  0  0  0
 20 23  1  0  0  0  0
 24 25  2  0  0  0  0
 24 26  1  0  0  0  0
 26 27  1  0  0  0  0
 26 28  1  0  0  0  0
 28 29  1  0  0  0  0
 28 30  1  0  0  0  0
 28 31  1  0  0  0  0
M  END
$$$$

  -OEChem-04042216013D

 31 30  0     1  0  0  0  0  0999 V2000
   -2.7845   -4.3765    0.0037 H   0  0  0  0  0  0  0  0  0  0  0  0
   -2.7755   -3.3507   -0.3757 C   0  0  0  0  0  0  0  0  0  0  0  0
   -3.5909   -2.7952    0.0935 H   0  0  0  0  0  0  0  0  0  0  0  0
   -2.9331   -3.3749   -1.4565 H   0  0  0  0  0  0  0  0  0  0  0  0
   -1.4471   -2.6897   -0.0601 C   0  0  0  0  0  0  0  0  0  0  0  0
   -0.5827   -3.3143    0.5277 O   0  0  0  0  0  0  0  0  0  0  0  0
   -1.2335   -1.3751   -0.4254 N   0  0  0  0  0  0  0  0  0  0  0  0
   -1.9744   -0.9163   -0.9465 H   0  0  0  0  0  0  0  0  0  0  0  0
    0.0428   -0.6589   -0.2563 C   0  0  1  0  0  0  0  0  0  0  0  0
    0.7815   -1.3389   -0.6974 H   0  0  0  0  0  0  0  0  0  0  0  0
    0.1057    0.5674   -1.1994 C   0  0  0  0  0  0  0  0  0  0  0  0
    1.1612    0.8603   -1.2327 H   0  0  0  0  0  0  0  0  0  0  0  0
   -0.1592    0.2294   -2.2067 H   0  0  0  0  0  0  0  0  0  0  0  0
   -0.7097    1.8523   -0.8986 C   0  0  0  0  0  0  0  0  0  0  0  0
   -1.7573    1.6448   -1.1404 H   0  0  0  0  0  0  0  0  0  0  0  0
   -0.6770    2.3643    0.5433 C   0  0  0  0  0  0  0  0  0  0  0  0
    0.3364    2.3112    0.9539 H   0  0  0  0  0  0  0  0  0  0  0  0
   -1.3599    1.7835    1.1656 H   0  0  0  0  0  0  0  0  0  0  0  0
   -1.0090    3.4063    0.5899 H   0  0  0  0  0  0  0  0  0  0  0  0
   -0.2239    2.9655   -1.8373 C   0  0  0  0  0  0  0  0  0  0  0  0
   -0.2620    2.6324   -2.8792 H   0  0  0  0  0  0  0  0  0  0  0  0
   -0.8578    3.8525   -1.7414 H   0  0  0  0  0  0  0  0  0  0  0  0
    0.8067    3.2486   -1.5996 H   0  0  0  0  0  0  0  0  0  0  0  0
    0.5819   -0.5285    1.1895 C   0  0  0  0  0  0  0  0  0  0  0  0
    1.7928   -0.4920    1.3673 O   0  0  0  0  0  0  0  0  0  0  0  0
   -0.2434   -0.1768    2.2419 N   0  0  0  0  0  0  0  0  0  0  0  0
   -1.2403   -0.2783    2.0835 H   0  0  0  0  0  0  0  0  0  0  0  0
    0.2371    0.0013    3.6063 C   0  0  0  0  0  0  0  0  0  0  0  0
    0.9801    0.8046    3.6495 H   0  0  0  0  0  0  0  0  0  0  0  0
   -0.5934    0.2648    4.2679 H   0  0  0  0  0  0  0  0  0  0  0  0
    0.6949   -0.9231    3.9738 H   0  0  0  0  0  0  0  0  0  0  0  0
  1  2  1  0  0  0  0
  2  3  1  0  0  0  0
  2  4  1  0  0  0  0
  2  5  1  0  0  0  0
  5  6  2  0  0  0  0
  5  7  1  0  0  0  0
  7  8  1  0  0  0  0
  7  9  1  0  0  0  0
  9 10  1  0  0  0  0
  9 11  1  0  0  0  0
  9 24  1  0  0  0  0
 11 12  1  0  0  0  0
 11 13  1  0  0  0  0
 11 14  1  0  0  0  0
 14 15  1  0  0  0  0
 14 16  1  0  0  0  0
 14 20  1  0  0  0  0
 16 17  1  0  0  0  0
 16 18  1  0  0  0  0
 16 19  1  0  0  0  0
 20 21  1  0  0  0  0
 20 22  1  0  0  0  0
 20 23  1  0  0  0  0
 24 25  2  0  0  0  0
 24 26  1  0  0  0  0
 26 27  1  0  0  0  0
 26 28  1  0  0  0  0
 28 29  1  0  0  0  0
 28 30  1  0  0  0  0
 28 31  1  0  0  0  0
M  END
$$$$

  -OEChem-04042216013D

 31 30  0     1  0  0  0  0  0999 V2000
   -2.8314   -4.3363    0.0003 H   0  0  0  0  0  0  0  0  0  0  0  0
   -2.8124   -3.3121   -0.3832 C   0  0  0  0  0  0  0  0  0  0  0  0
   -3.6191   -2.7455    0.0877 H   0  0  0  0  0  0  0  0  0  0  0  0
   -2.9751   -3.3390   -1.4633 H   0  0  0  0  0  0  0  0  0  0  0  0
   -1.4747   -2.6655   -0.0771 C   0  0  0  0  0  0  0  0  0  0  0  0
   -0.6163   -3.2980    0.5110 O   0  0  0  0  0  0  0  0  0  0  0  0
   -1.2428   -1.3586   -0.4592 N   0  0  0  0  0  0  0  0  0  0  0  0
   -1.9764   -0.8974   -0.9885 H   0  0  0  0  0  0  0  0  0  0  0  0
    0.0469   -0.6616   -0.3085 C   0  0  1  0  0  0  0  0  0  0  0  0
    0.7782   -1.3398   -0.7641 H   0  0  0  0  0  0  0  0  0  0  0  0
    0.0895    0.5836   -1.2256 C   0  0  0  0  0  0  0  0  0  0  0  0
    1.1421    0.8771   -1.3066 H   0  0  0  0  0  0  0  0  0  0  0  0
   -0.2259    0.2648   -2.2246 H   0  0  0  0  0  0  0  0  0  0  0  0
   -0.7129    1.8536   -0.8470 C   0  0  0  0  0  0  0  0  0  0  0  0
   -1.7758    1.5943   -0.8063 H   0  0  0  0  0  0  0  0  0  0  0  0
   -0.3315    2.4938    0.4953 C   0  0  0  0  0  0  0  0  0  0  0  0
    0.7337    2.3546    0.7060 H   0  0  0  0  0  0  0  0  0  0  0  0
   -0.5384    3.5686    0.4875 H   0  0  0  0  0  0  0  0  0  0  0  0
   -0.9218    2.0652    1.3061 H   0  0  0  0  0  0  0  0  0  0  0  0
   -0.5239    2.8889   -1.9651 C   0  0  0  0  0  0  0  0  0  0  0  0
   -0.8208    2.4701   -2.9318 H   0  0  0  0  0  0  0  0  0  0  0  0
   -1.1396    3.7741   -1.7774 H   0  0  0  0  0  0  0  0  0  0  0  0
    0.5235    3.2013   -2.0283 H   0  0  0  0  0  0  0  0  0  0  0  0
    0.5804   -0.5352    1.1381 C   0  0  0  0  0  0  0  0  0  0  0  0
    1.7901   -0.5193    1.3267 O   0  0  0  0  0  0  0  0  0  0  0  0
   -0.2522   -0.1632    2.1776 N   0  0  0  0  0  0  0  0  0  0  0  0
   -1.2482   -0.2492    2.0066 H   0  0  0  0  0  0  0  0  0  0  0  0
    0.2139    0.0146    3.5469 C   0  0  0  0  0  0  0  0  0  0  0  0
    0.9858    0.7901    3.5914 H   0  0  0  0  0  0  0  0  0  0  0  0
   -0.6159    0.3180    4.1920 H   0  0  0  0  0  0  0  0  0  0  0  0
    0.6311   -0.9214    3.9328 H   0  0  0  0  0  0  0  0  0  0  0  0
  1  2  1  0  0  0  0
  2  3  1  0  0  0  0
  2  4  1  0  0  0  0
  2  5  1  0  0  0  0
  5  6  2  0  0  0  0
  5  7  1  0  0  0  0
  7  8  1  0  0  0  0
  7  9  1  0  0  0  0
  9 10  1  0  0  0  0
  9 11  1  0  0  0  0
  9 24  1  0  0  0  0
 11 12  1  0  0  0  0
 11 13  1  0  0  0  0
 11 14  1  0  0  0  0
 14 15  1  0  0  0  0
 14 16  1  0  0  0  0
 14 20  1  0  0  0  0
 16 17  1  0  0  0  0
 16 18  1  0  0  0  0
 16 19  1  0  0  0  0
 20 21  1  0  0  0  0
 20 22  1  0  0  0  0
 20 23  1  0  0  0  0
 24 25  2  0  0  0  0
 24 26  1  0  0  0  0
 26 27  1  0  0  0  0
 26 28  1  0  0  0  0
 28 29  1  0  0  0  0
 28 30  1  0  0  0  0
 28 31  1  0  0  0  0
M  END
$$$$

  -OEChem-04042216013D

 31 30  0     1  0  0  0  0  0999 V2000
   -2.8273   -4.3227    0.0641 H   0  0  0  0  0  0  0  0  0  0  0  0
   -2.8043   -3.3082   -0.3444 C   0  0  0  0  0  0  0  0  0  0  0  0
   -3.6104   -2.7281    0.1111 H   0  0  0  0  0  0  0  0  0  0  0  0
   -2.9655   -3.3610   -1.4238 H   0  0  0  0  0  0  0  0  0  0  0  0
   -1.4646   -2.6586   -0.0515 C   0  0  0  0  0  0  0  0  0  0  0  0
   -0.6108   -3.2799    0.5548 O   0  0  0  0  0  0  0  0  0  0  0  0
   -1.2239   -1.3642   -0.4706 N   0  0  0  0  0  0  0  0  0  0  0  0
   -1.9541   -0.9149   -1.0147 H   0  0  0  0  0  0  0  0  0  0  0  0
    0.0697   -0.6684   -0.3350 C   0  0  1  0  0  0  0  0  0  0  0  0
    0.8076   -1.3455   -0.7808 H   0  0  0  0  0  0  0  0  0  0  0  0
    0.0922    0.5779   -1.2508 C   0  0  0  0  0  0  0  0  0  0  0  0
    1.1389    0.8783   -1.3704 H   0  0  0  0  0  0  0  0  0  0  0  0
   -0.2536    0.2539   -2.2379 H   0  0  0  0  0  0  0  0  0  0  0  0
   -0.7132    1.8340   -0.8351 C   0  0  0  0  0  0  0  0  0  0  0  0
   -1.7148    1.5266   -0.5174 H   0  0  0  0  0  0  0  0  0  0  0  0
   -0.0673    2.6472    0.2996 C   0  0  0  0  0  0  0  0  0  0  0  0
    1.0078    2.7614    0.1282 H   0  0  0  0  0  0  0  0  0  0  0  0
   -0.5129    3.6455    0.3540 H   0  0  0  0  0  0  0  0  0  0  0  0
   -0.2172    2.1820    1.2708 H   0  0  0  0  0  0  0  0  0  0  0  0
   -0.8612    2.7481   -2.0598 C   0  0  0  0  0  0  0  0  0  0  0  0
   -1.3583    2.2184   -2.8783 H   0  0  0  0  0  0  0  0  0  0  0  0
   -1.4637    3.6277   -1.8119 H   0  0  0  0  0  0  0  0  0  0  0  0
    0.1198    3.0863   -2.4090 H   0  0  0  0  0  0  0  0  0  0  0  0
    0.5738   -0.5158    1.1182 C   0  0  0  0  0  0  0  0  0  0  0  0
    1.7782   -0.5094    1.3374 O   0  0  0  0  0  0  0  0  0  0  0  0
   -0.2862   -0.1169    2.1259 N   0  0  0  0  0  0  0  0  0  0  0  0
   -1.2776   -0.1929    1.9258 H   0  0  0  0  0  0  0  0  0  0  0  0
    0.1417    0.0664    3.5070 C   0  0  0  0  0  0  0  0  0  0  0  0
    0.9223    0.8319    3.5684 H   0  0  0  0  0  0  0  0  0  0  0  0
   -0.7024    0.3860    4.1252 H   0  0  0  0  0  0  0  0  0  0  0  0
    0.5352   -0.8716    3.9126 H   0  0  0  0  0  0  0  0  0  0  0  0
  1  2  1  0  0  0  0
  2  3  1  0  0  0  0
  2  4  1  0  0  0  0
  2  5  1  0  0  0  0
  5  6  2  0  0  0  0
  5  7  1  0  0  0  0
  7  8  1  0  0  0  0
  7  9  1  0  0  0  0
  9 10  1  0  0  0  0
  9 11  1  0  0  0  0
  9 24  1  0  0  0  0
 11 12  1  0  0  0  0
 11 13  1  0  0  0  0
 11 14  1  0  0  0  0
 14 15  1  0  0  0  0
 14 16  1  0  0  0  0
 14 20  1  0  0  0  0
 16 17  1  0  0  0  0
 16 18  1  0  0  0  0
 16 19  1  0  0  0  0
 20 21  1  0  0  0  0
 20 22  1  0  0  0  0
 20 23  1  0  0  0  0
 24 25  2  0  0  0  0
 24 26  1  0  0  0  0
 26 27  1  0  0  0  0
 26 28  1  0  0  0  0
 28 29  1  0  0  0  0
 28 30  1  0  0  0  0
 28 31  1  0  0  0  0
M  END
$$$$

  -OEChem-04042216013D

 31 30  0     1  0  0  0  0  0999 V2000
   -2.8552   -4.2812    0.1351 H   0  0  0  0  0  0  0  0  0  0  0  0
   -2.8040   -3.2872   -0.3186 C   0  0  0  0  0  0  0  0  0  0  0  0
   -3.5968   -2.6665    0.1055 H   0  0  0  0  0  0  0  0  0  0  0  0
   -2.9611   -3.3846   -1.3956 H   0  0  0  0  0  0  0  0  0  0  0  0
   -1.4503   -2.6584   -0.0466 C   0  0  0  0  0  0  0  0  0  0  0  0
   -0.6194   -3.2655    0.6040 O   0  0  0  0  0  0  0  0  0  0  0  0
   -1.1754   -1.3934   -0.5278 N   0  0  0  0  0  0  0  0  0  0  0  0
   -1.8869   -0.9571   -1.1061 H   0  0  0  0  0  0  0  0  0  0  0  0
    0.1235   -0.7086   -0.3870 C   0  0  1  0  0  0  0  0  0  0  0  0
    0.8760   -1.3857   -0.8075 H   0  0  0  0  0  0  0  0  0  0  0  0
    0.1303    0.5454   -1.2904 C   0  0  0  0  0  0  0  0  0  0  0  0
    1.1695    0.8659   -1.4240 H   0  0  0  0  0  0  0  0  0  0  0  0
   -0.2310    0.2419   -2.2785 H   0  0  0  0  0  0  0  0  0  0  0  0
   -0.6966    1.7541   -0.7886 C   0  0  0  0  0  0  0  0  0  0  0  0
   -1.5501    1.3905   -0.2075 H   0  0  0  0  0  0  0  0  0  0  0  0
    0.1342    2.7044    0.0908 C   0  0  0  0  0  0  0  0  0  0  0  0
    0.9516    3.1445   -0.4893 H   0  0  0  0  0  0  0  0  0  0  0  0
   -0.4959    3.5154    0.4687 H   0  0  0  0  0  0  0  0  0  0  0  0
    0.5711    2.1917    0.9485 H   0  0  0  0  0  0  0  0  0  0  0  0
   -1.2379    2.5472   -1.9846 C   0  0  0  0  0  0  0  0  0  0  0  0
   -1.8873    1.9168   -2.6001 H   0  0  0  0  0  0  0  0  0  0  0  0
   -1.8236    3.4055   -1.6402 H   0  0  0  0  0  0  0  0  0  0  0  0
   -0.4162    2.9147   -2.6080 H   0  0  0  0  0  0  0  0  0  0  0  0
    0.5751   -0.4852    1.0743 C   0  0  0  0  0  0  0  0  0  0  0  0
    1.7693   -0.4864    1.3431 O   0  0  0  0  0  0  0  0  0  0  0  0
   -0.3226   -0.0183    2.0191 N   0  0  0  0  0  0  0  0  0  0  0  0
   -1.3054   -0.1031    1.7832 H   0  0  0  0  0  0  0  0  0  0  0  0
    0.0476    0.2365    3.4054 C   0  0  0  0  0  0  0  0  0  0  0  0
    0.8403    0.9902    3.4591 H   0  0  0  0  0  0  0  0  0  0  0  0
   -0.8165    0.6061    3.9655 H   0  0  0  0  0  0  0  0  0  0  0  0
    0.4031   -0.6838    3.8808 H   0  0  0  0  0  0  0  0  0  0  0  0
  1  2  1  0  0  0  0
  2  3  1  0  0  0  0
  2  4  1  0  0  0  0
  2  5  1  0  0  0  0
  5  6  2  0  0  0  0
  5  7  1  0  0  0  0
  7  8  1  0  0  0  0
  7  9  1  0  0  0  0
  9 10  1  0  0  0  0
  9 11  1  0  0  0  0
  9 24  1  0  0  0  0
 11 12  1  0  0  0  0
 11 13  1  0  0  0  0
 11 14  1  0  0  0  0
 14 15  1  0  0  0  0
 14 16  1  0  0  0  0
 14 20  1  0  0  0  0
 16 17  1  0  0  0  0
 16 18  1  0  0  0  0
 16 19  1  0  0  0  0
 20 21  1  0  0  0  0
 20 22  1  0  0  0  0
 20 23  1  0  0  0  0
 24 25  2  0  0  0  0
 24 26  1  0  0  0  0
 26 27  1  0  0  0  0
 26 28  1  0  0  0  0
 28 29  1  0  0  0  0
 28 30  1  0  0  0  0
 28 31  1  0  0  0  0
M  END
$$$$

  -OEChem-04042216013D

 31 30  0     1  0  0  0  0  0999 V2000
   -2.8489   -4.3138    0.0923 H   0  0  0  0  0  0  0  0  0  0  0  0
   -2.8052   -3.3176   -0.3575 C   0  0  0  0  0  0  0  0  0  0  0  0
   -3.6229   -2.7145    0.0443 H   0  0  0  0  0  0  0  0  0  0  0  0
   -2.9291   -3.4152   -1.4387 H   0  0  0  0  0  0  0  0  0  0  0  0
   -1.4731   -2.6623   -0.0441 C   0  0  0  0  0  0  0  0  0  0  0  0
   -0.6620   -3.2417    0.6552 O   0  0  0  0  0  0  0  0  0  0  0  0
   -1.1948   -1.4049   -0.5424 N   0  0  0  0  0  0  0  0  0  0  0  0
   -1.8841   -0.9943   -1.1648 H   0  0  0  0  0  0  0  0  0  0  0  0
    0.1011   -0.7189   -0.3921 C   0  0  1  0  0  0  0  0  0  0  0  0
    0.8544   -1.4018   -0.8015 H   0  0  0  0  0  0  0  0  0  0  0  0
    0.1250    0.5331   -1.2919 C   0  0  0  0  0  0  0  0  0  0  0  0
    1.1666    0.8528   -1.4101 H   0  0  0  0  0  0  0  0  0  0  0  0
   -0.2232    0.2413   -2.2881 H   0  0  0  0  0  0  0  0  0  0  0  0
   -0.7180    1.7197   -0.7627 C   0  0  0  0  0  0  0  0  0  0  0  0
   -1.4141    1.3767    0.0079 H   0  0  0  0  0  0  0  0  0  0  0  0
    0.1864    2.8137   -0.1787 C   0  0  0  0  0  0  0  0  0  0  0  0
    0.8580    3.2126   -0.9458 H   0  0  0  0  0  0  0  0  0  0  0  0
   -0.4172    3.6370    0.2158 H   0  0  0  0  0  0  0  0  0  0  0  0
    0.7945    2.4141    0.6387 H   0  0  0  0  0  0  0  0  0  0  0  0
   -1.5477    2.3261   -1.9013 C   0  0  0  0  0  0  0  0  0  0  0  0
   -2.2356    1.5806   -2.3124 H   0  0  0  0  0  0  0  0  0  0  0  0
   -2.1392    3.1710   -1.5345 H   0  0  0  0  0  0  0  0  0  0  0  0
   -0.8970    2.6819   -2.7068 H   0  0  0  0  0  0  0  0  0  0  0  0
    0.5644   -0.4551    1.0609 C   0  0  0  0  0  0  0  0  0  0  0  0
    1.7622   -0.4485    1.3138 O   0  0  0  0  0  0  0  0  0  0  0  0
   -0.3161    0.0385    2.0077 N   0  0  0  0  0  0  0  0  0  0  0  0
   -1.3031   -0.0541    1.7930 H   0  0  0  0  0  0  0  0  0  0  0  0
    0.0790    0.3369    3.3783 C   0  0  0  0  0  0  0  0  0  0  0  0
    0.8620    1.1023    3.3940 H   0  0  0  0  0  0  0  0  0  0  0  0
   -0.7785    0.7100    3.9462 H   0  0  0  0  0  0  0  0  0  0  0  0
    0.4574   -0.5647    3.8715 H   0  0  0  0  0  0  0  0  0  0  0  0
  1  2  1  0  0  0  0
  2  3  1  0  0  0  0
  2  4  1  0  0  0  0
  2  5  1  0  0  0  0
  5  6  2  0  0  0  0
  5  7  1  0  0  0  0
  7  8  1  0  0  0  0
  7  9  1  0  0  0  0
  9 10  1  0  0  0  0
  9 11  1  0  0  0  0
  9 24  1  0  0  0  0
 11 12  1  0  0  0  0
 11 13  1  0  0  0  0
 11 14  1  0  0  0  0
 14 15  1  0  0  0  0
 14 16  1  0  0  0  0
 14 20  1  0  0  0  0
 16 17  1  0  0  0  0
 16 18  1  0  0  0  0
 16 19  1  0  0  0  0
 20 21  1  0  0  0  0
 20 22  1  0  0  0  0
 20 23  1  0  0  0  0
 24 25  2  0  0  0  0
 24 26  1  0  0  0  0
 26 27  1  0  0  0  0
 26 28  1  0  0  0  0
 28 29  1  0  0  0  0
 28 30  1  0  0  0  0
 28 31  1  0  0  0  0
M  END
$$$$

  -OEChem-04042216013D

 31 30  0     1  0  0  0  0  0999 V2000
   -2.8428   -4.3239    0.0728 H   0  0  0  0  0  0  0  0  0  0  0  0
   -2.8059   -3.3230   -0.3670 C   0  0  0  0  0  0  0  0  0  0  0  0
   -3.6285   -2.7297    0.0395 H   0  0  0  0  0  0  0  0  0  0  0  0
   -2.9276   -3.4113   -1.4493 H   0  0  0  0  0  0  0  0  0  0  0  0
   -1.4788   -2.6612   -0.0456 C   0  0  0  0  0  0  0  0  0  0  0  0
   -0.6635   -3.2421    0.6476 O   0  0  0  0  0  0  0  0  0  0  0  0
   -1.2084   -1.3965   -0.5293 N   0  0  0  0  0  0  0  0  0  0  0  0
   -1.9008   -0.9824   -1.1460 H   0  0  0  0  0  0  0  0  0  0  0  0
    0.0836   -0.7054   -0.3733 C   0  0  1  0  0  0  0  0  0  0  0  0
    0.8360   -1.3889   -0.7836 H   0  0  0  0  0  0  0  0  0  0  0  0
    0.1168    0.5405   -1.2798 C   0  0  0  0  0  0  0  0  0  0  0  0
    1.1632    0.8532   -1.3675 H   0  0  0  0  0  0  0  0  0  0  0  0
   -0.2002    0.2501   -2.2870 H   0  0  0  0  0  0  0  0  0  0  0  0
   -0.7305    1.7365   -0.7755 C   0  0  0  0  0  0  0  0  0  0  0  0
   -1.2295    1.4879    0.1634 H   0  0  0  0  0  0  0  0  0  0  0  0
    0.1556    2.9661   -0.5438 C   0  0  0  0  0  0  0  0  0  0  0  0
    0.6538    3.2666   -1.4712 H   0  0  0  0  0  0  0  0  0  0  0  0
   -0.4443    3.8073   -0.1828 H   0  0  0  0  0  0  0  0  0  0  0  0
    0.9208    2.7444    0.2073 H   0  0  0  0  0  0  0  0  0  0  0  0
   -1.8202    2.0828   -1.7975 C   0  0  0  0  0  0  0  0  0  0  0  0
   -2.4776    1.2233   -1.9595 H   0  0  0  0  0  0  0  0  0  0  0  0
   -2.4298    2.9171   -1.4365 H   0  0  0  0  0  0  0  0  0  0  0  0
   -1.3755    2.3682   -2.7565 H   0  0  0  0  0  0  0  0  0  0  0  0
    0.5590   -0.4509    1.0783 C   0  0  0  0  0  0  0  0  0  0  0  0
    1.7597   -0.4361    1.3167 O   0  0  0  0  0  0  0  0  0  0  0  0
   -0.3109    0.0295    2.0414 N   0  0  0  0  0  0  0  0  0  0  0  0
   -1.3001   -0.0740    1.8414 H   0  0  0  0  0  0  0  0  0  0  0  0
    0.1011    0.3139    3.4102 C   0  0  0  0  0  0  0  0  0  0  0  0
    0.8788    1.0847    3.4245 H   0  0  0  0  0  0  0  0  0  0  0  0
   -0.7508    0.6741    3.9945 H   0  0  0  0  0  0  0  0  0  0  0  0
    0.4924   -0.5911    3.8871 H   0  0  0  0  0  0  0  0  0  0  0  0
  1  2  1  0  0  0  0
  2  3  1  0  0  0  0
  2  4  1  0  0  0  0
  2  5  1  0  0  0  0
  5  6  2  0  0  0  0
  5  7  1  0  0  0  0
  7  8  1  0  0  0  0
  7  9  1  0  0  0  0
  9 10  1  0  0  0  0
  9 11  1  0  0  0  0
  9 24  1  0  0  0  0
 11 12  1  0  0  0  0
 11 13  1  0  0  0  0
 11 14  1  0  0  0  0
 14 15  1  0  0  0  0
 14 16  1  0  0  0  0
 14 20  1  0  0  0  0
 16 17  1  0  0  0  0
 16 18  1  0  0  0  0
 16 19  1  0  0  0  0
 20 21  1  0  0  0  0
 20 22  1  0  0  0  0
 20 23  1  0  0  0  0
 24 25  2  0  0  0  0
 24 26  1  0  0  0  0
 26 27  1  0  0  0  0
 26 28  1  0  0  0  0
 28 29  1  0  0  0  0
 28 30  1  0  0  0  0
 28 31  1  0  0  0  0
M  END
$$$$

  -OEChem-04042216013D

 31 30  0     1  0  0  0  0  0999 V2000
   -2.8248   -4.3326    0.0763 H   0  0  0  0  0  0  0  0  0  0  0  0
   -2.7932   -3.3303   -0.3604 C   0  0  0  0  0  0  0  0  0  0  0  0
   -3.6164   -2.7412    0.0507 H   0  0  0  0  0  0  0  0  0  0  0  0
   -2.9181   -3.4153   -1.4425 H   0  0  0  0  0  0  0  0  0  0  0  0
   -1.4678   -2.6647   -0.0414 C   0  0  0  0  0  0  0  0  0  0  0  0
   -0.6449   -3.2471    0.6413 O   0  0  0  0  0  0  0  0  0  0  0  0
   -1.2090   -1.3941   -0.5157 N   0  0  0  0  0  0  0  0  0  0  0  0
   -1.9084   -0.9799   -1.1242 H   0  0  0  0  0  0  0  0  0  0  0  0
    0.0785   -0.6943   -0.3631 C   0  0  1  0  0  0  0  0  0  0  0  0
    0.8327   -1.3734   -0.7772 H   0  0  0  0  0  0  0  0  0  0  0  0
    0.1071    0.5520   -1.2723 C   0  0  0  0  0  0  0  0  0  0  0  0
    1.1557    0.8634   -1.3370 H   0  0  0  0  0  0  0  0  0  0  0  0
   -0.1911    0.2667   -2.2865 H   0  0  0  0  0  0  0  0  0  0  0  0
   -0.7378    1.7582   -0.7895 C   0  0  0  0  0  0  0  0  0  0  0  0
   -0.9967    1.6501    0.2646 H   0  0  0  0  0  0  0  0  0  0  0  0
    0.0595    3.0600   -0.9295 C   0  0  0  0  0  0  0  0  0  0  0  0
    0.3500    3.2253   -1.9721 H   0  0  0  0  0  0  0  0  0  0  0  0
   -0.5399    3.9127   -0.5958 H   0  0  0  0  0  0  0  0  0  0  0  0
    0.9656    3.0192   -0.3166 H   0  0  0  0  0  0  0  0  0  0  0  0
   -2.0440    1.8577   -1.5863 C   0  0  0  0  0  0  0  0  0  0  0  0
   -2.6346    0.9446   -1.4695 H   0  0  0  0  0  0  0  0  0  0  0  0
   -2.6431    2.7008   -1.2283 H   0  0  0  0  0  0  0  0  0  0  0  0
   -1.8378    2.0073   -2.6510 H   0  0  0  0  0  0  0  0  0  0  0  0
    0.5552   -0.4521    1.0898 C   0  0  0  0  0  0  0  0  0  0  0  0
    1.7561   -0.4312    1.3265 O   0  0  0  0  0  0  0  0  0  0  0  0
   -0.3172    0.0107    2.0595 N   0  0  0  0  0  0  0  0  0  0  0  0
   -1.3057   -0.0973    1.8587 H   0  0  0  0  0  0  0  0  0  0  0  0
    0.0941    0.2784    3.4320 C   0  0  0  0  0  0  0  0  0  0  0  0
    0.8679    1.0529    3.4566 H   0  0  0  0  0  0  0  0  0  0  0  0
   -0.7592    0.6258    4.0221 H   0  0  0  0  0  0  0  0  0  0  0  0
    0.4905   -0.6310    3.8959 H   0  0  0  0  0  0  0  0  0  0  0  0
  1  2  1  0  0  0  0
  2  3  1  0  0  0  0
  2  4  1  0  0  0  0
  2  5  1  0  0  0  0
  5  6  2  0  0  0  0
  5  7  1  0  0  0  0
  7  8  1  0  0  0  0
  7  9  1  0  0  0  0
  9 10  1  0  0  0  0
  9 11  1  0  0  0  0
  9 24  1  0  0  0  0
 11 12  1  0  0  0  0
 11 13  1  0  0  0  0
 11 14  1  0  0  0  0
 14 15  1  0  0  0  0
 14 16  1  0  0  0  0
 14 20  1  0  0  0  0
 16 17  1  0  0  0  0
 16 18  1  0  0  0  0
 16 19  1  0  0  0  0
 20 21  1  0  0  0  0
 20 22  1  0  0  0  0
 20 23  1  0  0  0  0
 24 25  2  0  0  0  0
 24 26  1  0  0  0  0
 26 27  1  0  0  0  0
 26 28  1  0  0  0  0
 28 29  1  0  0  0  0
 28 30  1  0  0  0  0
 28 31  1  0  0  0  0
M  END
$$$$

  -OEChem-04042216013D

 31 30  0     1  0  0  0  0  0999 V2000
   -2.7933   -4.3511    0.1097 H   0  0  0  0  0  0  0  0  0  0  0  0
   -2.7693   -3.3527   -0.3364 C   0  0  0  0  0  0  0  0  0  0  0  0
   -3.5878   -2.7618    0.0812 H   0  0  0  0  0  0  0  0  0  0  0  0
   -2.9095   -3.4475   -1.4157 H   0  0  0  0  0  0  0  0  0  0  0  0
   -1.4409   -2.6816   -0.0423 C   0  0  0  0  0  0  0  0  0  0  0  0
   -0.6044   -3.2598    0.6273 O   0  0  0  0  0  0  0  0  0  0  0  0
   -1.1963   -1.4095   -0.5203 N   0  0  0  0  0  0  0  0  0  0  0  0
   -1.9046   -1.0007   -1.1220 H   0  0  0  0  0  0  0  0  0  0  0  0
    0.0851   -0.6969   -0.3768 C   0  0  1  0  0  0  0  0  0  0  0  0
    0.8460   -1.3648   -0.7968 H   0  0  0  0  0  0  0  0  0  0  0  0
    0.0973    0.5626   -1.2713 C   0  0  0  0  0  0  0  0  0  0  0  0
    1.1443    0.8794   -1.3330 H   0  0  0  0  0  0  0  0  0  0  0  0
   -0.2064    0.2909   -2.2873 H   0  0  0  0  0  0  0  0  0  0  0  0
   -0.7430    1.7683   -0.7818 C   0  0  0  0  0  0  0  0  0  0  0  0
   -0.7488    1.8104    0.3088 H   0  0  0  0  0  0  0  0  0  0  0  0
   -0.1038    3.0752   -1.2665 C   0  0  0  0  0  0  0  0  0  0  0  0
   -0.0446    3.0932   -2.3595 H   0  0  0  0  0  0  0  0  0  0  0  0
   -0.6934    3.9361   -0.9359 H   0  0  0  0  0  0  0  0  0  0  0  0
    0.9074    3.1804   -0.8605 H   0  0  0  0  0  0  0  0  0  0  0  0
   -2.1939    1.6817   -1.2718 C   0  0  0  0  0  0  0  0  0  0  0  0
   -2.6903    0.7992   -0.8606 H   0  0  0  0  0  0  0  0  0  0  0  0
   -2.7553    2.5642   -0.9494 H   0  0  0  0  0  0  0  0  0  0  0  0
   -2.2309    1.6289   -2.3645 H   0  0  0  0  0  0  0  0  0  0  0  0
    0.5529   -0.4553    1.0784 C   0  0  0  0  0  0  0  0  0  0  0  0
    1.7518   -0.4261    1.3237 O   0  0  0  0  0  0  0  0  0  0  0  0
   -0.3328   -0.0042    2.0415 N   0  0  0  0  0  0  0  0  0  0  0  0
   -1.3186   -0.1152    1.8290 H   0  0  0  0  0  0  0  0  0  0  0  0
    0.0628    0.2610    3.4188 C   0  0  0  0  0  0  0  0  0  0  0  0
    0.8356    1.0362    3.4537 H   0  0  0  0  0  0  0  0  0  0  0  0
   -0.7976    0.6067    3.9995 H   0  0  0  0  0  0  0  0  0  0  0  0
    0.4548   -0.6491    3.8851 H   0  0  0  0  0  0  0  0  0  0  0  0
  1  2  1  0  0  0  0
  2  3  1  0  0  0  0
  2  4  1  0  0  0  0
  2  5  1  0  0  0  0
  5  6  2  0  0  0  0
  5  7  1  0  0  0  0
  7  8  1  0  0  0  0
  7  9  1  0  0  0  0
  9 10  1  0  0  0  0
  9 11  1  0  0  0  0
  9 24  1  0  0  0  0
 11 12  1  0  0  0  0
 11 13  1  0  0  0  0
 11 14  1  0  0  0  0
 14 15  1  0  0  0  0
 14 16  1  0  0  0  0
 14 20  1  0  0  0  0
 16 17  1  0  0  0  0
 16 18  1  0  0  0  0
 16 19  1  0  0  0  0
 20 21  1  0  0  0  0
 20 22  1  0  0  0  0
 20 23  1  0  0  0  0
 24 25  2  0  0  0  0
 24 26  1  0  0  0  0
 26 27  1  0  0  0  0
 26 28  1  0  0  0  0
 28 29  1  0  0  0  0
 28 30  1  0  0  0  0
 28 31  1  0  0  0  0
M  END
$$$$

  -OEChem-04042216013D

 31 30  0     1  0  0  0  0  0999 V2000
   -2.7706   -4.3695    0.1286 H   0  0  0  0  0  0  0  0  0  0  0  0
   -2.7514   -3.3738   -0.3237 C   0  0  0  0  0  0  0  0  0  0  0  0
   -3.5649   -2.7798    0.0993 H   0  0  0  0  0  0  0  0  0  0  0  0
   -2.9032   -3.4748   -1.4010 H   0  0  0  0  0  0  0  0  0  0  0  0
   -1.4197   -2.7017   -0.0476 C   0  0  0  0  0  0  0  0  0  0  0  0
   -0.5757   -3.2774    0.6146 O   0  0  0  0  0  0  0  0  0  0  0  0
   -1.1807   -1.4322   -0.5355 N   0  0  0  0  0  0  0  0  0  0  0  0
   -1.8992   -1.0227   -1.1249 H   0  0  0  0  0  0  0  0  0  0  0  0
    0.0974   -0.7116   -0.3986 C   0  0  1  0  0  0  0  0  0  0  0  0
    0.8644   -1.3683   -0.8248 H   0  0  0  0  0  0  0  0  0  0  0  0
    0.0928    0.5643   -1.2705 C   0  0  0  0  0  0  0  0  0  0  0  0
    1.1358    0.8906   -1.3482 H   0  0  0  0  0  0  0  0  0  0  0  0
   -0.2336    0.3043   -2.2826 H   0  0  0  0  0  0  0  0  0  0  0  0
   -0.7421    1.7628   -0.7566 C   0  0  0  0  0  0  0  0  0  0  0  0
   -0.5131    1.9500    0.2962 H   0  0  0  0  0  0  0  0  0  0  0  0
   -0.3346    3.0231   -1.5294 C   0  0  0  0  0  0  0  0  0  0  0  0
   -0.5255    2.8985   -2.6001 H   0  0  0  0  0  0  0  0  0  0  0  0
   -0.9005    3.8898   -1.1737 H   0  0  0  0  0  0  0  0  0  0  0  0
    0.7304    3.2325   -1.3875 H   0  0  0  0  0  0  0  0  0  0  0  0
   -2.2535    1.5377   -0.8981 C   0  0  0  0  0  0  0  0  0  0  0  0
   -2.5941    0.7491   -0.2225 H   0  0  0  0  0  0  0  0  0  0  0  0
   -2.7978    2.4518   -0.6409 H   0  0  0  0  0  0  0  0  0  0  0  0
   -2.5092    1.2603   -1.9255 H   0  0  0  0  0  0  0  0  0  0  0  0
    0.5555   -0.4612    1.0573 C   0  0  0  0  0  0  0  0  0  0  0  0
    1.7520   -0.4265    1.3130 O   0  0  0  0  0  0  0  0  0  0  0  0
   -0.3425   -0.0096    2.0088 N   0  0  0  0  0  0  0  0  0  0  0  0
   -1.3255   -0.1189    1.7841 H   0  0  0  0  0  0  0  0  0  0  0  0
    0.0366    0.2668    3.3884 C   0  0  0  0  0  0  0  0  0  0  0  0
    0.8067    1.0445    3.4266 H   0  0  0  0  0  0  0  0  0  0  0  0
   -0.8314    0.6143    3.9566 H   0  0  0  0  0  0  0  0  0  0  0  0
    0.4255   -0.6387    3.8660 H   0  0  0  0  0  0  0  0  0  0  0  0
  1  2  1  0  0  0  0
  2  3  1  0  0  0  0
  2  4  1  0  0  0  0
  2  5  1  0  0  0  0
  5  6  2  0  0  0  0
  5  7  1  0  0  0  0
  7  8  1  0  0  0  0
  7  9  1  0  0  0  0
  9 10  1  0  0  0  0
  9 11  1  0  0  0  0
  9 24  1  0  0  0  0
 11 12  1  0  0  0  0
 11 13  1  0  0  0  0
 11 14  1  0  0  0  0
 14 15  1  0  0  0  0
 14 16  1  0  0  0  0
 14 20  1  0  0  0  0
 16 17  1  0  0  0  0
 16 18  1  0  0  0  0
 16 19  1  0  0  0  0
 20 21  1  0  0  0  0
 20 22  1  0  0  0  0
 20 23  1  0  0  0  0
 24 25  2  0  0  0  0
 24 26  1  0  0  0  0
 26 27  1  0  0  0  0
 26 28  1  0  0  0  0
 28 29  1  0  0  0  0
 28 30  1  0  0  0  0
 28 31  1  0  0  0  0
M  END
$$$$

  -OEChem-04042216013D

 31 30  0     1  0  0  0  0  0999 V2000
   -2.7853   -4.3693    0.0644 H   0  0  0  0  0  0  0  0  0  0  0  0
   -2.7665   -3.3626   -0.3629 C   0  0  0  0  0  0  0  0  0  0  0  0
   -3.5832   -2.7811    0.0713 H   0  0  0  0  0  0  0  0  0  0  0  0
   -2.9138   -3.4372   -1.4430 H   0  0  0  0  0  0  0  0  0  0  0  0
   -1.4372   -2.6949   -0.0655 C   0  0  0  0  0  0  0  0  0  0  0  0
   -0.5903   -3.2874    0.5784 O   0  0  0  0  0  0  0  0  0  0  0  0
   -1.2044   -1.4081   -0.5077 N   0  0  0  0  0  0  0  0  0  0  0  0
   -1.9316   -0.9731   -1.0672 H   0  0  0  0  0  0  0  0  0  0  0  0
    0.0726   -0.6909   -0.3453 C   0  0  1  0  0  0  0  0  0  0  0  0
    0.8249   -1.3606   -0.7784 H   0  0  0  0  0  0  0  0  0  0  0  0
    0.0998    0.5707   -1.2379 C   0  0  0  0  0  0  0  0  0  0  0  0
    1.1468    0.7491   -1.5073 H   0  0  0  0  0  0  0  0  0  0  0  0
   -0.4361    0.3607   -2.1693 H   0  0  0  0  0  0  0  0  0  0  0  0
   -0.4406    1.8766   -0.6133 C   0  0  0  0  0  0  0  0  0  0  0  0
    0.1495    2.1388    0.2716 H   0  0  0  0  0  0  0  0  0  0  0  0
   -0.3250    3.0049   -1.6461 C   0  0  0  0  0  0  0  0  0  0  0  0
   -0.9147    2.7788   -2.5402 H   0  0  0  0  0  0  0  0  0  0  0  0
   -0.6831    3.9486   -1.2228 H   0  0  0  0  0  0  0  0  0  0  0  0
    0.7194    3.1407   -1.9445 H   0  0  0  0  0  0  0  0  0  0  0  0
   -1.9252    1.7610   -0.2283 C   0  0  0  0  0  0  0  0  0  0  0  0
   -2.0849    1.0006    0.5375 H   0  0  0  0  0  0  0  0  0  0  0  0
   -2.2872    2.7148    0.1683 H   0  0  0  0  0  0  0  0  0  0  0  0
   -2.5293    1.4987   -1.1027 H   0  0  0  0  0  0  0  0  0  0  0  0
    0.5722   -0.4703    1.1033 C   0  0  0  0  0  0  0  0  0  0  0  0
    1.7770   -0.4365    1.3174 O   0  0  0  0  0  0  0  0  0  0  0  0
   -0.2858   -0.0422    2.1004 N   0  0  0  0  0  0  0  0  0  0  0  0
   -1.2770   -0.1539    1.9167 H   0  0  0  0  0  0  0  0  0  0  0  0
    0.1493    0.2115    3.4678 C   0  0  0  0  0  0  0  0  0  0  0  0
    0.9159    0.9933    3.4882 H   0  0  0  0  0  0  0  0  0  0  0  0
   -0.6958    0.5431    4.0783 H   0  0  0  0  0  0  0  0  0  0  0  0
    0.5631   -0.7002    3.9114 H   0  0  0  0  0  0  0  0  0  0  0  0
  1  2  1  0  0  0  0
  2  3  1  0  0  0  0
  2  4  1  0  0  0  0
  2  5  1  0  0  0  0
  5  6  2  0  0  0  0
  5  7  1  0  0  0  0
  7  8  1  0  0  0  0
  7  9  1  0  0  0  0
  9 10  1  0  0  0  0
  9 11  1  0  0  0  0
  9 24  1  0  0  0  0
 11 12  1  0  0  0  0
 11 13  1  0  0  0  0
 11 14  1  0  0  0  0
 14 15  1  0  0  0  0
 14 16  1  0  0  0  0
 14 20  1  0  0  0  0
 16 17  1  0  0  0  0
 16 18  1  0  0  0  0
 16 19  1  0  0  0  0
 20 21  1  0  0  0  0
 20 22  1  0  0  0  0
 20 23  1  0  0  0  0
 24 25  2  0  0  0  0
 24 26  1  0  0  0  0
 26 27  1  0  0  0  0
 26 28  1  0  0  0  0
 28 29  1  0  0  0  0
 28 30  1  0  0  0  0
 28 31  1  0  0  0  0
M  END
$$$$

  -OEChem-04042216013D

 31 30  0     1  0  0  0  0  0999 V2000
   -2.9120   -4.3490   -0.0959 H   0  0  0  0  0  0  0  0  0  0  0  0
   -2.8594   -3.3244   -0.4755 C   0  0  0  0  0  0  0  0  0  0  0  0
   -3.6945   -2.7530   -0.0634 H   0  0  0  0  0  0  0  0  0  0  0  0
   -2.9443   -3.3490   -1.5646 H   0  0  0  0  0  0  0  0  0  0  0  0
   -1.5436   -2.6859   -0.0720 C   0  0  0  0  0  0  0  0  0  0  0  0
   -0.7505   -3.3089    0.6104 O   0  0  0  0  0  0  0  0  0  0  0  0
   -1.2605   -1.3927   -0.4644 N   0  0  0  0  0  0  0  0  0  0  0  0
   -1.9429   -0.9297   -1.0568 H   0  0  0  0  0  0  0  0  0  0  0  0
    0.0216   -0.7109   -0.2151 C   0  0  1  0  0  0  0  0  0  0  0  0
    0.7621   -1.4226   -0.5990 H   0  0  0  0  0  0  0  0  0  0  0  0
    0.2010    0.5210   -1.1306 C   0  0  0  0  0  0  0  0  0  0  0  0
    1.2747    0.6396   -1.3141 H   0  0  0  0  0  0  0  0  0  0  0  0
   -0.2607    0.2917   -2.0965 H   0  0  0  0  0  0  0  0  0  0  0  0
   -0.3243    1.8860   -0.6265 C   0  0  0  0  0  0  0  0  0  0  0  0
    0.3311    2.2702    0.1630 H   0  0  0  0  0  0  0  0  0  0  0  0
   -0.3717    2.8568   -1.8165 C   0  0  0  0  0  0  0  0  0  0  0  0
   -1.0566    2.5008   -2.5930 H   0  0  0  0  0  0  0  0  0  0  0  0
   -0.7021    3.8479   -1.4897 H   0  0  0  0  0  0  0  0  0  0  0  0
    0.6250    2.9605   -2.2569 H   0  0  0  0  0  0  0  0  0  0  0  0
   -1.7774    1.8187   -0.1179 C   0  0  0  0  0  0  0  0  0  0  0  0
   -2.1238    2.8177    0.1653 H   0  0  0  0  0  0  0  0  0  0  0  0
   -1.8807    1.1798    0.7557 H   0  0  0  0  0  0  0  0  0  0  0  0
   -2.4399    1.4324   -0.8991 H   0  0  0  0  0  0  0  0  0  0  0  0
    0.4825   -0.5245    1.2524 C   0  0  0  0  0  0  0  0  0  0  0  0
    1.6830   -0.5196    1.4936 O   0  0  0  0  0  0  0  0  0  0  0  0
   -0.3803   -0.0955    2.2439 N   0  0  0  0  0  0  0  0  0  0  0  0
   -1.3713   -0.1770    2.0430 H   0  0  0  0  0  0  0  0  0  0  0  0
    0.0393    0.1472    3.6184 C   0  0  0  0  0  0  0  0  0  0  0  0
    0.7897    0.9438    3.6554 H   0  0  0  0  0  0  0  0  0  0  0  0
   -0.8177    0.4527    4.2260 H   0  0  0  0  0  0  0  0  0  0  0  0
    0.4679   -0.7614    4.0542 H   0  0  0  0  0  0  0  0  0  0  0  0
  1  2  1  0  0  0  0
  2  3  1  0  0  0  0
  2  4  1  0  0  0  0
  2  5  1  0  0  0  0
  5  6  2  0  0  0  0
  5  7  1  0  0  0  0
  7  8  1  0  0  0  0
  7  9  1  0  0  0  0
  9 10  1  0  0  0  0
  9 11  1  0  0  0  0
  9 24  1  0  0  0  0
 11 12  1  0  0  0  0
 11 13  1  0  0  0  0
 11 14  1  0  0  0  0
 14 15  1  0  0  0  0
 14 16  1  0  0  0  0
 14 20  1  0  0  0  0
 16 17  1  0  0  0  0
 16 18  1  0  0  0  0
 16 19  1  0  0  0  0
 20 21  1  0  0  0  0
 20 22  1  0  0  0  0
 20 23  1  0  0  0  0
 24 25  2  0  0  0  0
 24 26  1  0  0  0  0
 26 27  1  0  0  0  0
 26 28  1  0  0  0  0
 28 29  1  0  0  0  0
 28 30  1  0  0  0  0
 28 31  1  0  0  0  0
M  END
$$$$

  -OEChem-04042216013D

 31 30  0     1  0  0  0  0  0999 V2000
   -2.6972   -4.4555   -0.0450 H   0  0  0  0  0  0  0  0  0  0  0  0
   -2.7222   -3.4217   -0.4010 C   0  0  0  0  0  0  0  0  0  0  0  0
   -3.5580   -2.9055    0.0771 H   0  0  0  0  0  0  0  0  0  0  0  0
   -2.8754   -3.4269   -1.4828 H   0  0  0  0  0  0  0  0  0  0  0  0
   -1.4182   -2.7231   -0.0646 C   0  0  0  0  0  0  0  0  0  0  0  0
   -0.5426   -3.3259    0.5296 O   0  0  0  0  0  0  0  0  0  0  0  0
   -1.2396   -1.3994   -0.4159 N   0  0  0  0  0  0  0  0  0  0  0  0
   -1.9863   -0.9591   -0.9448 H   0  0  0  0  0  0  0  0  0  0  0  0
    0.0187   -0.6526   -0.2378 C   0  0  1  0  0  0  0  0  0  0  0  0
    0.7625   -1.3207   -0.6886 H   0  0  0  0  0  0  0  0  0  0  0  0
    0.0877    0.5930   -1.1549 C   0  0  0  0  0  0  0  0  0  0  0  0
    1.1429    0.7489   -1.4051 H   0  0  0  0  0  0  0  0  0  0  0  0
   -0.4128    0.3202   -2.0899 H   0  0  0  0  0  0  0  0  0  0  0  0
   -0.4547    1.9693   -0.6781 C   0  0  0  0  0  0  0  0  0  0  0  0
    0.3517    2.5243   -0.1856 H   0  0  0  0  0  0  0  0  0  0  0  0
   -0.9378    2.7417   -1.9171 C   0  0  0  0  0  0  0  0  0  0  0  0
   -1.8016    2.2489   -2.3755 H   0  0  0  0  0  0  0  0  0  0  0  0
   -1.2239    3.7629   -1.6459 H   0  0  0  0  0  0  0  0  0  0  0  0
   -0.1370    2.8031   -2.6609 H   0  0  0  0  0  0  0  0  0  0  0  0
   -1.6645    1.9097    0.2707 C   0  0  0  0  0  0  0  0  0  0  0  0
   -2.2224    2.8514    0.2470 H   0  0  0  0  0  0  0  0  0  0  0  0
   -1.3431    1.7713    1.3013 H   0  0  0  0  0  0  0  0  0  0  0  0
   -2.3480    1.1043   -0.0119 H   0  0  0  0  0  0  0  0  0  0  0  0
    0.5704   -0.5133    1.2018 C   0  0  0  0  0  0  0  0  0  0  0  0
    1.7822   -0.4475    1.3653 O   0  0  0  0  0  0  0  0  0  0  0  0
   -0.2493   -0.1879    2.2658 N   0  0  0  0  0  0  0  0  0  0  0  0
   -1.2451   -0.3136    2.1189 H   0  0  0  0  0  0  0  0  0  0  0  0
    0.2422   -0.0027    3.6252 C   0  0  0  0  0  0  0  0  0  0  0  0
    0.9886    0.7981    3.6576 H   0  0  0  0  0  0  0  0  0  0  0  0
   -0.5821    0.2691    4.2911 H   0  0  0  0  0  0  0  0  0  0  0  0
    0.6994   -0.9264    3.9950 H   0  0  0  0  0  0  0  0  0  0  0  0
  1  2  1  0  0  0  0
  2  3  1  0  0  0  0
  2  4  1  0  0  0  0
  2  5  1  0  0  0  0
  5  6  2  0  0  0  0
  5  7  1  0  0  0  0
  7  8  1  0  0  0  0
  7  9  1  0  0  0  0
  9 10  1  0  0  0  0
  9 11  1  0  0  0  0
  9 24  1  0  0  0  0
 11 12  1  0  0  0  0
 11 13  1  0  0  0  0
 11 14  1  0  0  0  0
 14 15  1  0  0  0  0
 14 16  1  0  0  0  0
 14 20  1  0  0  0  0
 16 17  1  0  0  0  0
 16 18  1  0  0  0  0
 16 19  1  0  0  0  0
 20 21  1  0  0  0  0
 20 22  1  0  0  0  0
 20 23  1  0  0  0  0
 24 25  2  0  0  0  0
 24 26  1  0  0  0  0
 26 27  1  0  0  0  0
 26 28  1  0  0  0  0
 28 29  1  0  0  0  0
 28 30  1  0  0  0  0
 28 31  1  0  0  0  0
M  END
$$$$

  -OEChem-04042216013D

 31 30  0     1  0  0  0  0  0999 V2000
   -3.0163   -4.2996    0.0070 H   0  0  0  0  0  0  0  0  0  0  0  0
   -2.9572   -3.2736   -0.3676 C   0  0  0  0  0  0  0  0  0  0  0  0
   -3.7412   -2.6802    0.1089 H   0  0  0  0  0  0  0  0  0  0  0  0
   -3.1216   -3.2843   -1.4477 H   0  0  0  0  0  0  0  0  0  0  0  0
   -1.5950   -2.6829   -0.0555 C   0  0  0  0  0  0  0  0  0  0  0  0
   -0.7567   -3.3587    0.5131 O   0  0  0  0  0  0  0  0  0  0  0  0
   -1.3211   -1.3731   -0.3969 N   0  0  0  0  0  0  0  0  0  0  0  0
   -2.0453   -0.8652   -0.8957 H   0  0  0  0  0  0  0  0  0  0  0  0
   -0.0140   -0.7170   -0.2133 C   0  0  1  0  0  0  0  0  0  0  0  0
    0.6831   -1.4389   -0.6558 H   0  0  0  0  0  0  0  0  0  0  0  0
    0.1424    0.5049   -1.1543 C   0  0  0  0  0  0  0  0  0  0  0  0
    1.2111    0.5798   -1.3837 H   0  0  0  0  0  0  0  0  0  0  0  0
   -0.3486    0.2382   -2.0962 H   0  0  0  0  0  0  0  0  0  0  0  0
   -0.3015    1.9391   -0.7378 C   0  0  0  0  0  0  0  0  0  0  0  0
    0.5971    2.5358   -0.5445 H   0  0  0  0  0  0  0  0  0  0  0  0
   -1.0657    2.5714   -1.9123 C   0  0  0  0  0  0  0  0  0  0  0  0
   -1.9998    2.0331   -2.1030 H   0  0  0  0  0  0  0  0  0  0  0  0
   -1.3048    3.6180   -1.6978 H   0  0  0  0  0  0  0  0  0  0  0  0
   -0.4557    2.5459   -2.8210 H   0  0  0  0  0  0  0  0  0  0  0  0
   -1.2097    2.0520    0.4935 C   0  0  0  0  0  0  0  0  0  0  0  0
   -1.7453    3.0066    0.4958 H   0  0  0  0  0  0  0  0  0  0  0  0
   -0.6084    2.0304    1.4039 H   0  0  0  0  0  0  0  0  0  0  0  0
   -1.9505    1.2478    0.5160 H   0  0  0  0  0  0  0  0  0  0  0  0
    0.5339   -0.6319    1.2324 C   0  0  0  0  0  0  0  0  0  0  0  0
    1.7456   -0.6512    1.4071 O   0  0  0  0  0  0  0  0  0  0  0  0
   -0.2716   -0.2608    2.2937 N   0  0  0  0  0  0  0  0  0  0  0  0
   -1.2726   -0.3061    2.1363 H   0  0  0  0  0  0  0  0  0  0  0  0
    0.2210   -0.1237    3.6585 C   0  0  0  0  0  0  0  0  0  0  0  0
    0.9808    0.6630    3.7146 H   0  0  0  0  0  0  0  0  0  0  0  0
   -0.5996    0.1412    4.3319 H   0  0  0  0  0  0  0  0  0  0  0  0
    0.6621   -1.0655    4.0022 H   0  0  0  0  0  0  0  0  0  0  0  0
  1  2  1  0  0  0  0
  2  3  1  0  0  0  0
  2  4  1  0  0  0  0
  2  5  1  0  0  0  0
  5  6  2  0  0  0  0
  5  7  1  0  0  0  0
  7  8  1  0  0  0  0
  7  9  1  0  0  0  0
  9 10  1  0  0  0  0
  9 11  1  0  0  0  0
  9 24  1  0  0  0  0
 11 12  1  0  0  0  0
 11 13  1  0  0  0  0
 11 14  1  0  0  0  0
 14 15  1  0  0  0  0
 14 16  1  0  0  0  0
 14 20  1  0  0  0  0
 16 17  1  0  0  0  0
 16 18  1  0  0  0  0
 16 19  1  0  0  0  0
 20 21  1  0  0  0  0
 20 22  1  0  0  0  0
 20 23  1  0  0  0  0
 24 25  2  0  0  0  0
 24 26  1  0  0  0  0
 26 27  1  0  0  0  0
 26 28  1  0  0  0  0
 28 29  1  0  0  0  0
 28 30  1  0  0  0  0
 28 31  1  0  0  0  0
M  END
$$$$

  -OEChem-04042216013D

 31 30  0     1  0  0  0  0  0999 V2000
   -2.8233   -4.3912   -0.0221 H   0  0  0  0  0  0  0  0  0  0  0  0
   -2.8135   -3.3575   -0.3795 C   0  0  0  0  0  0  0  0  0  0  0  0
   -3.6171   -2.8068    0.1154 H   0  0  0  0  0  0  0  0  0  0  0  0
   -2.9895   -3.3573   -1.4578 H   0  0  0  0  0  0  0  0  0  0  0  0
   -1.4748   -2.7126   -0.0734 C   0  0  0  0  0  0  0  0  0  0  0  0
   -0.5956   -3.3639    0.4610 O   0  0  0  0  0  0  0  0  0  0  0  0
   -1.2674   -1.3841   -0.3887 N   0  0  0  0  0  0  0  0  0  0  0  0
   -2.0255   -0.8986   -0.8585 H   0  0  0  0  0  0  0  0  0  0  0  0
    0.0137   -0.6745   -0.2248 C   0  0  1  0  0  0  0  0  0  0  0  0
    0.7309   -1.3575   -0.6962 H   0  0  0  0  0  0  0  0  0  0  0  0
    0.0822    0.5582   -1.1651 C   0  0  0  0  0  0  0  0  0  0  0  0
    1.1461    0.6865   -1.3928 H   0  0  0  0  0  0  0  0  0  0  0  0
   -0.3892    0.2717   -2.1112 H   0  0  0  0  0  0  0  0  0  0  0  0
   -0.4180    1.9749   -0.7488 C   0  0  0  0  0  0  0  0  0  0  0  0
    0.4193    2.6707   -0.8749 H   0  0  0  0  0  0  0  0  0  0  0  0
   -1.5329    2.4104   -1.7118 C   0  0  0  0  0  0  0  0  0  0  0  0
   -2.3971    1.7438   -1.6277 H   0  0  0  0  0  0  0  0  0  0  0  0
   -1.8582    3.4314   -1.4885 H   0  0  0  0  0  0  0  0  0  0  0  0
   -1.1748    2.3908   -2.7459 H   0  0  0  0  0  0  0  0  0  0  0  0
   -0.9384    2.1555    0.6776 C   0  0  0  0  0  0  0  0  0  0  0  0
   -0.1131    2.0854    1.3908 H   0  0  0  0  0  0  0  0  0  0  0  0
   -1.3833    3.1482    0.7990 H   0  0  0  0  0  0  0  0  0  0  0  0
   -1.7034    1.4101    0.9124 H   0  0  0  0  0  0  0  0  0  0  0  0
    0.5937   -0.6026    1.2098 C   0  0  0  0  0  0  0  0  0  0  0  0
    1.8090   -0.5799    1.3565 O   0  0  0  0  0  0  0  0  0  0  0  0
   -0.2019   -0.2951    2.2994 N   0  0  0  0  0  0  0  0  0  0  0  0
   -1.2030   -0.3827    2.1622 H   0  0  0  0  0  0  0  0  0  0  0  0
    0.3139   -0.1908    3.6585 C   0  0  0  0  0  0  0  0  0  0  0  0
    1.0879    0.5817    3.7178 H   0  0  0  0  0  0  0  0  0  0  0  0
   -0.4917    0.0762    4.3490 H   0  0  0  0  0  0  0  0  0  0  0  0
    0.7434   -1.1463    3.9774 H   0  0  0  0  0  0  0  0  0  0  0  0
  1  2  1  0  0  0  0
  2  3  1  0  0  0  0
  2  4  1  0  0  0  0
  2  5  1  0  0  0  0
  5  6  2  0  0  0  0
  5  7  1  0  0  0  0
  7  8  1  0  0  0  0
  7  9  1  0  0  0  0
  9 10  1  0  0  0  0
  9 11  1  0  0  0  0
  9 24  1  0  0  0  0
 11 12  1  0  0  0  0
 11 13  1  0  0  0  0
 11 14  1  0  0  0  0
 14 15  1  0  0  0  0
 14 16  1  0  0  0  0
 14 20  1  0  0  0  0
 16 17  1  0  0  0  0
 16 18  1  0  0  0  0
 16 19  1  0  0  0  0
 20 21  1  0  0  0  0
 20 22  1  0  0  0  0
 20 23  1  0  0  0  0
 24 25  2  0  0  0  0
 24 26  1  0  0  0  0
 26 27  1  0  0  0  0
 26 28  1  0  0  0  0
 28 29  1  0  0  0  0
 28 30  1  0  0  0  0
 28 31  1  0  0  0  0
M  END
$$$$

  -OEChem-04042216013D

 31 30  0     1  0  0  0  0  0999 V2000
   -2.7102   -4.4675    0.1502 H   0  0  0  0  0  0  0  0  0  0  0  0
   -2.7450   -3.4397   -0.2228 C   0  0  0  0  0  0  0  0  0  0  0  0
   -3.5441   -2.9049    0.2959 H   0  0  0  0  0  0  0  0  0  0  0  0
   -2.9635   -3.4618   -1.2932 H   0  0  0  0  0  0  0  0  0  0  0  0
   -1.4147   -2.7521    0.0200 C   0  0  0  0  0  0  0  0  0  0  0  0
   -0.5015   -3.3668    0.5407 O   0  0  0  0  0  0  0  0  0  0  0  0
   -1.2515   -1.4282   -0.3387 N   0  0  0  0  0  0  0  0  0  0  0  0
   -2.0365   -0.9742   -0.7957 H   0  0  0  0  0  0  0  0  0  0  0  0
    0.0172   -0.6852   -0.2373 C   0  0  1  0  0  0  0  0  0  0  0  0
    0.7357   -1.3624   -0.7147 H   0  0  0  0  0  0  0  0  0  0  0  0
    0.0202    0.5244   -1.2115 C   0  0  0  0  0  0  0  0  0  0  0  0
    1.0766    0.6741   -1.4607 H   0  0  0  0  0  0  0  0  0  0  0  0
   -0.4618    0.2092   -2.1426 H   0  0  0  0  0  0  0  0  0  0  0  0
   -0.4989    1.9397   -0.8209 C   0  0  0  0  0  0  0  0  0  0  0  0
    0.1956    2.6598   -1.2681 H   0  0  0  0  0  0  0  0  0  0  0  0
   -1.8684    2.1771   -1.4720 C   0  0  0  0  0  0  0  0  0  0  0  0
   -2.6060    1.4668   -1.0859 H   0  0  0  0  0  0  0  0  0  0  0  0
   -2.2204    3.1925   -1.2636 H   0  0  0  0  0  0  0  0  0  0  0  0
   -1.8043    2.0594   -2.5583 H   0  0  0  0  0  0  0  0  0  0  0  0
   -0.5925    2.2939    0.6624 C   0  0  0  0  0  0  0  0  0  0  0  0
    0.3739    2.1517    1.1546 H   0  0  0  0  0  0  0  0  0  0  0  0
   -1.3578    1.6906    1.1568 H   0  0  0  0  0  0  0  0  0  0  0  0
   -0.8691    3.3463    0.7793 H   0  0  0  0  0  0  0  0  0  0  0  0
    0.6377   -0.5631    1.1761 C   0  0  0  0  0  0  0  0  0  0  0  0
    1.8561   -0.5077    1.2850 O   0  0  0  0  0  0  0  0  0  0  0  0
   -0.1333   -0.2447    2.2801 N   0  0  0  0  0  0  0  0  0  0  0  0
   -1.1357   -0.3599    2.1763 H   0  0  0  0  0  0  0  0  0  0  0  0
    0.4217   -0.0812    3.6178 C   0  0  0  0  0  0  0  0  0  0  0  0
    1.1753    0.7134    3.6255 H   0  0  0  0  0  0  0  0  0  0  0  0
   -0.3686    0.1872    4.3251 H   0  0  0  0  0  0  0  0  0  0  0  0
    0.8885   -1.0130    3.9540 H   0  0  0  0  0  0  0  0  0  0  0  0
  1  2  1  0  0  0  0
  2  3  1  0  0  0  0
  2  4  1  0  0  0  0
  2  5  1  0  0  0  0
  5  6  2  0  0  0  0
  5  7  1  0  0  0  0
  7  8  1  0  0  0  0
  7  9  1  0  0  0  0
  9 10  1  0  0  0  0
  9 11  1  0  0  0  0
  9 24  1  0  0  0  0
 11 12  1  0  0  0  0
 11 13  1  0  0  0  0
 11 14  1  0  0  0  0
 14 15  1  0  0  0  0
 14 16  1  0  0  0  0
 14 20  1  0  0  0  0
 16 17  1  0  0  0  0
 16 18  1  0  0  0  0
 16 19  1  0  0  0  0
 20 21  1  0  0  0  0
 20 22  1  0  0  0  0
 20 23  1  0  0  0  0
 24 25  2  0  0  0  0
 24 26  1  0  0  0  0
 26 27  1  0  0  0  0
 26 28  1  0  0  0  0
 28 29  1  0  0  0  0
 28 30  1  0  0  0  0
 28 31  1  0  0  0  0
M  END
$$$$

  -OEChem-04042216013D

 31 30  0     1  0  0  0  0  0999 V2000
   -2.7990   -4.4129    0.0943 H   0  0  0  0  0  0  0  0  0  0  0  0
   -2.7865   -3.3928   -0.3005 C   0  0  0  0  0  0  0  0  0  0  0  0
   -3.5787   -2.8187    0.1857 H   0  0  0  0  0  0  0  0  0  0  0  0
   -2.9784   -3.4297   -1.3756 H   0  0  0  0  0  0  0  0  0  0  0  0
   -1.4391   -2.7476   -0.0362 C   0  0  0  0  0  0  0  0  0  0  0  0
   -0.5538   -3.3893    0.4999 O   0  0  0  0  0  0  0  0  0  0  0  0
   -1.2301   -1.4301   -0.3944 N   0  0  0  0  0  0  0  0  0  0  0  0
   -1.9941   -0.9533   -0.8636 H   0  0  0  0  0  0  0  0  0  0  0  0
    0.0523   -0.7168   -0.2554 C   0  0  1  0  0  0  0  0  0  0  0  0
    0.7769   -1.3951   -0.7220 H   0  0  0  0  0  0  0  0  0  0  0  0
    0.0766    0.5147   -1.2002 C   0  0  0  0  0  0  0  0  0  0  0  0
    1.1360    0.6590   -1.4405 H   0  0  0  0  0  0  0  0  0  0  0  0
   -0.4097    0.2376   -2.1412 H   0  0  0  0  0  0  0  0  0  0  0  0
   -0.4278    1.9189   -0.7691 C   0  0  0  0  0  0  0  0  0  0  0  0
    0.0921    2.6250   -1.4261 H   0  0  0  0  0  0  0  0  0  0  0  0
   -1.9215    2.0605   -1.0836 C   0  0  0  0  0  0  0  0  0  0  0  0
   -2.5083    1.3615   -0.4799 H   0  0  0  0  0  0  0  0  0  0  0  0
   -2.2614    3.0778   -0.8651 H   0  0  0  0  0  0  0  0  0  0  0  0
   -2.1149    1.8575   -2.1416 H   0  0  0  0  0  0  0  0  0  0  0  0
   -0.1322    2.3921    0.6550 C   0  0  0  0  0  0  0  0  0  0  0  0
    0.8874    2.1264    0.9504 H   0  0  0  0  0  0  0  0  0  0  0  0
   -0.8459    1.9702    1.3646 H   0  0  0  0  0  0  0  0  0  0  0  0
   -0.2238    3.4813    0.7087 H   0  0  0  0  0  0  0  0  0  0  0  0
    0.6130   -0.6123    1.1826 C   0  0  0  0  0  0  0  0  0  0  0  0
    1.8259   -0.5899    1.3494 O   0  0  0  0  0  0  0  0  0  0  0  0
   -0.2042   -0.2746    2.2465 N   0  0  0  0  0  0  0  0  0  0  0  0
   -1.2037   -0.3500    2.0904 H   0  0  0  0  0  0  0  0  0  0  0  0
    0.2881   -0.1097    3.6082 C   0  0  0  0  0  0  0  0  0  0  0  0
    1.0076    0.7142    3.6573 H   0  0  0  0  0  0  0  0  0  0  0  0
   -0.5408    0.1156    4.2856 H   0  0  0  0  0  0  0  0  0  0  0  0
    0.7777   -1.0271    3.9515 H   0  0  0  0  0  0  0  0  0  0  0  0
  1  2  1  0  0  0  0
  2  3  1  0  0  0  0
  2  4  1  0  0  0  0
  2  5  1  0  0  0  0
  5  6  2  0  0  0  0
  5  7  1  0  0  0  0
  7  8  1  0  0  0  0
  7  9  1  0  0  0  0
  9 10  1  0  0  0  0
  9 11  1  0  0  0  0
  9 24  1  0  0  0  0
 11 12  1  0  0  0  0
 11 13  1  0  0  0  0
 11 14  1  0  0  0  0
 14 15  1  0  0  0  0
 14 16  1  0  0  0  0
 14 20  1  0  0  0  0
 16 17  1  0  0  0  0
 16 18  1  0  0  0  0
 16 19  1  0  0  0  0
 20 21  1  0  0  0  0
 20 22  1  0  0  0  0
 20 23  1  0  0  0  0
 24 25  2  0  0  0  0
 24 26  1  0  0  0  0
 26 27  1  0  0  0  0
 26 28  1  0  0  0  0
 28 29  1  0  0  0  0
 28 30  1  0  0  0  0
 28 31  1  0  0  0  0
M  END
$$$$

  -OEChem-04042216013D

 31 30  0     1  0  0  0  0  0999 V2000
   -2.9326   -4.3174    0.0781 H   0  0  0  0  0  0  0  0  0  0  0  0
   -2.8687   -3.3048   -0.3305 C   0  0  0  0  0  0  0  0  0  0  0  0
   -3.6439   -2.6899    0.1328 H   0  0  0  0  0  0  0  0  0  0  0  0
   -3.0422   -3.3496   -1.4083 H   0  0  0  0  0  0  0  0  0  0  0  0
   -1.4994   -2.7152   -0.0497 C   0  0  0  0  0  0  0  0  0  0  0  0
   -0.6618   -3.3795    0.5330 O   0  0  0  0  0  0  0  0  0  0  0  0
   -1.2163   -1.4226   -0.4459 N   0  0  0  0  0  0  0  0  0  0  0  0
   -1.9422   -0.9269   -0.9542 H   0  0  0  0  0  0  0  0  0  0  0  0
    0.0912   -0.7610   -0.2790 C   0  0  1  0  0  0  0  0  0  0  0  0
    0.8149   -1.4597   -0.7152 H   0  0  0  0  0  0  0  0  0  0  0  0
    0.1614    0.4812   -1.2056 C   0  0  0  0  0  0  0  0  0  0  0  0
    1.2203    0.5977   -1.4612 H   0  0  0  0  0  0  0  0  0  0  0  0
   -0.3541    0.2444   -2.1420 H   0  0  0  0  0  0  0  0  0  0  0  0
   -0.3062    1.8783   -0.7273 C   0  0  0  0  0  0  0  0  0  0  0  0
    0.0079    2.5620   -1.5239 H   0  0  0  0  0  0  0  0  0  0  0  0
   -1.8347    1.9586   -0.6790 C   0  0  0  0  0  0  0  0  0  0  0  0
   -2.2292    1.2939    0.0955 H   0  0  0  0  0  0  0  0  0  0  0  0
   -2.1527    2.9811   -0.4524 H   0  0  0  0  0  0  0  0  0  0  0  0
   -2.2665    1.6706   -1.6424 H   0  0  0  0  0  0  0  0  0  0  0  0
    0.3379    2.4314    0.5493 C   0  0  0  0  0  0  0  0  0  0  0  0
    1.3715    2.0847    0.6460 H   0  0  0  0  0  0  0  0  0  0  0  0
   -0.2240    2.1463    1.4395 H   0  0  0  0  0  0  0  0  0  0  0  0
    0.3494    3.5250    0.5107 H   0  0  0  0  0  0  0  0  0  0  0  0
    0.5710   -0.6412    1.1855 C   0  0  0  0  0  0  0  0  0  0  0  0
    1.7695   -0.6841    1.4321 O   0  0  0  0  0  0  0  0  0  0  0  0
   -0.2994   -0.2343    2.1810 N   0  0  0  0  0  0  0  0  0  0  0  0
   -1.2877   -0.2707    1.9564 H   0  0  0  0  0  0  0  0  0  0  0  0
    0.1020   -0.0859    3.5739 C   0  0  0  0  0  0  0  0  0  0  0  0
    0.9073    0.6507    3.6646 H   0  0  0  0  0  0  0  0  0  0  0  0
   -0.7448    0.2542    4.1776 H   0  0  0  0  0  0  0  0  0  0  0  0
    0.4530   -1.0431    3.9737 H   0  0  0  0  0  0  0  0  0  0  0  0
  1  2  1  0  0  0  0
  2  3  1  0  0  0  0
  2  4  1  0  0  0  0
  2  5  1  0  0  0  0
  5  6  2  0  0  0  0
  5  7  1  0  0  0  0
  7  8  1  0  0  0  0
  7  9  1  0  0  0  0
  9 10  1  0  0  0  0
  9 11  1  0  0  0  0
  9 24  1  0  0  0  0
 11 12  1  0  0  0  0
 11 13  1  0  0  0  0
 11 14  1  0  0  0  0
 14 15  1  0  0  0  0
 14 16  1  0  0  0  0
 14 20  1  0  0  0  0
 16 17  1  0  0  0  0
 16 18  1  0  0  0  0
 16 19  1  0  0  0  0
 20 21  1  0  0  0  0
 20 22  1  0  0  0  0
 20 23  1  0  0  0  0
 24 25  2  0  0  0  0
 24 26  1  0  0  0  0
 26 27  1  0  0  0  0
 26 28  1  0  0  0  0
 28 29  1  0  0  0  0
 28 30  1  0  0  0  0
 28 31  1  0  0  0  0
M  END
$$$$

  -OEChem-04042216013D

 31 30  0     1  0  0  0  0  0999 V2000
   -2.8607   -4.3500    0.0580 H   0  0  0  0  0  0  0  0  0  0  0  0
   -2.8163   -3.3357   -0.3492 C   0  0  0  0  0  0  0  0  0  0  0  0
   -3.6054   -2.7373    0.1122 H   0  0  0  0  0  0  0  0  0  0  0  0
   -2.9851   -3.3826   -1.4278 H   0  0  0  0  0  0  0  0  0  0  0  0
   -1.4605   -2.7180   -0.0629 C   0  0  0  0  0  0  0  0  0  0  0  0
   -0.6155   -3.3611    0.5327 O   0  0  0  0  0  0  0  0  0  0  0  0
   -1.1984   -1.4239   -0.4682 N   0  0  0  0  0  0  0  0  0  0  0  0
   -1.9278   -0.9481   -0.9905 H   0  0  0  0  0  0  0  0  0  0  0  0
    0.1000   -0.7429   -0.3074 C   0  0  1  0  0  0  0  0  0  0  0  0
    0.8318   -1.4303   -0.7482 H   0  0  0  0  0  0  0  0  0  0  0  0
    0.1544    0.5092   -1.2207 C   0  0  0  0  0  0  0  0  0  0  0  0
    1.2035    0.6388   -1.5082 H   0  0  0  0  0  0  0  0  0  0  0  0
   -0.3900    0.2820   -2.1432 H   0  0  0  0  0  0  0  0  0  0  0  0
   -0.3309    1.8851   -0.7031 C   0  0  0  0  0  0  0  0  0  0  0  0
   -0.2608    2.5579   -1.5651 H   0  0  0  0  0  0  0  0  0  0  0  0
   -1.8056    1.8584   -0.2868 C   0  0  0  0  0  0  0  0  0  0  0  0
   -1.9577    1.2197    0.5864 H   0  0  0  0  0  0  0  0  0  0  0  0
   -2.1434    2.8688   -0.0358 H   0  0  0  0  0  0  0  0  0  0  0  0
   -2.4259    1.4827   -1.1060 H   0  0  0  0  0  0  0  0  0  0  0  0
    0.5550    2.5143    0.3819 C   0  0  0  0  0  0  0  0  0  0  0  0
    1.6129    2.3268    0.1728 H   0  0  0  0  0  0  0  0  0  0  0  0
    0.3977    3.5972    0.4041 H   0  0  0  0  0  0  0  0  0  0  0  0
    0.3220    2.1306    1.3751 H   0  0  0  0  0  0  0  0  0  0  0  0
    0.5879   -0.6032    1.1531 C   0  0  0  0  0  0  0  0  0  0  0  0
    1.7888   -0.6249    1.3904 O   0  0  0  0  0  0  0  0  0  0  0  0
   -0.2804   -0.1997    2.1525 N   0  0  0  0  0  0  0  0  0  0  0  0
   -1.2696   -0.2570    1.9364 H   0  0  0  0  0  0  0  0  0  0  0  0
    0.1271   -0.0435    3.5428 C   0  0  0  0  0  0  0  0  0  0  0  0
    0.9328    0.6934    3.6265 H   0  0  0  0  0  0  0  0  0  0  0  0
   -0.7175    0.3002    4.1474 H   0  0  0  0  0  0  0  0  0  0  0  0
    0.4793   -0.9985    3.9464 H   0  0  0  0  0  0  0  0  0  0  0  0
  1  2  1  0  0  0  0
  2  3  1  0  0  0  0
  2  4  1  0  0  0  0
  2  5  1  0  0  0  0
  5  6  2  0  0  0  0
  5  7  1  0  0  0  0
  7  8  1  0  0  0  0
  7  9  1  0  0  0  0
  9 10  1  0  0  0  0
  9 11  1  0  0  0  0
  9 24  1  0  0  0  0
 11 12  1  0  0  0  0
 11 13  1  0  0  0  0
 11 14  1  0  0  0  0
 14 15  1  0  0  0  0
 14 16  1  0  0  0  0
 14 20  1  0  0  0  0
 16 17  1  0  0  0  0
 16 18  1  0  0  0  0
 16 19  1  0  0  0  0
 20 21  1  0  0  0  0
 20 22  1  0  0  0  0
 20 23  1  0  0  0  0
 24 25  2  0  0  0  0
 24 26  1  0  0  0  0
 26 27  1  0  0  0  0
 26 28  1  0  0  0  0
 28 29  1  0  0  0  0
 28 30  1  0  0  0  0
 28 31  1  0  0  0  0
M  END
$$$$

  -OEChem-04042216013D

 31 30  0     1  0  0  0  0  0999 V2000
   -2.8799   -4.3696    0.0140 H   0  0  0  0  0  0  0  0  0  0  0  0
   -2.8321   -3.3495   -0.3780 C   0  0  0  0  0  0  0  0  0  0  0  0
   -3.6408   -2.7642    0.0661 H   0  0  0  0  0  0  0  0  0  0  0  0
   -2.9669   -3.3835   -1.4617 H   0  0  0  0  0  0  0  0  0  0  0  0
   -1.4916   -2.7241   -0.0409 C   0  0  0  0  0  0  0  0  0  0  0  0
   -0.6717   -3.3562    0.6002 O   0  0  0  0  0  0  0  0  0  0  0  0
   -1.2177   -1.4319   -0.4437 N   0  0  0  0  0  0  0  0  0  0  0  0
   -1.9236   -0.9642   -1.0038 H   0  0  0  0  0  0  0  0  0  0  0  0
    0.0745   -0.7518   -0.2433 C   0  0  1  0  0  0  0  0  0  0  0  0
    0.8030   -1.4694   -0.6394 H   0  0  0  0  0  0  0  0  0  0  0  0
    0.2186    0.4580   -1.2023 C   0  0  0  0  0  0  0  0  0  0  0  0
    1.2831    0.5484   -1.4447 H   0  0  0  0  0  0  0  0  0  0  0  0
   -0.2864    0.1988   -2.1384 H   0  0  0  0  0  0  0  0  0  0  0  0
   -0.2742    1.8660   -0.7806 C   0  0  0  0  0  0  0  0  0  0  0  0
   -0.3450    2.4571   -1.7002 H   0  0  0  0  0  0  0  0  0  0  0  0
   -1.6624    1.8661   -0.1263 C   0  0  0  0  0  0  0  0  0  0  0  0
   -2.0269    2.8939   -0.0324 H   0  0  0  0  0  0  0  0  0  0  0  0
   -1.6486    1.4274    0.8698 H   0  0  0  0  0  0  0  0  0  0  0  0
   -2.3721    1.3089   -0.7446 H   0  0  0  0  0  0  0  0  0  0  0  0
    0.7294    2.5854    0.1323 C   0  0  0  0  0  0  0  0  0  0  0  0
    1.7265    2.5864   -0.3192 H   0  0  0  0  0  0  0  0  0  0  0  0
    0.4221    3.6251    0.2809 H   0  0  0  0  0  0  0  0  0  0  0  0
    0.7958    2.1100    1.1132 H   0  0  0  0  0  0  0  0  0  0  0  0
    0.5614   -0.5810    1.2159 C   0  0  0  0  0  0  0  0  0  0  0  0
    1.7643   -0.5957    1.4444 O   0  0  0  0  0  0  0  0  0  0  0  0
   -0.2908   -0.1593    2.2200 N   0  0  0  0  0  0  0  0  0  0  0  0
   -1.2836   -0.2248    2.0228 H   0  0  0  0  0  0  0  0  0  0  0  0
    0.1401    0.0450    3.5969 C   0  0  0  0  0  0  0  0  0  0  0  0
    0.9129    0.8192    3.6455 H   0  0  0  0  0  0  0  0  0  0  0  0
   -0.7052    0.3630    4.2143 H   0  0  0  0  0  0  0  0  0  0  0  0
    0.5448   -0.8840    4.0123 H   0  0  0  0  0  0  0  0  0  0  0  0
  1  2  1  0  0  0  0
  2  3  1  0  0  0  0
  2  4  1  0  0  0  0
  2  5  1  0  0  0  0
  5  6  2  0  0  0  0
  5  7  1  0  0  0  0
  7  8  1  0  0  0  0
  7  9  1  0  0  0  0
  9 10  1  0  0  0  0
  9 11  1  0  0  0  0
  9 24  1  0  0  0  0
 11 12  1  0  0  0  0
 11 13  1  0  0  0  0
 11 14  1  0  0  0  0
 14 15  1  0  0  0  0
 14 16  1  0  0  0  0
 14 20  1  0  0  0  0
 16 17  1  0  0  0  0
 16 18  1  0  0  0  0
 16 19  1  0  0  0  0
 20 21  1  0  0  0  0
 20 22  1  0  0  0  0
 20 23  1  0  0  0  0
 24 25  2  0  0  0  0
 24 26  1  0  0  0  0
 26 27  1  0  0  0  0
 26 28  1  0  0  0  0
 28 29  1  0  0  0  0
 28 30  1  0  0  0  0
 28 31  1  0  0  0  0
M  END
$$$$

  -OEChem-04042216013D

 31 30  0     1  0  0  0  0  0999 V2000
   -2.7523   -4.4492   -0.0264 H   0  0  0  0  0  0  0  0  0  0  0  0
   -2.7512   -3.4195   -0.3956 C   0  0  0  0  0  0  0  0  0  0  0  0
   -3.5723   -2.8757    0.0773 H   0  0  0  0  0  0  0  0  0  0  0  0
   -2.9066   -3.4350   -1.4770 H   0  0  0  0  0  0  0  0  0  0  0  0
   -1.4288   -2.7502   -0.0708 C   0  0  0  0  0  0  0  0  0  0  0  0
   -0.5698   -3.3664    0.5336 O   0  0  0  0  0  0  0  0  0  0  0  0
   -1.2130   -1.4396   -0.4492 N   0  0  0  0  0  0  0  0  0  0  0  0
   -1.9503   -0.9862   -0.9801 H   0  0  0  0  0  0  0  0  0  0  0  0
    0.0609   -0.7191   -0.2708 C   0  0  1  0  0  0  0  0  0  0  0  0
    0.7969   -1.4095   -0.7001 H   0  0  0  0  0  0  0  0  0  0  0  0
    0.1565    0.5097   -1.2098 C   0  0  0  0  0  0  0  0  0  0  0  0
    1.2117    0.6187   -1.4835 H   0  0  0  0  0  0  0  0  0  0  0  0
   -0.3685    0.2493   -2.1345 H   0  0  0  0  0  0  0  0  0  0  0  0
   -0.3604    1.9066   -0.7676 C   0  0  0  0  0  0  0  0  0  0  0  0
   -0.6887    2.4211   -1.6772 H   0  0  0  0  0  0  0  0  0  0  0  0
   -1.5398    1.9114    0.2157 C   0  0  0  0  0  0  0  0  0  0  0  0
   -2.1016    2.8441    0.1041 H   0  0  0  0  0  0  0  0  0  0  0  0
   -1.2039    1.8624    1.2521 H   0  0  0  0  0  0  0  0  0  0  0  0
   -2.2230    1.0821    0.0153 H   0  0  0  0  0  0  0  0  0  0  0  0
    0.7831    2.7305   -0.1579 C   0  0  0  0  0  0  0  0  0  0  0  0
    1.5973    2.8500   -0.8793 H   0  0  0  0  0  0  0  0  0  0  0  0
    0.4278    3.7276    0.1207 H   0  0  0  0  0  0  0  0  0  0  0  0
    1.1827    2.2430    0.7369 H   0  0  0  0  0  0  0  0  0  0  0  0
    0.5919   -0.5631    1.1744 C   0  0  0  0  0  0  0  0  0  0  0  0
    1.8017   -0.5388    1.3619 O   0  0  0  0  0  0  0  0  0  0  0  0
   -0.2384   -0.1946    2.2160 N   0  0  0  0  0  0  0  0  0  0  0  0
   -1.2353   -0.2771    2.0482 H   0  0  0  0  0  0  0  0  0  0  0  0
    0.2328    0.0163    3.5789 C   0  0  0  0  0  0  0  0  0  0  0  0
    1.0050    0.7925    3.6024 H   0  0  0  0  0  0  0  0  0  0  0  0
   -0.5946    0.3355    4.2196 H   0  0  0  0  0  0  0  0  0  0  0  0
    0.6514   -0.9101    3.9859 H   0  0  0  0  0  0  0  0  0  0  0  0
  1  2  1  0  0  0  0
  2  3  1  0  0  0  0
  2  4  1  0  0  0  0
  2  5  1  0  0  0  0
  5  6  2  0  0  0  0
  5  7  1  0  0  0  0
  7  8  1  0  0  0  0
  7  9  1  0  0  0  0
  9 10  1  0  0  0  0
  9 11  1  0  0  0  0
  9 24  1  0  0  0  0
 11 12  1  0  0  0  0
 11 13  1  0  0  0  0
 11 14  1  0  0  0  0
 14 15  1  0  0  0  0
 14 16  1  0  0  0  0
 14 20  1  0  0  0  0
 16 17  1  0  0  0  0
 16 18  1  0  0  0  0
 16 19  1  0  0  0  0
 20 21  1  0  0  0  0
 20 22  1  0  0  0  0
 20 23  1  0  0  0  0
 24 25  2  0  0  0  0
 24 26  1  0  0  0  0
 26 27  1  0  0  0  0
 26 28  1  0  0  0  0
 28 29  1  0  0  0  0
 28 30  1  0  0  0  0
 28 31  1  0  0  0  0
M  END
$$$$

  -OEChem-04042216013D

 31 30  0     1  0  0  0  0  0999 V2000
   -2.9918   -4.3024   -0.1830 H   0  0  0  0  0  0  0  0  0  0  0  0
   -2.9146   -3.2663   -0.5252 C   0  0  0  0  0  0  0  0  0  0  0  0
   -3.7209   -2.6851   -0.0717 H   0  0  0  0  0  0  0  0  0  0  0  0
   -3.0254   -3.2466   -1.6121 H   0  0  0  0  0  0  0  0  0  0  0  0
   -1.5700   -2.6853   -0.1301 C   0  0  0  0  0  0  0  0  0  0  0  0
   -0.7782   -3.3621    0.5008 O   0  0  0  0  0  0  0  0  0  0  0  0
   -1.2593   -1.3840   -0.4730 N   0  0  0  0  0  0  0  0  0  0  0  0
   -1.9457   -0.8758   -1.0223 H   0  0  0  0  0  0  0  0  0  0  0  0
    0.0428   -0.7412   -0.2188 C   0  0  1  0  0  0  0  0  0  0  0  0
    0.7548   -1.4783   -0.6095 H   0  0  0  0  0  0  0  0  0  0  0  0
    0.2751    0.4678   -1.1600 C   0  0  0  0  0  0  0  0  0  0  0  0
    1.3525    0.4957   -1.3578 H   0  0  0  0  0  0  0  0  0  0  0  0
   -0.1961    0.2250   -2.1177 H   0  0  0  0  0  0  0  0  0  0  0  0
   -0.1741    1.9095   -0.7813 C   0  0  0  0  0  0  0  0  0  0  0  0
   -0.6584    2.3290   -1.6699 H   0  0  0  0  0  0  0  0  0  0  0  0
   -1.1648    2.0539    0.3791 C   0  0  0  0  0  0  0  0  0  0  0  0
   -1.6901    3.0102    0.2943 H   0  0  0  0  0  0  0  0  0  0  0  0
   -0.6489    2.0534    1.3417 H   0  0  0  0  0  0  0  0  0  0  0  0
   -1.9124    1.2564    0.3604 H   0  0  0  0  0  0  0  0  0  0  0  0
    1.0545    2.7755   -0.4672 C   0  0  0  0  0  0  0  0  0  0  0  0
    1.7298    2.8112   -1.3280 H   0  0  0  0  0  0  0  0  0  0  0  0
    0.7509    3.8003   -0.2310 H   0  0  0  0  0  0  0  0  0  0  0  0
    1.6039    2.3692    0.3889 H   0  0  0  0  0  0  0  0  0  0  0  0
    0.5061   -0.6392    1.2547 C   0  0  0  0  0  0  0  0  0  0  0  0
    1.7051   -0.6717    1.5006 O   0  0  0  0  0  0  0  0  0  0  0  0
   -0.3549   -0.2411    2.2608 N   0  0  0  0  0  0  0  0  0  0  0  0
   -1.3454   -0.2678    2.0442 H   0  0  0  0  0  0  0  0  0  0  0  0
    0.0595   -0.0801    3.6486 C   0  0  0  0  0  0  0  0  0  0  0  0
    0.8082    0.7142    3.7344 H   0  0  0  0  0  0  0  0  0  0  0  0
   -0.7995    0.1862    4.2714 H   0  0  0  0  0  0  0  0  0  0  0  0
    0.4893   -1.0126    4.0297 H   0  0  0  0  0  0  0  0  0  0  0  0
  1  2  1  0  0  0  0
  2  3  1  0  0  0  0
  2  4  1  0  0  0  0
  2  5  1  0  0  0  0
  5  6  2  0  0  0  0
  5  7  1  0  0  0  0
  7  8  1  0  0  0  0
  7  9  1  0  0  0  0
  9 10  1  0  0  0  0
  9 11  1  0  0  0  0
  9 24  1  0  0  0  0
 11 12  1  0  0  0  0
 11 13  1  0  0  0  0
 11 14  1  0  0  0  0
 14 15  1  0  0  0  0
 14 16  1  0  0  0  0
 14 20  1  0  0  0  0
 16 17  1  0  0  0  0
 16 18  1  0  0  0  0
 16 19  1  0  0  0  0
 20 21  1  0  0  0  0
 20 22  1  0  0  0  0
 20 23  1  0  0  0  0
 24 25  2  0  0  0  0
 24 26  1  0  0  0  0
 26 27  1  0  0  0  0
 26 28  1  0  0  0  0
 28 29  1  0  0  0  0
 28 30  1  0  0  0  0
 28 31  1  0  0  0  0
M  END
$$$$

  -OEChem-04042216013D

 31 30  0     1  0  0  0  0  0999 V2000
   -2.8027   -4.4122   -0.0016 H   0  0  0  0  0  0  0  0  0  0  0  0
   -2.7848   -3.3832   -0.3721 C   0  0  0  0  0  0  0  0  0  0  0  0
   -3.5999   -2.8271    0.0967 H   0  0  0  0  0  0  0  0  0  0  0  0
   -2.9356   -3.3971   -1.4542 H   0  0  0  0  0  0  0  0  0  0  0  0
   -1.4540   -2.7331   -0.0424 C   0  0  0  0  0  0  0  0  0  0  0  0
   -0.5989   -3.3672    0.5489 O   0  0  0  0  0  0  0  0  0  0  0  0
   -1.2269   -1.4186   -0.4005 N   0  0  0  0  0  0  0  0  0  0  0  0
   -1.9644   -0.9485   -0.9164 H   0  0  0  0  0  0  0  0  0  0  0  0
    0.0500   -0.7079   -0.2086 C   0  0  1  0  0  0  0  0  0  0  0  0
    0.7798   -1.4152   -0.6210 H   0  0  0  0  0  0  0  0  0  0  0  0
    0.1789    0.4884   -1.1887 C   0  0  0  0  0  0  0  0  0  0  0  0
    1.2513    0.5668   -1.4000 H   0  0  0  0  0  0  0  0  0  0  0  0
   -0.2899    0.1953   -2.1339 H   0  0  0  0  0  0  0  0  0  0  0  0
   -0.3272    1.9212   -0.8426 C   0  0  0  0  0  0  0  0  0  0  0  0
   -1.0927    2.1649   -1.5873 H   0  0  0  0  0  0  0  0  0  0  0  0
   -0.9763    2.1376    0.5243 C   0  0  0  0  0  0  0  0  0  0  0  0
   -0.2230    2.1311    1.3166 H   0  0  0  0  0  0  0  0  0  0  0  0
   -1.7322    1.3723    0.7204 H   0  0  0  0  0  0  0  0  0  0  0  0
   -1.4729    3.1126    0.5498 H   0  0  0  0  0  0  0  0  0  0  0  0
    0.8129    2.9369   -1.0010 C   0  0  0  0  0  0  0  0  0  0  0  0
    1.2325    2.8875   -2.0108 H   0  0  0  0  0  0  0  0  0  0  0  0
    0.4462    3.9546   -0.8339 H   0  0  0  0  0  0  0  0  0  0  0  0
    1.6123    2.7328   -0.2809 H   0  0  0  0  0  0  0  0  0  0  0  0
    0.5741   -0.5779    1.2436 C   0  0  0  0  0  0  0  0  0  0  0  0
    1.7831   -0.5465    1.4346 O   0  0  0  0  0  0  0  0  0  0  0  0
   -0.2600   -0.2225    2.2889 N   0  0  0  0  0  0  0  0  0  0  0  0
   -1.2565   -0.3058    2.1194 H   0  0  0  0  0  0  0  0  0  0  0  0
    0.2086   -0.0343    3.6562 C   0  0  0  0  0  0  0  0  0  0  0  0
    0.9496    0.7709    3.6999 H   0  0  0  0  0  0  0  0  0  0  0  0
   -0.6277    0.2317    4.3094 H   0  0  0  0  0  0  0  0  0  0  0  0
    0.6656   -0.9550    4.0337 H   0  0  0  0  0  0  0  0  0  0  0  0
  1  2  1  0  0  0  0
  2  3  1  0  0  0  0
  2  4  1  0  0  0  0
  2  5  1  0  0  0  0
  5  6  2  0  0  0  0
  5  7  1  0  0  0  0
  7  8  1  0  0  0  0
  7  9  1  0  0  0  0
  9 10  1  0  0  0  0
  9 11  1  0  0  0  0
  9 24  1  0  0  0  0
 11 12  1  0  0  0  0
 11 13  1  0  0  0  0
 11 14  1  0  0  0  0
 14 15  1  0  0  0  0
 14 16  1  0  0  0  0
 14 20  1  0  0  0  0
 16 17  1  0  0  0  0
 16 18  1  0  0  0  0
 16 19  1  0  0  0  0
 20 21  1  0  0  0  0
 20 22  1  0  0  0  0
 20 23  1  0  0  0  0
 24 25  2  0  0  0  0
 24 26  1  0  0  0  0
 26 27  1  0  0  0  0
 26 28  1  0  0  0  0
 28 29  1  0  0  0  0
 28 30  1  0  0  0  0
 28 31  1  0  0  0  0
M  END
$$$$

  -OEChem-04042216013D

 31 30  0     1  0  0  0  0  0999 V2000
   -2.8129   -4.3784   -0.0949 H   0  0  0  0  0  0  0  0  0  0  0  0
   -2.7938   -3.3409   -0.4408 C   0  0  0  0  0  0  0  0  0  0  0  0
   -3.6067   -2.7946    0.0432 H   0  0  0  0  0  0  0  0  0  0  0  0
   -2.9474   -3.3283   -1.5226 H   0  0  0  0  0  0  0  0  0  0  0  0
   -1.4609   -2.7016   -0.0992 C   0  0  0  0  0  0  0  0  0  0  0  0
   -0.6050   -3.3525    0.4723 O   0  0  0  0  0  0  0  0  0  0  0  0
   -1.2343   -1.3774   -0.4203 N   0  0  0  0  0  0  0  0  0  0  0  0
   -1.9718   -0.8940   -0.9239 H   0  0  0  0  0  0  0  0  0  0  0  0
    0.0465   -0.6759   -0.2221 C   0  0  1  0  0  0  0  0  0  0  0  0
    0.7716   -1.3716   -0.6616 H   0  0  0  0  0  0  0  0  0  0  0  0
    0.1604    0.5450   -1.1753 C   0  0  0  0  0  0  0  0  0  0  0  0
    1.2354    0.6345   -1.3682 H   0  0  0  0  0  0  0  0  0  0  0  0
   -0.2961    0.2750   -2.1331 H   0  0  0  0  0  0  0  0  0  0  0  0
   -0.3392    1.9719   -0.7982 C   0  0  0  0  0  0  0  0  0  0  0  0
   -1.2845    2.1175   -1.3318 H   0  0  0  0  0  0  0  0  0  0  0  0
   -0.6427    2.2667    0.6698 C   0  0  0  0  0  0  0  0  0  0  0  0
    0.2537    2.1443    1.2849 H   0  0  0  0  0  0  0  0  0  0  0  0
   -0.9883    3.2990    0.7836 H   0  0  0  0  0  0  0  0  0  0  0  0
   -1.4396    1.6127    1.0319 H   0  0  0  0  0  0  0  0  0  0  0  0
    0.6508    3.0227   -1.3198 C   0  0  0  0  0  0  0  0  0  0  0  0
    0.8330    2.8787   -2.3895 H   0  0  0  0  0  0  0  0  0  0  0  0
    0.2510    4.0313   -1.1750 H   0  0  0  0  0  0  0  0  0  0  0  0
    1.6063    2.9494   -0.7900 H   0  0  0  0  0  0  0  0  0  0  0  0
    0.5816   -0.5949    1.2294 C   0  0  0  0  0  0  0  0  0  0  0  0
    1.7919   -0.5780    1.4141 O   0  0  0  0  0  0  0  0  0  0  0  0
   -0.2462   -0.2710    2.2898 N   0  0  0  0  0  0  0  0  0  0  0  0
   -1.2431   -0.3556    2.1227 H   0  0  0  0  0  0  0  0  0  0  0  0
    0.2282   -0.1538    3.6627 C   0  0  0  0  0  0  0  0  0  0  0  0
    0.9967    0.6227    3.7378 H   0  0  0  0  0  0  0  0  0  0  0  0
   -0.5986    0.1150    4.3269 H   0  0  0  0  0  0  0  0  0  0  0  0
    0.6528   -1.1043    4.0022 H   0  0  0  0  0  0  0  0  0  0  0  0
  1  2  1  0  0  0  0
  2  3  1  0  0  0  0
  2  4  1  0  0  0  0
  2  5  1  0  0  0  0
  5  6  2  0  0  0  0
  5  7  1  0  0  0  0
  7  8  1  0  0  0  0
  7  9  1  0  0  0  0
  9 10  1  0  0  0  0
  9 11  1  0  0  0  0
  9 24  1  0  0  0  0
 11 12  1  0  0  0  0
 11 13  1  0  0  0  0
 11 14  1  0  0  0  0
 14 15  1  0  0  0  0
 14 16  1  0  0  0  0
 14 20  1  0  0  0  0
 16 17  1  0  0  0  0
 16 18  1  0  0  0  0
 16 19  1  0  0  0  0
 20 21  1  0  0  0  0
 20 22  1  0  0  0  0
 20 23  1  0  0  0  0
 24 25  2  0  0  0  0
 24 26  1  0  0  0  0
 26 27  1  0  0  0  0
 26 28  1  0  0  0  0
 28 29  1  0  0  0  0
 28 30  1  0  0  0  0
 28 31  1  0  0  0  0
M  END
$$$$

  -OEChem-04042216013D

 31 30  0     1  0  0  0  0  0999 V2000
   -2.8032   -4.3700   -0.0282 H   0  0  0  0  0  0  0  0  0  0  0  0
   -2.7862   -3.3402   -0.3966 C   0  0  0  0  0  0  0  0  0  0  0  0
   -3.5876   -2.7800    0.0908 H   0  0  0  0  0  0  0  0  0  0  0  0
   -2.9600   -3.3502   -1.4751 H   0  0  0  0  0  0  0  0  0  0  0  0
   -1.4442   -2.7005   -0.0936 C   0  0  0  0  0  0  0  0  0  0  0  0
   -0.5730   -3.3508    0.4550 O   0  0  0  0  0  0  0  0  0  0  0  0
   -1.2255   -1.3770   -0.4237 N   0  0  0  0  0  0  0  0  0  0  0  0
   -1.9769   -0.8928   -0.9055 H   0  0  0  0  0  0  0  0  0  0  0  0
    0.0541   -0.6687   -0.2390 C   0  0  1  0  0  0  0  0  0  0  0  0
    0.7829   -1.3556   -0.6864 H   0  0  0  0  0  0  0  0  0  0  0  0
    0.1390    0.5577   -1.1879 C   0  0  0  0  0  0  0  0  0  0  0  0
    1.2104    0.6656   -1.3914 H   0  0  0  0  0  0  0  0  0  0  0  0
   -0.3280    0.2882   -2.1408 H   0  0  0  0  0  0  0  0  0  0  0  0
   -0.3668    1.9755   -0.7950 C   0  0  0  0  0  0  0  0  0  0  0  0
   -1.4215    2.0264   -1.0855 H   0  0  0  0  0  0  0  0  0  0  0  0
   -0.3135    2.3780    0.6796 C   0  0  0  0  0  0  0  0  0  0  0  0
    0.6703    2.1646    1.1086 H   0  0  0  0  0  0  0  0  0  0  0  0
   -1.0896    1.8559    1.2421 H   0  0  0  0  0  0  0  0  0  0  0  0
   -0.5045    3.4500    0.7902 H   0  0  0  0  0  0  0  0  0  0  0  0
    0.3936    3.0208   -1.6230 C   0  0  0  0  0  0  0  0  0  0  0  0
    0.3394    2.7783   -2.6889 H   0  0  0  0  0  0  0  0  0  0  0  0
   -0.0395    4.0155   -1.4779 H   0  0  0  0  0  0  0  0  0  0  0  0
    1.4472    3.0557   -1.3266 H   0  0  0  0  0  0  0  0  0  0  0  0
    0.5904   -0.5828    1.2107 C   0  0  0  0  0  0  0  0  0  0  0  0
    1.8006   -0.5569    1.3954 O   0  0  0  0  0  0  0  0  0  0  0  0
   -0.2409   -0.2588    2.2681 N   0  0  0  0  0  0  0  0  0  0  0  0
   -1.2380   -0.3393    2.0999 H   0  0  0  0  0  0  0  0  0  0  0  0
    0.2334   -0.0987    3.6368 C   0  0  0  0  0  0  0  0  0  0  0  0
    0.9521    0.7252    3.6989 H   0  0  0  0  0  0  0  0  0  0  0  0
   -0.6046    0.1246    4.3037 H   0  0  0  0  0  0  0  0  0  0  0  0
    0.7184   -1.0172    3.9834 H   0  0  0  0  0  0  0  0  0  0  0  0
  1  2  1  0  0  0  0
  2  3  1  0  0  0  0
  2  4  1  0  0  0  0
  2  5  1  0  0  0  0
  5  6  2  0  0  0  0
  5  7  1  0  0  0  0
  7  8  1  0  0  0  0
  7  9  1  0  0  0  0
  9 10  1  0  0  0  0
  9 11  1  0  0  0  0
  9 24  1  0  0  0  0
 11 12  1  0  0  0  0
 11 13  1  0  0  0  0
 11 14  1  0  0  0  0
 14 15  1  0  0  0  0
 14 16  1  0  0  0  0
 14 20  1  0  0  0  0
 16 17  1  0  0  0  0
 16 18  1  0  0  0  0
 16 19  1  0  0  0  0
 20 21  1  0  0  0  0
 20 22  1  0  0  0  0
 20 23  1  0  0  0  0
 24 25  2  0  0  0  0
 24 26  1  0  0  0  0
 26 27  1  0  0  0  0
 26 28  1  0  0  0  0
 28 29  1  0  0  0  0
 28 30  1  0  0  0  0
 28 31  1  0  0  0  0
M  END
$$$$

  -OEChem-04042216013D

 31 30  0     1  0  0  0  0  0999 V2000
   -2.9183   -4.2720   -0.0091 H   0  0  0  0  0  0  0  0  0  0  0  0
   -2.8664   -3.2496   -0.3943 C   0  0  0  0  0  0  0  0  0  0  0  0
   -3.6507   -2.6550    0.0801 H   0  0  0  0  0  0  0  0  0  0  0  0
   -3.0356   -3.2724   -1.4735 H   0  0  0  0  0  0  0  0  0  0  0  0
   -1.5060   -2.6486   -0.0954 C   0  0  0  0  0  0  0  0  0  0  0  0
   -0.6586   -3.3182    0.4668 O   0  0  0  0  0  0  0  0  0  0  0  0
   -1.2432   -1.3389   -0.4474 N   0  0  0  0  0  0  0  0  0  0  0  0
   -1.9758   -0.8396   -0.9423 H   0  0  0  0  0  0  0  0  0  0  0  0
    0.0587   -0.6695   -0.2701 C   0  0  1  0  0  0  0  0  0  0  0  0
    0.7763   -1.3675   -0.7182 H   0  0  0  0  0  0  0  0  0  0  0  0
    0.1473    0.5677   -1.2041 C   0  0  0  0  0  0  0  0  0  0  0  0
    1.2132    0.6660   -1.4397 H   0  0  0  0  0  0  0  0  0  0  0  0
   -0.3566    0.3200   -2.1443 H   0  0  0  0  0  0  0  0  0  0  0  0
   -0.3226    1.9818   -0.7673 C   0  0  0  0  0  0  0  0  0  0  0  0
   -1.4174    1.9842   -0.7836 H   0  0  0  0  0  0  0  0  0  0  0  0
    0.1018    2.4618    0.6255 C   0  0  0  0  0  0  0  0  0  0  0  0
    1.1227    2.1414    0.8552 H   0  0  0  0  0  0  0  0  0  0  0  0
   -0.5835    2.0871    1.3864 H   0  0  0  0  0  0  0  0  0  0  0  0
    0.0696    3.5543    0.6828 H   0  0  0  0  0  0  0  0  0  0  0  0
    0.1614    2.9952   -1.8145 C   0  0  0  0  0  0  0  0  0  0  0  0
   -0.1543    2.6919   -2.8176 H   0  0  0  0  0  0  0  0  0  0  0  0
   -0.2581    3.9858   -1.6126 H   0  0  0  0  0  0  0  0  0  0  0  0
    1.2535    3.0722   -1.8011 H   0  0  0  0  0  0  0  0  0  0  0  0
    0.5697   -0.5893    1.1878 C   0  0  0  0  0  0  0  0  0  0  0  0
    1.7747   -0.6195    1.4025 O   0  0  0  0  0  0  0  0  0  0  0  0
   -0.2769   -0.2259    2.2197 N   0  0  0  0  0  0  0  0  0  0  0  0
   -1.2707   -0.2793    2.0239 H   0  0  0  0  0  0  0  0  0  0  0  0
    0.1615   -0.1175    3.6055 C   0  0  0  0  0  0  0  0  0  0  0  0
    0.9594    0.6268    3.6988 H   0  0  0  0  0  0  0  0  0  0  0  0
   -0.6725    0.1911    4.2428 H   0  0  0  0  0  0  0  0  0  0  0  0
    0.5351   -1.0823    3.9644 H   0  0  0  0  0  0  0  0  0  0  0  0
  1  2  1  0  0  0  0
  2  3  1  0  0  0  0
  2  4  1  0  0  0  0
  2  5  1  0  0  0  0
  5  6  2  0  0  0  0
  5  7  1  0  0  0  0
  7  8  1  0  0  0  0
  7  9  1  0  0  0  0
  9 10  1  0  0  0  0
  9 11  1  0  0  0  0
  9 24  1  0  0  0  0
 11 12  1  0  0  0  0
 11 13  1  0  0  0  0
 11 14  1  0  0  0  0
 14 15  1  0  0  0  0
 14 16  1  0  0  0  0
 14 20  1  0  0  0  0
 16 17  1  0  0  0  0
 16 18  1  0  0  0  0
 16 19  1  0  0  0  0
 20 21  1  0  0  0  0
 20 22  1  0  0  0  0
 20 23  1  0  0  0  0
 24 25  2  0  0  0  0
 24 26  1  0  0  0  0
 26 27  1  0  0  0  0
 26 28  1  0  0  0  0
 28 29  1  0  0  0  0
 28 30  1  0  0  0  0
 28 31  1  0  0  0  0
M  END
$$$$

  -OEChem-04042216013D

 31 30  0     1  0  0  0  0  0999 V2000
   -2.8621   -4.2811    0.0438 H   0  0  0  0  0  0  0  0  0  0  0  0
   -2.8244   -3.2634   -0.3556 C   0  0  0  0  0  0  0  0  0  0  0  0
   -3.6110   -2.6711    0.1177 H   0  0  0  0  0  0  0  0  0  0  0  0
   -3.0034   -3.3025   -1.4327 H   0  0  0  0  0  0  0  0  0  0  0  0
   -1.4675   -2.6444   -0.0766 C   0  0  0  0  0  0  0  0  0  0  0  0
   -0.6149   -3.2924    0.5028 O   0  0  0  0  0  0  0  0  0  0  0  0
   -1.2125   -1.3452   -0.4715 N   0  0  0  0  0  0  0  0  0  0  0  0
   -1.9460   -0.8701   -0.9885 H   0  0  0  0  0  0  0  0  0  0  0  0
    0.0879   -0.6646   -0.3218 C   0  0  1  0  0  0  0  0  0  0  0  0
    0.8161   -1.3486   -0.7734 H   0  0  0  0  0  0  0  0  0  0  0  0
    0.1225    0.5850   -1.2404 C   0  0  0  0  0  0  0  0  0  0  0  0
    1.1700    0.7154   -1.5341 H   0  0  0  0  0  0  0  0  0  0  0  0
   -0.4284    0.3429   -2.1552 H   0  0  0  0  0  0  0  0  0  0  0  0
   -0.3619    1.9658   -0.7290 C   0  0  0  0  0  0  0  0  0  0  0  0
   -1.4175    1.8801   -0.4512 H   0  0  0  0  0  0  0  0  0  0  0  0
    0.4017    2.5240    0.4837 C   0  0  0  0  0  0  0  0  0  0  0  0
    1.4499    2.2090    0.4620 H   0  0  0  0  0  0  0  0  0  0  0  0
    0.3769    3.6182    0.4873 H   0  0  0  0  0  0  0  0  0  0  0  0
   -0.0519    2.1992    1.4194 H   0  0  0  0  0  0  0  0  0  0  0  0
   -0.2583    2.9699   -1.8860 C   0  0  0  0  0  0  0  0  0  0  0  0
   -0.8208    2.6158   -2.7555 H   0  0  0  0  0  0  0  0  0  0  0  0
   -0.6700    3.9399   -1.5897 H   0  0  0  0  0  0  0  0  0  0  0  0
    0.7866    3.1115   -2.1810 H   0  0  0  0  0  0  0  0  0  0  0  0
    0.5830   -0.5483    1.1383 C   0  0  0  0  0  0  0  0  0  0  0  0
    1.7841   -0.5827    1.3732 O   0  0  0  0  0  0  0  0  0  0  0  0
   -0.2833   -0.1611    2.1458 N   0  0  0  0  0  0  0  0  0  0  0  0
   -1.2727   -0.2119    1.9291 H   0  0  0  0  0  0  0  0  0  0  0  0
    0.1246   -0.0493    3.5406 C   0  0  0  0  0  0  0  0  0  0  0  0
    0.9411    0.6730    3.6457 H   0  0  0  0  0  0  0  0  0  0  0  0
   -0.7151    0.2900    4.1544 H   0  0  0  0  0  0  0  0  0  0  0  0
    0.4615   -1.0203    3.9186 H   0  0  0  0  0  0  0  0  0  0  0  0
  1  2  1  0  0  0  0
  2  3  1  0  0  0  0
  2  4  1  0  0  0  0
  2  5  1  0  0  0  0
  5  6  2  0  0  0  0
  5  7  1  0  0  0  0
  7  8  1  0  0  0  0
  7  9  1  0  0  0  0
  9 10  1  0  0  0  0
  9 11  1  0  0  0  0
  9 24  1  0  0  0  0
 11 12  1  0  0  0  0
 11 13  1  0  0  0  0
 11 14  1  0  0  0  0
 14 15  1  0  0  0  0
 14 16  1  0  0  0  0
 14 20  1  0  0  0  0
 16 17  1  0  0  0  0
 16 18  1  0  0  0  0
 16 19  1  0  0  0  0
 20 21  1  0  0  0  0
 20 22  1  0  0  0  0
 20 23  1  0  0  0  0
 24 25  2  0  0  0  0
 24 26  1  0  0  0  0
 26 27  1  0  0  0  0
 26 28  1  0  0  0  0
 28 29  1  0  0  0  0
 28 30  1  0  0  0  0
 28 31  1  0  0  0  0
M  END
$$$$

  -OEChem-04042216013D

 31 30  0     1  0  0  0  0  0999 V2000
   -2.8674   -4.2576    0.1199 H   0  0  0  0  0  0  0  0  0  0  0  0
   -2.8129   -3.2572   -0.3192 C   0  0  0  0  0  0  0  0  0  0  0  0
   -3.5950   -2.6362    0.1239 H   0  0  0  0  0  0  0  0  0  0  0  0
   -2.9837   -3.3364   -1.3955 H   0  0  0  0  0  0  0  0  0  0  0  0
   -1.4498   -2.6462   -0.0541 C   0  0  0  0  0  0  0  0  0  0  0  0
   -0.6099   -3.2818    0.5564 O   0  0  0  0  0  0  0  0  0  0  0  0
   -1.1753   -1.3676   -0.4994 N   0  0  0  0  0  0  0  0  0  0  0  0
   -1.8979   -0.9064   -1.0437 H   0  0  0  0  0  0  0  0  0  0  0  0
    0.1289   -0.6917   -0.3583 C   0  0  1  0  0  0  0  0  0  0  0  0
    0.8689   -1.3720   -0.7957 H   0  0  0  0  0  0  0  0  0  0  0  0
    0.1300    0.5621   -1.2704 C   0  0  0  0  0  0  0  0  0  0  0  0
    1.1626    0.7153   -1.6024 H   0  0  0  0  0  0  0  0  0  0  0  0
   -0.4494    0.3233   -2.1684 H   0  0  0  0  0  0  0  0  0  0  0  0
   -0.3656    1.9134   -0.6961 C   0  0  0  0  0  0  0  0  0  0  0  0
   -1.3006    1.7412   -0.1529 H   0  0  0  0  0  0  0  0  0  0  0  0
    0.6309    2.6014    0.2556 C   0  0  0  0  0  0  0  0  0  0  0  0
    1.6124    2.6901   -0.2209 H   0  0  0  0  0  0  0  0  0  0  0  0
    0.2791    3.6072    0.5049 H   0  0  0  0  0  0  0  0  0  0  0  0
    0.7556    2.0647    1.1937 H   0  0  0  0  0  0  0  0  0  0  0  0
   -0.6589    2.8696   -1.8598 C   0  0  0  0  0  0  0  0  0  0  0  0
   -1.4074    2.4393   -2.5326 H   0  0  0  0  0  0  0  0  0  0  0  0
   -1.0485    3.8214   -1.4849 H   0  0  0  0  0  0  0  0  0  0  0  0
    0.2521    3.0687   -2.4337 H   0  0  0  0  0  0  0  0  0  0  0  0
    0.5883   -0.5242    1.1069 C   0  0  0  0  0  0  0  0  0  0  0  0
    1.7817   -0.5615    1.3771 O   0  0  0  0  0  0  0  0  0  0  0  0
   -0.3064   -0.0888    2.0700 N   0  0  0  0  0  0  0  0  0  0  0  0
   -1.2891   -0.1481    1.8267 H   0  0  0  0  0  0  0  0  0  0  0  0
    0.0608    0.0811    3.4698 C   0  0  0  0  0  0  0  0  0  0  0  0
    0.8677    0.8146    3.5686 H   0  0  0  0  0  0  0  0  0  0  0  0
   -0.7990    0.4361    4.0455 H   0  0  0  0  0  0  0  0  0  0  0  0
    0.3954   -0.8710    3.8947 H   0  0  0  0  0  0  0  0  0  0  0  0
  1  2  1  0  0  0  0
  2  3  1  0  0  0  0
  2  4  1  0  0  0  0
  2  5  1  0  0  0  0
  5  6  2  0  0  0  0
  5  7  1  0  0  0  0
  7  8  1  0  0  0  0
  7  9  1  0  0  0  0
  9 10  1  0  0  0  0
  9 11  1  0  0  0  0
  9 24  1  0  0  0  0
 11 12  1  0  0  0  0
 11 13  1  0  0  0  0
 11 14  1  0  0  0  0
 14 15  1  0  0  0  0
 14 16  1  0  0  0  0
 14 20  1  0  0  0  0
 16 17  1  0  0  0  0
 16 18  1  0  0  0  0
 16 19  1  0  0  0  0
 20 21  1  0  0  0  0
 20 22  1  0  0  0  0
 20 23  1  0  0  0  0
 24 25  2  0  0  0  0
 24 26  1  0  0  0  0
 26 27  1  0  0  0  0
 26 28  1  0  0  0  0
 28 29  1  0  0  0  0
 28 30  1  0  0  0  0
 28 31  1  0  0  0  0
M  END
$$$$

  -OEChem-04042216013D

 31 30  0     1  0  0  0  0  0999 V2000
   -2.8574   -4.2852    0.1020 H   0  0  0  0  0  0  0  0  0  0  0  0
   -2.8083   -3.2863   -0.3409 C   0  0  0  0  0  0  0  0  0  0  0  0
   -3.6082   -2.6745    0.0826 H   0  0  0  0  0  0  0  0  0  0  0  0
   -2.9557   -3.3739   -1.4200 H   0  0  0  0  0  0  0  0  0  0  0  0
   -1.4605   -2.6532   -0.0504 C   0  0  0  0  0  0  0  0  0  0  0  0
   -0.6361   -3.2591    0.6096 O   0  0  0  0  0  0  0  0  0  0  0  0
   -1.1826   -1.3864   -0.5256 N   0  0  0  0  0  0  0  0  0  0  0  0
   -1.8880   -0.9506   -1.1117 H   0  0  0  0  0  0  0  0  0  0  0  0
    0.1168   -0.7050   -0.3757 C   0  0  1  0  0  0  0  0  0  0  0  0
    0.8630   -1.3902   -0.7947 H   0  0  0  0  0  0  0  0  0  0  0  0
    0.1299    0.5421   -1.2927 C   0  0  0  0  0  0  0  0  0  0  0  0
    1.1616    0.7065   -1.6224 H   0  0  0  0  0  0  0  0  0  0  0  0
   -0.4464    0.3089   -2.1940 H   0  0  0  0  0  0  0  0  0  0  0  0
   -0.3896    1.8595   -0.6670 C   0  0  0  0  0  0  0  0  0  0  0  0
   -1.1675    1.6345    0.0689 H   0  0  0  0  0  0  0  0  0  0  0  0
    0.7325    2.6654    0.0086 C   0  0  0  0  0  0  0  0  0  0  0  0
    1.5103    2.9252   -0.7166 H   0  0  0  0  0  0  0  0  0  0  0  0
    0.3311    3.5920    0.4306 H   0  0  0  0  0  0  0  0  0  0  0  0
    1.1980    2.1034    0.8207 H   0  0  0  0  0  0  0  0  0  0  0  0
   -1.0165    2.7343   -1.7604 C   0  0  0  0  0  0  0  0  0  0  0  0
   -1.8601    2.2175   -2.2284 H   0  0  0  0  0  0  0  0  0  0  0  0
   -1.3867    3.6723   -1.3344 H   0  0  0  0  0  0  0  0  0  0  0  0
   -0.2798    2.9716   -2.5348 H   0  0  0  0  0  0  0  0  0  0  0  0
    0.5776   -0.4807    1.0834 C   0  0  0  0  0  0  0  0  0  0  0  0
    1.7717   -0.5145    1.3509 O   0  0  0  0  0  0  0  0  0  0  0  0
   -0.3089   -0.0101    2.0365 N   0  0  0  0  0  0  0  0  0  0  0  0
   -1.2941   -0.0833    1.8068 H   0  0  0  0  0  0  0  0  0  0  0  0
    0.0733    0.2346    3.4212 C   0  0  0  0  0  0  0  0  0  0  0  0
    0.8652    0.9891    3.4727 H   0  0  0  0  0  0  0  0  0  0  0  0
   -0.7863    0.5987    3.9918 H   0  0  0  0  0  0  0  0  0  0  0  0
    0.4348   -0.6883    3.8873 H   0  0  0  0  0  0  0  0  0  0  0  0
  1  2  1  0  0  0  0
  2  3  1  0  0  0  0
  2  4  1  0  0  0  0
  2  5  1  0  0  0  0
  5  6  2  0  0  0  0
  5  7  1  0  0  0  0
  7  8  1  0  0  0  0
  7  9  1  0  0  0  0
  9 10  1  0  0  0  0
  9 11  1  0  0  0  0
  9 24  1  0  0  0  0
 11 12  1  0  0  0  0
 11 13  1  0  0  0  0
 11 14  1  0  0  0  0
 14 15  1  0  0  0  0
 14 16  1  0  0  0  0
 14 20  1  0  0  0  0
 16 17  1  0  0  0  0
 16 18  1  0  0  0  0
 16 19  1  0  0  0  0
 20 21  1  0  0  0  0
 20 22  1  0  0  0  0
 20 23  1  0  0  0  0
 24 25  2  0  0  0  0
 24 26  1  0  0  0  0
 26 27  1  0  0  0  0
 26 28  1  0  0  0  0
 28 29  1  0  0  0  0
 28 30  1  0  0  0  0
 28 31  1  0  0  0  0
M  END
$$$$

  -OEChem-04042216013D

 31 30  0     1  0  0  0  0  0999 V2000
   -2.8397   -4.3206    0.0735 H   0  0  0  0  0  0  0  0  0  0  0  0
   -2.8056   -3.3173   -0.3608 C   0  0  0  0  0  0  0  0  0  0  0  0
   -3.6204   -2.7241    0.0611 H   0  0  0  0  0  0  0  0  0  0  0  0
   -2.9431   -3.3983   -1.4417 H   0  0  0  0  0  0  0  0  0  0  0  0
   -1.4719   -2.6619   -0.0541 C   0  0  0  0  0  0  0  0  0  0  0  0
   -0.6446   -3.2548    0.6142 O   0  0  0  0  0  0  0  0  0  0  0  0
   -1.2101   -1.3892   -0.5219 N   0  0  0  0  0  0  0  0  0  0  0  0
   -1.9164   -0.9623   -1.1135 H   0  0  0  0  0  0  0  0  0  0  0  0
    0.0804   -0.6943   -0.3651 C   0  0  1  0  0  0  0  0  0  0  0  0
    0.8268   -1.3825   -0.7785 H   0  0  0  0  0  0  0  0  0  0  0  0
    0.1199    0.5447   -1.2880 C   0  0  0  0  0  0  0  0  0  0  0  0
    1.1605    0.7007   -1.5930 H   0  0  0  0  0  0  0  0  0  0  0  0
   -0.4327    0.3114   -2.2042 H   0  0  0  0  0  0  0  0  0  0  0  0
   -0.4143    1.8575   -0.6625 C   0  0  0  0  0  0  0  0  0  0  0  0
   -1.0099    1.6472    0.2286 H   0  0  0  0  0  0  0  0  0  0  0  0
    0.7409    2.7993   -0.2973 C   0  0  0  0  0  0  0  0  0  0  0  0
    1.3194    3.0706   -1.1863 H   0  0  0  0  0  0  0  0  0  0  0  0
    0.3557    3.7163    0.1591 H   0  0  0  0  0  0  0  0  0  0  0  0
    1.4129    2.3175    0.4199 H   0  0  0  0  0  0  0  0  0  0  0  0
   -1.3281    2.5765   -1.6631 C   0  0  0  0  0  0  0  0  0  0  0  0
   -2.1877    1.9477   -1.9154 H   0  0  0  0  0  0  0  0  0  0  0  0
   -1.7035    3.5109   -1.2339 H   0  0  0  0  0  0  0  0  0  0  0  0
   -0.7848    2.8111   -2.5844 H   0  0  0  0  0  0  0  0  0  0  0  0
    0.5616   -0.4599    1.0878 C   0  0  0  0  0  0  0  0  0  0  0  0
    1.7625   -0.4523    1.3255 O   0  0  0  0  0  0  0  0  0  0  0  0
   -0.3085    0.0021    2.0599 N   0  0  0  0  0  0  0  0  0  0  0  0
   -1.2980   -0.0928    1.8575 H   0  0  0  0  0  0  0  0  0  0  0  0
    0.1054    0.2712    3.4312 C   0  0  0  0  0  0  0  0  0  0  0  0
    0.8794    1.0456    3.4537 H   0  0  0  0  0  0  0  0  0  0  0  0
   -0.7467    0.6200    4.0223 H   0  0  0  0  0  0  0  0  0  0  0  0
    0.5025   -0.6378    3.8956 H   0  0  0  0  0  0  0  0  0  0  0  0
  1  2  1  0  0  0  0
  2  3  1  0  0  0  0
  2  4  1  0  0  0  0
  2  5  1  0  0  0  0
  5  6  2  0  0  0  0
  5  7  1  0  0  0  0
  7  8  1  0  0  0  0
  7  9  1  0  0  0  0
  9 10  1  0  0  0  0
  9 11  1  0  0  0  0
  9 24  1  0  0  0  0
 11 12  1  0  0  0  0
 11 13  1  0  0  0  0
 11 14  1  0  0  0  0
 14 15  1  0  0  0  0
 14 16  1  0  0  0  0
 14 20  1  0  0  0  0
 16 17  1  0  0  0  0
 16 18  1  0  0  0  0
 16 19  1  0  0  0  0
 20 21  1  0  0  0  0
 20 22  1  0  0  0  0
 20 23  1  0  0  0  0
 24 25  2  0  0  0  0
 24 26  1  0  0  0  0
 26 27  1  0  0  0  0
 26 28  1  0  0  0  0
 28 29  1  0  0  0  0
 28 30  1  0  0  0  0
 28 31  1  0  0  0  0
M  END
$$$$

  -OEChem-04042216013D

 31 30  0     1  0  0  0  0  0999 V2000
   -2.8338   -4.3209    0.0752 H   0  0  0  0  0  0  0  0  0  0  0  0
   -2.8019   -3.3161   -0.3560 C   0  0  0  0  0  0  0  0  0  0  0  0
   -3.6121   -2.7228    0.0747 H   0  0  0  0  0  0  0  0  0  0  0  0
   -2.9480   -3.3930   -1.4362 H   0  0  0  0  0  0  0  0  0  0  0  0
   -1.4649   -2.6640   -0.0580 C   0  0  0  0  0  0  0  0  0  0  0  0
   -0.6288   -3.2644    0.5924 O   0  0  0  0  0  0  0  0  0  0  0  0
   -1.2117   -1.3841   -0.5104 N   0  0  0  0  0  0  0  0  0  0  0  0
   -1.9267   -0.9491   -1.0855 H   0  0  0  0  0  0  0  0  0  0  0  0
    0.0747   -0.6833   -0.3503 C   0  0  1  0  0  0  0  0  0  0  0  0
    0.8218   -1.3695   -0.7662 H   0  0  0  0  0  0  0  0  0  0  0  0
    0.1173    0.5545   -1.2753 C   0  0  0  0  0  0  0  0  0  0  0  0
    1.1669    0.7032   -1.5512 H   0  0  0  0  0  0  0  0  0  0  0  0
   -0.4077    0.3210   -2.2075 H   0  0  0  0  0  0  0  0  0  0  0  0
   -0.4196    1.8796   -0.6734 C   0  0  0  0  0  0  0  0  0  0  0  0
   -0.7663    1.7352    0.3501 H   0  0  0  0  0  0  0  0  0  0  0  0
    0.6760    2.9524   -0.6613 C   0  0  0  0  0  0  0  0  0  0  0  0
    1.0315    3.1566   -1.6763 H   0  0  0  0  0  0  0  0  0  0  0  0
    0.2940    3.8841   -0.2325 H   0  0  0  0  0  0  0  0  0  0  0  0
    1.5244    2.6194   -0.0544 H   0  0  0  0  0  0  0  0  0  0  0  0
   -1.6140    2.3849   -1.4912 C   0  0  0  0  0  0  0  0  0  0  0  0
   -2.4173    1.6418   -1.4905 H   0  0  0  0  0  0  0  0  0  0  0  0
   -2.0049    3.3122   -1.0607 H   0  0  0  0  0  0  0  0  0  0  0  0
   -1.3196    2.5811   -2.5273 H   0  0  0  0  0  0  0  0  0  0  0  0
    0.5588   -0.4647    1.1042 C   0  0  0  0  0  0  0  0  0  0  0  0
    1.7606   -0.4423    1.3361 O   0  0  0  0  0  0  0  0  0  0  0  0
   -0.3118   -0.0215    2.0846 N   0  0  0  0  0  0  0  0  0  0  0  0
   -1.3010   -0.1216    1.8836 H   0  0  0  0  0  0  0  0  0  0  0  0
    0.1037    0.2381    3.4570 C   0  0  0  0  0  0  0  0  0  0  0  0
    0.8721    1.0179    3.4840 H   0  0  0  0  0  0  0  0  0  0  0  0
   -0.7494    0.5751    4.0532 H   0  0  0  0  0  0  0  0  0  0  0  0
    0.5087   -0.6718    3.9124 H   0  0  0  0  0  0  0  0  0  0  0  0
  1  2  1  0  0  0  0
  2  3  1  0  0  0  0
  2  4  1  0  0  0  0
  2  5  1  0  0  0  0
  5  6  2  0  0  0  0
  5  7  1  0  0  0  0
  7  8  1  0  0  0  0
  7  9  1  0  0  0  0
  9 10  1  0  0  0  0
  9 11  1  0  0  0  0
  9 24  1  0  0  0  0
 11 12  1  0  0  0  0
 11 13  1  0  0  0  0
 11 14  1  0  0  0  0
 14 15  1  0  0  0  0
 14 16  1  0  0  0  0
 14 20  1  0  0  0  0
 16 17  1  0  0  0  0
 16 18  1  0  0  0  0
 16 19  1  0  0  0  0
 20 21  1  0  0  0  0
 20 22  1  0  0  0  0
 20 23  1  0  0  0  0
 24 25  2  0  0  0  0
 24 26  1  0  0  0  0
 26 27  1  0  0  0  0
 26 28  1  0  0  0  0
 28 29  1  0  0  0  0
 28 30  1  0  0  0  0
 28 31  1  0  0  0  0
M  END
$$$$

  -OEChem-04042216013D

 31 30  0     1  0  0  0  0  0999 V2000
   -2.8265   -4.3170    0.0788 H   0  0  0  0  0  0  0  0  0  0  0  0
   -2.7928   -3.3127   -0.3534 C   0  0  0  0  0  0  0  0  0  0  0  0
   -3.6018   -2.7179    0.0774 H   0  0  0  0  0  0  0  0  0  0  0  0
   -2.9401   -3.3902   -1.4333 H   0  0  0  0  0  0  0  0  0  0  0  0
   -1.4545   -2.6622   -0.0571 C   0  0  0  0  0  0  0  0  0  0  0  0
   -0.6182   -3.2640    0.5915 O   0  0  0  0  0  0  0  0  0  0  0  0
   -1.2007   -1.3816   -0.5077 N   0  0  0  0  0  0  0  0  0  0  0  0
   -1.9173   -0.9440   -1.0785 H   0  0  0  0  0  0  0  0  0  0  0  0
    0.0861   -0.6808   -0.3481 C   0  0  1  0  0  0  0  0  0  0  0  0
    0.8351   -1.3630   -0.7670 H   0  0  0  0  0  0  0  0  0  0  0  0
    0.1162    0.5608   -1.2701 C   0  0  0  0  0  0  0  0  0  0  0  0
    1.1702    0.7111   -1.5288 H   0  0  0  0  0  0  0  0  0  0  0  0
   -0.3966    0.3345   -2.2105 H   0  0  0  0  0  0  0  0  0  0  0  0
   -0.4183    1.8896   -0.6760 C   0  0  0  0  0  0  0  0  0  0  0  0
   -0.4689    1.8397    0.4118 H   0  0  0  0  0  0  0  0  0  0  0  0
    0.5254    3.0491   -1.0145 C   0  0  0  0  0  0  0  0  0  0  0  0
    0.6303    3.1585   -2.0985 H   0  0  0  0  0  0  0  0  0  0  0  0
    0.1382    3.9877   -0.6060 H   0  0  0  0  0  0  0  0  0  0  0  0
    1.5160    2.8720   -0.5830 H   0  0  0  0  0  0  0  0  0  0  0  0
   -1.8291    2.1799   -1.1992 C   0  0  0  0  0  0  0  0  0  0  0  0
   -2.5084    1.3637   -0.9356 H   0  0  0  0  0  0  0  0  0  0  0  0
   -2.2152    3.1038   -0.7571 H   0  0  0  0  0  0  0  0  0  0  0  0
   -1.8234    2.2934   -2.2881 H   0  0  0  0  0  0  0  0  0  0  0  0
    0.5622   -0.4696    1.1095 C   0  0  0  0  0  0  0  0  0  0  0  0
    1.7622   -0.4464    1.3496 O   0  0  0  0  0  0  0  0  0  0  0  0
   -0.3178   -0.0308    2.0838 N   0  0  0  0  0  0  0  0  0  0  0  0
   -1.3053   -0.1267    1.8723 H   0  0  0  0  0  0  0  0  0  0  0  0
    0.0847    0.2222    3.4613 C   0  0  0  0  0  0  0  0  0  0  0  0
    0.8526    1.0021    3.4996 H   0  0  0  0  0  0  0  0  0  0  0  0
   -0.7744    0.5561    4.0509 H   0  0  0  0  0  0  0  0  0  0  0  0
    0.4856   -0.6899    3.9160 H   0  0  0  0  0  0  0  0  0  0  0  0
  1  2  1  0  0  0  0
  2  3  1  0  0  0  0
  2  4  1  0  0  0  0
  2  5  1  0  0  0  0
  5  6  2  0  0  0  0
  5  7  1  0  0  0  0
  7  8  1  0  0  0  0
  7  9  1  0  0  0  0
  9 10  1  0  0  0  0
  9 11  1  0  0  0  0
  9 24  1  0  0  0  0
 11 12  1  0  0  0  0
 11 13  1  0  0  0  0
 11 14  1  0  0  0  0
 14 15  1  0  0  0  0
 14 16  1  0  0  0  0
 14 20  1  0  0  0  0
 16 17  1  0  0  0  0
 16 18  1  0  0  0  0
 16 19  1  0  0  0  0
 20 21  1  0  0  0  0
 20 22  1  0  0  0  0
 20 23  1  0  0  0  0
 24 25  2  0  0  0  0
 24 26  1  0  0  0  0
 26 27  1  0  0  0  0
 26 28  1  0  0  0  0
 28 29  1  0  0  0  0
 28 30  1  0  0  0  0
 28 31  1  0  0  0  0
M  END
$$$$

  -OEChem-04042216013D

 31 30  0     1  0  0  0  0  0999 V2000
   -2.8159   -4.3178    0.0920 H   0  0  0  0  0  0  0  0  0  0  0  0
   -2.7806   -3.3164   -0.3466 C   0  0  0  0  0  0  0  0  0  0  0  0
   -3.5874   -2.7168    0.0813 H   0  0  0  0  0  0  0  0  0  0  0  0
   -2.9290   -3.4002   -1.4258 H   0  0  0  0  0  0  0  0  0  0  0  0
   -1.4408   -2.6669   -0.0560 C   0  0  0  0  0  0  0  0  0  0  0  0
   -0.6049   -3.2659    0.5959 O   0  0  0  0  0  0  0  0  0  0  0  0
   -1.1844   -1.3915   -0.5193 N   0  0  0  0  0  0  0  0  0  0  0  0
   -1.8990   -0.9592   -1.0970 H   0  0  0  0  0  0  0  0  0  0  0  0
    0.1031   -0.6909   -0.3652 C   0  0  1  0  0  0  0  0  0  0  0  0
    0.8568   -1.3661   -0.7866 H   0  0  0  0  0  0  0  0  0  0  0  0
    0.1146    0.5621   -1.2735 C   0  0  0  0  0  0  0  0  0  0  0  0
    1.1651    0.7241   -1.5385 H   0  0  0  0  0  0  0  0  0  0  0  0
   -0.4108    0.3499   -2.2104 H   0  0  0  0  0  0  0  0  0  0  0  0
   -0.4157    1.8801   -0.6574 C   0  0  0  0  0  0  0  0  0  0  0  0
   -0.1813    1.9283    0.4078 H   0  0  0  0  0  0  0  0  0  0  0  0
    0.2901    3.0822   -1.2950 C   0  0  0  0  0  0  0  0  0  0  0  0
    0.1250    3.0966   -2.3770 H   0  0  0  0  0  0  0  0  0  0  0  0
   -0.0919    4.0168   -0.8725 H   0  0  0  0  0  0  0  0  0  0  0  0
    1.3676    3.0386   -1.1061 H   0  0  0  0  0  0  0  0  0  0  0  0
   -1.9347    1.9883   -0.8267 C   0  0  0  0  0  0  0  0  0  0  0  0
   -2.4359    1.1569   -0.3231 H   0  0  0  0  0  0  0  0  0  0  0  0
   -2.2996    2.9223   -0.3881 H   0  0  0  0  0  0  0  0  0  0  0  0
   -2.2080    1.9734   -1.8865 H   0  0  0  0  0  0  0  0  0  0  0  0
    0.5651   -0.4721    1.0949 C   0  0  0  0  0  0  0  0  0  0  0  0
    1.7620   -0.4526    1.3500 O   0  0  0  0  0  0  0  0  0  0  0  0
   -0.3278   -0.0255    2.0538 N   0  0  0  0  0  0  0  0  0  0  0  0
   -1.3124   -0.1171    1.8277 H   0  0  0  0  0  0  0  0  0  0  0  0
    0.0564    0.2355    3.4348 C   0  0  0  0  0  0  0  0  0  0  0  0
    0.8253    1.0140    3.4783 H   0  0  0  0  0  0  0  0  0  0  0  0
   -0.8097    0.5744    4.0109 H   0  0  0  0  0  0  0  0  0  0  0  0
    0.4497   -0.6746    3.8998 H   0  0  0  0  0  0  0  0  0  0  0  0
  1  2  1  0  0  0  0
  2  3  1  0  0  0  0
  2  4  1  0  0  0  0
  2  5  1  0  0  0  0
  5  6  2  0  0  0  0
  5  7  1  0  0  0  0
  7  8  1  0  0  0  0
  7  9  1  0  0  0  0
  9 10  1  0  0  0  0
  9 11  1  0  0  0  0
  9 24  1  0  0  0  0
 11 12  1  0  0  0  0
 11 13  1  0  0  0  0
 11 14  1  0  0  0  0
 14 15  1  0  0  0  0
 14 16  1  0  0  0  0
 14 20  1  0  0  0  0
 16 17  1  0  0  0  0
 16 18  1  0  0  0  0
 16 19  1  0  0  0  0
 20 21  1  0  0  0  0
 20 22  1  0  0  0  0
 20 23  1  0  0  0  0
 24 25  2  0  0  0  0
 24 26  1  0  0  0  0
 26 27  1  0  0  0  0
 26 28  1  0  0  0  0
 28 29  1  0  0  0  0
 28 30  1  0  0  0  0
 28 31  1  0  0  0  0
M  END
$$$$

  -OEChem-04042216013D

 31 30  0     1  0  0  0  0  0999 V2000
   -2.8038   -4.3337    0.0921 H   0  0  0  0  0  0  0  0  0  0  0  0
   -2.7728   -3.3320   -0.3462 C   0  0  0  0  0  0  0  0  0  0  0  0
   -3.5816   -2.7356    0.0827 H   0  0  0  0  0  0  0  0  0  0  0  0
   -2.9225   -3.4165   -1.4252 H   0  0  0  0  0  0  0  0  0  0  0  0
   -1.4346   -2.6782   -0.0574 C   0  0  0  0  0  0  0  0  0  0  0  0
   -0.5968   -3.2731    0.5957 O   0  0  0  0  0  0  0  0  0  0  0  0
   -1.1816   -1.4040   -0.5253 N   0  0  0  0  0  0  0  0  0  0  0  0
   -1.8998   -0.9731   -1.0994 H   0  0  0  0  0  0  0  0  0  0  0  0
    0.1037   -0.6984   -0.3734 C   0  0  1  0  0  0  0  0  0  0  0  0
    0.8597   -1.3686   -0.7988 H   0  0  0  0  0  0  0  0  0  0  0  0
    0.1099    0.5627   -1.2693 C   0  0  0  0  0  0  0  0  0  0  0  0
    1.1557    0.7378   -1.5449 H   0  0  0  0  0  0  0  0  0  0  0  0
   -0.4309    0.3580   -2.1993 H   0  0  0  0  0  0  0  0  0  0  0  0
   -0.4210    1.8673   -0.6319 C   0  0  0  0  0  0  0  0  0  0  0  0
    0.0323    2.0160    0.3526 H   0  0  0  0  0  0  0  0  0  0  0  0
   -0.0083    3.0645   -1.4955 C   0  0  0  0  0  0  0  0  0  0  0  0
   -0.4128    2.9692   -2.5080 H   0  0  0  0  0  0  0  0  0  0  0  0
   -0.3810    3.9961   -1.0584 H   0  0  0  0  0  0  0  0  0  0  0  0
    1.0824    3.1314   -1.5606 H   0  0  0  0  0  0  0  0  0  0  0  0
   -1.9471    1.8374   -0.4798 C   0  0  0  0  0  0  0  0  0  0  0  0
   -2.2536    1.0374    0.1990 H   0  0  0  0  0  0  0  0  0  0  0  0
   -2.3048    2.7861   -0.0674 H   0  0  0  0  0  0  0  0  0  0  0  0
   -2.4290    1.6777   -1.4495 H   0  0  0  0  0  0  0  0  0  0  0  0
    0.5697   -0.4693    1.0837 C   0  0  0  0  0  0  0  0  0  0  0  0
    1.7672   -0.4487    1.3361 O   0  0  0  0  0  0  0  0  0  0  0  0
   -0.3207   -0.0196    2.0427 N   0  0  0  0  0  0  0  0  0  0  0  0
   -1.3055   -0.1119    1.8184 H   0  0  0  0  0  0  0  0  0  0  0  0
    0.0652    0.2428    3.4229 C   0  0  0  0  0  0  0  0  0  0  0  0
    0.8356    1.0199    3.4642 H   0  0  0  0  0  0  0  0  0  0  0  0
   -0.7999    0.5841    3.9991 H   0  0  0  0  0  0  0  0  0  0  0  0
    0.4571   -0.6672    3.8894 H   0  0  0  0  0  0  0  0  0  0  0  0
  1  2  1  0  0  0  0
  2  3  1  0  0  0  0
  2  4  1  0  0  0  0
  2  5  1  0  0  0  0
  5  6  2  0  0  0  0
  5  7  1  0  0  0  0
  7  8  1  0  0  0  0
  7  9  1  0  0  0  0
  9 10  1  0  0  0  0
  9 11  1  0  0  0  0
  9 24  1  0  0  0  0
 11 12  1  0  0  0  0
 11 13  1  0  0  0  0
 11 14  1  0  0  0  0
 14 15  1  0  0  0  0
 14 16  1  0  0  0  0
 14 20  1  0  0  0  0
 16 17  1  0  0  0  0
 16 18  1  0  0  0  0
 16 19  1  0  0  0  0
 20 21  1  0  0  0  0
 20 22  1  0  0  0  0
 20 23  1  0  0  0  0
 24 25  2  0  0  0  0
 24 26  1  0  0  0  0
 26 27  1  0  0  0  0
 26 28  1  0  0  0  0
 28 29  1  0  0  0  0
 28 30  1  0  0  0  0
 28 31  1  0  0  0  0
M  END
$$$$

  -OEChem-04042216013D

 31 30  0     1  0  0  0  0  0999 V2000
   -2.8459   -4.3464   -0.0533 H   0  0  0  0  0  0  0  0  0  0  0  0
   -2.8122   -3.3301   -0.4564 C   0  0  0  0  0  0  0  0  0  0  0  0
   -3.6394   -2.7564   -0.0321 H   0  0  0  0  0  0  0  0  0  0  0  0
   -2.9290   -3.3786   -1.5417 H   0  0  0  0  0  0  0  0  0  0  0  0
   -1.4898   -2.6739   -0.1062 C   0  0  0  0  0  0  0  0  0  0  0  0
   -0.6510   -3.2947    0.5215 O   0  0  0  0  0  0  0  0  0  0  0  0
   -1.2516   -1.3681   -0.4868 N   0  0  0  0  0  0  0  0  0  0  0  0
   -1.9705   -0.9126   -1.0406 H   0  0  0  0  0  0  0  0  0  0  0  0
    0.0326   -0.6689   -0.3012 C   0  0  1  0  0  0  0  0  0  0  0  0
    0.7622   -1.3590   -0.7416 H   0  0  0  0  0  0  0  0  0  0  0  0
    0.1190    0.5833   -1.2100 C   0  0  0  0  0  0  0  0  0  0  0  0
    1.1183    0.5815   -1.6588 H   0  0  0  0  0  0  0  0  0  0  0  0
   -0.5962    0.4811   -2.0328 H   0  0  0  0  0  0  0  0  0  0  0  0
   -0.0666    1.9614   -0.5391 C   0  0  0  0  0  0  0  0  0  0  0  0
    0.6884    2.1074    0.2413 H   0  0  0  0  0  0  0  0  0  0  0  0
    0.0633    3.0577   -1.6062 C   0  0  0  0  0  0  0  0  0  0  0  0
   -0.6807    2.9276   -2.3987 H   0  0  0  0  0  0  0  0  0  0  0  0
   -0.0759    4.0464   -1.1574 H   0  0  0  0  0  0  0  0  0  0  0  0
    1.0591    3.0278   -2.0592 H   0  0  0  0  0  0  0  0  0  0  0  0
   -1.4800    2.1148    0.0523 C   0  0  0  0  0  0  0  0  0  0  0  0
   -2.2340    2.0819   -0.7406 H   0  0  0  0  0  0  0  0  0  0  0  0
   -1.5664    3.0743    0.5719 H   0  0  0  0  0  0  0  0  0  0  0  0
   -1.7162    1.3257    0.7643 H   0  0  0  0  0  0  0  0  0  0  0  0
    0.5648   -0.5135    1.1456 C   0  0  0  0  0  0  0  0  0  0  0  0
    1.7751   -0.4957    1.3304 O   0  0  0  0  0  0  0  0  0  0  0  0
   -0.2603   -0.1247    2.1850 N   0  0  0  0  0  0  0  0  0  0  0  0
   -1.2577   -0.2170    2.0251 H   0  0  0  0  0  0  0  0  0  0  0  0
    0.2170    0.0895    3.5451 C   0  0  0  0  0  0  0  0  0  0  0  0
    0.9678    0.8864    3.5666 H   0  0  0  0  0  0  0  0  0  0  0  0
   -0.6130    0.3811    4.1954 H   0  0  0  0  0  0  0  0  0  0  0  0
    0.6645   -0.8276    3.9424 H   0  0  0  0  0  0  0  0  0  0  0  0
  1  2  1  0  0  0  0
  2  3  1  0  0  0  0
  2  4  1  0  0  0  0
  2  5  1  0  0  0  0
  5  6  2  0  0  0  0
  5  7  1  0  0  0  0
  7  8  1  0  0  0  0
  7  9  1  0  0  0  0
  9 10  1  0  0  0  0
  9 11  1  0  0  0  0
  9 24  1  0  0  0  0
 11 12  1  0  0  0  0
 11 13  1  0  0  0  0
 11 14  1  0  0  0  0
 14 15  1  0  0  0  0
 14 16  1  0  0  0  0
 14 20  1  0  0  0  0
 16 17  1  0  0  0  0
 16 18  1  0  0  0  0
 16 19  1  0  0  0  0
 20 21  1  0  0  0  0
 20 22  1  0  0  0  0
 20 23  1  0  0  0  0
 24 25  2  0  0  0  0
 24 26  1  0  0  0  0
 26 27  1  0  0  0  0
 26 28  1  0  0  0  0
 28 29  1  0  0  0  0
 28 30  1  0  0  0  0
 28 31  1  0  0  0  0
M  END
$$$$

  -OEChem-04042216013D

 31 30  0     1  0  0  0  0  0999 V2000
   -2.7449   -4.4057   -0.0405 H   0  0  0  0  0  0  0  0  0  0  0  0
   -2.7457   -3.3775   -0.4135 C   0  0  0  0  0  0  0  0  0  0  0  0
   -3.5746   -2.8367    0.0491 H   0  0  0  0  0  0  0  0  0  0  0  0
   -2.8899   -3.3973   -1.4963 H   0  0  0  0  0  0  0  0  0  0  0  0
   -1.4304   -2.6997   -0.0781 C   0  0  0  0  0  0  0  0  0  0  0  0
   -0.5652   -3.3159    0.5172 O   0  0  0  0  0  0  0  0  0  0  0  0
   -1.2276   -1.3818   -0.4381 N   0  0  0  0  0  0  0  0  0  0  0  0
   -1.9694   -0.9301   -0.9641 H   0  0  0  0  0  0  0  0  0  0  0  0
    0.0406   -0.6519   -0.2552 C   0  0  1  0  0  0  0  0  0  0  0  0
    0.7806   -1.3314   -0.6947 H   0  0  0  0  0  0  0  0  0  0  0  0
    0.1220    0.5891   -1.1808 C   0  0  0  0  0  0  0  0  0  0  0  0
    1.1201    0.5841   -1.6332 H   0  0  0  0  0  0  0  0  0  0  0  0
   -0.5901    0.4407   -1.9991 H   0  0  0  0  0  0  0  0  0  0  0  0
   -0.0808    2.0093   -0.5954 C   0  0  0  0  0  0  0  0  0  0  0  0
    0.8149    2.3118   -0.0410 H   0  0  0  0  0  0  0  0  0  0  0  0
   -0.3124    2.9698   -1.7731 C   0  0  0  0  0  0  0  0  0  0  0  0
   -1.2447    2.7327   -2.2961 H   0  0  0  0  0  0  0  0  0  0  0  0
   -0.3654    4.0041   -1.4186 H   0  0  0  0  0  0  0  0  0  0  0  0
    0.5141    2.9003   -2.4874 H   0  0  0  0  0  0  0  0  0  0  0  0
   -1.3138    2.1407    0.3186 C   0  0  0  0  0  0  0  0  0  0  0  0
   -1.7536    3.1407    0.2475 H   0  0  0  0  0  0  0  0  0  0  0  0
   -1.0350    2.0014    1.3629 H   0  0  0  0  0  0  0  0  0  0  0  0
   -2.0832    1.4120    0.0473 H   0  0  0  0  0  0  0  0  0  0  0  0
    0.5690   -0.5170    1.1929 C   0  0  0  0  0  0  0  0  0  0  0  0
    1.7777   -0.4675    1.3819 O   0  0  0  0  0  0  0  0  0  0  0  0
   -0.2717   -0.1748    2.2355 N   0  0  0  0  0  0  0  0  0  0  0  0
   -1.2661   -0.2783    2.0641 H   0  0  0  0  0  0  0  0  0  0  0  0
    0.1910    0.0182    3.6038 C   0  0  0  0  0  0  0  0  0  0  0  0
    0.9214    0.8326    3.6497 H   0  0  0  0  0  0  0  0  0  0  0  0
   -0.6505    0.2731    4.2546 H   0  0  0  0  0  0  0  0  0  0  0  0
    0.6584   -0.8969    3.9822 H   0  0  0  0  0  0  0  0  0  0  0  0
  1  2  1  0  0  0  0
  2  3  1  0  0  0  0
  2  4  1  0  0  0  0
  2  5  1  0  0  0  0
  5  6  2  0  0  0  0
  5  7  1  0  0  0  0
  7  8  1  0  0  0  0
  7  9  1  0  0  0  0
  9 10  1  0  0  0  0
  9 11  1  0  0  0  0
  9 24  1  0  0  0  0
 11 12  1  0  0  0  0
 11 13  1  0  0  0  0
 11 14  1  0  0  0  0
 14 15  1  0  0  0  0
 14 16  1  0  0  0  0
 14 20  1  0  0  0  0
 16 17  1  0  0  0  0
 16 18  1  0  0  0  0
 16 19  1  0  0  0  0
 20 21  1  0  0  0  0
 20 22  1  0  0  0  0
 20 23  1  0  0  0  0
 24 25  2  0  0  0  0
 24 26  1  0  0  0  0
 26 27  1  0  0  0  0
 26 28  1  0  0  0  0
 28 29  1  0  0  0  0
 28 30  1  0  0  0  0
 28 31  1  0  0  0  0
M  END
$$$$

  -OEChem-04042216013D

 31 30  0     1  0  0  0  0  0999 V2000
   -2.9830   -4.2868   -0.0470 H   0  0  0  0  0  0  0  0  0  0  0  0
   -2.9319   -3.2536   -0.4027 C   0  0  0  0  0  0  0  0  0  0  0  0
   -3.7181   -2.6744    0.0873 H   0  0  0  0  0  0  0  0  0  0  0  0
   -3.0996   -3.2453   -1.4823 H   0  0  0  0  0  0  0  0  0  0  0  0
   -1.5725   -2.6596   -0.0854 C   0  0  0  0  0  0  0  0  0  0  0  0
   -0.7282   -3.3395    0.4693 O   0  0  0  0  0  0  0  0  0  0  0  0
   -1.3066   -1.3445   -0.4135 N   0  0  0  0  0  0  0  0  0  0  0  0
   -2.0382   -0.8348   -0.8992 H   0  0  0  0  0  0  0  0  0  0  0  0
   -0.0002   -0.6842   -0.2329 C   0  0  1  0  0  0  0  0  0  0  0  0
    0.6955   -1.4009   -0.6857 H   0  0  0  0  0  0  0  0  0  0  0  0
    0.1492    0.5487   -1.1659 C   0  0  0  0  0  0  0  0  0  0  0  0
    1.1427    0.4793   -1.6228 H   0  0  0  0  0  0  0  0  0  0  0  0
   -0.5691    0.4159   -1.9816 H   0  0  0  0  0  0  0  0  0  0  0  0
    0.0326    2.0050   -0.6350 C   0  0  0  0  0  0  0  0  0  0  0  0
    1.0281    2.3601   -0.3451 H   0  0  0  0  0  0  0  0  0  0  0  0
   -0.5119    2.8811   -1.7757 C   0  0  0  0  0  0  0  0  0  0  0  0
   -1.5397    2.6005   -2.0293 H   0  0  0  0  0  0  0  0  0  0  0  0
   -0.5007    3.9371   -1.4876 H   0  0  0  0  0  0  0  0  0  0  0  0
    0.1101    2.7698   -2.6697 H   0  0  0  0  0  0  0  0  0  0  0  0
   -0.9201    2.2081    0.5529 C   0  0  0  0  0  0  0  0  0  0  0  0
   -1.3259    3.2248    0.5643 H   0  0  0  0  0  0  0  0  0  0  0  0
   -0.3801    2.0808    1.4926 H   0  0  0  0  0  0  0  0  0  0  0  0
   -1.7593    1.5077    0.5089 H   0  0  0  0  0  0  0  0  0  0  0  0
    0.5468   -0.6208    1.2135 C   0  0  0  0  0  0  0  0  0  0  0  0
    1.7577   -0.6423    1.3929 O   0  0  0  0  0  0  0  0  0  0  0  0
   -0.2673   -0.2686    2.2751 N   0  0  0  0  0  0  0  0  0  0  0  0
   -1.2670   -0.3121    2.1097 H   0  0  0  0  0  0  0  0  0  0  0  0
    0.2145   -0.1563    3.6459 C   0  0  0  0  0  0  0  0  0  0  0  0
    0.9799    0.6230    3.7205 H   0  0  0  0  0  0  0  0  0  0  0  0
   -0.6097    0.1051    4.3160 H   0  0  0  0  0  0  0  0  0  0  0  0
    0.6446   -1.1066    3.9788 H   0  0  0  0  0  0  0  0  0  0  0  0
  1  2  1  0  0  0  0
  2  3  1  0  0  0  0
  2  4  1  0  0  0  0
  2  5  1  0  0  0  0
  5  6  2  0  0  0  0
  5  7  1  0  0  0  0
  7  8  1  0  0  0  0
  7  9  1  0  0  0  0
  9 10  1  0  0  0  0
  9 11  1  0  0  0  0
  9 24  1  0  0  0  0
 11 12  1  0  0  0  0
 11 13  1  0  0  0  0
 11 14  1  0  0  0  0
 14 15  1  0  0  0  0
 14 16  1  0  0  0  0
 14 20  1  0  0  0  0
 16 17  1  0  0  0  0
 16 18  1  0  0  0  0
 16 19  1  0  0  0  0
 20 21  1  0  0  0  0
 20 22  1  0  0  0  0
 20 23  1  0  0  0  0
 24 25  2  0  0  0  0
 24 26  1  0  0  0  0
 26 27  1  0  0  0  0
 26 28  1  0  0  0  0
 28 29  1  0  0  0  0
 28 30  1  0  0  0  0
 28 31  1  0  0  0  0
M  END
$$$$

  -OEChem-04042216013D

 31 30  0     1  0  0  0  0  0999 V2000
   -2.9029   -4.3309   -0.0858 H   0  0  0  0  0  0  0  0  0  0  0  0
   -2.8739   -3.2897   -0.4200 C   0  0  0  0  0  0  0  0  0  0  0  0
   -3.6633   -2.7345    0.0923 H   0  0  0  0  0  0  0  0  0  0  0  0
   -3.0564   -3.2615   -1.4969 H   0  0  0  0  0  0  0  0  0  0  0  0
   -1.5203   -2.6795   -0.1079 C   0  0  0  0  0  0  0  0  0  0  0  0
   -0.6558   -3.3581    0.4165 O   0  0  0  0  0  0  0  0  0  0  0  0
   -1.2831   -1.3512   -0.4038 N   0  0  0  0  0  0  0  0  0  0  0  0
   -2.0327   -0.8413   -0.8614 H   0  0  0  0  0  0  0  0  0  0  0  0
    0.0134   -0.6705   -0.2260 C   0  0  1  0  0  0  0  0  0  0  0  0
    0.7149   -1.3692   -0.6979 H   0  0  0  0  0  0  0  0  0  0  0  0
    0.1258    0.5718   -1.1574 C   0  0  0  0  0  0  0  0  0  0  0  0
    1.1232    0.5184   -1.6076 H   0  0  0  0  0  0  0  0  0  0  0  0
   -0.5774    0.4123   -1.9813 H   0  0  0  0  0  0  0  0  0  0  0  0
   -0.0121    2.0424   -0.6570 C   0  0  0  0  0  0  0  0  0  0  0  0
    0.9825    2.5022   -0.6672 H   0  0  0  0  0  0  0  0  0  0  0  0
   -0.9172    2.8077   -1.6368 C   0  0  0  0  0  0  0  0  0  0  0  0
   -1.9369    2.4099   -1.6163 H   0  0  0  0  0  0  0  0  0  0  0  0
   -0.9536    3.8708   -1.3783 H   0  0  0  0  0  0  0  0  0  0  0  0
   -0.5299    2.7243   -2.6574 H   0  0  0  0  0  0  0  0  0  0  0  0
   -0.6041    2.2550    0.7394 C   0  0  0  0  0  0  0  0  0  0  0  0
    0.1483    2.0441    1.5027 H   0  0  0  0  0  0  0  0  0  0  0  0
   -0.9079    3.2975    0.8773 H   0  0  0  0  0  0  0  0  0  0  0  0
   -1.4829    1.6217    0.8922 H   0  0  0  0  0  0  0  0  0  0  0  0
    0.5770   -0.6389    1.2155 C   0  0  0  0  0  0  0  0  0  0  0  0
    1.7902   -0.6407    1.3801 O   0  0  0  0  0  0  0  0  0  0  0  0
   -0.2321   -0.3330    2.2959 N   0  0  0  0  0  0  0  0  0  0  0  0
   -1.2320   -0.4037    2.1414 H   0  0  0  0  0  0  0  0  0  0  0  0
    0.2636   -0.2651    3.6647 C   0  0  0  0  0  0  0  0  0  0  0  0
    1.0487    0.4933    3.7513 H   0  0  0  0  0  0  0  0  0  0  0  0
   -0.5480    0.0011    4.3483 H   0  0  0  0  0  0  0  0  0  0  0  0
    0.6732   -1.2335    3.9706 H   0  0  0  0  0  0  0  0  0  0  0  0
  1  2  1  0  0  0  0
  2  3  1  0  0  0  0
  2  4  1  0  0  0  0
  2  5  1  0  0  0  0
  5  6  2  0  0  0  0
  5  7  1  0  0  0  0
  7  8  1  0  0  0  0
  7  9  1  0  0  0  0
  9 10  1  0  0  0  0
  9 11  1  0  0  0  0
  9 24  1  0  0  0  0
 11 12  1  0  0  0  0
 11 13  1  0  0  0  0
 11 14  1  0  0  0  0
 14 15  1  0  0  0  0
 14 16  1  0  0  0  0
 14 20  1  0  0  0  0
 16 17  1  0  0  0  0
 16 18  1  0  0  0  0
 16 19  1  0  0  0  0
 20 21  1  0  0  0  0
 20 22  1  0  0  0  0
 20 23  1  0  0  0  0
 24 25  2  0  0  0  0
 24 26  1  0  0  0  0
 26 27  1  0  0  0  0
 26 28  1  0  0  0  0
 28 29  1  0  0  0  0
 28 30  1  0  0  0  0
 28 31  1  0  0  0  0
M  END
$$$$

  -OEChem-04042216013D

 31 30  0     1  0  0  0  0  0999 V2000
   -2.8599   -4.3578   -0.0657 H   0  0  0  0  0  0  0  0  0  0  0  0
   -2.8331   -3.3189   -0.4067 C   0  0  0  0  0  0  0  0  0  0  0  0
   -3.6231   -2.7615    0.1021 H   0  0  0  0  0  0  0  0  0  0  0  0
   -3.0156   -3.2980   -1.4838 H   0  0  0  0  0  0  0  0  0  0  0  0
   -1.4809   -2.7039   -0.0984 C   0  0  0  0  0  0  0  0  0  0  0  0
   -0.6131   -3.3791    0.4248 O   0  0  0  0  0  0  0  0  0  0  0  0
   -1.2490   -1.3758   -0.3991 N   0  0  0  0  0  0  0  0  0  0  0  0
   -2.0010   -0.8707   -0.8577 H   0  0  0  0  0  0  0  0  0  0  0  0
    0.0417   -0.6858   -0.2178 C   0  0  1  0  0  0  0  0  0  0  0  0
    0.7539   -1.3767   -0.6852 H   0  0  0  0  0  0  0  0  0  0  0  0
    0.1255    0.5544   -1.1578 C   0  0  0  0  0  0  0  0  0  0  0  0
    1.1356    0.5125   -1.5805 H   0  0  0  0  0  0  0  0  0  0  0  0
   -0.5479    0.3737   -2.0020 H   0  0  0  0  0  0  0  0  0  0  0  0
   -0.0334    2.0355   -0.6879 C   0  0  0  0  0  0  0  0  0  0  0  0
    0.8694    2.5725   -1.0003 H   0  0  0  0  0  0  0  0  0  0  0  0
   -1.2262    2.6651   -1.4242 C   0  0  0  0  0  0  0  0  0  0  0  0
   -2.1576    2.1568   -1.1554 H   0  0  0  0  0  0  0  0  0  0  0  0
   -1.3221    3.7249   -1.1667 H   0  0  0  0  0  0  0  0  0  0  0  0
   -1.0889    2.5941   -2.5080 H   0  0  0  0  0  0  0  0  0  0  0  0
   -0.2169    2.3180    0.8039 C   0  0  0  0  0  0  0  0  0  0  0  0
    0.6655    2.0043    1.3675 H   0  0  0  0  0  0  0  0  0  0  0  0
   -0.3403    3.3926    0.9719 H   0  0  0  0  0  0  0  0  0  0  0  0
   -1.1080    1.8141    1.1873 H   0  0  0  0  0  0  0  0  0  0  0  0
    0.5916   -0.6468    1.2284 C   0  0  0  0  0  0  0  0  0  0  0  0
    1.8029   -0.6573    1.4067 O   0  0  0  0  0  0  0  0  0  0  0  0
   -0.2303   -0.3415    2.2995 N   0  0  0  0  0  0  0  0  0  0  0  0
   -1.2286   -0.4025    2.1312 H   0  0  0  0  0  0  0  0  0  0  0  0
    0.2483   -0.2719    3.6745 C   0  0  0  0  0  0  0  0  0  0  0  0
    1.0346    0.4843    3.7706 H   0  0  0  0  0  0  0  0  0  0  0  0
   -0.5715   -0.0020    4.3467 H   0  0  0  0  0  0  0  0  0  0  0  0
    0.6510   -1.2410    3.9874 H   0  0  0  0  0  0  0  0  0  0  0  0
  1  2  1  0  0  0  0
  2  3  1  0  0  0  0
  2  4  1  0  0  0  0
  2  5  1  0  0  0  0
  5  6  2  0  0  0  0
  5  7  1  0  0  0  0
  7  8  1  0  0  0  0
  7  9  1  0  0  0  0
  9 10  1  0  0  0  0
  9 11  1  0  0  0  0
  9 24  1  0  0  0  0
 11 12  1  0  0  0  0
 11 13  1  0  0  0  0
 11 14  1  0  0  0  0
 14 15  1  0  0  0  0
 14 16  1  0  0  0  0
 14 20  1  0  0  0  0
 16 17  1  0  0  0  0
 16 18  1  0  0  0  0
 16 19  1  0  0  0  0
 20 21  1  0  0  0  0
 20 22  1  0  0  0  0
 20 23  1  0  0  0  0
 24 25  2  0  0  0  0
 24 26  1  0  0  0  0
 26 27  1  0  0  0  0
 26 28  1  0  0  0  0
 28 29  1  0  0  0  0
 28 30  1  0  0  0  0
 28 31  1  0  0  0  0
M  END
$$$$

  -OEChem-04042216013D

 31 30  0     1  0  0  0  0  0999 V2000
   -2.8029   -4.3905    0.0886 H   0  0  0  0  0  0  0  0  0  0  0  0
   -2.7873   -3.3682   -0.3002 C   0  0  0  0  0  0  0  0  0  0  0  0
   -3.5687   -2.7909    0.1995 H   0  0  0  0  0  0  0  0  0  0  0  0
   -2.9928   -3.3970   -1.3730 H   0  0  0  0  0  0  0  0  0  0  0  0
   -1.4306   -2.7368   -0.0497 C   0  0  0  0  0  0  0  0  0  0  0  0
   -0.5417   -3.3938    0.4608 O   0  0  0  0  0  0  0  0  0  0  0  0
   -1.2162   -1.4160   -0.3931 N   0  0  0  0  0  0  0  0  0  0  0  0
   -1.9861   -0.9256   -0.8378 H   0  0  0  0  0  0  0  0  0  0  0  0
    0.0709   -0.7090   -0.2518 C   0  0  1  0  0  0  0  0  0  0  0  0
    0.7929   -1.3854   -0.7256 H   0  0  0  0  0  0  0  0  0  0  0  0
    0.0827    0.5330   -1.1930 C   0  0  0  0  0  0  0  0  0  0  0  0
    1.0830    0.5152   -1.6397 H   0  0  0  0  0  0  0  0  0  0  0  0
   -0.6073    0.3428   -2.0214 H   0  0  0  0  0  0  0  0  0  0  0  0
   -0.0900    2.0092   -0.7207 C   0  0  0  0  0  0  0  0  0  0  0  0
    0.6038    2.5969   -1.3322 H   0  0  0  0  0  0  0  0  0  0  0  0
   -1.4990    2.5009   -1.0767 C   0  0  0  0  0  0  0  0  0  0  0  0
   -2.2539    1.9245   -0.5332 H   0  0  0  0  0  0  0  0  0  0  0  0
   -1.6129    3.5574   -0.8137 H   0  0  0  0  0  0  0  0  0  0  0  0
   -1.6853    2.3978   -2.1504 H   0  0  0  0  0  0  0  0  0  0  0  0
    0.2282    2.3819    0.7284 C   0  0  0  0  0  0  0  0  0  0  0  0
    1.2006    1.9834    1.0309 H   0  0  0  0  0  0  0  0  0  0  0  0
   -0.5503    2.0238    1.4046 H   0  0  0  0  0  0  0  0  0  0  0  0
    0.2732    3.4709    0.8283 H   0  0  0  0  0  0  0  0  0  0  0  0
    0.6193   -0.6359    1.1924 C   0  0  0  0  0  0  0  0  0  0  0  0
    1.8293   -0.6561    1.3788 O   0  0  0  0  0  0  0  0  0  0  0  0
   -0.2111   -0.3123    2.2509 N   0  0  0  0  0  0  0  0  0  0  0  0
   -1.2082   -0.3710    2.0755 H   0  0  0  0  0  0  0  0  0  0  0  0
    0.2580   -0.2119    3.6269 C   0  0  0  0  0  0  0  0  0  0  0  0
    1.0093    0.5795    3.7180 H   0  0  0  0  0  0  0  0  0  0  0  0
   -0.5755    0.0256    4.2945 H   0  0  0  0  0  0  0  0  0  0  0  0
    0.7024   -1.1595    3.9492 H   0  0  0  0  0  0  0  0  0  0  0  0
  1  2  1  0  0  0  0
  2  3  1  0  0  0  0
  2  4  1  0  0  0  0
  2  5  1  0  0  0  0
  5  6  2  0  0  0  0
  5  7  1  0  0  0  0
  7  8  1  0  0  0  0
  7  9  1  0  0  0  0
  9 10  1  0  0  0  0
  9 11  1  0  0  0  0
  9 24  1  0  0  0  0
 11 12  1  0  0  0  0
 11 13  1  0  0  0  0
 11 14  1  0  0  0  0
 14 15  1  0  0  0  0
 14 16  1  0  0  0  0
 14 20  1  0  0  0  0
 16 17  1  0  0  0  0
 16 18  1  0  0  0  0
 16 19  1  0  0  0  0
 20 21  1  0  0  0  0
 20 22  1  0  0  0  0
 20 23  1  0  0  0  0
 24 25  2  0  0  0  0
 24 26  1  0  0  0  0
 26 27  1  0  0  0  0
 26 28  1  0  0  0  0
 28 29  1  0  0  0  0
 28 30  1  0  0  0  0
 28 31  1  0  0  0  0
M  END
$$$$

  -OEChem-04042216013D

 31 30  0     1  0  0  0  0  0999 V2000
   -2.9890   -4.2645    0.0859 H   0  0  0  0  0  0  0  0  0  0  0  0
   -2.9026   -3.2542   -0.3244 C   0  0  0  0  0  0  0  0  0  0  0  0
   -3.6608   -2.6202    0.1416 H   0  0  0  0  0  0  0  0  0  0  0  0
   -3.0820   -3.2957   -1.4014 H   0  0  0  0  0  0  0  0  0  0  0  0
   -1.5178   -2.6978   -0.0504 C   0  0  0  0  0  0  0  0  0  0  0  0
   -0.6916   -3.3859    0.5206 O   0  0  0  0  0  0  0  0  0  0  0  0
   -1.2081   -1.4102   -0.4442 N   0  0  0  0  0  0  0  0  0  0  0  0
   -1.9283   -0.8965   -0.9424 H   0  0  0  0  0  0  0  0  0  0  0  0
    0.1105   -0.7708   -0.2699 C   0  0  1  0  0  0  0  0  0  0  0  0
    0.8302   -1.4759   -0.7024 H   0  0  0  0  0  0  0  0  0  0  0  0
    0.1769    0.4769   -1.1996 C   0  0  0  0  0  0  0  0  0  0  0  0
    1.1755    0.4291   -1.6475 H   0  0  0  0  0  0  0  0  0  0  0  0
   -0.5250    0.3396   -2.0287 H   0  0  0  0  0  0  0  0  0  0  0  0
    0.0561    1.9372   -0.6833 C   0  0  0  0  0  0  0  0  0  0  0  0
    0.5374    2.5406   -1.4614 H   0  0  0  0  0  0  0  0  0  0  0  0
   -1.4097    2.3827   -0.6724 C   0  0  0  0  0  0  0  0  0  0  0  0
   -1.9826    1.7888    0.0465 H   0  0  0  0  0  0  0  0  0  0  0  0
   -1.4842    3.4376   -0.3896 H   0  0  0  0  0  0  0  0  0  0  0  0
   -1.8590    2.2624   -1.6631 H   0  0  0  0  0  0  0  0  0  0  0  0
    0.7807    2.3285    0.6092 C   0  0  0  0  0  0  0  0  0  0  0  0
    1.7527    1.8306    0.6761 H   0  0  0  0  0  0  0  0  0  0  0  0
    0.1859    2.0909    1.4916 H   0  0  0  0  0  0  0  0  0  0  0  0
    0.9559    3.4087    0.6193 H   0  0  0  0  0  0  0  0  0  0  0  0
    0.5587   -0.6723    1.2063 C   0  0  0  0  0  0  0  0  0  0  0  0
    1.7441   -0.7852    1.4915 O   0  0  0  0  0  0  0  0  0  0  0  0
   -0.3307   -0.2558    2.1818 N   0  0  0  0  0  0  0  0  0  0  0  0
   -1.3108   -0.2471    1.9221 H   0  0  0  0  0  0  0  0  0  0  0  0
    0.0248   -0.1681    3.5922 C   0  0  0  0  0  0  0  0  0  0  0  0
    0.8646    0.5201    3.7345 H   0  0  0  0  0  0  0  0  0  0  0  0
   -0.8245    0.2015    4.1744 H   0  0  0  0  0  0  0  0  0  0  0  0
    0.3082   -1.1538    3.9760 H   0  0  0  0  0  0  0  0  0  0  0  0
  1  2  1  0  0  0  0
  2  3  1  0  0  0  0
  2  4  1  0  0  0  0
  2  5  1  0  0  0  0
  5  6  2  0  0  0  0
  5  7  1  0  0  0  0
  7  8  1  0  0  0  0
  7  9  1  0  0  0  0
  9 10  1  0  0  0  0
  9 11  1  0  0  0  0
  9 24  1  0  0  0  0
 11 12  1  0  0  0  0
 11 13  1  0  0  0  0
 11 14  1  0  0  0  0
 14 15  1  0  0  0  0
 14 16  1  0  0  0  0
 14 20  1  0  0  0  0
 16 17  1  0  0  0  0
 16 18  1  0  0  0  0
 16 19  1  0  0  0  0
 20 21  1  0  0  0  0
 20 22  1  0  0  0  0
 20 23  1  0  0  0  0
 24 25  2  0  0  0  0
 24 26  1  0  0  0  0
 26 27  1  0  0  0  0
 26 28  1  0  0  0  0
 28 29  1  0  0  0  0
 28 30  1  0  0  0  0
 28 31  1  0  0  0  0
M  END
$$$$

  -OEChem-04042216013D

 31 30  0     1  0  0  0  0  0999 V2000
   -2.9186   -4.2938    0.0630 H   0  0  0  0  0  0  0  0  0  0  0  0
   -2.8484   -3.2826   -0.3480 C   0  0  0  0  0  0  0  0  0  0  0  0
   -3.6203   -2.6618    0.1130 H   0  0  0  0  0  0  0  0  0  0  0  0
   -3.0216   -3.3293   -1.4258 H   0  0  0  0  0  0  0  0  0  0  0  0
   -1.4759   -2.7001   -0.0680 C   0  0  0  0  0  0  0  0  0  0  0  0
   -0.6443   -3.3674    0.5195 O   0  0  0  0  0  0  0  0  0  0  0  0
   -1.1824   -1.4135   -0.4771 N   0  0  0  0  0  0  0  0  0  0  0  0
   -1.9044   -0.9189   -0.9919 H   0  0  0  0  0  0  0  0  0  0  0  0
    0.1290   -0.7576   -0.3087 C   0  0  1  0  0  0  0  0  0  0  0  0
    0.8593   -1.4490   -0.7453 H   0  0  0  0  0  0  0  0  0  0  0  0
    0.1708    0.5021   -1.2211 C   0  0  0  0  0  0  0  0  0  0  0  0
    1.1535    0.4796   -1.7043 H   0  0  0  0  0  0  0  0  0  0  0  0
   -0.5619    0.3834   -2.0261 H   0  0  0  0  0  0  0  0  0  0  0  0
    0.0330    1.9333   -0.6441 C   0  0  0  0  0  0  0  0  0  0  0  0
    0.2565    2.5952   -1.4882 H   0  0  0  0  0  0  0  0  0  0  0  0
   -1.4159    2.2330   -0.2485 C   0  0  0  0  0  0  0  0  0  0  0  0
   -1.7294    1.5981    0.5846 H   0  0  0  0  0  0  0  0  0  0  0  0
   -1.5149    3.2793    0.0575 H   0  0  0  0  0  0  0  0  0  0  0  0
   -2.0887    2.0571   -1.0935 H   0  0  0  0  0  0  0  0  0  0  0  0
    1.0313    2.3363    0.4498 C   0  0  0  0  0  0  0  0  0  0  0  0
    2.0115    1.8871    0.2616 H   0  0  0  0  0  0  0  0  0  0  0  0
    1.1507    3.4241    0.4575 H   0  0  0  0  0  0  0  0  0  0  0  0
    0.6901    2.0417    1.4429 H   0  0  0  0  0  0  0  0  0  0  0  0
    0.5792   -0.6347    1.1650 C   0  0  0  0  0  0  0  0  0  0  0  0
    1.7668   -0.7278    1.4481 O   0  0  0  0  0  0  0  0  0  0  0  0
   -0.3127   -0.2146    2.1368 N   0  0  0  0  0  0  0  0  0  0  0  0
   -1.2935   -0.2247    1.8801 H   0  0  0  0  0  0  0  0  0  0  0  0
    0.0452   -0.1033    3.5448 C   0  0  0  0  0  0  0  0  0  0  0  0
    0.8799    0.5933    3.6752 H   0  0  0  0  0  0  0  0  0  0  0  0
   -0.8058    0.2683    4.1231 H   0  0  0  0  0  0  0  0  0  0  0  0
    0.3366   -1.0813    3.9424 H   0  0  0  0  0  0  0  0  0  0  0  0
  1  2  1  0  0  0  0
  2  3  1  0  0  0  0
  2  4  1  0  0  0  0
  2  5  1  0  0  0  0
  5  6  2  0  0  0  0
  5  7  1  0  0  0  0
  7  8  1  0  0  0  0
  7  9  1  0  0  0  0
  9 10  1  0  0  0  0
  9 11  1  0  0  0  0
  9 24  1  0  0  0  0
 11 12  1  0  0  0  0
 11 13  1  0  0  0  0
 11 14  1  0  0  0  0
 14 15  1  0  0  0  0
 14 16  1  0  0  0  0
 14 20  1  0  0  0  0
 16 17  1  0  0  0  0
 16 18  1  0  0  0  0
 16 19  1  0  0  0  0
 20 21  1  0  0  0  0
 20 22  1  0  0  0  0
 20 23  1  0  0  0  0
 24 25  2  0  0  0  0
 24 26  1  0  0  0  0
 26 27  1  0  0  0  0
 26 28  1  0  0  0  0
 28 29  1  0  0  0  0
 28 30  1  0  0  0  0
 28 31  1  0  0  0  0
M  END
$$$$

  -OEChem-04042216013D

 31 30  0     1  0  0  0  0  0999 V2000
   -2.8669   -4.3523    0.0597 H   0  0  0  0  0  0  0  0  0  0  0  0
   -2.8202   -3.3367   -0.3437 C   0  0  0  0  0  0  0  0  0  0  0  0
   -3.6175   -2.7423    0.1089 H   0  0  0  0  0  0  0  0  0  0  0  0
   -2.9752   -3.3810   -1.4244 H   0  0  0  0  0  0  0  0  0  0  0  0
   -1.4698   -2.7164   -0.0376 C   0  0  0  0  0  0  0  0  0  0  0  0
   -0.6361   -3.3551    0.5784 O   0  0  0  0  0  0  0  0  0  0  0  0
   -1.2016   -1.4235   -0.4434 N   0  0  0  0  0  0  0  0  0  0  0  0
   -1.9202   -0.9536   -0.9853 H   0  0  0  0  0  0  0  0  0  0  0  0
    0.0962   -0.7446   -0.2687 C   0  0  1  0  0  0  0  0  0  0  0  0
    0.8220   -1.4542   -0.6834 H   0  0  0  0  0  0  0  0  0  0  0  0
    0.1863    0.4746   -1.2306 C   0  0  0  0  0  0  0  0  0  0  0  0
    1.1779    0.4266   -1.6939 H   0  0  0  0  0  0  0  0  0  0  0  0
   -0.5338    0.3279   -2.0420 H   0  0  0  0  0  0  0  0  0  0  0  0
    0.0266    1.9269   -0.7152 C   0  0  0  0  0  0  0  0  0  0  0  0
    0.0708    2.5639   -1.6056 H   0  0  0  0  0  0  0  0  0  0  0  0
   -1.3379    2.1692   -0.0579 C   0  0  0  0  0  0  0  0  0  0  0  0
   -1.4620    3.2341    0.1627 H   0  0  0  0  0  0  0  0  0  0  0  0
   -1.4443    1.6172    0.8753 H   0  0  0  0  0  0  0  0  0  0  0  0
   -2.1423    1.8642   -0.7339 H   0  0  0  0  0  0  0  0  0  0  0  0
    1.1637    2.3975    0.2032 C   0  0  0  0  0  0  0  0  0  0  0  0
    2.1332    2.0706   -0.1853 H   0  0  0  0  0  0  0  0  0  0  0  0
    1.1679    3.4905    0.2573 H   0  0  0  0  0  0  0  0  0  0  0  0
    1.0493    2.0176    1.2204 H   0  0  0  0  0  0  0  0  0  0  0  0
    0.5876   -0.5912    1.1902 C   0  0  0  0  0  0  0  0  0  0  0  0
    1.7869   -0.6555    1.4295 O   0  0  0  0  0  0  0  0  0  0  0  0
   -0.2676   -0.1771    2.1953 N   0  0  0  0  0  0  0  0  0  0  0  0
   -1.2590   -0.2128    1.9841 H   0  0  0  0  0  0  0  0  0  0  0  0
    0.1501   -0.0295    3.5833 C   0  0  0  0  0  0  0  0  0  0  0  0
    0.9516    0.7121    3.6658 H   0  0  0  0  0  0  0  0  0  0  0  0
   -0.6915    0.3033    4.1979 H   0  0  0  0  0  0  0  0  0  0  0  0
    0.5118   -0.9855    3.9765 H   0  0  0  0  0  0  0  0  0  0  0  0
  1  2  1  0  0  0  0
  2  3  1  0  0  0  0
  2  4  1  0  0  0  0
  2  5  1  0  0  0  0
  5  6  2  0  0  0  0
  5  7  1  0  0  0  0
  7  8  1  0  0  0  0
  7  9  1  0  0  0  0
  9 10  1  0  0  0  0
  9 11  1  0  0  0  0
  9 24  1  0  0  0  0
 11 12  1  0  0  0  0
 11 13  1  0  0  0  0
 11 14  1  0  0  0  0
 14 15  1  0  0  0  0
 14 16  1  0  0  0  0
 14 20  1  0  0  0  0
 16 17  1  0  0  0  0
 16 18  1  0  0  0  0
 16 19  1  0  0  0  0
 20 21  1  0  0  0  0
 20 22  1  0  0  0  0
 20 23  1  0  0  0  0
 24 25  2  0  0  0  0
 24 26  1  0  0  0  0
 26 27  1  0  0  0  0
 26 28  1  0  0  0  0
 28 29  1  0  0  0  0
 28 30  1  0  0  0  0
 28 31  1  0  0  0  0
M  END
$$$$

  -OEChem-04042216013D

 31 30  0     1  0  0  0  0  0999 V2000
   -2.8235   -4.3807    0.0252 H   0  0  0  0  0  0  0  0  0  0  0  0
   -2.7872   -3.3608   -0.3683 C   0  0  0  0  0  0  0  0  0  0  0  0
   -3.5856   -2.7767    0.0953 H   0  0  0  0  0  0  0  0  0  0  0  0
   -2.9485   -3.3954   -1.4484 H   0  0  0  0  0  0  0  0  0  0  0  0
   -1.4402   -2.7323   -0.0645 C   0  0  0  0  0  0  0  0  0  0  0  0
   -0.5938   -3.3715    0.5331 O   0  0  0  0  0  0  0  0  0  0  0  0
   -1.1902   -1.4307   -0.4532 N   0  0  0  0  0  0  0  0  0  0  0  0
   -1.9224   -0.9585   -0.9743 H   0  0  0  0  0  0  0  0  0  0  0  0
    0.0968   -0.7339   -0.2699 C   0  0  1  0  0  0  0  0  0  0  0  0
    0.8296   -1.4366   -0.6843 H   0  0  0  0  0  0  0  0  0  0  0  0
    0.1927    0.4845   -1.2310 C   0  0  0  0  0  0  0  0  0  0  0  0
    1.1799    0.4347   -1.7031 H   0  0  0  0  0  0  0  0  0  0  0  0
   -0.5324    0.3320   -2.0369 H   0  0  0  0  0  0  0  0  0  0  0  0
    0.0165    1.9399   -0.7248 C   0  0  0  0  0  0  0  0  0  0  0  0
   -0.1757    2.5465   -1.6168 H   0  0  0  0  0  0  0  0  0  0  0  0
   -1.1708    2.1444    0.2261 C   0  0  0  0  0  0  0  0  0  0  0  0
   -1.5559    3.1629    0.1159 H   0  0  0  0  0  0  0  0  0  0  0  0
   -0.8790    2.0221    1.2700 H   0  0  0  0  0  0  0  0  0  0  0  0
   -1.9811    1.4470   -0.0058 H   0  0  0  0  0  0  0  0  0  0  0  0
    1.2976    2.4878   -0.0798 C   0  0  0  0  0  0  0  0  0  0  0  0
    2.1492    2.3700   -0.7569 H   0  0  0  0  0  0  0  0  0  0  0  0
    1.1807    3.5537    0.1393 H   0  0  0  0  0  0  0  0  0  0  0  0
    1.5269    1.9725    0.8561 H   0  0  0  0  0  0  0  0  0  0  0  0
    0.5905   -0.5881    1.1890 C   0  0  0  0  0  0  0  0  0  0  0  0
    1.7916   -0.6331    1.4238 O   0  0  0  0  0  0  0  0  0  0  0  0
   -0.2674   -0.1994    2.2011 N   0  0  0  0  0  0  0  0  0  0  0  0
   -1.2593   -0.2394    1.9932 H   0  0  0  0  0  0  0  0  0  0  0  0
    0.1579   -0.0212    3.5834 C   0  0  0  0  0  0  0  0  0  0  0  0
    0.9300    0.7525    3.6490 H   0  0  0  0  0  0  0  0  0  0  0  0
   -0.6898    0.2849    4.2037 H   0  0  0  0  0  0  0  0  0  0  0  0
    0.5611   -0.9576    3.9831 H   0  0  0  0  0  0  0  0  0  0  0  0
  1  2  1  0  0  0  0
  2  3  1  0  0  0  0
  2  4  1  0  0  0  0
  2  5  1  0  0  0  0
  5  6  2  0  0  0  0
  5  7  1  0  0  0  0
  7  8  1  0  0  0  0
  7  9  1  0  0  0  0
  9 10  1  0  0  0  0
  9 11  1  0  0  0  0
  9 24  1  0  0  0  0
 11 12  1  0  0  0  0
 11 13  1  0  0  0  0
 11 14  1  0  0  0  0
 14 15  1  0  0  0  0
 14 16  1  0  0  0  0
 14 20  1  0  0  0  0
 16 17  1  0  0  0  0
 16 18  1  0  0  0  0
 16 19  1  0  0  0  0
 20 21  1  0  0  0  0
 20 22  1  0  0  0  0
 20 23  1  0  0  0  0
 24 25  2  0  0  0  0
 24 26  1  0  0  0  0
 26 27  1  0  0  0  0
 26 28  1  0  0  0  0
 28 29  1  0  0  0  0
 28 30  1  0  0  0  0
 28 31  1  0  0  0  0
M  END
$$$$

  -OEChem-04042216013D

 31 30  0     1  0  0  0  0  0999 V2000
   -3.0145   -4.2680   -0.1233 H   0  0  0  0  0  0  0  0  0  0  0  0
   -2.9286   -3.2381   -0.4817 C   0  0  0  0  0  0  0  0  0  0  0  0
   -3.7226   -2.6405   -0.0278 H   0  0  0  0  0  0  0  0  0  0  0  0
   -3.0511   -3.2333   -1.5674 H   0  0  0  0  0  0  0  0  0  0  0  0
   -1.5723   -2.6688   -0.1103 C   0  0  0  0  0  0  0  0  0  0  0  0
   -0.7822   -3.3485    0.5191 O   0  0  0  0  0  0  0  0  0  0  0  0
   -1.2487   -1.3763   -0.4746 N   0  0  0  0  0  0  0  0  0  0  0  0
   -1.9358   -0.8672   -1.0219 H   0  0  0  0  0  0  0  0  0  0  0  0
    0.0617   -0.7426   -0.2359 C   0  0  1  0  0  0  0  0  0  0  0  0
    0.7674   -1.4923   -0.6137 H   0  0  0  0  0  0  0  0  0  0  0  0
    0.2946    0.4507   -1.2049 C   0  0  0  0  0  0  0  0  0  0  0  0
    1.2957    0.3184   -1.6297 H   0  0  0  0  0  0  0  0  0  0  0  0
   -0.3993    0.3277   -2.0426 H   0  0  0  0  0  0  0  0  0  0  0  0
    0.1833    1.9308   -0.7447 C   0  0  0  0  0  0  0  0  0  0  0  0
   -0.1461    2.5058   -1.6169 H   0  0  0  0  0  0  0  0  0  0  0  0
   -0.8030    2.2183    0.3931 C   0  0  0  0  0  0  0  0  0  0  0  0
   -1.1694    3.2461    0.3080 H   0  0  0  0  0  0  0  0  0  0  0  0
   -0.3235    2.1280    1.3703 H   0  0  0  0  0  0  0  0  0  0  0  0
   -1.6643    1.5459    0.3431 H   0  0  0  0  0  0  0  0  0  0  0  0
    1.5638    2.4633   -0.3335 C   0  0  0  0  0  0  0  0  0  0  0  0
    2.2696    2.3876   -1.1666 H   0  0  0  0  0  0  0  0  0  0  0  0
    1.4945    3.5159   -0.0417 H   0  0  0  0  0  0  0  0  0  0  0  0
    1.9643    1.8953    0.5121 H   0  0  0  0  0  0  0  0  0  0  0  0
    0.5112   -0.6328    1.2414 C   0  0  0  0  0  0  0  0  0  0  0  0
    1.7037   -0.7014    1.5102 O   0  0  0  0  0  0  0  0  0  0  0  0
   -0.3625   -0.2148    2.2288 N   0  0  0  0  0  0  0  0  0  0  0  0
   -1.3488   -0.2258    1.9924 H   0  0  0  0  0  0  0  0  0  0  0  0
    0.0264   -0.0659    3.6253 C   0  0  0  0  0  0  0  0  0  0  0  0
    0.8082    0.6942    3.7257 H   0  0  0  0  0  0  0  0  0  0  0  0
   -0.8339    0.2425    4.2267 H   0  0  0  0  0  0  0  0  0  0  0  0
    0.4040   -1.0150    4.0202 H   0  0  0  0  0  0  0  0  0  0  0  0
  1  2  1  0  0  0  0
  2  3  1  0  0  0  0
  2  4  1  0  0  0  0
  2  5  1  0  0  0  0
  5  6  2  0  0  0  0
  5  7  1  0  0  0  0
  7  8  1  0  0  0  0
  7  9  1  0  0  0  0
  9 10  1  0  0  0  0
  9 11  1  0  0  0  0
  9 24  1  0  0  0  0
 11 12  1  0  0  0  0
 11 13  1  0  0  0  0
 11 14  1  0  0  0  0
 14 15  1  0  0  0  0
 14 16  1  0  0  0  0
 14 20  1  0  0  0  0
 16 17  1  0  0  0  0
 16 18  1  0  0  0  0
 16 19  1  0  0  0  0
 20 21  1  0  0  0  0
 20 22  1  0  0  0  0
 20 23  1  0  0  0  0
 24 25  2  0  0  0  0
 24 26  1  0  0  0  0
 26 27  1  0  0  0  0
 26 28  1  0  0  0  0
 28 29  1  0  0  0  0
 28 30  1  0  0  0  0
 28 31  1  0  0  0  0
M  END
$$$$

  -OEChem-04042216013D

 31 30  0     1  0  0  0  0  0999 V2000
   -2.9100   -4.3361   -0.0948 H   0  0  0  0  0  0  0  0  0  0  0  0
   -2.8663   -3.3008   -0.4448 C   0  0  0  0  0  0  0  0  0  0  0  0
   -3.6703   -2.7346    0.0311 H   0  0  0  0  0  0  0  0  0  0  0  0
   -3.0120   -3.2902   -1.5275 H   0  0  0  0  0  0  0  0  0  0  0  0
   -1.5220   -2.6898   -0.0964 C   0  0  0  0  0  0  0  0  0  0  0  0
   -0.6883   -3.3549    0.4911 O   0  0  0  0  0  0  0  0  0  0  0  0
   -1.2568   -1.3775   -0.4370 N   0  0  0  0  0  0  0  0  0  0  0  0
   -1.9783   -0.8822   -0.9522 H   0  0  0  0  0  0  0  0  0  0  0  0
    0.0423   -0.7072   -0.2392 C   0  0  1  0  0  0  0  0  0  0  0  0
    0.7498   -1.4335   -0.6575 H   0  0  0  0  0  0  0  0  0  0  0  0
    0.2091    0.4976   -1.2105 C   0  0  0  0  0  0  0  0  0  0  0  0
    1.2013    0.3822   -1.6611 H   0  0  0  0  0  0  0  0  0  0  0  0
   -0.5010    0.3519   -2.0308 H   0  0  0  0  0  0  0  0  0  0  0  0
    0.0762    1.9848   -0.7643 C   0  0  0  0  0  0  0  0  0  0  0  0
   -0.5368    2.4864   -1.5210 H   0  0  0  0  0  0  0  0  0  0  0  0
   -0.5741    2.2644    0.5919 C   0  0  0  0  0  0  0  0  0  0  0  0
    0.1303    2.0937    1.4099 H   0  0  0  0  0  0  0  0  0  0  0  0
   -0.8846    3.3126    0.6429 H   0  0  0  0  0  0  0  0  0  0  0  0
   -1.4633    1.6430    0.7298 H   0  0  0  0  0  0  0  0  0  0  0  0
    1.4584    2.6543   -0.7665 C   0  0  0  0  0  0  0  0  0  0  0  0
    1.9077    2.6053   -1.7634 H   0  0  0  0  0  0  0  0  0  0  0  0
    1.3747    3.7085   -0.4838 H   0  0  0  0  0  0  0  0  0  0  0  0
    2.1282    2.1559   -0.0576 H   0  0  0  0  0  0  0  0  0  0  0  0
    0.5562   -0.6234    1.2188 C   0  0  0  0  0  0  0  0  0  0  0  0
    1.7629   -0.6383    1.4265 O   0  0  0  0  0  0  0  0  0  0  0  0
   -0.2846   -0.2626    2.2574 N   0  0  0  0  0  0  0  0  0  0  0  0
   -1.2798   -0.3191    2.0697 H   0  0  0  0  0  0  0  0  0  0  0  0
    0.1650   -0.1431    3.6388 C   0  0  0  0  0  0  0  0  0  0  0  0
    0.9514    0.6143    3.7219 H   0  0  0  0  0  0  0  0  0  0  0  0
   -0.6678    0.1536    4.2831 H   0  0  0  0  0  0  0  0  0  0  0  0
    0.5583   -1.1004    3.9967 H   0  0  0  0  0  0  0  0  0  0  0  0
  1  2  1  0  0  0  0
  2  3  1  0  0  0  0
  2  4  1  0  0  0  0
  2  5  1  0  0  0  0
  5  6  2  0  0  0  0
  5  7  1  0  0  0  0
  7  8  1  0  0  0  0
  7  9  1  0  0  0  0
  9 10  1  0  0  0  0
  9 11  1  0  0  0  0
  9 24  1  0  0  0  0
 11 12  1  0  0  0  0
 11 13  1  0  0  0  0
 11 14  1  0  0  0  0
 14 15  1  0  0  0  0
 14 16  1  0  0  0  0
 14 20  1  0  0  0  0
 16 17  1  0  0  0  0
 16 18  1  0  0  0  0
 16 19  1  0  0  0  0
 20 21  1  0  0  0  0
 20 22  1  0  0  0  0
 20 23  1  0  0  0  0
 24 25  2  0  0  0  0
 24 26  1  0  0  0  0
 26 27  1  0  0  0  0
 26 28  1  0  0  0  0
 28 29  1  0  0  0  0
 28 30  1  0  0  0  0
 28 31  1  0  0  0  0
M  END
$$$$

  -OEChem-04042216013D

 31 30  0     1  0  0  0  0  0999 V2000
   -2.8469   -4.3600   -0.1013 H   0  0  0  0  0  0  0  0  0  0  0  0
   -2.8130   -3.3239   -0.4504 C   0  0  0  0  0  0  0  0  0  0  0  0
   -3.6172   -2.7644    0.0332 H   0  0  0  0  0  0  0  0  0  0  0  0
   -2.9679   -3.3126   -1.5319 H   0  0  0  0  0  0  0  0  0  0  0  0
   -1.4705   -2.7031   -0.1121 C   0  0  0  0  0  0  0  0  0  0  0  0
   -0.6231   -3.3661    0.4581 O   0  0  0  0  0  0  0  0  0  0  0  0
   -1.2248   -1.3829   -0.4371 N   0  0  0  0  0  0  0  0  0  0  0  0
   -1.9592   -0.8876   -0.9334 H   0  0  0  0  0  0  0  0  0  0  0  0
    0.0625   -0.6937   -0.2282 C   0  0  1  0  0  0  0  0  0  0  0  0
    0.7833   -1.4048   -0.6500 H   0  0  0  0  0  0  0  0  0  0  0  0
    0.2042    0.5191   -1.1967 C   0  0  0  0  0  0  0  0  0  0  0  0
    1.2136    0.4217   -1.6118 H   0  0  0  0  0  0  0  0  0  0  0  0
   -0.4739    0.3541   -2.0399 H   0  0  0  0  0  0  0  0  0  0  0  0
    0.0429    2.0117   -0.7658 C   0  0  0  0  0  0  0  0  0  0  0  0
   -0.7929    2.4125   -1.3496 H   0  0  0  0  0  0  0  0  0  0  0  0
   -0.2763    2.3211    0.6966 C   0  0  0  0  0  0  0  0  0  0  0  0
    0.5638    2.0614    1.3468 H   0  0  0  0  0  0  0  0  0  0  0  0
   -0.4703    3.3914    0.8187 H   0  0  0  0  0  0  0  0  0  0  0  0
   -1.1753    1.7855    1.0116 H   0  0  0  0  0  0  0  0  0  0  0  0
    1.2985    2.8068   -1.1546 C   0  0  0  0  0  0  0  0  0  0  0  0
    1.5029    2.7029   -2.2249 H   0  0  0  0  0  0  0  0  0  0  0  0
    1.1627    3.8710   -0.9372 H   0  0  0  0  0  0  0  0  0  0  0  0
    2.1694    2.4471   -0.5962 H   0  0  0  0  0  0  0  0  0  0  0  0
    0.5674   -0.6197    1.2334 C   0  0  0  0  0  0  0  0  0  0  0  0
    1.7728   -0.6254    1.4488 O   0  0  0  0  0  0  0  0  0  0  0  0
   -0.2854   -0.2848    2.2711 N   0  0  0  0  0  0  0  0  0  0  0  0
   -1.2785   -0.3527    2.0763 H   0  0  0  0  0  0  0  0  0  0  0  0
    0.1536   -0.1761    3.6567 C   0  0  0  0  0  0  0  0  0  0  0  0
    0.9371    0.5829    3.7528 H   0  0  0  0  0  0  0  0  0  0  0  0
   -0.6848    0.1124    4.2976 H   0  0  0  0  0  0  0  0  0  0  0  0
    0.5472   -1.1356    4.0084 H   0  0  0  0  0  0  0  0  0  0  0  0
  1  2  1  0  0  0  0
  2  3  1  0  0  0  0
  2  4  1  0  0  0  0
  2  5  1  0  0  0  0
  5  6  2  0  0  0  0
  5  7  1  0  0  0  0
  7  8  1  0  0  0  0
  7  9  1  0  0  0  0
  9 10  1  0  0  0  0
  9 11  1  0  0  0  0
  9 24  1  0  0  0  0
 11 12  1  0  0  0  0
 11 13  1  0  0  0  0
 11 14  1  0  0  0  0
 14 15  1  0  0  0  0
 14 16  1  0  0  0  0
 14 20  1  0  0  0  0
 16 17  1  0  0  0  0
 16 18  1  0  0  0  0
 16 19  1  0  0  0  0
 20 21  1  0  0  0  0
 20 22  1  0  0  0  0
 20 23  1  0  0  0  0
 24 25  2  0  0  0  0
 24 26  1  0  0  0  0
 26 27  1  0  0  0  0
 26 28  1  0  0  0  0
 28 29  1  0  0  0  0
 28 30  1  0  0  0  0
 28 31  1  0  0  0  0
M  END
$$$$

  -OEChem-04042216013D

 31 30  0     1  0  0  0  0  0999 V2000
   -2.8599   -4.3320   -0.0371 H   0  0  0  0  0  0  0  0  0  0  0  0
   -2.8193   -3.3017   -0.4020 C   0  0  0  0  0  0  0  0  0  0  0  0
   -3.6112   -2.7262    0.0831 H   0  0  0  0  0  0  0  0  0  0  0  0
   -2.9874   -3.3047   -1.4816 H   0  0  0  0  0  0  0  0  0  0  0  0
   -1.4657   -2.6913   -0.0902 C   0  0  0  0  0  0  0  0  0  0  0  0
   -0.6137   -3.3597    0.4665 O   0  0  0  0  0  0  0  0  0  0  0  0
   -1.2151   -1.3745   -0.4242 N   0  0  0  0  0  0  0  0  0  0  0  0
   -1.9549   -0.8742   -0.9075 H   0  0  0  0  0  0  0  0  0  0  0  0
    0.0776   -0.6909   -0.2309 C   0  0  1  0  0  0  0  0  0  0  0  0
    0.7976   -1.3969   -0.6628 H   0  0  0  0  0  0  0  0  0  0  0  0
    0.1860    0.5289   -1.1962 C   0  0  0  0  0  0  0  0  0  0  0  0
    1.1989    0.4435   -1.6053 H   0  0  0  0  0  0  0  0  0  0  0  0
   -0.4891    0.3602   -2.0414 H   0  0  0  0  0  0  0  0  0  0  0  0
    0.0291    2.0220   -0.7673 C   0  0  0  0  0  0  0  0  0  0  0  0
   -0.9671    2.3327   -1.0999 H   0  0  0  0  0  0  0  0  0  0  0  0
    0.0969    2.3819    0.7177 C   0  0  0  0  0  0  0  0  0  0  0  0
    1.0290    2.0281    1.1678 H   0  0  0  0  0  0  0  0  0  0  0  0
   -0.7604    1.9637    1.2483 H   0  0  0  0  0  0  0  0  0  0  0  0
    0.0555    3.4681    0.8461 H   0  0  0  0  0  0  0  0  0  0  0  0
    1.0530    2.8811   -1.5245 C   0  0  0  0  0  0  0  0  0  0  0  0
    0.9831    2.6995   -2.6017 H   0  0  0  0  0  0  0  0  0  0  0  0
    0.8689    3.9453   -1.3470 H   0  0  0  0  0  0  0  0  0  0  0  0
    2.0709    2.6464   -1.1960 H   0  0  0  0  0  0  0  0  0  0  0  0
    0.5836   -0.6191    1.2296 C   0  0  0  0  0  0  0  0  0  0  0  0
    1.7879   -0.6464    1.4496 O   0  0  0  0  0  0  0  0  0  0  0  0
   -0.2706   -0.2771    2.2631 N   0  0  0  0  0  0  0  0  0  0  0  0
   -1.2632   -0.3371    2.0632 H   0  0  0  0  0  0  0  0  0  0  0  0
    0.1624   -0.1712    3.6504 C   0  0  0  0  0  0  0  0  0  0  0  0
    0.9434    0.5898    3.7513 H   0  0  0  0  0  0  0  0  0  0  0  0
   -0.6797    0.1135    4.2882 H   0  0  0  0  0  0  0  0  0  0  0  0
    0.5568   -1.1304    4.0016 H   0  0  0  0  0  0  0  0  0  0  0  0
  1  2  1  0  0  0  0
  2  3  1  0  0  0  0
  2  4  1  0  0  0  0
  2  5  1  0  0  0  0
  5  6  2  0  0  0  0
  5  7  1  0  0  0  0
  7  8  1  0  0  0  0
  7  9  1  0  0  0  0
  9 10  1  0  0  0  0
  9 11  1  0  0  0  0
  9 24  1  0  0  0  0
 11 12  1  0  0  0  0
 11 13  1  0  0  0  0
 11 14  1  0  0  0  0
 14 15  1  0  0  0  0
 14 16  1  0  0  0  0
 14 20  1  0  0  0  0
 16 17  1  0  0  0  0
 16 18  1  0  0  0  0
 16 19  1  0  0  0  0
 20 21  1  0  0  0  0
 20 22  1  0  0  0  0
 20 23  1  0  0  0  0
 24 25  2  0  0  0  0
 24 26  1  0  0  0  0
 26 27  1  0  0  0  0
 26 28  1  0  0  0  0
 28 29  1  0  0  0  0
 28 30  1  0  0  0  0
 28 31  1  0  0  0  0
M  END
$$$$

  -OEChem-04042216013D

 31 30  0     1  0  0  0  0  0999 V2000
   -2.9709   -4.2313   -0.0443 H   0  0  0  0  0  0  0  0  0  0  0  0
   -2.8938   -3.2048   -0.4144 C   0  0  0  0  0  0  0  0  0  0  0  0
   -3.6687   -2.6001    0.0630 H   0  0  0  0  0  0  0  0  0  0  0  0
   -3.0558   -3.2080   -1.4950 H   0  0  0  0  0  0  0  0  0  0  0  0
   -1.5228   -2.6377   -0.0980 C   0  0  0  0  0  0  0  0  0  0  0  0
   -0.6964   -3.3306    0.4670 O   0  0  0  0  0  0  0  0  0  0  0  0
   -1.2263   -1.3338   -0.4456 N   0  0  0  0  0  0  0  0  0  0  0  0
   -1.9453   -0.8175   -0.9430 H   0  0  0  0  0  0  0  0  0  0  0  0
    0.0876   -0.6906   -0.2531 C   0  0  1  0  0  0  0  0  0  0  0  0
    0.7968   -1.4049   -0.6889 H   0  0  0  0  0  0  0  0  0  0  0  0
    0.1981    0.5443   -1.1981 C   0  0  0  0  0  0  0  0  0  0  0  0
    1.2057    0.4560   -1.6195 H   0  0  0  0  0  0  0  0  0  0  0  0
   -0.4916    0.4040   -2.0368 H   0  0  0  0  0  0  0  0  0  0  0  0
    0.0791    2.0279   -0.7366 C   0  0  0  0  0  0  0  0  0  0  0  0
   -0.9834    2.2881   -0.7909 H   0  0  0  0  0  0  0  0  0  0  0  0
    0.5297    2.3973    0.6803 C   0  0  0  0  0  0  0  0  0  0  0  0
    1.4978    1.9441    0.9137 H   0  0  0  0  0  0  0  0  0  0  0  0
   -0.2145    2.0883    1.4146 H   0  0  0  0  0  0  0  0  0  0  0  0
    0.6351    3.4825    0.7767 H   0  0  0  0  0  0  0  0  0  0  0  0
    0.8224    2.9186   -1.7433 C   0  0  0  0  0  0  0  0  0  0  0  0
    0.4859    2.7072   -2.7631 H   0  0  0  0  0  0  0  0  0  0  0  0
    0.6314    3.9761   -1.5355 H   0  0  0  0  0  0  0  0  0  0  0  0
    1.9020    2.7451   -1.6890 H   0  0  0  0  0  0  0  0  0  0  0  0
    0.5661   -0.6299    1.2164 C   0  0  0  0  0  0  0  0  0  0  0  0
    1.7613   -0.7212    1.4664 O   0  0  0  0  0  0  0  0  0  0  0  0
   -0.2994   -0.2526    2.2282 N   0  0  0  0  0  0  0  0  0  0  0  0
   -1.2876   -0.2628    2.0005 H   0  0  0  0  0  0  0  0  0  0  0  0
    0.0990   -0.1886    3.6287 C   0  0  0  0  0  0  0  0  0  0  0  0
    0.9245    0.5187    3.7608 H   0  0  0  0  0  0  0  0  0  0  0  0
   -0.7408    0.1437    4.2460 H   0  0  0  0  0  0  0  0  0  0  0  0
    0.4203   -1.1748    3.9797 H   0  0  0  0  0  0  0  0  0  0  0  0
  1  2  1  0  0  0  0
  2  3  1  0  0  0  0
  2  4  1  0  0  0  0
  2  5  1  0  0  0  0
  5  6  2  0  0  0  0
  5  7  1  0  0  0  0
  7  8  1  0  0  0  0
  7  9  1  0  0  0  0
  9 10  1  0  0  0  0
  9 11  1  0  0  0  0
  9 24  1  0  0  0  0
 11 12  1  0  0  0  0
 11 13  1  0  0  0  0
 11 14  1  0  0  0  0
 14 15  1  0  0  0  0
 14 16  1  0  0  0  0
 14 20  1  0  0  0  0
 16 17  1  0  0  0  0
 16 18  1  0  0  0  0
 16 19  1  0  0  0  0
 20 21  1  0  0  0  0
 20 22  1  0  0  0  0
 20 23  1  0  0  0  0
 24 25  2  0  0  0  0
 24 26  1  0  0  0  0
 26 27  1  0  0  0  0
 26 28  1  0  0  0  0
 28 29  1  0  0  0  0
 28 30  1  0  0  0  0
 28 31  1  0  0  0  0
M  END
$$$$

  -OEChem-04042216013D

 31 30  0     1  0  0  0  0  0999 V2000
   -2.9217   -4.2276    0.0263 H   0  0  0  0  0  0  0  0  0  0  0  0
   -2.8510   -3.2116   -0.3727 C   0  0  0  0  0  0  0  0  0  0  0  0
   -3.6194   -2.5951    0.0998 H   0  0  0  0  0  0  0  0  0  0  0  0
   -3.0290   -3.2441   -1.4504 H   0  0  0  0  0  0  0  0  0  0  0  0
   -1.4759   -2.6357   -0.0918 C   0  0  0  0  0  0  0  0  0  0  0  0
   -0.6402   -3.3145    0.4763 O   0  0  0  0  0  0  0  0  0  0  0  0
   -1.1858   -1.3408   -0.4766 N   0  0  0  0  0  0  0  0  0  0  0  0
   -1.9116   -0.8378   -0.9780 H   0  0  0  0  0  0  0  0  0  0  0  0
    0.1272   -0.6871   -0.3082 C   0  0  1  0  0  0  0  0  0  0  0  0
    0.8521   -1.3795   -0.7527 H   0  0  0  0  0  0  0  0  0  0  0  0
    0.1736    0.5712   -1.2254 C   0  0  0  0  0  0  0  0  0  0  0  0
    1.1583    0.5261   -1.7038 H   0  0  0  0  0  0  0  0  0  0  0  0
   -0.5601    0.4433   -2.0280 H   0  0  0  0  0  0  0  0  0  0  0  0
    0.0426    2.0254   -0.6918 C   0  0  0  0  0  0  0  0  0  0  0  0
   -1.0106    2.1890   -0.4402 H   0  0  0  0  0  0  0  0  0  0  0  0
    0.8588    2.3946    0.5561 C   0  0  0  0  0  0  0  0  0  0  0  0
    1.8445    1.9197    0.5285 H   0  0  0  0  0  0  0  0  0  0  0  0
    1.0072    3.4776    0.6109 H   0  0  0  0  0  0  0  0  0  0  0  0
    0.3400    2.1057    1.4696 H   0  0  0  0  0  0  0  0  0  0  0  0
    0.4068    2.9909   -1.8289 C   0  0  0  0  0  0  0  0  0  0  0  0
   -0.1872    2.7742   -2.7221 H   0  0  0  0  0  0  0  0  0  0  0  0
    0.2078    4.0257   -1.5325 H   0  0  0  0  0  0  0  0  0  0  0  0
    1.4674    2.9020   -2.0860 H   0  0  0  0  0  0  0  0  0  0  0  0
    0.5843   -0.5990    1.1658 C   0  0  0  0  0  0  0  0  0  0  0  0
    1.7731   -0.6964    1.4418 O   0  0  0  0  0  0  0  0  0  0  0  0
   -0.3044   -0.2030    2.1508 N   0  0  0  0  0  0  0  0  0  0  0  0
   -1.2868   -0.2154    1.8997 H   0  0  0  0  0  0  0  0  0  0  0  0
    0.0599   -0.1300    3.5600 C   0  0  0  0  0  0  0  0  0  0  0  0
    0.8968    0.5611    3.7050 H   0  0  0  0  0  0  0  0  0  0  0  0
   -0.7877    0.2279    4.1522 H   0  0  0  0  0  0  0  0  0  0  0  0
    0.3512   -1.1185    3.9302 H   0  0  0  0  0  0  0  0  0  0  0  0
  1  2  1  0  0  0  0
  2  3  1  0  0  0  0
  2  4  1  0  0  0  0
  2  5  1  0  0  0  0
  5  6  2  0  0  0  0
  5  7  1  0  0  0  0
  7  8  1  0  0  0  0
  7  9  1  0  0  0  0
  9 10  1  0  0  0  0
  9 11  1  0  0  0  0
  9 24  1  0  0  0  0
 11 12  1  0  0  0  0
 11 13  1  0  0  0  0
 11 14  1  0  0  0  0
 14 15  1  0  0  0  0
 14 16  1  0  0  0  0
 14 20  1  0  0  0  0
 16 17  1  0  0  0  0
 16 18  1  0  0  0  0
 16 19  1  0  0  0  0
 20 21  1  0  0  0  0
 20 22  1  0  0  0  0
 20 23  1  0  0  0  0
 24 25  2  0  0  0  0
 24 26  1  0  0  0  0
 26 27  1  0  0  0  0
 26 28  1  0  0  0  0
 28 29  1  0  0  0  0
 28 30  1  0  0  0  0
 28 31  1  0  0  0  0
M  END
$$$$

  -OEChem-04042216013D

 31 30  0     1  0  0  0  0  0999 V2000
   -2.8876   -4.2361    0.0983 H   0  0  0  0  0  0  0  0  0  0  0  0
   -2.8237   -3.2317   -0.3301 C   0  0  0  0  0  0  0  0  0  0  0  0
   -3.5979   -2.6073    0.1221 H   0  0  0  0  0  0  0  0  0  0  0  0
   -2.9983   -3.2977   -1.4066 H   0  0  0  0  0  0  0  0  0  0  0  0
   -1.4536   -2.6370   -0.0624 C   0  0  0  0  0  0  0  0  0  0  0  0
   -0.6193   -3.2880    0.5394 O   0  0  0  0  0  0  0  0  0  0  0  0
   -1.1660   -1.3581   -0.4997 N   0  0  0  0  0  0  0  0  0  0  0  0
   -1.8856   -0.8867   -1.0391 H   0  0  0  0  0  0  0  0  0  0  0  0
    0.1460   -0.6957   -0.3547 C   0  0  1  0  0  0  0  0  0  0  0  0
    0.8816   -1.3793   -0.7948 H   0  0  0  0  0  0  0  0  0  0  0  0
    0.1517    0.5700   -1.2602 C   0  0  0  0  0  0  0  0  0  0  0  0
    1.1119    0.5566   -1.7873 H   0  0  0  0  0  0  0  0  0  0  0  0
   -0.6192    0.4497   -2.0283 H   0  0  0  0  0  0  0  0  0  0  0  0
    0.0143    1.9926   -0.6541 C   0  0  0  0  0  0  0  0  0  0  0  0
   -0.9469    2.0550   -0.1332 H   0  0  0  0  0  0  0  0  0  0  0  0
    1.1181    2.3950    0.3420 C   0  0  0  0  0  0  0  0  0  0  0  0
    2.0855    1.9896    0.0289 H   0  0  0  0  0  0  0  0  0  0  0  0
    1.2076    3.4842    0.3984 H   0  0  0  0  0  0  0  0  0  0  0  0
    0.8995    2.0472    1.3517 H   0  0  0  0  0  0  0  0  0  0  0  0
   -0.0063    3.0082   -1.8056 C   0  0  0  0  0  0  0  0  0  0  0  0
   -0.8065    2.7718   -2.5138 H   0  0  0  0  0  0  0  0  0  0  0  0
   -0.1820    4.0186   -1.4229 H   0  0  0  0  0  0  0  0  0  0  0  0
    0.9475    3.0012   -2.3432 H   0  0  0  0  0  0  0  0  0  0  0  0
    0.5921   -0.5500    1.1171 C   0  0  0  0  0  0  0  0  0  0  0  0
    1.7774   -0.6444    1.4093 O   0  0  0  0  0  0  0  0  0  0  0  0
   -0.3091   -0.1151    2.0741 N   0  0  0  0  0  0  0  0  0  0  0  0
   -1.2881   -0.1422    1.8107 H   0  0  0  0  0  0  0  0  0  0  0  0
    0.0345   -0.0012    3.4856 C   0  0  0  0  0  0  0  0  0  0  0  0
    0.8633    0.7009    3.6237 H   0  0  0  0  0  0  0  0  0  0  0  0
   -0.8246    0.3644    4.0557 H   0  0  0  0  0  0  0  0  0  0  0  0
    0.3287   -0.9769    3.8863 H   0  0  0  0  0  0  0  0  0  0  0  0
  1  2  1  0  0  0  0
  2  3  1  0  0  0  0
  2  4  1  0  0  0  0
  2  5  1  0  0  0  0
  5  6  2  0  0  0  0
  5  7  1  0  0  0  0
  7  8  1  0  0  0  0
  7  9  1  0  0  0  0
  9 10  1  0  0  0  0
  9 11  1  0  0  0  0
  9 24  1  0  0  0  0
 11 12  1  0  0  0  0
 11 13  1  0  0  0  0
 11 14  1  0  0  0  0
 14 15  1  0  0  0  0
 14 16  1  0  0  0  0
 14 20  1  0  0  0  0
 16 17  1  0  0  0  0
 16 18  1  0  0  0  0
 16 19  1  0  0  0  0
 20 21  1  0  0  0  0
 20 22  1  0  0  0  0
 20 23  1  0  0  0  0
 24 25  2  0  0  0  0
 24 26  1  0  0  0  0
 26 27  1  0  0  0  0
 26 28  1  0  0  0  0
 28 29  1  0  0  0  0
 28 30  1  0  0  0  0
 28 31  1  0  0  0  0
M  END
$$$$

  -OEChem-04042216013D

 31 30  0     1  0  0  0  0  0999 V2000
   -2.8787   -4.2456    0.1210 H   0  0  0  0  0  0  0  0  0  0  0  0
   -2.8156   -3.2475   -0.3221 C   0  0  0  0  0  0  0  0  0  0  0  0
   -3.5941   -2.6190    0.1165 H   0  0  0  0  0  0  0  0  0  0  0  0
   -2.9846   -3.3298   -1.3985 H   0  0  0  0  0  0  0  0  0  0  0  0
   -1.4492   -2.6442   -0.0562 C   0  0  0  0  0  0  0  0  0  0  0  0
   -0.6205   -3.2772    0.5719 O   0  0  0  0  0  0  0  0  0  0  0  0
   -1.1597   -1.3763   -0.5223 N   0  0  0  0  0  0  0  0  0  0  0  0
   -1.8749   -0.9179   -1.0783 H   0  0  0  0  0  0  0  0  0  0  0  0
    0.1487   -0.7083   -0.3751 C   0  0  1  0  0  0  0  0  0  0  0  0
    0.8926   -1.3904   -0.8030 H   0  0  0  0  0  0  0  0  0  0  0  0
    0.1433    0.5526   -1.2851 C   0  0  0  0  0  0  0  0  0  0  0  0
    1.0933    0.5585   -1.8303 H   0  0  0  0  0  0  0  0  0  0  0  0
   -0.6390    0.4299   -2.0413 H   0  0  0  0  0  0  0  0  0  0  0  0
   -0.0116    1.9499   -0.6298 C   0  0  0  0  0  0  0  0  0  0  0  0
   -0.8316    1.9171    0.0946 H   0  0  0  0  0  0  0  0  0  0  0  0
    1.2585    2.4535    0.0814 C   0  0  0  0  0  0  0  0  0  0  0  0
    2.1345    2.3313   -0.5634 H   0  0  0  0  0  0  0  0  0  0  0  0
    1.1593    3.5153    0.3280 H   0  0  0  0  0  0  0  0  0  0  0  0
    1.4413    1.9256    1.0175 H   0  0  0  0  0  0  0  0  0  0  0  0
   -0.3838    2.9655   -1.7188 C   0  0  0  0  0  0  0  0  0  0  0  0
   -1.3136    2.6732   -2.2163 H   0  0  0  0  0  0  0  0  0  0  0  0
   -0.5319    3.9584   -1.2827 H   0  0  0  0  0  0  0  0  0  0  0  0
    0.4089    3.0313   -2.4711 H   0  0  0  0  0  0  0  0  0  0  0  0
    0.5905   -0.5158    1.0928 C   0  0  0  0  0  0  0  0  0  0  0  0
    1.7713   -0.6311    1.3955 O   0  0  0  0  0  0  0  0  0  0  0  0
   -0.3087   -0.0518    2.0370 N   0  0  0  0  0  0  0  0  0  0  0  0
   -1.2876   -0.0665    1.7723 H   0  0  0  0  0  0  0  0  0  0  0  0
    0.0397    0.1259    3.4405 C   0  0  0  0  0  0  0  0  0  0  0  0
    0.8514    0.8535    3.5443 H   0  0  0  0  0  0  0  0  0  0  0  0
   -0.8249    0.4921    4.0020 H   0  0  0  0  0  0  0  0  0  0  0  0
    0.3610   -0.8256    3.8771 H   0  0  0  0  0  0  0  0  0  0  0  0
  1  2  1  0  0  0  0
  2  3  1  0  0  0  0
  2  4  1  0  0  0  0
  2  5  1  0  0  0  0
  5  6  2  0  0  0  0
  5  7  1  0  0  0  0
  7  8  1  0  0  0  0
  7  9  1  0  0  0  0
  9 10  1  0  0  0  0
  9 11  1  0  0  0  0
  9 24  1  0  0  0  0
 11 12  1  0  0  0  0
 11 13  1  0  0  0  0
 11 14  1  0  0  0  0
 14 15  1  0  0  0  0
 14 16  1  0  0  0  0
 14 20  1  0  0  0  0
 16 17  1  0  0  0  0
 16 18  1  0  0  0  0
 16 19  1  0  0  0  0
 20 21  1  0  0  0  0
 20 22  1  0  0  0  0
 20 23  1  0  0  0  0
 24 25  2  0  0  0  0
 24 26  1  0  0  0  0
 26 27  1  0  0  0  0
 26 28  1  0  0  0  0
 28 29  1  0  0  0  0
 28 30  1  0  0  0  0
 28 31  1  0  0  0  0
M  END
$$$$

  -OEChem-04042216013D

 31 30  0     1  0  0  0  0  0999 V2000
   -2.8474   -4.2816    0.1088 H   0  0  0  0  0  0  0  0  0  0  0  0
   -2.8017   -3.2816   -0.3322 C   0  0  0  0  0  0  0  0  0  0  0  0
   -3.5986   -2.6711    0.0987 H   0  0  0  0  0  0  0  0  0  0  0  0
   -2.9578   -3.3660   -1.4104 H   0  0  0  0  0  0  0  0  0  0  0  0
   -1.4515   -2.6494   -0.0507 C   0  0  0  0  0  0  0  0  0  0  0  0
   -0.6201   -3.2607    0.5952 O   0  0  0  0  0  0  0  0  0  0  0  0
   -1.1789   -1.3799   -0.5222 N   0  0  0  0  0  0  0  0  0  0  0  0
   -1.8935   -0.9395   -1.0934 H   0  0  0  0  0  0  0  0  0  0  0  0
    0.1189   -0.6940   -0.3720 C   0  0  1  0  0  0  0  0  0  0  0  0
    0.8663   -1.3800   -0.7874 H   0  0  0  0  0  0  0  0  0  0  0  0
    0.1330    0.5515   -1.2996 C   0  0  0  0  0  0  0  0  0  0  0  0
    1.0885    0.5571   -1.8353 H   0  0  0  0  0  0  0  0  0  0  0  0
   -0.6403    0.4224   -2.0638 H   0  0  0  0  0  0  0  0  0  0  0  0
   -0.0409    1.9346   -0.6239 C   0  0  0  0  0  0  0  0  0  0  0  0
   -0.6872    1.8481    0.2537 H   0  0  0  0  0  0  0  0  0  0  0  0
    1.3080    2.5470   -0.2152 C   0  0  0  0  0  0  0  0  0  0  0  0
    1.9550    2.6773   -1.0884 H   0  0  0  0  0  0  0  0  0  0  0  0
    1.1545    3.5258    0.2500 H   0  0  0  0  0  0  0  0  0  0  0  0
    1.8286    1.9120    0.5050 H   0  0  0  0  0  0  0  0  0  0  0  0
   -0.7214    2.8981   -1.6049 C   0  0  0  0  0  0  0  0  0  0  0  0
   -1.7147    2.5288   -1.8787 H   0  0  0  0  0  0  0  0  0  0  0  0
   -0.8400    3.8867   -1.1499 H   0  0  0  0  0  0  0  0  0  0  0  0
   -0.1253    3.0049   -2.5171 H   0  0  0  0  0  0  0  0  0  0  0  0
    0.5741   -0.4764    1.0911 C   0  0  0  0  0  0  0  0  0  0  0  0
    1.7620   -0.5558    1.3763 O   0  0  0  0  0  0  0  0  0  0  0  0
   -0.3157   -0.0141    2.0448 N   0  0  0  0  0  0  0  0  0  0  0  0
   -1.2992   -0.0575    1.8011 H   0  0  0  0  0  0  0  0  0  0  0  0
    0.0555    0.1980    3.4377 C   0  0  0  0  0  0  0  0  0  0  0  0
    0.8544    0.9433    3.5116 H   0  0  0  0  0  0  0  0  0  0  0  0
   -0.8059    0.5581    4.0084 H   0  0  0  0  0  0  0  0  0  0  0  0
    0.4036   -0.7382    3.8866 H   0  0  0  0  0  0  0  0  0  0  0  0
  1  2  1  0  0  0  0
  2  3  1  0  0  0  0
  2  4  1  0  0  0  0
  2  5  1  0  0  0  0
  5  6  2  0  0  0  0
  5  7  1  0  0  0  0
  7  8  1  0  0  0  0
  7  9  1  0  0  0  0
  9 10  1  0  0  0  0
  9 11  1  0  0  0  0
  9 24  1  0  0  0  0
 11 12  1  0  0  0  0
 11 13  1  0  0  0  0
 11 14  1  0  0  0  0
 14 15  1  0  0  0  0
 14 16  1  0  0  0  0
 14 20  1  0  0  0  0
 16 17  1  0  0  0  0
 16 18  1  0  0  0  0
 16 19  1  0  0  0  0
 20 21  1  0  0  0  0
 20 22  1  0  0  0  0
 20 23  1  0  0  0  0
 24 25  2  0  0  0  0
 24 26  1  0  0  0  0
 26 27  1  0  0  0  0
 26 28  1  0  0  0  0
 28 29  1  0  0  0  0
 28 30  1  0  0  0  0
 28 31  1  0  0  0  0
M  END
$$$$

  -OEChem-04042216013D

 31 30  0     1  0  0  0  0  0999 V2000
   -2.8302   -4.3157    0.0805 H   0  0  0  0  0  0  0  0  0  0  0  0
   -2.7989   -3.3106   -0.3498 C   0  0  0  0  0  0  0  0  0  0  0  0
   -3.6058   -2.7168    0.0857 H   0  0  0  0  0  0  0  0  0  0  0  0
   -2.9512   -3.3860   -1.4291 H   0  0  0  0  0  0  0  0  0  0  0  0
   -1.4593   -2.6607   -0.0583 C   0  0  0  0  0  0  0  0  0  0  0  0
   -0.6199   -3.2643    0.5848 O   0  0  0  0  0  0  0  0  0  0  0  0
   -1.2065   -1.3807   -0.5117 N   0  0  0  0  0  0  0  0  0  0  0  0
   -1.9264   -0.9441   -1.0790 H   0  0  0  0  0  0  0  0  0  0  0  0
    0.0819   -0.6796   -0.3570 C   0  0  1  0  0  0  0  0  0  0  0  0
    0.8276   -1.3684   -0.7711 H   0  0  0  0  0  0  0  0  0  0  0  0
    0.1234    0.5585   -1.2903 C   0  0  0  0  0  0  0  0  0  0  0  0
    1.0929    0.5513   -1.8001 H   0  0  0  0  0  0  0  0  0  0  0  0
   -0.6269    0.4263   -2.0765 H   0  0  0  0  0  0  0  0  0  0  0  0
   -0.0606    1.9451   -0.6191 C   0  0  0  0  0  0  0  0  0  0  0  0
   -0.4915    1.8497    0.3789 H   0  0  0  0  0  0  0  0  0  0  0  0
    1.2794    2.6870   -0.5269 C   0  0  0  0  0  0  0  0  0  0  0  0
    1.7026    2.8551   -1.5225 H   0  0  0  0  0  0  0  0  0  0  0  0
    1.1455    3.6573   -0.0385 H   0  0  0  0  0  0  0  0  0  0  0  0
    1.9957    2.1047    0.0616 H   0  0  0  0  0  0  0  0  0  0  0  0
   -1.0289    2.7984   -1.4487 C   0  0  0  0  0  0  0  0  0  0  0  0
   -2.0115    2.3191   -1.5007 H   0  0  0  0  0  0  0  0  0  0  0  0
   -1.1548    3.7854   -0.9921 H   0  0  0  0  0  0  0  0  0  0  0  0
   -0.6512    2.9330   -2.4675 H   0  0  0  0  0  0  0  0  0  0  0  0
    0.5592   -0.4680    1.1007 C   0  0  0  0  0  0  0  0  0  0  0  0
    1.7586   -0.4646    1.3461 O   0  0  0  0  0  0  0  0  0  0  0  0
   -0.3198   -0.0281    2.0754 N   0  0  0  0  0  0  0  0  0  0  0  0
   -1.3076   -0.1191    1.8636 H   0  0  0  0  0  0  0  0  0  0  0  0
    0.0840    0.2150    3.4543 C   0  0  0  0  0  0  0  0  0  0  0  0
    0.8546    0.9919    3.4966 H   0  0  0  0  0  0  0  0  0  0  0  0
   -0.7734    0.5478    4.0468 H   0  0  0  0  0  0  0  0  0  0  0  0
    0.4822   -0.7013    3.9030 H   0  0  0  0  0  0  0  0  0  0  0  0
  1  2  1  0  0  0  0
  2  3  1  0  0  0  0
  2  4  1  0  0  0  0
  2  5  1  0  0  0  0
  5  6  2  0  0  0  0
  5  7  1  0  0  0  0
  7  8  1  0  0  0  0
  7  9  1  0  0  0  0
  9 10  1  0  0  0  0
  9 11  1  0  0  0  0
  9 24  1  0  0  0  0
 11 12  1  0  0  0  0
 11 13  1  0  0  0  0
 11 14  1  0  0  0  0
 14 15  1  0  0  0  0
 14 16  1  0  0  0  0
 14 20  1  0  0  0  0
 16 17  1  0  0  0  0
 16 18  1  0  0  0  0
 16 19  1  0  0  0  0
 20 21  1  0  0  0  0
 20 22  1  0  0  0  0
 20 23  1  0  0  0  0
 24 25  2  0  0  0  0
 24 26  1  0  0  0  0
 26 27  1  0  0  0  0
 26 28  1  0  0  0  0
 28 29  1  0  0  0  0
 28 30  1  0  0  0  0
 28 31  1  0  0  0  0
M  END
$$$$

  -OEChem-04042216013D

 31 30  0     1  0  0  0  0  0999 V2000
   -2.8303   -4.3110    0.0785 H   0  0  0  0  0  0  0  0  0  0  0  0
   -2.7964   -3.3054   -0.3504 C   0  0  0  0  0  0  0  0  0  0  0  0
   -3.6005   -2.7094    0.0877 H   0  0  0  0  0  0  0  0  0  0  0  0
   -2.9511   -3.3788   -1.4296 H   0  0  0  0  0  0  0  0  0  0  0  0
   -1.4540   -2.6605   -0.0606 C   0  0  0  0  0  0  0  0  0  0  0  0
   -0.6128   -3.2706    0.5739 O   0  0  0  0  0  0  0  0  0  0  0  0
   -1.2002   -1.3776   -0.5054 N   0  0  0  0  0  0  0  0  0  0  0  0
   -1.9221   -0.9340   -1.0649 H   0  0  0  0  0  0  0  0  0  0  0  0
    0.0885   -0.6786   -0.3466 C   0  0  1  0  0  0  0  0  0  0  0  0
    0.8342   -1.3655   -0.7637 H   0  0  0  0  0  0  0  0  0  0  0  0
    0.1258    0.5624   -1.2772 C   0  0  0  0  0  0  0  0  0  0  0  0
    1.1065    0.5487   -1.7652 H   0  0  0  0  0  0  0  0  0  0  0  0
   -0.6042    0.4301   -2.0824 H   0  0  0  0  0  0  0  0  0  0  0  0
   -0.0579    1.9593   -0.6210 C   0  0  0  0  0  0  0  0  0  0  0  0
   -0.1930    1.8833    0.4578 H   0  0  0  0  0  0  0  0  0  0  0  0
    1.1712    2.8408   -0.8730 C   0  0  0  0  0  0  0  0  0  0  0  0
    1.3364    2.9806   -1.9461 H   0  0  0  0  0  0  0  0  0  0  0  0
    1.0373    3.8239   -0.4109 H   0  0  0  0  0  0  0  0  0  0  0  0
    2.0634    2.3775   -0.4389 H   0  0  0  0  0  0  0  0  0  0  0  0
   -1.3040    2.6487   -1.1889 C   0  0  0  0  0  0  0  0  0  0  0  0
   -2.1945    2.0426   -0.9962 H   0  0  0  0  0  0  0  0  0  0  0  0
   -1.4462    3.6264   -0.7178 H   0  0  0  0  0  0  0  0  0  0  0  0
   -1.2073    2.7957   -2.2694 H   0  0  0  0  0  0  0  0  0  0  0  0
    0.5618   -0.4799    1.1138 C   0  0  0  0  0  0  0  0  0  0  0  0
    1.7608   -0.4623    1.3598 O   0  0  0  0  0  0  0  0  0  0  0  0
   -0.3229   -0.0476    2.0870 N   0  0  0  0  0  0  0  0  0  0  0  0
   -1.3095   -0.1409    1.8703 H   0  0  0  0  0  0  0  0  0  0  0  0
    0.0743    0.1977    3.4675 C   0  0  0  0  0  0  0  0  0  0  0  0
    0.8389    0.9804    3.5130 H   0  0  0  0  0  0  0  0  0  0  0  0
   -0.7876    0.5242    4.0571 H   0  0  0  0  0  0  0  0  0  0  0  0
    0.4775   -0.7158    3.9170 H   0  0  0  0  0  0  0  0  0  0  0  0
  1  2  1  0  0  0  0
  2  3  1  0  0  0  0
  2  4  1  0  0  0  0
  2  5  1  0  0  0  0
  5  6  2  0  0  0  0
  5  7  1  0  0  0  0
  7  8  1  0  0  0  0
  7  9  1  0  0  0  0
  9 10  1  0  0  0  0
  9 11  1  0  0  0  0
  9 24  1  0  0  0  0
 11 12  1  0  0  0  0
 11 13  1  0  0  0  0
 11 14  1  0  0  0  0
 14 15  1  0  0  0  0
 14 16  1  0  0  0  0
 14 20  1  0  0  0  0
 16 17  1  0  0  0  0
 16 18  1  0  0  0  0
 16 19  1  0  0  0  0
 20 21  1  0  0  0  0
 20 22  1  0  0  0  0
 20 23  1  0  0  0  0
 24 25  2  0  0  0  0
 24 26  1  0  0  0  0
 26 27  1  0  0  0  0
 26 28  1  0  0  0  0
 28 29  1  0  0  0  0
 28 30  1  0  0  0  0
 28 31  1  0  0  0  0
M  END
$$$$

  -OEChem-04042216013D

 31 30  0     1  0  0  0  0  0999 V2000
   -2.8332   -4.2985    0.0817 H   0  0  0  0  0  0  0  0  0  0  0  0
   -2.7908   -3.2942   -0.3500 C   0  0  0  0  0  0  0  0  0  0  0  0
   -3.5920   -2.6911    0.0837 H   0  0  0  0  0  0  0  0  0  0  0  0
   -2.9418   -3.3695   -1.4296 H   0  0  0  0  0  0  0  0  0  0  0  0
   -1.4452   -2.6575   -0.0579 C   0  0  0  0  0  0  0  0  0  0  0  0
   -0.6108   -3.2697    0.5835 O   0  0  0  0  0  0  0  0  0  0  0  0
   -1.1807   -1.3800   -0.5112 N   0  0  0  0  0  0  0  0  0  0  0  0
   -1.8976   -0.9355   -1.0763 H   0  0  0  0  0  0  0  0  0  0  0  0
    0.1116   -0.6875   -0.3524 C   0  0  1  0  0  0  0  0  0  0  0  0
    0.8604   -1.3705   -0.7704 H   0  0  0  0  0  0  0  0  0  0  0  0
    0.1295    0.5610   -1.2745 C   0  0  0  0  0  0  0  0  0  0  0  0
    1.1155    0.5527   -1.7515 H   0  0  0  0  0  0  0  0  0  0  0  0
   -0.5943    0.4370   -2.0865 H   0  0  0  0  0  0  0  0  0  0  0  0
   -0.0510    1.9554   -0.6151 C   0  0  0  0  0  0  0  0  0  0  0  0
    0.1382    1.9152    0.4583 H   0  0  0  0  0  0  0  0  0  0  0  0
    0.9642    2.9551   -1.1816 C   0  0  0  0  0  0  0  0  0  0  0  0
    0.8505    3.0487   -2.2662 H   0  0  0  0  0  0  0  0  0  0  0  0
    0.8201    3.9420   -0.7309 H   0  0  0  0  0  0  0  0  0  0  0  0
    1.9857    2.6266   -0.9639 H   0  0  0  0  0  0  0  0  0  0  0  0
   -1.4824    2.4603   -0.8232 C   0  0  0  0  0  0  0  0  0  0  0  0
   -2.2005    1.7488   -0.4039 H   0  0  0  0  0  0  0  0  0  0  0  0
   -1.6216    3.4241   -0.3234 H   0  0  0  0  0  0  0  0  0  0  0  0
   -1.6976    2.5886   -1.8888 H   0  0  0  0  0  0  0  0  0  0  0  0
    0.5692   -0.4861    1.1117 C   0  0  0  0  0  0  0  0  0  0  0  0
    1.7648   -0.4763    1.3739 O   0  0  0  0  0  0  0  0  0  0  0  0
   -0.3278   -0.0434    2.0688 N   0  0  0  0  0  0  0  0  0  0  0  0
   -1.3115   -0.1239    1.8353 H   0  0  0  0  0  0  0  0  0  0  0  0
    0.0496    0.2050    3.4540 C   0  0  0  0  0  0  0  0  0  0  0  0
    0.8165    0.9849    3.5081 H   0  0  0  0  0  0  0  0  0  0  0  0
   -0.8199    0.5364    4.0295 H   0  0  0  0  0  0  0  0  0  0  0  0
    0.4426   -0.7087    3.9125 H   0  0  0  0  0  0  0  0  0  0  0  0
  1  2  1  0  0  0  0
  2  3  1  0  0  0  0
  2  4  1  0  0  0  0
  2  5  1  0  0  0  0
  5  6  2  0  0  0  0
  5  7  1  0  0  0  0
  7  8  1  0  0  0  0
  7  9  1  0  0  0  0
  9 10  1  0  0  0  0
  9 11  1  0  0  0  0
  9 24  1  0  0  0  0
 11 12  1  0  0  0  0
 11 13  1  0  0  0  0
 11 14  1  0  0  0  0
 14 15  1  0  0  0  0
 14 16  1  0  0  0  0
 14 20  1  0  0  0  0
 16 17  1  0  0  0  0
 16 18  1  0  0  0  0
 16 19  1  0  0  0  0
 20 21  1  0  0  0  0
 20 22  1  0  0  0  0
 20 23  1  0  0  0  0
 24 25  2  0  0  0  0
 24 26  1  0  0  0  0
 26 27  1  0  0  0  0
 26 28  1  0  0  0  0
 28 29  1  0  0  0  0
 28 30  1  0  0  0  0
 28 31  1  0  0  0  0
M  END
$$$$

  -OEChem-04042216013D

 31 30  0     1  0  0  0  0  0999 V2000
   -2.8324   -4.2933    0.0940 H   0  0  0  0  0  0  0  0  0  0  0  0
   -2.7862   -3.2926   -0.3454 C   0  0  0  0  0  0  0  0  0  0  0  0
   -3.5821   -2.6818    0.0874 H   0  0  0  0  0  0  0  0  0  0  0  0
   -2.9429   -3.3748   -1.4236 H   0  0  0  0  0  0  0  0  0  0  0  0
   -1.4356   -2.6614   -0.0637 C   0  0  0  0  0  0  0  0  0  0  0  0
   -0.6015   -3.2744    0.5772 O   0  0  0  0  0  0  0  0  0  0  0  0
   -1.1667   -1.3883   -0.5263 N   0  0  0  0  0  0  0  0  0  0  0  0
   -1.8835   -0.9440   -1.0917 H   0  0  0  0  0  0  0  0  0  0  0  0
    0.1263   -0.6968   -0.3677 C   0  0  1  0  0  0  0  0  0  0  0  0
    0.8792   -1.3744   -0.7871 H   0  0  0  0  0  0  0  0  0  0  0  0
    0.1298    0.5594   -1.2790 C   0  0  0  0  0  0  0  0  0  0  0  0
    1.1147    0.5679   -1.7586 H   0  0  0  0  0  0  0  0  0  0  0  0
   -0.6009    0.4469   -2.0867 H   0  0  0  0  0  0  0  0  0  0  0  0
   -0.0519    1.9369   -0.5945 C   0  0  0  0  0  0  0  0  0  0  0  0
    0.4092    1.9424    0.3962 H   0  0  0  0  0  0  0  0  0  0  0  0
    0.6726    3.0254   -1.3938 C   0  0  0  0  0  0  0  0  0  0  0  0
    0.2928    3.0677   -2.4195 H   0  0  0  0  0  0  0  0  0  0  0  0
    0.5225    4.0037   -0.9266 H   0  0  0  0  0  0  0  0  0  0  0  0
    1.7481    2.8245   -1.4270 H   0  0  0  0  0  0  0  0  0  0  0  0
   -1.5397    2.2689   -0.4436 C   0  0  0  0  0  0  0  0  0  0  0  0
   -2.0453    1.4982    0.1455 H   0  0  0  0  0  0  0  0  0  0  0  0
   -1.6638    3.2286    0.0680 H   0  0  0  0  0  0  0  0  0  0  0  0
   -2.0234    2.3334   -1.4234 H   0  0  0  0  0  0  0  0  0  0  0  0
    0.5751   -0.4854    1.0975 C   0  0  0  0  0  0  0  0  0  0  0  0
    1.7682   -0.4861    1.3707 O   0  0  0  0  0  0  0  0  0  0  0  0
   -0.3277   -0.0333    2.0443 N   0  0  0  0  0  0  0  0  0  0  0  0
   -1.3095   -0.0996    1.7989 H   0  0  0  0  0  0  0  0  0  0  0  0
    0.0376    0.2264    3.4307 C   0  0  0  0  0  0  0  0  0  0  0  0
    0.8089    1.0017    3.4853 H   0  0  0  0  0  0  0  0  0  0  0  0
   -0.8355    0.5692    3.9938 H   0  0  0  0  0  0  0  0  0  0  0  0
    0.4199   -0.6850    3.9023 H   0  0  0  0  0  0  0  0  0  0  0  0
  1  2  1  0  0  0  0
  2  3  1  0  0  0  0
  2  4  1  0  0  0  0
  2  5  1  0  0  0  0
  5  6  2  0  0  0  0
  5  7  1  0  0  0  0
  7  8  1  0  0  0  0
  7  9  1  0  0  0  0
  9 10  1  0  0  0  0
  9 11  1  0  0  0  0
  9 24  1  0  0  0  0
 11 12  1  0  0  0  0
 11 13  1  0  0  0  0
 11 14  1  0  0  0  0
 14 15  1  0  0  0  0
 14 16  1  0  0  0  0
 14 20  1  0  0  0  0
 16 17  1  0  0  0  0
 16 18  1  0  0  0  0
 16 19  1  0  0  0  0
 20 21  1  0  0  0  0
 20 22  1  0  0  0  0
 20 23  1  0  0  0  0
 24 25  2  0  0  0  0
 24 26  1  0  0  0  0
 26 27  1  0  0  0  0
 26 28  1  0  0  0  0
 28 29  1  0  0  0  0
 28 30  1  0  0  0  0
 28 31  1  0  0  0  0
M  END
$$$$

  -OEChem-04042216013D

 31 30  0     1  0  0  0  0  0999 V2000
   -2.8135   -4.3290    0.0550 H   0  0  0  0  0  0  0  0  0  0  0  0
   -2.7810   -3.3211   -0.3688 C   0  0  0  0  0  0  0  0  0  0  0  0
   -3.5917   -2.7310    0.0652 H   0  0  0  0  0  0  0  0  0  0  0  0
   -2.9258   -3.3901   -1.4497 H   0  0  0  0  0  0  0  0  0  0  0  0
   -1.4445   -2.6707   -0.0652 C   0  0  0  0  0  0  0  0  0  0  0  0
   -0.6080   -3.2756    0.5804 O   0  0  0  0  0  0  0  0  0  0  0  0
   -1.1912   -1.3882   -0.5101 N   0  0  0  0  0  0  0  0  0  0  0  0
   -1.9104   -0.9470   -1.0750 H   0  0  0  0  0  0  0  0  0  0  0  0
    0.0956   -0.6872   -0.3466 C   0  0  1  0  0  0  0  0  0  0  0  0
    0.8443   -1.3671   -0.7703 H   0  0  0  0  0  0  0  0  0  0  0  0
    0.1200    0.5651   -1.2606 C   0  0  0  0  0  0  0  0  0  0  0  0
    1.1085    0.5778   -1.7331 H   0  0  0  0  0  0  0  0  0  0  0  0
   -0.6098    0.4551   -2.0692 H   0  0  0  0  0  0  0  0  0  0  0  0
   -0.0693    1.9360   -0.5739 C   0  0  0  0  0  0  0  0  0  0  0  0
    0.5660    2.0083    0.3146 H   0  0  0  0  0  0  0  0  0  0  0  0
    0.3488    3.0543   -1.5358 C   0  0  0  0  0  0  0  0  0  0  0  0
   -0.2454    3.0188   -2.4545 H   0  0  0  0  0  0  0  0  0  0  0  0
    0.2067    4.0331   -1.0672 H   0  0  0  0  0  0  0  0  0  0  0  0
    1.4061    2.9541   -1.8010 H   0  0  0  0  0  0  0  0  0  0  0  0
   -1.5368    2.1478   -0.1749 C   0  0  0  0  0  0  0  0  0  0  0  0
   -1.8837    1.3550    0.4914 H   0  0  0  0  0  0  0  0  0  0  0  0
   -1.6518    3.1042    0.3446 H   0  0  0  0  0  0  0  0  0  0  0  0
   -2.1791    2.1558   -1.0611 H   0  0  0  0  0  0  0  0  0  0  0  0
    0.5745   -0.4798    1.1109 C   0  0  0  0  0  0  0  0  0  0  0  0
    1.7749   -0.4685    1.3511 O   0  0  0  0  0  0  0  0  0  0  0  0
   -0.3011   -0.0434    2.0892 N   0  0  0  0  0  0  0  0  0  0  0  0
   -1.2895   -0.1284    1.8779 H   0  0  0  0  0  0  0  0  0  0  0  0
    0.1044    0.2046    3.4665 C   0  0  0  0  0  0  0  0  0  0  0  0
    0.8712    0.9854    3.5056 H   0  0  0  0  0  0  0  0  0  0  0  0
   -0.7538    0.5348    4.0593 H   0  0  0  0  0  0  0  0  0  0  0  0
    0.5074   -0.7088    3.9167 H   0  0  0  0  0  0  0  0  0  0  0  0
  1  2  1  0  0  0  0
  2  3  1  0  0  0  0
  2  4  1  0  0  0  0
  2  5  1  0  0  0  0
  5  6  2  0  0  0  0
  5  7  1  0  0  0  0
  7  8  1  0  0  0  0
  7  9  1  0  0  0  0
  9 10  1  0  0  0  0
  9 11  1  0  0  0  0
  9 24  1  0  0  0  0
 11 12  1  0  0  0  0
 11 13  1  0  0  0  0
 11 14  1  0  0  0  0
 14 15  1  0  0  0  0
 14 16  1  0  0  0  0
 14 20  1  0  0  0  0
 16 17  1  0  0  0  0
 16 18  1  0  0  0  0
 16 19  1  0  0  0  0
 20 21  1  0  0  0  0
 20 22  1  0  0  0  0
 20 23  1  0  0  0  0
 24 25  2  0  0  0  0
 24 26  1  0  0  0  0
 26 27  1  0  0  0  0
 26 28  1  0  0  0  0
 28 29  1  0  0  0  0
 28 30  1  0  0  0  0
 28 31  1  0  0  0  0
M  END
$$$$

  -OEChem-04042216013D

 31 30  0     1  0  0  0  0  0999 V2000
   -2.7614   -4.3732   -0.0019 H   0  0  0  0  0  0  0  0  0  0  0  0
   -2.7575   -3.3489   -0.3856 C   0  0  0  0  0  0  0  0  0  0  0  0
   -3.5744   -2.7950    0.0831 H   0  0  0  0  0  0  0  0  0  0  0  0
   -2.9173   -3.3785   -1.4660 H   0  0  0  0  0  0  0  0  0  0  0  0
   -1.4309   -2.6813   -0.0754 C   0  0  0  0  0  0  0  0  0  0  0  0
   -0.5624   -3.3022    0.5103 O   0  0  0  0  0  0  0  0  0  0  0  0
   -1.2239   -1.3655   -0.4410 N   0  0  0  0  0  0  0  0  0  0  0  0
   -1.9715   -0.9073   -0.9529 H   0  0  0  0  0  0  0  0  0  0  0  0
    0.0468   -0.6393   -0.2618 C   0  0  1  0  0  0  0  0  0  0  0  0
    0.7863   -1.3292   -0.6864 H   0  0  0  0  0  0  0  0  0  0  0  0
    0.1405    0.5864   -1.2123 C   0  0  0  0  0  0  0  0  0  0  0  0
    1.0165    0.4225   -1.8499 H   0  0  0  0  0  0  0  0  0  0  0  0
   -0.7307    0.5824   -1.8749 H   0  0  0  0  0  0  0  0  0  0  0  0
    0.2891    2.0035   -0.6121 C   0  0  0  0  0  0  0  0  0  0  0  0
    1.1945    2.0629    0.0026 H   0  0  0  0  0  0  0  0  0  0  0  0
    0.3667    3.0095   -1.7716 C   0  0  0  0  0  0  0  0  0  0  0  0
   -0.5435    2.9812   -2.3796 H   0  0  0  0  0  0  0  0  0  0  0  0
    0.4977    4.0266   -1.3887 H   0  0  0  0  0  0  0  0  0  0  0  0
    1.2206    2.7800   -2.4169 H   0  0  0  0  0  0  0  0  0  0  0  0
   -0.9423    2.4335    0.2051 C   0  0  0  0  0  0  0  0  0  0  0  0
   -0.8580    3.4871    0.4902 H   0  0  0  0  0  0  0  0  0  0  0  0
   -1.0475    1.8618    1.1219 H   0  0  0  0  0  0  0  0  0  0  0  0
   -1.8567    2.3074   -0.3832 H   0  0  0  0  0  0  0  0  0  0  0  0
    0.5697   -0.5048    1.1899 C   0  0  0  0  0  0  0  0  0  0  0  0
    1.7780   -0.4722    1.3857 O   0  0  0  0  0  0  0  0  0  0  0  0
   -0.2712   -0.1580    2.2317 N   0  0  0  0  0  0  0  0  0  0  0  0
   -1.2656   -0.2601    2.0592 H   0  0  0  0  0  0  0  0  0  0  0  0
    0.1894    0.0121    3.6038 C   0  0  0  0  0  0  0  0  0  0  0  0
    0.9276    0.8189    3.6627 H   0  0  0  0  0  0  0  0  0  0  0  0
   -0.6514    0.2657    4.2564 H   0  0  0  0  0  0  0  0  0  0  0  0
    0.6471   -0.9126    3.9707 H   0  0  0  0  0  0  0  0  0  0  0  0
  1  2  1  0  0  0  0
  2  3  1  0  0  0  0
  2  4  1  0  0  0  0
  2  5  1  0  0  0  0
  5  6  2  0  0  0  0
  5  7  1  0  0  0  0
  7  8  1  0  0  0  0
  7  9  1  0  0  0  0
  9 10  1  0  0  0  0
  9 11  1  0  0  0  0
  9 24  1  0  0  0  0
 11 12  1  0  0  0  0
 11 13  1  0  0  0  0
 11 14  1  0  0  0  0
 14 15  1  0  0  0  0
 14 16  1  0  0  0  0
 14 20  1  0  0  0  0
 16 17  1  0  0  0  0
 16 18  1  0  0  0  0
 16 19  1  0  0  0  0
 20 21  1  0  0  0  0
 20 22  1  0  0  0  0
 20 23  1  0  0  0  0
 24 25  2  0  0  0  0
 24 26  1  0  0  0  0
 26 27  1  0  0  0  0
 26 28  1  0  0  0  0
 28 29  1  0  0  0  0
 28 30  1  0  0  0  0
 28 31  1  0  0  0  0
M  END
$$$$

  -OEChem-04042216013D

 31 30  0     1  0  0  0  0  0999 V2000
   -2.8989   -4.2986    0.0116 H   0  0  0  0  0  0  0  0  0  0  0  0
   -2.8568   -3.2747   -0.3712 C   0  0  0  0  0  0  0  0  0  0  0  0
   -3.6525   -2.6914    0.0982 H   0  0  0  0  0  0  0  0  0  0  0  0
   -3.0175   -3.2971   -1.4517 H   0  0  0  0  0  0  0  0  0  0  0  0
   -1.5061   -2.6573   -0.0613 C   0  0  0  0  0  0  0  0  0  0  0  0
   -0.6609   -3.3113    0.5221 O   0  0  0  0  0  0  0  0  0  0  0  0
   -1.2482   -1.3522   -0.4340 N   0  0  0  0  0  0  0  0  0  0  0  0
   -1.9789   -0.8689   -0.9473 H   0  0  0  0  0  0  0  0  0  0  0  0
    0.0514   -0.6739   -0.2641 C   0  0  1  0  0  0  0  0  0  0  0  0
    0.7715   -1.3814   -0.6929 H   0  0  0  0  0  0  0  0  0  0  0  0
    0.1668    0.5600   -1.2057 C   0  0  0  0  0  0  0  0  0  0  0  0
    1.0099    0.3689   -1.8786 H   0  0  0  0  0  0  0  0  0  0  0  0
   -0.7294    0.5763   -1.8345 H   0  0  0  0  0  0  0  0  0  0  0  0
    0.3750    1.9903   -0.6425 C   0  0  0  0  0  0  0  0  0  0  0  0
    1.4153    2.1041   -0.3173 H   0  0  0  0  0  0  0  0  0  0  0  0
    0.0765    2.9857   -1.7760 C   0  0  0  0  0  0  0  0  0  0  0  0
   -0.9793    2.9476   -2.0637 H   0  0  0  0  0  0  0  0  0  0  0  0
    0.3145    4.0070   -1.4617 H   0  0  0  0  0  0  0  0  0  0  0  0
    0.6854    2.7542   -2.6558 H   0  0  0  0  0  0  0  0  0  0  0  0
   -0.5558    2.3706    0.5210 C   0  0  0  0  0  0  0  0  0  0  0  0
   -0.8005    3.4374    0.5029 H   0  0  0  0  0  0  0  0  0  0  0  0
   -0.0613    2.1831    1.4760 H   0  0  0  0  0  0  0  0  0  0  0  0
   -1.4921    1.8064    0.4740 H   0  0  0  0  0  0  0  0  0  0  0  0
    0.5541   -0.5702    1.1958 C   0  0  0  0  0  0  0  0  0  0  0  0
    1.7580   -0.5850    1.4180 O   0  0  0  0  0  0  0  0  0  0  0  0
   -0.3021   -0.1949    2.2160 N   0  0  0  0  0  0  0  0  0  0  0  0
   -1.2940   -0.2568    2.0135 H   0  0  0  0  0  0  0  0  0  0  0  0
    0.1245   -0.0637    3.6033 C   0  0  0  0  0  0  0  0  0  0  0  0
    0.9202    0.6836    3.6917 H   0  0  0  0  0  0  0  0  0  0  0  0
   -0.7156    0.2533    4.2285 H   0  0  0  0  0  0  0  0  0  0  0  0
    0.4971   -1.0220    3.9800 H   0  0  0  0  0  0  0  0  0  0  0  0
  1  2  1  0  0  0  0
  2  3  1  0  0  0  0
  2  4  1  0  0  0  0
  2  5  1  0  0  0  0
  5  6  2  0  0  0  0
  5  7  1  0  0  0  0
  7  8  1  0  0  0  0
  7  9  1  0  0  0  0
  9 10  1  0  0  0  0
  9 11  1  0  0  0  0
  9 24  1  0  0  0  0
 11 12  1  0  0  0  0
 11 13  1  0  0  0  0
 11 14  1  0  0  0  0
 14 15  1  0  0  0  0
 14 16  1  0  0  0  0
 14 20  1  0  0  0  0
 16 17  1  0  0  0  0
 16 18  1  0  0  0  0
 16 19  1  0  0  0  0
 20 21  1  0  0  0  0
 20 22  1  0  0  0  0
 20 23  1  0  0  0  0
 24 25  2  0  0  0  0
 24 26  1  0  0  0  0
 26 27  1  0  0  0  0
 26 28  1  0  0  0  0
 28 29  1  0  0  0  0
 28 30  1  0  0  0  0
 28 31  1  0  0  0  0
M  END
$$$$

  -OEChem-04042216013D

 31 30  0     1  0  0  0  0  0999 V2000
   -2.9187   -4.2878   -0.0707 H   0  0  0  0  0  0  0  0  0  0  0  0
   -2.8696   -3.2537   -0.4239 C   0  0  0  0  0  0  0  0  0  0  0  0
   -3.6533   -2.6757    0.0716 H   0  0  0  0  0  0  0  0  0  0  0  0
   -3.0429   -3.2425   -1.5026 H   0  0  0  0  0  0  0  0  0  0  0  0
   -1.5087   -2.6598   -0.1125 C   0  0  0  0  0  0  0  0  0  0  0  0
   -0.6585   -3.3432    0.4284 O   0  0  0  0  0  0  0  0  0  0  0  0
   -1.2479   -1.3424   -0.4364 N   0  0  0  0  0  0  0  0  0  0  0  0
   -1.9837   -0.8349   -0.9180 H   0  0  0  0  0  0  0  0  0  0  0  0
    0.0558   -0.6748   -0.2529 C   0  0  1  0  0  0  0  0  0  0  0  0
    0.7691   -1.3745   -0.7051 H   0  0  0  0  0  0  0  0  0  0  0  0
    0.1701    0.5767   -1.1770 C   0  0  0  0  0  0  0  0  0  0  0  0
    1.0058    0.3870   -1.8592 H   0  0  0  0  0  0  0  0  0  0  0  0
   -0.7283    0.5834   -1.8022 H   0  0  0  0  0  0  0  0  0  0  0  0
    0.3823    2.0251   -0.6440 C   0  0  0  0  0  0  0  0  0  0  0  0
    1.4584    2.2258   -0.5941 H   0  0  0  0  0  0  0  0  0  0  0  0
   -0.2747    2.9959   -1.6403 C   0  0  0  0  0  0  0  0  0  0  0  0
   -1.3629    2.8745   -1.6465 H   0  0  0  0  0  0  0  0  0  0  0  0
   -0.0427    4.0328   -1.3771 H   0  0  0  0  0  0  0  0  0  0  0  0
    0.1017    2.8139   -2.6519 H   0  0  0  0  0  0  0  0  0  0  0  0
   -0.2266    2.3552    0.7249 C   0  0  0  0  0  0  0  0  0  0  0  0
    0.4444    2.0358    1.5251 H   0  0  0  0  0  0  0  0  0  0  0  0
   -0.3597    3.4351    0.8440 H   0  0  0  0  0  0  0  0  0  0  0  0
   -1.2033    1.8768    0.8426 H   0  0  0  0  0  0  0  0  0  0  0  0
    0.5667   -0.6319    1.2069 C   0  0  0  0  0  0  0  0  0  0  0  0
    1.7715   -0.6637    1.4227 O   0  0  0  0  0  0  0  0  0  0  0  0
   -0.2838   -0.2949    2.2462 N   0  0  0  0  0  0  0  0  0  0  0  0
   -1.2771   -0.3379    2.0453 H   0  0  0  0  0  0  0  0  0  0  0  0
    0.1503   -0.2220    3.6356 C   0  0  0  0  0  0  0  0  0  0  0  0
    0.9555    0.5114    3.7489 H   0  0  0  0  0  0  0  0  0  0  0  0
   -0.6829    0.0814    4.2762 H   0  0  0  0  0  0  0  0  0  0  0  0
    0.5126   -1.1985    3.9738 H   0  0  0  0  0  0  0  0  0  0  0  0
  1  2  1  0  0  0  0
  2  3  1  0  0  0  0
  2  4  1  0  0  0  0
  2  5  1  0  0  0  0
  5  6  2  0  0  0  0
  5  7  1  0  0  0  0
  7  8  1  0  0  0  0
  7  9  1  0  0  0  0
  9 10  1  0  0  0  0
  9 11  1  0  0  0  0
  9 24  1  0  0  0  0
 11 12  1  0  0  0  0
 11 13  1  0  0  0  0
 11 14  1  0  0  0  0
 14 15  1  0  0  0  0
 14 16  1  0  0  0  0
 14 20  1  0  0  0  0
 16 17  1  0  0  0  0
 16 18  1  0  0  0  0
 16 19  1  0  0  0  0
 20 21  1  0  0  0  0
 20 22  1  0  0  0  0
 20 23  1  0  0  0  0
 24 25  2  0  0  0  0
 24 26  1  0  0  0  0
 26 27  1  0  0  0  0
 26 28  1  0  0  0  0
 28 29  1  0  0  0  0
 28 30  1  0  0  0  0
 28 31  1  0  0  0  0
M  END
$$$$

  -OEChem-04042216013D

 31 30  0     1  0  0  0  0  0999 V2000
   -2.9212   -4.2899   -0.0596 H   0  0  0  0  0  0  0  0  0  0  0  0
   -2.8643   -3.2577   -0.4169 C   0  0  0  0  0  0  0  0  0  0  0  0
   -3.6397   -2.6713    0.0812 H   0  0  0  0  0  0  0  0  0  0  0  0
   -3.0445   -3.2487   -1.4945 H   0  0  0  0  0  0  0  0  0  0  0  0
   -1.4960   -2.6756   -0.1153 C   0  0  0  0  0  0  0  0  0  0  0  0
   -0.6449   -3.3702    0.4094 O   0  0  0  0  0  0  0  0  0  0  0  0
   -1.2288   -1.3575   -0.4318 N   0  0  0  0  0  0  0  0  0  0  0  0
   -1.9690   -0.8381   -0.8934 H   0  0  0  0  0  0  0  0  0  0  0  0
    0.0764   -0.6939   -0.2412 C   0  0  1  0  0  0  0  0  0  0  0  0
    0.7924   -1.3900   -0.6946 H   0  0  0  0  0  0  0  0  0  0  0  0
    0.1769    0.5610   -1.1684 C   0  0  0  0  0  0  0  0  0  0  0  0
    1.0220    0.3682   -1.8385 H   0  0  0  0  0  0  0  0  0  0  0  0
   -0.7097    0.5443   -1.8104 H   0  0  0  0  0  0  0  0  0  0  0  0
    0.3807    2.0316   -0.6756 C   0  0  0  0  0  0  0  0  0  0  0  0
    1.4085    2.3253   -0.9171 H   0  0  0  0  0  0  0  0  0  0  0  0
   -0.5886    2.9427   -1.4485 C   0  0  0  0  0  0  0  0  0  0  0  0
   -1.6280    2.7066   -1.1981 H   0  0  0  0  0  0  0  0  0  0  0  0
   -0.4044    3.9949   -1.2088 H   0  0  0  0  0  0  0  0  0  0  0  0
   -0.4516    2.8158   -2.5272 H   0  0  0  0  0  0  0  0  0  0  0  0
    0.1592    2.3450    0.8080 C   0  0  0  0  0  0  0  0  0  0  0  0
    0.9550    1.9120    1.4185 H   0  0  0  0  0  0  0  0  0  0  0  0
    0.1860    3.4259    0.9781 H   0  0  0  0  0  0  0  0  0  0  0  0
   -0.8143    1.9754    1.1416 H   0  0  0  0  0  0  0  0  0  0  0  0
    0.5765   -0.6626    1.2223 C   0  0  0  0  0  0  0  0  0  0  0  0
    1.7778   -0.7287    1.4503 O   0  0  0  0  0  0  0  0  0  0  0  0
   -0.2800   -0.3286    2.2575 N   0  0  0  0  0  0  0  0  0  0  0  0
   -1.2715   -0.3495    2.0457 H   0  0  0  0  0  0  0  0  0  0  0  0
    0.1415   -0.2824    3.6518 C   0  0  0  0  0  0  0  0  0  0  0  0
    0.9584    0.4351    3.7829 H   0  0  0  0  0  0  0  0  0  0  0  0
   -0.6924    0.0265    4.2891 H   0  0  0  0  0  0  0  0  0  0  0  0
    0.4838   -1.2696    3.9796 H   0  0  0  0  0  0  0  0  0  0  0  0
  1  2  1  0  0  0  0
  2  3  1  0  0  0  0
  2  4  1  0  0  0  0
  2  5  1  0  0  0  0
  5  6  2  0  0  0  0
  5  7  1  0  0  0  0
  7  8  1  0  0  0  0
  7  9  1  0  0  0  0
  9 10  1  0  0  0  0
  9 11  1  0  0  0  0
  9 24  1  0  0  0  0
 11 12  1  0  0  0  0
 11 13  1  0  0  0  0
 11 14  1  0  0  0  0
 14 15  1  0  0  0  0
 14 16  1  0  0  0  0
 14 20  1  0  0  0  0
 16 17  1  0  0  0  0
 16 18  1  0  0  0  0
 16 19  1  0  0  0  0
 20 21  1  0  0  0  0
 20 22  1  0  0  0  0
 20 23  1  0  0  0  0
 24 25  2  0  0  0  0
 24 26  1  0  0  0  0
 26 27  1  0  0  0  0
 26 28  1  0  0  0  0
 28 29  1  0  0  0  0
 28 30  1  0  0  0  0
 28 31  1  0  0  0  0
M  END
$$$$

  -OEChem-04042216013D

 31 30  0     1  0  0  0  0  0999 V2000
   -2.8460   -4.3260    0.1079 H   0  0  0  0  0  0  0  0  0  0  0  0
   -2.8033   -3.3113   -0.2984 C   0  0  0  0  0  0  0  0  0  0  0  0
   -3.5677   -2.7047    0.1928 H   0  0  0  0  0  0  0  0  0  0  0  0
   -3.0118   -3.3531   -1.3701 H   0  0  0  0  0  0  0  0  0  0  0  0
   -1.4299   -2.7116   -0.0605 C   0  0  0  0  0  0  0  0  0  0  0  0
   -0.5559   -3.3873    0.4509 O   0  0  0  0  0  0  0  0  0  0  0  0
   -1.1848   -1.3996   -0.4187 N   0  0  0  0  0  0  0  0  0  0  0  0
   -1.9454   -0.8958   -0.8642 H   0  0  0  0  0  0  0  0  0  0  0  0
    0.1150   -0.7143   -0.2679 C   0  0  1  0  0  0  0  0  0  0  0  0
    0.8443   -1.3906   -0.7298 H   0  0  0  0  0  0  0  0  0  0  0  0
    0.1268    0.5454   -1.1964 C   0  0  0  0  0  0  0  0  0  0  0  0
    0.9682    0.3736   -1.8768 H   0  0  0  0  0  0  0  0  0  0  0  0
   -0.7635    0.4947   -1.8315 H   0  0  0  0  0  0  0  0  0  0  0  0
    0.3040    2.0297   -0.7303 C   0  0  0  0  0  0  0  0  0  0  0  0
    1.1480    2.4300   -1.3033 H   0  0  0  0  0  0  0  0  0  0  0  0
   -0.9371    2.8389   -1.1367 C   0  0  0  0  0  0  0  0  0  0  0  0
   -1.8244    2.4698   -0.6126 H   0  0  0  0  0  0  0  0  0  0  0  0
   -0.8044    3.8974   -0.8913 H   0  0  0  0  0  0  0  0  0  0  0  0
   -1.1093    2.7632   -2.2152 H   0  0  0  0  0  0  0  0  0  0  0  0
    0.6135    2.3466    0.7353 C   0  0  0  0  0  0  0  0  0  0  0  0
    1.5176    1.8297    1.0662 H   0  0  0  0  0  0  0  0  0  0  0  0
   -0.2278    2.0836    1.3797 H   0  0  0  0  0  0  0  0  0  0  0  0
    0.7952    3.4195    0.8525 H   0  0  0  0  0  0  0  0  0  0  0  0
    0.6096   -0.6510    1.1962 C   0  0  0  0  0  0  0  0  0  0  0  0
    1.8048   -0.7585    1.4402 O   0  0  0  0  0  0  0  0  0  0  0  0
   -0.2564   -0.3049    2.2191 N   0  0  0  0  0  0  0  0  0  0  0  0
   -1.2447   -0.3080    1.9924 H   0  0  0  0  0  0  0  0  0  0  0  0
    0.1450   -0.2707    3.6194 C   0  0  0  0  0  0  0  0  0  0  0  0
    0.9686    0.4359    3.7658 H   0  0  0  0  0  0  0  0  0  0  0  0
   -0.6943    0.0451    4.2457 H   0  0  0  0  0  0  0  0  0  0  0  0
    0.4699   -1.2638    3.9470 H   0  0  0  0  0  0  0  0  0  0  0  0
  1  2  1  0  0  0  0
  2  3  1  0  0  0  0
  2  4  1  0  0  0  0
  2  5  1  0  0  0  0
  5  6  2  0  0  0  0
  5  7  1  0  0  0  0
  7  8  1  0  0  0  0
  7  9  1  0  0  0  0
  9 10  1  0  0  0  0
  9 11  1  0  0  0  0
  9 24  1  0  0  0  0
 11 12  1  0  0  0  0
 11 13  1  0  0  0  0
 11 14  1  0  0  0  0
 14 15  1  0  0  0  0
 14 16  1  0  0  0  0
 14 20  1  0  0  0  0
 16 17  1  0  0  0  0
 16 18  1  0  0  0  0
 16 19  1  0  0  0  0
 20 21  1  0  0  0  0
 20 22  1  0  0  0  0
 20 23  1  0  0  0  0
 24 25  2  0  0  0  0
 24 26  1  0  0  0  0
 26 27  1  0  0  0  0
 26 28  1  0  0  0  0
 28 29  1  0  0  0  0
 28 30  1  0  0  0  0
 28 31  1  0  0  0  0
M  END
$$$$

  -OEChem-04042216013D

 31 30  0     1  0  0  0  0  0999 V2000
   -2.9941   -4.2343    0.1054 H   0  0  0  0  0  0  0  0  0  0  0  0
   -2.8970   -3.2268   -0.3096 C   0  0  0  0  0  0  0  0  0  0  0  0
   -3.6427   -2.5806    0.1594 H   0  0  0  0  0  0  0  0  0  0  0  0
   -3.0849   -3.2704   -1.3851 H   0  0  0  0  0  0  0  0  0  0  0  0
   -1.5030   -2.6880   -0.0484 C   0  0  0  0  0  0  0  0  0  0  0  0
   -0.6826   -3.3851    0.5197 O   0  0  0  0  0  0  0  0  0  0  0  0
   -1.1774   -1.4095   -0.4596 N   0  0  0  0  0  0  0  0  0  0  0  0
   -1.8941   -0.8939   -0.9607 H   0  0  0  0  0  0  0  0  0  0  0  0
    0.1482   -0.7796   -0.2889 C   0  0  1  0  0  0  0  0  0  0  0  0
    0.8794   -1.4747   -0.7184 H   0  0  0  0  0  0  0  0  0  0  0  0
    0.1818    0.4901   -1.2007 C   0  0  0  0  0  0  0  0  0  0  0  0
    1.0257    0.3079   -1.8751 H   0  0  0  0  0  0  0  0  0  0  0  0
   -0.7037    0.4850   -1.8443 H   0  0  0  0  0  0  0  0  0  0  0  0
    0.4011    1.9499   -0.6936 C   0  0  0  0  0  0  0  0  0  0  0  0
    1.0124    2.4206   -1.4721 H   0  0  0  0  0  0  0  0  0  0  0  0
   -0.9237    2.7216   -0.7022 C   0  0  0  0  0  0  0  0  0  0  0  0
   -1.6245    2.2809    0.0137 H   0  0  0  0  0  0  0  0  0  0  0  0
   -0.7576    3.7678   -0.4262 H   0  0  0  0  0  0  0  0  0  0  0  0
   -1.3790    2.7013   -1.6973 H   0  0  0  0  0  0  0  0  0  0  0  0
    1.1772    2.2070    0.6020 C   0  0  0  0  0  0  0  0  0  0  0  0
    2.0787    1.5890    0.6427 H   0  0  0  0  0  0  0  0  0  0  0  0
    0.5613    2.0216    1.4830 H   0  0  0  0  0  0  0  0  0  0  0  0
    1.4914    3.2546    0.6413 H   0  0  0  0  0  0  0  0  0  0  0  0
    0.5554   -0.6806    1.1995 C   0  0  0  0  0  0  0  0  0  0  0  0
    1.7190   -0.8654    1.5327 O   0  0  0  0  0  0  0  0  0  0  0  0
   -0.3587   -0.2475    2.1452 N   0  0  0  0  0  0  0  0  0  0  0  0
   -1.3261   -0.1929    1.8467 H   0  0  0  0  0  0  0  0  0  0  0  0
   -0.0544   -0.1828    3.5687 C   0  0  0  0  0  0  0  0  0  0  0  0
    0.8066    0.4697    3.7477 H   0  0  0  0  0  0  0  0  0  0  0  0
   -0.9099    0.2178    4.1204 H   0  0  0  0  0  0  0  0  0  0  0  0
    0.1736   -1.1814    3.9560 H   0  0  0  0  0  0  0  0  0  0  0  0
  1  2  1  0  0  0  0
  2  3  1  0  0  0  0
  2  4  1  0  0  0  0
  2  5  1  0  0  0  0
  5  6  2  0  0  0  0
  5  7  1  0  0  0  0
  7  8  1  0  0  0  0
  7  9  1  0  0  0  0
  9 10  1  0  0  0  0
  9 11  1  0  0  0  0
  9 24  1  0  0  0  0
 11 12  1  0  0  0  0
 11 13  1  0  0  0  0
 11 14  1  0  0  0  0
 14 15  1  0  0  0  0
 14 16  1  0  0  0  0
 14 20  1  0  0  0  0
 16 17  1  0  0  0  0
 16 18  1  0  0  0  0
 16 19  1  0  0  0  0
 20 21  1  0  0  0  0
 20 22  1  0  0  0  0
 20 23  1  0  0  0  0
 24 25  2  0  0  0  0
 24 26  1  0  0  0  0
 26 27  1  0  0  0  0
 26 28  1  0  0  0  0
 28 29  1  0  0  0  0
 28 30  1  0  0  0  0
 28 31  1  0  0  0  0
M  END
$$$$

  -OEChem-04042216013D

 31 30  0     1  0  0  0  0  0999 V2000
   -2.9650   -4.2352    0.0946 H   0  0  0  0  0  0  0  0  0  0  0  0
   -2.8654   -3.2328   -0.3316 C   0  0  0  0  0  0  0  0  0  0  0  0
   -3.6178   -2.5824    0.1208 H   0  0  0  0  0  0  0  0  0  0  0  0
   -3.0410   -3.2902   -1.4085 H   0  0  0  0  0  0  0  0  0  0  0  0
   -1.4757   -2.6871   -0.0622 C   0  0  0  0  0  0  0  0  0  0  0  0
   -0.6623   -3.3708    0.5317 O   0  0  0  0  0  0  0  0  0  0  0  0
   -1.1463   -1.4174   -0.4966 N   0  0  0  0  0  0  0  0  0  0  0  0
   -1.8557   -0.9155   -1.0214 H   0  0  0  0  0  0  0  0  0  0  0  0
    0.1762   -0.7823   -0.3227 C   0  0  1  0  0  0  0  0  0  0  0  0
    0.9199   -1.4680   -0.7454 H   0  0  0  0  0  0  0  0  0  0  0  0
    0.1899    0.4959   -1.2194 C   0  0  0  0  0  0  0  0  0  0  0  0
    1.0246    0.3404   -1.9115 H   0  0  0  0  0  0  0  0  0  0  0  0
   -0.7089    0.5112   -1.8442 H   0  0  0  0  0  0  0  0  0  0  0  0
    0.4012    1.9277   -0.6519 C   0  0  0  0  0  0  0  0  0  0  0  0
    0.7607    2.5081   -1.5091 H   0  0  0  0  0  0  0  0  0  0  0  0
   -0.9374    2.5662   -0.2677 C   0  0  0  0  0  0  0  0  0  0  0  0
   -1.4001    2.0169    0.5575 H   0  0  0  0  0  0  0  0  0  0  0  0
   -0.7867    3.6034    0.0482 H   0  0  0  0  0  0  0  0  0  0  0  0
   -1.6258    2.5646   -1.1185 H   0  0  0  0  0  0  0  0  0  0  0  0
    1.4719    2.1350    0.4267 C   0  0  0  0  0  0  0  0  0  0  0  0
    2.3441    1.5036    0.2299 H   0  0  0  0  0  0  0  0  0  0  0  0
    1.8014    3.1784    0.4233 H   0  0  0  0  0  0  0  0  0  0  0  0
    1.0888    1.9200    1.4262 H   0  0  0  0  0  0  0  0  0  0  0  0
    0.5656   -0.6502    1.1677 C   0  0  0  0  0  0  0  0  0  0  0  0
    1.7235   -0.8344    1.5211 O   0  0  0  0  0  0  0  0  0  0  0  0
   -0.3603   -0.1967    2.0919 N   0  0  0  0  0  0  0  0  0  0  0  0
   -1.3235   -0.1514    1.7788 H   0  0  0  0  0  0  0  0  0  0  0  0
   -0.0787   -0.1160    3.5191 C   0  0  0  0  0  0  0  0  0  0  0  0
    0.7679    0.5529    3.7059 H   0  0  0  0  0  0  0  0  0  0  0  0
   -0.9494    0.2729    4.0554 H   0  0  0  0  0  0  0  0  0  0  0  0
    0.1612   -1.1078    3.9167 H   0  0  0  0  0  0  0  0  0  0  0  0
  1  2  1  0  0  0  0
  2  3  1  0  0  0  0
  2  4  1  0  0  0  0
  2  5  1  0  0  0  0
  5  6  2  0  0  0  0
  5  7  1  0  0  0  0
  7  8  1  0  0  0  0
  7  9  1  0  0  0  0
  9 10  1  0  0  0  0
  9 11  1  0  0  0  0
  9 24  1  0  0  0  0
 11 12  1  0  0  0  0
 11 13  1  0  0  0  0
 11 14  1  0  0  0  0
 14 15  1  0  0  0  0
 14 16  1  0  0  0  0
 14 20  1  0  0  0  0
 16 17  1  0  0  0  0
 16 18  1  0  0  0  0
 16 19  1  0  0  0  0
 20 21  1  0  0  0  0
 20 22  1  0  0  0  0
 20 23  1  0  0  0  0
 24 25  2  0  0  0  0
 24 26  1  0  0  0  0
 26 27  1  0  0  0  0
 26 28  1  0  0  0  0
 28 29  1  0  0  0  0
 28 30  1  0  0  0  0
 28 31  1  0  0  0  0
M  END
$$$$

  -OEChem-04042216013D

 31 30  0     1  0  0  0  0  0999 V2000
   -2.9397   -4.2730    0.0383 H   0  0  0  0  0  0  0  0  0  0  0  0
   -2.8593   -3.2600   -0.3667 C   0  0  0  0  0  0  0  0  0  0  0  0
   -3.6310   -2.6362    0.0905 H   0  0  0  0  0  0  0  0  0  0  0  0
   -3.0224   -3.3002   -1.4463 H   0  0  0  0  0  0  0  0  0  0  0  0
   -1.4856   -2.6883   -0.0706 C   0  0  0  0  0  0  0  0  0  0  0  0
   -0.6690   -3.3598    0.5328 O   0  0  0  0  0  0  0  0  0  0  0  0
   -1.1735   -1.4089   -0.4884 N   0  0  0  0  0  0  0  0  0  0  0  0
   -1.8827   -0.9147   -1.0209 H   0  0  0  0  0  0  0  0  0  0  0  0
    0.1420   -0.7642   -0.3050 C   0  0  1  0  0  0  0  0  0  0  0  0
    0.8766   -1.4646   -0.7200 H   0  0  0  0  0  0  0  0  0  0  0  0
    0.2029    0.4887   -1.2332 C   0  0  0  0  0  0  0  0  0  0  0  0
    1.0453    0.3116   -1.9105 H   0  0  0  0  0  0  0  0  0  0  0  0
   -0.6898    0.5069   -1.8668 H   0  0  0  0  0  0  0  0  0  0  0  0
    0.4087    1.9236   -0.6819 C   0  0  0  0  0  0  0  0  0  0  0  0
    0.5846    2.5459   -1.5664 H   0  0  0  0  0  0  0  0  0  0  0  0
   -0.8615    2.4697   -0.0191 C   0  0  0  0  0  0  0  0  0  0  0  0
   -1.1072    1.9176    0.8890 H   0  0  0  0  0  0  0  0  0  0  0  0
   -0.7222    3.5220    0.2484 H   0  0  0  0  0  0  0  0  0  0  0  0
   -1.7101    2.4007   -0.7065 H   0  0  0  0  0  0  0  0  0  0  0  0
    1.6381    2.1233    0.2145 C   0  0  0  0  0  0  0  0  0  0  0  0
    2.4765    1.5158   -0.1406 H   0  0  0  0  0  0  0  0  0  0  0  0
    1.9439    3.1739    0.1948 H   0  0  0  0  0  0  0  0  0  0  0  0
    1.4273    1.8639    1.2547 H   0  0  0  0  0  0  0  0  0  0  0  0
    0.5711   -0.6296    1.1752 C   0  0  0  0  0  0  0  0  0  0  0  0
    1.7436   -0.7959    1.4876 O   0  0  0  0  0  0  0  0  0  0  0  0
   -0.3218   -0.1894    2.1358 N   0  0  0  0  0  0  0  0  0  0  0  0
   -1.2975   -0.1529    1.8625 H   0  0  0  0  0  0  0  0  0  0  0  0
    0.0202   -0.0806    3.5479 C   0  0  0  0  0  0  0  0  0  0  0  0
    0.8376    0.6342    3.6897 H   0  0  0  0  0  0  0  0  0  0  0  0
   -0.8450    0.2662    4.1210 H   0  0  0  0  0  0  0  0  0  0  0  0
    0.3304   -1.0542    3.9421 H   0  0  0  0  0  0  0  0  0  0  0  0
  1  2  1  0  0  0  0
  2  3  1  0  0  0  0
  2  4  1  0  0  0  0
  2  5  1  0  0  0  0
  5  6  2  0  0  0  0
  5  7  1  0  0  0  0
  7  8  1  0  0  0  0
  7  9  1  0  0  0  0
  9 10  1  0  0  0  0
  9 11  1  0  0  0  0
  9 24  1  0  0  0  0
 11 12  1  0  0  0  0
 11 13  1  0  0  0  0
 11 14  1  0  0  0  0
 14 15  1  0  0  0  0
 14 16  1  0  0  0  0
 14 20  1  0  0  0  0
 16 17  1  0  0  0  0
 16 18  1  0  0  0  0
 16 19  1  0  0  0  0
 20 21  1  0  0  0  0
 20 22  1  0  0  0  0
 20 23  1  0  0  0  0
 24 25  2  0  0  0  0
 24 26  1  0  0  0  0
 26 27  1  0  0  0  0
 26 28  1  0  0  0  0
 28 29  1  0  0  0  0
 28 30  1  0  0  0  0
 28 31  1  0  0  0  0
M  END
$$$$

  -OEChem-04042216013D

 31 30  0     1  0  0  0  0  0999 V2000
   -2.9322   -4.2813    0.0226 H   0  0  0  0  0  0  0  0  0  0  0  0
   -2.8552   -3.2657   -0.3764 C   0  0  0  0  0  0  0  0  0  0  0  0
   -3.6272   -2.6471    0.0869 H   0  0  0  0  0  0  0  0  0  0  0  0
   -3.0215   -3.2992   -1.4558 H   0  0  0  0  0  0  0  0  0  0  0  0
   -1.4822   -2.6918   -0.0804 C   0  0  0  0  0  0  0  0  0  0  0  0
   -0.6624   -3.3642    0.5176 O   0  0  0  0  0  0  0  0  0  0  0  0
   -1.1766   -1.4070   -0.4862 N   0  0  0  0  0  0  0  0  0  0  0  0
   -1.8909   -0.9099   -1.0089 H   0  0  0  0  0  0  0  0  0  0  0  0
    0.1337   -0.7542   -0.2950 C   0  0  1  0  0  0  0  0  0  0  0  0
    0.8674   -1.4618   -0.6997 H   0  0  0  0  0  0  0  0  0  0  0  0
    0.2259    0.4834   -1.2396 C   0  0  0  0  0  0  0  0  0  0  0  0
    1.0609    0.2879   -1.9209 H   0  0  0  0  0  0  0  0  0  0  0  0
   -0.6713    0.5031   -1.8666 H   0  0  0  0  0  0  0  0  0  0  0  0
    0.4283    1.9267   -0.7112 C   0  0  0  0  0  0  0  0  0  0  0  0
    0.3848    2.5643   -1.6010 H   0  0  0  0  0  0  0  0  0  0  0  0
   -0.6860    2.4070    0.2270 C   0  0  0  0  0  0  0  0  0  0  0  0
   -0.4901    2.1290    1.2629 H   0  0  0  0  0  0  0  0  0  0  0  0
   -0.7523    3.4987    0.1899 H   0  0  0  0  0  0  0  0  0  0  0  0
   -1.6528    1.9946   -0.0764 H   0  0  0  0  0  0  0  0  0  0  0  0
    1.8064    2.1615   -0.0775 C   0  0  0  0  0  0  0  0  0  0  0  0
    2.5946    1.7170   -0.6931 H   0  0  0  0  0  0  0  0  0  0  0  0
    1.9998    3.2356    0.0032 H   0  0  0  0  0  0  0  0  0  0  0  0
    1.8679    1.7369    0.9267 H   0  0  0  0  0  0  0  0  0  0  0  0
    0.5657   -0.6250    1.1851 C   0  0  0  0  0  0  0  0  0  0  0  0
    1.7406   -0.7813    1.4925 O   0  0  0  0  0  0  0  0  0  0  0  0
   -0.3265   -0.1992    2.1523 N   0  0  0  0  0  0  0  0  0  0  0  0
   -1.3039   -0.1686    1.8838 H   0  0  0  0  0  0  0  0  0  0  0  0
    0.0222   -0.0910    3.5629 C   0  0  0  0  0  0  0  0  0  0  0  0
    0.8296    0.6353    3.7026 H   0  0  0  0  0  0  0  0  0  0  0  0
   -0.8443    0.2409    4.1425 H   0  0  0  0  0  0  0  0  0  0  0  0
    0.3493   -1.0613    3.9514 H   0  0  0  0  0  0  0  0  0  0  0  0
  1  2  1  0  0  0  0
  2  3  1  0  0  0  0
  2  4  1  0  0  0  0
  2  5  1  0  0  0  0
  5  6  2  0  0  0  0
  5  7  1  0  0  0  0
  7  8  1  0  0  0  0
  7  9  1  0  0  0  0
  9 10  1  0  0  0  0
  9 11  1  0  0  0  0
  9 24  1  0  0  0  0
 11 12  1  0  0  0  0
 11 13  1  0  0  0  0
 11 14  1  0  0  0  0
 14 15  1  0  0  0  0
 14 16  1  0  0  0  0
 14 20  1  0  0  0  0
 16 17  1  0  0  0  0
 16 18  1  0  0  0  0
 16 19  1  0  0  0  0
 20 21  1  0  0  0  0
 20 22  1  0  0  0  0
 20 23  1  0  0  0  0
 24 25  2  0  0  0  0
 24 26  1  0  0  0  0
 26 27  1  0  0  0  0
 26 28  1  0  0  0  0
 28 29  1  0  0  0  0
 28 30  1  0  0  0  0
 28 31  1  0  0  0  0
M  END
$$$$

  -OEChem-04042216013D

 31 30  0     1  0  0  0  0  0999 V2000
   -2.9526   -4.2719    0.0147 H   0  0  0  0  0  0  0  0  0  0  0  0
   -2.8712   -3.2566   -0.3843 C   0  0  0  0  0  0  0  0  0  0  0  0
   -3.6545   -2.6400    0.0627 H   0  0  0  0  0  0  0  0  0  0  0  0
   -3.0163   -3.2926   -1.4666 H   0  0  0  0  0  0  0  0  0  0  0  0
   -1.5059   -2.6783   -0.0623 C   0  0  0  0  0  0  0  0  0  0  0  0
   -0.7003   -3.3439    0.5620 O   0  0  0  0  0  0  0  0  0  0  0  0
   -1.1899   -1.3980   -0.4750 N   0  0  0  0  0  0  0  0  0  0  0  0
   -1.8901   -0.9075   -1.0227 H   0  0  0  0  0  0  0  0  0  0  0  0
    0.1222   -0.7508   -0.2745 C   0  0  1  0  0  0  0  0  0  0  0  0
    0.8510   -1.4779   -0.6521 H   0  0  0  0  0  0  0  0  0  0  0  0
    0.2673    0.4606   -1.2475 C   0  0  0  0  0  0  0  0  0  0  0  0
    1.0985    0.2254   -1.9210 H   0  0  0  0  0  0  0  0  0  0  0  0
   -0.6268    0.4845   -1.8785 H   0  0  0  0  0  0  0  0  0  0  0  0
    0.4827    1.9175   -0.7581 C   0  0  0  0  0  0  0  0  0  0  0  0
    0.2487    2.5605   -1.6138 H   0  0  0  0  0  0  0  0  0  0  0  0
   -0.4159    2.3690    0.3988 C   0  0  0  0  0  0  0  0  0  0  0  0
   -0.5863    3.4481    0.3322 H   0  0  0  0  0  0  0  0  0  0  0  0
    0.0514    2.1753    1.3668 H   0  0  0  0  0  0  0  0  0  0  0  0
   -1.3871    1.8670    0.3559 H   0  0  0  0  0  0  0  0  0  0  0  0
    1.9525    2.1710   -0.3948 C   0  0  0  0  0  0  0  0  0  0  0  0
    2.6055    1.9149   -1.2347 H   0  0  0  0  0  0  0  0  0  0  0  0
    2.1052    3.2279   -0.1550 H   0  0  0  0  0  0  0  0  0  0  0  0
    2.2561    1.5775    0.4712 H   0  0  0  0  0  0  0  0  0  0  0  0
    0.5380   -0.6133    1.2107 C   0  0  0  0  0  0  0  0  0  0  0  0
    1.7129   -0.7440    1.5293 O   0  0  0  0  0  0  0  0  0  0  0  0
   -0.3657   -0.1766    2.1635 N   0  0  0  0  0  0  0  0  0  0  0  0
   -1.3413   -0.1657    1.8870 H   0  0  0  0  0  0  0  0  0  0  0  0
   -0.0333   -0.0600    3.5775 C   0  0  0  0  0  0  0  0  0  0  0  0
    0.7893    0.6487    3.7204 H   0  0  0  0  0  0  0  0  0  0  0  0
   -0.8992    0.2994    4.1413 H   0  0  0  0  0  0  0  0  0  0  0  0
    0.2655   -1.0332    3.9811 H   0  0  0  0  0  0  0  0  0  0  0  0
  1  2  1  0  0  0  0
  2  3  1  0  0  0  0
  2  4  1  0  0  0  0
  2  5  1  0  0  0  0
  5  6  2  0  0  0  0
  5  7  1  0  0  0  0
  7  8  1  0  0  0  0
  7  9  1  0  0  0  0
  9 10  1  0  0  0  0
  9 11  1  0  0  0  0
  9 24  1  0  0  0  0
 11 12  1  0  0  0  0
 11 13  1  0  0  0  0
 11 14  1  0  0  0  0
 14 15  1  0  0  0  0
 14 16  1  0  0  0  0
 14 20  1  0  0  0  0
 16 17  1  0  0  0  0
 16 18  1  0  0  0  0
 16 19  1  0  0  0  0
 20 21  1  0  0  0  0
 20 22  1  0  0  0  0
 20 23  1  0  0  0  0
 24 25  2  0  0  0  0
 24 26  1  0  0  0  0
 26 27  1  0  0  0  0
 26 28  1  0  0  0  0
 28 29  1  0  0  0  0
 28 30  1  0  0  0  0
 28 31  1  0  0  0  0
M  END
$$$$

  -OEChem-04042216013D

 31 30  0     1  0  0  0  0  0999 V2000
   -2.9328   -4.2944   -0.0285 H   0  0  0  0  0  0  0  0  0  0  0  0
   -2.8677   -3.2709   -0.4090 C   0  0  0  0  0  0  0  0  0  0  0  0
   -3.6562   -2.6729    0.0541 H   0  0  0  0  0  0  0  0  0  0  0  0
   -3.0190   -3.2886   -1.4909 H   0  0  0  0  0  0  0  0  0  0  0  0
   -1.5081   -2.6804   -0.0861 C   0  0  0  0  0  0  0  0  0  0  0  0
   -0.6841   -3.3491    0.5106 O   0  0  0  0  0  0  0  0  0  0  0  0
   -1.2181   -1.3841   -0.4661 N   0  0  0  0  0  0  0  0  0  0  0  0
   -1.9334   -0.8898   -0.9903 H   0  0  0  0  0  0  0  0  0  0  0  0
    0.0896   -0.7256   -0.2761 C   0  0  1  0  0  0  0  0  0  0  0  0
    0.8102   -1.4490   -0.6761 H   0  0  0  0  0  0  0  0  0  0  0  0
    0.2350    0.4880   -1.2472 C   0  0  0  0  0  0  0  0  0  0  0  0
    1.0522    0.2429   -1.9342 H   0  0  0  0  0  0  0  0  0  0  0  0
   -0.6679    0.5097   -1.8655 H   0  0  0  0  0  0  0  0  0  0  0  0
    0.4504    1.9553   -0.7752 C   0  0  0  0  0  0  0  0  0  0  0  0
    0.0020    2.6007   -1.5384 H   0  0  0  0  0  0  0  0  0  0  0  0
   -0.1532    2.3594    0.5728 C   0  0  0  0  0  0  0  0  0  0  0  0
    0.4936    2.0681    1.4042 H   0  0  0  0  0  0  0  0  0  0  0  0
   -0.2638    3.4474    0.6144 H   0  0  0  0  0  0  0  0  0  0  0  0
   -1.1440    1.9141    0.7007 H   0  0  0  0  0  0  0  0  0  0  0  0
    1.9538    2.2649   -0.7293 C   0  0  0  0  0  0  0  0  0  0  0  0
    2.4065    2.1238   -1.7157 H   0  0  0  0  0  0  0  0  0  0  0  0
    2.1219    3.3028   -0.4250 H   0  0  0  0  0  0  0  0  0  0  0  0
    2.4631    1.6079   -0.0169 H   0  0  0  0  0  0  0  0  0  0  0  0
    0.5493   -0.6222    1.1983 C   0  0  0  0  0  0  0  0  0  0  0  0
    1.7428   -0.6831    1.4650 O   0  0  0  0  0  0  0  0  0  0  0  0
   -0.3327   -0.2249    2.1890 N   0  0  0  0  0  0  0  0  0  0  0  0
   -1.3181   -0.2556    1.9512 H   0  0  0  0  0  0  0  0  0  0  0  0
    0.0487   -0.1072    3.5906 C   0  0  0  0  0  0  0  0  0  0  0  0
    0.8652    0.6133    3.7075 H   0  0  0  0  0  0  0  0  0  0  0  0
   -0.8019    0.2376    4.1860 H   0  0  0  0  0  0  0  0  0  0  0  0
    0.3761   -1.0770    3.9797 H   0  0  0  0  0  0  0  0  0  0  0  0
  1  2  1  0  0  0  0
  2  3  1  0  0  0  0
  2  4  1  0  0  0  0
  2  5  1  0  0  0  0
  5  6  2  0  0  0  0
  5  7  1  0  0  0  0
  7  8  1  0  0  0  0
  7  9  1  0  0  0  0
  9 10  1  0  0  0  0
  9 11  1  0  0  0  0
  9 24  1  0  0  0  0
 11 12  1  0  0  0  0
 11 13  1  0  0  0  0
 11 14  1  0  0  0  0
 14 15  1  0  0  0  0
 14 16  1  0  0  0  0
 14 20  1  0  0  0  0
 16 17  1  0  0  0  0
 16 18  1  0  0  0  0
 16 19  1  0  0  0  0
 20 21  1  0  0  0  0
 20 22  1  0  0  0  0
 20 23  1  0  0  0  0
 24 25  2  0  0  0  0
 24 26  1  0  0  0  0
 26 27  1  0  0  0  0
 26 28  1  0  0  0  0
 28 29  1  0  0  0  0
 28 30  1  0  0  0  0
 28 31  1  0  0  0  0
M  END
$$$$

  -OEChem-04042216013D

 31 30  0     1  0  0  0  0  0999 V2000
   -2.9085   -4.3066   -0.0645 H   0  0  0  0  0  0  0  0  0  0  0  0
   -2.8483   -3.2784   -0.4327 C   0  0  0  0  0  0  0  0  0  0  0  0
   -3.6409   -2.6902    0.0357 H   0  0  0  0  0  0  0  0  0  0  0  0
   -2.9973   -3.2843   -1.5150 H   0  0  0  0  0  0  0  0  0  0  0  0
   -1.4931   -2.6838   -0.0998 C   0  0  0  0  0  0  0  0  0  0  0  0
   -0.6652   -3.3553    0.4884 O   0  0  0  0  0  0  0  0  0  0  0  0
   -1.2111   -1.3806   -0.4621 N   0  0  0  0  0  0  0  0  0  0  0  0
   -1.9305   -0.8825   -0.9772 H   0  0  0  0  0  0  0  0  0  0  0  0
    0.0924   -0.7167   -0.2621 C   0  0  1  0  0  0  0  0  0  0  0  0
    0.8167   -1.4343   -0.6660 H   0  0  0  0  0  0  0  0  0  0  0  0
    0.2313    0.5005   -1.2325 C   0  0  0  0  0  0  0  0  0  0  0  0
    1.0536    0.2481   -1.9109 H   0  0  0  0  0  0  0  0  0  0  0  0
   -0.6648    0.5079   -1.8610 H   0  0  0  0  0  0  0  0  0  0  0  0
    0.4340    1.9839   -0.7847 C   0  0  0  0  0  0  0  0  0  0  0  0
   -0.2333    2.5947   -1.4026 H   0  0  0  0  0  0  0  0  0  0  0  0
    0.1576    2.3615    0.6727 C   0  0  0  0  0  0  0  0  0  0  0  0
    0.9262    1.9677    1.3430 H   0  0  0  0  0  0  0  0  0  0  0  0
    0.1588    3.4509    0.7795 H   0  0  0  0  0  0  0  0  0  0  0  0
   -0.8273    2.0001    0.9798 H   0  0  0  0  0  0  0  0  0  0  0  0
    1.8761    2.4131   -1.0960 C   0  0  0  0  0  0  0  0  0  0  0  0
    2.0895    2.3036   -2.1640 H   0  0  0  0  0  0  0  0  0  0  0  0
    2.0325    3.4626   -0.8271 H   0  0  0  0  0  0  0  0  0  0  0  0
    2.5885    1.8007   -0.5328 H   0  0  0  0  0  0  0  0  0  0  0  0
    0.5515   -0.6296    1.2128 C   0  0  0  0  0  0  0  0  0  0  0  0
    1.7453   -0.6923    1.4781 O   0  0  0  0  0  0  0  0  0  0  0  0
   -0.3322   -0.2500    2.2089 N   0  0  0  0  0  0  0  0  0  0  0  0
   -1.3174   -0.2788    1.9697 H   0  0  0  0  0  0  0  0  0  0  0  0
    0.0477   -0.1590    3.6130 C   0  0  0  0  0  0  0  0  0  0  0  0
    0.8561    0.5677    3.7458 H   0  0  0  0  0  0  0  0  0  0  0  0
   -0.8067    0.1632    4.2154 H   0  0  0  0  0  0  0  0  0  0  0  0
    0.3852   -1.1335    3.9808 H   0  0  0  0  0  0  0  0  0  0  0  0
  1  2  1  0  0  0  0
  2  3  1  0  0  0  0
  2  4  1  0  0  0  0
  2  5  1  0  0  0  0
  5  6  2  0  0  0  0
  5  7  1  0  0  0  0
  7  8  1  0  0  0  0
  7  9  1  0  0  0  0
  9 10  1  0  0  0  0
  9 11  1  0  0  0  0
  9 24  1  0  0  0  0
 11 12  1  0  0  0  0
 11 13  1  0  0  0  0
 11 14  1  0  0  0  0
 14 15  1  0  0  0  0
 14 16  1  0  0  0  0
 14 20  1  0  0  0  0
 16 17  1  0  0  0  0
 16 18  1  0  0  0  0
 16 19  1  0  0  0  0
 20 21  1  0  0  0  0
 20 22  1  0  0  0  0
 20 23  1  0  0  0  0
 24 25  2  0  0  0  0
 24 26  1  0  0  0  0
 26 27  1  0  0  0  0
 26 28  1  0  0  0  0
 28 29  1  0  0  0  0
 28 30  1  0  0  0  0
 28 31  1  0  0  0  0
M  END
$$$$

  -OEChem-04042216013D

 31 30  0     1  0  0  0  0  0999 V2000
   -2.9336   -4.2730   -0.0488 H   0  0  0  0  0  0  0  0  0  0  0  0
   -2.8583   -3.2473   -0.4215 C   0  0  0  0  0  0  0  0  0  0  0  0
   -3.6391   -2.6450    0.0488 H   0  0  0  0  0  0  0  0  0  0  0  0
   -3.0129   -3.2545   -1.5031 H   0  0  0  0  0  0  0  0  0  0  0  0
   -1.4919   -2.6735   -0.0971 C   0  0  0  0  0  0  0  0  0  0  0  0
   -0.6729   -3.3571    0.4893 O   0  0  0  0  0  0  0  0  0  0  0  0
   -1.1916   -1.3750   -0.4617 N   0  0  0  0  0  0  0  0  0  0  0  0
   -1.9050   -0.8666   -0.9749 H   0  0  0  0  0  0  0  0  0  0  0  0
    0.1173   -0.7241   -0.2522 C   0  0  1  0  0  0  0  0  0  0  0  0
    0.8435   -1.4413   -0.6532 H   0  0  0  0  0  0  0  0  0  0  0  0
    0.2457    0.5007   -1.2176 C   0  0  0  0  0  0  0  0  0  0  0  0
    1.0884    0.2448   -1.8692 H   0  0  0  0  0  0  0  0  0  0  0  0
   -0.6312    0.4985   -1.8728 H   0  0  0  0  0  0  0  0  0  0  0  0
    0.4493    1.9917   -0.7831 C   0  0  0  0  0  0  0  0  0  0  0  0
   -0.4115    2.5462   -1.1724 H   0  0  0  0  0  0  0  0  0  0  0  0
    0.5375    2.3483    0.7029 C   0  0  0  0  0  0  0  0  0  0  0  0
    1.3949    1.8657    1.1795 H   0  0  0  0  0  0  0  0  0  0  0  0
    0.6601    3.4294    0.8218 H   0  0  0  0  0  0  0  0  0  0  0  0
   -0.3852    2.0713    1.2165 H   0  0  0  0  0  0  0  0  0  0  0  0
    1.7037    2.5551   -1.4696 C   0  0  0  0  0  0  0  0  0  0  0  0
    1.6363    2.4313   -2.5552 H   0  0  0  0  0  0  0  0  0  0  0  0
    1.8126    3.6236   -1.2584 H   0  0  0  0  0  0  0  0  0  0  0  0
    2.6012    2.0384   -1.1135 H   0  0  0  0  0  0  0  0  0  0  0  0
    0.5509   -0.6425    1.2304 C   0  0  0  0  0  0  0  0  0  0  0  0
    1.7348   -0.7543    1.5232 O   0  0  0  0  0  0  0  0  0  0  0  0
   -0.3463   -0.2522    2.2094 N   0  0  0  0  0  0  0  0  0  0  0  0
   -1.3259   -0.2506    1.9473 H   0  0  0  0  0  0  0  0  0  0  0  0
    0.0049   -0.1782    3.6216 C   0  0  0  0  0  0  0  0  0  0  0  0
    0.8187    0.5378    3.7774 H   0  0  0  0  0  0  0  0  0  0  0  0
   -0.8581    0.1486    4.2092 H   0  0  0  0  0  0  0  0  0  0  0  0
    0.3237   -1.1598    3.9878 H   0  0  0  0  0  0  0  0  0  0  0  0
  1  2  1  0  0  0  0
  2  3  1  0  0  0  0
  2  4  1  0  0  0  0
  2  5  1  0  0  0  0
  5  6  2  0  0  0  0
  5  7  1  0  0  0  0
  7  8  1  0  0  0  0
  7  9  1  0  0  0  0
  9 10  1  0  0  0  0
  9 11  1  0  0  0  0
  9 24  1  0  0  0  0
 11 12  1  0  0  0  0
 11 13  1  0  0  0  0
 11 14  1  0  0  0  0
 14 15  1  0  0  0  0
 14 16  1  0  0  0  0
 14 20  1  0  0  0  0
 16 17  1  0  0  0  0
 16 18  1  0  0  0  0
 16 19  1  0  0  0  0
 20 21  1  0  0  0  0
 20 22  1  0  0  0  0
 20 23  1  0  0  0  0
 24 25  2  0  0  0  0
 24 26  1  0  0  0  0
 26 27  1  0  0  0  0
 26 28  1  0  0  0  0
 28 29  1  0  0  0  0
 28 30  1  0  0  0  0
 28 31  1  0  0  0  0
M  END
$$$$

  -OEChem-04042216013D

 31 30  0     1  0  0  0  0  0999 V2000
   -2.9872   -4.2021    0.0023 H   0  0  0  0  0  0  0  0  0  0  0  0
   -2.8889   -3.1844   -0.3867 C   0  0  0  0  0  0  0  0  0  0  0  0
   -3.6485   -2.5544    0.0823 H   0  0  0  0  0  0  0  0  0  0  0  0
   -3.0550   -3.2038   -1.4664 H   0  0  0  0  0  0  0  0  0  0  0  0
   -1.5043   -2.6429   -0.0848 C   0  0  0  0  0  0  0  0  0  0  0  0
   -0.6944   -3.3435    0.4940 O   0  0  0  0  0  0  0  0  0  0  0  0
   -1.1769   -1.3554   -0.4655 N   0  0  0  0  0  0  0  0  0  0  0  0
   -1.8838   -0.8364   -0.9768 H   0  0  0  0  0  0  0  0  0  0  0  0
    0.1469   -0.7295   -0.2711 C   0  0  1  0  0  0  0  0  0  0  0  0
    0.8683   -1.4441   -0.6855 H   0  0  0  0  0  0  0  0  0  0  0  0
    0.2421    0.5161   -1.2139 C   0  0  0  0  0  0  0  0  0  0  0  0
    1.0854    0.2742   -1.8702 H   0  0  0  0  0  0  0  0  0  0  0  0
   -0.6379    0.5249   -1.8650 H   0  0  0  0  0  0  0  0  0  0  0  0
    0.4657    1.9968   -0.7609 C   0  0  0  0  0  0  0  0  0  0  0  0
   -0.5090    2.4898   -0.8408 H   0  0  0  0  0  0  0  0  0  0  0  0
    0.9563    2.2961    0.6592 C   0  0  0  0  0  0  0  0  0  0  0  0
    1.8624    1.7288    0.8890 H   0  0  0  0  0  0  0  0  0  0  0  0
    0.1799    2.0768    1.3924 H   0  0  0  0  0  0  0  0  0  0  0  0
    1.1947    3.3595    0.7613 H   0  0  0  0  0  0  0  0  0  0  0  0
    1.4086    2.6913   -1.7558 C   0  0  0  0  0  0  0  0  0  0  0  0
    1.0455    2.5638   -2.7805 H   0  0  0  0  0  0  0  0  0  0  0  0
    1.4653    3.7646   -1.5485 H   0  0  0  0  0  0  0  0  0  0  0  0
    2.4177    2.2718   -1.6871 H   0  0  0  0  0  0  0  0  0  0  0  0
    0.5645   -0.6531    1.2162 C   0  0  0  0  0  0  0  0  0  0  0  0
    1.7357   -0.8209    1.5317 O   0  0  0  0  0  0  0  0  0  0  0  0
   -0.3388   -0.2383    2.1798 N   0  0  0  0  0  0  0  0  0  0  0  0
   -1.3121   -0.2001    1.8976 H   0  0  0  0  0  0  0  0  0  0  0  0
   -0.0144   -0.1912    3.5996 C   0  0  0  0  0  0  0  0  0  0  0  0
    0.8363    0.4753    3.7766 H   0  0  0  0  0  0  0  0  0  0  0  0
   -0.8692    0.1827    4.1708 H   0  0  0  0  0  0  0  0  0  0  0  0
    0.2389   -1.1916    3.9663 H   0  0  0  0  0  0  0  0  0  0  0  0
  1  2  1  0  0  0  0
  2  3  1  0  0  0  0
  2  4  1  0  0  0  0
  2  5  1  0  0  0  0
  5  6  2  0  0  0  0
  5  7  1  0  0  0  0
  7  8  1  0  0  0  0
  7  9  1  0  0  0  0
  9 10  1  0  0  0  0
  9 11  1  0  0  0  0
  9 24  1  0  0  0  0
 11 12  1  0  0  0  0
 11 13  1  0  0  0  0
 11 14  1  0  0  0  0
 14 15  1  0  0  0  0
 14 16  1  0  0  0  0
 14 20  1  0  0  0  0
 16 17  1  0  0  0  0
 16 18  1  0  0  0  0
 16 19  1  0  0  0  0
 20 21  1  0  0  0  0
 20 22  1  0  0  0  0
 20 23  1  0  0  0  0
 24 25  2  0  0  0  0
 24 26  1  0  0  0  0
 26 27  1  0  0  0  0
 26 28  1  0  0  0  0
 28 29  1  0  0  0  0
 28 30  1  0  0  0  0
 28 31  1  0  0  0  0
M  END
$$$$

  -OEChem-04042216013D

 31 30  0     1  0  0  0  0  0999 V2000
   -2.9670   -4.1815    0.0443 H   0  0  0  0  0  0  0  0  0  0  0  0
   -2.8652   -3.1726   -0.3659 C   0  0  0  0  0  0  0  0  0  0  0  0
   -3.6190   -2.5291    0.0937 H   0  0  0  0  0  0  0  0  0  0  0  0
   -3.0365   -3.2130   -1.4443 H   0  0  0  0  0  0  0  0  0  0  0  0
   -1.4765   -2.6323   -0.0806 C   0  0  0  0  0  0  0  0  0  0  0  0
   -0.6684   -3.3260    0.5087 O   0  0  0  0  0  0  0  0  0  0  0  0
   -1.1429   -1.3557   -0.4918 N   0  0  0  0  0  0  0  0  0  0  0  0
   -1.8482   -0.8457   -1.0146 H   0  0  0  0  0  0  0  0  0  0  0  0
    0.1843   -0.7309   -0.3129 C   0  0  1  0  0  0  0  0  0  0  0  0
    0.9167   -1.4291   -0.7354 H   0  0  0  0  0  0  0  0  0  0  0  0
    0.2305    0.5384   -1.2254 C   0  0  0  0  0  0  0  0  0  0  0  0
    1.0606    0.3352   -1.9108 H   0  0  0  0  0  0  0  0  0  0  0  0
   -0.6696    0.5591   -1.8485 H   0  0  0  0  0  0  0  0  0  0  0  0
    0.4533    1.9978   -0.7198 C   0  0  0  0  0  0  0  0  0  0  0  0
   -0.5371    2.4030   -0.4866 H   0  0  0  0  0  0  0  0  0  0  0  0
    1.3045    2.2263    0.5369 C   0  0  0  0  0  0  0  0  0  0  0  0
    2.2140    1.6188    0.5031 H   0  0  0  0  0  0  0  0  0  0  0  0
    1.6041    3.2765    0.6087 H   0  0  0  0  0  0  0  0  0  0  0  0
    0.7444    2.0004    1.4443 H   0  0  0  0  0  0  0  0  0  0  0  0
    1.0330    2.8333   -1.8710 C   0  0  0  0  0  0  0  0  0  0  0  0
    0.4194    2.7237   -2.7708 H   0  0  0  0  0  0  0  0  0  0  0  0
    1.0551    3.8943   -1.6029 H   0  0  0  0  0  0  0  0  0  0  0  0
    2.0541    2.5137   -2.1032 H   0  0  0  0  0  0  0  0  0  0  0  0
    0.5798   -0.6320    1.1786 C   0  0  0  0  0  0  0  0  0  0  0  0
    1.7410   -0.8159    1.5205 O   0  0  0  0  0  0  0  0  0  0  0  0
   -0.3404   -0.1941    2.1163 N   0  0  0  0  0  0  0  0  0  0  0  0
   -1.3065   -0.1507    1.8116 H   0  0  0  0  0  0  0  0  0  0  0  0
   -0.0490   -0.1443    3.5433 C   0  0  0  0  0  0  0  0  0  0  0  0
    0.8100    0.5067    3.7370 H   0  0  0  0  0  0  0  0  0  0  0  0
   -0.9096    0.2495    4.0917 H   0  0  0  0  0  0  0  0  0  0  0  0
    0.1766   -1.1468    3.9217 H   0  0  0  0  0  0  0  0  0  0  0  0
  1  2  1  0  0  0  0
  2  3  1  0  0  0  0
  2  4  1  0  0  0  0
  2  5  1  0  0  0  0
  5  6  2  0  0  0  0
  5  7  1  0  0  0  0
  7  8  1  0  0  0  0
  7  9  1  0  0  0  0
  9 10  1  0  0  0  0
  9 11  1  0  0  0  0
  9 24  1  0  0  0  0
 11 12  1  0  0  0  0
 11 13  1  0  0  0  0
 11 14  1  0  0  0  0
 14 15  1  0  0  0  0
 14 16  1  0  0  0  0
 14 20  1  0  0  0  0
 16 17  1  0  0  0  0
 16 18  1  0  0  0  0
 16 19  1  0  0  0  0
 20 21  1  0  0  0  0
 20 22  1  0  0  0  0
 20 23  1  0  0  0  0
 24 25  2  0  0  0  0
 24 26  1  0  0  0  0
 26 27  1  0  0  0  0
 26 28  1  0  0  0  0
 28 29  1  0  0  0  0
 28 30  1  0  0  0  0
 28 31  1  0  0  0  0
M  END
$$$$

  -OEChem-04042216013D

 31 30  0     1  0  0  0  0  0999 V2000
   -2.9374   -4.1861    0.0960 H   0  0  0  0  0  0  0  0  0  0  0  0
   -2.8429   -3.1853   -0.3355 C   0  0  0  0  0  0  0  0  0  0  0  0
   -3.6034   -2.5383    0.1082 H   0  0  0  0  0  0  0  0  0  0  0  0
   -3.0114   -3.2508   -1.4132 H   0  0  0  0  0  0  0  0  0  0  0  0
   -1.4593   -2.6270   -0.0588 C   0  0  0  0  0  0  0  0  0  0  0  0
   -0.6507   -3.2968    0.5569 O   0  0  0  0  0  0  0  0  0  0  0  0
   -1.1303   -1.3632   -0.5109 N   0  0  0  0  0  0  0  0  0  0  0  0
   -1.8295   -0.8826   -1.0683 H   0  0  0  0  0  0  0  0  0  0  0  0
    0.1962   -0.7305   -0.3532 C   0  0  1  0  0  0  0  0  0  0  0  0
    0.9369   -1.4181   -0.7778 H   0  0  0  0  0  0  0  0  0  0  0  0
    0.2009    0.5465   -1.2521 C   0  0  0  0  0  0  0  0  0  0  0  0
    1.0079    0.3786   -1.9735 H   0  0  0  0  0  0  0  0  0  0  0  0
   -0.7249    0.5750   -1.8358 H   0  0  0  0  0  0  0  0  0  0  0  0
    0.4221    1.9794   -0.6873 C   0  0  0  0  0  0  0  0  0  0  0  0
   -0.4998    2.2801   -0.1781 H   0  0  0  0  0  0  0  0  0  0  0  0
    1.5678    2.1638    0.3221 C   0  0  0  0  0  0  0  0  0  0  0  0
    2.4233    1.5367    0.0519 H   0  0  0  0  0  0  0  0  0  0  0  0
    1.9028    3.2056    0.3387 H   0  0  0  0  0  0  0  0  0  0  0  0
    1.2494    1.9222    1.3378 H   0  0  0  0  0  0  0  0  0  0  0  0
    0.6368    2.9362   -1.8689 C   0  0  0  0  0  0  0  0  0  0  0  0
   -0.1850    2.8509   -2.5868 H   0  0  0  0  0  0  0  0  0  0  0  0
    0.6759    3.9731   -1.5205 H   0  0  0  0  0  0  0  0  0  0  0  0
    1.5752    2.7081   -2.3847 H   0  0  0  0  0  0  0  0  0  0  0  0
    0.5942   -0.5836    1.1331 C   0  0  0  0  0  0  0  0  0  0  0  0
    1.7525   -0.7732    1.4823 O   0  0  0  0  0  0  0  0  0  0  0  0
   -0.3255   -0.1160    2.0565 N   0  0  0  0  0  0  0  0  0  0  0  0
   -1.2910   -0.0773    1.7489 H   0  0  0  0  0  0  0  0  0  0  0  0
   -0.0383   -0.0349    3.4826 C   0  0  0  0  0  0  0  0  0  0  0  0
    0.8088    0.6344    3.6657 H   0  0  0  0  0  0  0  0  0  0  0  0
   -0.9069    0.3535    4.0224 H   0  0  0  0  0  0  0  0  0  0  0  0
    0.2035   -1.0265    3.8797 H   0  0  0  0  0  0  0  0  0  0  0  0
  1  2  1  0  0  0  0
  2  3  1  0  0  0  0
  2  4  1  0  0  0  0
  2  5  1  0  0  0  0
  5  6  2  0  0  0  0
  5  7  1  0  0  0  0
  7  8  1  0  0  0  0
  7  9  1  0  0  0  0
  9 10  1  0  0  0  0
  9 11  1  0  0  0  0
  9 24  1  0  0  0  0
 11 12  1  0  0  0  0
 11 13  1  0  0  0  0
 11 14  1  0  0  0  0
 14 15  1  0  0  0  0
 14 16  1  0  0  0  0
 14 20  1  0  0  0  0
 16 17  1  0  0  0  0
 16 18  1  0  0  0  0
 16 19  1  0  0  0  0
 20 21  1  0  0  0  0
 20 22  1  0  0  0  0
 20 23  1  0  0  0  0
 24 25  2  0  0  0  0
 24 26  1  0  0  0  0
 26 27  1  0  0  0  0
 26 28  1  0  0  0  0
 28 29  1  0  0  0  0
 28 30  1  0  0  0  0
 28 31  1  0  0  0  0
M  END
$$$$

  -OEChem-04042216013D

 31 30  0     1  0  0  0  0  0999 V2000
   -2.9028   -4.2070    0.1254 H   0  0  0  0  0  0  0  0  0  0  0  0
   -2.8223   -3.2113   -0.3199 C   0  0  0  0  0  0  0  0  0  0  0  0
   -3.5917   -2.5692    0.1149 H   0  0  0  0  0  0  0  0  0  0  0  0
   -2.9898   -3.2941   -1.3963 H   0  0  0  0  0  0  0  0  0  0  0  0
   -1.4467   -2.6301   -0.0511 C   0  0  0  0  0  0  0  0  0  0  0  0
   -0.6331   -3.2753    0.5840 O   0  0  0  0  0  0  0  0  0  0  0  0
   -1.1315   -1.3726   -0.5299 N   0  0  0  0  0  0  0  0  0  0  0  0
   -1.8333   -0.9137   -1.1021 H   0  0  0  0  0  0  0  0  0  0  0  0
    0.1883   -0.7239   -0.3840 C   0  0  1  0  0  0  0  0  0  0  0  0
    0.9374   -1.4038   -0.8063 H   0  0  0  0  0  0  0  0  0  0  0  0
    0.1716    0.5514   -1.2816 C   0  0  0  0  0  0  0  0  0  0  0  0
    0.9605    0.4114   -2.0287 H   0  0  0  0  0  0  0  0  0  0  0  0
   -0.7714    0.5810   -1.8370 H   0  0  0  0  0  0  0  0  0  0  0  0
    0.3859    1.9574   -0.6598 C   0  0  0  0  0  0  0  0  0  0  0  0
   -0.4121    2.1454    0.0663 H   0  0  0  0  0  0  0  0  0  0  0  0
    1.7363    2.1499    0.0549 C   0  0  0  0  0  0  0  0  0  0  0  0
    2.5230    1.5730   -0.4416 H   0  0  0  0  0  0  0  0  0  0  0  0
    2.0310    3.2038    0.0507 H   0  0  0  0  0  0  0  0  0  0  0  0
    1.6786    1.8447    1.1015 H   0  0  0  0  0  0  0  0  0  0  0  0
    0.2611    3.0051   -1.7755 C   0  0  0  0  0  0  0  0  0  0  0  0
   -0.7064    2.9177   -2.2797 H   0  0  0  0  0  0  0  0  0  0  0  0
    0.3360    4.0158   -1.3619 H   0  0  0  0  0  0  0  0  0  0  0  0
    1.0544    2.8741   -2.5187 H   0  0  0  0  0  0  0  0  0  0  0  0
    0.5968   -0.5355    1.0951 C   0  0  0  0  0  0  0  0  0  0  0  0
    1.7557   -0.7263    1.4422 O   0  0  0  0  0  0  0  0  0  0  0  0
   -0.3177   -0.0530    2.0154 N   0  0  0  0  0  0  0  0  0  0  0  0
   -1.2859   -0.0237    1.7154 H   0  0  0  0  0  0  0  0  0  0  0  0
   -0.0159    0.0756    3.4349 C   0  0  0  0  0  0  0  0  0  0  0  0
    0.8182    0.7685    3.5872 H   0  0  0  0  0  0  0  0  0  0  0  0
   -0.8867    0.4604    3.9737 H   0  0  0  0  0  0  0  0  0  0  0  0
    0.2526   -0.8981    3.8584 H   0  0  0  0  0  0  0  0  0  0  0  0
  1  2  1  0  0  0  0
  2  3  1  0  0  0  0
  2  4  1  0  0  0  0
  2  5  1  0  0  0  0
  5  6  2  0  0  0  0
  5  7  1  0  0  0  0
  7  8  1  0  0  0  0
  7  9  1  0  0  0  0
  9 10  1  0  0  0  0
  9 11  1  0  0  0  0
  9 24  1  0  0  0  0
 11 12  1  0  0  0  0
 11 13  1  0  0  0  0
 11 14  1  0  0  0  0
 14 15  1  0  0  0  0
 14 16  1  0  0  0  0
 14 20  1  0  0  0  0
 16 17  1  0  0  0  0
 16 18  1  0  0  0  0
 16 19  1  0  0  0  0
 20 21  1  0  0  0  0
 20 22  1  0  0  0  0
 20 23  1  0  0  0  0
 24 25  2  0  0  0  0
 24 26  1  0  0  0  0
 26 27  1  0  0  0  0
 26 28  1  0  0  0  0
 28 29  1  0  0  0  0
 28 30  1  0  0  0  0
 28 31  1  0  0  0  0
M  END
$$$$

  -OEChem-04042216013D

 31 30  0     1  0  0  0  0  0999 V2000
   -2.8734   -4.2207    0.1586 H   0  0  0  0  0  0  0  0  0  0  0  0
   -2.8025   -3.2280   -0.2955 C   0  0  0  0  0  0  0  0  0  0  0  0
   -3.5801   -2.5904    0.1317 H   0  0  0  0  0  0  0  0  0  0  0  0
   -2.9667   -3.3222   -1.3716 H   0  0  0  0  0  0  0  0  0  0  0  0
   -1.4340   -2.6289   -0.0296 C   0  0  0  0  0  0  0  0  0  0  0  0
   -0.6157   -3.2575    0.6158 O   0  0  0  0  0  0  0  0  0  0  0  0
   -1.1293   -1.3756   -0.5261 N   0  0  0  0  0  0  0  0  0  0  0  0
   -1.8334   -0.9332   -1.1084 H   0  0  0  0  0  0  0  0  0  0  0  0
    0.1843   -0.7124   -0.3872 C   0  0  1  0  0  0  0  0  0  0  0  0
    0.9407   -1.3901   -0.7996 H   0  0  0  0  0  0  0  0  0  0  0  0
    0.1600    0.5526   -1.2990 C   0  0  0  0  0  0  0  0  0  0  0  0
    0.9372    0.4204   -2.0595 H   0  0  0  0  0  0  0  0  0  0  0  0
   -0.7919    0.5734   -1.8395 H   0  0  0  0  0  0  0  0  0  0  0  0
    0.3656    1.9493   -0.6591 C   0  0  0  0  0  0  0  0  0  0  0  0
   -0.2621    2.0405    0.2324 H   0  0  0  0  0  0  0  0  0  0  0  0
    1.8280    2.2291   -0.2727 C   0  0  0  0  0  0  0  0  0  0  0  0
    2.4880    2.0781   -1.1327 H   0  0  0  0  0  0  0  0  0  0  0  0
    1.9374    3.2633    0.0681 H   0  0  0  0  0  0  0  0  0  0  0  0
    2.1676    1.5838    0.5366 H   0  0  0  0  0  0  0  0  0  0  0  0
   -0.0793    3.0258   -1.6582 C   0  0  0  0  0  0  0  0  0  0  0  0
   -1.1350    2.8977   -1.9168 H   0  0  0  0  0  0  0  0  0  0  0  0
    0.0447    4.0240   -1.2263 H   0  0  0  0  0  0  0  0  0  0  0  0
    0.5143    2.9686   -2.5765 H   0  0  0  0  0  0  0  0  0  0  0  0
    0.5897   -0.4976    1.0915 C   0  0  0  0  0  0  0  0  0  0  0  0
    1.7421   -0.7001    1.4516 O   0  0  0  0  0  0  0  0  0  0  0  0
   -0.3285   -0.0101    2.0052 N   0  0  0  0  0  0  0  0  0  0  0  0
   -1.2953    0.0180    1.7001 H   0  0  0  0  0  0  0  0  0  0  0  0
   -0.0335    0.1232    3.4259 C   0  0  0  0  0  0  0  0  0  0  0  0
    0.8014    0.8148    3.5798 H   0  0  0  0  0  0  0  0  0  0  0  0
   -0.9060    0.5118    3.9592 H   0  0  0  0  0  0  0  0  0  0  0  0
    0.2314   -0.8494    3.8539 H   0  0  0  0  0  0  0  0  0  0  0  0
  1  2  1  0  0  0  0
  2  3  1  0  0  0  0
  2  4  1  0  0  0  0
  2  5  1  0  0  0  0
  5  6  2  0  0  0  0
  5  7  1  0  0  0  0
  7  8  1  0  0  0  0
  7  9  1  0  0  0  0
  9 10  1  0  0  0  0
  9 11  1  0  0  0  0
  9 24  1  0  0  0  0
 11 12  1  0  0  0  0
 11 13  1  0  0  0  0
 11 14  1  0  0  0  0
 14 15  1  0  0  0  0
 14 16  1  0  0  0  0
 14 20  1  0  0  0  0
 16 17  1  0  0  0  0
 16 18  1  0  0  0  0
 16 19  1  0  0  0  0
 20 21  1  0  0  0  0
 20 22  1  0  0  0  0
 20 23  1  0  0  0  0
 24 25  2  0  0  0  0
 24 26  1  0  0  0  0
 26 27  1  0  0  0  0
 26 28  1  0  0  0  0
 28 29  1  0  0  0  0
 28 30  1  0  0  0  0
 28 31  1  0  0  0  0
M  END
$$$$

  -OEChem-04042216013D

 31 30  0     1  0  0  0  0  0999 V2000
   -2.8345   -4.2744    0.1323 H   0  0  0  0  0  0  0  0  0  0  0  0
   -2.7877   -3.2774   -0.3155 C   0  0  0  0  0  0  0  0  0  0  0  0
   -3.5830   -2.6625    0.1127 H   0  0  0  0  0  0  0  0  0  0  0  0
   -2.9453   -3.3690   -1.3928 H   0  0  0  0  0  0  0  0  0  0  0  0
   -1.4359   -2.6455   -0.0409 C   0  0  0  0  0  0  0  0  0  0  0  0
   -0.6037   -3.2544    0.6061 O   0  0  0  0  0  0  0  0  0  0  0  0
   -1.1618   -1.3809   -0.5253 N   0  0  0  0  0  0  0  0  0  0  0  0
   -1.8746   -0.9494   -1.1054 H   0  0  0  0  0  0  0  0  0  0  0  0
    0.1375   -0.6931   -0.3847 C   0  0  1  0  0  0  0  0  0  0  0  0
    0.8954   -1.3715   -0.7935 H   0  0  0  0  0  0  0  0  0  0  0  0
    0.1392    0.5607   -1.3082 C   0  0  0  0  0  0  0  0  0  0  0  0
    0.9263    0.4262   -2.0579 H   0  0  0  0  0  0  0  0  0  0  0  0
   -0.8041    0.5778   -1.8634 H   0  0  0  0  0  0  0  0  0  0  0  0
    0.3329    1.9466   -0.6413 C   0  0  0  0  0  0  0  0  0  0  0  0
   -0.1045    1.9653    0.3594 H   0  0  0  0  0  0  0  0  0  0  0  0
    1.8214    2.3164   -0.5633 C   0  0  0  0  0  0  0  0  0  0  0  0
    2.2605    2.3762   -1.5642 H   0  0  0  0  0  0  0  0  0  0  0  0
    1.9466    3.2864   -0.0721 H   0  0  0  0  0  0  0  0  0  0  0  0
    2.3786    1.5721    0.0113 H   0  0  0  0  0  0  0  0  0  0  0  0
   -0.3815    3.0212   -1.4711 C   0  0  0  0  0  0  0  0  0  0  0  0
   -1.4580    2.8269   -1.5038 H   0  0  0  0  0  0  0  0  0  0  0  0
   -0.2280    4.0101   -1.0276 H   0  0  0  0  0  0  0  0  0  0  0  0
    0.0020    3.0368   -2.4965 H   0  0  0  0  0  0  0  0  0  0  0  0
    0.5693   -0.4744    1.0867 C   0  0  0  0  0  0  0  0  0  0  0  0
    1.7503   -0.5565    1.3979 O   0  0  0  0  0  0  0  0  0  0  0  0
   -0.3402   -0.0105    2.0214 N   0  0  0  0  0  0  0  0  0  0  0  0
   -1.3182   -0.0503    1.7560 H   0  0  0  0  0  0  0  0  0  0  0  0
    0.0013    0.1937    3.4230 C   0  0  0  0  0  0  0  0  0  0  0  0
    0.7996    0.9374    3.5181 H   0  0  0  0  0  0  0  0  0  0  0  0
   -0.8715    0.5520    3.9769 H   0  0  0  0  0  0  0  0  0  0  0  0
    0.3387   -0.7452    3.8745 H   0  0  0  0  0  0  0  0  0  0  0  0
  1  2  1  0  0  0  0
  2  3  1  0  0  0  0
  2  4  1  0  0  0  0
  2  5  1  0  0  0  0
  5  6  2  0  0  0  0
  5  7  1  0  0  0  0
  7  8  1  0  0  0  0
  7  9  1  0  0  0  0
  9 10  1  0  0  0  0
  9 11  1  0  0  0  0
  9 24  1  0  0  0  0
 11 12  1  0  0  0  0
 11 13  1  0  0  0  0
 11 14  1  0  0  0  0
 14 15  1  0  0  0  0
 14 16  1  0  0  0  0
 14 20  1  0  0  0  0
 16 17  1  0  0  0  0
 16 18  1  0  0  0  0
 16 19  1  0  0  0  0
 20 21  1  0  0  0  0
 20 22  1  0  0  0  0
 20 23  1  0  0  0  0
 24 25  2  0  0  0  0
 24 26  1  0  0  0  0
 26 27  1  0  0  0  0
 26 28  1  0  0  0  0
 28 29  1  0  0  0  0
 28 30  1  0  0  0  0
 28 31  1  0  0  0  0
M  END
$$$$

  -OEChem-04042216013D

 31 30  0     1  0  0  0  0  0999 V2000
   -2.8281   -4.2974    0.1132 H   0  0  0  0  0  0  0  0  0  0  0  0
   -2.7898   -3.2980   -0.3301 C   0  0  0  0  0  0  0  0  0  0  0  0
   -3.5869   -2.6906    0.1050 H   0  0  0  0  0  0  0  0  0  0  0  0
   -2.9521   -3.3852   -1.4071 H   0  0  0  0  0  0  0  0  0  0  0  0
   -1.4408   -2.6586   -0.0580 C   0  0  0  0  0  0  0  0  0  0  0  0
   -0.5991   -3.2683    0.5760 O   0  0  0  0  0  0  0  0  0  0  0  0
   -1.1802   -1.3837   -0.5223 N   0  0  0  0  0  0  0  0  0  0  0  0
   -1.8996   -0.9467   -1.0901 H   0  0  0  0  0  0  0  0  0  0  0  0
    0.1137   -0.6884   -0.3738 C   0  0  1  0  0  0  0  0  0  0  0  0
    0.8688   -1.3682   -0.7855 H   0  0  0  0  0  0  0  0  0  0  0  0
    0.1345    0.5650   -1.2959 C   0  0  0  0  0  0  0  0  0  0  0  0
    0.9357    0.4201   -2.0286 H   0  0  0  0  0  0  0  0  0  0  0  0
   -0.7941    0.5788   -1.8754 H   0  0  0  0  0  0  0  0  0  0  0  0
    0.3226    1.9567   -0.6279 C   0  0  0  0  0  0  0  0  0  0  0  0
    0.1283    1.9274    0.4452 H   0  0  0  0  0  0  0  0  0  0  0  0
    1.7474    2.4741   -0.8629 C   0  0  0  0  0  0  0  0  0  0  0  0
    1.9524    2.5866   -1.9324 H   0  0  0  0  0  0  0  0  0  0  0  0
    1.8847    3.4464   -0.3795 H   0  0  0  0  0  0  0  0  0  0  0  0
    2.4768    1.7762   -0.4394 H   0  0  0  0  0  0  0  0  0  0  0  0
   -0.6632    2.9642   -1.2341 C   0  0  0  0  0  0  0  0  0  0  0  0
   -1.6943    2.6492   -1.0459 H   0  0  0  0  0  0  0  0  0  0  0  0
   -0.5220    3.9528   -0.7856 H   0  0  0  0  0  0  0  0  0  0  0  0
   -0.5151    3.0494   -2.3155 H   0  0  0  0  0  0  0  0  0  0  0  0
    0.5623   -0.4837    1.0935 C   0  0  0  0  0  0  0  0  0  0  0  0
    1.7550   -0.4900    1.3697 O   0  0  0  0  0  0  0  0  0  0  0  0
   -0.3415   -0.0390    2.0431 N   0  0  0  0  0  0  0  0  0  0  0  0
   -1.3235   -0.1098    1.7992 H   0  0  0  0  0  0  0  0  0  0  0  0
    0.0249    0.2060    3.4317 C   0  0  0  0  0  0  0  0  0  0  0  0
    0.7992    0.9779    3.4933 H   0  0  0  0  0  0  0  0  0  0  0  0
   -0.8463    0.5469    3.9989 H   0  0  0  0  0  0  0  0  0  0  0  0
    0.4042   -0.7118    3.8932 H   0  0  0  0  0  0  0  0  0  0  0  0
  1  2  1  0  0  0  0
  2  3  1  0  0  0  0
  2  4  1  0  0  0  0
  2  5  1  0  0  0  0
  5  6  2  0  0  0  0
  5  7  1  0  0  0  0
  7  8  1  0  0  0  0
  7  9  1  0  0  0  0
  9 10  1  0  0  0  0
  9 11  1  0  0  0  0
  9 24  1  0  0  0  0
 11 12  1  0  0  0  0
 11 13  1  0  0  0  0
 11 14  1  0  0  0  0
 14 15  1  0  0  0  0
 14 16  1  0  0  0  0
 14 20  1  0  0  0  0
 16 17  1  0  0  0  0
 16 18  1  0  0  0  0
 16 19  1  0  0  0  0
 20 21  1  0  0  0  0
 20 22  1  0  0  0  0
 20 23  1  0  0  0  0
 24 25  2  0  0  0  0
 24 26  1  0  0  0  0
 26 27  1  0  0  0  0
 26 28  1  0  0  0  0
 28 29  1  0  0  0  0
 28 30  1  0  0  0  0
 28 31  1  0  0  0  0
M  END
$$$$

  -OEChem-04042216013D

 31 30  0     1  0  0  0  0  0999 V2000
   -2.8389   -4.2829    0.1093 H   0  0  0  0  0  0  0  0  0  0  0  0
   -2.7904   -3.2838   -0.3333 C   0  0  0  0  0  0  0  0  0  0  0  0
   -3.5825   -2.6686    0.1000 H   0  0  0  0  0  0  0  0  0  0  0  0
   -2.9509   -3.3688   -1.4109 H   0  0  0  0  0  0  0  0  0  0  0  0
   -1.4365   -2.6572   -0.0578 C   0  0  0  0  0  0  0  0  0  0  0  0
   -0.6008   -3.2747    0.5766 O   0  0  0  0  0  0  0  0  0  0  0  0
   -1.1656   -1.3842   -0.5207 N   0  0  0  0  0  0  0  0  0  0  0  0
   -1.8857   -0.9367   -1.0791 H   0  0  0  0  0  0  0  0  0  0  0  0
    0.1311   -0.6961   -0.3678 C   0  0  1  0  0  0  0  0  0  0  0  0
    0.8858   -1.3760   -0.7799 H   0  0  0  0  0  0  0  0  0  0  0  0
    0.1431    0.5607   -1.2871 C   0  0  0  0  0  0  0  0  0  0  0  0
    0.9605    0.4095   -2.0004 H   0  0  0  0  0  0  0  0  0  0  0  0
   -0.7700    0.5711   -1.8908 H   0  0  0  0  0  0  0  0  0  0  0  0
    0.3305    1.9604   -0.6302 C   0  0  0  0  0  0  0  0  0  0  0  0
    0.4496    1.8944    0.4517 H   0  0  0  0  0  0  0  0  0  0  0  0
    1.5872    2.6472   -1.1785 C   0  0  0  0  0  0  0  0  0  0  0  0
    1.5188    2.7767   -2.2634 H   0  0  0  0  0  0  0  0  0  0  0  0
    1.7145    3.6322   -0.7185 H   0  0  0  0  0  0  0  0  0  0  0  0
    2.4747    2.0473   -0.9523 H   0  0  0  0  0  0  0  0  0  0  0  0
   -0.8947    2.8421   -0.8997 C   0  0  0  0  0  0  0  0  0  0  0  0
   -1.7966    2.3727   -0.4948 H   0  0  0  0  0  0  0  0  0  0  0  0
   -0.7728    3.8188   -0.4209 H   0  0  0  0  0  0  0  0  0  0  0  0
   -1.0326    2.9979   -1.9746 H   0  0  0  0  0  0  0  0  0  0  0  0
    0.5689   -0.4968    1.1027 C   0  0  0  0  0  0  0  0  0  0  0  0
    1.7595   -0.5028    1.3871 O   0  0  0  0  0  0  0  0  0  0  0  0
   -0.3423   -0.0486    2.0434 N   0  0  0  0  0  0  0  0  0  0  0  0
   -1.3220   -0.1212    1.7914 H   0  0  0  0  0  0  0  0  0  0  0  0
    0.0119    0.2012    3.4345 C   0  0  0  0  0  0  0  0  0  0  0  0
    0.7849    0.9741    3.5003 H   0  0  0  0  0  0  0  0  0  0  0  0
   -0.8649    0.5428    3.9927 H   0  0  0  0  0  0  0  0  0  0  0  0
    0.3883   -0.7143    3.9031 H   0  0  0  0  0  0  0  0  0  0  0  0
  1  2  1  0  0  0  0
  2  3  1  0  0  0  0
  2  4  1  0  0  0  0
  2  5  1  0  0  0  0
  5  6  2  0  0  0  0
  5  7  1  0  0  0  0
  7  8  1  0  0  0  0
  7  9  1  0  0  0  0
  9 10  1  0  0  0  0
  9 11  1  0  0  0  0
  9 24  1  0  0  0  0
 11 12  1  0  0  0  0
 11 13  1  0  0  0  0
 11 14  1  0  0  0  0
 14 15  1  0  0  0  0
 14 16  1  0  0  0  0
 14 20  1  0  0  0  0
 16 17  1  0  0  0  0
 16 18  1  0  0  0  0
 16 19  1  0  0  0  0
 20 21  1  0  0  0  0
 20 22  1  0  0  0  0
 20 23  1  0  0  0  0
 24 25  2  0  0  0  0
 24 26  1  0  0  0  0
 26 27  1  0  0  0  0
 26 28  1  0  0  0  0
 28 29  1  0  0  0  0
 28 30  1  0  0  0  0
 28 31  1  0  0  0  0
M  END
$$$$

  -OEChem-04042216013D

 31 30  0     1  0  0  0  0  0999 V2000
   -2.8443   -4.2707    0.1130 H   0  0  0  0  0  0  0  0  0  0  0  0
   -2.7877   -3.2734   -0.3329 C   0  0  0  0  0  0  0  0  0  0  0  0
   -3.5777   -2.6518    0.0953 H   0  0  0  0  0  0  0  0  0  0  0  0
   -2.9451   -3.3615   -1.4107 H   0  0  0  0  0  0  0  0  0  0  0  0
   -1.4305   -2.6543   -0.0552 C   0  0  0  0  0  0  0  0  0  0  0  0
   -0.6031   -3.2724    0.5895 O   0  0  0  0  0  0  0  0  0  0  0  0
   -1.1470   -1.3888   -0.5313 N   0  0  0  0  0  0  0  0  0  0  0  0
   -1.8590   -0.9443   -1.1023 H   0  0  0  0  0  0  0  0  0  0  0  0
    0.1535   -0.7077   -0.3778 C   0  0  1  0  0  0  0  0  0  0  0  0
    0.9121   -1.3839   -0.7887 H   0  0  0  0  0  0  0  0  0  0  0  0
    0.1471    0.5554   -1.2884 C   0  0  0  0  0  0  0  0  0  0  0  0
    0.9736    0.4109   -1.9923 H   0  0  0  0  0  0  0  0  0  0  0  0
   -0.7598    0.5726   -1.9012 H   0  0  0  0  0  0  0  0  0  0  0  0
    0.3357    1.9484   -0.6236 C   0  0  0  0  0  0  0  0  0  0  0  0
    0.7672    1.8615    0.3754 H   0  0  0  0  0  0  0  0  0  0  0  0
    1.3307    2.7960   -1.4249 C   0  0  0  0  0  0  0  0  0  0  0  0
    0.9834    2.9308   -2.4542 H   0  0  0  0  0  0  0  0  0  0  0  0
    1.4466    3.7827   -0.9655 H   0  0  0  0  0  0  0  0  0  0  0  0
    2.3128    2.3125   -1.4467 H   0  0  0  0  0  0  0  0  0  0  0  0
   -1.0113    2.6672   -0.4967 C   0  0  0  0  0  0  0  0  0  0  0  0
   -1.7104    2.0614    0.0880 H   0  0  0  0  0  0  0  0  0  0  0  0
   -0.8821    3.6284    0.0106 H   0  0  0  0  0  0  0  0  0  0  0  0
   -1.4478    2.8519   -1.4834 H   0  0  0  0  0  0  0  0  0  0  0  0
    0.5750   -0.4978    1.0960 C   0  0  0  0  0  0  0  0  0  0  0  0
    1.7608   -0.5246    1.3990 O   0  0  0  0  0  0  0  0  0  0  0  0
   -0.3444   -0.0338    2.0207 N   0  0  0  0  0  0  0  0  0  0  0  0
   -1.3209   -0.0859    1.7518 H   0  0  0  0  0  0  0  0  0  0  0  0
   -0.0080    0.2204    3.4153 C   0  0  0  0  0  0  0  0  0  0  0  0
    0.7692    0.9884    3.4877 H   0  0  0  0  0  0  0  0  0  0  0  0
   -0.8900    0.5706    3.9595 H   0  0  0  0  0  0  0  0  0  0  0  0
    0.3553   -0.6954    3.8935 H   0  0  0  0  0  0  0  0  0  0  0  0
  1  2  1  0  0  0  0
  2  3  1  0  0  0  0
  2  4  1  0  0  0  0
  2  5  1  0  0  0  0
  5  6  2  0  0  0  0
  5  7  1  0  0  0  0
  7  8  1  0  0  0  0
  7  9  1  0  0  0  0
  9 10  1  0  0  0  0
  9 11  1  0  0  0  0
  9 24  1  0  0  0  0
 11 12  1  0  0  0  0
 11 13  1  0  0  0  0
 11 14  1  0  0  0  0
 14 15  1  0  0  0  0
 14 16  1  0  0  0  0
 14 20  1  0  0  0  0
 16 17  1  0  0  0  0
 16 18  1  0  0  0  0
 16 19  1  0  0  0  0
 20 21  1  0  0  0  0
 20 22  1  0  0  0  0
 20 23  1  0  0  0  0
 24 25  2  0  0  0  0
 24 26  1  0  0  0  0
 26 27  1  0  0  0  0
 26 28  1  0  0  0  0
 28 29  1  0  0  0  0
 28 30  1  0  0  0  0
 28 31  1  0  0  0  0
M  END
$$$$

  -OEChem-04042216013D

 31 30  0     1  0  0  0  0  0999 V2000
   -2.8317   -4.2874    0.0960 H   0  0  0  0  0  0  0  0  0  0  0  0
   -2.7833   -3.2871   -0.3438 C   0  0  0  0  0  0  0  0  0  0  0  0
   -3.5783   -2.6748    0.0883 H   0  0  0  0  0  0  0  0  0  0  0  0
   -2.9394   -3.3697   -1.4221 H   0  0  0  0  0  0  0  0  0  0  0  0
   -1.4317   -2.6582   -0.0619 C   0  0  0  0  0  0  0  0  0  0  0  0
   -0.6005   -3.2723    0.5817 O   0  0  0  0  0  0  0  0  0  0  0  0
   -1.1583   -1.3872   -0.5286 N   0  0  0  0  0  0  0  0  0  0  0  0
   -1.8712   -0.9458   -1.1011 H   0  0  0  0  0  0  0  0  0  0  0  0
    0.1377   -0.6992   -0.3712 C   0  0  1  0  0  0  0  0  0  0  0  0
    0.8957   -1.3754   -0.7837 H   0  0  0  0  0  0  0  0  0  0  0  0
    0.1406    0.5607   -1.2841 C   0  0  0  0  0  0  0  0  0  0  0  0
    0.9780    0.4217   -1.9764 H   0  0  0  0  0  0  0  0  0  0  0  0
   -0.7621    0.5839   -1.9030 H   0  0  0  0  0  0  0  0  0  0  0  0
    0.3229    1.9429   -0.6081 C   0  0  0  0  0  0  0  0  0  0  0  0
    0.9712    1.8644    0.2691 H   0  0  0  0  0  0  0  0  0  0  0  0
    1.0205    2.9103   -1.5716 C   0  0  0  0  0  0  0  0  0  0  0  0
    0.4408    3.0233   -2.4932 H   0  0  0  0  0  0  0  0  0  0  0  0
    1.1321    3.8953   -1.1077 H   0  0  0  0  0  0  0  0  0  0  0  0
    2.0179    2.5402   -1.8291 H   0  0  0  0  0  0  0  0  0  0  0  0
   -1.0325    2.5186   -0.1795 C   0  0  0  0  0  0  0  0  0  0  0  0
   -1.5532    1.8286    0.4895 H   0  0  0  0  0  0  0  0  0  0  0  0
   -0.8905    3.4665    0.3491 H   0  0  0  0  0  0  0  0  0  0  0  0
   -1.6683    2.7003   -1.0518 H   0  0  0  0  0  0  0  0  0  0  0  0
    0.5725   -0.4917    1.1001 C   0  0  0  0  0  0  0  0  0  0  0  0
    1.7620   -0.5164    1.3887 O   0  0  0  0  0  0  0  0  0  0  0  0
   -0.3340   -0.0380    2.0417 N   0  0  0  0  0  0  0  0  0  0  0  0
   -1.3143   -0.0980    1.7888 H   0  0  0  0  0  0  0  0  0  0  0  0
    0.0220    0.2089    3.4328 C   0  0  0  0  0  0  0  0  0  0  0  0
    0.7993    0.9774    3.4986 H   0  0  0  0  0  0  0  0  0  0  0  0
   -0.8527    0.5553    3.9913 H   0  0  0  0  0  0  0  0  0  0  0  0
    0.3931   -0.7089    3.9010 H   0  0  0  0  0  0  0  0  0  0  0  0
  1  2  1  0  0  0  0
  2  3  1  0  0  0  0
  2  4  1  0  0  0  0
  2  5  1  0  0  0  0
  5  6  2  0  0  0  0
  5  7  1  0  0  0  0
  7  8  1  0  0  0  0
  7  9  1  0  0  0  0
  9 10  1  0  0  0  0
  9 11  1  0  0  0  0
  9 24  1  0  0  0  0
 11 12  1  0  0  0  0
 11 13  1  0  0  0  0
 11 14  1  0  0  0  0
 14 15  1  0  0  0  0
 14 16  1  0  0  0  0
 14 20  1  0  0  0  0
 16 17  1  0  0  0  0
 16 18  1  0  0  0  0
 16 19  1  0  0  0  0
 20 21  1  0  0  0  0
 20 22  1  0  0  0  0
 20 23  1  0  0  0  0
 24 25  2  0  0  0  0
 24 26  1  0  0  0  0
 26 27  1  0  0  0  0
 26 28  1  0  0  0  0
 28 29  1  0  0  0  0
 28 30  1  0  0  0  0
 28 31  1  0  0  0  0
M  END
$$$$

  -OEChem-04042216013D

 31 30  0     1  0  0  0  0  0999 V2000
   -2.8125   -4.3276    0.0342 H   0  0  0  0  0  0  0  0  0  0  0  0
   -2.7833   -3.3152   -0.3790 C   0  0  0  0  0  0  0  0  0  0  0  0
   -3.5904   -2.7300    0.0680 H   0  0  0  0  0  0  0  0  0  0  0  0
   -2.9375   -3.3727   -1.4593 H   0  0  0  0  0  0  0  0  0  0  0  0
   -1.4441   -2.6682   -0.0789 C   0  0  0  0  0  0  0  0  0  0  0  0
   -0.5999   -3.2844    0.5459 O   0  0  0  0  0  0  0  0  0  0  0  0
   -1.1980   -1.3762   -0.5009 N   0  0  0  0  0  0  0  0  0  0  0  0
   -1.9232   -0.9267   -1.0513 H   0  0  0  0  0  0  0  0  0  0  0  0
    0.0870   -0.6733   -0.3297 C   0  0  1  0  0  0  0  0  0  0  0  0
    0.8349   -1.3578   -0.7475 H   0  0  0  0  0  0  0  0  0  0  0  0
    0.1364    0.5727   -1.2581 C   0  0  0  0  0  0  0  0  0  0  0  0
    0.9962    0.4269   -1.9211 H   0  0  0  0  0  0  0  0  0  0  0  0
   -0.7496    0.5935   -1.9006 H   0  0  0  0  0  0  0  0  0  0  0  0
    0.3034    1.9576   -0.5930 C   0  0  0  0  0  0  0  0  0  0  0  0
    1.0873    1.9231    0.1709 H   0  0  0  0  0  0  0  0  0  0  0  0
    0.7049    2.9879   -1.6570 C   0  0  0  0  0  0  0  0  0  0  0  0
   -0.0420    3.0362   -2.4559 H   0  0  0  0  0  0  0  0  0  0  0  0
    0.8001    3.9823   -1.2092 H   0  0  0  0  0  0  0  0  0  0  0  0
    1.6699    2.7211   -2.1000 H   0  0  0  0  0  0  0  0  0  0  0  0
   -1.0195    2.4329    0.0300 C   0  0  0  0  0  0  0  0  0  0  0  0
   -1.4271    1.6961    0.7221 H   0  0  0  0  0  0  0  0  0  0  0  0
   -0.8623    3.3664    0.5795 H   0  0  0  0  0  0  0  0  0  0  0  0
   -1.7688    2.6115   -0.7477 H   0  0  0  0  0  0  0  0  0  0  0  0
    0.5683   -0.4934    1.1321 C   0  0  0  0  0  0  0  0  0  0  0  0
    1.7692   -0.4999    1.3712 O   0  0  0  0  0  0  0  0  0  0  0  0
   -0.2995   -0.0813    2.1273 N   0  0  0  0  0  0  0  0  0  0  0  0
   -1.2896   -0.1547    1.9201 H   0  0  0  0  0  0  0  0  0  0  0  0
    0.1168    0.1391    3.5063 C   0  0  0  0  0  0  0  0  0  0  0  0
    0.8801    0.9228    3.5554 H   0  0  0  0  0  0  0  0  0  0  0  0
   -0.7376    0.4524    4.1136 H   0  0  0  0  0  0  0  0  0  0  0  0
    0.5283   -0.7816    3.9335 H   0  0  0  0  0  0  0  0  0  0  0  0
  1  2  1  0  0  0  0
  2  3  1  0  0  0  0
  2  4  1  0  0  0  0
  2  5  1  0  0  0  0
  5  6  2  0  0  0  0
  5  7  1  0  0  0  0
  7  8  1  0  0  0  0
  7  9  1  0  0  0  0
  9 10  1  0  0  0  0
  9 11  1  0  0  0  0
  9 24  1  0  0  0  0
 11 12  1  0  0  0  0
 11 13  1  0  0  0  0
 11 14  1  0  0  0  0
 14 15  1  0  0  0  0
 14 16  1  0  0  0  0
 14 20  1  0  0  0  0
 16 17  1  0  0  0  0
 16 18  1  0  0  0  0
 16 19  1  0  0  0  0
 20 21  1  0  0  0  0
 20 22  1  0  0  0  0
 20 23  1  0  0  0  0
 24 25  2  0  0  0  0
 24 26  1  0  0  0  0
 26 27  1  0  0  0  0
 26 28  1  0  0  0  0
 28 29  1  0  0  0  0
 28 30  1  0  0  0  0
 28 31  1  0  0  0  0
M  END
$$$$

  -OEChem-04042216013D

 31 30  0     1  0  0  0  0  0999 V2000
   -2.8610   -4.2750    0.0130 H   0  0  0  0  0  0  0  0  0  0  0  0
   -2.8070   -3.2612   -0.3940 C   0  0  0  0  0  0  0  0  0  0  0  0
   -3.6027   -2.6606    0.0528 H   0  0  0  0  0  0  0  0  0  0  0  0
   -2.9578   -3.3091   -1.4751 H   0  0  0  0  0  0  0  0  0  0  0  0
   -1.4548   -2.6465   -0.0843 C   0  0  0  0  0  0  0  0  0  0  0  0
   -0.6260   -3.2884    0.5348 O   0  0  0  0  0  0  0  0  0  0  0  0
   -1.1780   -1.3582   -0.5005 N   0  0  0  0  0  0  0  0  0  0  0  0
   -1.8884   -0.8977   -1.0610 H   0  0  0  0  0  0  0  0  0  0  0  0
    0.1241   -0.6822   -0.3312 C   0  0  1  0  0  0  0  0  0  0  0  0
    0.8750   -1.3649   -0.7462 H   0  0  0  0  0  0  0  0  0  0  0  0
    0.1829    0.5783   -1.2426 C   0  0  0  0  0  0  0  0  0  0  0  0
    0.7897    0.3087   -2.1136 H   0  0  0  0  0  0  0  0  0  0  0  0
   -0.8277    0.7735   -1.6157 H   0  0  0  0  0  0  0  0  0  0  0  0
    0.7240    1.9242   -0.6949 C   0  0  0  0  0  0  0  0  0  0  0  0
    1.7695    1.7997   -0.3904 H   0  0  0  0  0  0  0  0  0  0  0  0
    0.6525    2.9516   -1.8361 C   0  0  0  0  0  0  0  0  0  0  0  0
   -0.3856    3.1355   -2.1312 H   0  0  0  0  0  0  0  0  0  0  0  0
    1.0997    3.9012   -1.5257 H   0  0  0  0  0  0  0  0  0  0  0  0
    1.2038    2.5915   -2.7103 H   0  0  0  0  0  0  0  0  0  0  0  0
   -0.0773    2.5078    0.4819 C   0  0  0  0  0  0  0  0  0  0  0  0
    0.3572    2.1921    1.4322 H   0  0  0  0  0  0  0  0  0  0  0  0
   -0.0494    3.6020    0.4753 H   0  0  0  0  0  0  0  0  0  0  0  0
   -1.1242    2.1928    0.4382 H   0  0  0  0  0  0  0  0  0  0  0  0
    0.5565   -0.5493    1.1484 C   0  0  0  0  0  0  0  0  0  0  0  0
    1.7458   -0.5864    1.4368 O   0  0  0  0  0  0  0  0  0  0  0  0
   -0.3507   -0.1409    2.1111 N   0  0  0  0  0  0  0  0  0  0  0  0
   -1.3299   -0.1928    1.8527 H   0  0  0  0  0  0  0  0  0  0  0  0
   -0.0026   -0.0061    3.5200 C   0  0  0  0  0  0  0  0  0  0  0  0
    0.8111    0.7155    3.6483 H   0  0  0  0  0  0  0  0  0  0  0  0
   -0.8668    0.3462    4.0910 H   0  0  0  0  0  0  0  0  0  0  0  0
    0.3153   -0.9712    3.9282 H   0  0  0  0  0  0  0  0  0  0  0  0
  1  2  1  0  0  0  0
  2  3  1  0  0  0  0
  2  4  1  0  0  0  0
  2  5  1  0  0  0  0
  5  6  2  0  0  0  0
  5  7  1  0  0  0  0
  7  8  1  0  0  0  0
  7  9  1  0  0  0  0
  9 10  1  0  0  0  0
  9 11  1  0  0  0  0
  9 24  1  0  0  0  0
 11 12  1  0  0  0  0
 11 13  1  0  0  0  0
 11 14  1  0  0  0  0
 14 15  1  0  0  0  0
 14 16  1  0  0  0  0
 14 20  1  0  0  0  0
 16 17  1  0  0  0  0
 16 18  1  0  0  0  0
 16 19  1  0  0  0  0
 20 21  1  0  0  0  0
 20 22  1  0  0  0  0
 20 23  1  0  0  0  0
 24 25  2  0  0  0  0
 24 26  1  0  0  0  0
 26 27  1  0  0  0  0
 26 28  1  0  0  0  0
 28 29  1  0  0  0  0
 28 30  1  0  0  0  0
 28 31  1  0  0  0  0
M  END
$$$$

  -OEChem-04042216013D

 31 30  0     1  0  0  0  0  0999 V2000
   -2.8984   -4.2561   -0.0121 H   0  0  0  0  0  0  0  0  0  0  0  0
   -2.8334   -3.2373   -0.4049 C   0  0  0  0  0  0  0  0  0  0  0  0
   -3.6183   -2.6329    0.0558 H   0  0  0  0  0  0  0  0  0  0  0  0
   -2.9912   -3.2671   -1.4857 H   0  0  0  0  0  0  0  0  0  0  0  0
   -1.4710   -2.6455   -0.0956 C   0  0  0  0  0  0  0  0  0  0  0  0
   -0.6413   -3.3133    0.4942 O   0  0  0  0  0  0  0  0  0  0  0  0
   -1.1850   -1.3501   -0.4819 N   0  0  0  0  0  0  0  0  0  0  0  0
   -1.9001   -0.8643   -1.0143 H   0  0  0  0  0  0  0  0  0  0  0  0
    0.1245   -0.6898   -0.3040 C   0  0  1  0  0  0  0  0  0  0  0  0
    0.8647   -1.3776   -0.7297 H   0  0  0  0  0  0  0  0  0  0  0  0
    0.2000    0.5738   -1.2159 C   0  0  0  0  0  0  0  0  0  0  0  0
    0.7910    0.2971   -2.0955 H   0  0  0  0  0  0  0  0  0  0  0  0
   -0.8167    0.7634   -1.5755 H   0  0  0  0  0  0  0  0  0  0  0  0
    0.7442    1.9424   -0.7149 C   0  0  0  0  0  0  0  0  0  0  0  0
    1.8375    1.8929   -0.6618 H   0  0  0  0  0  0  0  0  0  0  0  0
    0.3250    3.0091   -1.7413 C   0  0  0  0  0  0  0  0  0  0  0  0
   -0.7629    3.1324   -1.7579 H   0  0  0  0  0  0  0  0  0  0  0  0
    0.7796    3.9751   -1.4992 H   0  0  0  0  0  0  0  0  0  0  0  0
    0.6580    2.7238   -2.7442 H   0  0  0  0  0  0  0  0  0  0  0  0
    0.2103    2.4342    0.6398 C   0  0  0  0  0  0  0  0  0  0  0  0
    0.8024    2.0209    1.4591 H   0  0  0  0  0  0  0  0  0  0  0  0
    0.2885    3.5231    0.7202 H   0  0  0  0  0  0  0  0  0  0  0  0
   -0.8406    2.1577    0.7675 H   0  0  0  0  0  0  0  0  0  0  0  0
    0.5643   -0.5982    1.1762 C   0  0  0  0  0  0  0  0  0  0  0  0
    1.7534   -0.6662    1.4601 O   0  0  0  0  0  0  0  0  0  0  0  0
   -0.3350   -0.2054    2.1534 N   0  0  0  0  0  0  0  0  0  0  0  0
   -1.3154   -0.2305    1.8956 H   0  0  0  0  0  0  0  0  0  0  0  0
    0.0183   -0.1205    3.5647 C   0  0  0  0  0  0  0  0  0  0  0  0
    0.8421    0.5855    3.7131 H   0  0  0  0  0  0  0  0  0  0  0  0
   -0.8396    0.2251    4.1489 H   0  0  0  0  0  0  0  0  0  0  0  0
    0.3236   -1.1025    3.9412 H   0  0  0  0  0  0  0  0  0  0  0  0
  1  2  1  0  0  0  0
  2  3  1  0  0  0  0
  2  4  1  0  0  0  0
  2  5  1  0  0  0  0
  5  6  2  0  0  0  0
  5  7  1  0  0  0  0
  7  8  1  0  0  0  0
  7  9  1  0  0  0  0
  9 10  1  0  0  0  0
  9 11  1  0  0  0  0
  9 24  1  0  0  0  0
 11 12  1  0  0  0  0
 11 13  1  0  0  0  0
 11 14  1  0  0  0  0
 14 15  1  0  0  0  0
 14 16  1  0  0  0  0
 14 20  1  0  0  0  0
 16 17  1  0  0  0  0
 16 18  1  0  0  0  0
 16 19  1  0  0  0  0
 20 21  1  0  0  0  0
 20 22  1  0  0  0  0
 20 23  1  0  0  0  0
 24 25  2  0  0  0  0
 24 26  1  0  0  0  0
 26 27  1  0  0  0  0
 26 28  1  0  0  0  0
 28 29  1  0  0  0  0
 28 30  1  0  0  0  0
 28 31  1  0  0  0  0
M  END
$$$$

  -OEChem-04042216013D

 31 30  0     1  0  0  0  0  0999 V2000
   -2.9474   -4.2306   -0.0235 H   0  0  0  0  0  0  0  0  0  0  0  0
   -2.8614   -3.2112   -0.4105 C   0  0  0  0  0  0  0  0  0  0  0  0
   -3.6310   -2.5923    0.0568 H   0  0  0  0  0  0  0  0  0  0  0  0
   -3.0235   -3.2310   -1.4909 H   0  0  0  0  0  0  0  0  0  0  0  0
   -1.4857   -2.6506   -0.1033 C   0  0  0  0  0  0  0  0  0  0  0  0
   -0.6651   -3.3428    0.4709 O   0  0  0  0  0  0  0  0  0  0  0  0
   -1.1782   -1.3560   -0.4756 N   0  0  0  0  0  0  0  0  0  0  0  0
   -1.8894   -0.8492   -0.9934 H   0  0  0  0  0  0  0  0  0  0  0  0
    0.1398   -0.7153   -0.2850 C   0  0  1  0  0  0  0  0  0  0  0  0
    0.8753   -1.4067   -0.7126 H   0  0  0  0  0  0  0  0  0  0  0  0
    0.2227    0.5533   -1.1967 C   0  0  0  0  0  0  0  0  0  0  0  0
    0.8023    0.2688   -2.0812 H   0  0  0  0  0  0  0  0  0  0  0  0
   -0.7972    0.7317   -1.5519 H   0  0  0  0  0  0  0  0  0  0  0  0
    0.7670    1.9455   -0.7402 C   0  0  0  0  0  0  0  0  0  0  0  0
    1.8399    1.9808   -0.9585 H   0  0  0  0  0  0  0  0  0  0  0  0
    0.0390    3.0290   -1.5561 C   0  0  0  0  0  0  0  0  0  0  0  0
   -1.0225    3.0739   -1.2913 H   0  0  0  0  0  0  0  0  0  0  0  0
    0.4835    4.0125   -1.3724 H   0  0  0  0  0  0  0  0  0  0  0  0
    0.1219    2.8181   -2.6271 H   0  0  0  0  0  0  0  0  0  0  0  0
    0.5750    2.3557    0.7271 C   0  0  0  0  0  0  0  0  0  0  0  0
    1.2808    1.8330    1.3758 H   0  0  0  0  0  0  0  0  0  0  0  0
    0.7706    3.4250    0.8560 H   0  0  0  0  0  0  0  0  0  0  0  0
   -0.4496    2.1574    1.0543 H   0  0  0  0  0  0  0  0  0  0  0  0
    0.5661   -0.6468    1.1997 C   0  0  0  0  0  0  0  0  0  0  0  0
    1.7458   -0.7797    1.5006 O   0  0  0  0  0  0  0  0  0  0  0  0
   -0.3352   -0.2511    2.1736 N   0  0  0  0  0  0  0  0  0  0  0  0
   -1.3120   -0.2344    1.9021 H   0  0  0  0  0  0  0  0  0  0  0  0
    0.0023   -0.1973    3.5902 C   0  0  0  0  0  0  0  0  0  0  0  0
    0.8307    0.4983    3.7610 H   0  0  0  0  0  0  0  0  0  0  0  0
   -0.8593    0.1442    4.1715 H   0  0  0  0  0  0  0  0  0  0  0  0
    0.2944   -1.1891    3.9512 H   0  0  0  0  0  0  0  0  0  0  0  0
  1  2  1  0  0  0  0
  2  3  1  0  0  0  0
  2  4  1  0  0  0  0
  2  5  1  0  0  0  0
  5  6  2  0  0  0  0
  5  7  1  0  0  0  0
  7  8  1  0  0  0  0
  7  9  1  0  0  0  0
  9 10  1  0  0  0  0
  9 11  1  0  0  0  0
  9 24  1  0  0  0  0
 11 12  1  0  0  0  0
 11 13  1  0  0  0  0
 11 14  1  0  0  0  0
 14 15  1  0  0  0  0
 14 16  1  0  0  0  0
 14 20  1  0  0  0  0
 16 17  1  0  0  0  0
 16 18  1  0  0  0  0
 16 19  1  0  0  0  0
 20 21  1  0  0  0  0
 20 22  1  0  0  0  0
 20 23  1  0  0  0  0
 24 25  2  0  0  0  0
 24 26  1  0  0  0  0
 26 27  1  0  0  0  0
 26 28  1  0  0  0  0
 28 29  1  0  0  0  0
 28 30  1  0  0  0  0
 28 31  1  0  0  0  0
M  END
$$$$

  -OEChem-04042216013D

 31 30  0     1  0  0  0  0  0999 V2000
   -2.9670   -4.2184    0.0292 H   0  0  0  0  0  0  0  0  0  0  0  0
   -2.8701   -3.2036   -0.3673 C   0  0  0  0  0  0  0  0  0  0  0  0
   -3.6260   -2.5700    0.1024 H   0  0  0  0  0  0  0  0  0  0  0  0
   -3.0431   -3.2300   -1.4457 H   0  0  0  0  0  0  0  0  0  0  0  0
   -1.4829   -2.6615   -0.0778 C   0  0  0  0  0  0  0  0  0  0  0  0
   -0.6694   -3.3619    0.4958 O   0  0  0  0  0  0  0  0  0  0  0  0
   -1.1560   -1.3772   -0.4705 N   0  0  0  0  0  0  0  0  0  0  0  0
   -1.8630   -0.8658   -0.9895 H   0  0  0  0  0  0  0  0  0  0  0  0
    0.1697   -0.7483   -0.2842 C   0  0  1  0  0  0  0  0  0  0  0  0
    0.9105   -1.4373   -0.7069 H   0  0  0  0  0  0  0  0  0  0  0  0
    0.2257    0.5261   -1.1953 C   0  0  0  0  0  0  0  0  0  0  0  0
    0.8016    0.2363   -2.0807 H   0  0  0  0  0  0  0  0  0  0  0  0
   -0.7959    0.6860   -1.5539 H   0  0  0  0  0  0  0  0  0  0  0  0
    0.7645    1.9387   -0.7779 C   0  0  0  0  0  0  0  0  0  0  0  0
    1.7185    2.0790   -1.2980 H   0  0  0  0  0  0  0  0  0  0  0  0
   -0.2181    3.0132   -1.2751 C   0  0  0  0  0  0  0  0  0  0  0  0
   -1.1784    2.9306   -0.7557 H   0  0  0  0  0  0  0  0  0  0  0  0
    0.1849    4.0160   -1.1004 H   0  0  0  0  0  0  0  0  0  0  0  0
   -0.3913    2.9040   -2.3505 H   0  0  0  0  0  0  0  0  0  0  0  0
    1.0319    2.2533    0.6988 C   0  0  0  0  0  0  0  0  0  0  0  0
    1.8337    1.6262    1.0941 H   0  0  0  0  0  0  0  0  0  0  0  0
    1.3613    3.2915    0.8080 H   0  0  0  0  0  0  0  0  0  0  0  0
    0.1264    2.1281    1.2973 H   0  0  0  0  0  0  0  0  0  0  0  0
    0.5634   -0.6716    1.2094 C   0  0  0  0  0  0  0  0  0  0  0  0
    1.7200   -0.8851    1.5506 O   0  0  0  0  0  0  0  0  0  0  0  0
   -0.3547   -0.2535    2.1575 N   0  0  0  0  0  0  0  0  0  0  0  0
   -1.3197   -0.1871    1.8534 H   0  0  0  0  0  0  0  0  0  0  0  0
   -0.0596   -0.2190    3.5838 C   0  0  0  0  0  0  0  0  0  0  0  0
    0.7955    0.4358    3.7815 H   0  0  0  0  0  0  0  0  0  0  0  0
   -0.9212    0.1625    4.1395 H   0  0  0  0  0  0  0  0  0  0  0  0
    0.1739   -1.2242    3.9500 H   0  0  0  0  0  0  0  0  0  0  0  0
  1  2  1  0  0  0  0
  2  3  1  0  0  0  0
  2  4  1  0  0  0  0
  2  5  1  0  0  0  0
  5  6  2  0  0  0  0
  5  7  1  0  0  0  0
  7  8  1  0  0  0  0
  7  9  1  0  0  0  0
  9 10  1  0  0  0  0
  9 11  1  0  0  0  0
  9 24  1  0  0  0  0
 11 12  1  0  0  0  0
 11 13  1  0  0  0  0
 11 14  1  0  0  0  0
 14 15  1  0  0  0  0
 14 16  1  0  0  0  0
 14 20  1  0  0  0  0
 16 17  1  0  0  0  0
 16 18  1  0  0  0  0
 16 19  1  0  0  0  0
 20 21  1  0  0  0  0
 20 22  1  0  0  0  0
 20 23  1  0  0  0  0
 24 25  2  0  0  0  0
 24 26  1  0  0  0  0
 26 27  1  0  0  0  0
 26 28  1  0  0  0  0
 28 29  1  0  0  0  0
 28 30  1  0  0  0  0
 28 31  1  0  0  0  0
M  END
$$$$

  -OEChem-04042216013D

 31 30  0     1  0  0  0  0  0999 V2000
   -3.0048   -4.1899    0.1052 H   0  0  0  0  0  0  0  0  0  0  0  0
   -2.8849   -3.1887   -0.3188 C   0  0  0  0  0  0  0  0  0  0  0  0
   -3.6305   -2.5269    0.1279 H   0  0  0  0  0  0  0  0  0  0  0  0
   -3.0520   -3.2420   -1.3973 H   0  0  0  0  0  0  0  0  0  0  0  0
   -1.4890   -2.6664   -0.0351 C   0  0  0  0  0  0  0  0  0  0  0  0
   -0.6972   -3.3625    0.5729 O   0  0  0  0  0  0  0  0  0  0  0  0
   -1.1289   -1.4086   -0.4812 N   0  0  0  0  0  0  0  0  0  0  0  0
   -1.8189   -0.9070   -1.0314 H   0  0  0  0  0  0  0  0  0  0  0  0
    0.2044   -0.7935   -0.2985 C   0  0  1  0  0  0  0  0  0  0  0  0
    0.9579   -1.4816   -0.6990 H   0  0  0  0  0  0  0  0  0  0  0  0
    0.2299    0.4854   -1.2033 C   0  0  0  0  0  0  0  0  0  0  0  0
    0.8180    0.1970   -2.0812 H   0  0  0  0  0  0  0  0  0  0  0  0
   -0.7860    0.6443   -1.5789 H   0  0  0  0  0  0  0  0  0  0  0  0
    0.7718    1.8924   -0.7768 C   0  0  0  0  0  0  0  0  0  0  0  0
    1.5012    2.1607   -1.5495 H   0  0  0  0  0  0  0  0  0  0  0  0
   -0.3457    2.9414   -0.8688 C   0  0  0  0  0  0  0  0  0  0  0  0
   -1.1353    2.7229   -0.1428 H   0  0  0  0  0  0  0  0  0  0  0  0
    0.0488    3.9413   -0.6614 H   0  0  0  0  0  0  0  0  0  0  0  0
   -0.7837    2.9526   -1.8720 H   0  0  0  0  0  0  0  0  0  0  0  0
    1.5283    2.0715    0.5430 C   0  0  0  0  0  0  0  0  0  0  0  0
    2.3434    1.3471    0.6217 H   0  0  0  0  0  0  0  0  0  0  0  0
    1.9748    3.0700    0.5810 H   0  0  0  0  0  0  0  0  0  0  0  0
    0.8624    1.9790    1.4035 H   0  0  0  0  0  0  0  0  0  0  0  0
    0.5403   -0.6648    1.2064 C   0  0  0  0  0  0  0  0  0  0  0  0
    1.6658   -0.9221    1.6144 O   0  0  0  0  0  0  0  0  0  0  0  0
   -0.4100   -0.1913    2.0955 N   0  0  0  0  0  0  0  0  0  0  0  0
   -1.3547   -0.0972    1.7398 H   0  0  0  0  0  0  0  0  0  0  0  0
   -0.1890   -0.1362    3.5347 C   0  0  0  0  0  0  0  0  0  0  0  0
    0.6708    0.5012    3.7662 H   0  0  0  0  0  0  0  0  0  0  0  0
   -1.0689    0.2765    4.0367 H   0  0  0  0  0  0  0  0  0  0  0  0
   -0.0006   -1.1396    3.9307 H   0  0  0  0  0  0  0  0  0  0  0  0
  1  2  1  0  0  0  0
  2  3  1  0  0  0  0
  2  4  1  0  0  0  0
  2  5  1  0  0  0  0
  5  6  2  0  0  0  0
  5  7  1  0  0  0  0
  7  8  1  0  0  0  0
  7  9  1  0  0  0  0
  9 10  1  0  0  0  0
  9 11  1  0  0  0  0
  9 24  1  0  0  0  0
 11 12  1  0  0  0  0
 11 13  1  0  0  0  0
 11 14  1  0  0  0  0
 14 15  1  0  0  0  0
 14 16  1  0  0  0  0
 14 20  1  0  0  0  0
 16 17  1  0  0  0  0
 16 18  1  0  0  0  0
 16 19  1  0  0  0  0
 20 21  1  0  0  0  0
 20 22  1  0  0  0  0
 20 23  1  0  0  0  0
 24 25  2  0  0  0  0
 24 26  1  0  0  0  0
 26 27  1  0  0  0  0
 26 28  1  0  0  0  0
 28 29  1  0  0  0  0
 28 30  1  0  0  0  0
 28 31  1  0  0  0  0
M  END
$$$$

  -OEChem-04042216013D

 31 30  0     1  0  0  0  0  0999 V2000
   -2.9877   -4.1980    0.1117 H   0  0  0  0  0  0  0  0  0  0  0  0
   -2.8691   -3.2020   -0.3248 C   0  0  0  0  0  0  0  0  0  0  0  0
   -3.6204   -2.5373    0.1081 H   0  0  0  0  0  0  0  0  0  0  0  0
   -3.0288   -3.2704   -1.4035 H   0  0  0  0  0  0  0  0  0  0  0  0
   -1.4771   -2.6703   -0.0387 C   0  0  0  0  0  0  0  0  0  0  0  0
   -0.6898   -3.3513    0.5916 O   0  0  0  0  0  0  0  0  0  0  0  0
   -1.1159   -1.4212   -0.5076 N   0  0  0  0  0  0  0  0  0  0  0  0
   -1.7971   -0.9393   -1.0856 H   0  0  0  0  0  0  0  0  0  0  0  0
    0.2172   -0.8038   -0.3333 C   0  0  1  0  0  0  0  0  0  0  0  0
    0.9774   -1.4809   -0.7396 H   0  0  0  0  0  0  0  0  0  0  0  0
    0.2071    0.4881   -1.2153 C   0  0  0  0  0  0  0  0  0  0  0  0
    0.7970    0.2270   -2.1005 H   0  0  0  0  0  0  0  0  0  0  0  0
   -0.8099    0.6564   -1.5834 H   0  0  0  0  0  0  0  0  0  0  0  0
    0.7494    1.8717   -0.7379 C   0  0  0  0  0  0  0  0  0  0  0  0
    1.2231    2.2992   -1.6288 H   0  0  0  0  0  0  0  0  0  0  0  0
   -0.4033    2.8256   -0.4021 C   0  0  0  0  0  0  0  0  0  0  0  0
   -0.9736    2.4472    0.4518 H   0  0  0  0  0  0  0  0  0  0  0  0
   -0.0154    3.8171   -0.1480 H   0  0  0  0  0  0  0  0  0  0  0  0
   -1.0796    2.9342   -1.2557 H   0  0  0  0  0  0  0  0  0  0  0  0
    1.8437    1.9238    0.3341 C   0  0  0  0  0  0  0  0  0  0  0  0
    2.5939    1.1471    0.1568 H   0  0  0  0  0  0  0  0  0  0  0  0
    2.3499    2.8934    0.2980 H   0  0  0  0  0  0  0  0  0  0  0  0
    1.4295    1.8108    1.3390 H   0  0  0  0  0  0  0  0  0  0  0  0
    0.5534   -0.6458    1.1687 C   0  0  0  0  0  0  0  0  0  0  0  0
    1.6735   -0.9128    1.5856 O   0  0  0  0  0  0  0  0  0  0  0  0
   -0.3964   -0.1529    2.0470 N   0  0  0  0  0  0  0  0  0  0  0  0
   -1.3392   -0.0601    1.6863 H   0  0  0  0  0  0  0  0  0  0  0  0
   -0.1800   -0.0754    3.4857 C   0  0  0  0  0  0  0  0  0  0  0  0
    0.6795    0.5649    3.7105 H   0  0  0  0  0  0  0  0  0  0  0  0
   -1.0613    0.3455    3.9788 H   0  0  0  0  0  0  0  0  0  0  0  0
    0.0064   -1.0729    3.8977 H   0  0  0  0  0  0  0  0  0  0  0  0
  1  2  1  0  0  0  0
  2  3  1  0  0  0  0
  2  4  1  0  0  0  0
  2  5  1  0  0  0  0
  5  6  2  0  0  0  0
  5  7  1  0  0  0  0
  7  8  1  0  0  0  0
  7  9  1  0  0  0  0
  9 10  1  0  0  0  0
  9 11  1  0  0  0  0
  9 24  1  0  0  0  0
 11 12  1  0  0  0  0
 11 13  1  0  0  0  0
 11 14  1  0  0  0  0
 14 15  1  0  0  0  0
 14 16  1  0  0  0  0
 14 20  1  0  0  0  0
 16 17  1  0  0  0  0
 16 18  1  0  0  0  0
 16 19  1  0  0  0  0
 20 21  1  0  0  0  0
 20 22  1  0  0  0  0
 20 23  1  0  0  0  0
 24 25  2  0  0  0  0
 24 26  1  0  0  0  0
 26 27  1  0  0  0  0
 26 28  1  0  0  0  0
 28 29  1  0  0  0  0
 28 30  1  0  0  0  0
 28 31  1  0  0  0  0
M  END
$$$$

  -OEChem-04042216013D

 31 30  0     1  0  0  0  0  0999 V2000
   -2.9644   -4.2208    0.1083 H   0  0  0  0  0  0  0  0  0  0  0  0
   -2.8585   -3.2237   -0.3289 C   0  0  0  0  0  0  0  0  0  0  0  0
   -3.6241   -2.5709    0.0969 H   0  0  0  0  0  0  0  0  0  0  0  0
   -3.0084   -3.2968   -1.4086 H   0  0  0  0  0  0  0  0  0  0  0  0
   -1.4777   -2.6693   -0.0327 C   0  0  0  0  0  0  0  0  0  0  0  0
   -0.6877   -3.3352    0.6103 O   0  0  0  0  0  0  0  0  0  0  0  0
   -1.1276   -1.4192   -0.5072 N   0  0  0  0  0  0  0  0  0  0  0  0
   -1.8088   -0.9485   -1.0944 H   0  0  0  0  0  0  0  0  0  0  0  0
    0.2009   -0.7936   -0.3349 C   0  0  1  0  0  0  0  0  0  0  0  0
    0.9581   -1.4787   -0.7336 H   0  0  0  0  0  0  0  0  0  0  0  0
    0.2096    0.4815   -1.2378 C   0  0  0  0  0  0  0  0  0  0  0  0
    0.8083    0.2122   -2.1144 H   0  0  0  0  0  0  0  0  0  0  0  0
   -0.8032    0.6608   -1.6127 H   0  0  0  0  0  0  0  0  0  0  0  0
    0.7552    1.8529   -0.7491 C   0  0  0  0  0  0  0  0  0  0  0  0
    1.0235    2.3867   -1.6677 H   0  0  0  0  0  0  0  0  0  0  0  0
   -0.3397    2.6991   -0.0887 C   0  0  0  0  0  0  0  0  0  0  0  0
   -0.6865    2.2359    0.8381 H   0  0  0  0  0  0  0  0  0  0  0  0
    0.0467    3.6952    0.1489 H   0  0  0  0  0  0  0  0  0  0  0  0
   -1.1950    2.8168   -0.7611 H   0  0  0  0  0  0  0  0  0  0  0  0
    2.0378    1.8334    0.0909 C   0  0  0  0  0  0  0  0  0  0  0  0
    2.7054    1.0329   -0.2427 H   0  0  0  0  0  0  0  0  0  0  0  0
    2.5665    2.7853   -0.0169 H   0  0  0  0  0  0  0  0  0  0  0  0
    1.8199    1.7007    1.1537 H   0  0  0  0  0  0  0  0  0  0  0  0
    0.5572   -0.6187    1.1615 C   0  0  0  0  0  0  0  0  0  0  0  0
    1.6853   -0.8783    1.5618 O   0  0  0  0  0  0  0  0  0  0  0  0
   -0.3779   -0.1240    2.0536 N   0  0  0  0  0  0  0  0  0  0  0  0
   -1.3282   -0.0385    1.7108 H   0  0  0  0  0  0  0  0  0  0  0  0
   -0.1322   -0.0277    3.4865 C   0  0  0  0  0  0  0  0  0  0  0  0
    0.7308    0.6166    3.6840 H   0  0  0  0  0  0  0  0  0  0  0  0
   -1.0032    0.3990    3.9927 H   0  0  0  0  0  0  0  0  0  0  0  0
    0.0639   -1.0196    3.9074 H   0  0  0  0  0  0  0  0  0  0  0  0
  1  2  1  0  0  0  0
  2  3  1  0  0  0  0
  2  4  1  0  0  0  0
  2  5  1  0  0  0  0
  5  6  2  0  0  0  0
  5  7  1  0  0  0  0
  7  8  1  0  0  0  0
  7  9  1  0  0  0  0
  9 10  1  0  0  0  0
  9 11  1  0  0  0  0
  9 24  1  0  0  0  0
 11 12  1  0  0  0  0
 11 13  1  0  0  0  0
 11 14  1  0  0  0  0
 14 15  1  0  0  0  0
 14 16  1  0  0  0  0
 14 20  1  0  0  0  0
 16 17  1  0  0  0  0
 16 18  1  0  0  0  0
 16 19  1  0  0  0  0
 20 21  1  0  0  0  0
 20 22  1  0  0  0  0
 20 23  1  0  0  0  0
 24 25  2  0  0  0  0
 24 26  1  0  0  0  0
 26 27  1  0  0  0  0
 26 28  1  0  0  0  0
 28 29  1  0  0  0  0
 28 30  1  0  0  0  0
 28 31  1  0  0  0  0
M  END
$$$$

  -OEChem-04042216013D

 31 30  0     1  0  0  0  0  0999 V2000
   -2.9550   -4.2328    0.0898 H   0  0  0  0  0  0  0  0  0  0  0  0
   -2.8574   -3.2296   -0.3351 C   0  0  0  0  0  0  0  0  0  0  0  0
   -3.6196   -2.5849    0.1087 H   0  0  0  0  0  0  0  0  0  0  0  0
   -3.0206   -3.2885   -1.4139 H   0  0  0  0  0  0  0  0  0  0  0  0
   -1.4747   -2.6742   -0.0480 C   0  0  0  0  0  0  0  0  0  0  0  0
   -0.6733   -3.3452    0.5754 O   0  0  0  0  0  0  0  0  0  0  0  0
   -1.1366   -1.4145   -0.5054 N   0  0  0  0  0  0  0  0  0  0  0  0
   -1.8310   -0.9325   -1.0674 H   0  0  0  0  0  0  0  0  0  0  0  0
    0.1857   -0.7785   -0.3269 C   0  0  1  0  0  0  0  0  0  0  0  0
    0.9395   -1.4718   -0.7174 H   0  0  0  0  0  0  0  0  0  0  0  0
    0.2286    0.4785   -1.2519 C   0  0  0  0  0  0  0  0  0  0  0  0
    0.8291    0.1920   -2.1219 H   0  0  0  0  0  0  0  0  0  0  0  0
   -0.7809    0.6661   -1.6315 H   0  0  0  0  0  0  0  0  0  0  0  0
    0.7711    1.8521   -0.7765 C   0  0  0  0  0  0  0  0  0  0  0  0
    0.8372    2.4547   -1.6891 H   0  0  0  0  0  0  0  0  0  0  0  0
   -0.1864    2.6049    0.1559 C   0  0  0  0  0  0  0  0  0  0  0  0
   -0.1587    2.2043    1.1695 H   0  0  0  0  0  0  0  0  0  0  0  0
    0.1026    3.6592    0.2089 H   0  0  0  0  0  0  0  0  0  0  0  0
   -1.2134    2.5502   -0.2175 H   0  0  0  0  0  0  0  0  0  0  0  0
    2.1894    1.8086   -0.1941 C   0  0  0  0  0  0  0  0  0  0  0  0
    2.8071    1.0850   -0.7350 H   0  0  0  0  0  0  0  0  0  0  0  0
    2.6569    2.7939   -0.2839 H   0  0  0  0  0  0  0  0  0  0  0  0
    2.1821    1.5445    0.8656 H   0  0  0  0  0  0  0  0  0  0  0  0
    0.5536   -0.6158    1.1683 C   0  0  0  0  0  0  0  0  0  0  0  0
    1.6931   -0.8484    1.5516 O   0  0  0  0  0  0  0  0  0  0  0  0
   -0.3766   -0.1424    2.0768 N   0  0  0  0  0  0  0  0  0  0  0  0
   -1.3329   -0.0683    1.7479 H   0  0  0  0  0  0  0  0  0  0  0  0
   -0.1109   -0.0426    3.5061 C   0  0  0  0  0  0  0  0  0  0  0  0
    0.7160    0.6502    3.6940 H   0  0  0  0  0  0  0  0  0  0  0  0
   -0.9969    0.3268    4.0308 H   0  0  0  0  0  0  0  0  0  0  0  0
    0.1515   -1.0238    3.9158 H   0  0  0  0  0  0  0  0  0  0  0  0
  1  2  1  0  0  0  0
  2  3  1  0  0  0  0
  2  4  1  0  0  0  0
  2  5  1  0  0  0  0
  5  6  2  0  0  0  0
  5  7  1  0  0  0  0
  7  8  1  0  0  0  0
  7  9  1  0  0  0  0
  9 10  1  0  0  0  0
  9 11  1  0  0  0  0
  9 24  1  0  0  0  0
 11 12  1  0  0  0  0
 11 13  1  0  0  0  0
 11 14  1  0  0  0  0
 14 15  1  0  0  0  0
 14 16  1  0  0  0  0
 14 20  1  0  0  0  0
 16 17  1  0  0  0  0
 16 18  1  0  0  0  0
 16 19  1  0  0  0  0
 20 21  1  0  0  0  0
 20 22  1  0  0  0  0
 20 23  1  0  0  0  0
 24 25  2  0  0  0  0
 24 26  1  0  0  0  0
 26 27  1  0  0  0  0
 26 28  1  0  0  0  0
 28 29  1  0  0  0  0
 28 30  1  0  0  0  0
 28 31  1  0  0  0  0
M  END
$$$$

  -OEChem-04042216013D

 31 30  0     1  0  0  0  0  0999 V2000
   -2.9521   -4.2232    0.1167 H   0  0  0  0  0  0  0  0  0  0  0  0
   -2.8536   -3.2252   -0.3201 C   0  0  0  0  0  0  0  0  0  0  0  0
   -3.6159   -2.5749    0.1154 H   0  0  0  0  0  0  0  0  0  0  0  0
   -3.0160   -3.2967   -1.3983 H   0  0  0  0  0  0  0  0  0  0  0  0
   -1.4710   -2.6673   -0.0386 C   0  0  0  0  0  0  0  0  0  0  0  0
   -0.6687   -3.3332    0.5893 O   0  0  0  0  0  0  0  0  0  0  0  0
   -1.1353   -1.4090   -0.5018 N   0  0  0  0  0  0  0  0  0  0  0  0
   -1.8292   -0.9329   -1.0695 H   0  0  0  0  0  0  0  0  0  0  0  0
    0.1874   -0.7715   -0.3302 C   0  0  1  0  0  0  0  0  0  0  0  0
    0.9404   -1.4692   -0.7147 H   0  0  0  0  0  0  0  0  0  0  0  0
    0.2414    0.4783   -1.2649 C   0  0  0  0  0  0  0  0  0  0  0  0
    0.8150    0.1834   -2.1499 H   0  0  0  0  0  0  0  0  0  0  0  0
   -0.7756    0.6787   -1.6168 H   0  0  0  0  0  0  0  0  0  0  0  0
    0.7908    1.8522   -0.8002 C   0  0  0  0  0  0  0  0  0  0  0  0
    0.6366    2.5251   -1.6511 H   0  0  0  0  0  0  0  0  0  0  0  0
    0.0512    2.4852    0.3845 C   0  0  0  0  0  0  0  0  0  0  0  0
    0.4730    2.1588    1.3379 H   0  0  0  0  0  0  0  0  0  0  0  0
    0.1492    3.5743    0.3413 H   0  0  0  0  0  0  0  0  0  0  0  0
   -1.0136    2.2352    0.3566 H   0  0  0  0  0  0  0  0  0  0  0  0
    2.3022    1.8182   -0.5374 C   0  0  0  0  0  0  0  0  0  0  0  0
    2.8277    1.3615   -1.3815 H   0  0  0  0  0  0  0  0  0  0  0  0
    2.6821    2.8363   -0.4079 H   0  0  0  0  0  0  0  0  0  0  0  0
    2.5428    1.2528    0.3647 H   0  0  0  0  0  0  0  0  0  0  0  0
    0.5503   -0.6082    1.1670 C   0  0  0  0  0  0  0  0  0  0  0  0
    1.6935   -0.8133    1.5534 O   0  0  0  0  0  0  0  0  0  0  0  0
   -0.3875   -0.1355    2.0694 N   0  0  0  0  0  0  0  0  0  0  0  0
   -1.3436   -0.0812    1.7369 H   0  0  0  0  0  0  0  0  0  0  0  0
   -0.1338   -0.0452    3.5016 C   0  0  0  0  0  0  0  0  0  0  0  0
    0.7193    0.6124    3.6989 H   0  0  0  0  0  0  0  0  0  0  0  0
   -1.0091    0.3624    4.0163 H   0  0  0  0  0  0  0  0  0  0  0  0
    0.0823   -1.0363    3.9143 H   0  0  0  0  0  0  0  0  0  0  0  0
  1  2  1  0  0  0  0
  2  3  1  0  0  0  0
  2  4  1  0  0  0  0
  2  5  1  0  0  0  0
  5  6  2  0  0  0  0
  5  7  1  0  0  0  0
  7  8  1  0  0  0  0
  7  9  1  0  0  0  0
  9 10  1  0  0  0  0
  9 11  1  0  0  0  0
  9 24  1  0  0  0  0
 11 12  1  0  0  0  0
 11 13  1  0  0  0  0
 11 14  1  0  0  0  0
 14 15  1  0  0  0  0
 14 16  1  0  0  0  0
 14 20  1  0  0  0  0
 16 17  1  0  0  0  0
 16 18  1  0  0  0  0
 16 19  1  0  0  0  0
 20 21  1  0  0  0  0
 20 22  1  0  0  0  0
 20 23  1  0  0  0  0
 24 25  2  0  0  0  0
 24 26  1  0  0  0  0
 26 27  1  0  0  0  0
 26 28  1  0  0  0  0
 28 29  1  0  0  0  0
 28 30  1  0  0  0  0
 28 31  1  0  0  0  0
M  END
$$$$

  -OEChem-04042216013D

 31 30  0     1  0  0  0  0  0999 V2000
   -2.9369   -4.2516    0.0603 H   0  0  0  0  0  0  0  0  0  0  0  0
   -2.8508   -3.2448   -0.3584 C   0  0  0  0  0  0  0  0  0  0  0  0
   -3.6295   -2.6151    0.0784 H   0  0  0  0  0  0  0  0  0  0  0  0
   -2.9986   -3.3007   -1.4395 H   0  0  0  0  0  0  0  0  0  0  0  0
   -1.4815   -2.6681   -0.0509 C   0  0  0  0  0  0  0  0  0  0  0  0
   -0.6774   -3.3267    0.5825 O   0  0  0  0  0  0  0  0  0  0  0  0
   -1.1596   -1.3994   -0.4945 N   0  0  0  0  0  0  0  0  0  0  0  0
   -1.8525   -0.9283   -1.0679 H   0  0  0  0  0  0  0  0  0  0  0  0
    0.1592   -0.7556   -0.3200 C   0  0  1  0  0  0  0  0  0  0  0  0
    0.9062   -1.4600   -0.7046 H   0  0  0  0  0  0  0  0  0  0  0  0
    0.2412    0.4815   -1.2703 C   0  0  0  0  0  0  0  0  0  0  0  0
    0.8003    0.1674   -2.1580 H   0  0  0  0  0  0  0  0  0  0  0  0
   -0.7773    0.6865   -1.6149 H   0  0  0  0  0  0  0  0  0  0  0  0
    0.7890    1.8679   -0.8313 C   0  0  0  0  0  0  0  0  0  0  0  0
    0.4674    2.5823   -1.5969 H   0  0  0  0  0  0  0  0  0  0  0  0
    0.3095    2.4153    0.5179 C   0  0  0  0  0  0  0  0  0  0  0  0
    0.8960    2.0135    1.3478 H   0  0  0  0  0  0  0  0  0  0  0  0
    0.4270    3.5033    0.5354 H   0  0  0  0  0  0  0  0  0  0  0  0
   -0.7488    2.1859    0.6725 H   0  0  0  0  0  0  0  0  0  0  0  0
    2.3235    1.8457   -0.8371 C   0  0  0  0  0  0  0  0  0  0  0  0
    2.6998    1.5626   -1.8249 H   0  0  0  0  0  0  0  0  0  0  0  0
    2.7189    2.8367   -0.5932 H   0  0  0  0  0  0  0  0  0  0  0  0
    2.7087    1.1311   -0.1040 H   0  0  0  0  0  0  0  0  0  0  0  0
    0.5465   -0.6082    1.1719 C   0  0  0  0  0  0  0  0  0  0  0  0
    1.7134   -0.7376    1.5191 O   0  0  0  0  0  0  0  0  0  0  0  0
   -0.3803   -0.1548    2.0958 N   0  0  0  0  0  0  0  0  0  0  0  0
   -1.3481   -0.1483    1.7933 H   0  0  0  0  0  0  0  0  0  0  0  0
   -0.0878   -0.0397    3.5187 C   0  0  0  0  0  0  0  0  0  0  0  0
    0.7475    0.6487    3.6845 H   0  0  0  0  0  0  0  0  0  0  0  0
   -0.9611    0.3435    4.0546 H   0  0  0  0  0  0  0  0  0  0  0  0
    0.1741   -1.0183    3.9347 H   0  0  0  0  0  0  0  0  0  0  0  0
  1  2  1  0  0  0  0
  2  3  1  0  0  0  0
  2  4  1  0  0  0  0
  2  5  1  0  0  0  0
  5  6  2  0  0  0  0
  5  7  1  0  0  0  0
  7  8  1  0  0  0  0
  7  9  1  0  0  0  0
  9 10  1  0  0  0  0
  9 11  1  0  0  0  0
  9 24  1  0  0  0  0
 11 12  1  0  0  0  0
 11 13  1  0  0  0  0
 11 14  1  0  0  0  0
 14 15  1  0  0  0  0
 14 16  1  0  0  0  0
 14 20  1  0  0  0  0
 16 17  1  0  0  0  0
 16 18  1  0  0  0  0
 16 19  1  0  0  0  0
 20 21  1  0  0  0  0
 20 22  1  0  0  0  0
 20 23  1  0  0  0  0
 24 25  2  0  0  0  0
 24 26  1  0  0  0  0
 26 27  1  0  0  0  0
 26 28  1  0  0  0  0
 28 29  1  0  0  0  0
 28 30  1  0  0  0  0
 28 31  1  0  0  0  0
M  END
$$$$

  -OEChem-04042216013D

 31 30  0     1  0  0  0  0  0999 V2000
   -2.9345   -4.2604    0.0205 H   0  0  0  0  0  0  0  0  0  0  0  0
   -2.8518   -3.2484   -0.3865 C   0  0  0  0  0  0  0  0  0  0  0  0
   -3.6315   -2.6258    0.0586 H   0  0  0  0  0  0  0  0  0  0  0  0
   -3.0005   -3.2922   -1.4681 H   0  0  0  0  0  0  0  0  0  0  0  0
   -1.4838   -2.6714   -0.0740 C   0  0  0  0  0  0  0  0  0  0  0  0
   -0.6750   -3.3373    0.5458 O   0  0  0  0  0  0  0  0  0  0  0  0
   -1.1690   -1.3934   -0.4952 N   0  0  0  0  0  0  0  0  0  0  0  0
   -1.8672   -0.9123   -1.0534 H   0  0  0  0  0  0  0  0  0  0  0  0
    0.1469   -0.7469   -0.3093 C   0  0  1  0  0  0  0  0  0  0  0  0
    0.8914   -1.4518   -0.6979 H   0  0  0  0  0  0  0  0  0  0  0  0
    0.2410    0.4876   -1.2642 C   0  0  0  0  0  0  0  0  0  0  0  0
    0.7887    0.1598   -2.1541 H   0  0  0  0  0  0  0  0  0  0  0  0
   -0.7795    0.6883   -1.6052 H   0  0  0  0  0  0  0  0  0  0  0  0
    0.7785    1.8932   -0.8528 C   0  0  0  0  0  0  0  0  0  0  0  0
    0.2781    2.6268   -1.4944 H   0  0  0  0  0  0  0  0  0  0  0  0
    0.6007    2.3614    0.5963 C   0  0  0  0  0  0  0  0  0  0  0  0
    1.3021    1.8696    1.2746 H   0  0  0  0  0  0  0  0  0  0  0  0
    0.7907    3.4373    0.6602 H   0  0  0  0  0  0  0  0  0  0  0  0
   -0.4249    2.1843    0.9313 H   0  0  0  0  0  0  0  0  0  0  0  0
    2.2822    1.9468   -1.1600 C   0  0  0  0  0  0  0  0  0  0  0  0
    2.4670    1.7602   -2.2225 H   0  0  0  0  0  0  0  0  0  0  0  0
    2.6898    2.9327   -0.9144 H   0  0  0  0  0  0  0  0  0  0  0  0
    2.8205    1.1930   -0.5757 H   0  0  0  0  0  0  0  0  0  0  0  0
    0.5467   -0.6182    1.1789 C   0  0  0  0  0  0  0  0  0  0  0  0
    1.7195   -0.7447    1.5081 O   0  0  0  0  0  0  0  0  0  0  0  0
   -0.3718   -0.1818    2.1188 N   0  0  0  0  0  0  0  0  0  0  0  0
   -1.3434   -0.1760    1.8287 H   0  0  0  0  0  0  0  0  0  0  0  0
   -0.0607   -0.0766    3.5385 C   0  0  0  0  0  0  0  0  0  0  0  0
    0.7645    0.6250    3.6993 H   0  0  0  0  0  0  0  0  0  0  0  0
   -0.9330    0.2848    4.0912 H   0  0  0  0  0  0  0  0  0  0  0  0
    0.2251   -1.0547    3.9400 H   0  0  0  0  0  0  0  0  0  0  0  0
  1  2  1  0  0  0  0
  2  3  1  0  0  0  0
  2  4  1  0  0  0  0
  2  5  1  0  0  0  0
  5  6  2  0  0  0  0
  5  7  1  0  0  0  0
  7  8  1  0  0  0  0
  7  9  1  0  0  0  0
  9 10  1  0  0  0  0
  9 11  1  0  0  0  0
  9 24  1  0  0  0  0
 11 12  1  0  0  0  0
 11 13  1  0  0  0  0
 11 14  1  0  0  0  0
 14 15  1  0  0  0  0
 14 16  1  0  0  0  0
 14 20  1  0  0  0  0
 16 17  1  0  0  0  0
 16 18  1  0  0  0  0
 16 19  1  0  0  0  0
 20 21  1  0  0  0  0
 20 22  1  0  0  0  0
 20 23  1  0  0  0  0
 24 25  2  0  0  0  0
 24 26  1  0  0  0  0
 26 27  1  0  0  0  0
 26 28  1  0  0  0  0
 28 29  1  0  0  0  0
 28 30  1  0  0  0  0
 28 31  1  0  0  0  0
M  END
$$$$

  -OEChem-04042216013D

 31 30  0     1  0  0  0  0  0999 V2000
   -2.9407   -4.2433    0.0214 H   0  0  0  0  0  0  0  0  0  0  0  0
   -2.8477   -3.2310   -0.3824 C   0  0  0  0  0  0  0  0  0  0  0  0
   -3.6208   -2.6020    0.0651 H   0  0  0  0  0  0  0  0  0  0  0  0
   -2.9975   -3.2698   -1.4640 H   0  0  0  0  0  0  0  0  0  0  0  0
   -1.4738   -2.6688   -0.0680 C   0  0  0  0  0  0  0  0  0  0  0  0
   -0.6723   -3.3452    0.5498 O   0  0  0  0  0  0  0  0  0  0  0  0
   -1.1451   -1.3940   -0.4892 N   0  0  0  0  0  0  0  0  0  0  0  0
   -1.8385   -0.9066   -1.0478 H   0  0  0  0  0  0  0  0  0  0  0  0
    0.1754   -0.7565   -0.2980 C   0  0  1  0  0  0  0  0  0  0  0  0
    0.9240   -1.4558   -0.6886 H   0  0  0  0  0  0  0  0  0  0  0  0
    0.2502    0.4889   -1.2446 C   0  0  0  0  0  0  0  0  0  0  0  0
    0.7858    0.1554   -2.1399 H   0  0  0  0  0  0  0  0  0  0  0  0
   -0.7748    0.6812   -1.5774 H   0  0  0  0  0  0  0  0  0  0  0  0
    0.7815    1.9099   -0.8554 C   0  0  0  0  0  0  0  0  0  0  0  0
    0.0839    2.6387   -1.2827 H   0  0  0  0  0  0  0  0  0  0  0  0
    0.9616    2.2876    0.6188 C   0  0  0  0  0  0  0  0  0  0  0  0
    1.7569    1.7060    1.0912 H   0  0  0  0  0  0  0  0  0  0  0  0
    1.2386    3.3433    0.6995 H   0  0  0  0  0  0  0  0  0  0  0  0
    0.0255    2.1557    1.1653 H   0  0  0  0  0  0  0  0  0  0  0  0
    2.1438    2.1221   -1.5337 C   0  0  0  0  0  0  0  0  0  0  0  0
    2.0552    2.0185   -2.6198 H   0  0  0  0  0  0  0  0  0  0  0  0
    2.5292    3.1248   -1.3229 H   0  0  0  0  0  0  0  0  0  0  0  0
    2.8704    1.3876   -1.1705 H   0  0  0  0  0  0  0  0  0  0  0  0
    0.5510   -0.6367    1.1978 C   0  0  0  0  0  0  0  0  0  0  0  0
    1.7070   -0.8236    1.5562 O   0  0  0  0  0  0  0  0  0  0  0  0
   -0.3797   -0.1955    2.1230 N   0  0  0  0  0  0  0  0  0  0  0  0
   -1.3425   -0.1526    1.8079 H   0  0  0  0  0  0  0  0  0  0  0  0
   -0.1014   -0.1200    3.5512 C   0  0  0  0  0  0  0  0  0  0  0  0
    0.7381    0.5566    3.7423 H   0  0  0  0  0  0  0  0  0  0  0  0
   -0.9770    0.2574    4.0875 H   0  0  0  0  0  0  0  0  0  0  0  0
    0.1472   -1.1112    3.9450 H   0  0  0  0  0  0  0  0  0  0  0  0
  1  2  1  0  0  0  0
  2  3  1  0  0  0  0
  2  4  1  0  0  0  0
  2  5  1  0  0  0  0
  5  6  2  0  0  0  0
  5  7  1  0  0  0  0
  7  8  1  0  0  0  0
  7  9  1  0  0  0  0
  9 10  1  0  0  0  0
  9 11  1  0  0  0  0
  9 24  1  0  0  0  0
 11 12  1  0  0  0  0
 11 13  1  0  0  0  0
 11 14  1  0  0  0  0
 14 15  1  0  0  0  0
 14 16  1  0  0  0  0
 14 20  1  0  0  0  0
 16 17  1  0  0  0  0
 16 18  1  0  0  0  0
 16 19  1  0  0  0  0
 20 21  1  0  0  0  0
 20 22  1  0  0  0  0
 20 23  1  0  0  0  0
 24 25  2  0  0  0  0
 24 26  1  0  0  0  0
 26 27  1  0  0  0  0
 26 28  1  0  0  0  0
 28 29  1  0  0  0  0
 28 30  1  0  0  0  0
 28 31  1  0  0  0  0
M  END
$$$$

  -OEChem-04042216013D

 31 30  0     1  0  0  0  0  0999 V2000
   -2.9825   -4.1838    0.0591 H   0  0  0  0  0  0  0  0  0  0  0  0
   -2.8653   -3.1792   -0.3576 C   0  0  0  0  0  0  0  0  0  0  0  0
   -3.6208   -2.5259    0.0850 H   0  0  0  0  0  0  0  0  0  0  0  0
   -3.0205   -3.2275   -1.4381 H   0  0  0  0  0  0  0  0  0  0  0  0
   -1.4763   -2.6479   -0.0563 C   0  0  0  0  0  0  0  0  0  0  0  0
   -0.6871   -3.3400    0.5597 O   0  0  0  0  0  0  0  0  0  0  0  0
   -1.1198   -1.3853   -0.4922 N   0  0  0  0  0  0  0  0  0  0  0  0
   -1.8050   -0.8878   -1.0521 H   0  0  0  0  0  0  0  0  0  0  0  0
    0.2116   -0.7687   -0.3025 C   0  0  1  0  0  0  0  0  0  0  0  0
    0.9605   -1.4686   -0.6914 H   0  0  0  0  0  0  0  0  0  0  0  0
    0.2710    0.4898   -1.2346 C   0  0  0  0  0  0  0  0  0  0  0  0
    0.8202    0.1547   -2.1209 H   0  0  0  0  0  0  0  0  0  0  0  0
   -0.7488    0.6817   -1.5837 H   0  0  0  0  0  0  0  0  0  0  0  0
    0.8137    1.9079   -0.8422 C   0  0  0  0  0  0  0  0  0  0  0  0
   -0.0181    2.6084   -0.9751 H   0  0  0  0  0  0  0  0  0  0  0  0
    1.3559    2.1681    0.5676 C   0  0  0  0  0  0  0  0  0  0  0  0
    2.1920    1.5022    0.7972 H   0  0  0  0  0  0  0  0  0  0  0  0
    1.7215    3.1968    0.6457 H   0  0  0  0  0  0  0  0  0  0  0  0
    0.5698    2.0540    1.3154 H   0  0  0  0  0  0  0  0  0  0  0  0
    1.9128    2.3119   -1.8381 C   0  0  0  0  0  0  0  0  0  0  0  0
    1.5379    2.2648   -2.8653 H   0  0  0  0  0  0  0  0  0  0  0  0
    2.2479    3.3369   -1.6494 H   0  0  0  0  0  0  0  0  0  0  0  0
    2.7756    1.6436   -1.7496 H   0  0  0  0  0  0  0  0  0  0  0  0
    0.5558   -0.6466    1.2011 C   0  0  0  0  0  0  0  0  0  0  0  0
    1.6900   -0.8845    1.5967 O   0  0  0  0  0  0  0  0  0  0  0  0
   -0.3901   -0.1812    2.0990 N   0  0  0  0  0  0  0  0  0  0  0  0
   -1.3404   -0.1089    1.7534 H   0  0  0  0  0  0  0  0  0  0  0  0
   -0.1586   -0.1353    3.5369 C   0  0  0  0  0  0  0  0  0  0  0  0
    0.6989    0.5057    3.7668 H   0  0  0  0  0  0  0  0  0  0  0  0
   -1.0375    0.2682    4.0486 H   0  0  0  0  0  0  0  0  0  0  0  0
    0.0385   -1.1406    3.9241 H   0  0  0  0  0  0  0  0  0  0  0  0
  1  2  1  0  0  0  0
  2  3  1  0  0  0  0
  2  4  1  0  0  0  0
  2  5  1  0  0  0  0
  5  6  2  0  0  0  0
  5  7  1  0  0  0  0
  7  8  1  0  0  0  0
  7  9  1  0  0  0  0
  9 10  1  0  0  0  0
  9 11  1  0  0  0  0
  9 24  1  0  0  0  0
 11 12  1  0  0  0  0
 11 13  1  0  0  0  0
 11 14  1  0  0  0  0
 14 15  1  0  0  0  0
 14 16  1  0  0  0  0
 14 20  1  0  0  0  0
 16 17  1  0  0  0  0
 16 18  1  0  0  0  0
 16 19  1  0  0  0  0
 20 21  1  0  0  0  0
 20 22  1  0  0  0  0
 20 23  1  0  0  0  0
 24 25  2  0  0  0  0
 24 26  1  0  0  0  0
 26 27  1  0  0  0  0
 26 28  1  0  0  0  0
 28 29  1  0  0  0  0
 28 30  1  0  0  0  0
 28 31  1  0  0  0  0
M  END
$$$$

  -OEChem-04042216013D

 31 30  0     1  0  0  0  0  0999 V2000
   -2.9960   -4.1496    0.0903 H   0  0  0  0  0  0  0  0  0  0  0  0
   -2.8664   -3.1528   -0.3415 C   0  0  0  0  0  0  0  0  0  0  0  0
   -3.6129   -2.4826    0.0912 H   0  0  0  0  0  0  0  0  0  0  0  0
   -3.0230   -3.2157   -1.4210 H   0  0  0  0  0  0  0  0  0  0  0  0
   -1.4706   -2.6346   -0.0483 C   0  0  0  0  0  0  0  0  0  0  0  0
   -0.6908   -3.3264    0.5798 O   0  0  0  0  0  0  0  0  0  0  0  0
   -1.0979   -1.3845   -0.5063 N   0  0  0  0  0  0  0  0  0  0  0  0
   -1.7757   -0.8909   -1.0782 H   0  0  0  0  0  0  0  0  0  0  0  0
    0.2406   -0.7800   -0.3269 C   0  0  1  0  0  0  0  0  0  0  0  0
    0.9909   -1.4747   -0.7221 H   0  0  0  0  0  0  0  0  0  0  0  0
    0.2694    0.4955   -1.2352 C   0  0  0  0  0  0  0  0  0  0  0  0
    0.8329    0.1801   -2.1199 H   0  0  0  0  0  0  0  0  0  0  0  0
   -0.7488    0.6890   -1.5880 H   0  0  0  0  0  0  0  0  0  0  0  0
    0.8204    1.8991   -0.8141 C   0  0  0  0  0  0  0  0  0  0  0  0
   -0.0537    2.5303   -0.6207 H   0  0  0  0  0  0  0  0  0  0  0  0
    1.7009    2.0285    0.4356 C   0  0  0  0  0  0  0  0  0  0  0  0
    2.5162    1.2993    0.4113 H   0  0  0  0  0  0  0  0  0  0  0  0
    2.1458    3.0273    0.4847 H   0  0  0  0  0  0  0  0  0  0  0  0
    1.1165    1.9009    1.3483 H   0  0  0  0  0  0  0  0  0  0  0  0
    1.5726    2.5155   -2.0034 C   0  0  0  0  0  0  0  0  0  0  0  0
    0.9428    2.5119   -2.8986 H   0  0  0  0  0  0  0  0  0  0  0  0
    1.8493    3.5525   -1.7889 H   0  0  0  0  0  0  0  0  0  0  0  0
    2.4861    1.9503   -2.2154 H   0  0  0  0  0  0  0  0  0  0  0  0
    0.5741   -0.6397    1.1774 C   0  0  0  0  0  0  0  0  0  0  0  0
    1.6979   -0.8972    1.5902 O   0  0  0  0  0  0  0  0  0  0  0  0
   -0.3751   -0.1484    2.0581 N   0  0  0  0  0  0  0  0  0  0  0  0
   -1.3197   -0.0646    1.6997 H   0  0  0  0  0  0  0  0  0  0  0  0
   -0.1615   -0.0928    3.4986 C   0  0  0  0  0  0  0  0  0  0  0  0
    0.7010    0.5392    3.7349 H   0  0  0  0  0  0  0  0  0  0  0  0
   -1.0416    0.3259    3.9956 H   0  0  0  0  0  0  0  0  0  0  0  0
    0.0180   -1.0971    3.8967 H   0  0  0  0  0  0  0  0  0  0  0  0
  1  2  1  0  0  0  0
  2  3  1  0  0  0  0
  2  4  1  0  0  0  0
  2  5  1  0  0  0  0
  5  6  2  0  0  0  0
  5  7  1  0  0  0  0
  7  8  1  0  0  0  0
  7  9  1  0  0  0  0
  9 10  1  0  0  0  0
  9 11  1  0  0  0  0
  9 24  1  0  0  0  0
 11 12  1  0  0  0  0
 11 13  1  0  0  0  0
 11 14  1  0  0  0  0
 14 15  1  0  0  0  0
 14 16  1  0  0  0  0
 14 20  1  0  0  0  0
 16 17  1  0  0  0  0
 16 18  1  0  0  0  0
 16 19  1  0  0  0  0
 20 21  1  0  0  0  0
 20 22  1  0  0  0  0
 20 23  1  0  0  0  0
 24 25  2  0  0  0  0
 24 26  1  0  0  0  0
 26 27  1  0  0  0  0
 26 28  1  0  0  0  0
 28 29  1  0  0  0  0
 28 30  1  0  0  0  0
 28 31  1  0  0  0  0
M  END
$$$$

  -OEChem-04042216013D

 31 30  0     1  0  0  0  0  0999 V2000
   -2.9791   -4.1452    0.1173 H   0  0  0  0  0  0  0  0  0  0  0  0
   -2.8537   -3.1539   -0.3279 C   0  0  0  0  0  0  0  0  0  0  0  0
   -3.6051   -2.4822    0.0939 H   0  0  0  0  0  0  0  0  0  0  0  0
   -3.0067   -3.2317   -1.4070 H   0  0  0  0  0  0  0  0  0  0  0  0
   -1.4617   -2.6250   -0.0375 C   0  0  0  0  0  0  0  0  0  0  0  0
   -0.6836   -3.3007    0.6097 O   0  0  0  0  0  0  0  0  0  0  0  0
   -1.0900   -1.3849   -0.5222 N   0  0  0  0  0  0  0  0  0  0  0  0
   -1.7618   -0.9120   -1.1184 H   0  0  0  0  0  0  0  0  0  0  0  0
    0.2496   -0.7788   -0.3582 C   0  0  1  0  0  0  0  0  0  0  0  0
    1.0030   -1.4662   -0.7602 H   0  0  0  0  0  0  0  0  0  0  0  0
    0.2468    0.5056   -1.2507 C   0  0  0  0  0  0  0  0  0  0  0  0
    0.8073    0.2190   -2.1469 H   0  0  0  0  0  0  0  0  0  0  0  0
   -0.7772    0.7028   -1.5847 H   0  0  0  0  0  0  0  0  0  0  0  0
    0.8028    1.8881   -0.7897 C   0  0  0  0  0  0  0  0  0  0  0  0
   -0.0234    2.4200   -0.3056 H   0  0  0  0  0  0  0  0  0  0  0  0
    1.9621    1.9055    0.2181 C   0  0  0  0  0  0  0  0  0  0  0  0
    2.6911    1.1245   -0.0195 H   0  0  0  0  0  0  0  0  0  0  0  0
    2.4791    2.8698    0.1926 H   0  0  0  0  0  0  0  0  0  0  0  0
    1.6016    1.7708    1.2403 H   0  0  0  0  0  0  0  0  0  0  0  0
    1.2052    2.6949   -2.0327 C   0  0  0  0  0  0  0  0  0  0  0  0
    0.3786    2.7324   -2.7491 H   0  0  0  0  0  0  0  0  0  0  0  0
    1.4621    3.7225   -1.7572 H   0  0  0  0  0  0  0  0  0  0  0  0
    2.0723    2.2408   -2.5231 H   0  0  0  0  0  0  0  0  0  0  0  0
    0.5914   -0.6064    1.1409 C   0  0  0  0  0  0  0  0  0  0  0  0
    1.7109   -0.8781    1.5567 O   0  0  0  0  0  0  0  0  0  0  0  0
   -0.3509   -0.0935    2.0160 N   0  0  0  0  0  0  0  0  0  0  0  0
   -1.2947    0.0006    1.6582 H   0  0  0  0  0  0  0  0  0  0  0  0
   -0.1306   -0.0094    3.4539 C   0  0  0  0  0  0  0  0  0  0  0  0
    0.7262    0.6361    3.6737 H   0  0  0  0  0  0  0  0  0  0  0  0
   -1.0125    0.4088    3.9483 H   0  0  0  0  0  0  0  0  0  0  0  0
    0.0617   -1.0043    3.8694 H   0  0  0  0  0  0  0  0  0  0  0  0
  1  2  1  0  0  0  0
  2  3  1  0  0  0  0
  2  4  1  0  0  0  0
  2  5  1  0  0  0  0
  5  6  2  0  0  0  0
  5  7  1  0  0  0  0
  7  8  1  0  0  0  0
  7  9  1  0  0  0  0
  9 10  1  0  0  0  0
  9 11  1  0  0  0  0
  9 24  1  0  0  0  0
 11 12  1  0  0  0  0
 11 13  1  0  0  0  0
 11 14  1  0  0  0  0
 14 15  1  0  0  0  0
 14 16  1  0  0  0  0
 14 20  1  0  0  0  0
 16 17  1  0  0  0  0
 16 18  1  0  0  0  0
 16 19  1  0  0  0  0
 20 21  1  0  0  0  0
 20 22  1  0  0  0  0
 20 23  1  0  0  0  0
 24 25  2  0  0  0  0
 24 26  1  0  0  0  0
 26 27  1  0  0  0  0
 26 28  1  0  0  0  0
 28 29  1  0  0  0  0
 28 30  1  0  0  0  0
 28 31  1  0  0  0  0
M  END
$$$$

  -OEChem-04042216013D

 31 30  0     1  0  0  0  0  0999 V2000
   -2.9420   -4.1581    0.1420 H   0  0  0  0  0  0  0  0  0  0  0  0
   -2.8320   -3.1697   -0.3134 C   0  0  0  0  0  0  0  0  0  0  0  0
   -3.5927   -2.5048    0.1027 H   0  0  0  0  0  0  0  0  0  0  0  0
   -2.9854   -3.2611   -1.3915 H   0  0  0  0  0  0  0  0  0  0  0  0
   -1.4475   -2.6173   -0.0303 C   0  0  0  0  0  0  0  0  0  0  0  0
   -0.6628   -3.2697    0.6325 O   0  0  0  0  0  0  0  0  0  0  0  0
   -1.0912   -1.3817   -0.5368 N   0  0  0  0  0  0  0  0  0  0  0  0
   -1.7659   -0.9314   -1.1471 H   0  0  0  0  0  0  0  0  0  0  0  0
    0.2425   -0.7603   -0.3889 C   0  0  1  0  0  0  0  0  0  0  0  0
    1.0020   -1.4386   -0.7947 H   0  0  0  0  0  0  0  0  0  0  0  0
    0.2130    0.5232   -1.2762 C   0  0  0  0  0  0  0  0  0  0  0  0
    0.7612    0.2650   -2.1884 H   0  0  0  0  0  0  0  0  0  0  0  0
   -0.8196    0.7210   -1.5826 H   0  0  0  0  0  0  0  0  0  0  0  0
    0.7706    1.8811   -0.7684 C   0  0  0  0  0  0  0  0  0  0  0  0
    0.0537    2.2932   -0.0503 H   0  0  0  0  0  0  0  0  0  0  0  0
    2.1357    1.8261   -0.0619 C   0  0  0  0  0  0  0  0  0  0  0  0
    2.7565    1.0274   -0.4801 H   0  0  0  0  0  0  0  0  0  0  0  0
    2.6729    2.7721   -0.1805 H   0  0  0  0  0  0  0  0  0  0  0  0
    2.0167    1.6652    1.0120 H   0  0  0  0  0  0  0  0  0  0  0  0
    0.8510    2.8494   -1.9570 C   0  0  0  0  0  0  0  0  0  0  0  0
   -0.1187    2.9224   -2.4592 H   0  0  0  0  0  0  0  0  0  0  0  0
    1.1330    3.8508   -1.6164 H   0  0  0  0  0  0  0  0  0  0  0  0
    1.5951    2.5077   -2.6838 H   0  0  0  0  0  0  0  0  0  0  0  0
    0.6015   -0.5553    1.1027 C   0  0  0  0  0  0  0  0  0  0  0  0
    1.7228   -0.8288    1.5125 O   0  0  0  0  0  0  0  0  0  0  0  0
   -0.3328   -0.0341    1.9810 N   0  0  0  0  0  0  0  0  0  0  0  0
   -1.2821    0.0465    1.6341 H   0  0  0  0  0  0  0  0  0  0  0  0
   -0.0956    0.0689    3.4149 C   0  0  0  0  0  0  0  0  0  0  0  0
    0.7554    0.7283    3.6150 H   0  0  0  0  0  0  0  0  0  0  0  0
   -0.9763    0.4810    3.9164 H   0  0  0  0  0  0  0  0  0  0  0  0
    0.1159   -0.9185    3.8391 H   0  0  0  0  0  0  0  0  0  0  0  0
  1  2  1  0  0  0  0
  2  3  1  0  0  0  0
  2  4  1  0  0  0  0
  2  5  1  0  0  0  0
  5  6  2  0  0  0  0
  5  7  1  0  0  0  0
  7  8  1  0  0  0  0
  7  9  1  0  0  0  0
  9 10  1  0  0  0  0
  9 11  1  0  0  0  0
  9 24  1  0  0  0  0
 11 12  1  0  0  0  0
 11 13  1  0  0  0  0
 11 14  1  0  0  0  0
 14 15  1  0  0  0  0
 14 16  1  0  0  0  0
 14 20  1  0  0  0  0
 16 17  1  0  0  0  0
 16 18  1  0  0  0  0
 16 19  1  0  0  0  0
 20 21  1  0  0  0  0
 20 22  1  0  0  0  0
 20 23  1  0  0  0  0
 24 25  2  0  0  0  0
 24 26  1  0  0  0  0
 26 27  1  0  0  0  0
 26 28  1  0  0  0  0
 28 29  1  0  0  0  0
 28 30  1  0  0  0  0
 28 31  1  0  0  0  0
M  END
$$$$

  -OEChem-04042216013D

 31 30  0     1  0  0  0  0  0999 V2000
   -2.9029   -4.1679    0.1926 H   0  0  0  0  0  0  0  0  0  0  0  0
   -2.8056   -3.1874   -0.2828 C   0  0  0  0  0  0  0  0  0  0  0  0
   -3.5744   -2.5241    0.1203 H   0  0  0  0  0  0  0  0  0  0  0  0
   -2.9582   -3.3027   -1.3585 H   0  0  0  0  0  0  0  0  0  0  0  0
   -1.4282   -2.6115   -0.0122 C   0  0  0  0  0  0  0  0  0  0  0  0
   -0.6328   -3.2442    0.6569 O   0  0  0  0  0  0  0  0  0  0  0  0
   -1.0902   -1.3785   -0.5379 N   0  0  0  0  0  0  0  0  0  0  0  0
   -1.7721   -0.9471   -1.1538 H   0  0  0  0  0  0  0  0  0  0  0  0
    0.2369   -0.7392   -0.4066 C   0  0  1  0  0  0  0  0  0  0  0  0
    1.0027   -1.4098   -0.8126 H   0  0  0  0  0  0  0  0  0  0  0  0
    0.1872    0.5411   -1.2953 C   0  0  0  0  0  0  0  0  0  0  0  0
    0.7150    0.3042   -2.2254 H   0  0  0  0  0  0  0  0  0  0  0  0
   -0.8549    0.7354   -1.5695 H   0  0  0  0  0  0  0  0  0  0  0  0
    0.7462    1.8832   -0.7571 C   0  0  0  0  0  0  0  0  0  0  0  0
    0.1861    2.1731    0.1385 H   0  0  0  0  0  0  0  0  0  0  0  0
    2.2413    1.8354   -0.3968 C   0  0  0  0  0  0  0  0  0  0  0  0
    2.7954    1.2382   -1.1276 H   0  0  0  0  0  0  0  0  0  0  0  0
    2.6654    2.8443   -0.3856 H   0  0  0  0  0  0  0  0  0  0  0  0
    2.4030    1.4156    0.5960 H   0  0  0  0  0  0  0  0  0  0  0  0
    0.5265    2.9674   -1.8216 C   0  0  0  0  0  0  0  0  0  0  0  0
   -0.5348    3.0474   -2.0766 H   0  0  0  0  0  0  0  0  0  0  0  0
    0.8593    3.9418   -1.4501 H   0  0  0  0  0  0  0  0  0  0  0  0
    1.0874    2.7334   -2.7321 H   0  0  0  0  0  0  0  0  0  0  0  0
    0.6048   -0.5085    1.0803 C   0  0  0  0  0  0  0  0  0  0  0  0
    1.7231   -0.7860    1.4942 O   0  0  0  0  0  0  0  0  0  0  0  0
   -0.3311    0.0141    1.9560 N   0  0  0  0  0  0  0  0  0  0  0  0
   -1.2808    0.0842    1.6078 H   0  0  0  0  0  0  0  0  0  0  0  0
   -0.1015    0.1053    3.3919 C   0  0  0  0  0  0  0  0  0  0  0  0
    0.7742    0.7284    3.6015 H   0  0  0  0  0  0  0  0  0  0  0  0
   -0.9689    0.5529    3.8860 H   0  0  0  0  0  0  0  0  0  0  0  0
    0.0649   -0.8907    3.8157 H   0  0  0  0  0  0  0  0  0  0  0  0
  1  2  1  0  0  0  0
  2  3  1  0  0  0  0
  2  4  1  0  0  0  0
  2  5  1  0  0  0  0
  5  6  2  0  0  0  0
  5  7  1  0  0  0  0
  7  8  1  0  0  0  0
  7  9  1  0  0  0  0
  9 10  1  0  0  0  0
  9 11  1  0  0  0  0
  9 24  1  0  0  0  0
 11 12  1  0  0  0  0
 11 13  1  0  0  0  0
 11 14  1  0  0  0  0
 14 15  1  0  0  0  0
 14 16  1  0  0  0  0
 14 20  1  0  0  0  0
 16 17  1  0  0  0  0
 16 18  1  0  0  0  0
 16 19  1  0  0  0  0
 20 21  1  0  0  0  0
 20 22  1  0  0  0  0
 20 23  1  0  0  0  0
 24 25  2  0  0  0  0
 24 26  1  0  0  0  0
 26 27  1  0  0  0  0
 26 28  1  0  0  0  0
 28 29  1  0  0  0  0
 28 30  1  0  0  0  0
 28 31  1  0  0  0  0
M  END
$$$$

  -OEChem-04042216013D

 31 30  0     1  0  0  0  0  0999 V2000
   -2.8540   -4.2158    0.2014 H   0  0  0  0  0  0  0  0  0  0  0  0
   -2.7808   -3.2326   -0.2725 C   0  0  0  0  0  0  0  0  0  0  0  0
   -3.5597   -2.5858    0.1379 H   0  0  0  0  0  0  0  0  0  0  0  0
   -2.9392   -3.3486   -1.3474 H   0  0  0  0  0  0  0  0  0  0  0  0
   -1.4138   -2.6287   -0.0113 C   0  0  0  0  0  0  0  0  0  0  0  0
   -0.6031   -3.2402    0.6597 O   0  0  0  0  0  0  0  0  0  0  0  0
   -1.1024   -1.3915   -0.5429 N   0  0  0  0  0  0  0  0  0  0  0  0
   -1.7940   -0.9759   -1.1589 H   0  0  0  0  0  0  0  0  0  0  0  0
    0.2130   -0.7281   -0.4195 C   0  0  1  0  0  0  0  0  0  0  0  0
    0.9861   -1.3927   -0.8217 H   0  0  0  0  0  0  0  0  0  0  0  0
    0.1634    0.5477   -1.3141 C   0  0  0  0  0  0  0  0  0  0  0  0
    0.6842    0.3251   -2.2513 H   0  0  0  0  0  0  0  0  0  0  0  0
   -0.8817    0.7390   -1.5777 H   0  0  0  0  0  0  0  0  0  0  0  0
    0.7221    1.8719   -0.7386 C   0  0  0  0  0  0  0  0  0  0  0  0
    0.3497    2.0311    0.2776 H   0  0  0  0  0  0  0  0  0  0  0  0
    2.2587    1.8735   -0.7221 C   0  0  0  0  0  0  0  0  0  0  0  0
    2.6537    1.7971   -1.7400 H   0  0  0  0  0  0  0  0  0  0  0  0
    2.6303    2.8009   -0.2754 H   0  0  0  0  0  0  0  0  0  0  0  0
    2.6570    1.0389   -0.1430 H   0  0  0  0  0  0  0  0  0  0  0  0
    0.2429    3.0484   -1.5986 C   0  0  0  0  0  0  0  0  0  0  0  0
   -0.8496    3.1107   -1.5887 H   0  0  0  0  0  0  0  0  0  0  0  0
    0.6410    3.9910   -1.2099 H   0  0  0  0  0  0  0  0  0  0  0  0
    0.5761    2.9319   -2.6349 H   0  0  0  0  0  0  0  0  0  0  0  0
    0.5862   -0.4847    1.0661 C   0  0  0  0  0  0  0  0  0  0  0  0
    1.7322   -0.6576    1.4595 O   0  0  0  0  0  0  0  0  0  0  0  0
   -0.3563    0.0231    1.9440 N   0  0  0  0  0  0  0  0  0  0  0  0
   -1.3159    0.0344    1.6163 H   0  0  0  0  0  0  0  0  0  0  0  0
   -0.0954    0.2064    3.3656 C   0  0  0  0  0  0  0  0  0  0  0  0
    0.7284    0.9122    3.5157 H   0  0  0  0  0  0  0  0  0  0  0  0
   -0.9844    0.6028    3.8650 H   0  0  0  0  0  0  0  0  0  0  0  0
    0.1690   -0.7488    3.8318 H   0  0  0  0  0  0  0  0  0  0  0  0
  1  2  1  0  0  0  0
  2  3  1  0  0  0  0
  2  4  1  0  0  0  0
  2  5  1  0  0  0  0
  5  6  2  0  0  0  0
  5  7  1  0  0  0  0
  7  8  1  0  0  0  0
  7  9  1  0  0  0  0
  9 10  1  0  0  0  0
  9 11  1  0  0  0  0
  9 24  1  0  0  0  0
 11 12  1  0  0  0  0
 11 13  1  0  0  0  0
 11 14  1  0  0  0  0
 14 15  1  0  0  0  0
 14 16  1  0  0  0  0
 14 20  1  0  0  0  0
 16 17  1  0  0  0  0
 16 18  1  0  0  0  0
 16 19  1  0  0  0  0
 20 21  1  0  0  0  0
 20 22  1  0  0  0  0
 20 23  1  0  0  0  0
 24 25  2  0  0  0  0
 24 26  1  0  0  0  0
 26 27  1  0  0  0  0
 26 28  1  0  0  0  0
 28 29  1  0  0  0  0
 28 30  1  0  0  0  0
 28 31  1  0  0  0  0
M  END
$$$$

  -OEChem-04042216013D

 31 30  0     1  0  0  0  0  0999 V2000
   -2.8307   -4.2650    0.1455 H   0  0  0  0  0  0  0  0  0  0  0  0
   -2.7780   -3.2731   -0.3124 C   0  0  0  0  0  0  0  0  0  0  0  0
   -3.5735   -2.6509    0.1048 H   0  0  0  0  0  0  0  0  0  0  0  0
   -2.9296   -3.3752   -1.3896 H   0  0  0  0  0  0  0  0  0  0  0  0
   -1.4260   -2.6429   -0.0360 C   0  0  0  0  0  0  0  0  0  0  0  0
   -0.6042   -3.2429    0.6321 O   0  0  0  0  0  0  0  0  0  0  0  0
   -1.1424   -1.3878   -0.5393 N   0  0  0  0  0  0  0  0  0  0  0  0
   -1.8422   -0.9722   -1.1462 H   0  0  0  0  0  0  0  0  0  0  0  0
    0.1612   -0.7057   -0.4066 C   0  0  1  0  0  0  0  0  0  0  0  0
    0.9300   -1.3732   -0.8120 H   0  0  0  0  0  0  0  0  0  0  0  0
    0.1419    0.5606   -1.3128 C   0  0  0  0  0  0  0  0  0  0  0  0
    0.6774    0.3311   -2.2401 H   0  0  0  0  0  0  0  0  0  0  0  0
   -0.8981    0.7467   -1.5993 H   0  0  0  0  0  0  0  0  0  0  0  0
    0.6919    1.8832   -0.7170 C   0  0  0  0  0  0  0  0  0  0  0  0
    0.5090    1.9535    0.3579 H   0  0  0  0  0  0  0  0  0  0  0  0
    2.1958    2.0044   -0.9954 C   0  0  0  0  0  0  0  0  0  0  0  0
    2.3959    2.0132   -2.0715 H   0  0  0  0  0  0  0  0  0  0  0  0
    2.5898    2.9289   -0.5617 H   0  0  0  0  0  0  0  0  0  0  0  0
    2.7349    1.1627   -0.5499 H   0  0  0  0  0  0  0  0  0  0  0  0
   -0.0118    3.0779   -1.3747 C   0  0  0  0  0  0  0  0  0  0  0  0
   -1.0849    3.0557   -1.1606 H   0  0  0  0  0  0  0  0  0  0  0  0
    0.3924    4.0186   -0.9873 H   0  0  0  0  0  0  0  0  0  0  0  0
    0.1281    3.0605   -2.4604 H   0  0  0  0  0  0  0  0  0  0  0  0
    0.5721   -0.4764    1.0691 C   0  0  0  0  0  0  0  0  0  0  0  0
    1.7512   -0.5318    1.3937 O   0  0  0  0  0  0  0  0  0  0  0  0
   -0.3536    0.0019    1.9802 N   0  0  0  0  0  0  0  0  0  0  0  0
   -1.3271   -0.0531    1.7014 H   0  0  0  0  0  0  0  0  0  0  0  0
   -0.0350    0.2335    3.3830 C   0  0  0  0  0  0  0  0  0  0  0  0
    0.7577    0.9832    3.4770 H   0  0  0  0  0  0  0  0  0  0  0  0
   -0.9184    0.5970    3.9165 H   0  0  0  0  0  0  0  0  0  0  0  0
    0.3001   -0.6954    3.8565 H   0  0  0  0  0  0  0  0  0  0  0  0
  1  2  1  0  0  0  0
  2  3  1  0  0  0  0
  2  4  1  0  0  0  0
  2  5  1  0  0  0  0
  5  6  2  0  0  0  0
  5  7  1  0  0  0  0
  7  8  1  0  0  0  0
  7  9  1  0  0  0  0
  9 10  1  0  0  0  0
  9 11  1  0  0  0  0
  9 24  1  0  0  0  0
 11 12  1  0  0  0  0
 11 13  1  0  0  0  0
 11 14  1  0  0  0  0
 14 15  1  0  0  0  0
 14 16  1  0  0  0  0
 14 20  1  0  0  0  0
 16 17  1  0  0  0  0
 16 18  1  0  0  0  0
 16 19  1  0  0  0  0
 20 21  1  0  0  0  0
 20 22  1  0  0  0  0
 20 23  1  0  0  0  0
 24 25  2  0  0  0  0
 24 26  1  0  0  0  0
 26 27  1  0  0  0  0
 26 28  1  0  0  0  0
 28 29  1  0  0  0  0
 28 30  1  0  0  0  0
 28 31  1  0  0  0  0
M  END
$$$$

  -OEChem-04042216013D

 31 30  0     1  0  0  0  0  0999 V2000
   -2.8374   -4.2670    0.1349 H   0  0  0  0  0  0  0  0  0  0  0  0
   -2.7817   -3.2739   -0.3203 C   0  0  0  0  0  0  0  0  0  0  0  0
   -3.5746   -2.6504    0.0994 H   0  0  0  0  0  0  0  0  0  0  0  0
   -2.9347   -3.3728   -1.3976 H   0  0  0  0  0  0  0  0  0  0  0  0
   -1.4274   -2.6488   -0.0430 C   0  0  0  0  0  0  0  0  0  0  0  0
   -0.6050   -3.2561    0.6178 O   0  0  0  0  0  0  0  0  0  0  0  0
   -1.1421   -1.3901   -0.5362 N   0  0  0  0  0  0  0  0  0  0  0  0
   -1.8437   -0.9660   -1.1351 H   0  0  0  0  0  0  0  0  0  0  0  0
    0.1620   -0.7099   -0.3962 C   0  0  1  0  0  0  0  0  0  0  0  0
    0.9296   -1.3779   -0.8035 H   0  0  0  0  0  0  0  0  0  0  0  0
    0.1478    0.5590   -1.3002 C   0  0  0  0  0  0  0  0  0  0  0  0
    0.6906    0.3209   -2.2210 H   0  0  0  0  0  0  0  0  0  0  0  0
   -0.8885    0.7377   -1.6045 H   0  0  0  0  0  0  0  0  0  0  0  0
    0.6949    1.8928   -0.7117 C   0  0  0  0  0  0  0  0  0  0  0  0
    0.7729    1.8717    0.3766 H   0  0  0  0  0  0  0  0  0  0  0  0
    2.0796    2.1955   -1.2970 C   0  0  0  0  0  0  0  0  0  0  0  0
    2.0327    2.2927   -2.3863 H   0  0  0  0  0  0  0  0  0  0  0  0
    2.4732    3.1287   -0.8821 H   0  0  0  0  0  0  0  0  0  0  0  0
    2.7777    1.3898   -1.0476 H   0  0  0  0  0  0  0  0  0  0  0  0
   -0.2457    3.0512   -1.0698 C   0  0  0  0  0  0  0  0  0  0  0  0
   -1.2364    2.8863   -0.6347 H   0  0  0  0  0  0  0  0  0  0  0  0
    0.1455    3.9949   -0.6765 H   0  0  0  0  0  0  0  0  0  0  0  0
   -0.3510    3.1442   -2.1555 H   0  0  0  0  0  0  0  0  0  0  0  0
    0.5727   -0.4911    1.0799 C   0  0  0  0  0  0  0  0  0  0  0  0
    1.7547   -0.5294    1.3967 O   0  0  0  0  0  0  0  0  0  0  0  0
   -0.3532   -0.0181    1.9933 N   0  0  0  0  0  0  0  0  0  0  0  0
   -1.3269   -0.0729    1.7155 H   0  0  0  0  0  0  0  0  0  0  0  0
   -0.0324    0.2252    3.3935 C   0  0  0  0  0  0  0  0  0  0  0  0
    0.7535    0.9827    3.4809 H   0  0  0  0  0  0  0  0  0  0  0  0
   -0.9174    0.5841    3.9272 H   0  0  0  0  0  0  0  0  0  0  0  0
    0.3124   -0.6973    3.8725 H   0  0  0  0  0  0  0  0  0  0  0  0
  1  2  1  0  0  0  0
  2  3  1  0  0  0  0
  2  4  1  0  0  0  0
  2  5  1  0  0  0  0
  5  6  2  0  0  0  0
  5  7  1  0  0  0  0
  7  8  1  0  0  0  0
  7  9  1  0  0  0  0
  9 10  1  0  0  0  0
  9 11  1  0  0  0  0
  9 24  1  0  0  0  0
 11 12  1  0  0  0  0
 11 13  1  0  0  0  0
 11 14  1  0  0  0  0
 14 15  1  0  0  0  0
 14 16  1  0  0  0  0
 14 20  1  0  0  0  0
 16 17  1  0  0  0  0
 16 18  1  0  0  0  0
 16 19  1  0  0  0  0
 20 21  1  0  0  0  0
 20 22  1  0  0  0  0
 20 23  1  0  0  0  0
 24 25  2  0  0  0  0
 24 26  1  0  0  0  0
 26 27  1  0  0  0  0
 26 28  1  0  0  0  0
 28 29  1  0  0  0  0
 28 30  1  0  0  0  0
 28 31  1  0  0  0  0
M  END
$$$$

  -OEChem-04042216013D

 31 30  0     1  0  0  0  0  0999 V2000
   -2.8462   -4.2512    0.1454 H   0  0  0  0  0  0  0  0  0  0  0  0
   -2.7807   -3.2610   -0.3144 C   0  0  0  0  0  0  0  0  0  0  0  0
   -3.5682   -2.6279    0.1011 H   0  0  0  0  0  0  0  0  0  0  0  0
   -2.9337   -3.3635   -1.3914 H   0  0  0  0  0  0  0  0  0  0  0  0
   -1.4209   -2.6474   -0.0383 C   0  0  0  0  0  0  0  0  0  0  0  0
   -0.6048   -3.2596    0.6257 O   0  0  0  0  0  0  0  0  0  0  0  0
   -1.1229   -1.3952   -0.5407 N   0  0  0  0  0  0  0  0  0  0  0  0
   -1.8205   -0.9680   -1.1418 H   0  0  0  0  0  0  0  0  0  0  0  0
    0.1852   -0.7227   -0.3994 C   0  0  1  0  0  0  0  0  0  0  0  0
    0.9559   -1.3894   -0.8033 H   0  0  0  0  0  0  0  0  0  0  0  0
    0.1583    0.5505   -1.2986 C   0  0  0  0  0  0  0  0  0  0  0  0
    0.7168    0.3044   -2.2079 H   0  0  0  0  0  0  0  0  0  0  0  0
   -0.8716    0.7262   -1.6258 H   0  0  0  0  0  0  0  0  0  0  0  0
    0.7056    1.8899   -0.7180 C   0  0  0  0  0  0  0  0  0  0  0  0
    1.0889    1.7742    0.2970 H   0  0  0  0  0  0  0  0  0  0  0  0
    1.8745    2.3985   -1.5699 C   0  0  0  0  0  0  0  0  0  0  0  0
    1.5563    2.5749   -2.6023 H   0  0  0  0  0  0  0  0  0  0  0  0
    2.2628    3.3369   -1.1617 H   0  0  0  0  0  0  0  0  0  0  0  0
    2.6875    1.6654   -1.5742 H   0  0  0  0  0  0  0  0  0  0  0  0
   -0.4007    2.9507   -0.6721 C   0  0  0  0  0  0  0  0  0  0  0  0
   -1.2282    2.6084   -0.0429 H   0  0  0  0  0  0  0  0  0  0  0  0
   -0.0146    3.8845   -0.2515 H   0  0  0  0  0  0  0  0  0  0  0  0
   -0.7849    3.1560   -1.6765 H   0  0  0  0  0  0  0  0  0  0  0  0
    0.5768   -0.4995    1.0815 C   0  0  0  0  0  0  0  0  0  0  0  0
    1.7520   -0.5608    1.4198 O   0  0  0  0  0  0  0  0  0  0  0  0
   -0.3586   -0.0153    1.9791 N   0  0  0  0  0  0  0  0  0  0  0  0
   -1.3282   -0.0569    1.6850 H   0  0  0  0  0  0  0  0  0  0  0  0
   -0.0568    0.2308    3.3830 C   0  0  0  0  0  0  0  0  0  0  0  0
    0.7351    0.9811    3.4783 H   0  0  0  0  0  0  0  0  0  0  0  0
   -0.9462    0.6004    3.9020 H   0  0  0  0  0  0  0  0  0  0  0  0
    0.2721   -0.6929    3.8709 H   0  0  0  0  0  0  0  0  0  0  0  0
  1  2  1  0  0  0  0
  2  3  1  0  0  0  0
  2  4  1  0  0  0  0
  2  5  1  0  0  0  0
  5  6  2  0  0  0  0
  5  7  1  0  0  0  0
  7  8  1  0  0  0  0
  7  9  1  0  0  0  0
  9 10  1  0  0  0  0
  9 11  1  0  0  0  0
  9 24  1  0  0  0  0
 11 12  1  0  0  0  0
 11 13  1  0  0  0  0
 11 14  1  0  0  0  0
 14 15  1  0  0  0  0
 14 16  1  0  0  0  0
 14 20  1  0  0  0  0
 16 17  1  0  0  0  0
 16 18  1  0  0  0  0
 16 19  1  0  0  0  0
 20 21  1  0  0  0  0
 20 22  1  0  0  0  0
 20 23  1  0  0  0  0
 24 25  2  0  0  0  0
 24 26  1  0  0  0  0
 26 27  1  0  0  0  0
 26 28  1  0  0  0  0
 28 29  1  0  0  0  0
 28 30  1  0  0  0  0
 28 31  1  0  0  0  0
M  END
$$$$

  -OEChem-04042216013D

 31 30  0     1  0  0  0  0  0999 V2000
   -2.8437   -4.2496    0.1439 H   0  0  0  0  0  0  0  0  0  0  0  0
   -2.7778   -3.2587   -0.3149 C   0  0  0  0  0  0  0  0  0  0  0  0
   -3.5653   -2.6260    0.1013 H   0  0  0  0  0  0  0  0  0  0  0  0
   -2.9306   -3.3602   -1.3921 H   0  0  0  0  0  0  0  0  0  0  0  0
   -1.4177   -2.6454   -0.0388 C   0  0  0  0  0  0  0  0  0  0  0  0
   -0.6036   -3.2558    0.6292 O   0  0  0  0  0  0  0  0  0  0  0  0
   -1.1174   -1.3958   -0.5463 N   0  0  0  0  0  0  0  0  0  0  0  0
   -1.8133   -0.9711   -1.1512 H   0  0  0  0  0  0  0  0  0  0  0  0
    0.1896   -0.7224   -0.4044 C   0  0  1  0  0  0  0  0  0  0  0  0
    0.9628   -1.3878   -0.8055 H   0  0  0  0  0  0  0  0  0  0  0  0
    0.1564    0.5485   -1.3045 C   0  0  0  0  0  0  0  0  0  0  0  0
    0.7358    0.3006   -2.2001 H   0  0  0  0  0  0  0  0  0  0  0  0
   -0.8663    0.7269   -1.6519 H   0  0  0  0  0  0  0  0  0  0  0  0
    0.7010    1.8805   -0.7160 C   0  0  0  0  0  0  0  0  0  0  0  0
    1.3382    1.6985    0.1524 H   0  0  0  0  0  0  0  0  0  0  0  0
    1.5952    2.5871   -1.7416 C   0  0  0  0  0  0  0  0  0  0  0  0
    1.0366    2.8031   -2.6579 H   0  0  0  0  0  0  0  0  0  0  0  0
    1.9709    3.5306   -1.3333 H   0  0  0  0  0  0  0  0  0  0  0  0
    2.4549    1.9586   -1.9954 H   0  0  0  0  0  0  0  0  0  0  0  0
   -0.4484    2.7998   -0.2868 C   0  0  0  0  0  0  0  0  0  0  0  0
   -1.0839    2.2991    0.4495 H   0  0  0  0  0  0  0  0  0  0  0  0
   -0.0531    3.7139    0.1671 H   0  0  0  0  0  0  0  0  0  0  0  0
   -1.0645    3.0789   -1.1475 H   0  0  0  0  0  0  0  0  0  0  0  0
    0.5768   -0.4914    1.0774 C   0  0  0  0  0  0  0  0  0  0  0  0
    1.7489   -0.5684    1.4234 O   0  0  0  0  0  0  0  0  0  0  0  0
   -0.3585   -0.0031    1.9725 N   0  0  0  0  0  0  0  0  0  0  0  0
   -1.3269   -0.0336    1.6734 H   0  0  0  0  0  0  0  0  0  0  0  0
   -0.0606    0.2373    3.3781 C   0  0  0  0  0  0  0  0  0  0  0  0
    0.7323    0.9858    3.4783 H   0  0  0  0  0  0  0  0  0  0  0  0
   -0.9509    0.6067    3.8956 H   0  0  0  0  0  0  0  0  0  0  0  0
    0.2651   -0.6886    3.8638 H   0  0  0  0  0  0  0  0  0  0  0  0
  1  2  1  0  0  0  0
  2  3  1  0  0  0  0
  2  4  1  0  0  0  0
  2  5  1  0  0  0  0
  5  6  2  0  0  0  0
  5  7  1  0  0  0  0
  7  8  1  0  0  0  0
  7  9  1  0  0  0  0
  9 10  1  0  0  0  0
  9 11  1  0  0  0  0
  9 24  1  0  0  0  0
 11 12  1  0  0  0  0
 11 13  1  0  0  0  0
 11 14  1  0  0  0  0
 14 15  1  0  0  0  0
 14 16  1  0  0  0  0
 14 20  1  0  0  0  0
 16 17  1  0  0  0  0
 16 18  1  0  0  0  0
 16 19  1  0  0  0  0
 20 21  1  0  0  0  0
 20 22  1  0  0  0  0
 20 23  1  0  0  0  0
 24 25  2  0  0  0  0
 24 26  1  0  0  0  0
 26 27  1  0  0  0  0
 26 28  1  0  0  0  0
 28 29  1  0  0  0  0
 28 30  1  0  0  0  0
 28 31  1  0  0  0  0
M  END
$$$$

  -OEChem-04042216013D

 31 30  0     1  0  0  0  0  0999 V2000
   -2.8281   -4.2791    0.0990 H   0  0  0  0  0  0  0  0  0  0  0  0
   -2.7776   -3.2788   -0.3407 C   0  0  0  0  0  0  0  0  0  0  0  0
   -3.5741   -2.6660    0.0879 H   0  0  0  0  0  0  0  0  0  0  0  0
   -2.9296   -3.3617   -1.4195 H   0  0  0  0  0  0  0  0  0  0  0  0
   -1.4268   -2.6503   -0.0538 C   0  0  0  0  0  0  0  0  0  0  0  0
   -0.5996   -3.2640    0.5951 O   0  0  0  0  0  0  0  0  0  0  0  0
   -1.1486   -1.3832   -0.5292 N   0  0  0  0  0  0  0  0  0  0  0  0
   -1.8545   -0.9509   -1.1170 H   0  0  0  0  0  0  0  0  0  0  0  0
    0.1501   -0.6980   -0.3775 C   0  0  1  0  0  0  0  0  0  0  0  0
    0.9163   -1.3703   -0.7809 H   0  0  0  0  0  0  0  0  0  0  0  0
    0.1507    0.5608   -1.2935 C   0  0  0  0  0  0  0  0  0  0  0  0
    0.7613    0.3019   -2.1651 H   0  0  0  0  0  0  0  0  0  0  0  0
   -0.8601    0.7435   -1.6723 H   0  0  0  0  0  0  0  0  0  0  0  0
    0.6858    1.8895   -0.7021 C   0  0  0  0  0  0  0  0  0  0  0  0
    1.4785    1.6934    0.0262 H   0  0  0  0  0  0  0  0  0  0  0  0
    1.2994    2.7417   -1.8204 C   0  0  0  0  0  0  0  0  0  0  0  0
    0.5597    2.9493   -2.6003 H   0  0  0  0  0  0  0  0  0  0  0  0
    1.6596    3.6945   -1.4198 H   0  0  0  0  0  0  0  0  0  0  0  0
    2.1487    2.2217   -2.2747 H   0  0  0  0  0  0  0  0  0  0  0  0
   -0.4367    2.6977   -0.0347 C   0  0  0  0  0  0  0  0  0  0  0  0
   -0.9404    2.1141    0.7374 H   0  0  0  0  0  0  0  0  0  0  0  0
   -0.0259    3.5979    0.4332 H   0  0  0  0  0  0  0  0  0  0  0  0
   -1.1843    3.0027   -0.7739 H   0  0  0  0  0  0  0  0  0  0  0  0
    0.5682   -0.4913    1.1003 C   0  0  0  0  0  0  0  0  0  0  0  0
    1.7510   -0.5515    1.4115 O   0  0  0  0  0  0  0  0  0  0  0  0
   -0.3445   -0.0350    2.0344 N   0  0  0  0  0  0  0  0  0  0  0  0
   -1.3217   -0.0798    1.7670 H   0  0  0  0  0  0  0  0  0  0  0  0
   -0.0059    0.1828    3.4348 C   0  0  0  0  0  0  0  0  0  0  0  0
    0.7778    0.9421    3.5259 H   0  0  0  0  0  0  0  0  0  0  0  0
   -0.8850    0.5273    3.9874 H   0  0  0  0  0  0  0  0  0  0  0  0
    0.3495   -0.7471    3.8910 H   0  0  0  0  0  0  0  0  0  0  0  0
  1  2  1  0  0  0  0
  2  3  1  0  0  0  0
  2  4  1  0  0  0  0
  2  5  1  0  0  0  0
  5  6  2  0  0  0  0
  5  7  1  0  0  0  0
  7  8  1  0  0  0  0
  7  9  1  0  0  0  0
  9 10  1  0  0  0  0
  9 11  1  0  0  0  0
  9 24  1  0  0  0  0
 11 12  1  0  0  0  0
 11 13  1  0  0  0  0
 11 14  1  0  0  0  0
 14 15  1  0  0  0  0
 14 16  1  0  0  0  0
 14 20  1  0  0  0  0
 16 17  1  0  0  0  0
 16 18  1  0  0  0  0
 16 19  1  0  0  0  0
 20 21  1  0  0  0  0
 20 22  1  0  0  0  0
 20 23  1  0  0  0  0
 24 25  2  0  0  0  0
 24 26  1  0  0  0  0
 26 27  1  0  0  0  0
 26 28  1  0  0  0  0
 28 29  1  0  0  0  0
 28 30  1  0  0  0  0
 28 31  1  0  0  0  0
M  END
$$$$

  -OEChem-04042216013D

 31 30  0     1  0  0  0  0  0999 V2000
   -2.8182   -4.3072    0.0227 H   0  0  0  0  0  0  0  0  0  0  0  0
   -2.7839   -3.2927   -0.3850 C   0  0  0  0  0  0  0  0  0  0  0  0
   -3.5898   -2.7071    0.0634 H   0  0  0  0  0  0  0  0  0  0  0  0
   -2.9351   -3.3437   -1.4659 H   0  0  0  0  0  0  0  0  0  0  0  0
   -1.4428   -2.6529   -0.0788 C   0  0  0  0  0  0  0  0  0  0  0  0
   -0.6015   -3.2798    0.5385 O   0  0  0  0  0  0  0  0  0  0  0  0
   -1.1883   -1.3612   -0.4981 N   0  0  0  0  0  0  0  0  0  0  0  0
   -1.9098   -0.9087   -1.0508 H   0  0  0  0  0  0  0  0  0  0  0  0
    0.1035   -0.6674   -0.3306 C   0  0  1  0  0  0  0  0  0  0  0  0
    0.8567   -1.3507   -0.7405 H   0  0  0  0  0  0  0  0  0  0  0  0
    0.1615    0.5787   -1.2608 C   0  0  0  0  0  0  0  0  0  0  0  0
    0.7985    0.3019   -2.1077 H   0  0  0  0  0  0  0  0  0  0  0  0
   -0.8357    0.7645   -1.6720 H   0  0  0  0  0  0  0  0  0  0  0  0
    0.6889    1.9175   -0.6898 C   0  0  0  0  0  0  0  0  0  0  0  0
    1.6035    1.7473   -0.1113 H   0  0  0  0  0  0  0  0  0  0  0  0
    1.0049    2.8585   -1.8623 C   0  0  0  0  0  0  0  0  0  0  0  0
    0.1112    3.0439   -2.4669 H   0  0  0  0  0  0  0  0  0  0  0  0
    1.3807    3.8181   -1.4934 H   0  0  0  0  0  0  0  0  0  0  0  0
    1.7746    2.4210   -2.5058 H   0  0  0  0  0  0  0  0  0  0  0  0
   -0.3545    2.6491    0.1725 C   0  0  0  0  0  0  0  0  0  0  0  0
   -0.5985    2.0957    1.0755 H   0  0  0  0  0  0  0  0  0  0  0  0
    0.0310    3.6255    0.4828 H   0  0  0  0  0  0  0  0  0  0  0  0
   -1.2790    2.8070   -0.3917 H   0  0  0  0  0  0  0  0  0  0  0  0
    0.5565   -0.5150    1.1430 C   0  0  0  0  0  0  0  0  0  0  0  0
    1.7504   -0.5462    1.4131 O   0  0  0  0  0  0  0  0  0  0  0  0
   -0.3334   -0.1122    2.1225 N   0  0  0  0  0  0  0  0  0  0  0  0
   -1.3179   -0.1664    1.8849 H   0  0  0  0  0  0  0  0  0  0  0  0
    0.0454    0.0592    3.5192 C   0  0  0  0  0  0  0  0  0  0  0  0
    0.8214    0.8260    3.6139 H   0  0  0  0  0  0  0  0  0  0  0  0
   -0.8209    0.3703    4.1106 H   0  0  0  0  0  0  0  0  0  0  0  0
    0.4272   -0.8813    3.9303 H   0  0  0  0  0  0  0  0  0  0  0  0
  1  2  1  0  0  0  0
  2  3  1  0  0  0  0
  2  4  1  0  0  0  0
  2  5  1  0  0  0  0
  5  6  2  0  0  0  0
  5  7  1  0  0  0  0
  7  8  1  0  0  0  0
  7  9  1  0  0  0  0
  9 10  1  0  0  0  0
  9 11  1  0  0  0  0
  9 24  1  0  0  0  0
 11 12  1  0  0  0  0
 11 13  1  0  0  0  0
 11 14  1  0  0  0  0
 14 15  1  0  0  0  0
 14 16  1  0  0  0  0
 14 20  1  0  0  0  0
 16 17  1  0  0  0  0
 16 18  1  0  0  0  0
 16 19  1  0  0  0  0
 20 21  1  0  0  0  0
 20 22  1  0  0  0  0
 20 23  1  0  0  0  0
 24 25  2  0  0  0  0
 24 26  1  0  0  0  0
 26 27  1  0  0  0  0
 26 28  1  0  0  0  0
 28 29  1  0  0  0  0
 28 30  1  0  0  0  0
 28 31  1  0  0  0  0
M  END
$$$$

  -OEChem-04042216013D

 31 30  0     1  0  0  0  0  0999 V2000
   -2.9002   -4.2258    0.0396 H   0  0  0  0  0  0  0  0  0  0  0  0
   -2.8167   -3.2226   -0.3884 C   0  0  0  0  0  0  0  0  0  0  0  0
   -3.6092   -2.5959    0.0276 H   0  0  0  0  0  0  0  0  0  0  0  0
   -2.9442   -3.2916   -1.4714 H   0  0  0  0  0  0  0  0  0  0  0  0
   -1.4592   -2.6287   -0.0624 C   0  0  0  0  0  0  0  0  0  0  0  0
   -0.6627   -3.2702    0.5977 O   0  0  0  0  0  0  0  0  0  0  0  0
   -1.1380   -1.3652   -0.5215 N   0  0  0  0  0  0  0  0  0  0  0  0
   -1.8165   -0.9166   -1.1291 H   0  0  0  0  0  0  0  0  0  0  0  0
    0.1805   -0.7200   -0.3519 C   0  0  1  0  0  0  0  0  0  0  0  0
    0.9401   -1.4009   -0.7530 H   0  0  0  0  0  0  0  0  0  0  0  0
    0.2098    0.5467   -1.2550 C   0  0  0  0  0  0  0  0  0  0  0  0
    0.5262    0.2194   -2.2511 H   0  0  0  0  0  0  0  0  0  0  0  0
   -0.8200    0.9066   -1.3505 H   0  0  0  0  0  0  0  0  0  0  0  0
    1.0616    1.7848   -0.8612 C   0  0  0  0  0  0  0  0  0  0  0  0
    2.1179    1.4966   -0.8145 H   0  0  0  0  0  0  0  0  0  0  0  0
    0.8708    2.8422   -1.9613 C   0  0  0  0  0  0  0  0  0  0  0  0
   -0.1694    3.1821   -2.0000 H   0  0  0  0  0  0  0  0  0  0  0  0
    1.5133    3.7093   -1.7768 H   0  0  0  0  0  0  0  0  0  0  0  0
    1.1385    2.4296   -2.9392 H   0  0  0  0  0  0  0  0  0  0  0  0
    0.6694    2.4675    0.4620 C   0  0  0  0  0  0  0  0  0  0  0  0
    1.1542    1.9828    1.3114 H   0  0  0  0  0  0  0  0  0  0  0  0
    0.9967    3.5119    0.4735 H   0  0  0  0  0  0  0  0  0  0  0  0
   -0.4153    2.4475    0.6043 H   0  0  0  0  0  0  0  0  0  0  0  0
    0.5639   -0.5550    1.1369 C   0  0  0  0  0  0  0  0  0  0  0  0
    1.7340   -0.6640    1.4815 O   0  0  0  0  0  0  0  0  0  0  0  0
   -0.3678   -0.0885    2.0491 N   0  0  0  0  0  0  0  0  0  0  0  0
   -1.3356   -0.1045    1.7466 H   0  0  0  0  0  0  0  0  0  0  0  0
   -0.0787    0.0528    3.4705 C   0  0  0  0  0  0  0  0  0  0  0  0
    0.7521    0.7489    3.6269 H   0  0  0  0  0  0  0  0  0  0  0  0
   -0.9556    0.4403    3.9978 H   0  0  0  0  0  0  0  0  0  0  0  0
    0.1881   -0.9170    3.9037 H   0  0  0  0  0  0  0  0  0  0  0  0
  1  2  1  0  0  0  0
  2  3  1  0  0  0  0
  2  4  1  0  0  0  0
  2  5  1  0  0  0  0
  5  6  2  0  0  0  0
  5  7  1  0  0  0  0
  7  8  1  0  0  0  0
  7  9  1  0  0  0  0
  9 10  1  0  0  0  0
  9 11  1  0  0  0  0
  9 24  1  0  0  0  0
 11 12  1  0  0  0  0
 11 13  1  0  0  0  0
 11 14  1  0  0  0  0
 14 15  1  0  0  0  0
 14 16  1  0  0  0  0
 14 20  1  0  0  0  0
 16 17  1  0  0  0  0
 16 18  1  0  0  0  0
 16 19  1  0  0  0  0
 20 21  1  0  0  0  0
 20 22  1  0  0  0  0
 20 23  1  0  0  0  0
 24 25  2  0  0  0  0
 24 26  1  0  0  0  0
 26 27  1  0  0  0  0
 26 28  1  0  0  0  0
 28 29  1  0  0  0  0
 28 30  1  0  0  0  0
 28 31  1  0  0  0  0
M  END
$$$$

  -OEChem-04042216013D

 31 30  0     1  0  0  0  0  0999 V2000
   -2.9493   -4.1926    0.0163 H   0  0  0  0  0  0  0  0  0  0  0  0
   -2.8442   -3.1862   -0.3993 C   0  0  0  0  0  0  0  0  0  0  0  0
   -3.6214   -2.5475    0.0270 H   0  0  0  0  0  0  0  0  0  0  0  0
   -2.9766   -3.2388   -1.4826 H   0  0  0  0  0  0  0  0  0  0  0  0
   -1.4727   -2.6270   -0.0704 C   0  0  0  0  0  0  0  0  0  0  0  0
   -0.6872   -3.2970    0.5744 O   0  0  0  0  0  0  0  0  0  0  0  0
   -1.1275   -1.3630   -0.5104 N   0  0  0  0  0  0  0  0  0  0  0  0
   -1.8012   -0.8892   -1.1040 H   0  0  0  0  0  0  0  0  0  0  0  0
    0.1998   -0.7397   -0.3238 C   0  0  1  0  0  0  0  0  0  0  0  0
    0.9537   -1.4260   -0.7262 H   0  0  0  0  0  0  0  0  0  0  0  0
    0.2415    0.5289   -1.2303 C   0  0  0  0  0  0  0  0  0  0  0  0
    0.5374    0.1995   -2.2319 H   0  0  0  0  0  0  0  0  0  0  0  0
   -0.7925    0.8816   -1.3076 H   0  0  0  0  0  0  0  0  0  0  0  0
    1.0830    1.7941   -0.8841 C   0  0  0  0  0  0  0  0  0  0  0  0
    2.1370    1.5847   -1.0970 H   0  0  0  0  0  0  0  0  0  0  0  0
    0.5862    2.9352   -1.7891 C   0  0  0  0  0  0  0  0  0  0  0  0
   -0.4422    3.2162   -1.5391 H   0  0  0  0  0  0  0  0  0  0  0  0
    1.2234    3.8185   -1.6786 H   0  0  0  0  0  0  0  0  0  0  0  0
    0.6175    2.6288   -2.8395 H   0  0  0  0  0  0  0  0  0  0  0  0
    0.9749    2.3423    0.5497 C   0  0  0  0  0  0  0  0  0  0  0  0
    1.6024    1.7735    1.2382 H   0  0  0  0  0  0  0  0  0  0  0  0
    1.3272    3.3777    0.5956 H   0  0  0  0  0  0  0  0  0  0  0  0
   -0.0626    2.3209    0.8963 H   0  0  0  0  0  0  0  0  0  0  0  0
    0.5706   -0.6018    1.1704 C   0  0  0  0  0  0  0  0  0  0  0  0
    1.7251   -0.7895    1.5334 O   0  0  0  0  0  0  0  0  0  0  0  0
   -0.3589   -0.1336    2.0834 N   0  0  0  0  0  0  0  0  0  0  0  0
   -1.3211   -0.0944    1.7661 H   0  0  0  0  0  0  0  0  0  0  0  0
   -0.0836   -0.0389    3.5110 C   0  0  0  0  0  0  0  0  0  0  0  0
    0.7497    0.6470    3.6957 H   0  0  0  0  0  0  0  0  0  0  0  0
   -0.9633    0.3366    4.0418 H   0  0  0  0  0  0  0  0  0  0  0  0
    0.1734   -1.0232    3.9167 H   0  0  0  0  0  0  0  0  0  0  0  0
  1  2  1  0  0  0  0
  2  3  1  0  0  0  0
  2  4  1  0  0  0  0
  2  5  1  0  0  0  0
  5  6  2  0  0  0  0
  5  7  1  0  0  0  0
  7  8  1  0  0  0  0
  7  9  1  0  0  0  0
  9 10  1  0  0  0  0
  9 11  1  0  0  0  0
  9 24  1  0  0  0  0
 11 12  1  0  0  0  0
 11 13  1  0  0  0  0
 11 14  1  0  0  0  0
 14 15  1  0  0  0  0
 14 16  1  0  0  0  0
 14 20  1  0  0  0  0
 16 17  1  0  0  0  0
 16 18  1  0  0  0  0
 16 19  1  0  0  0  0
 20 21  1  0  0  0  0
 20 22  1  0  0  0  0
 20 23  1  0  0  0  0
 24 25  2  0  0  0  0
 24 26  1  0  0  0  0
 26 27  1  0  0  0  0
 26 28  1  0  0  0  0
 28 29  1  0  0  0  0
 28 30  1  0  0  0  0
 28 31  1  0  0  0  0
M  END
$$$$

  -OEChem-04042216013D

 31 30  0     1  0  0  0  0  0999 V2000
   -2.9754   -4.1699    0.0489 H   0  0  0  0  0  0  0  0  0  0  0  0
   -2.8547   -3.1673   -0.3716 C   0  0  0  0  0  0  0  0  0  0  0  0
   -3.6165   -2.5125    0.0581 H   0  0  0  0  0  0  0  0  0  0  0  0
   -2.9960   -3.2215   -1.4537 H   0  0  0  0  0  0  0  0  0  0  0  0
   -1.4704   -2.6328   -0.0558 C   0  0  0  0  0  0  0  0  0  0  0  0
   -0.6900   -3.3199    0.5766 O   0  0  0  0  0  0  0  0  0  0  0  0
   -1.1066   -1.3759   -0.5017 N   0  0  0  0  0  0  0  0  0  0  0  0
   -1.7780   -0.8916   -1.0893 H   0  0  0  0  0  0  0  0  0  0  0  0
    0.2287   -0.7667   -0.3162 C   0  0  1  0  0  0  0  0  0  0  0  0
    0.9842   -1.4507   -0.7189 H   0  0  0  0  0  0  0  0  0  0  0  0
    0.2523    0.5102   -1.2186 C   0  0  0  0  0  0  0  0  0  0  0  0
    0.5176    0.1830   -2.2295 H   0  0  0  0  0  0  0  0  0  0  0  0
   -0.7883    0.8483   -1.2667 H   0  0  0  0  0  0  0  0  0  0  0  0
    1.0824    1.8022   -0.9198 C   0  0  0  0  0  0  0  0  0  0  0  0
    2.0488    1.6957   -1.4243 H   0  0  0  0  0  0  0  0  0  0  0  0
    0.3316    3.0045   -1.5188 C   0  0  0  0  0  0  0  0  0  0  0  0
   -0.6045    3.1891   -0.9813 H   0  0  0  0  0  0  0  0  0  0  0  0
    0.9463    3.9087   -1.4630 H   0  0  0  0  0  0  0  0  0  0  0  0
    0.0983    2.8213   -2.5725 H   0  0  0  0  0  0  0  0  0  0  0  0
    1.3744    2.1825    0.5384 C   0  0  0  0  0  0  0  0  0  0  0  0
    2.1052    1.5030    0.9807 H   0  0  0  0  0  0  0  0  0  0  0  0
    1.8102    3.1853    0.5900 H   0  0  0  0  0  0  0  0  0  0  0  0
    0.4583    2.1840    1.1350 H   0  0  0  0  0  0  0  0  0  0  0  0
    0.5724   -0.6355    1.1864 C   0  0  0  0  0  0  0  0  0  0  0  0
    1.6979   -0.9044    1.5871 O   0  0  0  0  0  0  0  0  0  0  0  0
   -0.3689   -0.1559    2.0813 N   0  0  0  0  0  0  0  0  0  0  0  0
   -1.3161   -0.0595    1.7328 H   0  0  0  0  0  0  0  0  0  0  0  0
   -0.1350   -0.0968    3.5180 C   0  0  0  0  0  0  0  0  0  0  0  0
    0.7283    0.5397    3.7392 H   0  0  0  0  0  0  0  0  0  0  0  0
   -1.0095    0.3193    4.0270 H   0  0  0  0  0  0  0  0  0  0  0  0
    0.0550   -1.0996    3.9150 H   0  0  0  0  0  0  0  0  0  0  0  0
  1  2  1  0  0  0  0
  2  3  1  0  0  0  0
  2  4  1  0  0  0  0
  2  5  1  0  0  0  0
  5  6  2  0  0  0  0
  5  7  1  0  0  0  0
  7  8  1  0  0  0  0
  7  9  1  0  0  0  0
  9 10  1  0  0  0  0
  9 11  1  0  0  0  0
  9 24  1  0  0  0  0
 11 12  1  0  0  0  0
 11 13  1  0  0  0  0
 11 14  1  0  0  0  0
 14 15  1  0  0  0  0
 14 16  1  0  0  0  0
 14 20  1  0  0  0  0
 16 17  1  0  0  0  0
 16 18  1  0  0  0  0
 16 19  1  0  0  0  0
 20 21  1  0  0  0  0
 20 22  1  0  0  0  0
 20 23  1  0  0  0  0
 24 25  2  0  0  0  0
 24 26  1  0  0  0  0
 26 27  1  0  0  0  0
 26 28  1  0  0  0  0
 28 29  1  0  0  0  0
 28 30  1  0  0  0  0
 28 31  1  0  0  0  0
M  END
$$$$

  -OEChem-04042216013D

 31 30  0     1  0  0  0  0  0999 V2000
   -2.9944   -4.1545    0.1243 H   0  0  0  0  0  0  0  0  0  0  0  0
   -2.8615   -3.1628   -0.3175 C   0  0  0  0  0  0  0  0  0  0  0  0
   -3.6104   -2.4879    0.1034 H   0  0  0  0  0  0  0  0  0  0  0  0
   -3.0112   -3.2369   -1.3971 H   0  0  0  0  0  0  0  0  0  0  0  0
   -1.4674   -2.6427   -0.0215 C   0  0  0  0  0  0  0  0  0  0  0  0
   -0.6930   -3.3282    0.6195 O   0  0  0  0  0  0  0  0  0  0  0  0
   -1.0898   -1.4012   -0.4984 N   0  0  0  0  0  0  0  0  0  0  0  0
   -1.7581   -0.9245   -1.0955 H   0  0  0  0  0  0  0  0  0  0  0  0
    0.2506   -0.7968   -0.3271 C   0  0  1  0  0  0  0  0  0  0  0  0
    1.0132   -1.4744   -0.7271 H   0  0  0  0  0  0  0  0  0  0  0  0
    0.2383    0.4894   -1.2178 C   0  0  0  0  0  0  0  0  0  0  0  0
    0.4926    0.1664   -2.2329 H   0  0  0  0  0  0  0  0  0  0  0  0
   -0.8070    0.8131   -1.2577 H   0  0  0  0  0  0  0  0  0  0  0  0
    1.0633    1.7917   -0.9356 C   0  0  0  0  0  0  0  0  0  0  0  0
    1.8450    1.8248   -1.7027 H   0  0  0  0  0  0  0  0  0  0  0  0
    0.1657    3.0232   -1.1369 C   0  0  0  0  0  0  0  0  0  0  0  0
   -0.6181    3.0581   -0.3731 H   0  0  0  0  0  0  0  0  0  0  0  0
    0.7547    3.9435   -1.0705 H   0  0  0  0  0  0  0  0  0  0  0  0
   -0.3071    2.9954   -2.1238 H   0  0  0  0  0  0  0  0  0  0  0  0
    1.7954    1.9639    0.3996 C   0  0  0  0  0  0  0  0  0  0  0  0
    2.5351    1.1713    0.5374 H   0  0  0  0  0  0  0  0  0  0  0  0
    2.3372    2.9148    0.4100 H   0  0  0  0  0  0  0  0  0  0  0  0
    1.0968    1.9727    1.2400 H   0  0  0  0  0  0  0  0  0  0  0  0
    0.5684   -0.6396    1.1797 C   0  0  0  0  0  0  0  0  0  0  0  0
    1.6705   -0.9434    1.6184 O   0  0  0  0  0  0  0  0  0  0  0  0
   -0.3881   -0.1344    2.0441 N   0  0  0  0  0  0  0  0  0  0  0  0
   -1.3222   -0.0203    1.6670 H   0  0  0  0  0  0  0  0  0  0  0  0
   -0.1977   -0.0787    3.4874 C   0  0  0  0  0  0  0  0  0  0  0  0
    0.6788    0.5294    3.7342 H   0  0  0  0  0  0  0  0  0  0  0  0
   -1.0731    0.3680    3.9679 H   0  0  0  0  0  0  0  0  0  0  0  0
   -0.0535   -1.0859    3.8927 H   0  0  0  0  0  0  0  0  0  0  0  0
  1  2  1  0  0  0  0
  2  3  1  0  0  0  0
  2  4  1  0  0  0  0
  2  5  1  0  0  0  0
  5  6  2  0  0  0  0
  5  7  1  0  0  0  0
  7  8  1  0  0  0  0
  7  9  1  0  0  0  0
  9 10  1  0  0  0  0
  9 11  1  0  0  0  0
  9 24  1  0  0  0  0
 11 12  1  0  0  0  0
 11 13  1  0  0  0  0
 11 14  1  0  0  0  0
 14 15  1  0  0  0  0
 14 16  1  0  0  0  0
 14 20  1  0  0  0  0
 16 17  1  0  0  0  0
 16 18  1  0  0  0  0
 16 19  1  0  0  0  0
 20 21  1  0  0  0  0
 20 22  1  0  0  0  0
 20 23  1  0  0  0  0
 24 25  2  0  0  0  0
 24 26  1  0  0  0  0
 26 27  1  0  0  0  0
 26 28  1  0  0  0  0
 28 29  1  0  0  0  0
 28 30  1  0  0  0  0
 28 31  1  0  0  0  0
M  END
$$$$

  -OEChem-04042216013D

 31 30  0     1  0  0  0  0  0999 V2000
   -3.0004   -4.1574    0.1456 H   0  0  0  0  0  0  0  0  0  0  0  0
   -2.8636   -3.1734   -0.3120 C   0  0  0  0  0  0  0  0  0  0  0  0
   -3.6161   -2.4916    0.0910 H   0  0  0  0  0  0  0  0  0  0  0  0
   -3.0039   -3.2663   -1.3916 H   0  0  0  0  0  0  0  0  0  0  0  0
   -1.4718   -2.6486   -0.0124 C   0  0  0  0  0  0  0  0  0  0  0  0
   -0.7073   -3.3203    0.6546 O   0  0  0  0  0  0  0  0  0  0  0  0
   -1.0850   -1.4195   -0.5142 N   0  0  0  0  0  0  0  0  0  0  0  0
   -1.7437   -0.9569   -1.1328 H   0  0  0  0  0  0  0  0  0  0  0  0
    0.2554   -0.8153   -0.3421 C   0  0  1  0  0  0  0  0  0  0  0  0
    1.0261   -1.4885   -0.7334 H   0  0  0  0  0  0  0  0  0  0  0  0
    0.2275    0.4764   -1.2208 C   0  0  0  0  0  0  0  0  0  0  0  0
    0.5095    0.1566   -2.2297 H   0  0  0  0  0  0  0  0  0  0  0  0
   -0.8167    0.7986   -1.2899 H   0  0  0  0  0  0  0  0  0  0  0  0
    1.0577    1.7655   -0.9082 C   0  0  0  0  0  0  0  0  0  0  0  0
    1.6167    1.9712   -1.8279 H   0  0  0  0  0  0  0  0  0  0  0  0
    0.1313    2.9709   -0.6984 C   0  0  0  0  0  0  0  0  0  0  0  0
   -0.4890    2.8249    0.1916 H   0  0  0  0  0  0  0  0  0  0  0  0
    0.7178    3.8856   -0.5659 H   0  0  0  0  0  0  0  0  0  0  0  0
   -0.5234    3.1099   -1.5643 H   0  0  0  0  0  0  0  0  0  0  0  0
    2.1233    1.7334    0.1920 C   0  0  0  0  0  0  0  0  0  0  0  0
    2.7612    0.8511    0.0843 H   0  0  0  0  0  0  0  0  0  0  0  0
    2.7636    2.6175    0.1146 H   0  0  0  0  0  0  0  0  0  0  0  0
    1.6715    1.7430    1.1874 H   0  0  0  0  0  0  0  0  0  0  0  0
    0.5554   -0.6242    1.1655 C   0  0  0  0  0  0  0  0  0  0  0  0
    1.6455   -0.9351    1.6293 O   0  0  0  0  0  0  0  0  0  0  0  0
   -0.4092   -0.0955    2.0062 N   0  0  0  0  0  0  0  0  0  0  0  0
   -1.3362    0.0216    1.6128 H   0  0  0  0  0  0  0  0  0  0  0  0
   -0.2399   -0.0131    3.4511 C   0  0  0  0  0  0  0  0  0  0  0  0
    0.6363    0.5947    3.6997 H   0  0  0  0  0  0  0  0  0  0  0  0
   -1.1198    0.4474    3.9101 H   0  0  0  0  0  0  0  0  0  0  0  0
   -0.1077   -1.0132    3.8773 H   0  0  0  0  0  0  0  0  0  0  0  0
  1  2  1  0  0  0  0
  2  3  1  0  0  0  0
  2  4  1  0  0  0  0
  2  5  1  0  0  0  0
  5  6  2  0  0  0  0
  5  7  1  0  0  0  0
  7  8  1  0  0  0  0
  7  9  1  0  0  0  0
  9 10  1  0  0  0  0
  9 11  1  0  0  0  0
  9 24  1  0  0  0  0
 11 12  1  0  0  0  0
 11 13  1  0  0  0  0
 11 14  1  0  0  0  0
 14 15  1  0  0  0  0
 14 16  1  0  0  0  0
 14 20  1  0  0  0  0
 16 17  1  0  0  0  0
 16 18  1  0  0  0  0
 16 19  1  0  0  0  0
 20 21  1  0  0  0  0
 20 22  1  0  0  0  0
 20 23  1  0  0  0  0
 24 25  2  0  0  0  0
 24 26  1  0  0  0  0
 26 27  1  0  0  0  0
 26 28  1  0  0  0  0
 28 29  1  0  0  0  0
 28 30  1  0  0  0  0
 28 31  1  0  0  0  0
M  END
$$$$

  -OEChem-04042216013D

 31 30  0     1  0  0  0  0  0999 V2000
   -2.9824   -4.1695    0.1685 H   0  0  0  0  0  0  0  0  0  0  0  0
   -2.8495   -3.1918   -0.3038 C   0  0  0  0  0  0  0  0  0  0  0  0
   -3.6116   -2.5098    0.0803 H   0  0  0  0  0  0  0  0  0  0  0  0
   -2.9779   -3.3036   -1.3831 H   0  0  0  0  0  0  0  0  0  0  0  0
   -1.4659   -2.6493    0.0011 C   0  0  0  0  0  0  0  0  0  0  0  0
   -0.7034   -3.3017    0.6891 O   0  0  0  0  0  0  0  0  0  0  0  0
   -1.0842   -1.4272   -0.5207 N   0  0  0  0  0  0  0  0  0  0  0  0
   -1.7380   -0.9854   -1.1593 H   0  0  0  0  0  0  0  0  0  0  0  0
    0.2524   -0.8152   -0.3551 C   0  0  1  0  0  0  0  0  0  0  0  0
    1.0264   -1.4875   -0.7418 H   0  0  0  0  0  0  0  0  0  0  0  0
    0.2143    0.4711   -1.2354 C   0  0  0  0  0  0  0  0  0  0  0  0
    0.5166    0.1524   -2.2386 H   0  0  0  0  0  0  0  0  0  0  0  0
   -0.8269    0.7987   -1.3229 H   0  0  0  0  0  0  0  0  0  0  0  0
    1.0514    1.7403   -0.8939 C   0  0  0  0  0  0  0  0  0  0  0  0
    1.3881    2.1191   -1.8655 H   0  0  0  0  0  0  0  0  0  0  0  0
    0.1711    2.8504   -0.3067 C   0  0  0  0  0  0  0  0  0  0  0  0
   -0.2542    2.5353    0.6510 H   0  0  0  0  0  0  0  0  0  0  0  0
    0.7627    3.7563   -0.1411 H   0  0  0  0  0  0  0  0  0  0  0  0
   -0.6473    3.0984   -0.9896 H   0  0  0  0  0  0  0  0  0  0  0  0
    2.3355    1.5607   -0.0764 C   0  0  0  0  0  0  0  0  0  0  0  0
    2.8482    0.6353   -0.3568 H   0  0  0  0  0  0  0  0  0  0  0  0
    3.0156    2.3965   -0.2672 H   0  0  0  0  0  0  0  0  0  0  0  0
    2.1262    1.5497    0.9966 H   0  0  0  0  0  0  0  0  0  0  0  0
    0.5601   -0.5924    1.1470 C   0  0  0  0  0  0  0  0  0  0  0  0
    1.6486   -0.9059    1.6128 O   0  0  0  0  0  0  0  0  0  0  0  0
   -0.4009   -0.0504    1.9829 N   0  0  0  0  0  0  0  0  0  0  0  0
   -1.3301    0.0548    1.5913 H   0  0  0  0  0  0  0  0  0  0  0  0
   -0.2295    0.0455    3.4268 C   0  0  0  0  0  0  0  0  0  0  0  0
    0.6590    0.6384    3.6687 H   0  0  0  0  0  0  0  0  0  0  0  0
   -1.1001    0.5290    3.8799 H   0  0  0  0  0  0  0  0  0  0  0  0
   -0.1176   -0.9521    3.8644 H   0  0  0  0  0  0  0  0  0  0  0  0
  1  2  1  0  0  0  0
  2  3  1  0  0  0  0
  2  4  1  0  0  0  0
  2  5  1  0  0  0  0
  5  6  2  0  0  0  0
  5  7  1  0  0  0  0
  7  8  1  0  0  0  0
  7  9  1  0  0  0  0
  9 10  1  0  0  0  0
  9 11  1  0  0  0  0
  9 24  1  0  0  0  0
 11 12  1  0  0  0  0
 11 13  1  0  0  0  0
 11 14  1  0  0  0  0
 14 15  1  0  0  0  0
 14 16  1  0  0  0  0
 14 20  1  0  0  0  0
 16 17  1  0  0  0  0
 16 18  1  0  0  0  0
 16 19  1  0  0  0  0
 20 21  1  0  0  0  0
 20 22  1  0  0  0  0
 20 23  1  0  0  0  0
 24 25  2  0  0  0  0
 24 26  1  0  0  0  0
 26 27  1  0  0  0  0
 26 28  1  0  0  0  0
 28 29  1  0  0  0  0
 28 30  1  0  0  0  0
 28 31  1  0  0  0  0
M  END
$$$$

  -OEChem-04042216013D

 31 30  0     1  0  0  0  0  0999 V2000
   -2.9610   -4.1902    0.1611 H   0  0  0  0  0  0  0  0  0  0  0  0
   -2.8443   -3.2039   -0.2974 C   0  0  0  0  0  0  0  0  0  0  0  0
   -3.6076   -2.5356    0.1081 H   0  0  0  0  0  0  0  0  0  0  0  0
   -2.9872   -3.2997   -1.3764 H   0  0  0  0  0  0  0  0  0  0  0  0
   -1.4616   -2.6527   -0.0028 C   0  0  0  0  0  0  0  0  0  0  0  0
   -0.6883   -3.3004    0.6777 O   0  0  0  0  0  0  0  0  0  0  0  0
   -1.0939   -1.4248   -0.5205 N   0  0  0  0  0  0  0  0  0  0  0  0
   -1.7576   -0.9808   -1.1472 H   0  0  0  0  0  0  0  0  0  0  0  0
    0.2370   -0.8015   -0.3575 C   0  0  1  0  0  0  0  0  0  0  0  0
    1.0093   -1.4793   -0.7387 H   0  0  0  0  0  0  0  0  0  0  0  0
    0.2175    0.4698   -1.2576 C   0  0  0  0  0  0  0  0  0  0  0  0
    0.5333    0.1408   -2.2533 H   0  0  0  0  0  0  0  0  0  0  0  0
   -0.8179    0.8098   -1.3610 H   0  0  0  0  0  0  0  0  0  0  0  0
    1.0591    1.7267   -0.9064 C   0  0  0  0  0  0  0  0  0  0  0  0
    1.2038    2.2405   -1.8633 H   0  0  0  0  0  0  0  0  0  0  0  0
    0.3010    2.7206   -0.0173 C   0  0  0  0  0  0  0  0  0  0  0  0
    0.1501    2.3168    0.9860 H   0  0  0  0  0  0  0  0  0  0  0  0
    0.8706    3.6507    0.0736 H   0  0  0  0  0  0  0  0  0  0  0  0
   -0.6755    2.9596   -0.4491 H   0  0  0  0  0  0  0  0  0  0  0  0
    2.4688    1.4524   -0.3679 C   0  0  0  0  0  0  0  0  0  0  0  0
    2.8836    0.5406   -0.8091 H   0  0  0  0  0  0  0  0  0  0  0  0
    3.1306    2.2865   -0.6204 H   0  0  0  0  0  0  0  0  0  0  0  0
    2.4687    1.3546    0.7203 H   0  0  0  0  0  0  0  0  0  0  0  0
    0.5582   -0.5790    1.1420 C   0  0  0  0  0  0  0  0  0  0  0  0
    1.6610   -0.8627    1.5918 O   0  0  0  0  0  0  0  0  0  0  0  0
   -0.3987   -0.0490    1.9903 N   0  0  0  0  0  0  0  0  0  0  0  0
   -1.3359    0.0386    1.6135 H   0  0  0  0  0  0  0  0  0  0  0  0
   -0.2044    0.0651    3.4298 C   0  0  0  0  0  0  0  0  0  0  0  0
    0.6476    0.7165    3.6512 H   0  0  0  0  0  0  0  0  0  0  0  0
   -1.0955    0.4923    3.8992 H   0  0  0  0  0  0  0  0  0  0  0  0
   -0.0182   -0.9205    3.8694 H   0  0  0  0  0  0  0  0  0  0  0  0
  1  2  1  0  0  0  0
  2  3  1  0  0  0  0
  2  4  1  0  0  0  0
  2  5  1  0  0  0  0
  5  6  2  0  0  0  0
  5  7  1  0  0  0  0
  7  8  1  0  0  0  0
  7  9  1  0  0  0  0
  9 10  1  0  0  0  0
  9 11  1  0  0  0  0
  9 24  1  0  0  0  0
 11 12  1  0  0  0  0
 11 13  1  0  0  0  0
 11 14  1  0  0  0  0
 14 15  1  0  0  0  0
 14 16  1  0  0  0  0
 14 20  1  0  0  0  0
 16 17  1  0  0  0  0
 16 18  1  0  0  0  0
 16 19  1  0  0  0  0
 20 21  1  0  0  0  0
 20 22  1  0  0  0  0
 20 23  1  0  0  0  0
 24 25  2  0  0  0  0
 24 26  1  0  0  0  0
 26 27  1  0  0  0  0
 26 28  1  0  0  0  0
 28 29  1  0  0  0  0
 28 30  1  0  0  0  0
 28 31  1  0  0  0  0
M  END
$$$$

  -OEChem-04042216013D

 31 30  0     1  0  0  0  0  0999 V2000
   -2.9616   -4.1850    0.1721 H   0  0  0  0  0  0  0  0  0  0  0  0
   -2.8466   -3.1994   -0.2885 C   0  0  0  0  0  0  0  0  0  0  0  0
   -3.6054   -2.5292    0.1222 H   0  0  0  0  0  0  0  0  0  0  0  0
   -2.9983   -3.2963   -1.3662 H   0  0  0  0  0  0  0  0  0  0  0  0
   -1.4607   -2.6508   -0.0052 C   0  0  0  0  0  0  0  0  0  0  0  0
   -0.6810   -3.3025    0.6641 O   0  0  0  0  0  0  0  0  0  0  0  0
   -1.0943   -1.4224   -0.5232 N   0  0  0  0  0  0  0  0  0  0  0  0
   -1.7634   -0.9730   -1.1403 H   0  0  0  0  0  0  0  0  0  0  0  0
    0.2367   -0.7984   -0.3617 C   0  0  1  0  0  0  0  0  0  0  0  0
    1.0089   -1.4792   -0.7371 H   0  0  0  0  0  0  0  0  0  0  0  0
    0.2320    0.4695   -1.2659 C   0  0  0  0  0  0  0  0  0  0  0  0
    0.5325    0.1414   -2.2666 H   0  0  0  0  0  0  0  0  0  0  0  0
   -0.7997    0.8259   -1.3521 H   0  0  0  0  0  0  0  0  0  0  0  0
    1.0807    1.7183   -0.9131 C   0  0  0  0  0  0  0  0  0  0  0  0
    1.0193    2.3556   -1.8022 H   0  0  0  0  0  0  0  0  0  0  0  0
    0.5236    2.5659    0.2381 C   0  0  0  0  0  0  0  0  0  0  0  0
    0.7890    2.1423    1.2093 H   0  0  0  0  0  0  0  0  0  0  0  0
    0.9456    3.5745    0.1918 H   0  0  0  0  0  0  0  0  0  0  0  0
   -0.5654    2.6467    0.1712 H   0  0  0  0  0  0  0  0  0  0  0  0
    2.5696    1.4081   -0.7137 C   0  0  0  0  0  0  0  0  0  0  0  0
    2.9268    0.7283   -1.4932 H   0  0  0  0  0  0  0  0  0  0  0  0
    3.1525    2.3325   -0.7714 H   0  0  0  0  0  0  0  0  0  0  0  0
    2.7634    0.9547    0.2593 H   0  0  0  0  0  0  0  0  0  0  0  0
    0.5497   -0.5800    1.1406 C   0  0  0  0  0  0  0  0  0  0  0  0
    1.6592   -0.8291    1.5929 O   0  0  0  0  0  0  0  0  0  0  0  0
   -0.4158   -0.0539    1.9826 N   0  0  0  0  0  0  0  0  0  0  0  0
   -1.3529    0.0183    1.6024 H   0  0  0  0  0  0  0  0  0  0  0  0
   -0.2286    0.0661    3.4228 C   0  0  0  0  0  0  0  0  0  0  0  0
    0.6212    0.7198    3.6456 H   0  0  0  0  0  0  0  0  0  0  0  0
   -1.1227    0.4929    3.8867 H   0  0  0  0  0  0  0  0  0  0  0  0
   -0.0420   -0.9175    3.8668 H   0  0  0  0  0  0  0  0  0  0  0  0
  1  2  1  0  0  0  0
  2  3  1  0  0  0  0
  2  4  1  0  0  0  0
  2  5  1  0  0  0  0
  5  6  2  0  0  0  0
  5  7  1  0  0  0  0
  7  8  1  0  0  0  0
  7  9  1  0  0  0  0
  9 10  1  0  0  0  0
  9 11  1  0  0  0  0
  9 24  1  0  0  0  0
 11 12  1  0  0  0  0
 11 13  1  0  0  0  0
 11 14  1  0  0  0  0
 14 15  1  0  0  0  0
 14 16  1  0  0  0  0
 14 20  1  0  0  0  0
 16 17  1  0  0  0  0
 16 18  1  0  0  0  0
 16 19  1  0  0  0  0
 20 21  1  0  0  0  0
 20 22  1  0  0  0  0
 20 23  1  0  0  0  0
 24 25  2  0  0  0  0
 24 26  1  0  0  0  0
 26 27  1  0  0  0  0
 26 28  1  0  0  0  0
 28 29  1  0  0  0  0
 28 30  1  0  0  0  0
 28 31  1  0  0  0  0
M  END
$$$$

  -OEChem-04042216013D

 31 30  0     1  0  0  0  0  0999 V2000
   -2.9558   -4.2045    0.1333 H   0  0  0  0  0  0  0  0  0  0  0  0
   -2.8465   -3.2148   -0.3197 C   0  0  0  0  0  0  0  0  0  0  0  0
   -3.6191   -2.5565    0.0844 H   0  0  0  0  0  0  0  0  0  0  0  0
   -2.9823   -3.3068   -1.3999 H   0  0  0  0  0  0  0  0  0  0  0  0
   -1.4712   -2.6509   -0.0153 C   0  0  0  0  0  0  0  0  0  0  0  0
   -0.6929   -3.2948    0.6637 O   0  0  0  0  0  0  0  0  0  0  0  0
   -1.1150   -1.4139   -0.5191 N   0  0  0  0  0  0  0  0  0  0  0  0
   -1.7796   -0.9713   -1.1460 H   0  0  0  0  0  0  0  0  0  0  0  0
    0.2141   -0.7875   -0.3558 C   0  0  1  0  0  0  0  0  0  0  0  0
    0.9781   -1.4773   -0.7320 H   0  0  0  0  0  0  0  0  0  0  0  0
    0.2327    0.4677   -1.2795 C   0  0  0  0  0  0  0  0  0  0  0  0
    0.5187    0.1277   -2.2804 H   0  0  0  0  0  0  0  0  0  0  0  0
   -0.7961    0.8340   -1.3567 H   0  0  0  0  0  0  0  0  0  0  0  0
    1.0798    1.7235   -0.9435 C   0  0  0  0  0  0  0  0  0  0  0  0
    0.8673    2.4485   -1.7368 H   0  0  0  0  0  0  0  0  0  0  0  0
    0.7514    2.4249    0.3817 C   0  0  0  0  0  0  0  0  0  0  0  0
    1.2563    1.9511    1.2271 H   0  0  0  0  0  0  0  0  0  0  0  0
    1.0905    3.4646    0.3418 H   0  0  0  0  0  0  0  0  0  0  0  0
   -0.3277    2.4248    0.5611 H   0  0  0  0  0  0  0  0  0  0  0  0
    2.5784    1.4031   -1.0103 C   0  0  0  0  0  0  0  0  0  0  0  0
    2.8334    0.9706   -1.9826 H   0  0  0  0  0  0  0  0  0  0  0  0
    3.1667    2.3163   -0.8768 H   0  0  0  0  0  0  0  0  0  0  0  0
    2.8685    0.6933   -0.2315 H   0  0  0  0  0  0  0  0  0  0  0  0
    0.5524   -0.5814    1.1409 C   0  0  0  0  0  0  0  0  0  0  0  0
    1.6897   -0.7694    1.5531 O   0  0  0  0  0  0  0  0  0  0  0  0
   -0.3996   -0.0665    2.0048 N   0  0  0  0  0  0  0  0  0  0  0  0
   -1.3501   -0.0288    1.6539 H   0  0  0  0  0  0  0  0  0  0  0  0
   -0.1710    0.0810    3.4364 C   0  0  0  0  0  0  0  0  0  0  0  0
    0.6700    0.7568    3.6228 H   0  0  0  0  0  0  0  0  0  0  0  0
   -1.0600    0.4959    3.9204 H   0  0  0  0  0  0  0  0  0  0  0  0
    0.0507   -0.8909    3.8898 H   0  0  0  0  0  0  0  0  0  0  0  0
  1  2  1  0  0  0  0
  2  3  1  0  0  0  0
  2  4  1  0  0  0  0
  2  5  1  0  0  0  0
  5  6  2  0  0  0  0
  5  7  1  0  0  0  0
  7  8  1  0  0  0  0
  7  9  1  0  0  0  0
  9 10  1  0  0  0  0
  9 11  1  0  0  0  0
  9 24  1  0  0  0  0
 11 12  1  0  0  0  0
 11 13  1  0  0  0  0
 11 14  1  0  0  0  0
 14 15  1  0  0  0  0
 14 16  1  0  0  0  0
 14 20  1  0  0  0  0
 16 17  1  0  0  0  0
 16 18  1  0  0  0  0
 16 19  1  0  0  0  0
 20 21  1  0  0  0  0
 20 22  1  0  0  0  0
 20 23  1  0  0  0  0
 24 25  2  0  0  0  0
 24 26  1  0  0  0  0
 26 27  1  0  0  0  0
 26 28  1  0  0  0  0
 28 29  1  0  0  0  0
 28 30  1  0  0  0  0
 28 31  1  0  0  0  0
M  END
$$$$

  -OEChem-04042216013D

 31 30  0     1  0  0  0  0  0999 V2000
   -2.9525   -4.2169    0.0875 H   0  0  0  0  0  0  0  0  0  0  0  0
   -2.8486   -3.2197   -0.3498 C   0  0  0  0  0  0  0  0  0  0  0  0
   -3.6231   -2.5715    0.0668 H   0  0  0  0  0  0  0  0  0  0  0  0
   -2.9860   -3.2946   -1.4311 H   0  0  0  0  0  0  0  0  0  0  0  0
   -1.4751   -2.6553   -0.0396 C   0  0  0  0  0  0  0  0  0  0  0  0
   -0.6913   -3.3073    0.6252 O   0  0  0  0  0  0  0  0  0  0  0  0
   -1.1267   -1.4067   -0.5190 N   0  0  0  0  0  0  0  0  0  0  0  0
   -1.7970   -0.9523   -1.1312 H   0  0  0  0  0  0  0  0  0  0  0  0
    0.1989   -0.7770   -0.3433 C   0  0  1  0  0  0  0  0  0  0  0  0
    0.9586   -1.4712   -0.7203 H   0  0  0  0  0  0  0  0  0  0  0  0
    0.2363    0.4664   -1.2841 C   0  0  0  0  0  0  0  0  0  0  0  0
    0.5077    0.1111   -2.2837 H   0  0  0  0  0  0  0  0  0  0  0  0
   -0.7932    0.8322   -1.3565 H   0  0  0  0  0  0  0  0  0  0  0  0
    1.0677    1.7452   -0.9792 C   0  0  0  0  0  0  0  0  0  0  0  0
    0.7088    2.5250   -1.6596 H   0  0  0  0  0  0  0  0  0  0  0  0
    1.0099    2.3237    0.4417 C   0  0  0  0  0  0  0  0  0  0  0  0
    1.6509    1.7768    1.1367 H   0  0  0  0  0  0  0  0  0  0  0  0
    1.3605    3.3603    0.4286 H   0  0  0  0  0  0  0  0  0  0  0  0
   -0.0182    2.3214    0.8146 H   0  0  0  0  0  0  0  0  0  0  0  0
    2.5384    1.4634   -1.3130 C   0  0  0  0  0  0  0  0  0  0  0  0
    2.6440    1.1570   -2.3582 H   0  0  0  0  0  0  0  0  0  0  0  0
    3.1449    2.3614   -1.1586 H   0  0  0  0  0  0  0  0  0  0  0  0
    2.9331    0.6649   -0.6761 H   0  0  0  0  0  0  0  0  0  0  0  0
    0.5539   -0.5906    1.1502 C   0  0  0  0  0  0  0  0  0  0  0  0
    1.7014   -0.7761    1.5362 O   0  0  0  0  0  0  0  0  0  0  0  0
   -0.3864   -0.0933    2.0367 N   0  0  0  0  0  0  0  0  0  0  0  0
   -1.3443   -0.0586    1.7055 H   0  0  0  0  0  0  0  0  0  0  0  0
   -0.1291    0.0461    3.4639 C   0  0  0  0  0  0  0  0  0  0  0  0
    0.6989    0.7415    3.6368 H   0  0  0  0  0  0  0  0  0  0  0  0
   -1.0167    0.4333    3.9729 H   0  0  0  0  0  0  0  0  0  0  0  0
    0.1271   -0.9241    3.9025 H   0  0  0  0  0  0  0  0  0  0  0  0
  1  2  1  0  0  0  0
  2  3  1  0  0  0  0
  2  4  1  0  0  0  0
  2  5  1  0  0  0  0
  5  6  2  0  0  0  0
  5  7  1  0  0  0  0
  7  8  1  0  0  0  0
  7  9  1  0  0  0  0
  9 10  1  0  0  0  0
  9 11  1  0  0  0  0
  9 24  1  0  0  0  0
 11 12  1  0  0  0  0
 11 13  1  0  0  0  0
 11 14  1  0  0  0  0
 14 15  1  0  0  0  0
 14 16  1  0  0  0  0
 14 20  1  0  0  0  0
 16 17  1  0  0  0  0
 16 18  1  0  0  0  0
 16 19  1  0  0  0  0
 20 21  1  0  0  0  0
 20 22  1  0  0  0  0
 20 23  1  0  0  0  0
 24 25  2  0  0  0  0
 24 26  1  0  0  0  0
 26 27  1  0  0  0  0
 26 28  1  0  0  0  0
 28 29  1  0  0  0  0
 28 30  1  0  0  0  0
 28 31  1  0  0  0  0
M  END
$$$$

  -OEChem-04042216013D

 31 30  0     1  0  0  0  0  0999 V2000
   -2.9580   -4.2036    0.0905 H   0  0  0  0  0  0  0  0  0  0  0  0
   -2.8436   -3.2074   -0.3467 C   0  0  0  0  0  0  0  0  0  0  0  0
   -3.6135   -2.5518    0.0670 H   0  0  0  0  0  0  0  0  0  0  0  0
   -2.9784   -3.2817   -1.4285 H   0  0  0  0  0  0  0  0  0  0  0  0
   -1.4661   -2.6550   -0.0313 C   0  0  0  0  0  0  0  0  0  0  0  0
   -0.6900   -3.3157    0.6335 O   0  0  0  0  0  0  0  0  0  0  0  0
   -1.1058   -1.4088   -0.5087 N   0  0  0  0  0  0  0  0  0  0  0  0
   -1.7707   -0.9499   -1.1234 H   0  0  0  0  0  0  0  0  0  0  0  0
    0.2237   -0.7867   -0.3281 C   0  0  1  0  0  0  0  0  0  0  0  0
    0.9861   -1.4778   -0.7058 H   0  0  0  0  0  0  0  0  0  0  0  0
    0.2475    0.4620   -1.2664 C   0  0  0  0  0  0  0  0  0  0  0  0
    0.4834    0.1028   -2.2737 H   0  0  0  0  0  0  0  0  0  0  0  0
   -0.7857    0.8220   -1.3079 H   0  0  0  0  0  0  0  0  0  0  0  0
    1.0649    1.7645   -0.9976 C   0  0  0  0  0  0  0  0  0  0  0  0
    0.5291    2.5849   -1.4878 H   0  0  0  0  0  0  0  0  0  0  0  0
    1.3350    2.2021    0.4472 C   0  0  0  0  0  0  0  0  0  0  0  0
    2.0715    1.5603    0.9359 H   0  0  0  0  0  0  0  0  0  0  0  0
    1.7372    3.2200    0.4538 H   0  0  0  0  0  0  0  0  0  0  0  0
    0.4086    2.2098    1.0268 H   0  0  0  0  0  0  0  0  0  0  0  0
    2.4320    1.6198   -1.6817 C   0  0  0  0  0  0  0  0  0  0  0  0
    2.3108    1.4494   -2.7560 H   0  0  0  0  0  0  0  0  0  0  0  0
    3.0268    2.5292   -1.5495 H   0  0  0  0  0  0  0  0  0  0  0  0
    2.9870    0.7771   -1.2557 H   0  0  0  0  0  0  0  0  0  0  0  0
    0.5595   -0.6091    1.1713 C   0  0  0  0  0  0  0  0  0  0  0  0
    1.6875   -0.8501    1.5830 O   0  0  0  0  0  0  0  0  0  0  0  0
   -0.3895   -0.1092    2.0466 N   0  0  0  0  0  0  0  0  0  0  0  0
   -1.3373   -0.0417    1.6928 H   0  0  0  0  0  0  0  0  0  0  0  0
   -0.1645   -0.0079    3.4825 C   0  0  0  0  0  0  0  0  0  0  0  0
    0.6867    0.6488    3.6914 H   0  0  0  0  0  0  0  0  0  0  0  0
   -1.0486    0.4066    3.9759 H   0  0  0  0  0  0  0  0  0  0  0  0
    0.0398   -0.9964    3.9076 H   0  0  0  0  0  0  0  0  0  0  0  0
  1  2  1  0  0  0  0
  2  3  1  0  0  0  0
  2  4  1  0  0  0  0
  2  5  1  0  0  0  0
  5  6  2  0  0  0  0
  5  7  1  0  0  0  0
  7  8  1  0  0  0  0
  7  9  1  0  0  0  0
  9 10  1  0  0  0  0
  9 11  1  0  0  0  0
  9 24  1  0  0  0  0
 11 12  1  0  0  0  0
 11 13  1  0  0  0  0
 11 14  1  0  0  0  0
 14 15  1  0  0  0  0
 14 16  1  0  0  0  0
 14 20  1  0  0  0  0
 16 17  1  0  0  0  0
 16 18  1  0  0  0  0
 16 19  1  0  0  0  0
 20 21  1  0  0  0  0
 20 22  1  0  0  0  0
 20 23  1  0  0  0  0
 24 25  2  0  0  0  0
 24 26  1  0  0  0  0
 26 27  1  0  0  0  0
 26 28  1  0  0  0  0
 28 29  1  0  0  0  0
 28 30  1  0  0  0  0
 28 31  1  0  0  0  0
M  END
$$$$

  -OEChem-04042216013D

 31 30  0     1  0  0  0  0  0999 V2000
   -2.9842   -4.1648    0.1159 H   0  0  0  0  0  0  0  0  0  0  0  0
   -2.8518   -3.1743   -0.3288 C   0  0  0  0  0  0  0  0  0  0  0  0
   -3.6081   -2.5014    0.0820 H   0  0  0  0  0  0  0  0  0  0  0  0
   -2.9905   -3.2536   -1.4096 H   0  0  0  0  0  0  0  0  0  0  0  0
   -1.4633   -2.6457   -0.0209 C   0  0  0  0  0  0  0  0  0  0  0  0
   -0.6968   -3.3184    0.6431 O   0  0  0  0  0  0  0  0  0  0  0  0
   -1.0828   -1.4091   -0.5083 N   0  0  0  0  0  0  0  0  0  0  0  0
   -1.7417   -0.9448   -1.1252 H   0  0  0  0  0  0  0  0  0  0  0  0
    0.2544   -0.8013   -0.3291 C   0  0  1  0  0  0  0  0  0  0  0  0
    1.0189   -1.4895   -0.7071 H   0  0  0  0  0  0  0  0  0  0  0  0
    0.2643    0.4601   -1.2532 C   0  0  0  0  0  0  0  0  0  0  0  0
    0.4824    0.1023   -2.2649 H   0  0  0  0  0  0  0  0  0  0  0  0
   -0.7700    0.8190   -1.2808 H   0  0  0  0  0  0  0  0  0  0  0  0
    1.0855    1.7672   -0.9914 C   0  0  0  0  0  0  0  0  0  0  0  0
    0.4226    2.6112   -1.2118 H   0  0  0  0  0  0  0  0  0  0  0  0
    1.6875    2.0311    0.3933 C   0  0  0  0  0  0  0  0  0  0  0  0
    2.4523    1.2901    0.6405 H   0  0  0  0  0  0  0  0  0  0  0  0
    2.1653    3.0156    0.4105 H   0  0  0  0  0  0  0  0  0  0  0  0
    0.9113    2.0363    1.1620 H   0  0  0  0  0  0  0  0  0  0  0  0
    2.2468    1.8179   -1.9967 C   0  0  0  0  0  0  0  0  0  0  0  0
    1.8702    1.7821   -3.0237 H   0  0  0  0  0  0  0  0  0  0  0  0
    2.8180    2.7446   -1.8811 H   0  0  0  0  0  0  0  0  0  0  0  0
    2.9244    0.9713   -1.8435 H   0  0  0  0  0  0  0  0  0  0  0  0
    0.5632   -0.6227    1.1772 C   0  0  0  0  0  0  0  0  0  0  0  0
    1.6685   -0.9056    1.6220 O   0  0  0  0  0  0  0  0  0  0  0  0
   -0.3978   -0.1075    2.0308 N   0  0  0  0  0  0  0  0  0  0  0  0
   -1.3328   -0.0097    1.6512 H   0  0  0  0  0  0  0  0  0  0  0  0
   -0.2110   -0.0286    3.4737 C   0  0  0  0  0  0  0  0  0  0  0  0
    0.6529    0.6001    3.7137 H   0  0  0  0  0  0  0  0  0  0  0  0
   -1.0961    0.4068    3.9468 H   0  0  0  0  0  0  0  0  0  0  0  0
   -0.0477   -1.0273    3.8927 H   0  0  0  0  0  0  0  0  0  0  0  0
  1  2  1  0  0  0  0
  2  3  1  0  0  0  0
  2  4  1  0  0  0  0
  2  5  1  0  0  0  0
  5  6  2  0  0  0  0
  5  7  1  0  0  0  0
  7  8  1  0  0  0  0
  7  9  1  0  0  0  0
  9 10  1  0  0  0  0
  9 11  1  0  0  0  0
  9 24  1  0  0  0  0
 11 12  1  0  0  0  0
 11 13  1  0  0  0  0
 11 14  1  0  0  0  0
 14 15  1  0  0  0  0
 14 16  1  0  0  0  0
 14 20  1  0  0  0  0
 16 17  1  0  0  0  0
 16 18  1  0  0  0  0
 16 19  1  0  0  0  0
 20 21  1  0  0  0  0
 20 22  1  0  0  0  0
 20 23  1  0  0  0  0
 24 25  2  0  0  0  0
 24 26  1  0  0  0  0
 26 27  1  0  0  0  0
 26 28  1  0  0  0  0
 28 29  1  0  0  0  0
 28 30  1  0  0  0  0
 28 31  1  0  0  0  0
M  END
$$$$

  -OEChem-04042216013D

 31 30  0     1  0  0  0  0  0999 V2000
   -3.0043   -4.1346    0.1305 H   0  0  0  0  0  0  0  0  0  0  0  0
   -2.8583   -3.1514   -0.3260 C   0  0  0  0  0  0  0  0  0  0  0  0
   -3.6104   -2.4654    0.0709 H   0  0  0  0  0  0  0  0  0  0  0  0
   -2.9907   -3.2436   -1.4066 H   0  0  0  0  0  0  0  0  0  0  0  0
   -1.4663   -2.6339   -0.0149 C   0  0  0  0  0  0  0  0  0  0  0  0
   -0.7111   -3.3087    0.6596 O   0  0  0  0  0  0  0  0  0  0  0  0
   -1.0681   -1.4083   -0.5160 N   0  0  0  0  0  0  0  0  0  0  0  0
   -1.7162   -0.9467   -1.1464 H   0  0  0  0  0  0  0  0  0  0  0  0
    0.2764   -0.8152   -0.3390 C   0  0  1  0  0  0  0  0  0  0  0  0
    1.0407   -1.5033   -0.7175 H   0  0  0  0  0  0  0  0  0  0  0  0
    0.2743    0.4576   -1.2468 C   0  0  0  0  0  0  0  0  0  0  0  0
    0.5099    0.0985   -2.2541 H   0  0  0  0  0  0  0  0  0  0  0  0
   -0.7601    0.8151   -1.2902 H   0  0  0  0  0  0  0  0  0  0  0  0
    1.1059    1.7570   -0.9731 C   0  0  0  0  0  0  0  0  0  0  0  0
    0.3888    2.5795   -0.8762 H   0  0  0  0  0  0  0  0  0  0  0  0
    2.0077    1.8350    0.2645 C   0  0  0  0  0  0  0  0  0  0  0  0
    2.7210    1.0057    0.2776 H   0  0  0  0  0  0  0  0  0  0  0  0
    2.5797    2.7681    0.2580 H   0  0  0  0  0  0  0  0  0  0  0  0
    1.4168    1.8319    1.1834 H   0  0  0  0  0  0  0  0  0  0  0  0
    1.9771    2.0555   -2.2031 C   0  0  0  0  0  0  0  0  0  0  0  0
    1.3601    2.1211   -3.1049 H   0  0  0  0  0  0  0  0  0  0  0  0
    2.5001    3.0098   -2.0836 H   0  0  0  0  0  0  0  0  0  0  0  0
    2.7230    1.2666   -2.3458 H   0  0  0  0  0  0  0  0  0  0  0  0
    0.5726   -0.6255    1.1692 C   0  0  0  0  0  0  0  0  0  0  0  0
    1.6655   -0.9261    1.6326 O   0  0  0  0  0  0  0  0  0  0  0  0
   -0.3910   -0.0887    2.0064 N   0  0  0  0  0  0  0  0  0  0  0  0
   -1.3195    0.0191    1.6138 H   0  0  0  0  0  0  0  0  0  0  0  0
   -0.2224   -0.0005    3.4512 C   0  0  0  0  0  0  0  0  0  0  0  0
    0.6559    0.6049    3.6985 H   0  0  0  0  0  0  0  0  0  0  0  0
   -1.1009    0.4657    3.9073 H   0  0  0  0  0  0  0  0  0  0  0  0
   -0.0948   -0.9991    3.8820 H   0  0  0  0  0  0  0  0  0  0  0  0
  1  2  1  0  0  0  0
  2  3  1  0  0  0  0
  2  4  1  0  0  0  0
  2  5  1  0  0  0  0
  5  6  2  0  0  0  0
  5  7  1  0  0  0  0
  7  8  1  0  0  0  0
  7  9  1  0  0  0  0
  9 10  1  0  0  0  0
  9 11  1  0  0  0  0
  9 24  1  0  0  0  0
 11 12  1  0  0  0  0
 11 13  1  0  0  0  0
 11 14  1  0  0  0  0
 14 15  1  0  0  0  0
 14 16  1  0  0  0  0
 14 20  1  0  0  0  0
 16 17  1  0  0  0  0
 16 18  1  0  0  0  0
 16 19  1  0  0  0  0
 20 21  1  0  0  0  0
 20 22  1  0  0  0  0
 20 23  1  0  0  0  0
 24 25  2  0  0  0  0
 24 26  1  0  0  0  0
 26 27  1  0  0  0  0
 26 28  1  0  0  0  0
 28 29  1  0  0  0  0
 28 30  1  0  0  0  0
 28 31  1  0  0  0  0
M  END
$$$$

  -OEChem-04042216013D

 31 30  0     1  0  0  0  0  0999 V2000
   -2.9994   -4.1222    0.1511 H   0  0  0  0  0  0  0  0  0  0  0  0
   -2.8524   -3.1441   -0.3163 C   0  0  0  0  0  0  0  0  0  0  0  0
   -3.6056   -2.4535    0.0704 H   0  0  0  0  0  0  0  0  0  0  0  0
   -2.9814   -3.2488   -1.3963 H   0  0  0  0  0  0  0  0  0  0  0  0
   -1.4615   -2.6227   -0.0073 C   0  0  0  0  0  0  0  0  0  0  0  0
   -0.7112   -3.2863    0.6834 O   0  0  0  0  0  0  0  0  0  0  0  0
   -1.0601   -1.4060   -0.5275 N   0  0  0  0  0  0  0  0  0  0  0  0
   -1.7029   -0.9580   -1.1729 H   0  0  0  0  0  0  0  0  0  0  0  0
    0.2864   -0.8151   -0.3611 C   0  0  1  0  0  0  0  0  0  0  0  0
    1.0508   -1.5009   -0.7434 H   0  0  0  0  0  0  0  0  0  0  0  0
    0.2673    0.4644   -1.2559 C   0  0  0  0  0  0  0  0  0  0  0  0
    0.5285    0.1118   -2.2596 H   0  0  0  0  0  0  0  0  0  0  0  0
   -0.7667    0.8203   -1.3168 H   0  0  0  0  0  0  0  0  0  0  0  0
    1.1081    1.7479   -0.9587 C   0  0  0  0  0  0  0  0  0  0  0  0
    0.4171    2.4950   -0.5529 H   0  0  0  0  0  0  0  0  0  0  0  0
    2.2601    1.6544    0.0511 C   0  0  0  0  0  0  0  0  0  0  0  0
    2.8616    0.7579   -0.1292 H   0  0  0  0  0  0  0  0  0  0  0  0
    2.9176    2.5252   -0.0350 H   0  0  0  0  0  0  0  0  0  0  0  0
    1.8834    1.6451    1.0767 H   0  0  0  0  0  0  0  0  0  0  0  0
    1.6548    2.3031   -2.2822 C   0  0  0  0  0  0  0  0  0  0  0  0
    0.8427    2.4451   -3.0021 H   0  0  0  0  0  0  0  0  0  0  0  0
    2.1386    3.2720   -2.1227 H   0  0  0  0  0  0  0  0  0  0  0  0
    2.3897    1.6159   -2.7139 H   0  0  0  0  0  0  0  0  0  0  0  0
    0.5894   -0.6021    1.1428 C   0  0  0  0  0  0  0  0  0  0  0  0
    1.6756   -0.9208    1.6105 O   0  0  0  0  0  0  0  0  0  0  0  0
   -0.3682   -0.0480    1.9749 N   0  0  0  0  0  0  0  0  0  0  0  0
   -1.2961    0.0623    1.5818 H   0  0  0  0  0  0  0  0  0  0  0  0
   -0.2005    0.0443    3.4194 C   0  0  0  0  0  0  0  0  0  0  0  0
    0.6864    0.6377    3.6656 H   0  0  0  0  0  0  0  0  0  0  0  0
   -1.0727    0.5253    3.8719 H   0  0  0  0  0  0  0  0  0  0  0  0
   -0.0882   -0.9543    3.8547 H   0  0  0  0  0  0  0  0  0  0  0  0
  1  2  1  0  0  0  0
  2  3  1  0  0  0  0
  2  4  1  0  0  0  0
  2  5  1  0  0  0  0
  5  6  2  0  0  0  0
  5  7  1  0  0  0  0
  7  8  1  0  0  0  0
  7  9  1  0  0  0  0
  9 10  1  0  0  0  0
  9 11  1  0  0  0  0
  9 24  1  0  0  0  0
 11 12  1  0  0  0  0
 11 13  1  0  0  0  0
 11 14  1  0  0  0  0
 14 15  1  0  0  0  0
 14 16  1  0  0  0  0
 14 20  1  0  0  0  0
 16 17  1  0  0  0  0
 16 18  1  0  0  0  0
 16 19  1  0  0  0  0
 20 21  1  0  0  0  0
 20 22  1  0  0  0  0
 20 23  1  0  0  0  0
 24 25  2  0  0  0  0
 24 26  1  0  0  0  0
 26 27  1  0  0  0  0
 26 28  1  0  0  0  0
 28 29  1  0  0  0  0
 28 30  1  0  0  0  0
 28 31  1  0  0  0  0
M  END
$$$$

  -OEChem-04042216013D

 31 30  0     1  0  0  0  0  0999 V2000
   -2.9693   -4.1263    0.1837 H   0  0  0  0  0  0  0  0  0  0  0  0
   -2.8335   -3.1541   -0.2989 C   0  0  0  0  0  0  0  0  0  0  0  0
   -3.5961   -2.4670    0.0752 H   0  0  0  0  0  0  0  0  0  0  0  0
   -2.9596   -3.2778   -1.3771 H   0  0  0  0  0  0  0  0  0  0  0  0
   -1.4492   -2.6112    0.0040 C   0  0  0  0  0  0  0  0  0  0  0  0
   -0.6928   -3.2551    0.7066 O   0  0  0  0  0  0  0  0  0  0  0  0
   -1.0594   -1.4000   -0.5369 N   0  0  0  0  0  0  0  0  0  0  0  0
   -1.7062   -0.9699   -1.1904 H   0  0  0  0  0  0  0  0  0  0  0  0
    0.2841   -0.7986   -0.3888 C   0  0  1  0  0  0  0  0  0  0  0  0
    1.0510   -1.4780   -0.7776 H   0  0  0  0  0  0  0  0  0  0  0  0
    0.2418    0.4822   -1.2752 C   0  0  0  0  0  0  0  0  0  0  0  0
    0.5073    0.1486   -2.2840 H   0  0  0  0  0  0  0  0  0  0  0  0
   -0.7927    0.8386   -1.3252 H   0  0  0  0  0  0  0  0  0  0  0  0
    1.0914    1.7440   -0.9473 C   0  0  0  0  0  0  0  0  0  0  0  0
    0.4957    2.3772   -0.2808 H   0  0  0  0  0  0  0  0  0  0  0  0
    2.4327    1.5099   -0.2350 C   0  0  0  0  0  0  0  0  0  0  0  0
    2.8981    0.5808   -0.5785 H   0  0  0  0  0  0  0  0  0  0  0  0
    3.1268    2.3319   -0.4358 H   0  0  0  0  0  0  0  0  0  0  0  0
    2.2972    1.4704    0.8483 H   0  0  0  0  0  0  0  0  0  0  0  0
    1.3294    2.5311   -2.2436 C   0  0  0  0  0  0  0  0  0  0  0  0
    0.3800    2.7308   -2.7502 H   0  0  0  0  0  0  0  0  0  0  0  0
    1.8069    3.4918   -2.0260 H   0  0  0  0  0  0  0  0  0  0  0  0
    1.9770    1.9681   -2.9234 H   0  0  0  0  0  0  0  0  0  0  0  0
    0.6063   -0.5578    1.1074 C   0  0  0  0  0  0  0  0  0  0  0  0
    1.6932   -0.8804    1.5704 O   0  0  0  0  0  0  0  0  0  0  0  0
   -0.3438    0.0056    1.9416 N   0  0  0  0  0  0  0  0  0  0  0  0
   -1.2765    0.1041    1.5566 H   0  0  0  0  0  0  0  0  0  0  0  0
   -0.1666    0.1020    3.3846 C   0  0  0  0  0  0  0  0  0  0  0  0
    0.7281    0.6866    3.6236 H   0  0  0  0  0  0  0  0  0  0  0  0
   -1.0309    0.5946    3.8398 H   0  0  0  0  0  0  0  0  0  0  0  0
   -0.0631   -0.8962    3.8232 H   0  0  0  0  0  0  0  0  0  0  0  0
  1  2  1  0  0  0  0
  2  3  1  0  0  0  0
  2  4  1  0  0  0  0
  2  5  1  0  0  0  0
  5  6  2  0  0  0  0
  5  7  1  0  0  0  0
  7  8  1  0  0  0  0
  7  9  1  0  0  0  0
  9 10  1  0  0  0  0
  9 11  1  0  0  0  0
  9 24  1  0  0  0  0
 11 12  1  0  0  0  0
 11 13  1  0  0  0  0
 11 14  1  0  0  0  0
 14 15  1  0  0  0  0
 14 16  1  0  0  0  0
 14 20  1  0  0  0  0
 16 17  1  0  0  0  0
 16 18  1  0  0  0  0
 16 19  1  0  0  0  0
 20 21  1  0  0  0  0
 20 22  1  0  0  0  0
 20 23  1  0  0  0  0
 24 25  2  0  0  0  0
 24 26  1  0  0  0  0
 26 27  1  0  0  0  0
 26 28  1  0  0  0  0
 28 29  1  0  0  0  0
 28 30  1  0  0  0  0
 28 31  1  0  0  0  0
M  END
$$$$

  -OEChem-04042216013D

 31 30  0     1  0  0  0  0  0999 V2000
   -2.9325   -4.1390    0.2040 H   0  0  0  0  0  0  0  0  0  0  0  0
   -2.8133   -3.1675   -0.2846 C   0  0  0  0  0  0  0  0  0  0  0  0
   -3.5794   -2.4875    0.0949 H   0  0  0  0  0  0  0  0  0  0  0  0
   -2.9490   -3.2970   -1.3610 H   0  0  0  0  0  0  0  0  0  0  0  0
   -1.4328   -2.6064    0.0007 C   0  0  0  0  0  0  0  0  0  0  0  0
   -0.6617   -3.2354    0.7009 O   0  0  0  0  0  0  0  0  0  0  0  0
   -1.0642   -1.3941   -0.5522 N   0  0  0  0  0  0  0  0  0  0  0  0
   -1.7224   -0.9768   -1.2027 H   0  0  0  0  0  0  0  0  0  0  0  0
    0.2728   -0.7762   -0.4203 C   0  0  1  0  0  0  0  0  0  0  0  0
    1.0432   -1.4464   -0.8179 H   0  0  0  0  0  0  0  0  0  0  0  0
    0.2095    0.5088   -1.2942 C   0  0  0  0  0  0  0  0  0  0  0  0
    0.4662    0.2046   -2.3145 H   0  0  0  0  0  0  0  0  0  0  0  0
   -0.8259    0.8652   -1.3185 H   0  0  0  0  0  0  0  0  0  0  0  0
    1.0693    1.7448   -0.9248 C   0  0  0  0  0  0  0  0  0  0  0  0
    0.6160    2.2342   -0.0558 H   0  0  0  0  0  0  0  0  0  0  0  0
    2.5288    1.4243   -0.5611 C   0  0  0  0  0  0  0  0  0  0  0  0
    2.8855    0.5521   -1.1179 H   0  0  0  0  0  0  0  0  0  0  0  0
    3.1816    2.2703   -0.7973 H   0  0  0  0  0  0  0  0  0  0  0  0
    2.6346    1.2342    0.5084 H   0  0  0  0  0  0  0  0  0  0  0  0
    1.0345    2.7379   -2.0942 C   0  0  0  0  0  0  0  0  0  0  0  0
    0.0012    2.9897   -2.3529 H   0  0  0  0  0  0  0  0  0  0  0  0
    1.5527    3.6637   -1.8247 H   0  0  0  0  0  0  0  0  0  0  0  0
    1.5220    2.3123   -2.9772 H   0  0  0  0  0  0  0  0  0  0  0  0
    0.6130   -0.5188    1.0698 C   0  0  0  0  0  0  0  0  0  0  0  0
    1.7080   -0.8253    1.5233 O   0  0  0  0  0  0  0  0  0  0  0  0
   -0.3333    0.0408    1.9110 N   0  0  0  0  0  0  0  0  0  0  0  0
   -1.2718    0.1239    1.5360 H   0  0  0  0  0  0  0  0  0  0  0  0
   -0.1406    0.1507    3.3513 C   0  0  0  0  0  0  0  0  0  0  0  0
    0.7460    0.7535    3.5742 H   0  0  0  0  0  0  0  0  0  0  0  0
   -1.0084    0.6302    3.8137 H   0  0  0  0  0  0  0  0  0  0  0  0
   -0.0131   -0.8419    3.7962 H   0  0  0  0  0  0  0  0  0  0  0  0
  1  2  1  0  0  0  0
  2  3  1  0  0  0  0
  2  4  1  0  0  0  0
  2  5  1  0  0  0  0
  5  6  2  0  0  0  0
  5  7  1  0  0  0  0
  7  8  1  0  0  0  0
  7  9  1  0  0  0  0
  9 10  1  0  0  0  0
  9 11  1  0  0  0  0
  9 24  1  0  0  0  0
 11 12  1  0  0  0  0
 11 13  1  0  0  0  0
 11 14  1  0  0  0  0
 14 15  1  0  0  0  0
 14 16  1  0  0  0  0
 14 20  1  0  0  0  0
 16 17  1  0  0  0  0
 16 18  1  0  0  0  0
 16 19  1  0  0  0  0
 20 21  1  0  0  0  0
 20 22  1  0  0  0  0
 20 23  1  0  0  0  0
 24 25  2  0  0  0  0
 24 26  1  0  0  0  0
 26 27  1  0  0  0  0
 26 28  1  0  0  0  0
 28 29  1  0  0  0  0
 28 30  1  0  0  0  0
 28 31  1  0  0  0  0
M  END
$$$$

  -OEChem-04042216013D

 31 30  0     1  0  0  0  0  0999 V2000
   -2.8828   -4.1721    0.2452 H   0  0  0  0  0  0  0  0  0  0  0  0
   -2.7864   -3.2011   -0.2493 C   0  0  0  0  0  0  0  0  0  0  0  0
   -3.5585   -2.5317    0.1371 H   0  0  0  0  0  0  0  0  0  0  0  0
   -2.9347   -3.3386   -1.3230 H   0  0  0  0  0  0  0  0  0  0  0  0
   -1.4117   -2.6159    0.0155 C   0  0  0  0  0  0  0  0  0  0  0  0
   -0.6252   -3.2238    0.7175 O   0  0  0  0  0  0  0  0  0  0  0  0
   -1.0649   -1.4051   -0.5550 N   0  0  0  0  0  0  0  0  0  0  0  0
   -1.7312   -1.0081   -1.2101 H   0  0  0  0  0  0  0  0  0  0  0  0
    0.2645   -0.7672   -0.4405 C   0  0  1  0  0  0  0  0  0  0  0  0
    1.0427   -1.4283   -0.8377 H   0  0  0  0  0  0  0  0  0  0  0  0
    0.1832    0.5186   -1.3116 C   0  0  0  0  0  0  0  0  0  0  0  0
    0.4235    0.2376   -2.3425 H   0  0  0  0  0  0  0  0  0  0  0  0
   -0.8535    0.8718   -1.3078 H   0  0  0  0  0  0  0  0  0  0  0  0
    1.0517    1.7351   -0.9135 C   0  0  0  0  0  0  0  0  0  0  0  0
    0.7747    2.0572    0.0958 H   0  0  0  0  0  0  0  0  0  0  0  0
    2.5558    1.4167   -0.9235 C   0  0  0  0  0  0  0  0  0  0  0  0
    2.8768    1.1369   -1.9317 H   0  0  0  0  0  0  0  0  0  0  0  0
    3.1275    2.2954   -0.6099 H   0  0  0  0  0  0  0  0  0  0  0  0
    2.8118    0.5981   -0.2524 H   0  0  0  0  0  0  0  0  0  0  0  0
    0.7796    2.8987   -1.8745 C   0  0  0  0  0  0  0  0  0  0  0  0
   -0.2787    3.1761   -1.8513 H   0  0  0  0  0  0  0  0  0  0  0  0
    1.3686    3.7752   -1.5865 H   0  0  0  0  0  0  0  0  0  0  0  0
    1.0457    2.6242   -2.9003 H   0  0  0  0  0  0  0  0  0  0  0  0
    0.6040   -0.4905    1.0497 C   0  0  0  0  0  0  0  0  0  0  0  0
    1.7174   -0.7246    1.5006 O   0  0  0  0  0  0  0  0  0  0  0  0
   -0.3520    0.0628    1.8847 N   0  0  0  0  0  0  0  0  0  0  0  0
   -1.2959    0.1094    1.5173 H   0  0  0  0  0  0  0  0  0  0  0  0
   -0.1460    0.2365    3.3168 C   0  0  0  0  0  0  0  0  0  0  0  0
    0.7047    0.9003    3.5035 H   0  0  0  0  0  0  0  0  0  0  0  0
   -1.0352    0.6784    3.7762 H   0  0  0  0  0  0  0  0  0  0  0  0
    0.0488   -0.7296    3.7946 H   0  0  0  0  0  0  0  0  0  0  0  0
  1  2  1  0  0  0  0
  2  3  1  0  0  0  0
  2  4  1  0  0  0  0
  2  5  1  0  0  0  0
  5  6  2  0  0  0  0
  5  7  1  0  0  0  0
  7  8  1  0  0  0  0
  7  9  1  0  0  0  0
  9 10  1  0  0  0  0
  9 11  1  0  0  0  0
  9 24  1  0  0  0  0
 11 12  1  0  0  0  0
 11 13  1  0  0  0  0
 11 14  1  0  0  0  0
 14 15  1  0  0  0  0
 14 16  1  0  0  0  0
 14 20  1  0  0  0  0
 16 17  1  0  0  0  0
 16 18  1  0  0  0  0
 16 19  1  0  0  0  0
 20 21  1  0  0  0  0
 20 22  1  0  0  0  0
 20 23  1  0  0  0  0
 24 25  2  0  0  0  0
 24 26  1  0  0  0  0
 26 27  1  0  0  0  0
 26 28  1  0  0  0  0
 28 29  1  0  0  0  0
 28 30  1  0  0  0  0
 28 31  1  0  0  0  0
M  END
$$$$

  -OEChem-04042216013D

 31 30  0     1  0  0  0  0  0999 V2000
   -2.8403   -4.2320    0.1907 H   0  0  0  0  0  0  0  0  0  0  0  0
   -2.7722   -3.2511   -0.2887 C   0  0  0  0  0  0  0  0  0  0  0  0
   -3.5622   -2.6103    0.1099 H   0  0  0  0  0  0  0  0  0  0  0  0
   -2.9189   -3.3758   -1.3642 H   0  0  0  0  0  0  0  0  0  0  0  0
   -1.4138   -2.6317   -0.0174 C   0  0  0  0  0  0  0  0  0  0  0  0
   -0.6096   -3.2235    0.6787 O   0  0  0  0  0  0  0  0  0  0  0  0
   -1.1035   -1.4002   -0.5627 N   0  0  0  0  0  0  0  0  0  0  0  0
   -1.7823   -1.0065   -1.2071 H   0  0  0  0  0  0  0  0  0  0  0  0
    0.2104   -0.7349   -0.4419 C   0  0  1  0  0  0  0  0  0  0  0  0
    0.9890   -1.3925   -0.8447 H   0  0  0  0  0  0  0  0  0  0  0  0
    0.1484    0.5437   -1.3224 C   0  0  0  0  0  0  0  0  0  0  0  0
    0.4002    0.2718   -2.3529 H   0  0  0  0  0  0  0  0  0  0  0  0
   -0.8892    0.8938   -1.3286 H   0  0  0  0  0  0  0  0  0  0  0  0
    1.0155    1.7465   -0.8806 C   0  0  0  0  0  0  0  0  0  0  0  0
    0.9032    1.9379    0.1907 H   0  0  0  0  0  0  0  0  0  0  0  0
    2.4943    1.4903   -1.2021 C   0  0  0  0  0  0  0  0  0  0  0  0
    2.6394    1.3532   -2.2783 H   0  0  0  0  0  0  0  0  0  0  0  0
    3.1056    2.3372   -0.8750 H   0  0  0  0  0  0  0  0  0  0  0  0
    2.8552    0.5940   -0.6903 H   0  0  0  0  0  0  0  0  0  0  0  0
    0.5626    3.0077   -1.6265 C   0  0  0  0  0  0  0  0  0  0  0  0
   -0.4787    3.2421   -1.3851 H   0  0  0  0  0  0  0  0  0  0  0  0
    1.1804    3.8634   -1.3364 H   0  0  0  0  0  0  0  0  0  0  0  0
    0.6471    2.8695   -2.7092 H   0  0  0  0  0  0  0  0  0  0  0  0
    0.5878   -0.4700    1.0381 C   0  0  0  0  0  0  0  0  0  0  0  0
    1.7490   -0.5727    1.4117 O   0  0  0  0  0  0  0  0  0  0  0  0
   -0.3543    0.0497    1.9088 N   0  0  0  0  0  0  0  0  0  0  0  0
   -1.3182    0.0203    1.5954 H   0  0  0  0  0  0  0  0  0  0  0  0
   -0.0805    0.2858    3.3204 C   0  0  0  0  0  0  0  0  0  0  0  0
    0.7349    1.0075    3.4372 H   0  0  0  0  0  0  0  0  0  0  0  0
   -0.9693    0.6871    3.8164 H   0  0  0  0  0  0  0  0  0  0  0  0
    0.2026   -0.6487    3.8165 H   0  0  0  0  0  0  0  0  0  0  0  0
  1  2  1  0  0  0  0
  2  3  1  0  0  0  0
  2  4  1  0  0  0  0
  2  5  1  0  0  0  0
  5  6  2  0  0  0  0
  5  7  1  0  0  0  0
  7  8  1  0  0  0  0
  7  9  1  0  0  0  0
  9 10  1  0  0  0  0
  9 11  1  0  0  0  0
  9 24  1  0  0  0  0
 11 12  1  0  0  0  0
 11 13  1  0  0  0  0
 11 14  1  0  0  0  0
 14 15  1  0  0  0  0
 14 16  1  0  0  0  0
 14 20  1  0  0  0  0
 16 17  1  0  0  0  0
 16 18  1  0  0  0  0
 16 19  1  0  0  0  0
 20 21  1  0  0  0  0
 20 22  1  0  0  0  0
 20 23  1  0  0  0  0
 24 25  2  0  0  0  0
 24 26  1  0  0  0  0
 26 27  1  0  0  0  0
 26 28  1  0  0  0  0
 28 29  1  0  0  0  0
 28 30  1  0  0  0  0
 28 31  1  0  0  0  0
M  END
$$$$

  -OEChem-04042216013D

 31 30  0     1  0  0  0  0  0999 V2000
   -2.8337   -4.2513    0.1468 H   0  0  0  0  0  0  0  0  0  0  0  0
   -2.7721   -3.2638   -0.3197 C   0  0  0  0  0  0  0  0  0  0  0  0
   -3.5731   -2.6364    0.0784 H   0  0  0  0  0  0  0  0  0  0  0  0
   -2.9067   -3.3765   -1.3980 H   0  0  0  0  0  0  0  0  0  0  0  0
   -1.4236   -2.6329   -0.0274 C   0  0  0  0  0  0  0  0  0  0  0  0
   -0.6198   -3.2228    0.6710 O   0  0  0  0  0  0  0  0  0  0  0  0
   -1.1222   -1.3912   -0.5536 N   0  0  0  0  0  0  0  0  0  0  0  0
   -1.8016   -0.9938   -1.1952 H   0  0  0  0  0  0  0  0  0  0  0  0
    0.1878   -0.7210   -0.4236 C   0  0  1  0  0  0  0  0  0  0  0  0
    0.9632   -1.3816   -0.8278 H   0  0  0  0  0  0  0  0  0  0  0  0
    0.1425    0.5512   -1.3143 C   0  0  0  0  0  0  0  0  0  0  0  0
    0.3953    0.2726   -2.3426 H   0  0  0  0  0  0  0  0  0  0  0  0
   -0.8970    0.8951   -1.3300 H   0  0  0  0  0  0  0  0  0  0  0  0
    1.0047    1.7622   -0.8699 C   0  0  0  0  0  0  0  0  0  0  0  0
    1.0910    1.8339    0.2171 H   0  0  0  0  0  0  0  0  0  0  0  0
    2.4028    1.6616   -1.4913 C   0  0  0  0  0  0  0  0  0  0  0  0
    2.3478    1.6516   -2.5844 H   0  0  0  0  0  0  0  0  0  0  0  0
    3.0190    2.5120   -1.1826 H   0  0  0  0  0  0  0  0  0  0  0  0
    2.8977    0.7436   -1.1584 H   0  0  0  0  0  0  0  0  0  0  0  0
    0.3563    3.0640   -1.3592 C   0  0  0  0  0  0  0  0  0  0  0  0
   -0.6293    3.1961   -0.9020 H   0  0  0  0  0  0  0  0  0  0  0  0
    0.9755    3.9242   -1.0855 H   0  0  0  0  0  0  0  0  0  0  0  0
    0.2379    3.0532   -2.4475 H   0  0  0  0  0  0  0  0  0  0  0  0
    0.5815   -0.4703    1.0525 C   0  0  0  0  0  0  0  0  0  0  0  0
    1.7554   -0.5393    1.3940 O   0  0  0  0  0  0  0  0  0  0  0  0
   -0.3505    0.0348    1.9420 N   0  0  0  0  0  0  0  0  0  0  0  0
   -1.3205   -0.0151    1.6501 H   0  0  0  0  0  0  0  0  0  0  0  0
   -0.0505    0.2727    3.3479 C   0  0  0  0  0  0  0  0  0  0  0  0
    0.7554    1.0073    3.4489 H   0  0  0  0  0  0  0  0  0  0  0  0
   -0.9350    0.6582    3.8635 H   0  0  0  0  0  0  0  0  0  0  0  0
    0.2584   -0.6581    3.8353 H   0  0  0  0  0  0  0  0  0  0  0  0
  1  2  1  0  0  0  0
  2  3  1  0  0  0  0
  2  4  1  0  0  0  0
  2  5  1  0  0  0  0
  5  6  2  0  0  0  0
  5  7  1  0  0  0  0
  7  8  1  0  0  0  0
  7  9  1  0  0  0  0
  9 10  1  0  0  0  0
  9 11  1  0  0  0  0
  9 24  1  0  0  0  0
 11 12  1  0  0  0  0
 11 13  1  0  0  0  0
 11 14  1  0  0  0  0
 14 15  1  0  0  0  0
 14 16  1  0  0  0  0
 14 20  1  0  0  0  0
 16 17  1  0  0  0  0
 16 18  1  0  0  0  0
 16 19  1  0  0  0  0
 20 21  1  0  0  0  0
 20 22  1  0  0  0  0
 20 23  1  0  0  0  0
 24 25  2  0  0  0  0
 24 26  1  0  0  0  0
 26 27  1  0  0  0  0
 26 28  1  0  0  0  0
 28 29  1  0  0  0  0
 28 30  1  0  0  0  0
 28 31  1  0  0  0  0
M  END
$$$$

  -OEChem-04042216013D

 31 30  0     1  0  0  0  0  0999 V2000
   -2.8424   -4.2397    0.1545 H   0  0  0  0  0  0  0  0  0  0  0  0
   -2.7725   -3.2537   -0.3138 C   0  0  0  0  0  0  0  0  0  0  0  0
   -3.5676   -2.6186    0.0840 H   0  0  0  0  0  0  0  0  0  0  0  0
   -2.9089   -3.3668   -1.3920 H   0  0  0  0  0  0  0  0  0  0  0  0
   -1.4186   -2.6338   -0.0234 C   0  0  0  0  0  0  0  0  0  0  0  0
   -0.6180   -3.2309    0.6723 O   0  0  0  0  0  0  0  0  0  0  0  0
   -1.1086   -1.3951   -0.5516 N   0  0  0  0  0  0  0  0  0  0  0  0
   -1.7856   -0.9938   -1.1930 H   0  0  0  0  0  0  0  0  0  0  0  0
    0.2044   -0.7305   -0.4186 C   0  0  1  0  0  0  0  0  0  0  0  0
    0.9813   -1.3903   -0.8207 H   0  0  0  0  0  0  0  0  0  0  0  0
    0.1549    0.5443   -1.3070 C   0  0  0  0  0  0  0  0  0  0  0  0
    0.4061    0.2578   -2.3335 H   0  0  0  0  0  0  0  0  0  0  0  0
   -0.8870    0.8805   -1.3306 H   0  0  0  0  0  0  0  0  0  0  0  0
    1.0153    1.7674   -0.8753 C   0  0  0  0  0  0  0  0  0  0  0  0
    1.3538    1.6967    0.1601 H   0  0  0  0  0  0  0  0  0  0  0  0
    2.2488    1.8811   -1.7791 C   0  0  0  0  0  0  0  0  0  0  0  0
    1.9569    2.0200   -2.8250 H   0  0  0  0  0  0  0  0  0  0  0  0
    2.8665    2.7323   -1.4757 H   0  0  0  0  0  0  0  0  0  0  0  0
    2.8563    0.9737   -1.7030 H   0  0  0  0  0  0  0  0  0  0  0  0
    0.1996    3.0612   -0.9983 C   0  0  0  0  0  0  0  0  0  0  0  0
   -0.6657    3.0309   -0.3287 H   0  0  0  0  0  0  0  0  0  0  0  0
    0.8127    3.9254   -0.7234 H   0  0  0  0  0  0  0  0  0  0  0  0
   -0.1557    3.1998   -2.0244 H   0  0  0  0  0  0  0  0  0  0  0  0
    0.5830   -0.4825    1.0623 C   0  0  0  0  0  0  0  0  0  0  0  0
    1.7504   -0.5741    1.4206 O   0  0  0  0  0  0  0  0  0  0  0  0
   -0.3555    0.0265    1.9427 N   0  0  0  0  0  0  0  0  0  0  0  0
   -1.3219   -0.0067    1.6370 H   0  0  0  0  0  0  0  0  0  0  0  0
   -0.0707    0.2581    3.3528 C   0  0  0  0  0  0  0  0  0  0  0  0
    0.7383    0.9874    3.4654 H   0  0  0  0  0  0  0  0  0  0  0  0
   -0.9588    0.6476    3.8593 H   0  0  0  0  0  0  0  0  0  0  0  0
    0.2265   -0.6761    3.8409 H   0  0  0  0  0  0  0  0  0  0  0  0
  1  2  1  0  0  0  0
  2  3  1  0  0  0  0
  2  4  1  0  0  0  0
  2  5  1  0  0  0  0
  5  6  2  0  0  0  0
  5  7  1  0  0  0  0
  7  8  1  0  0  0  0
  7  9  1  0  0  0  0
  9 10  1  0  0  0  0
  9 11  1  0  0  0  0
  9 24  1  0  0  0  0
 11 12  1  0  0  0  0
 11 13  1  0  0  0  0
 11 14  1  0  0  0  0
 14 15  1  0  0  0  0
 14 16  1  0  0  0  0
 14 20  1  0  0  0  0
 16 17  1  0  0  0  0
 16 18  1  0  0  0  0
 16 19  1  0  0  0  0
 20 21  1  0  0  0  0
 20 22  1  0  0  0  0
 20 23  1  0  0  0  0
 24 25  2  0  0  0  0
 24 26  1  0  0  0  0
 26 27  1  0  0  0  0
 26 28  1  0  0  0  0
 28 29  1  0  0  0  0
 28 30  1  0  0  0  0
 28 31  1  0  0  0  0
M  END
$$$$

  -OEChem-04042216013D

 31 30  0     1  0  0  0  0  0999 V2000
   -2.8419   -4.2320    0.1731 H   0  0  0  0  0  0  0  0  0  0  0  0
   -2.7689   -3.2492   -0.3014 C   0  0  0  0  0  0  0  0  0  0  0  0
   -3.5597   -2.6080    0.0950 H   0  0  0  0  0  0  0  0  0  0  0  0
   -2.9085   -3.3684   -1.3785 H   0  0  0  0  0  0  0  0  0  0  0  0
   -1.4114   -2.6339   -0.0184 C   0  0  0  0  0  0  0  0  0  0  0  0
   -0.6126   -3.2301    0.6800 O   0  0  0  0  0  0  0  0  0  0  0  0
   -1.0949   -1.4022   -0.5596 N   0  0  0  0  0  0  0  0  0  0  0  0
   -1.7709   -1.0032   -1.2036 H   0  0  0  0  0  0  0  0  0  0  0  0
    0.2194   -0.7396   -0.4291 C   0  0  1  0  0  0  0  0  0  0  0  0
    1.0004   -1.3974   -0.8266 H   0  0  0  0  0  0  0  0  0  0  0  0
    0.1576    0.5361   -1.3152 C   0  0  0  0  0  0  0  0  0  0  0  0
    0.4282    0.2385   -2.3337 H   0  0  0  0  0  0  0  0  0  0  0  0
   -0.8844    0.8695   -1.3638 H   0  0  0  0  0  0  0  0  0  0  0  0
    1.0186    1.7591   -0.8842 C   0  0  0  0  0  0  0  0  0  0  0  0
    1.6108    1.5414    0.0065 H   0  0  0  0  0  0  0  0  0  0  0  0
    2.0181    2.1159   -1.9905 C   0  0  0  0  0  0  0  0  0  0  0  0
    1.4960    2.3785   -2.9160 H   0  0  0  0  0  0  0  0  0  0  0  0
    2.6349    2.9675   -1.6864 H   0  0  0  0  0  0  0  0  0  0  0  0
    2.6811    1.2680   -2.1907 H   0  0  0  0  0  0  0  0  0  0  0  0
    0.1327    2.9708   -0.5709 C   0  0  0  0  0  0  0  0  0  0  0  0
   -0.5589    2.7343    0.2438 H   0  0  0  0  0  0  0  0  0  0  0  0
    0.7481    3.8213   -0.2610 H   0  0  0  0  0  0  0  0  0  0  0  0
   -0.4484    3.2656   -1.4505 H   0  0  0  0  0  0  0  0  0  0  0  0
    0.5842   -0.4790    1.0542 C   0  0  0  0  0  0  0  0  0  0  0  0
    1.7429   -0.5952    1.4333 O   0  0  0  0  0  0  0  0  0  0  0  0
   -0.3610    0.0405    1.9211 N   0  0  0  0  0  0  0  0  0  0  0  0
   -1.3227    0.0243    1.5999 H   0  0  0  0  0  0  0  0  0  0  0  0
   -0.0940    0.2737    3.3343 C   0  0  0  0  0  0  0  0  0  0  0  0
    0.7195    0.9965    3.4562 H   0  0  0  0  0  0  0  0  0  0  0  0
   -0.9856    0.6722    3.8273 H   0  0  0  0  0  0  0  0  0  0  0  0
    0.1884   -0.6618    3.8289 H   0  0  0  0  0  0  0  0  0  0  0  0
  1  2  1  0  0  0  0
  2  3  1  0  0  0  0
  2  4  1  0  0  0  0
  2  5  1  0  0  0  0
  5  6  2  0  0  0  0
  5  7  1  0  0  0  0
  7  8  1  0  0  0  0
  7  9  1  0  0  0  0
  9 10  1  0  0  0  0
  9 11  1  0  0  0  0
  9 24  1  0  0  0  0
 11 12  1  0  0  0  0
 11 13  1  0  0  0  0
 11 14  1  0  0  0  0
 14 15  1  0  0  0  0
 14 16  1  0  0  0  0
 14 20  1  0  0  0  0
 16 17  1  0  0  0  0
 16 18  1  0  0  0  0
 16 19  1  0  0  0  0
 20 21  1  0  0  0  0
 20 22  1  0  0  0  0
 20 23  1  0  0  0  0
 24 25  2  0  0  0  0
 24 26  1  0  0  0  0
 26 27  1  0  0  0  0
 26 28  1  0  0  0  0
 28 29  1  0  0  0  0
 28 30  1  0  0  0  0
 28 31  1  0  0  0  0
M  END
$$$$

  -OEChem-04042216013D

 31 30  0     1  0  0  0  0  0999 V2000
   -2.8351   -4.2412    0.1671 H   0  0  0  0  0  0  0  0  0  0  0  0
   -2.7679   -3.2561   -0.3035 C   0  0  0  0  0  0  0  0  0  0  0  0
   -3.5595   -2.6198    0.0994 H   0  0  0  0  0  0  0  0  0  0  0  0
   -2.9128   -3.3716   -1.3803 H   0  0  0  0  0  0  0  0  0  0  0  0
   -1.4112   -2.6365   -0.0247 C   0  0  0  0  0  0  0  0  0  0  0  0
   -0.6067   -3.2322    0.6677 O   0  0  0  0  0  0  0  0  0  0  0  0
   -1.1029   -1.4002   -0.5597 N   0  0  0  0  0  0  0  0  0  0  0  0
   -1.7850   -0.9986   -1.1957 H   0  0  0  0  0  0  0  0  0  0  0  0
    0.2072   -0.7301   -0.4292 C   0  0  1  0  0  0  0  0  0  0  0  0
    0.9886   -1.3882   -0.8259 H   0  0  0  0  0  0  0  0  0  0  0  0
    0.1508    0.5409   -1.3207 C   0  0  0  0  0  0  0  0  0  0  0  0
    0.4490    0.2325   -2.3283 H   0  0  0  0  0  0  0  0  0  0  0  0
   -0.8875    0.8801   -1.3976 H   0  0  0  0  0  0  0  0  0  0  0  0
    1.0110    1.7557   -0.8786 C   0  0  0  0  0  0  0  0  0  0  0  0
    1.7849    1.4424   -0.1726 H   0  0  0  0  0  0  0  0  0  0  0  0
    1.7488    2.3444   -2.0870 C   0  0  0  0  0  0  0  0  0  0  0  0
    1.0379    2.6747   -2.8511 H   0  0  0  0  0  0  0  0  0  0  0  0
    2.3549    3.2033   -1.7819 H   0  0  0  0  0  0  0  0  0  0  0  0
    2.4152    1.5966   -2.5287 H   0  0  0  0  0  0  0  0  0  0  0  0
    0.1521    2.8419   -0.2180 C   0  0  0  0  0  0  0  0  0  0  0  0
   -0.3754    2.4419    0.6519 H   0  0  0  0  0  0  0  0  0  0  0  0
    0.7831    3.6708    0.1177 H   0  0  0  0  0  0  0  0  0  0  0  0
   -0.5875    3.2337   -0.9234 H   0  0  0  0  0  0  0  0  0  0  0  0
    0.5784   -0.4730    1.0539 C   0  0  0  0  0  0  0  0  0  0  0  0
    1.7402   -0.5804    1.4256 O   0  0  0  0  0  0  0  0  0  0  0  0
   -0.3638    0.0361    1.9301 N   0  0  0  0  0  0  0  0  0  0  0  0
   -1.3277    0.0130    1.6162 H   0  0  0  0  0  0  0  0  0  0  0  0
   -0.0883    0.2660    3.3423 C   0  0  0  0  0  0  0  0  0  0  0  0
    0.7197    0.9955    3.4609 H   0  0  0  0  0  0  0  0  0  0  0  0
   -0.9798    0.6546    3.8434 H   0  0  0  0  0  0  0  0  0  0  0  0
    0.2060   -0.6686    3.8314 H   0  0  0  0  0  0  0  0  0  0  0  0
  1  2  1  0  0  0  0
  2  3  1  0  0  0  0
  2  4  1  0  0  0  0
  2  5  1  0  0  0  0
  5  6  2  0  0  0  0
  5  7  1  0  0  0  0
  7  8  1  0  0  0  0
  7  9  1  0  0  0  0
  9 10  1  0  0  0  0
  9 11  1  0  0  0  0
  9 24  1  0  0  0  0
 11 12  1  0  0  0  0
 11 13  1  0  0  0  0
 11 14  1  0  0  0  0
 14 15  1  0  0  0  0
 14 16  1  0  0  0  0
 14 20  1  0  0  0  0
 16 17  1  0  0  0  0
 16 18  1  0  0  0  0
 16 19  1  0  0  0  0
 20 21  1  0  0  0  0
 20 22  1  0  0  0  0
 20 23  1  0  0  0  0
 24 25  2  0  0  0  0
 24 26  1  0  0  0  0
 26 27  1  0  0  0  0
 26 28  1  0  0  0  0
 28 29  1  0  0  0  0
 28 30  1  0  0  0  0
 28 31  1  0  0  0  0
M  END
$$$$

  -OEChem-04042216013D

 31 30  0     1  0  0  0  0  0999 V2000
   -2.8318   -4.2575    0.1272 H   0  0  0  0  0  0  0  0  0  0  0  0
   -2.7739   -3.2634   -0.3253 C   0  0  0  0  0  0  0  0  0  0  0  0
   -3.5657   -2.6393    0.0955 H   0  0  0  0  0  0  0  0  0  0  0  0
   -2.9267   -3.3590   -1.4030 H   0  0  0  0  0  0  0  0  0  0  0  0
   -1.4185   -2.6417   -0.0462 C   0  0  0  0  0  0  0  0  0  0  0  0
   -0.5980   -3.2522    0.6140 O   0  0  0  0  0  0  0  0  0  0  0  0
   -1.1289   -1.3852   -0.5430 N   0  0  0  0  0  0  0  0  0  0  0  0
   -1.8279   -0.9619   -1.1455 H   0  0  0  0  0  0  0  0  0  0  0  0
    0.1742   -0.7055   -0.4013 C   0  0  1  0  0  0  0  0  0  0  0  0
    0.9491   -1.3709   -0.7991 H   0  0  0  0  0  0  0  0  0  0  0  0
    0.1580    0.5551   -1.3085 C   0  0  0  0  0  0  0  0  0  0  0  0
    0.4885    0.2292   -2.3004 H   0  0  0  0  0  0  0  0  0  0  0  0
   -0.8734    0.9036   -1.4220 H   0  0  0  0  0  0  0  0  0  0  0  0
    1.0124    1.7699   -0.8638 C   0  0  0  0  0  0  0  0  0  0  0  0
    1.9041    1.4256   -0.3294 H   0  0  0  0  0  0  0  0  0  0  0  0
    1.4796    2.5395   -2.1068 C   0  0  0  0  0  0  0  0  0  0  0  0
    0.6229    2.8886   -2.6922 H   0  0  0  0  0  0  0  0  0  0  0  0
    2.0797    3.4076   -1.8161 H   0  0  0  0  0  0  0  0  0  0  0  0
    2.0986    1.8986   -2.7424 H   0  0  0  0  0  0  0  0  0  0  0  0
    0.2274    2.7508    0.0223 C   0  0  0  0  0  0  0  0  0  0  0  0
   -0.0926    2.2821    0.9524 H   0  0  0  0  0  0  0  0  0  0  0  0
    0.8557    3.6087    0.2824 H   0  0  0  0  0  0  0  0  0  0  0  0
   -0.6602    3.1199   -0.5014 H   0  0  0  0  0  0  0  0  0  0  0  0
    0.5653   -0.4880    1.0819 C   0  0  0  0  0  0  0  0  0  0  0  0
    1.7391   -0.5603    1.4231 O   0  0  0  0  0  0  0  0  0  0  0  0
   -0.3674   -0.0176    1.9895 N   0  0  0  0  0  0  0  0  0  0  0  0
   -1.3377   -0.0571    1.6973 H   0  0  0  0  0  0  0  0  0  0  0  0
   -0.0649    0.1880    3.3998 C   0  0  0  0  0  0  0  0  0  0  0  0
    0.7304    0.9315    3.5164 H   0  0  0  0  0  0  0  0  0  0  0  0
   -0.9526    0.5474    3.9286 H   0  0  0  0  0  0  0  0  0  0  0  0
    0.2591   -0.7506    3.8615 H   0  0  0  0  0  0  0  0  0  0  0  0
  1  2  1  0  0  0  0
  2  3  1  0  0  0  0
  2  4  1  0  0  0  0
  2  5  1  0  0  0  0
  5  6  2  0  0  0  0
  5  7  1  0  0  0  0
  7  8  1  0  0  0  0
  7  9  1  0  0  0  0
  9 10  1  0  0  0  0
  9 11  1  0  0  0  0
  9 24  1  0  0  0  0
 11 12  1  0  0  0  0
 11 13  1  0  0  0  0
 11 14  1  0  0  0  0
 14 15  1  0  0  0  0
 14 16  1  0  0  0  0
 14 20  1  0  0  0  0
 16 17  1  0  0  0  0
 16 18  1  0  0  0  0
 16 19  1  0  0  0  0
 20 21  1  0  0  0  0
 20 22  1  0  0  0  0
 20 23  1  0  0  0  0
 24 25  2  0  0  0  0
 24 26  1  0  0  0  0
 26 27  1  0  0  0  0
 26 28  1  0  0  0  0
 28 29  1  0  0  0  0
 28 30  1  0  0  0  0
 28 31  1  0  0  0  0
M  END
$$$$

  -OEChem-04042216013D

 31 30  0     1  0  0  0  0  0999 V2000
   -2.8550   -4.2488    0.0779 H   0  0  0  0  0  0  0  0  0  0  0  0
   -2.7883   -3.2493   -0.3613 C   0  0  0  0  0  0  0  0  0  0  0  0
   -3.5877   -2.6298    0.0520 H   0  0  0  0  0  0  0  0  0  0  0  0
   -2.9215   -3.3322   -1.4426 H   0  0  0  0  0  0  0  0  0  0  0  0
   -1.4374   -2.6324   -0.0498 C   0  0  0  0  0  0  0  0  0  0  0  0
   -0.6310   -3.2508    0.6203 O   0  0  0  0  0  0  0  0  0  0  0  0
   -1.1342   -1.3734   -0.5322 N   0  0  0  0  0  0  0  0  0  0  0  0
   -1.8199   -0.9460   -1.1470 H   0  0  0  0  0  0  0  0  0  0  0  0
    0.1754   -0.7071   -0.3807 C   0  0  1  0  0  0  0  0  0  0  0  0
    0.9448   -1.3785   -0.7787 H   0  0  0  0  0  0  0  0  0  0  0  0
    0.1806    0.5569   -1.2829 C   0  0  0  0  0  0  0  0  0  0  0  0
    0.5079    0.2297   -2.2753 H   0  0  0  0  0  0  0  0  0  0  0  0
   -0.8486    0.9138   -1.3920 H   0  0  0  0  0  0  0  0  0  0  0  0
    1.0369    1.7777   -0.8568 C   0  0  0  0  0  0  0  0  0  0  0  0
    2.0386    1.4389   -0.5692 H   0  0  0  0  0  0  0  0  0  0  0  0
    1.1695    2.7090   -2.0716 C   0  0  0  0  0  0  0  0  0  0  0  0
    0.1880    3.0777   -2.3865 H   0  0  0  0  0  0  0  0  0  0  0  0
    1.8032    3.5682   -1.8302 H   0  0  0  0  0  0  0  0  0  0  0  0
    1.6291    2.1800   -2.9124 H   0  0  0  0  0  0  0  0  0  0  0  0
    0.4336    2.6063    0.2917 C   0  0  0  0  0  0  0  0  0  0  0  0
    0.6705    2.1651    1.2603 H   0  0  0  0  0  0  0  0  0  0  0  0
    0.8512    3.6180    0.2982 H   0  0  0  0  0  0  0  0  0  0  0  0
   -0.6528    2.6844    0.1899 H   0  0  0  0  0  0  0  0  0  0  0  0
    0.5593   -0.5123    1.1055 C   0  0  0  0  0  0  0  0  0  0  0  0
    1.7333   -0.5781    1.4472 O   0  0  0  0  0  0  0  0  0  0  0  0
   -0.3791   -0.0448    2.0102 N   0  0  0  0  0  0  0  0  0  0  0  0
   -1.3472   -0.0897    1.7116 H   0  0  0  0  0  0  0  0  0  0  0  0
   -0.0909    0.1254    3.4286 C   0  0  0  0  0  0  0  0  0  0  0  0
    0.7309    0.8348    3.5716 H   0  0  0  0  0  0  0  0  0  0  0  0
   -0.9721    0.5110    3.9499 H   0  0  0  0  0  0  0  0  0  0  0  0
    0.1884   -0.8332    3.8783 H   0  0  0  0  0  0  0  0  0  0  0  0
  1  2  1  0  0  0  0
  2  3  1  0  0  0  0
  2  4  1  0  0  0  0
  2  5  1  0  0  0  0
  5  6  2  0  0  0  0
  5  7  1  0  0  0  0
  7  8  1  0  0  0  0
  7  9  1  0  0  0  0
  9 10  1  0  0  0  0
  9 11  1  0  0  0  0
  9 24  1  0  0  0  0
 11 12  1  0  0  0  0
 11 13  1  0  0  0  0
 11 14  1  0  0  0  0
 14 15  1  0  0  0  0
 14 16  1  0  0  0  0
 14 20  1  0  0  0  0
 16 17  1  0  0  0  0
 16 18  1  0  0  0  0
 16 19  1  0  0  0  0
 20 21  1  0  0  0  0
 20 22  1  0  0  0  0
 20 23  1  0  0  0  0
 24 25  2  0  0  0  0
 24 26  1  0  0  0  0
 26 27  1  0  0  0  0
 26 28  1  0  0  0  0
 28 29  1  0  0  0  0
 28 30  1  0  0  0  0
 28 31  1  0  0  0  0
M  END
$$$$

  -OEChem-04042216013D

 31 30  0     1  0  0  0  0  0999 V2000
   -2.9379   -4.1739    0.0729 H   0  0  0  0  0  0  0  0  0  0  0  0
   -2.8229   -3.1838   -0.3777 C   0  0  0  0  0  0  0  0  0  0  0  0
   -3.6033   -2.5269    0.0135 H   0  0  0  0  0  0  0  0  0  0  0  0
   -2.9397   -3.2757   -1.4601 H   0  0  0  0  0  0  0  0  0  0  0  0
   -1.4542   -2.6175   -0.0492 C   0  0  0  0  0  0  0  0  0  0  0  0
   -0.6864   -3.2591    0.6437 O   0  0  0  0  0  0  0  0  0  0  0  0
   -1.0922   -1.3795   -0.5456 N   0  0  0  0  0  0  0  0  0  0  0  0
   -1.7472   -0.9368   -1.1825 H   0  0  0  0  0  0  0  0  0  0  0  0
    0.2356   -0.7574   -0.3668 C   0  0  1  0  0  0  0  0  0  0  0  0
    1.0020   -1.4365   -0.7569 H   0  0  0  0  0  0  0  0  0  0  0  0
    0.2267    0.5073   -1.2681 C   0  0  0  0  0  0  0  0  0  0  0  0
    0.2636    0.1608   -2.3064 H   0  0  0  0  0  0  0  0  0  0  0  0
   -0.7397    1.0034   -1.1268 H   0  0  0  0  0  0  0  0  0  0  0  0
    1.3115    1.6044   -1.0897 C   0  0  0  0  0  0  0  0  0  0  0  0
    2.2997    1.1710   -1.2786 H   0  0  0  0  0  0  0  0  0  0  0  0
    1.0269    2.7035   -2.1266 C   0  0  0  0  0  0  0  0  0  0  0  0
    0.0673    3.1910   -1.9257 H   0  0  0  0  0  0  0  0  0  0  0  0
    1.8140    3.4641   -2.1056 H   0  0  0  0  0  0  0  0  0  0  0  0
    0.9966    2.2802   -3.1355 H   0  0  0  0  0  0  0  0  0  0  0  0
    1.3254    2.3082    0.2804 C   0  0  0  0  0  0  0  0  0  0  0  0
    1.8789    1.7261    1.0189 H   0  0  0  0  0  0  0  0  0  0  0  0
    1.8256    3.2794    0.2129 H   0  0  0  0  0  0  0  0  0  0  0  0
    0.3061    2.4732    0.6427 H   0  0  0  0  0  0  0  0  0  0  0  0
    0.5842   -0.5463    1.1240 C   0  0  0  0  0  0  0  0  0  0  0  0
    1.7216   -0.7601    1.5246 O   0  0  0  0  0  0  0  0  0  0  0  0
   -0.3566   -0.0238    1.9946 N   0  0  0  0  0  0  0  0  0  0  0  0
   -1.3102    0.0231    1.6531 H   0  0  0  0  0  0  0  0  0  0  0  0
   -0.1104    0.1308    3.4222 C   0  0  0  0  0  0  0  0  0  0  0  0
    0.7381    0.8015    3.5937 H   0  0  0  0  0  0  0  0  0  0  0  0
   -0.9903    0.5554    3.9144 H   0  0  0  0  0  0  0  0  0  0  0  0
    0.1093   -0.8399    3.8792 H   0  0  0  0  0  0  0  0  0  0  0  0
  1  2  1  0  0  0  0
  2  3  1  0  0  0  0
  2  4  1  0  0  0  0
  2  5  1  0  0  0  0
  5  6  2  0  0  0  0
  5  7  1  0  0  0  0
  7  8  1  0  0  0  0
  7  9  1  0  0  0  0
  9 10  1  0  0  0  0
  9 11  1  0  0  0  0
  9 24  1  0  0  0  0
 11 12  1  0  0  0  0
 11 13  1  0  0  0  0
 11 14  1  0  0  0  0
 14 15  1  0  0  0  0
 14 16  1  0  0  0  0
 14 20  1  0  0  0  0
 16 17  1  0  0  0  0
 16 18  1  0  0  0  0
 16 19  1  0  0  0  0
 20 21  1  0  0  0  0
 20 22  1  0  0  0  0
 20 23  1  0  0  0  0
 24 25  2  0  0  0  0
 24 26  1  0  0  0  0
 26 27  1  0  0  0  0
 26 28  1  0  0  0  0
 28 29  1  0  0  0  0
 28 30  1  0  0  0  0
 28 31  1  0  0  0  0
M  END
$$$$

  -OEChem-04042216013D

 31 30  0     1  0  0  0  0  0999 V2000
   -2.9760   -4.1366    0.0840 H   0  0  0  0  0  0  0  0  0  0  0  0
   -2.8414   -3.1487   -0.3660 C   0  0  0  0  0  0  0  0  0  0  0  0
   -3.6104   -2.4776    0.0236 H   0  0  0  0  0  0  0  0  0  0  0  0
   -2.9573   -3.2380   -1.4487 H   0  0  0  0  0  0  0  0  0  0  0  0
   -1.4631   -2.6086   -0.0337 C   0  0  0  0  0  0  0  0  0  0  0  0
   -0.7096   -3.2681    0.6577 O   0  0  0  0  0  0  0  0  0  0  0  0
   -1.0756   -1.3778   -0.5300 N   0  0  0  0  0  0  0  0  0  0  0  0
   -1.7193   -0.9266   -1.1725 H   0  0  0  0  0  0  0  0  0  0  0  0
    0.2627   -0.7766   -0.3462 C   0  0  1  0  0  0  0  0  0  0  0  0
    1.0257   -1.4618   -0.7328 H   0  0  0  0  0  0  0  0  0  0  0  0
    0.2556    0.4906   -1.2503 C   0  0  0  0  0  0  0  0  0  0  0  0
    0.2610    0.1491   -2.2908 H   0  0  0  0  0  0  0  0  0  0  0  0
   -0.7093    0.9796   -1.0769 H   0  0  0  0  0  0  0  0  0  0  0  0
    1.3267    1.6142   -1.1220 C   0  0  0  0  0  0  0  0  0  0  0  0
    2.2530    1.2642   -1.5903 H   0  0  0  0  0  0  0  0  0  0  0  0
    0.8027    2.8420   -1.8856 C   0  0  0  0  0  0  0  0  0  0  0  0
   -0.0808    3.2617   -1.3934 H   0  0  0  0  0  0  0  0  0  0  0  0
    1.5720    3.6191   -1.9374 H   0  0  0  0  0  0  0  0  0  0  0  0
    0.5324    2.5678   -2.9102 H   0  0  0  0  0  0  0  0  0  0  0  0
    1.6673    2.1114    0.2915 C   0  0  0  0  0  0  0  0  0  0  0  0
    2.3312    1.4108    0.8007 H   0  0  0  0  0  0  0  0  0  0  0  0
    2.1988    3.0672    0.2462 H   0  0  0  0  0  0  0  0  0  0  0  0
    0.7599    2.2555    0.8852 H   0  0  0  0  0  0  0  0  0  0  0  0
    0.5851   -0.5775    1.1540 C   0  0  0  0  0  0  0  0  0  0  0  0
    1.6914   -0.8672    1.5917 O   0  0  0  0  0  0  0  0  0  0  0  0
   -0.3638   -0.0433    2.0088 N   0  0  0  0  0  0  0  0  0  0  0  0
   -1.3035    0.0466    1.6387 H   0  0  0  0  0  0  0  0  0  0  0  0
   -0.1618    0.0519    3.4487 C   0  0  0  0  0  0  0  0  0  0  0  0
    0.7154    0.6681    3.6722 H   0  0  0  0  0  0  0  0  0  0  0  0
   -1.0344    0.5092    3.9243 H   0  0  0  0  0  0  0  0  0  0  0  0
   -0.0123   -0.9438    3.8795 H   0  0  0  0  0  0  0  0  0  0  0  0
  1  2  1  0  0  0  0
  2  3  1  0  0  0  0
  2  4  1  0  0  0  0
  2  5  1  0  0  0  0
  5  6  2  0  0  0  0
  5  7  1  0  0  0  0
  7  8  1  0  0  0  0
  7  9  1  0  0  0  0
  9 10  1  0  0  0  0
  9 11  1  0  0  0  0
  9 24  1  0  0  0  0
 11 12  1  0  0  0  0
 11 13  1  0  0  0  0
 11 14  1  0  0  0  0
 14 15  1  0  0  0  0
 14 16  1  0  0  0  0
 14 20  1  0  0  0  0
 16 17  1  0  0  0  0
 16 18  1  0  0  0  0
 16 19  1  0  0  0  0
 20 21  1  0  0  0  0
 20 22  1  0  0  0  0
 20 23  1  0  0  0  0
 24 25  2  0  0  0  0
 24 26  1  0  0  0  0
 26 27  1  0  0  0  0
 26 28  1  0  0  0  0
 28 29  1  0  0  0  0
 28 30  1  0  0  0  0
 28 31  1  0  0  0  0
M  END
$$$$

  -OEChem-04042216013D

 31 30  0     1  0  0  0  0  0999 V2000
   -2.9960   -4.1202    0.1325 H   0  0  0  0  0  0  0  0  0  0  0  0
   -2.8511   -3.1392   -0.3293 C   0  0  0  0  0  0  0  0  0  0  0  0
   -3.6078   -2.4533    0.0588 H   0  0  0  0  0  0  0  0  0  0  0  0
   -2.9766   -3.2391   -1.4101 H   0  0  0  0  0  0  0  0  0  0  0  0
   -1.4626   -2.6149   -0.0138 C   0  0  0  0  0  0  0  0  0  0  0  0
   -0.7089   -3.2847    0.6674 O   0  0  0  0  0  0  0  0  0  0  0  0
   -1.0633   -1.3928   -0.5228 N   0  0  0  0  0  0  0  0  0  0  0  0
   -1.7107   -0.9328   -1.1551 H   0  0  0  0  0  0  0  0  0  0  0  0
    0.2809   -0.8004   -0.3471 C   0  0  1  0  0  0  0  0  0  0  0  0
    1.0466   -1.4815   -0.7347 H   0  0  0  0  0  0  0  0  0  0  0  0
    0.2552    0.4758   -1.2415 C   0  0  0  0  0  0  0  0  0  0  0  0
    0.2321    0.1451   -2.2852 H   0  0  0  0  0  0  0  0  0  0  0  0
   -0.7104    0.9525   -1.0396 H   0  0  0  0  0  0  0  0  0  0  0  0
    1.3170    1.6167   -1.1430 C   0  0  0  0  0  0  0  0  0  0  0  0
    2.1016    1.3882   -1.8726 H   0  0  0  0  0  0  0  0  0  0  0  0
    0.6515    2.9441   -1.5396 C   0  0  0  0  0  0  0  0  0  0  0  0
   -0.0973    3.2412   -0.7982 H   0  0  0  0  0  0  0  0  0  0  0  0
    1.3985    3.7408   -1.6142 H   0  0  0  0  0  0  0  0  0  0  0  0
    0.1603    2.8487   -2.5131 H   0  0  0  0  0  0  0  0  0  0  0  0
    2.0234    1.8564    0.1964 C   0  0  0  0  0  0  0  0  0  0  0  0
    2.6853    1.0207    0.4344 H   0  0  0  0  0  0  0  0  0  0  0  0
    2.6497    2.7525    0.1412 H   0  0  0  0  0  0  0  0  0  0  0  0
    1.3014    2.0006    1.0052 H   0  0  0  0  0  0  0  0  0  0  0  0
    0.5816   -0.5982    1.1592 C   0  0  0  0  0  0  0  0  0  0  0  0
    1.6649   -0.9219    1.6290 O   0  0  0  0  0  0  0  0  0  0  0  0
   -0.3796   -0.0525    1.9931 N   0  0  0  0  0  0  0  0  0  0  0  0
   -1.3063    0.0619    1.5981 H   0  0  0  0  0  0  0  0  0  0  0  0
   -0.2143    0.0354    3.4382 C   0  0  0  0  0  0  0  0  0  0  0  0
    0.6750    0.6243    3.6866 H   0  0  0  0  0  0  0  0  0  0  0  0
   -1.0851    0.5198    3.8898 H   0  0  0  0  0  0  0  0  0  0  0  0
   -0.1074   -0.9645    3.8722 H   0  0  0  0  0  0  0  0  0  0  0  0
  1  2  1  0  0  0  0
  2  3  1  0  0  0  0
  2  4  1  0  0  0  0
  2  5  1  0  0  0  0
  5  6  2  0  0  0  0
  5  7  1  0  0  0  0
  7  8  1  0  0  0  0
  7  9  1  0  0  0  0
  9 10  1  0  0  0  0
  9 11  1  0  0  0  0
  9 24  1  0  0  0  0
 11 12  1  0  0  0  0
 11 13  1  0  0  0  0
 11 14  1  0  0  0  0
 14 15  1  0  0  0  0
 14 16  1  0  0  0  0
 14 20  1  0  0  0  0
 16 17  1  0  0  0  0
 16 18  1  0  0  0  0
 16 19  1  0  0  0  0
 20 21  1  0  0  0  0
 20 22  1  0  0  0  0
 20 23  1  0  0  0  0
 24 25  2  0  0  0  0
 24 26  1  0  0  0  0
 26 27  1  0  0  0  0
 26 28  1  0  0  0  0
 28 29  1  0  0  0  0
 28 30  1  0  0  0  0
 28 31  1  0  0  0  0
M  END
$$$$

  -OEChem-04042216013D

 31 30  0     1  0  0  0  0  0999 V2000
   -3.0124   -4.1143    0.1704 H   0  0  0  0  0  0  0  0  0  0  0  0
   -2.8577   -3.1420   -0.3061 C   0  0  0  0  0  0  0  0  0  0  0  0
   -3.6050   -2.4416    0.0739 H   0  0  0  0  0  0  0  0  0  0  0  0
   -2.9878   -3.2559   -1.3849 H   0  0  0  0  0  0  0  0  0  0  0  0
   -1.4627   -2.6284   -0.0023 C   0  0  0  0  0  0  0  0  0  0  0  0
   -0.7134   -3.2946    0.6871 O   0  0  0  0  0  0  0  0  0  0  0  0
   -1.0552   -1.4165   -0.5284 N   0  0  0  0  0  0  0  0  0  0  0  0
   -1.6999   -0.9622   -1.1674 H   0  0  0  0  0  0  0  0  0  0  0  0
    0.2889   -0.8233   -0.3540 C   0  0  1  0  0  0  0  0  0  0  0  0
    1.0613   -1.4991   -0.7373 H   0  0  0  0  0  0  0  0  0  0  0  0
    0.2459    0.4601   -1.2362 C   0  0  0  0  0  0  0  0  0  0  0  0
    0.2273    0.1322   -2.2809 H   0  0  0  0  0  0  0  0  0  0  0  0
   -0.7262    0.9256   -1.0396 H   0  0  0  0  0  0  0  0  0  0  0  0
    1.3048    1.6053   -1.1339 C   0  0  0  0  0  0  0  0  0  0  0  0
    1.8988    1.5470   -2.0524 H   0  0  0  0  0  0  0  0  0  0  0  0
    0.6016    2.9703   -1.1284 C   0  0  0  0  0  0  0  0  0  0  0  0
    0.0075    3.0937   -0.2170 H   0  0  0  0  0  0  0  0  0  0  0  0
    1.3367    3.7801   -1.1750 H   0  0  0  0  0  0  0  0  0  0  0  0
   -0.0615    3.0635   -1.9944 H   0  0  0  0  0  0  0  0  0  0  0  0
    2.3215    1.5793    0.0113 C   0  0  0  0  0  0  0  0  0  0  0  0
    2.8747    0.6358    0.0119 H   0  0  0  0  0  0  0  0  0  0  0  0
    3.0499    2.3861   -0.1164 H   0  0  0  0  0  0  0  0  0  0  0  0
    1.8339    1.7228    0.9798 H   0  0  0  0  0  0  0  0  0  0  0  0
    0.5739   -0.5978    1.1532 C   0  0  0  0  0  0  0  0  0  0  0  0
    1.6469   -0.9232    1.6454 O   0  0  0  0  0  0  0  0  0  0  0  0
   -0.3965   -0.0372    1.9659 N   0  0  0  0  0  0  0  0  0  0  0  0
   -1.3154    0.0816    1.5547 H   0  0  0  0  0  0  0  0  0  0  0  0
   -0.2514    0.0748    3.4115 C   0  0  0  0  0  0  0  0  0  0  0  0
    0.6354    0.6660    3.6630 H   0  0  0  0  0  0  0  0  0  0  0  0
   -1.1275    0.5685    3.8425 H   0  0  0  0  0  0  0  0  0  0  0  0
   -0.1532   -0.9178    3.8636 H   0  0  0  0  0  0  0  0  0  0  0  0
  1  2  1  0  0  0  0
  2  3  1  0  0  0  0
  2  4  1  0  0  0  0
  2  5  1  0  0  0  0
  5  6  2  0  0  0  0
  5  7  1  0  0  0  0
  7  8  1  0  0  0  0
  7  9  1  0  0  0  0
  9 10  1  0  0  0  0
  9 11  1  0  0  0  0
  9 24  1  0  0  0  0
 11 12  1  0  0  0  0
 11 13  1  0  0  0  0
 11 14  1  0  0  0  0
 14 15  1  0  0  0  0
 14 16  1  0  0  0  0
 14 20  1  0  0  0  0
 16 17  1  0  0  0  0
 16 18  1  0  0  0  0
 16 19  1  0  0  0  0
 20 21  1  0  0  0  0
 20 22  1  0  0  0  0
 20 23  1  0  0  0  0
 24 25  2  0  0  0  0
 24 26  1  0  0  0  0
 26 27  1  0  0  0  0
 26 28  1  0  0  0  0
 28 29  1  0  0  0  0
 28 30  1  0  0  0  0
 28 31  1  0  0  0  0
M  END
$$$$

  -OEChem-04042216013D

 31 30  0     1  0  0  0  0  0999 V2000
   -2.9932   -4.1380    0.1916 H   0  0  0  0  0  0  0  0  0  0  0  0
   -2.8484   -3.1690   -0.2948 C   0  0  0  0  0  0  0  0  0  0  0  0
   -3.6062   -2.4743    0.0749 H   0  0  0  0  0  0  0  0  0  0  0  0
   -2.9726   -3.2960   -1.3728 H   0  0  0  0  0  0  0  0  0  0  0  0
   -1.4612   -2.6349    0.0096 C   0  0  0  0  0  0  0  0  0  0  0  0
   -0.7113   -3.2810    0.7169 O   0  0  0  0  0  0  0  0  0  0  0  0
   -1.0620   -1.4277   -0.5337 N   0  0  0  0  0  0  0  0  0  0  0  0
   -1.7043   -0.9933   -1.1889 H   0  0  0  0  0  0  0  0  0  0  0  0
    0.2781   -0.8246   -0.3661 C   0  0  1  0  0  0  0  0  0  0  0  0
    1.0542   -1.4970   -0.7481 H   0  0  0  0  0  0  0  0  0  0  0  0
    0.2254    0.4597   -1.2414 C   0  0  0  0  0  0  0  0  0  0  0  0
    0.2342    0.1261   -2.2845 H   0  0  0  0  0  0  0  0  0  0  0  0
   -0.7528    0.9234   -1.0738 H   0  0  0  0  0  0  0  0  0  0  0  0
    1.2918    1.5922   -1.1163 C   0  0  0  0  0  0  0  0  0  0  0  0
    1.6830    1.7341   -2.1297 H   0  0  0  0  0  0  0  0  0  0  0  0
    0.6345    2.9200   -0.7177 C   0  0  0  0  0  0  0  0  0  0  0  0
    0.1896    2.8429    0.2797 H   0  0  0  0  0  0  0  0  0  0  0  0
    1.3769    3.7244   -0.7047 H   0  0  0  0  0  0  0  0  0  0  0  0
   -0.1490    3.1918   -1.4321 H   0  0  0  0  0  0  0  0  0  0  0  0
    2.5254    1.3381   -0.2440 C   0  0  0  0  0  0  0  0  0  0  0  0
    2.9278    0.3361   -0.4212 H   0  0  0  0  0  0  0  0  0  0  0  0
    3.3082    2.0626   -0.4883 H   0  0  0  0  0  0  0  0  0  0  0  0
    2.2909    1.4550    0.8175 H   0  0  0  0  0  0  0  0  0  0  0  0
    0.5703   -0.5728    1.1356 C   0  0  0  0  0  0  0  0  0  0  0  0
    1.6423   -0.9001    1.6290 O   0  0  0  0  0  0  0  0  0  0  0  0
   -0.3972   -0.0038    1.9457 N   0  0  0  0  0  0  0  0  0  0  0  0
   -1.3192    0.1043    1.5382 H   0  0  0  0  0  0  0  0  0  0  0  0
   -0.2476    0.1148    3.3903 C   0  0  0  0  0  0  0  0  0  0  0  0
    0.6394    0.7083    3.6358 H   0  0  0  0  0  0  0  0  0  0  0  0
   -1.1227    0.6089    3.8223 H   0  0  0  0  0  0  0  0  0  0  0  0
   -0.1462   -0.8759    3.8460 H   0  0  0  0  0  0  0  0  0  0  0  0
  1  2  1  0  0  0  0
  2  3  1  0  0  0  0
  2  4  1  0  0  0  0
  2  5  1  0  0  0  0
  5  6  2  0  0  0  0
  5  7  1  0  0  0  0
  7  8  1  0  0  0  0
  7  9  1  0  0  0  0
  9 10  1  0  0  0  0
  9 11  1  0  0  0  0
  9 24  1  0  0  0  0
 11 12  1  0  0  0  0
 11 13  1  0  0  0  0
 11 14  1  0  0  0  0
 14 15  1  0  0  0  0
 14 16  1  0  0  0  0
 14 20  1  0  0  0  0
 16 17  1  0  0  0  0
 16 18  1  0  0  0  0
 16 19  1  0  0  0  0
 20 21  1  0  0  0  0
 20 22  1  0  0  0  0
 20 23  1  0  0  0  0
 24 25  2  0  0  0  0
 24 26  1  0  0  0  0
 26 27  1  0  0  0  0
 26 28  1  0  0  0  0
 28 29  1  0  0  0  0
 28 30  1  0  0  0  0
 28 31  1  0  0  0  0
M  END
$$$$

  -OEChem-04042216013D

 31 30  0     1  0  0  0  0  0999 V2000
   -2.9704   -4.1584    0.2101 H   0  0  0  0  0  0  0  0  0  0  0  0
   -2.8373   -3.1910   -0.2826 C   0  0  0  0  0  0  0  0  0  0  0  0
   -3.6048   -2.5032    0.0802 H   0  0  0  0  0  0  0  0  0  0  0  0
   -2.9567   -3.3272   -1.3600 H   0  0  0  0  0  0  0  0  0  0  0  0
   -1.4578   -2.6376    0.0205 C   0  0  0  0  0  0  0  0  0  0  0  0
   -0.7031   -3.2658    0.7390 O   0  0  0  0  0  0  0  0  0  0  0  0
   -1.0705   -1.4332   -0.5367 N   0  0  0  0  0  0  0  0  0  0  0  0
   -1.7145   -1.0142   -1.2003 H   0  0  0  0  0  0  0  0  0  0  0  0
    0.2651   -0.8200   -0.3784 C   0  0  1  0  0  0  0  0  0  0  0  0
    1.0415   -1.4926   -0.7592 H   0  0  0  0  0  0  0  0  0  0  0  0
    0.2083    0.4604   -1.2544 C   0  0  0  0  0  0  0  0  0  0  0  0
    0.2393    0.1222   -2.2956 H   0  0  0  0  0  0  0  0  0  0  0  0
   -0.7695    0.9318   -1.1088 H   0  0  0  0  0  0  0  0  0  0  0  0
    1.2868    1.5708   -1.1042 C   0  0  0  0  0  0  0  0  0  0  0  0
    1.4833    1.9173   -2.1249 H   0  0  0  0  0  0  0  0  0  0  0  0
    0.7378    2.7880   -0.3496 C   0  0  0  0  0  0  0  0  0  0  0  0
    0.4745    2.5176    0.6777 H   0  0  0  0  0  0  0  0  0  0  0  0
    1.4889    3.5836   -0.3153 H   0  0  0  0  0  0  0  0  0  0  0  0
   -0.1537    3.1817   -0.8477 H   0  0  0  0  0  0  0  0  0  0  0  0
    2.6522    1.1451   -0.5500 C   0  0  0  0  0  0  0  0  0  0  0  0
    2.9199    0.1420   -0.8953 H   0  0  0  0  0  0  0  0  0  0  0  0
    3.4243    1.8400   -0.8940 H   0  0  0  0  0  0  0  0  0  0  0  0
    2.6612    1.1648    0.5423 H   0  0  0  0  0  0  0  0  0  0  0  0
    0.5721   -0.5461    1.1162 C   0  0  0  0  0  0  0  0  0  0  0  0
    1.6513   -0.8577    1.6028 O   0  0  0  0  0  0  0  0  0  0  0  0
   -0.3911    0.0278    1.9279 N   0  0  0  0  0  0  0  0  0  0  0  0
   -1.3185    0.1206    1.5289 H   0  0  0  0  0  0  0  0  0  0  0  0
   -0.2277    0.1674    3.3689 C   0  0  0  0  0  0  0  0  0  0  0  0
    0.6558    0.7728    3.5976 H   0  0  0  0  0  0  0  0  0  0  0  0
   -1.1034    0.6588    3.8033 H   0  0  0  0  0  0  0  0  0  0  0  0
   -0.1119   -0.8162    3.8364 H   0  0  0  0  0  0  0  0  0  0  0  0
  1  2  1  0  0  0  0
  2  3  1  0  0  0  0
  2  4  1  0  0  0  0
  2  5  1  0  0  0  0
  5  6  2  0  0  0  0
  5  7  1  0  0  0  0
  7  8  1  0  0  0  0
  7  9  1  0  0  0  0
  9 10  1  0  0  0  0
  9 11  1  0  0  0  0
  9 24  1  0  0  0  0
 11 12  1  0  0  0  0
 11 13  1  0  0  0  0
 11 14  1  0  0  0  0
 14 15  1  0  0  0  0
 14 16  1  0  0  0  0
 14 20  1  0  0  0  0
 16 17  1  0  0  0  0
 16 18  1  0  0  0  0
 16 19  1  0  0  0  0
 20 21  1  0  0  0  0
 20 22  1  0  0  0  0
 20 23  1  0  0  0  0
 24 25  2  0  0  0  0
 24 26  1  0  0  0  0
 26 27  1  0  0  0  0
 26 28  1  0  0  0  0
 28 29  1  0  0  0  0
 28 30  1  0  0  0  0
 28 31  1  0  0  0  0
M  END
$$$$

  -OEChem-04042216013D

 31 30  0     1  0  0  0  0  0999 V2000
   -2.9604   -4.1673    0.2060 H   0  0  0  0  0  0  0  0  0  0  0  0
   -2.8358   -3.1947   -0.2790 C   0  0  0  0  0  0  0  0  0  0  0  0
   -3.6021   -2.5135    0.0984 H   0  0  0  0  0  0  0  0  0  0  0  0
   -2.9661   -3.3208   -1.3565 H   0  0  0  0  0  0  0  0  0  0  0  0
   -1.4558   -2.6379    0.0164 C   0  0  0  0  0  0  0  0  0  0  0  0
   -0.6954   -3.2638    0.7311 O   0  0  0  0  0  0  0  0  0  0  0  0
   -1.0756   -1.4309   -0.5398 N   0  0  0  0  0  0  0  0  0  0  0  0
   -1.7231   -1.0139   -1.2011 H   0  0  0  0  0  0  0  0  0  0  0  0
    0.2579   -0.8128   -0.3851 C   0  0  1  0  0  0  0  0  0  0  0  0
    1.0343   -1.4866   -0.7639 H   0  0  0  0  0  0  0  0  0  0  0  0
    0.2086    0.4645   -1.2649 C   0  0  0  0  0  0  0  0  0  0  0  0
    0.2422    0.1281   -2.3065 H   0  0  0  0  0  0  0  0  0  0  0  0
   -0.7626    0.9494   -1.1210 H   0  0  0  0  0  0  0  0  0  0  0  0
    1.2962    1.5578   -1.1003 C   0  0  0  0  0  0  0  0  0  0  0  0
    1.3124    2.0859   -2.0600 H   0  0  0  0  0  0  0  0  0  0  0  0
    0.9263    2.6194   -0.0563 C   0  0  0  0  0  0  0  0  0  0  0  0
    0.9485    2.2031    0.9539 H   0  0  0  0  0  0  0  0  0  0  0  0
    1.6400    3.4481   -0.0963 H   0  0  0  0  0  0  0  0  0  0  0  0
   -0.0735    3.0200   -0.2483 H   0  0  0  0  0  0  0  0  0  0  0  0
    2.7198    1.0255   -0.8925 C   0  0  0  0  0  0  0  0  0  0  0  0
    2.8979    0.1450   -1.5174 H   0  0  0  0  0  0  0  0  0  0  0  0
    3.4467    1.7950   -1.1703 H   0  0  0  0  0  0  0  0  0  0  0  0
    2.9049    0.7625    0.1500 H   0  0  0  0  0  0  0  0  0  0  0  0
    0.5663   -0.5421    1.1102 C   0  0  0  0  0  0  0  0  0  0  0  0
    1.6598   -0.8124    1.5882 O   0  0  0  0  0  0  0  0  0  0  0  0
   -0.3999    0.0247    1.9245 N   0  0  0  0  0  0  0  0  0  0  0  0
   -1.3314    0.0996    1.5315 H   0  0  0  0  0  0  0  0  0  0  0  0
   -0.2284    0.1847    3.3627 C   0  0  0  0  0  0  0  0  0  0  0  0
    0.6330    0.8261    3.5770 H   0  0  0  0  0  0  0  0  0  0  0  0
   -1.1187    0.6455    3.8008 H   0  0  0  0  0  0  0  0  0  0  0  0
   -0.0704   -0.7887    3.8390 H   0  0  0  0  0  0  0  0  0  0  0  0
  1  2  1  0  0  0  0
  2  3  1  0  0  0  0
  2  4  1  0  0  0  0
  2  5  1  0  0  0  0
  5  6  2  0  0  0  0
  5  7  1  0  0  0  0
  7  8  1  0  0  0  0
  7  9  1  0  0  0  0
  9 10  1  0  0  0  0
  9 11  1  0  0  0  0
  9 24  1  0  0  0  0
 11 12  1  0  0  0  0
 11 13  1  0  0  0  0
 11 14  1  0  0  0  0
 14 15  1  0  0  0  0
 14 16  1  0  0  0  0
 14 20  1  0  0  0  0
 16 17  1  0  0  0  0
 16 18  1  0  0  0  0
 16 19  1  0  0  0  0
 20 21  1  0  0  0  0
 20 22  1  0  0  0  0
 20 23  1  0  0  0  0
 24 25  2  0  0  0  0
 24 26  1  0  0  0  0
 26 27  1  0  0  0  0
 26 28  1  0  0  0  0
 28 29  1  0  0  0  0
 28 30  1  0  0  0  0
 28 31  1  0  0  0  0
M  END
$$$$

  -OEChem-04042216013D

 31 30  0     1  0  0  0  0  0999 V2000
   -2.9532   -4.1841    0.1810 H   0  0  0  0  0  0  0  0  0  0  0  0
   -2.8366   -3.2064   -0.2955 C   0  0  0  0  0  0  0  0  0  0  0  0
   -3.6115   -2.5359    0.0836 H   0  0  0  0  0  0  0  0  0  0  0  0
   -2.9612   -3.3255   -1.3744 H   0  0  0  0  0  0  0  0  0  0  0  0
   -1.4631   -2.6390    0.0102 C   0  0  0  0  0  0  0  0  0  0  0  0
   -0.7016   -3.2598    0.7283 O   0  0  0  0  0  0  0  0  0  0  0  0
   -1.0896   -1.4265   -0.5382 N   0  0  0  0  0  0  0  0  0  0  0  0
   -1.7381   -1.0098   -1.1987 H   0  0  0  0  0  0  0  0  0  0  0  0
    0.2424   -0.8060   -0.3839 C   0  0  1  0  0  0  0  0  0  0  0  0
    1.0143   -1.4862   -0.7608 H   0  0  0  0  0  0  0  0  0  0  0  0
    0.2109    0.4612   -1.2806 C   0  0  0  0  0  0  0  0  0  0  0  0
    0.2392    0.1198   -2.3206 H   0  0  0  0  0  0  0  0  0  0  0  0
   -0.7533    0.9601   -1.1356 H   0  0  0  0  0  0  0  0  0  0  0  0
    1.3016    1.5496   -1.1176 C   0  0  0  0  0  0  0  0  0  0  0  0
    1.1783    2.2196   -1.9755 H   0  0  0  0  0  0  0  0  0  0  0  0
    1.1397    2.4307    0.1295 C   0  0  0  0  0  0  0  0  0  0  0  0
    1.4966    1.9256    1.0299 H   0  0  0  0  0  0  0  0  0  0  0  0
    1.7250    3.3479    0.0124 H   0  0  0  0  0  0  0  0  0  0  0  0
    0.0915    2.7092    0.2737 H   0  0  0  0  0  0  0  0  0  0  0  0
    2.7201    0.9727   -1.2070 C   0  0  0  0  0  0  0  0  0  0  0  0
    2.8264    0.3647   -2.1105 H   0  0  0  0  0  0  0  0  0  0  0  0
    3.4530    1.7841   -1.2506 H   0  0  0  0  0  0  0  0  0  0  0  0
    2.9577    0.3496   -0.3424 H   0  0  0  0  0  0  0  0  0  0  0  0
    0.5643   -0.5429    1.1084 C   0  0  0  0  0  0  0  0  0  0  0  0
    1.6838   -0.7529    1.5569 O   0  0  0  0  0  0  0  0  0  0  0  0
   -0.3959    0.0162    1.9344 N   0  0  0  0  0  0  0  0  0  0  0  0
   -1.3389    0.0557    1.5641 H   0  0  0  0  0  0  0  0  0  0  0  0
   -0.1935    0.2076    3.3644 C   0  0  0  0  0  0  0  0  0  0  0  0
    0.6529    0.8785    3.5451 H   0  0  0  0  0  0  0  0  0  0  0  0
   -1.0863    0.6495    3.8164 H   0  0  0  0  0  0  0  0  0  0  0  0
    0.0061   -0.7517    3.8535 H   0  0  0  0  0  0  0  0  0  0  0  0
  1  2  1  0  0  0  0
  2  3  1  0  0  0  0
  2  4  1  0  0  0  0
  2  5  1  0  0  0  0
  5  6  2  0  0  0  0
  5  7  1  0  0  0  0
  7  8  1  0  0  0  0
  7  9  1  0  0  0  0
  9 10  1  0  0  0  0
  9 11  1  0  0  0  0
  9 24  1  0  0  0  0
 11 12  1  0  0  0  0
 11 13  1  0  0  0  0
 11 14  1  0  0  0  0
 14 15  1  0  0  0  0
 14 16  1  0  0  0  0
 14 20  1  0  0  0  0
 16 17  1  0  0  0  0
 16 18  1  0  0  0  0
 16 19  1  0  0  0  0
 20 21  1  0  0  0  0
 20 22  1  0  0  0  0
 20 23  1  0  0  0  0
 24 25  2  0  0  0  0
 24 26  1  0  0  0  0
 26 27  1  0  0  0  0
 26 28  1  0  0  0  0
 28 29  1  0  0  0  0
 28 30  1  0  0  0  0
 28 31  1  0  0  0  0
M  END
$$$$

  -OEChem-04042216013D

 31 30  0     1  0  0  0  0  0999 V2000
   -2.9533   -4.1949    0.1434 H   0  0  0  0  0  0  0  0  0  0  0  0
   -2.8413   -3.2123   -0.3242 C   0  0  0  0  0  0  0  0  0  0  0  0
   -3.6202   -2.5496    0.0600 H   0  0  0  0  0  0  0  0  0  0  0  0
   -2.9637   -3.3224   -1.4043 H   0  0  0  0  0  0  0  0  0  0  0  0
   -1.4712   -2.6400   -0.0119 C   0  0  0  0  0  0  0  0  0  0  0  0
   -0.7041   -3.2674    0.6945 O   0  0  0  0  0  0  0  0  0  0  0  0
   -1.1061   -1.4157   -0.5397 N   0  0  0  0  0  0  0  0  0  0  0  0
   -1.7594   -0.9883   -1.1888 H   0  0  0  0  0  0  0  0  0  0  0  0
    0.2239   -0.7936   -0.3762 C   0  0  1  0  0  0  0  0  0  0  0  0
    0.9890   -1.4817   -0.7528 H   0  0  0  0  0  0  0  0  0  0  0  0
    0.2134    0.4576   -1.2982 C   0  0  0  0  0  0  0  0  0  0  0  0
    0.2319    0.1020   -2.3338 H   0  0  0  0  0  0  0  0  0  0  0  0
   -0.7473    0.9627   -1.1531 H   0  0  0  0  0  0  0  0  0  0  0  0
    1.2925    1.5635   -1.1565 C   0  0  0  0  0  0  0  0  0  0  0  0
    1.0518    2.3291   -1.9021 H   0  0  0  0  0  0  0  0  0  0  0  0
    1.3639    2.2729    0.2044 C   0  0  0  0  0  0  0  0  0  0  0  0
    1.9389    1.7011    0.9359 H   0  0  0  0  0  0  0  0  0  0  0  0
    1.8607    3.2410    0.0881 H   0  0  0  0  0  0  0  0  0  0  0  0
    0.3594    2.4514    0.5993 H   0  0  0  0  0  0  0  0  0  0  0  0
    2.6746    0.9911   -1.4952 C   0  0  0  0  0  0  0  0  0  0  0  0
    2.6686    0.5386   -2.4916 H   0  0  0  0  0  0  0  0  0  0  0  0
    3.4276    1.7853   -1.4842 H   0  0  0  0  0  0  0  0  0  0  0  0
    2.9698    0.2269   -0.7693 H   0  0  0  0  0  0  0  0  0  0  0  0
    0.5665   -0.5491    1.1119 C   0  0  0  0  0  0  0  0  0  0  0  0
    1.6962   -0.7696    1.5301 O   0  0  0  0  0  0  0  0  0  0  0  0
   -0.3779   -0.0035    1.9643 N   0  0  0  0  0  0  0  0  0  0  0  0
   -1.3278    0.0451    1.6128 H   0  0  0  0  0  0  0  0  0  0  0  0
   -0.1436    0.1786    3.3909 C   0  0  0  0  0  0  0  0  0  0  0  0
    0.7053    0.8500    3.5566 H   0  0  0  0  0  0  0  0  0  0  0  0
   -1.0265    0.6156    3.8665 H   0  0  0  0  0  0  0  0  0  0  0  0
    0.0690   -0.7832    3.8693 H   0  0  0  0  0  0  0  0  0  0  0  0
  1  2  1  0  0  0  0
  2  3  1  0  0  0  0
  2  4  1  0  0  0  0
  2  5  1  0  0  0  0
  5  6  2  0  0  0  0
  5  7  1  0  0  0  0
  7  8  1  0  0  0  0
  7  9  1  0  0  0  0
  9 10  1  0  0  0  0
  9 11  1  0  0  0  0
  9 24  1  0  0  0  0
 11 12  1  0  0  0  0
 11 13  1  0  0  0  0
 11 14  1  0  0  0  0
 14 15  1  0  0  0  0
 14 16  1  0  0  0  0
 14 20  1  0  0  0  0
 16 17  1  0  0  0  0
 16 18  1  0  0  0  0
 16 19  1  0  0  0  0
 20 21  1  0  0  0  0
 20 22  1  0  0  0  0
 20 23  1  0  0  0  0
 24 25  2  0  0  0  0
 24 26  1  0  0  0  0
 26 27  1  0  0  0  0
 26 28  1  0  0  0  0
 28 29  1  0  0  0  0
 28 30  1  0  0  0  0
 28 31  1  0  0  0  0
M  END
$$$$

  -OEChem-04042216013D

 31 30  0     1  0  0  0  0  0999 V2000
   -2.9675   -4.1743    0.1447 H   0  0  0  0  0  0  0  0  0  0  0  0
   -2.8406   -3.1940   -0.3239 C   0  0  0  0  0  0  0  0  0  0  0  0
   -3.6138   -2.5211    0.0540 H   0  0  0  0  0  0  0  0  0  0  0  0
   -2.9574   -3.3046   -1.4046 H   0  0  0  0  0  0  0  0  0  0  0  0
   -1.4661   -2.6371   -0.0039 C   0  0  0  0  0  0  0  0  0  0  0  0
   -0.7081   -3.2749    0.7027 O   0  0  0  0  0  0  0  0  0  0  0  0
   -1.0880   -1.4149   -0.5274 N   0  0  0  0  0  0  0  0  0  0  0  0
   -1.7355   -0.9820   -1.1786 H   0  0  0  0  0  0  0  0  0  0  0  0
    0.2457   -0.8005   -0.3581 C   0  0  1  0  0  0  0  0  0  0  0  0
    1.0128   -1.4880   -0.7319 H   0  0  0  0  0  0  0  0  0  0  0  0
    0.2275    0.4468   -1.2880 C   0  0  0  0  0  0  0  0  0  0  0  0
    0.2106    0.0875   -2.3224 H   0  0  0  0  0  0  0  0  0  0  0  0
   -0.7305    0.9482   -1.1141 H   0  0  0  0  0  0  0  0  0  0  0  0
    1.2871    1.5802   -1.1862 C   0  0  0  0  0  0  0  0  0  0  0  0
    0.8997    2.4282   -1.7612 H   0  0  0  0  0  0  0  0  0  0  0  0
    1.6485    2.1062    0.2095 C   0  0  0  0  0  0  0  0  0  0  0  0
    2.3271    1.4317    0.7360 H   0  0  0  0  0  0  0  0  0  0  0  0
    2.1574    3.0707    0.1180 H   0  0  0  0  0  0  0  0  0  0  0  0
    0.7475    2.2585    0.8104 H   0  0  0  0  0  0  0  0  0  0  0  0
    2.5820    1.1016   -1.8555 C   0  0  0  0  0  0  0  0  0  0  0  0
    2.3970    0.8225   -2.8973 H   0  0  0  0  0  0  0  0  0  0  0  0
    3.3341    1.8967   -1.8452 H   0  0  0  0  0  0  0  0  0  0  0  0
    2.9891    0.2319   -1.3293 H   0  0  0  0  0  0  0  0  0  0  0  0
    0.5718   -0.5646    1.1354 C   0  0  0  0  0  0  0  0  0  0  0  0
    1.6823   -0.8330    1.5762 O   0  0  0  0  0  0  0  0  0  0  0  0
   -0.3793   -0.0172    1.9790 N   0  0  0  0  0  0  0  0  0  0  0  0
   -1.3210    0.0538    1.6098 H   0  0  0  0  0  0  0  0  0  0  0  0
   -0.1738    0.1193    3.4150 C   0  0  0  0  0  0  0  0  0  0  0  0
    0.6996    0.7477    3.6187 H   0  0  0  0  0  0  0  0  0  0  0  0
   -1.0484    0.5838    3.8801 H   0  0  0  0  0  0  0  0  0  0  0  0
   -0.0158   -0.8628    3.8730 H   0  0  0  0  0  0  0  0  0  0  0  0
  1  2  1  0  0  0  0
  2  3  1  0  0  0  0
  2  4  1  0  0  0  0
  2  5  1  0  0  0  0
  5  6  2  0  0  0  0
  5  7  1  0  0  0  0
  7  8  1  0  0  0  0
  7  9  1  0  0  0  0
  9 10  1  0  0  0  0
  9 11  1  0  0  0  0
  9 24  1  0  0  0  0
 11 12  1  0  0  0  0
 11 13  1  0  0  0  0
 11 14  1  0  0  0  0
 14 15  1  0  0  0  0
 14 16  1  0  0  0  0
 14 20  1  0  0  0  0
 16 17  1  0  0  0  0
 16 18  1  0  0  0  0
 16 19  1  0  0  0  0
 20 21  1  0  0  0  0
 20 22  1  0  0  0  0
 20 23  1  0  0  0  0
 24 25  2  0  0  0  0
 24 26  1  0  0  0  0
 26 27  1  0  0  0  0
 26 28  1  0  0  0  0
 28 29  1  0  0  0  0
 28 30  1  0  0  0  0
 28 31  1  0  0  0  0
M  END
$$$$

  -OEChem-04042216013D

 31 30  0     1  0  0  0  0  0999 V2000
   -2.9787   -4.1527    0.1660 H   0  0  0  0  0  0  0  0  0  0  0  0
   -2.8406   -3.1762   -0.3075 C   0  0  0  0  0  0  0  0  0  0  0  0
   -3.6042   -2.4923    0.0700 H   0  0  0  0  0  0  0  0  0  0  0  0
   -2.9619   -3.2898   -1.3875 H   0  0  0  0  0  0  0  0  0  0  0  0
   -1.4576   -2.6362    0.0062 C   0  0  0  0  0  0  0  0  0  0  0  0
   -0.7044   -3.2852    0.7077 O   0  0  0  0  0  0  0  0  0  0  0  0
   -1.0655   -1.4199   -0.5218 N   0  0  0  0  0  0  0  0  0  0  0  0
   -1.7112   -0.9801   -1.1700 H   0  0  0  0  0  0  0  0  0  0  0  0
    0.2736   -0.8148   -0.3524 C   0  0  1  0  0  0  0  0  0  0  0  0
    1.0434   -1.4989   -0.7262 H   0  0  0  0  0  0  0  0  0  0  0  0
    0.2426    0.4407   -1.2740 C   0  0  0  0  0  0  0  0  0  0  0  0
    0.1905    0.0865   -2.3090 H   0  0  0  0  0  0  0  0  0  0  0  0
   -0.7115    0.9378   -1.0691 H   0  0  0  0  0  0  0  0  0  0  0  0
    1.2934    1.5903   -1.1954 C   0  0  0  0  0  0  0  0  0  0  0  0
    0.7937    2.5054   -1.5313 H   0  0  0  0  0  0  0  0  0  0  0  0
    1.9511    1.9033    0.1534 C   0  0  0  0  0  0  0  0  0  0  0  0
    2.6450    1.1128    0.4505 H   0  0  0  0  0  0  0  0  0  0  0  0
    2.5246    2.8326    0.0797 H   0  0  0  0  0  0  0  0  0  0  0  0
    1.1958    2.0425    0.9315 H   0  0  0  0  0  0  0  0  0  0  0  0
    2.4238    1.2807   -2.1876 C   0  0  0  0  0  0  0  0  0  0  0  0
    2.0305    1.1881   -3.2049 H   0  0  0  0  0  0  0  0  0  0  0  0
    3.1678    2.0838   -2.1857 H   0  0  0  0  0  0  0  0  0  0  0  0
    2.9237    0.3437   -1.9206 H   0  0  0  0  0  0  0  0  0  0  0  0
    0.5771   -0.5819    1.1484 C   0  0  0  0  0  0  0  0  0  0  0  0
    1.6677   -0.8801    1.6181 O   0  0  0  0  0  0  0  0  0  0  0  0
   -0.3856   -0.0275    1.9748 N   0  0  0  0  0  0  0  0  0  0  0  0
   -1.3161    0.0634    1.5828 H   0  0  0  0  0  0  0  0  0  0  0  0
   -0.2157    0.0884    3.4173 C   0  0  0  0  0  0  0  0  0  0  0  0
    0.6662    0.6939    3.6520 H   0  0  0  0  0  0  0  0  0  0  0  0
   -1.0915    0.5681    3.8642 H   0  0  0  0  0  0  0  0  0  0  0  0
   -0.0933   -0.9022    3.8682 H   0  0  0  0  0  0  0  0  0  0  0  0
  1  2  1  0  0  0  0
  2  3  1  0  0  0  0
  2  4  1  0  0  0  0
  2  5  1  0  0  0  0
  5  6  2  0  0  0  0
  5  7  1  0  0  0  0
  7  8  1  0  0  0  0
  7  9  1  0  0  0  0
  9 10  1  0  0  0  0
  9 11  1  0  0  0  0
  9 24  1  0  0  0  0
 11 12  1  0  0  0  0
 11 13  1  0  0  0  0
 11 14  1  0  0  0  0
 14 15  1  0  0  0  0
 14 16  1  0  0  0  0
 14 20  1  0  0  0  0
 16 17  1  0  0  0  0
 16 18  1  0  0  0  0
 16 19  1  0  0  0  0
 20 21  1  0  0  0  0
 20 22  1  0  0  0  0
 20 23  1  0  0  0  0
 24 25  2  0  0  0  0
 24 26  1  0  0  0  0
 26 27  1  0  0  0  0
 26 28  1  0  0  0  0
 28 29  1  0  0  0  0
 28 30  1  0  0  0  0
 28 31  1  0  0  0  0
M  END
$$$$

  -OEChem-04042216013D

 31 30  0     1  0  0  0  0  0999 V2000
   -2.9961   -4.1283    0.1771 H   0  0  0  0  0  0  0  0  0  0  0  0
   -2.8469   -3.1566   -0.3024 C   0  0  0  0  0  0  0  0  0  0  0  0
   -3.6028   -2.4614    0.0700 H   0  0  0  0  0  0  0  0  0  0  0  0
   -2.9689   -3.2759   -1.3816 H   0  0  0  0  0  0  0  0  0  0  0  0
   -1.4585   -2.6299    0.0085 C   0  0  0  0  0  0  0  0  0  0  0  0
   -0.7118   -3.2836    0.7123 O   0  0  0  0  0  0  0  0  0  0  0  0
   -1.0537   -1.4211   -0.5265 N   0  0  0  0  0  0  0  0  0  0  0  0
   -1.6938   -0.9796   -1.1791 H   0  0  0  0  0  0  0  0  0  0  0  0
    0.2901   -0.8261   -0.3568 C   0  0  1  0  0  0  0  0  0  0  0  0
    1.0600   -1.5103   -0.7305 H   0  0  0  0  0  0  0  0  0  0  0  0
    0.2546    0.4376   -1.2671 C   0  0  0  0  0  0  0  0  0  0  0  0
    0.1936    0.0835   -2.3015 H   0  0  0  0  0  0  0  0  0  0  0  0
   -0.6991    0.9337   -1.0566 H   0  0  0  0  0  0  0  0  0  0  0  0
    1.3095    1.5882   -1.1898 C   0  0  0  0  0  0  0  0  0  0  0  0
    0.7619    2.5355   -1.2438 H   0  0  0  0  0  0  0  0  0  0  0  0
    2.2290    1.6715    0.0332 C   0  0  0  0  0  0  0  0  0  0  0  0
    2.8489    0.7741    0.1182 H   0  0  0  0  0  0  0  0  0  0  0  0
    2.8989    2.5322   -0.0574 H   0  0  0  0  0  0  0  0  0  0  0  0
    1.6482    1.8086    0.9491 H   0  0  0  0  0  0  0  0  0  0  0  0
    2.2148    1.5056   -2.4286 C   0  0  0  0  0  0  0  0  0  0  0  0
    1.6211    1.5721   -3.3457 H   0  0  0  0  0  0  0  0  0  0  0  0
    2.9359    2.3292   -2.4353 H   0  0  0  0  0  0  0  0  0  0  0  0
    2.7674    0.5605   -2.4379 H   0  0  0  0  0  0  0  0  0  0  0  0
    0.5801   -0.5892    1.1470 C   0  0  0  0  0  0  0  0  0  0  0  0
    1.6593   -0.9018    1.6340 O   0  0  0  0  0  0  0  0  0  0  0  0
   -0.3867   -0.0231    1.9605 N   0  0  0  0  0  0  0  0  0  0  0  0
   -1.3102    0.0829    1.5558 H   0  0  0  0  0  0  0  0  0  0  0  0
   -0.2343    0.0920    3.4052 C   0  0  0  0  0  0  0  0  0  0  0  0
    0.6520    0.6864    3.6507 H   0  0  0  0  0  0  0  0  0  0  0  0
   -1.1095    0.5834    3.8403 H   0  0  0  0  0  0  0  0  0  0  0  0
   -0.1301   -0.8996    3.8584 H   0  0  0  0  0  0  0  0  0  0  0  0
  1  2  1  0  0  0  0
  2  3  1  0  0  0  0
  2  4  1  0  0  0  0
  2  5  1  0  0  0  0
  5  6  2  0  0  0  0
  5  7  1  0  0  0  0
  7  8  1  0  0  0  0
  7  9  1  0  0  0  0
  9 10  1  0  0  0  0
  9 11  1  0  0  0  0
  9 24  1  0  0  0  0
 11 12  1  0  0  0  0
 11 13  1  0  0  0  0
 11 14  1  0  0  0  0
 14 15  1  0  0  0  0
 14 16  1  0  0  0  0
 14 20  1  0  0  0  0
 16 17  1  0  0  0  0
 16 18  1  0  0  0  0
 16 19  1  0  0  0  0
 20 21  1  0  0  0  0
 20 22  1  0  0  0  0
 20 23  1  0  0  0  0
 24 25  2  0  0  0  0
 24 26  1  0  0  0  0
 26 27  1  0  0  0  0
 26 28  1  0  0  0  0
 28 29  1  0  0  0  0
 28 30  1  0  0  0  0
 28 31  1  0  0  0  0
M  END
$$$$

  -OEChem-04042216013D

 31 30  0     1  0  0  0  0  0999 V2000
   -2.9961   -4.1187    0.1899 H   0  0  0  0  0  0  0  0  0  0  0  0
   -2.8444   -3.1508   -0.2969 C   0  0  0  0  0  0  0  0  0  0  0  0
   -3.5994   -2.4512    0.0696 H   0  0  0  0  0  0  0  0  0  0  0  0
   -2.9654   -3.2780   -1.3753 H   0  0  0  0  0  0  0  0  0  0  0  0
   -1.4553   -2.6246    0.0112 C   0  0  0  0  0  0  0  0  0  0  0  0
   -0.7114   -3.2733    0.7226 O   0  0  0  0  0  0  0  0  0  0  0  0
   -1.0478   -1.4215   -0.5345 N   0  0  0  0  0  0  0  0  0  0  0  0
   -1.6846   -0.9875   -1.1955 H   0  0  0  0  0  0  0  0  0  0  0  0
    0.2975   -0.8287   -0.3705 C   0  0  1  0  0  0  0  0  0  0  0  0
    1.0672   -1.5122   -0.7456 H   0  0  0  0  0  0  0  0  0  0  0  0
    0.2566    0.4405   -1.2708 C   0  0  0  0  0  0  0  0  0  0  0  0
    0.2166    0.0792   -2.3040 H   0  0  0  0  0  0  0  0  0  0  0  0
   -0.7020    0.9356   -1.0802 H   0  0  0  0  0  0  0  0  0  0  0  0
    1.3211    1.5816   -1.1811 C   0  0  0  0  0  0  0  0  0  0  0  0
    0.7890    2.5049   -0.9265 H   0  0  0  0  0  0  0  0  0  0  0  0
    2.4565    1.4394   -0.1609 C   0  0  0  0  0  0  0  0  0  0  0  0
    2.9473    0.4658   -0.2569 H   0  0  0  0  0  0  0  0  0  0  0  0
    3.2117    2.2156   -0.3184 H   0  0  0  0  0  0  0  0  0  0  0  0
    2.0797    1.5642    0.8575 H   0  0  0  0  0  0  0  0  0  0  0  0
    1.9533    1.7845   -2.5667 C   0  0  0  0  0  0  0  0  0  0  0  0
    1.1803    1.9833   -3.3157 H   0  0  0  0  0  0  0  0  0  0  0  0
    2.6394    2.6374   -2.5565 H   0  0  0  0  0  0  0  0  0  0  0  0
    2.5127    0.8929   -2.8682 H   0  0  0  0  0  0  0  0  0  0  0  0
    0.5889   -0.5794    1.1315 C   0  0  0  0  0  0  0  0  0  0  0  0
    1.6625   -0.9032    1.6237 O   0  0  0  0  0  0  0  0  0  0  0  0
   -0.3759   -0.0035    1.9403 N   0  0  0  0  0  0  0  0  0  0  0  0
   -1.2993    0.0997    1.5345 H   0  0  0  0  0  0  0  0  0  0  0  0
   -0.2262    0.1132    3.3851 C   0  0  0  0  0  0  0  0  0  0  0  0
    0.6657    0.6990    3.6316 H   0  0  0  0  0  0  0  0  0  0  0  0
   -1.0974    0.6148    3.8168 H   0  0  0  0  0  0  0  0  0  0  0  0
   -0.1336   -0.8785    3.8405 H   0  0  0  0  0  0  0  0  0  0  0  0
  1  2  1  0  0  0  0
  2  3  1  0  0  0  0
  2  4  1  0  0  0  0
  2  5  1  0  0  0  0
  5  6  2  0  0  0  0
  5  7  1  0  0  0  0
  7  8  1  0  0  0  0
  7  9  1  0  0  0  0
  9 10  1  0  0  0  0
  9 11  1  0  0  0  0
  9 24  1  0  0  0  0
 11 12  1  0  0  0  0
 11 13  1  0  0  0  0
 11 14  1  0  0  0  0
 14 15  1  0  0  0  0
 14 16  1  0  0  0  0
 14 20  1  0  0  0  0
 16 17  1  0  0  0  0
 16 18  1  0  0  0  0
 16 19  1  0  0  0  0
 20 21  1  0  0  0  0
 20 22  1  0  0  0  0
 20 23  1  0  0  0  0
 24 25  2  0  0  0  0
 24 26  1  0  0  0  0
 26 27  1  0  0  0  0
 26 28  1  0  0  0  0
 28 29  1  0  0  0  0
 28 30  1  0  0  0  0
 28 31  1  0  0  0  0
M  END
$$$$

  -OEChem-04042216013D

 31 30  0     1  0  0  0  0  0999 V2000
   -2.9826   -4.1188    0.2081 H   0  0  0  0  0  0  0  0  0  0  0  0
   -2.8363   -3.1554   -0.2891 C   0  0  0  0  0  0  0  0  0  0  0  0
   -3.5991   -2.4580    0.0650 H   0  0  0  0  0  0  0  0  0  0  0  0
   -2.9506   -3.2963   -1.3666 H   0  0  0  0  0  0  0  0  0  0  0  0
   -1.4531   -2.6143    0.0204 C   0  0  0  0  0  0  0  0  0  0  0  0
   -0.7096   -3.2477    0.7459 O   0  0  0  0  0  0  0  0  0  0  0  0
   -1.0501   -1.4172   -0.5416 N   0  0  0  0  0  0  0  0  0  0  0  0
   -1.6856   -0.9985   -1.2134 H   0  0  0  0  0  0  0  0  0  0  0  0
    0.2951   -0.8218   -0.3904 C   0  0  1  0  0  0  0  0  0  0  0  0
    1.0627   -1.5055   -0.7696 H   0  0  0  0  0  0  0  0  0  0  0  0
    0.2451    0.4497   -1.2819 C   0  0  0  0  0  0  0  0  0  0  0  0
    0.2305    0.0857   -2.3149 H   0  0  0  0  0  0  0  0  0  0  0  0
   -0.7162    0.9460   -1.1104 H   0  0  0  0  0  0  0  0  0  0  0  0
    1.3218    1.5722   -1.1743 C   0  0  0  0  0  0  0  0  0  0  0  0
    0.8677    2.4094   -0.6325 H   0  0  0  0  0  0  0  0  0  0  0  0
    2.6211    1.2347   -0.4293 C   0  0  0  0  0  0  0  0  0  0  0  0
    2.9686    0.2287   -0.6841 H   0  0  0  0  0  0  0  0  0  0  0  0
    3.4121    1.9438   -0.6929 H   0  0  0  0  0  0  0  0  0  0  0  0
    2.4780    1.3097    0.6511 H   0  0  0  0  0  0  0  0  0  0  0  0
    1.6689    2.0720   -2.5843 C   0  0  0  0  0  0  0  0  0  0  0  0
    0.7612    2.3666   -3.1205 H   0  0  0  0  0  0  0  0  0  0  0  0
    2.3288    2.9438   -2.5309 H   0  0  0  0  0  0  0  0  0  0  0  0
    2.1754    1.2882   -3.1569 H   0  0  0  0  0  0  0  0  0  0  0  0
    0.6038   -0.5507    1.1042 C   0  0  0  0  0  0  0  0  0  0  0  0
    1.6766   -0.8826    1.5925 O   0  0  0  0  0  0  0  0  0  0  0  0
   -0.3524    0.0371    1.9142 N   0  0  0  0  0  0  0  0  0  0  0  0
   -1.2784    0.1371    1.5136 H   0  0  0  0  0  0  0  0  0  0  0  0
   -0.1982    0.1500    3.3588 C   0  0  0  0  0  0  0  0  0  0  0  0
    0.7049    0.7186    3.6045 H   0  0  0  0  0  0  0  0  0  0  0  0
   -1.0591    0.6676    3.7922 H   0  0  0  0  0  0  0  0  0  0  0  0
   -0.1237   -0.8437    3.8132 H   0  0  0  0  0  0  0  0  0  0  0  0
  1  2  1  0  0  0  0
  2  3  1  0  0  0  0
  2  4  1  0  0  0  0
  2  5  1  0  0  0  0
  5  6  2  0  0  0  0
  5  7  1  0  0  0  0
  7  8  1  0  0  0  0
  7  9  1  0  0  0  0
  9 10  1  0  0  0  0
  9 11  1  0  0  0  0
  9 24  1  0  0  0  0
 11 12  1  0  0  0  0
 11 13  1  0  0  0  0
 11 14  1  0  0  0  0
 14 15  1  0  0  0  0
 14 16  1  0  0  0  0
 14 20  1  0  0  0  0
 16 17  1  0  0  0  0
 16 18  1  0  0  0  0
 16 19  1  0  0  0  0
 20 21  1  0  0  0  0
 20 22  1  0  0  0  0
 20 23  1  0  0  0  0
 24 25  2  0  0  0  0
 24 26  1  0  0  0  0
 26 27  1  0  0  0  0
 26 28  1  0  0  0  0
 28 29  1  0  0  0  0
 28 30  1  0  0  0  0
 28 31  1  0  0  0  0
M  END
$$$$

  -OEChem-04042216013D

 31 30  0     1  0  0  0  0  0999 V2000
   -2.9604   -4.1262    0.2125 H   0  0  0  0  0  0  0  0  0  0  0  0
   -2.8262   -3.1602   -0.2830 C   0  0  0  0  0  0  0  0  0  0  0  0
   -3.5917   -2.4698    0.0792 H   0  0  0  0  0  0  0  0  0  0  0  0
   -2.9477   -3.2988   -1.3600 H   0  0  0  0  0  0  0  0  0  0  0  0
   -1.4455   -2.6079    0.0174 C   0  0  0  0  0  0  0  0  0  0  0  0
   -0.6958   -3.2281    0.7478 O   0  0  0  0  0  0  0  0  0  0  0  0
   -1.0528   -1.4129   -0.5558 N   0  0  0  0  0  0  0  0  0  0  0  0
   -1.6931   -1.0048   -1.2298 H   0  0  0  0  0  0  0  0  0  0  0  0
    0.2895   -0.8095   -0.4178 C   0  0  1  0  0  0  0  0  0  0  0  0
    1.0573   -1.4880   -0.8058 H   0  0  0  0  0  0  0  0  0  0  0  0
    0.2236    0.4685   -1.2936 C   0  0  0  0  0  0  0  0  0  0  0  0
    0.2167    0.1225   -2.3328 H   0  0  0  0  0  0  0  0  0  0  0  0
   -0.7365    0.9647   -1.1144 H   0  0  0  0  0  0  0  0  0  0  0  0
    1.3115    1.5686   -1.1587 C   0  0  0  0  0  0  0  0  0  0  0  0
    0.9844    2.2679   -0.3812 H   0  0  0  0  0  0  0  0  0  0  0  0
    2.7105    1.0809   -0.7501 C   0  0  0  0  0  0  0  0  0  0  0  0
    2.9365    0.1135   -1.2088 H   0  0  0  0  0  0  0  0  0  0  0  0
    3.4754    1.7956   -1.0690 H   0  0  0  0  0  0  0  0  0  0  0  0
    2.7941    0.9945    0.3343 H   0  0  0  0  0  0  0  0  0  0  0  0
    1.4004    2.3462   -2.4787 C   0  0  0  0  0  0  0  0  0  0  0  0
    0.4137    2.7206   -2.7688 H   0  0  0  0  0  0  0  0  0  0  0  0
    2.0725    3.2037   -2.3734 H   0  0  0  0  0  0  0  0  0  0  0  0
    1.7804    1.7045   -3.2802 H   0  0  0  0  0  0  0  0  0  0  0  0
    0.6160   -0.5223    1.0703 C   0  0  0  0  0  0  0  0  0  0  0  0
    1.6951   -0.8435    1.5503 O   0  0  0  0  0  0  0  0  0  0  0  0
   -0.3335    0.0687    1.8861 N   0  0  0  0  0  0  0  0  0  0  0  0
   -1.2653    0.1562    1.4960 H   0  0  0  0  0  0  0  0  0  0  0  0
   -0.1638    0.1931    3.3283 C   0  0  0  0  0  0  0  0  0  0  0  0
    0.7291    0.7831    3.5600 H   0  0  0  0  0  0  0  0  0  0  0  0
   -1.0310    0.6931    3.7695 H   0  0  0  0  0  0  0  0  0  0  0  0
   -0.0613   -0.7960    3.7873 H   0  0  0  0  0  0  0  0  0  0  0  0
  1  2  1  0  0  0  0
  2  3  1  0  0  0  0
  2  4  1  0  0  0  0
  2  5  1  0  0  0  0
  5  6  2  0  0  0  0
  5  7  1  0  0  0  0
  7  8  1  0  0  0  0
  7  9  1  0  0  0  0
  9 10  1  0  0  0  0
  9 11  1  0  0  0  0
  9 24  1  0  0  0  0
 11 12  1  0  0  0  0
 11 13  1  0  0  0  0
 11 14  1  0  0  0  0
 14 15  1  0  0  0  0
 14 16  1  0  0  0  0
 14 20  1  0  0  0  0
 16 17  1  0  0  0  0
 16 18  1  0  0  0  0
 16 19  1  0  0  0  0
 20 21  1  0  0  0  0
 20 22  1  0  0  0  0
 20 23  1  0  0  0  0
 24 25  2  0  0  0  0
 24 26  1  0  0  0  0
 26 27  1  0  0  0  0
 26 28  1  0  0  0  0
 28 29  1  0  0  0  0
 28 30  1  0  0  0  0
 28 31  1  0  0  0  0
M  END
$$$$

  -OEChem-04042216013D

 31 30  0     1  0  0  0  0  0999 V2000
   -2.9233   -4.1453    0.2499 H   0  0  0  0  0  0  0  0  0  0  0  0
   -2.8059   -3.1804   -0.2517 C   0  0  0  0  0  0  0  0  0  0  0  0
   -3.5720   -2.4962    0.1201 H   0  0  0  0  0  0  0  0  0  0  0  0
   -2.9440   -3.3250   -1.3258 H   0  0  0  0  0  0  0  0  0  0  0  0
   -1.4256   -2.6138    0.0234 C   0  0  0  0  0  0  0  0  0  0  0  0
   -0.6593   -3.2219    0.7470 O   0  0  0  0  0  0  0  0  0  0  0  0
   -1.0504   -1.4205   -0.5649 N   0  0  0  0  0  0  0  0  0  0  0  0
   -1.7024   -1.0231   -1.2340 H   0  0  0  0  0  0  0  0  0  0  0  0
    0.2869   -0.8021   -0.4455 C   0  0  1  0  0  0  0  0  0  0  0  0
    1.0613   -1.4691   -0.8401 H   0  0  0  0  0  0  0  0  0  0  0  0
    0.1995    0.4844   -1.3044 C   0  0  0  0  0  0  0  0  0  0  0  0
    0.1808    0.1673   -2.3526 H   0  0  0  0  0  0  0  0  0  0  0  0
   -0.7561    0.9780   -1.0970 H   0  0  0  0  0  0  0  0  0  0  0  0
    1.2985    1.5627   -1.1448 C   0  0  0  0  0  0  0  0  0  0  0  0
    1.1328    2.0811   -0.1939 H   0  0  0  0  0  0  0  0  0  0  0  0
    2.7300    1.0034   -1.1177 C   0  0  0  0  0  0  0  0  0  0  0  0
    2.9086    0.3742   -1.9952 H   0  0  0  0  0  0  0  0  0  0  0  0
    3.4541    1.8240   -1.1290 H   0  0  0  0  0  0  0  0  0  0  0  0
    2.9268    0.4124   -0.2252 H   0  0  0  0  0  0  0  0  0  0  0  0
    1.1711    2.5895   -2.2765 C   0  0  0  0  0  0  0  0  0  0  0  0
    0.1644    3.0183   -2.2922 H   0  0  0  0  0  0  0  0  0  0  0  0
    1.8873    3.4048   -2.1337 H   0  0  0  0  0  0  0  0  0  0  0  0
    1.3667    2.1222   -3.2470 H   0  0  0  0  0  0  0  0  0  0  0  0
    0.6169   -0.4998    1.0414 C   0  0  0  0  0  0  0  0  0  0  0  0
    1.7114   -0.7675    1.5184 O   0  0  0  0  0  0  0  0  0  0  0  0
   -0.3383    0.0869    1.8540 N   0  0  0  0  0  0  0  0  0  0  0  0
   -1.2750    0.1492    1.4712 H   0  0  0  0  0  0  0  0  0  0  0  0
   -0.1545    0.2590    3.2897 C   0  0  0  0  0  0  0  0  0  0  0  0
    0.7165    0.8914    3.4911 H   0  0  0  0  0  0  0  0  0  0  0  0
   -1.0352    0.7356    3.7303 H   0  0  0  0  0  0  0  0  0  0  0  0
   -0.0051   -0.7117    3.7747 H   0  0  0  0  0  0  0  0  0  0  0  0
  1  2  1  0  0  0  0
  2  3  1  0  0  0  0
  2  4  1  0  0  0  0
  2  5  1  0  0  0  0
  5  6  2  0  0  0  0
  5  7  1  0  0  0  0
  7  8  1  0  0  0  0
  7  9  1  0  0  0  0
  9 10  1  0  0  0  0
  9 11  1  0  0  0  0
  9 24  1  0  0  0  0
 11 12  1  0  0  0  0
 11 13  1  0  0  0  0
 11 14  1  0  0  0  0
 14 15  1  0  0  0  0
 14 16  1  0  0  0  0
 14 20  1  0  0  0  0
 16 17  1  0  0  0  0
 16 18  1  0  0  0  0
 16 19  1  0  0  0  0
 20 21  1  0  0  0  0
 20 22  1  0  0  0  0
 20 23  1  0  0  0  0
 24 25  2  0  0  0  0
 24 26  1  0  0  0  0
 26 27  1  0  0  0  0
 26 28  1  0  0  0  0
 28 29  1  0  0  0  0
 28 30  1  0  0  0  0
 28 31  1  0  0  0  0
M  END
$$$$

  -OEChem-04042216013D

 31 30  0     1  0  0  0  0  0999 V2000
   -2.8572   -4.2222    0.2047 H   0  0  0  0  0  0  0  0  0  0  0  0
   -2.7782   -3.2485   -0.2875 C   0  0  0  0  0  0  0  0  0  0  0  0
   -3.5736   -2.5999    0.0873 H   0  0  0  0  0  0  0  0  0  0  0  0
   -2.9059   -3.3887   -1.3636 H   0  0  0  0  0  0  0  0  0  0  0  0
   -1.4234   -2.6280   -0.0012 C   0  0  0  0  0  0  0  0  0  0  0  0
   -0.6388   -3.2042    0.7294 O   0  0  0  0  0  0  0  0  0  0  0  0
   -1.0933   -1.4154   -0.5763 N   0  0  0  0  0  0  0  0  0  0  0  0
   -1.7533   -1.0412   -1.2511 H   0  0  0  0  0  0  0  0  0  0  0  0
    0.2278   -0.7649   -0.4632 C   0  0  1  0  0  0  0  0  0  0  0  0
    1.0018   -1.4254   -0.8688 H   0  0  0  0  0  0  0  0  0  0  0  0
    0.1445    0.5192   -1.3235 C   0  0  0  0  0  0  0  0  0  0  0  0
    0.1325    0.2249   -2.3784 H   0  0  0  0  0  0  0  0  0  0  0  0
   -0.8091    1.0139   -1.1101 H   0  0  0  0  0  0  0  0  0  0  0  0
    1.2597    1.5667   -1.1078 C   0  0  0  0  0  0  0  0  0  0  0  0
    1.2445    1.9080   -0.0671 H   0  0  0  0  0  0  0  0  0  0  0  0
    2.6520    0.9942   -1.4146 C   0  0  0  0  0  0  0  0  0  0  0  0
    2.7044    0.6479   -2.4515 H   0  0  0  0  0  0  0  0  0  0  0  0
    3.4167    1.7629   -1.2666 H   0  0  0  0  0  0  0  0  0  0  0  0
    2.8935    0.1535   -0.7608 H   0  0  0  0  0  0  0  0  0  0  0  0
    1.0028    2.7799   -2.0087 C   0  0  0  0  0  0  0  0  0  0  0  0
    0.0293    3.2253   -1.7819 H   0  0  0  0  0  0  0  0  0  0  0  0
    1.7725    3.5417   -1.8490 H   0  0  0  0  0  0  0  0  0  0  0  0
    1.0160    2.4890   -3.0641 H   0  0  0  0  0  0  0  0  0  0  0  0
    0.6012   -0.4649    1.0118 C   0  0  0  0  0  0  0  0  0  0  0  0
    1.7524   -0.5950    1.4069 O   0  0  0  0  0  0  0  0  0  0  0  0
   -0.3391    0.0913    1.8614 N   0  0  0  0  0  0  0  0  0  0  0  0
   -1.3002    0.0731    1.5385 H   0  0  0  0  0  0  0  0  0  0  0  0
   -0.0771    0.3402    3.2731 C   0  0  0  0  0  0  0  0  0  0  0  0
    0.7615    1.0345    3.3903 H   0  0  0  0  0  0  0  0  0  0  0  0
   -0.9580    0.7804    3.7497 H   0  0  0  0  0  0  0  0  0  0  0  0
    0.1659   -0.5960    3.7869 H   0  0  0  0  0  0  0  0  0  0  0  0
  1  2  1  0  0  0  0
  2  3  1  0  0  0  0
  2  4  1  0  0  0  0
  2  5  1  0  0  0  0
  5  6  2  0  0  0  0
  5  7  1  0  0  0  0
  7  8  1  0  0  0  0
  7  9  1  0  0  0  0
  9 10  1  0  0  0  0
  9 11  1  0  0  0  0
  9 24  1  0  0  0  0
 11 12  1  0  0  0  0
 11 13  1  0  0  0  0
 11 14  1  0  0  0  0
 14 15  1  0  0  0  0
 14 16  1  0  0  0  0
 14 20  1  0  0  0  0
 16 17  1  0  0  0  0
 16 18  1  0  0  0  0
 16 19  1  0  0  0  0
 20 21  1  0  0  0  0
 20 22  1  0  0  0  0
 20 23  1  0  0  0  0
 24 25  2  0  0  0  0
 24 26  1  0  0  0  0
 26 27  1  0  0  0  0
 26 28  1  0  0  0  0
 28 29  1  0  0  0  0
 28 30  1  0  0  0  0
 28 31  1  0  0  0  0
M  END
$$$$

  -OEChem-04042216013D

 31 30  0     1  0  0  0  0  0999 V2000
   -2.8323   -4.2446    0.1724 H   0  0  0  0  0  0  0  0  0  0  0  0
   -2.7686   -3.2649   -0.3098 C   0  0  0  0  0  0  0  0  0  0  0  0
   -3.5693   -2.6305    0.0777 H   0  0  0  0  0  0  0  0  0  0  0  0
   -2.9024   -3.3946   -1.3865 H   0  0  0  0  0  0  0  0  0  0  0  0
   -1.4194   -2.6319   -0.0256 C   0  0  0  0  0  0  0  0  0  0  0  0
   -0.6212   -3.2083    0.6901 O   0  0  0  0  0  0  0  0  0  0  0  0
   -1.1110   -1.4035   -0.5784 N   0  0  0  0  0  0  0  0  0  0  0  0
   -1.7835   -1.0202   -1.2355 H   0  0  0  0  0  0  0  0  0  0  0  0
    0.2005   -0.7365   -0.4569 C   0  0  1  0  0  0  0  0  0  0  0  0
    0.9759   -1.3940   -0.8651 H   0  0  0  0  0  0  0  0  0  0  0  0
    0.1279    0.5397   -1.3295 C   0  0  0  0  0  0  0  0  0  0  0  0
    0.1198    0.2499   -2.3855 H   0  0  0  0  0  0  0  0  0  0  0  0
   -0.8288    1.0297   -1.1193 H   0  0  0  0  0  0  0  0  0  0  0  0
    1.2417    1.5850   -1.0893 C   0  0  0  0  0  0  0  0  0  0  0  0
    1.3848    1.7726   -0.0208 H   0  0  0  0  0  0  0  0  0  0  0  0
    2.5634    1.1113   -1.7069 C   0  0  0  0  0  0  0  0  0  0  0  0
    2.4519    0.9357   -2.7815 H   0  0  0  0  0  0  0  0  0  0  0  0
    3.3440    1.8638   -1.5569 H   0  0  0  0  0  0  0  0  0  0  0  0
    2.8944    0.1812   -1.2348 H   0  0  0  0  0  0  0  0  0  0  0  0
    0.8423    2.9127   -1.7442 C   0  0  0  0  0  0  0  0  0  0  0  0
   -0.0814    3.2958   -1.2999 H   0  0  0  0  0  0  0  0  0  0  0  0
    1.6272    3.6611   -1.5962 H   0  0  0  0  0  0  0  0  0  0  0  0
    0.6843    2.7827   -2.8196 H   0  0  0  0  0  0  0  0  0  0  0  0
    0.5929   -0.4521    1.0136 C   0  0  0  0  0  0  0  0  0  0  0  0
    1.7623   -0.5360    1.3670 O   0  0  0  0  0  0  0  0  0  0  0  0
   -0.3397    0.0789    1.8871 N   0  0  0  0  0  0  0  0  0  0  0  0
   -1.3082    0.0313    1.5901 H   0  0  0  0  0  0  0  0  0  0  0  0
   -0.0481    0.3348    3.2916 C   0  0  0  0  0  0  0  0  0  0  0  0
    0.7725    1.0533    3.3881 H   0  0  0  0  0  0  0  0  0  0  0  0
   -0.9289    0.7487    3.7915 H   0  0  0  0  0  0  0  0  0  0  0  0
    0.2354   -0.5940    3.7979 H   0  0  0  0  0  0  0  0  0  0  0  0
  1  2  1  0  0  0  0
  2  3  1  0  0  0  0
  2  4  1  0  0  0  0
  2  5  1  0  0  0  0
  5  6  2  0  0  0  0
  5  7  1  0  0  0  0
  7  8  1  0  0  0  0
  7  9  1  0  0  0  0
  9 10  1  0  0  0  0
  9 11  1  0  0  0  0
  9 24  1  0  0  0  0
 11 12  1  0  0  0  0
 11 13  1  0  0  0  0
 11 14  1  0  0  0  0
 14 15  1  0  0  0  0
 14 16  1  0  0  0  0
 14 20  1  0  0  0  0
 16 17  1  0  0  0  0
 16 18  1  0  0  0  0
 16 19  1  0  0  0  0
 20 21  1  0  0  0  0
 20 22  1  0  0  0  0
 20 23  1  0  0  0  0
 24 25  2  0  0  0  0
 24 26  1  0  0  0  0
 26 27  1  0  0  0  0
 26 28  1  0  0  0  0
 28 29  1  0  0  0  0
 28 30  1  0  0  0  0
 28 31  1  0  0  0  0
M  END
$$$$

  -OEChem-04042216013D

 31 30  0     1  0  0  0  0  0999 V2000
   -2.8340   -4.2365    0.1706 H   0  0  0  0  0  0  0  0  0  0  0  0
   -2.7666   -3.2557   -0.3088 C   0  0  0  0  0  0  0  0  0  0  0  0
   -3.5636   -2.6185    0.0816 H   0  0  0  0  0  0  0  0  0  0  0  0
   -2.9025   -3.3820   -1.3855 H   0  0  0  0  0  0  0  0  0  0  0  0
   -1.4143   -2.6292   -0.0247 C   0  0  0  0  0  0  0  0  0  0  0  0
   -0.6177   -3.2119    0.6875 O   0  0  0  0  0  0  0  0  0  0  0  0
   -1.1015   -1.4001   -0.5736 N   0  0  0  0  0  0  0  0  0  0  0  0
   -1.7738   -1.0112   -1.2277 H   0  0  0  0  0  0  0  0  0  0  0  0
    0.2111   -0.7354   -0.4470 C   0  0  1  0  0  0  0  0  0  0  0  0
    0.9900   -1.3903   -0.8533 H   0  0  0  0  0  0  0  0  0  0  0  0
    0.1372    0.5393   -1.3232 C   0  0  0  0  0  0  0  0  0  0  0  0
    0.1166    0.2495   -2.3790 H   0  0  0  0  0  0  0  0  0  0  0  0
   -0.8222    1.0210   -1.1061 H   0  0  0  0  0  0  0  0  0  0  0  0
    1.2475    1.5957   -1.0905 C   0  0  0  0  0  0  0  0  0  0  0  0
    1.5857    1.6129   -0.0515 H   0  0  0  0  0  0  0  0  0  0  0  0
    2.4418    1.3089   -2.0079 C   0  0  0  0  0  0  0  0  0  0  0  0
    2.1450    1.3402   -3.0609 H   0  0  0  0  0  0  0  0  0  0  0  0
    3.2310    2.0501   -1.8476 H   0  0  0  0  0  0  0  0  0  0  0  0
    2.8546    0.3188   -1.7906 H   0  0  0  0  0  0  0  0  0  0  0  0
    0.7082    2.9932   -1.4205 C   0  0  0  0  0  0  0  0  0  0  0  0
   -0.1182    3.2517   -0.7511 H   0  0  0  0  0  0  0  0  0  0  0  0
    1.4947    3.7440   -1.2948 H   0  0  0  0  0  0  0  0  0  0  0  0
    0.3481    3.0362   -2.4534 H   0  0  0  0  0  0  0  0  0  0  0  0
    0.5930   -0.4582    1.0278 C   0  0  0  0  0  0  0  0  0  0  0  0
    1.7577   -0.5590    1.3923 O   0  0  0  0  0  0  0  0  0  0  0  0
   -0.3439    0.0701    1.8980 N   0  0  0  0  0  0  0  0  0  0  0  0
   -1.3097    0.0334    1.5911 H   0  0  0  0  0  0  0  0  0  0  0  0
   -0.0637    0.3098    3.3077 C   0  0  0  0  0  0  0  0  0  0  0  0
    0.7580    1.0250    3.4193 H   0  0  0  0  0  0  0  0  0  0  0  0
   -0.9476    0.7207    3.8045 H   0  0  0  0  0  0  0  0  0  0  0  0
    0.2130   -0.6252    3.8065 H   0  0  0  0  0  0  0  0  0  0  0  0
  1  2  1  0  0  0  0
  2  3  1  0  0  0  0
  2  4  1  0  0  0  0
  2  5  1  0  0  0  0
  5  6  2  0  0  0  0
  5  7  1  0  0  0  0
  7  8  1  0  0  0  0
  7  9  1  0  0  0  0
  9 10  1  0  0  0  0
  9 11  1  0  0  0  0
  9 24  1  0  0  0  0
 11 12  1  0  0  0  0
 11 13  1  0  0  0  0
 11 14  1  0  0  0  0
 14 15  1  0  0  0  0
 14 16  1  0  0  0  0
 14 20  1  0  0  0  0
 16 17  1  0  0  0  0
 16 18  1  0  0  0  0
 16 19  1  0  0  0  0
 20 21  1  0  0  0  0
 20 22  1  0  0  0  0
 20 23  1  0  0  0  0
 24 25  2  0  0  0  0
 24 26  1  0  0  0  0
 26 27  1  0  0  0  0
 26 28  1  0  0  0  0
 28 29  1  0  0  0  0
 28 30  1  0  0  0  0
 28 31  1  0  0  0  0
M  END
$$$$

  -OEChem-04042216013D

 31 30  0     1  0  0  0  0  0999 V2000
   -2.8358   -4.2308    0.1817 H   0  0  0  0  0  0  0  0  0  0  0  0
   -2.7643   -3.2512   -0.3000 C   0  0  0  0  0  0  0  0  0  0  0  0
   -3.5582   -2.6092    0.0889 H   0  0  0  0  0  0  0  0  0  0  0  0
   -2.9014   -3.3795   -1.3764 H   0  0  0  0  0  0  0  0  0  0  0  0
   -1.4092   -2.6298   -0.0179 C   0  0  0  0  0  0  0  0  0  0  0  0
   -0.6155   -3.2137    0.6966 O   0  0  0  0  0  0  0  0  0  0  0  0
   -1.0899   -1.4056   -0.5742 N   0  0  0  0  0  0  0  0  0  0  0  0
   -1.7603   -1.0169   -1.2302 H   0  0  0  0  0  0  0  0  0  0  0  0
    0.2245   -0.7439   -0.4479 C   0  0  1  0  0  0  0  0  0  0  0  0
    1.0059   -1.3978   -0.8510 H   0  0  0  0  0  0  0  0  0  0  0  0
    0.1443    0.5315   -1.3225 C   0  0  0  0  0  0  0  0  0  0  0  0
    0.1222    0.2342   -2.3761 H   0  0  0  0  0  0  0  0  0  0  0  0
   -0.8196    1.0071   -1.1122 H   0  0  0  0  0  0  0  0  0  0  0  0
    1.2541    1.5949   -1.0979 C   0  0  0  0  0  0  0  0  0  0  0  0
    1.7998    1.4242   -0.1676 H   0  0  0  0  0  0  0  0  0  0  0  0
    2.2608    1.5511   -2.2532 C   0  0  0  0  0  0  0  0  0  0  0  0
    1.7723    1.7761   -3.2067 H   0  0  0  0  0  0  0  0  0  0  0  0
    3.0581    2.2830   -2.0906 H   0  0  0  0  0  0  0  0  0  0  0  0
    2.7163    0.5580   -2.3189 H   0  0  0  0  0  0  0  0  0  0  0  0
    0.6419    2.9995   -1.0246 C   0  0  0  0  0  0  0  0  0  0  0  0
   -0.0434    3.0719   -0.1741 H   0  0  0  0  0  0  0  0  0  0  0  0
    1.4270    3.7509   -0.8940 H   0  0  0  0  0  0  0  0  0  0  0  0
    0.0891    3.2302   -1.9408 H   0  0  0  0  0  0  0  0  0  0  0  0
    0.5938   -0.4611    1.0302 C   0  0  0  0  0  0  0  0  0  0  0  0
    1.7501   -0.5862    1.4135 O   0  0  0  0  0  0  0  0  0  0  0  0
   -0.3490    0.0740    1.8901 N   0  0  0  0  0  0  0  0  0  0  0  0
   -1.3110    0.0535    1.5697 H   0  0  0  0  0  0  0  0  0  0  0  0
   -0.0841    0.3076    3.3039 C   0  0  0  0  0  0  0  0  0  0  0  0
    0.7415    1.0162    3.4274 H   0  0  0  0  0  0  0  0  0  0  0  0
   -0.9707    0.7237    3.7911 H   0  0  0  0  0  0  0  0  0  0  0  0
    0.1792   -0.6307    3.8036 H   0  0  0  0  0  0  0  0  0  0  0  0
  1  2  1  0  0  0  0
  2  3  1  0  0  0  0
  2  4  1  0  0  0  0
  2  5  1  0  0  0  0
  5  6  2  0  0  0  0
  5  7  1  0  0  0  0
  7  8  1  0  0  0  0
  7  9  1  0  0  0  0
  9 10  1  0  0  0  0
  9 11  1  0  0  0  0
  9 24  1  0  0  0  0
 11 12  1  0  0  0  0
 11 13  1  0  0  0  0
 11 14  1  0  0  0  0
 14 15  1  0  0  0  0
 14 16  1  0  0  0  0
 14 20  1  0  0  0  0
 16 17  1  0  0  0  0
 16 18  1  0  0  0  0
 16 19  1  0  0  0  0
 20 21  1  0  0  0  0
 20 22  1  0  0  0  0
 20 23  1  0  0  0  0
 24 25  2  0  0  0  0
 24 26  1  0  0  0  0
 26 27  1  0  0  0  0
 26 28  1  0  0  0  0
 28 29  1  0  0  0  0
 28 30  1  0  0  0  0
 28 31  1  0  0  0  0
M  END
$$$$

  -OEChem-04042216013D

 31 30  0     1  0  0  0  0  0999 V2000
   -2.8262   -4.2416    0.1858 H   0  0  0  0  0  0  0  0  0  0  0  0
   -2.7583   -3.2633   -0.2990 C   0  0  0  0  0  0  0  0  0  0  0  0
   -3.5609   -2.6264    0.0805 H   0  0  0  0  0  0  0  0  0  0  0  0
   -2.8842   -3.3968   -1.3761 H   0  0  0  0  0  0  0  0  0  0  0  0
   -1.4108   -2.6297   -0.0078 C   0  0  0  0  0  0  0  0  0  0  0  0
   -0.6213   -3.2016    0.7209 O   0  0  0  0  0  0  0  0  0  0  0  0
   -1.0926   -1.4109   -0.5766 N   0  0  0  0  0  0  0  0  0  0  0  0
   -1.7598   -1.0351   -1.2434 H   0  0  0  0  0  0  0  0  0  0  0  0
    0.2217   -0.7476   -0.4584 C   0  0  1  0  0  0  0  0  0  0  0  0
    1.0046   -1.4001   -0.8610 H   0  0  0  0  0  0  0  0  0  0  0  0
    0.1332    0.5286   -1.3297 C   0  0  0  0  0  0  0  0  0  0  0  0
    0.1269    0.2186   -2.3798 H   0  0  0  0  0  0  0  0  0  0  0  0
   -0.8340    1.0066   -1.1404 H   0  0  0  0  0  0  0  0  0  0  0  0
    1.2490    1.5848   -1.1020 C   0  0  0  0  0  0  0  0  0  0  0  0
    1.9743    1.2331   -0.3643 H   0  0  0  0  0  0  0  0  0  0  0  0
    2.0293    1.8199   -2.4005 C   0  0  0  0  0  0  0  0  0  0  0  0
    1.3697    2.2024   -3.1858 H   0  0  0  0  0  0  0  0  0  0  0  0
    2.8316    2.5462   -2.2362 H   0  0  0  0  0  0  0  0  0  0  0  0
    2.4808    0.8846   -2.7468 H   0  0  0  0  0  0  0  0  0  0  0  0
    0.6607    2.9072   -0.5961 C   0  0  0  0  0  0  0  0  0  0  0  0
    0.1376    2.7515    0.3527 H   0  0  0  0  0  0  0  0  0  0  0  0
    1.4577    3.6390   -0.4307 H   0  0  0  0  0  0  0  0  0  0  0  0
   -0.0456    3.3213   -1.3225 H   0  0  0  0  0  0  0  0  0  0  0  0
    0.5908   -0.4510    1.0178 C   0  0  0  0  0  0  0  0  0  0  0  0
    1.7447   -0.5798    1.4070 O   0  0  0  0  0  0  0  0  0  0  0  0
   -0.3529    0.0916    1.8720 N   0  0  0  0  0  0  0  0  0  0  0  0
   -1.3139    0.0715    1.5488 H   0  0  0  0  0  0  0  0  0  0  0  0
   -0.0908    0.3368    3.2841 C   0  0  0  0  0  0  0  0  0  0  0  0
    0.7393    1.0410    3.4034 H   0  0  0  0  0  0  0  0  0  0  0  0
   -0.9762    0.7636    3.7646 H   0  0  0  0  0  0  0  0  0  0  0  0
    0.1645   -0.5988    3.7930 H   0  0  0  0  0  0  0  0  0  0  0  0
  1  2  1  0  0  0  0
  2  3  1  0  0  0  0
  2  4  1  0  0  0  0
  2  5  1  0  0  0  0
  5  6  2  0  0  0  0
  5  7  1  0  0  0  0
  7  8  1  0  0  0  0
  7  9  1  0  0  0  0
  9 10  1  0  0  0  0
  9 11  1  0  0  0  0
  9 24  1  0  0  0  0
 11 12  1  0  0  0  0
 11 13  1  0  0  0  0
 11 14  1  0  0  0  0
 14 15  1  0  0  0  0
 14 16  1  0  0  0  0
 14 20  1  0  0  0  0
 16 17  1  0  0  0  0
 16 18  1  0  0  0  0
 16 19  1  0  0  0  0
 20 21  1  0  0  0  0
 20 22  1  0  0  0  0
 20 23  1  0  0  0  0
 24 25  2  0  0  0  0
 24 26  1  0  0  0  0
 26 27  1  0  0  0  0
 26 28  1  0  0  0  0
 28 29  1  0  0  0  0
 28 30  1  0  0  0  0
 28 31  1  0  0  0  0
M  END
$$$$

  -OEChem-04042216013D

 31 30  0     1  0  0  0  0  0999 V2000
   -2.8212   -4.2527    0.1777 H   0  0  0  0  0  0  0  0  0  0  0  0
   -2.7614   -3.2716   -0.3022 C   0  0  0  0  0  0  0  0  0  0  0  0
   -3.5637   -2.6405    0.0869 H   0  0  0  0  0  0  0  0  0  0  0  0
   -2.8953   -3.4001   -1.3790 H   0  0  0  0  0  0  0  0  0  0  0  0
   -1.4143   -2.6340   -0.0176 C   0  0  0  0  0  0  0  0  0  0  0  0
   -0.6146   -3.2086    0.6978 O   0  0  0  0  0  0  0  0  0  0  0  0
   -1.1074   -1.4072   -0.5752 N   0  0  0  0  0  0  0  0  0  0  0  0
   -1.7832   -1.0249   -1.2294 H   0  0  0  0  0  0  0  0  0  0  0  0
    0.2024   -0.7357   -0.4562 C   0  0  1  0  0  0  0  0  0  0  0  0
    0.9841   -1.3899   -0.8584 H   0  0  0  0  0  0  0  0  0  0  0  0
    0.1259    0.5366   -1.3338 C   0  0  0  0  0  0  0  0  0  0  0  0
    0.1481    0.2113   -2.3792 H   0  0  0  0  0  0  0  0  0  0  0  0
   -0.8421    1.0232   -1.1752 H   0  0  0  0  0  0  0  0  0  0  0  0
    1.2440    1.5835   -1.0925 C   0  0  0  0  0  0  0  0  0  0  0  0
    2.0828    1.1190   -0.5647 H   0  0  0  0  0  0  0  0  0  0  0  0
    1.7927    2.0882   -2.4325 C   0  0  0  0  0  0  0  0  0  0  0  0
    1.0005    2.5609   -3.0216 H   0  0  0  0  0  0  0  0  0  0  0  0
    2.5875    2.8223   -2.2664 H   0  0  0  0  0  0  0  0  0  0  0  0
    2.2113    1.2584   -3.0108 H   0  0  0  0  0  0  0  0  0  0  0  0
    0.7378    2.7735   -0.2659 C   0  0  0  0  0  0  0  0  0  0  0  0
    0.3688    2.4405    0.7075 H   0  0  0  0  0  0  0  0  0  0  0  0
    1.5496    3.4872   -0.0944 H   0  0  0  0  0  0  0  0  0  0  0  0
   -0.0735    3.2907   -0.7877 H   0  0  0  0  0  0  0  0  0  0  0  0
    0.5805   -0.4494    1.0192 C   0  0  0  0  0  0  0  0  0  0  0  0
    1.7431   -0.5479    1.3905 O   0  0  0  0  0  0  0  0  0  0  0  0
   -0.3605    0.0779    1.8862 N   0  0  0  0  0  0  0  0  0  0  0  0
   -1.3254    0.0422    1.5759 H   0  0  0  0  0  0  0  0  0  0  0  0
   -0.0833    0.3273    3.2949 C   0  0  0  0  0  0  0  0  0  0  0  0
    0.7354    1.0464    3.4032 H   0  0  0  0  0  0  0  0  0  0  0  0
   -0.9694    0.7374    3.7882 H   0  0  0  0  0  0  0  0  0  0  0  0
    0.1966   -0.6035    3.7995 H   0  0  0  0  0  0  0  0  0  0  0  0
  1  2  1  0  0  0  0
  2  3  1  0  0  0  0
  2  4  1  0  0  0  0
  2  5  1  0  0  0  0
  5  6  2  0  0  0  0
  5  7  1  0  0  0  0
  7  8  1  0  0  0  0
  7  9  1  0  0  0  0
  9 10  1  0  0  0  0
  9 11  1  0  0  0  0
  9 24  1  0  0  0  0
 11 12  1  0  0  0  0
 11 13  1  0  0  0  0
 11 14  1  0  0  0  0
 14 15  1  0  0  0  0
 14 16  1  0  0  0  0
 14 20  1  0  0  0  0
 16 17  1  0  0  0  0
 16 18  1  0  0  0  0
 16 19  1  0  0  0  0
 20 21  1  0  0  0  0
 20 22  1  0  0  0  0
 20 23  1  0  0  0  0
 24 25  2  0  0  0  0
 24 26  1  0  0  0  0
 26 27  1  0  0  0  0
 26 28  1  0  0  0  0
 28 29  1  0  0  0  0
 28 30  1  0  0  0  0
 28 31  1  0  0  0  0
M  END
$$$$

  -OEChem-04042216013D

 31 30  0     1  0  0  0  0  0999 V2000
   -2.8391   -4.2456    0.1522 H   0  0  0  0  0  0  0  0  0  0  0  0
   -2.7747   -3.2590   -0.3158 C   0  0  0  0  0  0  0  0  0  0  0  0
   -3.5669   -2.6252    0.0896 H   0  0  0  0  0  0  0  0  0  0  0  0
   -2.9205   -3.3722   -1.3927 H   0  0  0  0  0  0  0  0  0  0  0  0
   -1.4192   -2.6374   -0.0368 C   0  0  0  0  0  0  0  0  0  0  0  0
   -0.6112   -3.2340    0.6507 O   0  0  0  0  0  0  0  0  0  0  0  0
   -1.1148   -1.3977   -0.5660 N   0  0  0  0  0  0  0  0  0  0  0  0
   -1.8008   -0.9908   -1.1943 H   0  0  0  0  0  0  0  0  0  0  0  0
    0.1934   -0.7261   -0.4325 C   0  0  1  0  0  0  0  0  0  0  0  0
    0.9718   -1.3859   -0.8322 H   0  0  0  0  0  0  0  0  0  0  0  0
    0.1458    0.5404   -1.3215 C   0  0  0  0  0  0  0  0  0  0  0  0
    0.1935    0.2004   -2.3614 H   0  0  0  0  0  0  0  0  0  0  0  0
   -0.8221    1.0352   -1.1908 H   0  0  0  0  0  0  0  0  0  0  0  0
    1.2583    1.5922   -1.0790 C   0  0  0  0  0  0  0  0  0  0  0  0
    2.1776    1.0872   -0.7615 H   0  0  0  0  0  0  0  0  0  0  0  0
    1.5503    2.3289   -2.3938 C   0  0  0  0  0  0  0  0  0  0  0  0
    0.6523    2.8360   -2.7611 H   0  0  0  0  0  0  0  0  0  0  0  0
    2.3363    3.0766   -2.2473 H   0  0  0  0  0  0  0  0  0  0  0  0
    1.8918    1.6253   -3.1595 H   0  0  0  0  0  0  0  0  0  0  0  0
    0.8698    2.6473   -0.0298 C   0  0  0  0  0  0  0  0  0  0  0  0
    0.7664    2.2054    0.9618 H   0  0  0  0  0  0  0  0  0  0  0  0
    1.6441    3.4182    0.0345 H   0  0  0  0  0  0  0  0  0  0  0  0
   -0.0753    3.1301   -0.2967 H   0  0  0  0  0  0  0  0  0  0  0  0
    0.5729   -0.4721    1.0463 C   0  0  0  0  0  0  0  0  0  0  0  0
    1.7416   -0.5471    1.4035 O   0  0  0  0  0  0  0  0  0  0  0  0
   -0.3691    0.0327    1.9262 N   0  0  0  0  0  0  0  0  0  0  0  0
   -1.3349   -0.0080    1.6197 H   0  0  0  0  0  0  0  0  0  0  0  0
   -0.0887    0.2613    3.3378 C   0  0  0  0  0  0  0  0  0  0  0  0
    0.7224    0.9876    3.4550 H   0  0  0  0  0  0  0  0  0  0  0  0
   -0.9774    0.6533    3.8414 H   0  0  0  0  0  0  0  0  0  0  0  0
    0.2031   -0.6748    3.8256 H   0  0  0  0  0  0  0  0  0  0  0  0
  1  2  1  0  0  0  0
  2  3  1  0  0  0  0
  2  4  1  0  0  0  0
  2  5  1  0  0  0  0
  5  6  2  0  0  0  0
  5  7  1  0  0  0  0
  7  8  1  0  0  0  0
  7  9  1  0  0  0  0
  9 10  1  0  0  0  0
  9 11  1  0  0  0  0
  9 24  1  0  0  0  0
 11 12  1  0  0  0  0
 11 13  1  0  0  0  0
 11 14  1  0  0  0  0
 14 15  1  0  0  0  0
 14 16  1  0  0  0  0
 14 20  1  0  0  0  0
 16 17  1  0  0  0  0
 16 18  1  0  0  0  0
 16 19  1  0  0  0  0
 20 21  1  0  0  0  0
 20 22  1  0  0  0  0
 20 23  1  0  0  0  0
 24 25  2  0  0  0  0
 24 26  1  0  0  0  0
 26 27  1  0  0  0  0
 26 28  1  0  0  0  0
 28 29  1  0  0  0  0
 28 30  1  0  0  0  0
 28 31  1  0  0  0  0
M  END
$$$$

  -OEChem-04042216013D

 31 30  0     1  0  0  0  0  0999 V2000
   -2.8831   -4.2185    0.1004 H   0  0  0  0  0  0  0  0  0  0  0  0
   -2.7979   -3.2275   -0.3545 C   0  0  0  0  0  0  0  0  0  0  0  0
   -3.5895   -2.5891    0.0445 H   0  0  0  0  0  0  0  0  0  0  0  0
   -2.9255   -3.3254   -1.4352 H   0  0  0  0  0  0  0  0  0  0  0  0
   -1.4398   -2.6267   -0.0441 C   0  0  0  0  0  0  0  0  0  0  0  0
   -0.6525   -3.2412    0.6516 O   0  0  0  0  0  0  0  0  0  0  0  0
   -1.1097   -1.3859   -0.5554 N   0  0  0  0  0  0  0  0  0  0  0  0
   -1.7794   -0.9636   -1.1911 H   0  0  0  0  0  0  0  0  0  0  0  0
    0.2075   -0.7369   -0.3989 C   0  0  1  0  0  0  0  0  0  0  0  0
    0.9790   -1.4072   -0.7945 H   0  0  0  0  0  0  0  0  0  0  0  0
    0.1842    0.5281   -1.2934 C   0  0  0  0  0  0  0  0  0  0  0  0
    0.2346    0.1824   -2.3312 H   0  0  0  0  0  0  0  0  0  0  0  0
   -0.7827    1.0263   -1.1670 H   0  0  0  0  0  0  0  0  0  0  0  0
    1.2859    1.5975   -1.0742 C   0  0  0  0  0  0  0  0  0  0  0  0
    2.2631    1.1069   -1.0021 H   0  0  0  0  0  0  0  0  0  0  0  0
    1.2858    2.5338   -2.2925 C   0  0  0  0  0  0  0  0  0  0  0  0
    0.3223    3.0443   -2.3898 H   0  0  0  0  0  0  0  0  0  0  0  0
    2.0722    3.2894   -2.1975 H   0  0  0  0  0  0  0  0  0  0  0  0
    1.4742    1.9680   -3.2102 H   0  0  0  0  0  0  0  0  0  0  0  0
    1.0679    2.4863    0.1659 C   0  0  0  0  0  0  0  0  0  0  0  0
    1.3547    1.9726    1.0844 H   0  0  0  0  0  0  0  0  0  0  0  0
    1.6862    3.3872    0.1044 H   0  0  0  0  0  0  0  0  0  0  0  0
    0.0207    2.7938    0.2450 H   0  0  0  0  0  0  0  0  0  0  0  0
    0.5766   -0.5049    1.0836 C   0  0  0  0  0  0  0  0  0  0  0  0
    1.7374   -0.6293    1.4534 O   0  0  0  0  0  0  0  0  0  0  0  0
   -0.3640    0.0068    1.9608 N   0  0  0  0  0  0  0  0  0  0  0  0
   -1.3270   -0.0078    1.6433 H   0  0  0  0  0  0  0  0  0  0  0  0
   -0.0951    0.2005    3.3798 C   0  0  0  0  0  0  0  0  0  0  0  0
    0.7293    0.9075    3.5208 H   0  0  0  0  0  0  0  0  0  0  0  0
   -0.9814    0.5998    3.8819 H   0  0  0  0  0  0  0  0  0  0  0  0
    0.1727   -0.7511    3.8513 H   0  0  0  0  0  0  0  0  0  0  0  0
  1  2  1  0  0  0  0
  2  3  1  0  0  0  0
  2  4  1  0  0  0  0
  2  5  1  0  0  0  0
  5  6  2  0  0  0  0
  5  7  1  0  0  0  0
  7  8  1  0  0  0  0
  7  9  1  0  0  0  0
  9 10  1  0  0  0  0
  9 11  1  0  0  0  0
  9 24  1  0  0  0  0
 11 12  1  0  0  0  0
 11 13  1  0  0  0  0
 11 14  1  0  0  0  0
 14 15  1  0  0  0  0
 14 16  1  0  0  0  0
 14 20  1  0  0  0  0
 16 17  1  0  0  0  0
 16 18  1  0  0  0  0
 16 19  1  0  0  0  0
 20 21  1  0  0  0  0
 20 22  1  0  0  0  0
 20 23  1  0  0  0  0
 24 25  2  0  0  0  0
 24 26  1  0  0  0  0
 26 27  1  0  0  0  0
 26 28  1  0  0  0  0
 28 29  1  0  0  0  0
 28 30  1  0  0  0  0
 28 31  1  0  0  0  0
M  END
$$$$
