
  -OEChem-03222214063D

 31 30  0     1  0  0  0  0  0999 V2000
   -3.3487   -3.8980    1.1238 H   0  0  0  0  0  0  0  0  0  0  0  0
   -3.2855   -2.9164    0.6459 C   0  0  0  0  0  0  0  0  0  0  0  0
   -3.9922   -2.2407    1.1336 H   0  0  0  0  0  0  0  0  0  0  0  0
   -3.5573   -3.0191   -0.4074 H   0  0  0  0  0  0  0  0  0  0  0  0
   -1.8767   -2.3665    0.7655 C   0  0  0  0  0  0  0  0  0  0  0  0
   -1.0107   -3.0209    1.3246 O   0  0  0  0  0  0  0  0  0  0  0  0
   -1.5805   -1.1236    0.2470 N   0  0  0  0  0  0  0  0  0  0  0  0
   -2.3524   -0.5702   -0.1229 H   0  0  0  0  0  0  0  0  0  0  0  0
   -0.2868   -0.4417    0.3968 C   0  0  1  0  0  0  0  0  0  0  0  0
    0.3066   -0.8876    1.2016 H   0  0  0  0  0  0  0  0  0  0  0  0
    0.4425   -0.6542   -0.9516 C   0  0  0  0  0  0  0  0  0  0  0  0
    0.5150   -1.7349   -1.1162 H   0  0  0  0  0  0  0  0  0  0  0  0
   -0.1977   -0.2482   -1.7428 H   0  0  0  0  0  0  0  0  0  0  0  0
    1.8601   -0.0559   -1.1341 C   0  0  0  0  0  0  0  0  0  0  0  0
    2.5366   -0.5100   -0.4020 H   0  0  0  0  0  0  0  0  0  0  0  0
    2.3415   -0.4175   -2.5472 C   0  0  0  0  0  0  0  0  0  0  0  0
    1.7055    0.0513   -3.3052 H   0  0  0  0  0  0  0  0  0  0  0  0
    3.3715   -0.0807   -2.7008 H   0  0  0  0  0  0  0  0  0  0  0  0
    2.3158   -1.5018   -2.6946 H   0  0  0  0  0  0  0  0  0  0  0  0
    1.9430    1.4727   -1.0038 C   0  0  0  0  0  0  0  0  0  0  0  0
    1.9742    1.7705    0.0446 H   0  0  0  0  0  0  0  0  0  0  0  0
    2.8584    1.8520   -1.4690 H   0  0  0  0  0  0  0  0  0  0  0  0
    1.0874    1.9520   -1.4906 H   0  0  0  0  0  0  0  0  0  0  0  0
   -0.5784    1.0264    0.7730 C   0  0  0  0  0  0  0  0  0  0  0  0
   -1.4702    1.6409    0.1966 O   0  0  0  0  0  0  0  0  0  0  0  0
    0.1261    1.6501    1.7868 N   0  0  0  0  0  0  0  0  0  0  0  0
    0.8315    1.1043    2.2734 H   0  0  0  0  0  0  0  0  0  0  0  0
   -0.1224    3.0226    2.2095 C   0  0  0  0  0  0  0  0  0  0  0  0
   -1.1544    3.1355    2.5580 H   0  0  0  0  0  0  0  0  0  0  0  0
    0.5506    3.2934    3.0286 H   0  0  0  0  0  0  0  0  0  0  0  0
    0.0475    3.7158    1.3789 H   0  0  0  0  0  0  0  0  0  0  0  0
  1  2  1  0  0  0  0
  2  3  1  0  0  0  0
  2  4  1  0  0  0  0
  2  5  1  0  0  0  0
  5  6  2  0  0  0  0
  5  7  1  0  0  0  0
  7  8  1  0  0  0  0
  7  9  1  0  0  0  0
  9 10  1  0  0  0  0
  9 11  1  0  0  0  0
  9 24  1  0  0  0  0
 11 12  1  0  0  0  0
 11 13  1  0  0  0  0
 11 14  1  0  0  0  0
 14 15  1  0  0  0  0
 14 16  1  0  0  0  0
 14 20  1  0  0  0  0
 16 17  1  0  0  0  0
 16 18  1  0  0  0  0
 16 19  1  0  0  0  0
 20 21  1  0  0  0  0
 20 22  1  0  0  0  0
 20 23  1  0  0  0  0
 24 25  2  0  0  0  0
 24 26  1  0  0  0  0
 26 27  1  0  0  0  0
 26 28  1  0  0  0  0
 28 29  1  0  0  0  0
 28 30  1  0  0  0  0
 28 31  1  0  0  0  0
M  END
$$$$

  -OEChem-03222214063D

 31 30  0     1  0  0  0  0  0999 V2000
   -3.3658   -3.8883    1.1035 H   0  0  0  0  0  0  0  0  0  0  0  0
   -3.2926   -2.9062    0.6280 C   0  0  0  0  0  0  0  0  0  0  0  0
   -4.0031   -2.2287    1.1079 H   0  0  0  0  0  0  0  0  0  0  0  0
   -3.5514   -3.0063   -0.4288 H   0  0  0  0  0  0  0  0  0  0  0  0
   -1.8831   -2.3619    0.7655 C   0  0  0  0  0  0  0  0  0  0  0  0
   -1.0246   -3.0229    1.3285 O   0  0  0  0  0  0  0  0  0  0  0  0
   -1.5765   -1.1182    0.2552 N   0  0  0  0  0  0  0  0  0  0  0  0
   -2.3434   -0.5579   -0.1153 H   0  0  0  0  0  0  0  0  0  0  0  0
   -0.2812   -0.4421    0.4205 C   0  0  1  0  0  0  0  0  0  0  0  0
    0.3100   -0.8907    1.2252 H   0  0  0  0  0  0  0  0  0  0  0  0
    0.4452   -0.6484   -0.9332 C   0  0  0  0  0  0  0  0  0  0  0  0
    0.4993   -1.7259   -1.1234 H   0  0  0  0  0  0  0  0  0  0  0  0
   -0.2042   -0.2175   -1.7037 H   0  0  0  0  0  0  0  0  0  0  0  0
    1.8701   -0.0717   -1.1487 C   0  0  0  0  0  0  0  0  0  0  0  0
    2.5842   -0.7233   -0.6334 H   0  0  0  0  0  0  0  0  0  0  0  0
    2.1708   -0.0983   -2.6544 C   0  0  0  0  0  0  0  0  0  0  0  0
    1.5070    0.5837   -3.1958 H   0  0  0  0  0  0  0  0  0  0  0  0
    3.2062    0.2012   -2.8451 H   0  0  0  0  0  0  0  0  0  0  0  0
    2.0313   -1.1082   -3.0528 H   0  0  0  0  0  0  0  0  0  0  0  0
    2.1073    1.3625   -0.6619 C   0  0  0  0  0  0  0  0  0  0  0  0
    2.1894    1.3862    0.4261 H   0  0  0  0  0  0  0  0  0  0  0  0
    3.0480    1.7533   -1.0626 H   0  0  0  0  0  0  0  0  0  0  0  0
    1.2977    2.0244   -0.9857 H   0  0  0  0  0  0  0  0  0  0  0  0
   -0.5960    1.0227    0.7993 C   0  0  0  0  0  0  0  0  0  0  0  0
   -1.4816    1.6304    0.2060 O   0  0  0  0  0  0  0  0  0  0  0  0
    0.0823    1.6570    1.8244 N   0  0  0  0  0  0  0  0  0  0  0  0
    0.7891    1.1226    2.3216 H   0  0  0  0  0  0  0  0  0  0  0  0
   -0.1760    3.0336    2.2271 C   0  0  0  0  0  0  0  0  0  0  0  0
   -1.2187    3.1526    2.5396 H   0  0  0  0  0  0  0  0  0  0  0  0
    0.4697    3.3094    3.0663 H   0  0  0  0  0  0  0  0  0  0  0  0
    0.0244    3.7185    1.3964 H   0  0  0  0  0  0  0  0  0  0  0  0
  1  2  1  0  0  0  0
  2  3  1  0  0  0  0
  2  4  1  0  0  0  0
  2  5  1  0  0  0  0
  5  6  2  0  0  0  0
  5  7  1  0  0  0  0
  7  8  1  0  0  0  0
  7  9  1  0  0  0  0
  9 10  1  0  0  0  0
  9 11  1  0  0  0  0
  9 24  1  0  0  0  0
 11 12  1  0  0  0  0
 11 13  1  0  0  0  0
 11 14  1  0  0  0  0
 14 15  1  0  0  0  0
 14 16  1  0  0  0  0
 14 20  1  0  0  0  0
 16 17  1  0  0  0  0
 16 18  1  0  0  0  0
 16 19  1  0  0  0  0
 20 21  1  0  0  0  0
 20 22  1  0  0  0  0
 20 23  1  0  0  0  0
 24 25  2  0  0  0  0
 24 26  1  0  0  0  0
 26 27  1  0  0  0  0
 26 28  1  0  0  0  0
 28 29  1  0  0  0  0
 28 30  1  0  0  0  0
 28 31  1  0  0  0  0
M  END
$$$$

  -OEChem-03222214063D

 31 30  0     1  0  0  0  0  0999 V2000
   -3.3832   -3.8800    1.1063 H   0  0  0  0  0  0  0  0  0  0  0  0
   -3.3043   -2.8991    0.6295 C   0  0  0  0  0  0  0  0  0  0  0  0
   -4.0177   -2.2190    1.1012 H   0  0  0  0  0  0  0  0  0  0  0  0
   -3.5530   -3.0008   -0.4296 H   0  0  0  0  0  0  0  0  0  0  0  0
   -1.8956   -2.3570    0.7786 C   0  0  0  0  0  0  0  0  0  0  0  0
   -1.0434   -3.0173    1.3518 O   0  0  0  0  0  0  0  0  0  0  0  0
   -1.5818   -1.1171    0.2640 N   0  0  0  0  0  0  0  0  0  0  0  0
   -2.3436   -0.5564   -0.1164 H   0  0  0  0  0  0  0  0  0  0  0  0
   -0.2836   -0.4471    0.4304 C   0  0  1  0  0  0  0  0  0  0  0  0
    0.3088   -0.8969    1.2335 H   0  0  0  0  0  0  0  0  0  0  0  0
    0.4346   -0.6466   -0.9294 C   0  0  0  0  0  0  0  0  0  0  0  0
    0.4779   -1.7220   -1.1342 H   0  0  0  0  0  0  0  0  0  0  0  0
   -0.2240   -0.2069   -1.6873 H   0  0  0  0  0  0  0  0  0  0  0  0
    1.8642   -0.0793   -1.1608 C   0  0  0  0  0  0  0  0  0  0  0  0
    2.5724   -0.8751   -0.9058 H   0  0  0  0  0  0  0  0  0  0  0  0
    2.0311    0.2626   -2.6480 C   0  0  0  0  0  0  0  0  0  0  0  0
    1.3686    1.0864   -2.9332 H   0  0  0  0  0  0  0  0  0  0  0  0
    3.0633    0.5578   -2.8608 H   0  0  0  0  0  0  0  0  0  0  0  0
    1.7914   -0.6074   -3.2674 H   0  0  0  0  0  0  0  0  0  0  0  0
    2.2716    1.1522   -0.3472 C   0  0  0  0  0  0  0  0  0  0  0  0
    2.2997    0.9125    0.7185 H   0  0  0  0  0  0  0  0  0  0  0  0
    3.2755    1.4795   -0.6354 H   0  0  0  0  0  0  0  0  0  0  0  0
    1.5823    1.9839   -0.5226 H   0  0  0  0  0  0  0  0  0  0  0  0
   -0.6025    1.0206    0.8024 C   0  0  0  0  0  0  0  0  0  0  0  0
   -1.4836    1.6242    0.1981 O   0  0  0  0  0  0  0  0  0  0  0  0
    0.0664    1.6663    1.8273 N   0  0  0  0  0  0  0  0  0  0  0  0
    0.7645    1.1356    2.3404 H   0  0  0  0  0  0  0  0  0  0  0  0
   -0.2069    3.0422    2.2236 C   0  0  0  0  0  0  0  0  0  0  0  0
   -1.2534    3.1534    2.5261 H   0  0  0  0  0  0  0  0  0  0  0  0
    0.4285    3.3263    3.0678 H   0  0  0  0  0  0  0  0  0  0  0  0
   -0.0046    3.7268    1.3932 H   0  0  0  0  0  0  0  0  0  0  0  0
  1  2  1  0  0  0  0
  2  3  1  0  0  0  0
  2  4  1  0  0  0  0
  2  5  1  0  0  0  0
  5  6  2  0  0  0  0
  5  7  1  0  0  0  0
  7  8  1  0  0  0  0
  7  9  1  0  0  0  0
  9 10  1  0  0  0  0
  9 11  1  0  0  0  0
  9 24  1  0  0  0  0
 11 12  1  0  0  0  0
 11 13  1  0  0  0  0
 11 14  1  0  0  0  0
 14 15  1  0  0  0  0
 14 16  1  0  0  0  0
 14 20  1  0  0  0  0
 16 17  1  0  0  0  0
 16 18  1  0  0  0  0
 16 19  1  0  0  0  0
 20 21  1  0  0  0  0
 20 22  1  0  0  0  0
 20 23  1  0  0  0  0
 24 25  2  0  0  0  0
 24 26  1  0  0  0  0
 26 27  1  0  0  0  0
 26 28  1  0  0  0  0
 28 29  1  0  0  0  0
 28 30  1  0  0  0  0
 28 31  1  0  0  0  0
M  END
$$$$

  -OEChem-03222214063D

 31 30  0     1  0  0  0  0  0999 V2000
   -3.3978   -3.8825    1.1264 H   0  0  0  0  0  0  0  0  0  0  0  0
   -3.3190   -2.9043    0.6436 C   0  0  0  0  0  0  0  0  0  0  0  0
   -4.0300   -2.2209    1.1141 H   0  0  0  0  0  0  0  0  0  0  0  0
   -3.5726   -3.0118   -0.4138 H   0  0  0  0  0  0  0  0  0  0  0  0
   -1.9086   -2.3630    0.7848 C   0  0  0  0  0  0  0  0  0  0  0  0
   -1.0559   -3.0210    1.3599 O   0  0  0  0  0  0  0  0  0  0  0  0
   -1.5953   -1.1250    0.2646 N   0  0  0  0  0  0  0  0  0  0  0  0
   -2.3576   -0.5670   -0.1185 H   0  0  0  0  0  0  0  0  0  0  0  0
   -0.2985   -0.4518    0.4294 C   0  0  1  0  0  0  0  0  0  0  0  0
    0.2922   -0.9012    1.2341 H   0  0  0  0  0  0  0  0  0  0  0  0
    0.4220   -0.6454   -0.9289 C   0  0  0  0  0  0  0  0  0  0  0  0
    0.4760   -1.7218   -1.1247 H   0  0  0  0  0  0  0  0  0  0  0  0
   -0.2405   -0.2236   -1.6930 H   0  0  0  0  0  0  0  0  0  0  0  0
    1.8514   -0.0704   -1.1570 C   0  0  0  0  0  0  0  0  0  0  0  0
    2.5321   -0.9285   -1.1793 H   0  0  0  0  0  0  0  0  0  0  0  0
    1.9228    0.6234   -2.5240 C   0  0  0  0  0  0  0  0  0  0  0  0
    1.2596    1.4942   -2.5508 H   0  0  0  0  0  0  0  0  0  0  0  0
    2.9439    0.9583   -2.7315 H   0  0  0  0  0  0  0  0  0  0  0  0
    1.6232   -0.0678   -3.3181 H   0  0  0  0  0  0  0  0  0  0  0  0
    2.4041    0.8877   -0.0976 C   0  0  0  0  0  0  0  0  0  0  0  0
    2.3455    0.4406    0.8985 H   0  0  0  0  0  0  0  0  0  0  0  0
    3.4573    1.1024   -0.3041 H   0  0  0  0  0  0  0  0  0  0  0  0
    1.8622    1.8376   -0.1096 H   0  0  0  0  0  0  0  0  0  0  0  0
   -0.6089    1.0193    0.7939 C   0  0  0  0  0  0  0  0  0  0  0  0
   -1.4891    1.6242    0.1897 O   0  0  0  0  0  0  0  0  0  0  0  0
    0.0655    1.6642    1.8156 N   0  0  0  0  0  0  0  0  0  0  0  0
    0.7651    1.1322    2.3251 H   0  0  0  0  0  0  0  0  0  0  0  0
   -0.1949    3.0440    2.2063 C   0  0  0  0  0  0  0  0  0  0  0  0
   -1.2385    3.1648    2.5153 H   0  0  0  0  0  0  0  0  0  0  0  0
    0.4485    3.3273    3.0448 H   0  0  0  0  0  0  0  0  0  0  0  0
    0.0069    3.7229    1.3711 H   0  0  0  0  0  0  0  0  0  0  0  0
  1  2  1  0  0  0  0
  2  3  1  0  0  0  0
  2  4  1  0  0  0  0
  2  5  1  0  0  0  0
  5  6  2  0  0  0  0
  5  7  1  0  0  0  0
  7  8  1  0  0  0  0
  7  9  1  0  0  0  0
  9 10  1  0  0  0  0
  9 11  1  0  0  0  0
  9 24  1  0  0  0  0
 11 12  1  0  0  0  0
 11 13  1  0  0  0  0
 11 14  1  0  0  0  0
 14 15  1  0  0  0  0
 14 16  1  0  0  0  0
 14 20  1  0  0  0  0
 16 17  1  0  0  0  0
 16 18  1  0  0  0  0
 16 19  1  0  0  0  0
 20 21  1  0  0  0  0
 20 22  1  0  0  0  0
 20 23  1  0  0  0  0
 24 25  2  0  0  0  0
 24 26  1  0  0  0  0
 26 27  1  0  0  0  0
 26 28  1  0  0  0  0
 28 29  1  0  0  0  0
 28 30  1  0  0  0  0
 28 31  1  0  0  0  0
M  END
$$$$

  -OEChem-03222214063D

 31 30  0     1  0  0  0  0  0999 V2000
   -3.4087   -3.8859    1.1454 H   0  0  0  0  0  0  0  0  0  0  0  0
   -3.3302   -2.9098    0.6585 C   0  0  0  0  0  0  0  0  0  0  0  0
   -4.0402   -2.2240    1.1269 H   0  0  0  0  0  0  0  0  0  0  0  0
   -3.5847   -3.0215   -0.3982 H   0  0  0  0  0  0  0  0  0  0  0  0
   -1.9198   -2.3686    0.7956 C   0  0  0  0  0  0  0  0  0  0  0  0
   -1.0678   -3.0220    1.3768 O   0  0  0  0  0  0  0  0  0  0  0  0
   -1.6063   -1.1356    0.2639 N   0  0  0  0  0  0  0  0  0  0  0  0
   -2.3687   -0.5817   -0.1248 H   0  0  0  0  0  0  0  0  0  0  0  0
   -0.3105   -0.4600    0.4249 C   0  0  1  0  0  0  0  0  0  0  0  0
    0.2762   -0.9086    1.2326 H   0  0  0  0  0  0  0  0  0  0  0  0
    0.4106   -0.6433   -0.9315 C   0  0  0  0  0  0  0  0  0  0  0  0
    0.4842   -1.7218   -1.1095 H   0  0  0  0  0  0  0  0  0  0  0  0
   -0.2501   -0.2457   -1.7100 H   0  0  0  0  0  0  0  0  0  0  0  0
    1.8364   -0.0546   -1.1400 C   0  0  0  0  0  0  0  0  0  0  0  0
    2.4650   -0.8945   -1.4563 H   0  0  0  0  0  0  0  0  0  0  0  0
    1.8327    0.9591   -2.2912 C   0  0  0  0  0  0  0  0  0  0  0  0
    1.1964    1.8160   -2.0463 H   0  0  0  0  0  0  0  0  0  0  0  0
    2.8467    1.3229   -2.4840 H   0  0  0  0  0  0  0  0  0  0  0  0
    1.4560    0.4960   -3.2085 H   0  0  0  0  0  0  0  0  0  0  0  0
    2.5341    0.5562    0.0814 C   0  0  0  0  0  0  0  0  0  0  0  0
    2.4258   -0.0853    0.9605 H   0  0  0  0  0  0  0  0  0  0  0  0
    3.6039    0.6650   -0.1230 H   0  0  0  0  0  0  0  0  0  0  0  0
    2.1397    1.5507    0.3009 H   0  0  0  0  0  0  0  0  0  0  0  0
   -0.6053    1.0165    0.7748 C   0  0  0  0  0  0  0  0  0  0  0  0
   -1.4831    1.6217    0.1678 O   0  0  0  0  0  0  0  0  0  0  0  0
    0.0758    1.6647    1.7891 N   0  0  0  0  0  0  0  0  0  0  0  0
    0.7770    1.1339    2.2977 H   0  0  0  0  0  0  0  0  0  0  0  0
   -0.1753    3.0494    2.1687 C   0  0  0  0  0  0  0  0  0  0  0  0
   -1.2196    3.1810    2.4710 H   0  0  0  0  0  0  0  0  0  0  0  0
    0.4656    3.3329    3.0090 H   0  0  0  0  0  0  0  0  0  0  0  0
    0.0368    3.7205    1.3299 H   0  0  0  0  0  0  0  0  0  0  0  0
  1  2  1  0  0  0  0
  2  3  1  0  0  0  0
  2  4  1  0  0  0  0
  2  5  1  0  0  0  0
  5  6  2  0  0  0  0
  5  7  1  0  0  0  0
  7  8  1  0  0  0  0
  7  9  1  0  0  0  0
  9 10  1  0  0  0  0
  9 11  1  0  0  0  0
  9 24  1  0  0  0  0
 11 12  1  0  0  0  0
 11 13  1  0  0  0  0
 11 14  1  0  0  0  0
 14 15  1  0  0  0  0
 14 16  1  0  0  0  0
 14 20  1  0  0  0  0
 16 17  1  0  0  0  0
 16 18  1  0  0  0  0
 16 19  1  0  0  0  0
 20 21  1  0  0  0  0
 20 22  1  0  0  0  0
 20 23  1  0  0  0  0
 24 25  2  0  0  0  0
 24 26  1  0  0  0  0
 26 27  1  0  0  0  0
 26 28  1  0  0  0  0
 28 29  1  0  0  0  0
 28 30  1  0  0  0  0
 28 31  1  0  0  0  0
M  END
$$$$

  -OEChem-03222214063D

 31 30  0     1  0  0  0  0  0999 V2000
   -3.4201   -3.8782    1.1740 H   0  0  0  0  0  0  0  0  0  0  0  0
   -3.3411   -2.9061    0.6796 C   0  0  0  0  0  0  0  0  0  0  0  0
   -4.0442   -2.2138    1.1488 H   0  0  0  0  0  0  0  0  0  0  0  0
   -3.6047   -3.0241   -0.3742 H   0  0  0  0  0  0  0  0  0  0  0  0
   -1.9271   -2.3708    0.8021 C   0  0  0  0  0  0  0  0  0  0  0  0
   -1.0750   -3.0223    1.3853 O   0  0  0  0  0  0  0  0  0  0  0  0
   -1.6116   -1.1437    0.2584 N   0  0  0  0  0  0  0  0  0  0  0  0
   -2.3742   -0.5895   -0.1292 H   0  0  0  0  0  0  0  0  0  0  0  0
   -0.3143   -0.4702    0.4113 C   0  0  1  0  0  0  0  0  0  0  0  0
    0.2726   -0.9153    1.2206 H   0  0  0  0  0  0  0  0  0  0  0  0
    0.4081   -0.6416   -0.9437 C   0  0  0  0  0  0  0  0  0  0  0  0
    0.4987   -1.7198   -1.1160 H   0  0  0  0  0  0  0  0  0  0  0  0
   -0.2420   -0.2528   -1.7353 H   0  0  0  0  0  0  0  0  0  0  0  0
    1.8281   -0.0377   -1.1127 C   0  0  0  0  0  0  0  0  0  0  0  0
    2.3905   -0.7711   -1.7014 H   0  0  0  0  0  0  0  0  0  0  0  0
    1.7841    1.2379   -1.9615 C   0  0  0  0  0  0  0  0  0  0  0  0
    1.2008    2.0147   -1.4571 H   0  0  0  0  0  0  0  0  0  0  0  0
    2.7964    1.6179   -2.1302 H   0  0  0  0  0  0  0  0  0  0  0  0
    1.3276    1.0371   -2.9358 H   0  0  0  0  0  0  0  0  0  0  0  0
    2.6389    0.1742    0.1722 C   0  0  0  0  0  0  0  0  0  0  0  0
    2.5644   -0.6999    0.8260 H   0  0  0  0  0  0  0  0  0  0  0  0
    3.6946    0.3191   -0.0782 H   0  0  0  0  0  0  0  0  0  0  0  0
    2.3065    1.0601    0.7135 H   0  0  0  0  0  0  0  0  0  0  0  0
   -0.5980    1.0115    0.7480 C   0  0  0  0  0  0  0  0  0  0  0  0
   -1.4769    1.6146    0.1402 O   0  0  0  0  0  0  0  0  0  0  0  0
    0.0884    1.6672    1.7532 N   0  0  0  0  0  0  0  0  0  0  0  0
    0.7871    1.1379    2.2667 H   0  0  0  0  0  0  0  0  0  0  0  0
   -0.1503    3.0589    2.1143 C   0  0  0  0  0  0  0  0  0  0  0  0
   -1.1907    3.2013    2.4246 H   0  0  0  0  0  0  0  0  0  0  0  0
    0.5008    3.3511    2.9438 H   0  0  0  0  0  0  0  0  0  0  0  0
    0.0573    3.7159    1.2631 H   0  0  0  0  0  0  0  0  0  0  0  0
  1  2  1  0  0  0  0
  2  3  1  0  0  0  0
  2  4  1  0  0  0  0
  2  5  1  0  0  0  0
  5  6  2  0  0  0  0
  5  7  1  0  0  0  0
  7  8  1  0  0  0  0
  7  9  1  0  0  0  0
  9 10  1  0  0  0  0
  9 11  1  0  0  0  0
  9 24  1  0  0  0  0
 11 12  1  0  0  0  0
 11 13  1  0  0  0  0
 11 14  1  0  0  0  0
 14 15  1  0  0  0  0
 14 16  1  0  0  0  0
 14 20  1  0  0  0  0
 16 17  1  0  0  0  0
 16 18  1  0  0  0  0
 16 19  1  0  0  0  0
 20 21  1  0  0  0  0
 20 22  1  0  0  0  0
 20 23  1  0  0  0  0
 24 25  2  0  0  0  0
 24 26  1  0  0  0  0
 26 27  1  0  0  0  0
 26 28  1  0  0  0  0
 28 29  1  0  0  0  0
 28 30  1  0  0  0  0
 28 31  1  0  0  0  0
M  END
$$$$

  -OEChem-03222214063D

 31 30  0     1  0  0  0  0  0999 V2000
   -3.4206   -3.8773    1.1881 H   0  0  0  0  0  0  0  0  0  0  0  0
   -3.3463   -2.9061    0.6910 C   0  0  0  0  0  0  0  0  0  0  0  0
   -4.0461   -2.2134    1.1647 H   0  0  0  0  0  0  0  0  0  0  0  0
   -3.6189   -3.0266   -0.3602 H   0  0  0  0  0  0  0  0  0  0  0  0
   -1.9313   -2.3699    0.8000 C   0  0  0  0  0  0  0  0  0  0  0  0
   -1.0735   -3.0218    1.3745 O   0  0  0  0  0  0  0  0  0  0  0  0
   -1.6208   -1.1431    0.2522 N   0  0  0  0  0  0  0  0  0  0  0  0
   -2.3869   -0.5902   -0.1301 H   0  0  0  0  0  0  0  0  0  0  0  0
   -0.3228   -0.4685    0.3915 C   0  0  1  0  0  0  0  0  0  0  0  0
    0.2620   -0.9115    1.2037 H   0  0  0  0  0  0  0  0  0  0  0  0
    0.4127   -0.6536   -0.9545 C   0  0  0  0  0  0  0  0  0  0  0  0
    0.5117   -1.7322   -1.1180 H   0  0  0  0  0  0  0  0  0  0  0  0
   -0.2218   -0.2680   -1.7598 H   0  0  0  0  0  0  0  0  0  0  0  0
    1.8278   -0.0388   -1.0942 C   0  0  0  0  0  0  0  0  0  0  0  0
    2.3336   -0.6274   -1.8676 H   0  0  0  0  0  0  0  0  0  0  0  0
    1.7851    1.4015   -1.6213 C   0  0  0  0  0  0  0  0  0  0  0  0
    1.3355    2.0787   -0.8905 H   0  0  0  0  0  0  0  0  0  0  0  0
    2.7989    1.7539   -1.8345 H   0  0  0  0  0  0  0  0  0  0  0  0
    1.2037    1.4543   -2.5470 H   0  0  0  0  0  0  0  0  0  0  0  0
    2.6904   -0.1474    0.1698 C   0  0  0  0  0  0  0  0  0  0  0  0
    2.6772   -1.1730    0.5523 H   0  0  0  0  0  0  0  0  0  0  0  0
    3.7268    0.1169   -0.0624 H   0  0  0  0  0  0  0  0  0  0  0  0
    2.3405    0.5248    0.9548 H   0  0  0  0  0  0  0  0  0  0  0  0
   -0.5879    1.0149    0.7293 C   0  0  0  0  0  0  0  0  0  0  0  0
   -1.4728    1.6246    0.1372 O   0  0  0  0  0  0  0  0  0  0  0  0
    0.1209    1.6608    1.7256 N   0  0  0  0  0  0  0  0  0  0  0  0
    0.8204    1.1226    2.2287 H   0  0  0  0  0  0  0  0  0  0  0  0
   -0.1062    3.0507    2.1005 C   0  0  0  0  0  0  0  0  0  0  0  0
   -1.1387    3.1937    2.4363 H   0  0  0  0  0  0  0  0  0  0  0  0
    0.5648    3.3369    2.9160 H   0  0  0  0  0  0  0  0  0  0  0  0
    0.0829    3.7123    1.2487 H   0  0  0  0  0  0  0  0  0  0  0  0
  1  2  1  0  0  0  0
  2  3  1  0  0  0  0
  2  4  1  0  0  0  0
  2  5  1  0  0  0  0
  5  6  2  0  0  0  0
  5  7  1  0  0  0  0
  7  8  1  0  0  0  0
  7  9  1  0  0  0  0
  9 10  1  0  0  0  0
  9 11  1  0  0  0  0
  9 24  1  0  0  0  0
 11 12  1  0  0  0  0
 11 13  1  0  0  0  0
 11 14  1  0  0  0  0
 14 15  1  0  0  0  0
 14 16  1  0  0  0  0
 14 20  1  0  0  0  0
 16 17  1  0  0  0  0
 16 18  1  0  0  0  0
 16 19  1  0  0  0  0
 20 21  1  0  0  0  0
 20 22  1  0  0  0  0
 20 23  1  0  0  0  0
 24 25  2  0  0  0  0
 24 26  1  0  0  0  0
 26 27  1  0  0  0  0
 26 28  1  0  0  0  0
 28 29  1  0  0  0  0
 28 30  1  0  0  0  0
 28 31  1  0  0  0  0
M  END
$$$$

  -OEChem-03222214063D

 31 30  0     1  0  0  0  0  0999 V2000
   -3.4039   -3.8870    1.1717 H   0  0  0  0  0  0  0  0  0  0  0  0
   -3.3379   -2.9125    0.6798 C   0  0  0  0  0  0  0  0  0  0  0  0
   -4.0406   -2.2273    1.1601 H   0  0  0  0  0  0  0  0  0  0  0  0
   -3.6132   -3.0286   -0.3711 H   0  0  0  0  0  0  0  0  0  0  0  0
   -1.9266   -2.3670    0.7874 C   0  0  0  0  0  0  0  0  0  0  0  0
   -1.0628   -3.0160    1.3561 O   0  0  0  0  0  0  0  0  0  0  0  0
   -1.6267   -1.1341    0.2472 N   0  0  0  0  0  0  0  0  0  0  0  0
   -2.3975   -0.5855   -0.1317 H   0  0  0  0  0  0  0  0  0  0  0  0
   -0.3331   -0.4514    0.3880 C   0  0  1  0  0  0  0  0  0  0  0  0
    0.2438   -0.8924    1.2065 H   0  0  0  0  0  0  0  0  0  0  0  0
    0.4184   -0.6689   -0.9459 C   0  0  0  0  0  0  0  0  0  0  0  0
    0.5130   -1.7503   -1.0930 H   0  0  0  0  0  0  0  0  0  0  0  0
   -0.2072   -0.2905   -1.7614 H   0  0  0  0  0  0  0  0  0  0  0  0
    1.8330   -0.0587   -1.1008 C   0  0  0  0  0  0  0  0  0  0  0  0
    2.2611   -0.5064   -2.0044 H   0  0  0  0  0  0  0  0  0  0  0  0
    1.8307    1.4610   -1.3207 C   0  0  0  0  0  0  0  0  0  0  0  0
    1.6437    2.0061   -0.3940 H   0  0  0  0  0  0  0  0  0  0  0  0
    2.8046    1.7814   -1.7035 H   0  0  0  0  0  0  0  0  0  0  0  0
    1.0670    1.7424   -2.0525 H   0  0  0  0  0  0  0  0  0  0  0  0
    2.7488   -0.4203    0.0752 C   0  0  0  0  0  0  0  0  0  0  0  0
    2.7476   -1.5026    0.2388 H   0  0  0  0  0  0  0  0  0  0  0  0
    3.7756   -0.1066   -0.1374 H   0  0  0  0  0  0  0  0  0  0  0  0
    2.4249    0.0724    0.9960 H   0  0  0  0  0  0  0  0  0  0  0  0
   -0.5920    1.0280    0.7367 C   0  0  0  0  0  0  0  0  0  0  0  0
   -1.4777    1.6476    0.1572 O   0  0  0  0  0  0  0  0  0  0  0  0
    0.1306    1.6528    1.7370 N   0  0  0  0  0  0  0  0  0  0  0  0
    0.8304    1.1016    2.2255 H   0  0  0  0  0  0  0  0  0  0  0  0
   -0.0878    3.0362    2.1403 C   0  0  0  0  0  0  0  0  0  0  0  0
   -1.1134    3.1739    2.4987 H   0  0  0  0  0  0  0  0  0  0  0  0
    0.5997    3.3076    2.9471 H   0  0  0  0  0  0  0  0  0  0  0  0
    0.0852    3.7124    1.2965 H   0  0  0  0  0  0  0  0  0  0  0  0
  1  2  1  0  0  0  0
  2  3  1  0  0  0  0
  2  4  1  0  0  0  0
  2  5  1  0  0  0  0
  5  6  2  0  0  0  0
  5  7  1  0  0  0  0
  7  8  1  0  0  0  0
  7  9  1  0  0  0  0
  9 10  1  0  0  0  0
  9 11  1  0  0  0  0
  9 24  1  0  0  0  0
 11 12  1  0  0  0  0
 11 13  1  0  0  0  0
 11 14  1  0  0  0  0
 14 15  1  0  0  0  0
 14 16  1  0  0  0  0
 14 20  1  0  0  0  0
 16 17  1  0  0  0  0
 16 18  1  0  0  0  0
 16 19  1  0  0  0  0
 20 21  1  0  0  0  0
 20 22  1  0  0  0  0
 20 23  1  0  0  0  0
 24 25  2  0  0  0  0
 24 26  1  0  0  0  0
 26 27  1  0  0  0  0
 26 28  1  0  0  0  0
 28 29  1  0  0  0  0
 28 30  1  0  0  0  0
 28 31  1  0  0  0  0
M  END
$$$$

  -OEChem-03222214063D

 31 30  0     1  0  0  0  0  0999 V2000
   -3.3915   -3.8845    1.1589 H   0  0  0  0  0  0  0  0  0  0  0  0
   -3.3255   -2.9079    0.6714 C   0  0  0  0  0  0  0  0  0  0  0  0
   -4.0307   -2.2254    1.1517 H   0  0  0  0  0  0  0  0  0  0  0  0
   -3.5967   -3.0206   -0.3811 H   0  0  0  0  0  0  0  0  0  0  0  0
   -1.9155   -2.3604    0.7870 C   0  0  0  0  0  0  0  0  0  0  0  0
   -1.0520   -3.0116    1.3539 O   0  0  0  0  0  0  0  0  0  0  0  0
   -1.6154   -1.1239    0.2550 N   0  0  0  0  0  0  0  0  0  0  0  0
   -2.3860   -0.5724   -0.1202 H   0  0  0  0  0  0  0  0  0  0  0  0
   -0.3225   -0.4411    0.4061 C   0  0  1  0  0  0  0  0  0  0  0  0
    0.2564   -0.8809    1.2238 H   0  0  0  0  0  0  0  0  0  0  0  0
    0.4233   -0.6703   -0.9316 C   0  0  0  0  0  0  0  0  0  0  0  0
    0.4919   -1.7515   -1.0937 H   0  0  0  0  0  0  0  0  0  0  0  0
   -0.2045   -0.2683   -1.7344 H   0  0  0  0  0  0  0  0  0  0  0  0
    1.8423   -0.0794   -1.1206 C   0  0  0  0  0  0  0  0  0  0  0  0
    2.1573   -0.3468   -2.1351 H   0  0  0  0  0  0  0  0  0  0  0  0
    1.9375    1.4475   -1.0049 C   0  0  0  0  0  0  0  0  0  0  0  0
    1.9762    1.7719    0.0361 H   0  0  0  0  0  0  0  0  0  0  0  0
    2.8526    1.7981   -1.4922 H   0  0  0  0  0  0  0  0  0  0  0  0
    1.0847    1.9252   -1.4976 H   0  0  0  0  0  0  0  0  0  0  0  0
    2.8250   -0.7224   -0.1337 C   0  0  0  0  0  0  0  0  0  0  0  0
    2.7988   -1.8129   -0.2251 H   0  0  0  0  0  0  0  0  0  0  0  0
    3.8454   -0.3858   -0.3420 H   0  0  0  0  0  0  0  0  0  0  0  0
    2.5776   -0.4547    0.8978 H   0  0  0  0  0  0  0  0  0  0  0  0
   -0.6033    1.0336    0.7622 C   0  0  0  0  0  0  0  0  0  0  0  0
   -1.4878    1.6478    0.1748 O   0  0  0  0  0  0  0  0  0  0  0  0
    0.1021    1.6626    1.7722 N   0  0  0  0  0  0  0  0  0  0  0  0
    0.8025    1.1170    2.2660 H   0  0  0  0  0  0  0  0  0  0  0  0
   -0.1288    3.0447    2.1730 C   0  0  0  0  0  0  0  0  0  0  0  0
   -1.1607    3.1779    2.5143 H   0  0  0  0  0  0  0  0  0  0  0  0
    0.5438    3.3179    2.9917 H   0  0  0  0  0  0  0  0  0  0  0  0
    0.0558    3.7224    1.3328 H   0  0  0  0  0  0  0  0  0  0  0  0
  1  2  1  0  0  0  0
  2  3  1  0  0  0  0
  2  4  1  0  0  0  0
  2  5  1  0  0  0  0
  5  6  2  0  0  0  0
  5  7  1  0  0  0  0
  7  8  1  0  0  0  0
  7  9  1  0  0  0  0
  9 10  1  0  0  0  0
  9 11  1  0  0  0  0
  9 24  1  0  0  0  0
 11 12  1  0  0  0  0
 11 13  1  0  0  0  0
 11 14  1  0  0  0  0
 14 15  1  0  0  0  0
 14 16  1  0  0  0  0
 14 20  1  0  0  0  0
 16 17  1  0  0  0  0
 16 18  1  0  0  0  0
 16 19  1  0  0  0  0
 20 21  1  0  0  0  0
 20 22  1  0  0  0  0
 20 23  1  0  0  0  0
 24 25  2  0  0  0  0
 24 26  1  0  0  0  0
 26 27  1  0  0  0  0
 26 28  1  0  0  0  0
 28 29  1  0  0  0  0
 28 30  1  0  0  0  0
 28 31  1  0  0  0  0
M  END
$$$$

  -OEChem-03222214063D

 31 30  0     1  0  0  0  0  0999 V2000
   -3.3911   -3.8760    1.1534 H   0  0  0  0  0  0  0  0  0  0  0  0
   -3.3198   -2.8982    0.6687 C   0  0  0  0  0  0  0  0  0  0  0  0
   -4.0271   -2.2159    1.1464 H   0  0  0  0  0  0  0  0  0  0  0  0
   -3.5850   -3.0078   -0.3857 H   0  0  0  0  0  0  0  0  0  0  0  0
   -1.9091   -2.3540    0.7935 C   0  0  0  0  0  0  0  0  0  0  0  0
   -1.0498   -3.0094    1.3619 O   0  0  0  0  0  0  0  0  0  0  0  0
   -1.6028   -1.1170    0.2669 N   0  0  0  0  0  0  0  0  0  0  0  0
   -2.3706   -0.5601   -0.1067 H   0  0  0  0  0  0  0  0  0  0  0  0
   -0.3075   -0.4392    0.4252 C   0  0  1  0  0  0  0  0  0  0  0  0
    0.2762   -0.8788    1.2401 H   0  0  0  0  0  0  0  0  0  0  0  0
    0.4294   -0.6661   -0.9199 C   0  0  0  0  0  0  0  0  0  0  0  0
    0.4675   -1.7448   -1.1069 H   0  0  0  0  0  0  0  0  0  0  0  0
   -0.2022   -0.2341   -1.7038 H   0  0  0  0  0  0  0  0  0  0  0  0
    1.8546   -0.0929   -1.1373 C   0  0  0  0  0  0  0  0  0  0  0  0
    2.0568   -0.1428   -2.2129 H   0  0  0  0  0  0  0  0  0  0  0  0
    2.0881    1.3544   -0.6917 C   0  0  0  0  0  0  0  0  0  0  0  0
    2.1850    1.4253    0.3936 H   0  0  0  0  0  0  0  0  0  0  0  0
    3.0169    1.7312   -1.1311 H   0  0  0  0  0  0  0  0  0  0  0  0
    1.2705    1.9990   -1.0288 H   0  0  0  0  0  0  0  0  0  0  0  0
    2.8750   -0.9859   -0.4187 C   0  0  0  0  0  0  0  0  0  0  0  0
    2.8056   -2.0163   -0.7813 H   0  0  0  0  0  0  0  0  0  0  0  0
    3.8927   -0.6281   -0.6043 H   0  0  0  0  0  0  0  0  0  0  0  0
    2.6990   -0.9864    0.6616 H   0  0  0  0  0  0  0  0  0  0  0  0
   -0.6121    1.0322    0.7846 C   0  0  0  0  0  0  0  0  0  0  0  0
   -1.4976    1.6367    0.1881 O   0  0  0  0  0  0  0  0  0  0  0  0
    0.0724    1.6732    1.8015 N   0  0  0  0  0  0  0  0  0  0  0  0
    0.7819    1.1411    2.2972 H   0  0  0  0  0  0  0  0  0  0  0  0
   -0.1766    3.0549    2.1930 C   0  0  0  0  0  0  0  0  0  0  0  0
   -1.2173    3.1830    2.5085 H   0  0  0  0  0  0  0  0  0  0  0  0
    0.4739    3.3339    3.0275 H   0  0  0  0  0  0  0  0  0  0  0  0
    0.0247    3.7319    1.3561 H   0  0  0  0  0  0  0  0  0  0  0  0
  1  2  1  0  0  0  0
  2  3  1  0  0  0  0
  2  4  1  0  0  0  0
  2  5  1  0  0  0  0
  5  6  2  0  0  0  0
  5  7  1  0  0  0  0
  7  8  1  0  0  0  0
  7  9  1  0  0  0  0
  9 10  1  0  0  0  0
  9 11  1  0  0  0  0
  9 24  1  0  0  0  0
 11 12  1  0  0  0  0
 11 13  1  0  0  0  0
 11 14  1  0  0  0  0
 14 15  1  0  0  0  0
 14 16  1  0  0  0  0
 14 20  1  0  0  0  0
 16 17  1  0  0  0  0
 16 18  1  0  0  0  0
 16 19  1  0  0  0  0
 20 21  1  0  0  0  0
 20 22  1  0  0  0  0
 20 23  1  0  0  0  0
 24 25  2  0  0  0  0
 24 26  1  0  0  0  0
 26 27  1  0  0  0  0
 26 28  1  0  0  0  0
 28 29  1  0  0  0  0
 28 30  1  0  0  0  0
 28 31  1  0  0  0  0
M  END
$$$$

  -OEChem-03222214063D

 31 30  0     1  0  0  0  0  0999 V2000
   -3.3903   -3.8717    1.1472 H   0  0  0  0  0  0  0  0  0  0  0  0
   -3.3139   -2.8941    0.6629 C   0  0  0  0  0  0  0  0  0  0  0  0
   -4.0238   -2.2105    1.1348 H   0  0  0  0  0  0  0  0  0  0  0  0
   -3.5703   -3.0032   -0.3937 H   0  0  0  0  0  0  0  0  0  0  0  0
   -1.9037   -2.3520    0.7995 C   0  0  0  0  0  0  0  0  0  0  0  0
   -1.0504   -3.0066    1.3776 O   0  0  0  0  0  0  0  0  0  0  0  0
   -1.5915   -1.1157    0.2743 N   0  0  0  0  0  0  0  0  0  0  0  0
   -2.3544   -0.5591   -0.1097 H   0  0  0  0  0  0  0  0  0  0  0  0
   -0.2949   -0.4419    0.4380 C   0  0  1  0  0  0  0  0  0  0  0  0
    0.2926   -0.8831    1.2495 H   0  0  0  0  0  0  0  0  0  0  0  0
    0.4347   -0.6620   -0.9128 C   0  0  0  0  0  0  0  0  0  0  0  0
    0.4510   -1.7382   -1.1174 H   0  0  0  0  0  0  0  0  0  0  0  0
   -0.1992   -0.2110   -1.6843 H   0  0  0  0  0  0  0  0  0  0  0  0
    1.8646   -0.0963   -1.1427 C   0  0  0  0  0  0  0  0  0  0  0  0
    1.9712    0.0966   -2.2158 H   0  0  0  0  0  0  0  0  0  0  0  0
    2.2399    1.1882   -0.3985 C   0  0  0  0  0  0  0  0  0  0  0  0
    2.2975    1.0147    0.6789 H   0  0  0  0  0  0  0  0  0  0  0  0
    3.2207    1.5404   -0.7331 H   0  0  0  0  0  0  0  0  0  0  0  0
    1.5147    1.9802   -0.6075 H   0  0  0  0  0  0  0  0  0  0  0  0
    2.8892   -1.1704   -0.7498 C   0  0  0  0  0  0  0  0  0  0  0  0
    2.7422   -2.0778   -1.3440 H   0  0  0  0  0  0  0  0  0  0  0  0
    3.9084   -0.8124   -0.9267 H   0  0  0  0  0  0  0  0  0  0  0  0
    2.7904   -1.4297    0.3093 H   0  0  0  0  0  0  0  0  0  0  0  0
   -0.6113    1.0290    0.7964 C   0  0  0  0  0  0  0  0  0  0  0  0
   -1.4905    1.6303    0.1871 O   0  0  0  0  0  0  0  0  0  0  0  0
    0.0597    1.6786    1.8171 N   0  0  0  0  0  0  0  0  0  0  0  0
    0.7616    1.1503    2.3276 H   0  0  0  0  0  0  0  0  0  0  0  0
   -0.2014    3.0604    2.2008 C   0  0  0  0  0  0  0  0  0  0  0  0
   -1.2446    3.1824    2.5106 H   0  0  0  0  0  0  0  0  0  0  0  0
    0.4431    3.3482    3.0370 H   0  0  0  0  0  0  0  0  0  0  0  0
   -0.0009    3.7348    1.3617 H   0  0  0  0  0  0  0  0  0  0  0  0
  1  2  1  0  0  0  0
  2  3  1  0  0  0  0
  2  4  1  0  0  0  0
  2  5  1  0  0  0  0
  5  6  2  0  0  0  0
  5  7  1  0  0  0  0
  7  8  1  0  0  0  0
  7  9  1  0  0  0  0
  9 10  1  0  0  0  0
  9 11  1  0  0  0  0
  9 24  1  0  0  0  0
 11 12  1  0  0  0  0
 11 13  1  0  0  0  0
 11 14  1  0  0  0  0
 14 15  1  0  0  0  0
 14 16  1  0  0  0  0
 14 20  1  0  0  0  0
 16 17  1  0  0  0  0
 16 18  1  0  0  0  0
 16 19  1  0  0  0  0
 20 21  1  0  0  0  0
 20 22  1  0  0  0  0
 20 23  1  0  0  0  0
 24 25  2  0  0  0  0
 24 26  1  0  0  0  0
 26 27  1  0  0  0  0
 26 28  1  0  0  0  0
 28 29  1  0  0  0  0
 28 30  1  0  0  0  0
 28 31  1  0  0  0  0
M  END
$$$$

  -OEChem-03222214063D

 31 30  0     1  0  0  0  0  0999 V2000
   -3.3929   -3.8709    1.1409 H   0  0  0  0  0  0  0  0  0  0  0  0
   -3.3133   -2.8932    0.6574 C   0  0  0  0  0  0  0  0  0  0  0  0
   -4.0256   -2.2094    1.1253 H   0  0  0  0  0  0  0  0  0  0  0  0
   -3.5636   -3.0016   -0.4007 H   0  0  0  0  0  0  0  0  0  0  0  0
   -1.9037   -2.3518    0.8022 C   0  0  0  0  0  0  0  0  0  0  0  0
   -1.0552   -3.0055    1.3882 O   0  0  0  0  0  0  0  0  0  0  0  0
   -1.5864   -1.1182    0.2742 N   0  0  0  0  0  0  0  0  0  0  0  0
   -2.3457   -0.5621   -0.1174 H   0  0  0  0  0  0  0  0  0  0  0  0
   -0.2892   -0.4462    0.4422 C   0  0  1  0  0  0  0  0  0  0  0  0
    0.2945   -0.8889    1.2558 H   0  0  0  0  0  0  0  0  0  0  0  0
    0.4431   -0.6627   -0.9071 C   0  0  0  0  0  0  0  0  0  0  0  0
    0.4544   -1.7399   -1.1064 H   0  0  0  0  0  0  0  0  0  0  0  0
   -0.1898   -0.2143   -1.6811 H   0  0  0  0  0  0  0  0  0  0  0  0
    1.8770   -0.0968   -1.1339 C   0  0  0  0  0  0  0  0  0  0  0  0
    1.9033    0.3497   -2.1340 H   0  0  0  0  0  0  0  0  0  0  0  0
    2.3807    0.9568   -0.1428 C   0  0  0  0  0  0  0  0  0  0  0  0
    2.3576    0.5746    0.8818 H   0  0  0  0  0  0  0  0  0  0  0  0
    3.4135    1.2333   -0.3772 H   0  0  0  0  0  0  0  0  0  0  0  0
    1.7772    1.8657   -0.2140 H   0  0  0  0  0  0  0  0  0  0  0  0
    2.8786   -1.2614   -1.1156 C   0  0  0  0  0  0  0  0  0  0  0  0
    2.6255   -1.9981   -1.8846 H   0  0  0  0  0  0  0  0  0  0  0  0
    3.8927   -0.9016   -1.3159 H   0  0  0  0  0  0  0  0  0  0  0  0
    2.8721   -1.7595   -0.1405 H   0  0  0  0  0  0  0  0  0  0  0  0
   -0.6020    1.0274    0.7937 C   0  0  0  0  0  0  0  0  0  0  0  0
   -1.4777    1.6281    0.1790 O   0  0  0  0  0  0  0  0  0  0  0  0
    0.0656    1.6797    1.8151 N   0  0  0  0  0  0  0  0  0  0  0  0
    0.7621    1.1516    2.3329 H   0  0  0  0  0  0  0  0  0  0  0  0
   -0.2048    3.0590    2.2004 C   0  0  0  0  0  0  0  0  0  0  0  0
   -1.2492    3.1728    2.5092 H   0  0  0  0  0  0  0  0  0  0  0  0
    0.4366    3.3503    3.0376 H   0  0  0  0  0  0  0  0  0  0  0  0
   -0.0084    3.7358    1.3624 H   0  0  0  0  0  0  0  0  0  0  0  0
  1  2  1  0  0  0  0
  2  3  1  0  0  0  0
  2  4  1  0  0  0  0
  2  5  1  0  0  0  0
  5  6  2  0  0  0  0
  5  7  1  0  0  0  0
  7  8  1  0  0  0  0
  7  9  1  0  0  0  0
  9 10  1  0  0  0  0
  9 11  1  0  0  0  0
  9 24  1  0  0  0  0
 11 12  1  0  0  0  0
 11 13  1  0  0  0  0
 11 14  1  0  0  0  0
 14 15  1  0  0  0  0
 14 16  1  0  0  0  0
 14 20  1  0  0  0  0
 16 17  1  0  0  0  0
 16 18  1  0  0  0  0
 16 19  1  0  0  0  0
 20 21  1  0  0  0  0
 20 22  1  0  0  0  0
 20 23  1  0  0  0  0
 24 25  2  0  0  0  0
 24 26  1  0  0  0  0
 26 27  1  0  0  0  0
 26 28  1  0  0  0  0
 28 29  1  0  0  0  0
 28 30  1  0  0  0  0
 28 31  1  0  0  0  0
M  END
$$$$

  -OEChem-03222214063D

 31 30  0     1  0  0  0  0  0999 V2000
   -3.4040   -3.8750    1.1286 H   0  0  0  0  0  0  0  0  0  0  0  0
   -3.3192   -2.8978    0.6451 C   0  0  0  0  0  0  0  0  0  0  0  0
   -4.0364   -2.2138    1.1051 H   0  0  0  0  0  0  0  0  0  0  0  0
   -3.5588   -3.0077   -0.4153 H   0  0  0  0  0  0  0  0  0  0  0  0
   -1.9112   -2.3563    0.8034 C   0  0  0  0  0  0  0  0  0  0  0  0
   -1.0697   -3.0079    1.4016 O   0  0  0  0  0  0  0  0  0  0  0  0
   -1.5871   -1.1261    0.2714 N   0  0  0  0  0  0  0  0  0  0  0  0
   -2.3418   -0.5723   -0.1319 H   0  0  0  0  0  0  0  0  0  0  0  0
   -0.2906   -0.4549    0.4459 C   0  0  1  0  0  0  0  0  0  0  0  0
    0.2844   -0.8994    1.2646 H   0  0  0  0  0  0  0  0  0  0  0  0
    0.4490   -0.6676   -0.8985 C   0  0  0  0  0  0  0  0  0  0  0  0
    0.4749   -1.7489   -1.0731 H   0  0  0  0  0  0  0  0  0  0  0  0
   -0.1799   -0.2431   -1.6891 H   0  0  0  0  0  0  0  0  0  0  0  0
    1.8840   -0.0974   -1.1107 C   0  0  0  0  0  0  0  0  0  0  0  0
    1.8410    0.5941   -1.9595 H   0  0  0  0  0  0  0  0  0  0  0  0
    2.5124    0.6692    0.0596 C   0  0  0  0  0  0  0  0  0  0  0  0
    2.4248    0.1071    0.9939 H   0  0  0  0  0  0  0  0  0  0  0  0
    3.5756    0.8481   -0.1296 H   0  0  0  0  0  0  0  0  0  0  0  0
    2.0395    1.6473    0.1691 H   0  0  0  0  0  0  0  0  0  0  0  0
    2.8300   -1.2442   -1.4965 C   0  0  0  0  0  0  0  0  0  0  0  0
    2.4545   -1.7684   -2.3811 H   0  0  0  0  0  0  0  0  0  0  0  0
    3.8278   -0.8597   -1.7302 H   0  0  0  0  0  0  0  0  0  0  0  0
    2.9176   -1.9631   -0.6752 H   0  0  0  0  0  0  0  0  0  0  0  0
   -0.5899    1.0229    0.7873 C   0  0  0  0  0  0  0  0  0  0  0  0
   -1.4556    1.6289    0.1637 O   0  0  0  0  0  0  0  0  0  0  0  0
    0.0789    1.6727    1.8092 N   0  0  0  0  0  0  0  0  0  0  0  0
    0.7679    1.1396    2.3321 H   0  0  0  0  0  0  0  0  0  0  0  0
   -0.1761    3.0578    2.1847 C   0  0  0  0  0  0  0  0  0  0  0  0
   -1.2212    3.1881    2.4849 H   0  0  0  0  0  0  0  0  0  0  0  0
    0.4630    3.3453    3.0251 H   0  0  0  0  0  0  0  0  0  0  0  0
    0.0360    3.7270    1.3442 H   0  0  0  0  0  0  0  0  0  0  0  0
  1  2  1  0  0  0  0
  2  3  1  0  0  0  0
  2  4  1  0  0  0  0
  2  5  1  0  0  0  0
  5  6  2  0  0  0  0
  5  7  1  0  0  0  0
  7  8  1  0  0  0  0
  7  9  1  0  0  0  0
  9 10  1  0  0  0  0
  9 11  1  0  0  0  0
  9 24  1  0  0  0  0
 11 12  1  0  0  0  0
 11 13  1  0  0  0  0
 11 14  1  0  0  0  0
 14 15  1  0  0  0  0
 14 16  1  0  0  0  0
 14 20  1  0  0  0  0
 16 17  1  0  0  0  0
 16 18  1  0  0  0  0
 16 19  1  0  0  0  0
 20 21  1  0  0  0  0
 20 22  1  0  0  0  0
 20 23  1  0  0  0  0
 24 25  2  0  0  0  0
 24 26  1  0  0  0  0
 26 27  1  0  0  0  0
 26 28  1  0  0  0  0
 28 29  1  0  0  0  0
 28 30  1  0  0  0  0
 28 31  1  0  0  0  0
M  END
$$$$

  -OEChem-03222214063D

 31 30  0     1  0  0  0  0  0999 V2000
   -3.4264   -3.8682    1.1248 H   0  0  0  0  0  0  0  0  0  0  0  0
   -3.3326   -2.8932    0.6385 C   0  0  0  0  0  0  0  0  0  0  0  0
   -4.0482   -2.2032    1.0921 H   0  0  0  0  0  0  0  0  0  0  0  0
   -3.5671   -3.0053   -0.4228 H   0  0  0  0  0  0  0  0  0  0  0  0
   -1.9215   -2.3605    0.8033 C   0  0  0  0  0  0  0  0  0  0  0  0
   -1.0886   -3.0161    1.4093 O   0  0  0  0  0  0  0  0  0  0  0  0
   -1.5841   -1.1359    0.2663 N   0  0  0  0  0  0  0  0  0  0  0  0
   -2.3327   -0.5769   -0.1413 H   0  0  0  0  0  0  0  0  0  0  0  0
   -0.2838   -0.4733    0.4457 C   0  0  1  0  0  0  0  0  0  0  0  0
    0.2852   -0.9214    1.2662 H   0  0  0  0  0  0  0  0  0  0  0  0
    0.4554   -0.6726   -0.8983 C   0  0  0  0  0  0  0  0  0  0  0  0
    0.4983   -1.7552   -1.0621 H   0  0  0  0  0  0  0  0  0  0  0  0
   -0.1690   -0.2588   -1.6979 H   0  0  0  0  0  0  0  0  0  0  0  0
    1.8896   -0.1006   -1.0853 C   0  0  0  0  0  0  0  0  0  0  0  0
    1.8022    0.7992   -1.7043 H   0  0  0  0  0  0  0  0  0  0  0  0
    2.6334    0.3191    0.1906 C   0  0  0  0  0  0  0  0  0  0  0  0
    2.5488   -0.4490    0.9651 H   0  0  0  0  0  0  0  0  0  0  0  0
    3.6963    0.4695   -0.0228 H   0  0  0  0  0  0  0  0  0  0  0  0
    2.2498    1.2664    0.5693 H   0  0  0  0  0  0  0  0  0  0  0  0
    2.7445   -1.1141   -1.8587 C   0  0  0  0  0  0  0  0  0  0  0  0
    2.2525   -1.3908   -2.7966 H   0  0  0  0  0  0  0  0  0  0  0  0
    3.7224   -0.6865   -2.1011 H   0  0  0  0  0  0  0  0  0  0  0  0
    2.8996   -2.0209   -1.2650 H   0  0  0  0  0  0  0  0  0  0  0  0
   -0.5678    1.0101    0.7763 C   0  0  0  0  0  0  0  0  0  0  0  0
   -1.4219    1.6204    0.1410 O   0  0  0  0  0  0  0  0  0  0  0  0
    0.0993    1.6634    1.7965 N   0  0  0  0  0  0  0  0  0  0  0  0
    0.7762    1.1282    2.3328 H   0  0  0  0  0  0  0  0  0  0  0  0
   -0.1362    3.0586    2.1475 C   0  0  0  0  0  0  0  0  0  0  0  0
   -1.1800    3.2099    2.4426 H   0  0  0  0  0  0  0  0  0  0  0  0
    0.5050    3.3510    2.9845 H   0  0  0  0  0  0  0  0  0  0  0  0
    0.0880    3.7099    1.2962 H   0  0  0  0  0  0  0  0  0  0  0  0
  1  2  1  0  0  0  0
  2  3  1  0  0  0  0
  2  4  1  0  0  0  0
  2  5  1  0  0  0  0
  5  6  2  0  0  0  0
  5  7  1  0  0  0  0
  7  8  1  0  0  0  0
  7  9  1  0  0  0  0
  9 10  1  0  0  0  0
  9 11  1  0  0  0  0
  9 24  1  0  0  0  0
 11 12  1  0  0  0  0
 11 13  1  0  0  0  0
 11 14  1  0  0  0  0
 14 15  1  0  0  0  0
 14 16  1  0  0  0  0
 14 20  1  0  0  0  0
 16 17  1  0  0  0  0
 16 18  1  0  0  0  0
 16 19  1  0  0  0  0
 20 21  1  0  0  0  0
 20 22  1  0  0  0  0
 20 23  1  0  0  0  0
 24 25  2  0  0  0  0
 24 26  1  0  0  0  0
 26 27  1  0  0  0  0
 26 28  1  0  0  0  0
 28 29  1  0  0  0  0
 28 30  1  0  0  0  0
 28 31  1  0  0  0  0
M  END
$$$$

  -OEChem-03222214063D

 31 30  0     1  0  0  0  0  0999 V2000
   -3.4481   -3.8476    1.1604 H   0  0  0  0  0  0  0  0  0  0  0  0
   -3.3467   -2.8780    0.6649 C   0  0  0  0  0  0  0  0  0  0  0  0
   -4.0490   -2.1751    1.1194 H   0  0  0  0  0  0  0  0  0  0  0  0
   -3.5923   -2.9958   -0.3932 H   0  0  0  0  0  0  0  0  0  0  0  0
   -1.9277   -2.3615    0.8117 C   0  0  0  0  0  0  0  0  0  0  0  0
   -1.0973   -3.0200    1.4180 O   0  0  0  0  0  0  0  0  0  0  0  0
   -1.5821   -1.1455    0.2608 N   0  0  0  0  0  0  0  0  0  0  0  0
   -2.3276   -0.5841   -0.1488 H   0  0  0  0  0  0  0  0  0  0  0  0
   -0.2738   -0.4954    0.4219 C   0  0  1  0  0  0  0  0  0  0  0  0
    0.3004   -0.9468    1.2371 H   0  0  0  0  0  0  0  0  0  0  0  0
    0.4542   -0.6797   -0.9275 C   0  0  0  0  0  0  0  0  0  0  0  0
    0.5101   -1.7597   -1.1034 H   0  0  0  0  0  0  0  0  0  0  0  0
   -0.1665   -0.2573   -1.7255 H   0  0  0  0  0  0  0  0  0  0  0  0
    1.8835   -0.0986   -1.0755 C   0  0  0  0  0  0  0  0  0  0  0  0
    1.7825    0.9364   -1.4204 H   0  0  0  0  0  0  0  0  0  0  0  0
    2.7096   -0.0556    0.2187 C   0  0  0  0  0  0  0  0  0  0  0  0
    2.7116   -1.0370    0.7036 H   0  0  0  0  0  0  0  0  0  0  0  0
    3.7454    0.2186   -0.0048 H   0  0  0  0  0  0  0  0  0  0  0  0
    2.3235    0.6839    0.9182 H   0  0  0  0  0  0  0  0  0  0  0  0
    2.6460   -0.8816   -2.1513 C   0  0  0  0  0  0  0  0  0  0  0  0
    2.0803   -0.8903   -3.0882 H   0  0  0  0  0  0  0  0  0  0  0  0
    3.6191   -0.4190   -2.3436 H   0  0  0  0  0  0  0  0  0  0  0  0
    2.8104   -1.9164   -1.8336 H   0  0  0  0  0  0  0  0  0  0  0  0
   -0.5328    0.9955    0.7424 C   0  0  0  0  0  0  0  0  0  0  0  0
   -1.3887    1.6093    0.1129 O   0  0  0  0  0  0  0  0  0  0  0  0
    0.1524    1.6525    1.7480 N   0  0  0  0  0  0  0  0  0  0  0  0
    0.8186    1.1118    2.2922 H   0  0  0  0  0  0  0  0  0  0  0  0
   -0.0835    3.0464    2.1037 C   0  0  0  0  0  0  0  0  0  0  0  0
   -1.1236    3.1922    2.4134 H   0  0  0  0  0  0  0  0  0  0  0  0
    0.5679    3.3410    2.9320 H   0  0  0  0  0  0  0  0  0  0  0  0
    0.1257    3.7000    1.2502 H   0  0  0  0  0  0  0  0  0  0  0  0
  1  2  1  0  0  0  0
  2  3  1  0  0  0  0
  2  4  1  0  0  0  0
  2  5  1  0  0  0  0
  5  6  2  0  0  0  0
  5  7  1  0  0  0  0
  7  8  1  0  0  0  0
  7  9  1  0  0  0  0
  9 10  1  0  0  0  0
  9 11  1  0  0  0  0
  9 24  1  0  0  0  0
 11 12  1  0  0  0  0
 11 13  1  0  0  0  0
 11 14  1  0  0  0  0
 14 15  1  0  0  0  0
 14 16  1  0  0  0  0
 14 20  1  0  0  0  0
 16 17  1  0  0  0  0
 16 18  1  0  0  0  0
 16 19  1  0  0  0  0
 20 21  1  0  0  0  0
 20 22  1  0  0  0  0
 20 23  1  0  0  0  0
 24 25  2  0  0  0  0
 24 26  1  0  0  0  0
 26 27  1  0  0  0  0
 26 28  1  0  0  0  0
 28 29  1  0  0  0  0
 28 30  1  0  0  0  0
 28 31  1  0  0  0  0
M  END
$$$$

  -OEChem-03222214063D

 31 30  0     1  0  0  0  0  0999 V2000
   -3.4361   -3.8729    1.2054 H   0  0  0  0  0  0  0  0  0  0  0  0
   -3.3525   -2.9080    0.6975 C   0  0  0  0  0  0  0  0  0  0  0  0
   -4.0472   -2.2038    1.1618 H   0  0  0  0  0  0  0  0  0  0  0  0
   -3.6239   -3.0381   -0.3529 H   0  0  0  0  0  0  0  0  0  0  0  0
   -1.9331   -2.3832    0.8047 C   0  0  0  0  0  0  0  0  0  0  0  0
   -1.0834   -3.0378    1.3881 O   0  0  0  0  0  0  0  0  0  0  0  0
   -1.6104   -1.1642    0.2465 N   0  0  0  0  0  0  0  0  0  0  0  0
   -2.3698   -0.6097   -0.1460 H   0  0  0  0  0  0  0  0  0  0  0  0
   -0.3030   -0.5058    0.3718 C   0  0  1  0  0  0  0  0  0  0  0  0
    0.2776   -0.9613    1.1797 H   0  0  0  0  0  0  0  0  0  0  0  0
    0.4266   -0.6855   -0.9744 C   0  0  0  0  0  0  0  0  0  0  0  0
    0.5093   -1.7620   -1.1607 H   0  0  0  0  0  0  0  0  0  0  0  0
   -0.1925   -0.2630   -1.7735 H   0  0  0  0  0  0  0  0  0  0  0  0
    1.8402   -0.0656   -1.0693 C   0  0  0  0  0  0  0  0  0  0  0  0
    1.7316    1.0213   -1.1550 H   0  0  0  0  0  0  0  0  0  0  0  0
    2.7219   -0.3511    0.1564 C   0  0  0  0  0  0  0  0  0  0  0  0
    2.7724   -1.4282    0.3463 H   0  0  0  0  0  0  0  0  0  0  0  0
    3.7382    0.0174   -0.0150 H   0  0  0  0  0  0  0  0  0  0  0  0
    2.3383    0.1430    1.0506 H   0  0  0  0  0  0  0  0  0  0  0  0
    2.5360   -0.5754   -2.3361 C   0  0  0  0  0  0  0  0  0  0  0  0
    1.9300   -0.3526   -3.2200 H   0  0  0  0  0  0  0  0  0  0  0  0
    3.5099   -0.0911   -2.4580 H   0  0  0  0  0  0  0  0  0  0  0  0
    2.6909   -1.6578   -2.2833 H   0  0  0  0  0  0  0  0  0  0  0  0
   -0.5171    0.9874    0.7021 C   0  0  0  0  0  0  0  0  0  0  0  0
   -1.3854    1.6212    0.1117 O   0  0  0  0  0  0  0  0  0  0  0  0
    0.2240    1.6166    1.6854 N   0  0  0  0  0  0  0  0  0  0  0  0
    0.9036    1.0568    2.1923 H   0  0  0  0  0  0  0  0  0  0  0  0
    0.0464    3.0158    2.0530 C   0  0  0  0  0  0  0  0  0  0  0  0
   -0.9722    3.1912    2.4146 H   0  0  0  0  0  0  0  0  0  0  0  0
    0.7474    3.2893    2.8472 H   0  0  0  0  0  0  0  0  0  0  0  0
    0.2313    3.6648    1.1907 H   0  0  0  0  0  0  0  0  0  0  0  0
  1  2  1  0  0  0  0
  2  3  1  0  0  0  0
  2  4  1  0  0  0  0
  2  5  1  0  0  0  0
  5  6  2  0  0  0  0
  5  7  1  0  0  0  0
  7  8  1  0  0  0  0
  7  9  1  0  0  0  0
  9 10  1  0  0  0  0
  9 11  1  0  0  0  0
  9 24  1  0  0  0  0
 11 12  1  0  0  0  0
 11 13  1  0  0  0  0
 11 14  1  0  0  0  0
 14 15  1  0  0  0  0
 14 16  1  0  0  0  0
 14 20  1  0  0  0  0
 16 17  1  0  0  0  0
 16 18  1  0  0  0  0
 16 19  1  0  0  0  0
 20 21  1  0  0  0  0
 20 22  1  0  0  0  0
 20 23  1  0  0  0  0
 24 25  2  0  0  0  0
 24 26  1  0  0  0  0
 26 27  1  0  0  0  0
 26 28  1  0  0  0  0
 28 29  1  0  0  0  0
 28 30  1  0  0  0  0
 28 31  1  0  0  0  0
M  END
$$$$

  -OEChem-03222214063D

 31 30  0     1  0  0  0  0  0999 V2000
   -3.4116   -3.8917    1.2305 H   0  0  0  0  0  0  0  0  0  0  0  0
   -3.3446   -2.9274    0.7192 C   0  0  0  0  0  0  0  0  0  0  0  0
   -4.0311   -2.2258    1.1992 H   0  0  0  0  0  0  0  0  0  0  0  0
   -3.6399   -3.0602   -0.3243 H   0  0  0  0  0  0  0  0  0  0  0  0
   -1.9261   -2.3950    0.7910 C   0  0  0  0  0  0  0  0  0  0  0  0
   -1.0569   -3.0483    1.3465 O   0  0  0  0  0  0  0  0  0  0  0  0
   -1.6265   -1.1694    0.2338 N   0  0  0  0  0  0  0  0  0  0  0  0
   -2.4004   -0.6190   -0.1354 H   0  0  0  0  0  0  0  0  0  0  0  0
   -0.3224   -0.4998    0.3341 C   0  0  1  0  0  0  0  0  0  0  0  0
    0.2642   -0.9547    1.1374 H   0  0  0  0  0  0  0  0  0  0  0  0
    0.4095   -0.6856   -1.0087 C   0  0  0  0  0  0  0  0  0  0  0  0
    0.5063   -1.7590   -1.2045 H   0  0  0  0  0  0  0  0  0  0  0  0
   -0.2120   -0.2620   -1.8053 H   0  0  0  0  0  0  0  0  0  0  0  0
    1.8100   -0.0373   -1.0754 C   0  0  0  0  0  0  0  0  0  0  0  0
    1.7186    1.0433   -0.9229 H   0  0  0  0  0  0  0  0  0  0  0  0
    2.7642   -0.6055   -0.0147 C   0  0  0  0  0  0  0  0  0  0  0  0
    2.8133   -1.6968   -0.0870 H   0  0  0  0  0  0  0  0  0  0  0  0
    3.7724   -0.2034   -0.1562 H   0  0  0  0  0  0  0  0  0  0  0  0
    2.4369   -0.3370    0.9930 H   0  0  0  0  0  0  0  0  0  0  0  0
    2.4052   -0.2703   -2.4686 C   0  0  0  0  0  0  0  0  0  0  0  0
    1.7524    0.1535   -3.2382 H   0  0  0  0  0  0  0  0  0  0  0  0
    3.3854    0.2096   -2.5508 H   0  0  0  0  0  0  0  0  0  0  0  0
    2.5247   -1.3407   -2.6646 H   0  0  0  0  0  0  0  0  0  0  0  0
   -0.5151    0.9908    0.6780 C   0  0  0  0  0  0  0  0  0  0  0  0
   -1.3961    1.6369    0.1214 O   0  0  0  0  0  0  0  0  0  0  0  0
    0.2638    1.5963    1.6468 N   0  0  0  0  0  0  0  0  0  0  0  0
    0.9567    1.0230    2.1196 H   0  0  0  0  0  0  0  0  0  0  0  0
    0.1104    2.9907    2.0420 C   0  0  0  0  0  0  0  0  0  0  0  0
   -0.8957    3.1688    2.4356 H   0  0  0  0  0  0  0  0  0  0  0  0
    0.8363    3.2454    2.8200 H   0  0  0  0  0  0  0  0  0  0  0  0
    0.2761    3.6518    1.1850 H   0  0  0  0  0  0  0  0  0  0  0  0
  1  2  1  0  0  0  0
  2  3  1  0  0  0  0
  2  4  1  0  0  0  0
  2  5  1  0  0  0  0
  5  6  2  0  0  0  0
  5  7  1  0  0  0  0
  7  8  1  0  0  0  0
  7  9  1  0  0  0  0
  9 10  1  0  0  0  0
  9 11  1  0  0  0  0
  9 24  1  0  0  0  0
 11 12  1  0  0  0  0
 11 13  1  0  0  0  0
 11 14  1  0  0  0  0
 14 15  1  0  0  0  0
 14 16  1  0  0  0  0
 14 20  1  0  0  0  0
 16 17  1  0  0  0  0
 16 18  1  0  0  0  0
 16 19  1  0  0  0  0
 20 21  1  0  0  0  0
 20 22  1  0  0  0  0
 20 23  1  0  0  0  0
 24 25  2  0  0  0  0
 24 26  1  0  0  0  0
 26 27  1  0  0  0  0
 26 28  1  0  0  0  0
 28 29  1  0  0  0  0
 28 30  1  0  0  0  0
 28 31  1  0  0  0  0
M  END
$$$$

  -OEChem-03222214063D

 31 30  0     1  0  0  0  0  0999 V2000
   -3.3932   -3.8926    1.2391 H   0  0  0  0  0  0  0  0  0  0  0  0
   -3.3313   -2.9280    0.7277 C   0  0  0  0  0  0  0  0  0  0  0  0
   -4.0149   -2.2274    1.2132 H   0  0  0  0  0  0  0  0  0  0  0  0
   -3.6350   -3.0608   -0.3133 H   0  0  0  0  0  0  0  0  0  0  0  0
   -1.9125   -2.3942    0.7888 C   0  0  0  0  0  0  0  0  0  0  0  0
   -1.0370   -3.0496    1.3318 O   0  0  0  0  0  0  0  0  0  0  0  0
   -1.6198   -1.1655    0.2350 N   0  0  0  0  0  0  0  0  0  0  0  0
   -2.3978   -0.6136   -0.1233 H   0  0  0  0  0  0  0  0  0  0  0  0
   -0.3166   -0.4940    0.3280 C   0  0  1  0  0  0  0  0  0  0  0  0
    0.2814   -0.9459    1.1250 H   0  0  0  0  0  0  0  0  0  0  0  0
    0.4046   -0.6827   -1.0202 C   0  0  0  0  0  0  0  0  0  0  0  0
    0.4940   -1.7533   -1.2339 H   0  0  0  0  0  0  0  0  0  0  0  0
   -0.2262   -0.2462   -1.8026 H   0  0  0  0  0  0  0  0  0  0  0  0
    1.8030   -0.0297   -1.0852 C   0  0  0  0  0  0  0  0  0  0  0  0
    1.7676    0.9906   -0.6911 H   0  0  0  0  0  0  0  0  0  0  0  0
    2.8291   -0.8476   -0.2892 C   0  0  0  0  0  0  0  0  0  0  0  0
    2.8809   -1.8748   -0.6645 H   0  0  0  0  0  0  0  0  0  0  0  0
    3.8230   -0.3975   -0.3748 H   0  0  0  0  0  0  0  0  0  0  0  0
    2.5622   -0.8787    0.7708 H   0  0  0  0  0  0  0  0  0  0  0  0
    2.2581    0.0472   -2.5471 C   0  0  0  0  0  0  0  0  0  0  0  0
    1.5636    0.6589   -3.1315 H   0  0  0  0  0  0  0  0  0  0  0  0
    3.2516    0.5014   -2.6144 H   0  0  0  0  0  0  0  0  0  0  0  0
    2.3012   -0.9520   -2.9923 H   0  0  0  0  0  0  0  0  0  0  0  0
   -0.5179    0.9937    0.6805 C   0  0  0  0  0  0  0  0  0  0  0  0
   -1.4068    1.6364    0.1327 O   0  0  0  0  0  0  0  0  0  0  0  0
    0.2636    1.5994    1.6472 N   0  0  0  0  0  0  0  0  0  0  0  0
    0.9636    1.0287    2.1127 H   0  0  0  0  0  0  0  0  0  0  0  0
    0.1061    2.9918    2.0476 C   0  0  0  0  0  0  0  0  0  0  0  0
   -0.8990    3.1647    2.4465 H   0  0  0  0  0  0  0  0  0  0  0  0
    0.8348    3.2471    2.8231 H   0  0  0  0  0  0  0  0  0  0  0  0
    0.2650    3.6564    1.1919 H   0  0  0  0  0  0  0  0  0  0  0  0
  1  2  1  0  0  0  0
  2  3  1  0  0  0  0
  2  4  1  0  0  0  0
  2  5  1  0  0  0  0
  5  6  2  0  0  0  0
  5  7  1  0  0  0  0
  7  8  1  0  0  0  0
  7  9  1  0  0  0  0
  9 10  1  0  0  0  0
  9 11  1  0  0  0  0
  9 24  1  0  0  0  0
 11 12  1  0  0  0  0
 11 13  1  0  0  0  0
 11 14  1  0  0  0  0
 14 15  1  0  0  0  0
 14 16  1  0  0  0  0
 14 20  1  0  0  0  0
 16 17  1  0  0  0  0
 16 18  1  0  0  0  0
 16 19  1  0  0  0  0
 20 21  1  0  0  0  0
 20 22  1  0  0  0  0
 20 23  1  0  0  0  0
 24 25  2  0  0  0  0
 24 26  1  0  0  0  0
 26 27  1  0  0  0  0
 26 28  1  0  0  0  0
 28 29  1  0  0  0  0
 28 30  1  0  0  0  0
 28 31  1  0  0  0  0
M  END
$$$$

  -OEChem-03222214063D

 31 30  0     1  0  0  0  0  0999 V2000
   -3.3868   -3.8906    1.2442 H   0  0  0  0  0  0  0  0  0  0  0  0
   -3.3229   -2.9261    0.7328 C   0  0  0  0  0  0  0  0  0  0  0  0
   -4.0066   -2.2246    1.2169 H   0  0  0  0  0  0  0  0  0  0  0  0
   -3.6251   -3.0588   -0.3088 H   0  0  0  0  0  0  0  0  0  0  0  0
   -1.9040   -2.3929    0.7954 C   0  0  0  0  0  0  0  0  0  0  0  0
   -1.0287   -3.0472    1.3402 O   0  0  0  0  0  0  0  0  0  0  0  0
   -1.6111   -1.1647    0.2410 N   0  0  0  0  0  0  0  0  0  0  0  0
   -2.3889   -0.6121   -0.1167 H   0  0  0  0  0  0  0  0  0  0  0  0
   -0.3068   -0.4948    0.3309 C   0  0  1  0  0  0  0  0  0  0  0  0
    0.3022   -0.9448    1.1214 H   0  0  0  0  0  0  0  0  0  0  0  0
    0.4032   -0.6837   -1.0230 C   0  0  0  0  0  0  0  0  0  0  0  0
    0.4814   -1.7529   -1.2482 H   0  0  0  0  0  0  0  0  0  0  0  0
   -0.2357   -0.2401   -1.7947 H   0  0  0  0  0  0  0  0  0  0  0  0
    1.8042   -0.0318   -1.0910 C   0  0  0  0  0  0  0  0  0  0  0  0
    1.8516    0.8635   -0.4650 H   0  0  0  0  0  0  0  0  0  0  0  0
    2.8748   -1.0285   -0.6299 C   0  0  0  0  0  0  0  0  0  0  0  0
    2.8889   -1.9119   -1.2765 H   0  0  0  0  0  0  0  0  0  0  0  0
    3.8652   -0.5636   -0.6578 H   0  0  0  0  0  0  0  0  0  0  0  0
    2.6773   -1.3531    0.3963 H   0  0  0  0  0  0  0  0  0  0  0  0
    2.1107    0.3891   -2.5331 C   0  0  0  0  0  0  0  0  0  0  0  0
    1.3900    1.1401   -2.8722 H   0  0  0  0  0  0  0  0  0  0  0  0
    3.1126    0.8244   -2.5994 H   0  0  0  0  0  0  0  0  0  0  0  0
    2.0596   -0.4722   -3.2069 H   0  0  0  0  0  0  0  0  0  0  0  0
   -0.5192    0.9920    0.6846 C   0  0  0  0  0  0  0  0  0  0  0  0
   -1.4108    1.6293    0.1348 O   0  0  0  0  0  0  0  0  0  0  0  0
    0.2571    1.6048    1.6514 N   0  0  0  0  0  0  0  0  0  0  0  0
    0.9564    1.0382    2.1229 H   0  0  0  0  0  0  0  0  0  0  0  0
    0.0893    2.9968    2.0494 C   0  0  0  0  0  0  0  0  0  0  0  0
   -0.9182    3.1638    2.4449 H   0  0  0  0  0  0  0  0  0  0  0  0
    0.8139    3.2579    2.8268 H   0  0  0  0  0  0  0  0  0  0  0  0
    0.2468    3.6611    1.1932 H   0  0  0  0  0  0  0  0  0  0  0  0
  1  2  1  0  0  0  0
  2  3  1  0  0  0  0
  2  4  1  0  0  0  0
  2  5  1  0  0  0  0
  5  6  2  0  0  0  0
  5  7  1  0  0  0  0
  7  8  1  0  0  0  0
  7  9  1  0  0  0  0
  9 10  1  0  0  0  0
  9 11  1  0  0  0  0
  9 24  1  0  0  0  0
 11 12  1  0  0  0  0
 11 13  1  0  0  0  0
 11 14  1  0  0  0  0
 14 15  1  0  0  0  0
 14 16  1  0  0  0  0
 14 20  1  0  0  0  0
 16 17  1  0  0  0  0
 16 18  1  0  0  0  0
 16 19  1  0  0  0  0
 20 21  1  0  0  0  0
 20 22  1  0  0  0  0
 20 23  1  0  0  0  0
 24 25  2  0  0  0  0
 24 26  1  0  0  0  0
 26 27  1  0  0  0  0
 26 28  1  0  0  0  0
 28 29  1  0  0  0  0
 28 30  1  0  0  0  0
 28 31  1  0  0  0  0
M  END
$$$$

  -OEChem-03222214063D

 31 30  0     1  0  0  0  0  0999 V2000
   -3.3945   -3.8892    1.2508 H   0  0  0  0  0  0  0  0  0  0  0  0
   -3.3274   -2.9261    0.7374 C   0  0  0  0  0  0  0  0  0  0  0  0
   -4.0102   -2.2221    1.2190 H   0  0  0  0  0  0  0  0  0  0  0  0
   -3.6281   -3.0604   -0.3045 H   0  0  0  0  0  0  0  0  0  0  0  0
   -1.9073   -2.3965    0.8015 C   0  0  0  0  0  0  0  0  0  0  0  0
   -1.0347   -3.0507    1.3506 O   0  0  0  0  0  0  0  0  0  0  0  0
   -1.6105   -1.1716    0.2421 N   0  0  0  0  0  0  0  0  0  0  0  0
   -2.3863   -0.6198   -0.1210 H   0  0  0  0  0  0  0  0  0  0  0  0
   -0.3051   -0.5041    0.3306 C   0  0  1  0  0  0  0  0  0  0  0  0
    0.3066   -0.9532    1.1199 H   0  0  0  0  0  0  0  0  0  0  0  0
    0.4000   -0.6915   -1.0251 C   0  0  0  0  0  0  0  0  0  0  0  0
    0.4754   -1.7623   -1.2438 H   0  0  0  0  0  0  0  0  0  0  0  0
   -0.2416   -0.2560   -1.7992 H   0  0  0  0  0  0  0  0  0  0  0  0
    1.8038   -0.0395   -1.0908 C   0  0  0  0  0  0  0  0  0  0  0  0
    1.9465    0.6617   -0.2644 H   0  0  0  0  0  0  0  0  0  0  0  0
    2.8930   -1.1148   -1.0027 C   0  0  0  0  0  0  0  0  0  0  0  0
    2.8208   -1.8118   -1.8439 H   0  0  0  0  0  0  0  0  0  0  0  0
    3.8856   -0.6541   -1.0190 H   0  0  0  0  0  0  0  0  0  0  0  0
    2.7920   -1.6814   -0.0717 H   0  0  0  0  0  0  0  0  0  0  0  0
    1.9681    0.7388   -2.4012 C   0  0  0  0  0  0  0  0  0  0  0  0
    1.2281    1.5434   -2.4598 H   0  0  0  0  0  0  0  0  0  0  0  0
    2.9652    1.1865   -2.4570 H   0  0  0  0  0  0  0  0  0  0  0  0
    1.8343    0.0780   -3.2637 H   0  0  0  0  0  0  0  0  0  0  0  0
   -0.5172    0.9852    0.6773 C   0  0  0  0  0  0  0  0  0  0  0  0
   -1.4064    1.6207    0.1212 O   0  0  0  0  0  0  0  0  0  0  0  0
    0.2573    1.6030    1.6424 N   0  0  0  0  0  0  0  0  0  0  0  0
    0.9513    1.0370    2.1223 H   0  0  0  0  0  0  0  0  0  0  0  0
    0.0877    2.9962    2.0347 C   0  0  0  0  0  0  0  0  0  0  0  0
   -0.9197    3.1632    2.4300 H   0  0  0  0  0  0  0  0  0  0  0  0
    0.8120    3.2611    2.8108 H   0  0  0  0  0  0  0  0  0  0  0  0
    0.2440    3.6576    1.1761 H   0  0  0  0  0  0  0  0  0  0  0  0
  1  2  1  0  0  0  0
  2  3  1  0  0  0  0
  2  4  1  0  0  0  0
  2  5  1  0  0  0  0
  5  6  2  0  0  0  0
  5  7  1  0  0  0  0
  7  8  1  0  0  0  0
  7  9  1  0  0  0  0
  9 10  1  0  0  0  0
  9 11  1  0  0  0  0
  9 24  1  0  0  0  0
 11 12  1  0  0  0  0
 11 13  1  0  0  0  0
 11 14  1  0  0  0  0
 14 15  1  0  0  0  0
 14 16  1  0  0  0  0
 14 20  1  0  0  0  0
 16 17  1  0  0  0  0
 16 18  1  0  0  0  0
 16 19  1  0  0  0  0
 20 21  1  0  0  0  0
 20 22  1  0  0  0  0
 20 23  1  0  0  0  0
 24 25  2  0  0  0  0
 24 26  1  0  0  0  0
 26 27  1  0  0  0  0
 26 28  1  0  0  0  0
 28 29  1  0  0  0  0
 28 30  1  0  0  0  0
 28 31  1  0  0  0  0
M  END
$$$$

  -OEChem-03222214063D

 31 30  0     1  0  0  0  0  0999 V2000
   -3.4011   -3.8933    1.2608 H   0  0  0  0  0  0  0  0  0  0  0  0
   -3.3359   -2.9321    0.7434 C   0  0  0  0  0  0  0  0  0  0  0  0
   -4.0178   -2.2265    1.2242 H   0  0  0  0  0  0  0  0  0  0  0  0
   -3.6393   -3.0706   -0.2972 H   0  0  0  0  0  0  0  0  0  0  0  0
   -1.9157   -2.4019    0.8018 C   0  0  0  0  0  0  0  0  0  0  0  0
   -1.0416   -3.0554    1.3493 O   0  0  0  0  0  0  0  0  0  0  0  0
   -1.6193   -1.1794    0.2366 N   0  0  0  0  0  0  0  0  0  0  0  0
   -2.3953   -0.6283   -0.1269 H   0  0  0  0  0  0  0  0  0  0  0  0
   -0.3127   -0.5137    0.3203 C   0  0  1  0  0  0  0  0  0  0  0  0
    0.2996   -0.9623    1.1093 H   0  0  0  0  0  0  0  0  0  0  0  0
    0.3926   -0.6994   -1.0346 C   0  0  0  0  0  0  0  0  0  0  0  0
    0.4767   -1.7733   -1.2338 H   0  0  0  0  0  0  0  0  0  0  0  0
   -0.2437   -0.2821   -1.8228 H   0  0  0  0  0  0  0  0  0  0  0  0
    1.7953   -0.0435   -1.0882 C   0  0  0  0  0  0  0  0  0  0  0  0
    2.0363    0.4115   -0.1229 H   0  0  0  0  0  0  0  0  0  0  0  0
    2.8697   -1.0984   -1.3749 C   0  0  0  0  0  0  0  0  0  0  0  0
    2.6919   -1.5789   -2.3424 H   0  0  0  0  0  0  0  0  0  0  0  0
    3.8620   -0.6370   -1.3937 H   0  0  0  0  0  0  0  0  0  0  0  0
    2.8634   -1.8681   -0.5967 H   0  0  0  0  0  0  0  0  0  0  0  0
    1.8405    1.0543   -2.1568 C   0  0  0  0  0  0  0  0  0  0  0  0
    1.0962    1.8270   -1.9387 H   0  0  0  0  0  0  0  0  0  0  0  0
    2.8280    1.5254   -2.1781 H   0  0  0  0  0  0  0  0  0  0  0  0
    1.6320    0.6390   -3.1480 H   0  0  0  0  0  0  0  0  0  0  0  0
   -0.5160    0.9780    0.6614 C   0  0  0  0  0  0  0  0  0  0  0  0
   -1.4035    1.6160    0.1056 O   0  0  0  0  0  0  0  0  0  0  0  0
    0.2639    1.5959    1.6217 N   0  0  0  0  0  0  0  0  0  0  0  0
    0.9587    1.0292    2.0996 H   0  0  0  0  0  0  0  0  0  0  0  0
    0.1052    2.9927    2.0067 C   0  0  0  0  0  0  0  0  0  0  0  0
   -0.8983    3.1683    2.4085 H   0  0  0  0  0  0  0  0  0  0  0  0
    0.8370    3.2581    2.7758 H   0  0  0  0  0  0  0  0  0  0  0  0
    0.2591    3.6477    1.1426 H   0  0  0  0  0  0  0  0  0  0  0  0
  1  2  1  0  0  0  0
  2  3  1  0  0  0  0
  2  4  1  0  0  0  0
  2  5  1  0  0  0  0
  5  6  2  0  0  0  0
  5  7  1  0  0  0  0
  7  8  1  0  0  0  0
  7  9  1  0  0  0  0
  9 10  1  0  0  0  0
  9 11  1  0  0  0  0
  9 24  1  0  0  0  0
 11 12  1  0  0  0  0
 11 13  1  0  0  0  0
 11 14  1  0  0  0  0
 14 15  1  0  0  0  0
 14 16  1  0  0  0  0
 14 20  1  0  0  0  0
 16 17  1  0  0  0  0
 16 18  1  0  0  0  0
 16 19  1  0  0  0  0
 20 21  1  0  0  0  0
 20 22  1  0  0  0  0
 20 23  1  0  0  0  0
 24 25  2  0  0  0  0
 24 26  1  0  0  0  0
 26 27  1  0  0  0  0
 26 28  1  0  0  0  0
 28 29  1  0  0  0  0
 28 30  1  0  0  0  0
 28 31  1  0  0  0  0
M  END
$$$$

  -OEChem-03222214063D

 31 30  0     1  0  0  0  0  0999 V2000
   -3.3997   -3.8970    1.2589 H   0  0  0  0  0  0  0  0  0  0  0  0
   -3.3386   -2.9350    0.7424 C   0  0  0  0  0  0  0  0  0  0  0  0
   -4.0176   -2.2304    1.2287 H   0  0  0  0  0  0  0  0  0  0  0  0
   -3.6493   -3.0722   -0.2963 H   0  0  0  0  0  0  0  0  0  0  0  0
   -1.9185   -2.4036    0.7918 C   0  0  0  0  0  0  0  0  0  0  0  0
   -1.0393   -3.0590    1.3288 O   0  0  0  0  0  0  0  0  0  0  0  0
   -1.6279   -1.1776    0.2313 N   0  0  0  0  0  0  0  0  0  0  0  0
   -2.4080   -0.6251   -0.1213 H   0  0  0  0  0  0  0  0  0  0  0  0
   -0.3232   -0.5076    0.3121 C   0  0  1  0  0  0  0  0  0  0  0  0
    0.2867   -0.9565    1.1031 H   0  0  0  0  0  0  0  0  0  0  0  0
    0.3897   -0.6973   -1.0389 C   0  0  0  0  0  0  0  0  0  0  0  0
    0.4872   -1.7745   -1.2124 H   0  0  0  0  0  0  0  0  0  0  0  0
   -0.2397   -0.3011   -1.8435 H   0  0  0  0  0  0  0  0  0  0  0  0
    1.7885   -0.0357   -1.0895 C   0  0  0  0  0  0  0  0  0  0  0  0
    2.1319    0.1768   -0.0718 H   0  0  0  0  0  0  0  0  0  0  0  0
    2.8066   -0.9906   -1.7234 C   0  0  0  0  0  0  0  0  0  0  0  0
    2.5094   -1.2489   -2.7448 H   0  0  0  0  0  0  0  0  0  0  0  0
    3.7970   -0.5259   -1.7567 H   0  0  0  0  0  0  0  0  0  0  0  0
    2.8812   -1.9124   -1.1378 H   0  0  0  0  0  0  0  0  0  0  0  0
    1.7538    1.2791   -1.8802 C   0  0  0  0  0  0  0  0  0  0  0  0
    1.0532    1.9864   -1.4272 H   0  0  0  0  0  0  0  0  0  0  0  0
    2.7454    1.7420   -1.8914 H   0  0  0  0  0  0  0  0  0  0  0  0
    1.4436    1.0998   -2.9146 H   0  0  0  0  0  0  0  0  0  0  0  0
   -0.5238    0.9814    0.6606 C   0  0  0  0  0  0  0  0  0  0  0  0
   -1.4200    1.6202    0.1196 O   0  0  0  0  0  0  0  0  0  0  0  0
    0.2629    1.5930    1.6195 N   0  0  0  0  0  0  0  0  0  0  0  0
    0.9675    1.0262    2.0828 H   0  0  0  0  0  0  0  0  0  0  0  0
    0.1086    2.9881    2.0119 C   0  0  0  0  0  0  0  0  0  0  0  0
   -0.8928    3.1638    2.4187 H   0  0  0  0  0  0  0  0  0  0  0  0
    0.8440    3.2484    2.7792 H   0  0  0  0  0  0  0  0  0  0  0  0
    0.2602    3.6467    1.1501 H   0  0  0  0  0  0  0  0  0  0  0  0
  1  2  1  0  0  0  0
  2  3  1  0  0  0  0
  2  4  1  0  0  0  0
  2  5  1  0  0  0  0
  5  6  2  0  0  0  0
  5  7  1  0  0  0  0
  7  8  1  0  0  0  0
  7  9  1  0  0  0  0
  9 10  1  0  0  0  0
  9 11  1  0  0  0  0
  9 24  1  0  0  0  0
 11 12  1  0  0  0  0
 11 13  1  0  0  0  0
 11 14  1  0  0  0  0
 14 15  1  0  0  0  0
 14 16  1  0  0  0  0
 14 20  1  0  0  0  0
 16 17  1  0  0  0  0
 16 18  1  0  0  0  0
 16 19  1  0  0  0  0
 20 21  1  0  0  0  0
 20 22  1  0  0  0  0
 20 23  1  0  0  0  0
 24 25  2  0  0  0  0
 24 26  1  0  0  0  0
 26 27  1  0  0  0  0
 26 28  1  0  0  0  0
 28 29  1  0  0  0  0
 28 30  1  0  0  0  0
 28 31  1  0  0  0  0
M  END
$$$$

  -OEChem-03222214063D

 31 30  0     1  0  0  0  0  0999 V2000
   -3.3801   -3.9044    1.2201 H   0  0  0  0  0  0  0  0  0  0  0  0
   -3.3228   -2.9353    0.7167 C   0  0  0  0  0  0  0  0  0  0  0  0
   -4.0109   -2.2428    1.2077 H   0  0  0  0  0  0  0  0  0  0  0  0
   -3.6251   -3.0616   -0.3257 H   0  0  0  0  0  0  0  0  0  0  0  0
   -1.9072   -2.3936    0.7827 C   0  0  0  0  0  0  0  0  0  0  0  0
   -1.0260   -3.0488    1.3164 O   0  0  0  0  0  0  0  0  0  0  0  0
   -1.6227   -1.1586    0.2391 N   0  0  0  0  0  0  0  0  0  0  0  0
   -2.4047   -0.6091   -0.1140 H   0  0  0  0  0  0  0  0  0  0  0  0
   -0.3228   -0.4799    0.3302 C   0  0  1  0  0  0  0  0  0  0  0  0
    0.2839   -0.9278    1.1240 H   0  0  0  0  0  0  0  0  0  0  0  0
    0.4007   -0.6816   -1.0167 C   0  0  0  0  0  0  0  0  0  0  0  0
    0.5022   -1.7617   -1.1688 H   0  0  0  0  0  0  0  0  0  0  0  0
   -0.2276   -0.3010   -1.8293 H   0  0  0  0  0  0  0  0  0  0  0  0
    1.8012   -0.0272   -1.0996 C   0  0  0  0  0  0  0  0  0  0  0  0
    2.2661   -0.0300   -0.1080 H   0  0  0  0  0  0  0  0  0  0  0  0
    2.6895   -0.8439   -2.0475 C   0  0  0  0  0  0  0  0  0  0  0  0
    2.2511   -0.8839   -3.0499 H   0  0  0  0  0  0  0  0  0  0  0  0
    3.6852   -0.3955   -2.1211 H   0  0  0  0  0  0  0  0  0  0  0  0
    2.8049   -1.8673   -1.6770 H   0  0  0  0  0  0  0  0  0  0  0  0
    1.7437    1.4156   -1.6301 C   0  0  0  0  0  0  0  0  0  0  0  0
    1.1965    2.0727   -0.9519 H   0  0  0  0  0  0  0  0  0  0  0  0
    2.7550    1.8197   -1.7383 H   0  0  0  0  0  0  0  0  0  0  0  0
    1.2537    1.4470   -2.6085 H   0  0  0  0  0  0  0  0  0  0  0  0
   -0.5440    1.0002    0.6971 C   0  0  0  0  0  0  0  0  0  0  0  0
   -1.4476    1.6348    0.1634 O   0  0  0  0  0  0  0  0  0  0  0  0
    0.2334    1.6071    1.6667 N   0  0  0  0  0  0  0  0  0  0  0  0
    0.9462    1.0428    2.1202 H   0  0  0  0  0  0  0  0  0  0  0  0
    0.0595    2.9932    2.0816 C   0  0  0  0  0  0  0  0  0  0  0  0
   -0.9499    3.1520    2.4754 H   0  0  0  0  0  0  0  0  0  0  0  0
    0.7798    3.2466    2.8653 H   0  0  0  0  0  0  0  0  0  0  0  0
    0.2181    3.6684    1.2343 H   0  0  0  0  0  0  0  0  0  0  0  0
  1  2  1  0  0  0  0
  2  3  1  0  0  0  0
  2  4  1  0  0  0  0
  2  5  1  0  0  0  0
  5  6  2  0  0  0  0
  5  7  1  0  0  0  0
  7  8  1  0  0  0  0
  7  9  1  0  0  0  0
  9 10  1  0  0  0  0
  9 11  1  0  0  0  0
  9 24  1  0  0  0  0
 11 12  1  0  0  0  0
 11 13  1  0  0  0  0
 11 14  1  0  0  0  0
 14 15  1  0  0  0  0
 14 16  1  0  0  0  0
 14 20  1  0  0  0  0
 16 17  1  0  0  0  0
 16 18  1  0  0  0  0
 16 19  1  0  0  0  0
 20 21  1  0  0  0  0
 20 22  1  0  0  0  0
 20 23  1  0  0  0  0
 24 25  2  0  0  0  0
 24 26  1  0  0  0  0
 26 27  1  0  0  0  0
 26 28  1  0  0  0  0
 28 29  1  0  0  0  0
 28 30  1  0  0  0  0
 28 31  1  0  0  0  0
M  END
$$$$

  -OEChem-03222214063D

 31 30  0     1  0  0  0  0  0999 V2000
   -3.3534   -3.9047    1.1619 H   0  0  0  0  0  0  0  0  0  0  0  0
   -3.2964   -2.9266    0.6759 C   0  0  0  0  0  0  0  0  0  0  0  0
   -3.9957   -2.2468    1.1687 H   0  0  0  0  0  0  0  0  0  0  0  0
   -3.5834   -3.0368   -0.3727 H   0  0  0  0  0  0  0  0  0  0  0  0
   -1.8857   -2.3766    0.7710 C   0  0  0  0  0  0  0  0  0  0  0  0
   -1.0106   -3.0299    1.3173 O   0  0  0  0  0  0  0  0  0  0  0  0
   -1.5986   -1.1357    0.2424 N   0  0  0  0  0  0  0  0  0  0  0  0
   -2.3772   -0.5854   -0.1174 H   0  0  0  0  0  0  0  0  0  0  0  0
   -0.3035   -0.4519    0.3653 C   0  0  1  0  0  0  0  0  0  0  0  0
    0.2958   -0.8981    1.1656 H   0  0  0  0  0  0  0  0  0  0  0  0
    0.4251   -0.6646   -0.9802 C   0  0  0  0  0  0  0  0  0  0  0  0
    0.5155   -1.7467   -1.1267 H   0  0  0  0  0  0  0  0  0  0  0  0
   -0.2081   -0.2820   -1.7882 H   0  0  0  0  0  0  0  0  0  0  0  0
    1.8342   -0.0379   -1.1178 C   0  0  0  0  0  0  0  0  0  0  0  0
    2.4241   -0.2657   -0.2238 H   0  0  0  0  0  0  0  0  0  0  0  0
    2.5232   -0.6687   -2.3368 C   0  0  0  0  0  0  0  0  0  0  0  0
    1.9583   -0.4609   -3.2515 H   0  0  0  0  0  0  0  0  0  0  0  0
    3.5360   -0.2709   -2.4554 H   0  0  0  0  0  0  0  0  0  0  0  0
    2.5999   -1.7538   -2.2147 H   0  0  0  0  0  0  0  0  0  0  0  0
    1.8164    1.4843   -1.3441 C   0  0  0  0  0  0  0  0  0  0  0  0
    1.5871    2.0233   -0.4251 H   0  0  0  0  0  0  0  0  0  0  0  0
    2.7975    1.8318   -1.6825 H   0  0  0  0  0  0  0  0  0  0  0  0
    1.0754    1.7541   -2.1033 H   0  0  0  0  0  0  0  0  0  0  0  0
   -0.5613    1.0210    0.7400 C   0  0  0  0  0  0  0  0  0  0  0  0
   -1.4597    1.6458    0.1862 O   0  0  0  0  0  0  0  0  0  0  0  0
    0.1800    1.6341    1.7344 N   0  0  0  0  0  0  0  0  0  0  0  0
    0.8876    1.0773    2.2052 H   0  0  0  0  0  0  0  0  0  0  0  0
   -0.0405    3.0088    2.1659 C   0  0  0  0  0  0  0  0  0  0  0  0
   -1.0601    3.1328    2.5460 H   0  0  0  0  0  0  0  0  0  0  0  0
    0.6600    3.2715    2.9644 H   0  0  0  0  0  0  0  0  0  0  0  0
    0.1114    3.7011    1.3312 H   0  0  0  0  0  0  0  0  0  0  0  0
  1  2  1  0  0  0  0
  2  3  1  0  0  0  0
  2  4  1  0  0  0  0
  2  5  1  0  0  0  0
  5  6  2  0  0  0  0
  5  7  1  0  0  0  0
  7  8  1  0  0  0  0
  7  9  1  0  0  0  0
  9 10  1  0  0  0  0
  9 11  1  0  0  0  0
  9 24  1  0  0  0  0
 11 12  1  0  0  0  0
 11 13  1  0  0  0  0
 11 14  1  0  0  0  0
 14 15  1  0  0  0  0
 14 16  1  0  0  0  0
 14 20  1  0  0  0  0
 16 17  1  0  0  0  0
 16 18  1  0  0  0  0
 16 19  1  0  0  0  0
 20 21  1  0  0  0  0
 20 22  1  0  0  0  0
 20 23  1  0  0  0  0
 24 25  2  0  0  0  0
 24 26  1  0  0  0  0
 26 27  1  0  0  0  0
 26 28  1  0  0  0  0
 28 29  1  0  0  0  0
 28 30  1  0  0  0  0
 28 31  1  0  0  0  0
M  END
$$$$

  -OEChem-03222214063D

 31 30  0     1  0  0  0  0  0999 V2000
   -3.3806   -3.8847    1.1568 H   0  0  0  0  0  0  0  0  0  0  0  0
   -3.3073   -2.9104    0.6653 C   0  0  0  0  0  0  0  0  0  0  0  0
   -4.0103   -2.2222    1.1410 H   0  0  0  0  0  0  0  0  0  0  0  0
   -3.5764   -3.0257   -0.3874 H   0  0  0  0  0  0  0  0  0  0  0  0
   -1.8942   -2.3710    0.7819 C   0  0  0  0  0  0  0  0  0  0  0  0
   -1.0369   -3.0237    1.3562 O   0  0  0  0  0  0  0  0  0  0  0  0
   -1.5848   -1.1398    0.2435 N   0  0  0  0  0  0  0  0  0  0  0  0
   -2.3503   -0.5863   -0.1391 H   0  0  0  0  0  0  0  0  0  0  0  0
   -0.2854   -0.4672    0.3844 C   0  0  1  0  0  0  0  0  0  0  0  0
    0.3058   -0.9162    1.1890 H   0  0  0  0  0  0  0  0  0  0  0  0
    0.4390   -0.6685   -0.9665 C   0  0  0  0  0  0  0  0  0  0  0  0
    0.3009   -1.7126   -1.2689 H   0  0  0  0  0  0  0  0  0  0  0  0
   -0.0564   -0.0459   -1.7198 H   0  0  0  0  0  0  0  0  0  0  0  0
    1.9588   -0.3837   -0.9977 C   0  0  0  0  0  0  0  0  0  0  0  0
    2.4618   -1.0772   -0.3150 H   0  0  0  0  0  0  0  0  0  0  0  0
    2.4665   -0.6471   -2.4219 C   0  0  0  0  0  0  0  0  0  0  0  0
    2.0059    0.0478   -3.1316 H   0  0  0  0  0  0  0  0  0  0  0  0
    3.5531   -0.5249   -2.4708 H   0  0  0  0  0  0  0  0  0  0  0  0
    2.2266   -1.6694   -2.7309 H   0  0  0  0  0  0  0  0  0  0  0  0
    2.3466    1.0485   -0.6092 C   0  0  0  0  0  0  0  0  0  0  0  0
    2.3127    1.1727    0.4743 H   0  0  0  0  0  0  0  0  0  0  0  0
    3.3703    1.2702   -0.9271 H   0  0  0  0  0  0  0  0  0  0  0  0
    1.6753    1.7746   -1.0789 H   0  0  0  0  0  0  0  0  0  0  0  0
   -0.5574    1.0126    0.7357 C   0  0  0  0  0  0  0  0  0  0  0  0
   -1.4382    1.6269    0.1426 O   0  0  0  0  0  0  0  0  0  0  0  0
    0.1494    1.6527    1.7373 N   0  0  0  0  0  0  0  0  0  0  0  0
    0.8464    1.1110    2.2401 H   0  0  0  0  0  0  0  0  0  0  0  0
   -0.0768    3.0409    2.1189 C   0  0  0  0  0  0  0  0  0  0  0  0
   -1.1103    3.1841    2.4514 H   0  0  0  0  0  0  0  0  0  0  0  0
    0.5917    3.3213    2.9386 H   0  0  0  0  0  0  0  0  0  0  0  0
    0.1170    3.7063    1.2712 H   0  0  0  0  0  0  0  0  0  0  0  0
  1  2  1  0  0  0  0
  2  3  1  0  0  0  0
  2  4  1  0  0  0  0
  2  5  1  0  0  0  0
  5  6  2  0  0  0  0
  5  7  1  0  0  0  0
  7  8  1  0  0  0  0
  7  9  1  0  0  0  0
  9 10  1  0  0  0  0
  9 11  1  0  0  0  0
  9 24  1  0  0  0  0
 11 12  1  0  0  0  0
 11 13  1  0  0  0  0
 11 14  1  0  0  0  0
 14 15  1  0  0  0  0
 14 16  1  0  0  0  0
 14 20  1  0  0  0  0
 16 17  1  0  0  0  0
 16 18  1  0  0  0  0
 16 19  1  0  0  0  0
 20 21  1  0  0  0  0
 20 22  1  0  0  0  0
 20 23  1  0  0  0  0
 24 25  2  0  0  0  0
 24 26  1  0  0  0  0
 26 27  1  0  0  0  0
 26 28  1  0  0  0  0
 28 29  1  0  0  0  0
 28 30  1  0  0  0  0
 28 31  1  0  0  0  0
M  END
$$$$

  -OEChem-03222214063D

 31 30  0     1  0  0  0  0  0999 V2000
   -3.3957   -3.8760    1.1466 H   0  0  0  0  0  0  0  0  0  0  0  0
   -3.3156   -2.9017    0.6564 C   0  0  0  0  0  0  0  0  0  0  0  0
   -4.0209   -2.2119    1.1261 H   0  0  0  0  0  0  0  0  0  0  0  0
   -3.5756   -3.0158   -0.3988 H   0  0  0  0  0  0  0  0  0  0  0  0
   -1.9022   -2.3658    0.7851 C   0  0  0  0  0  0  0  0  0  0  0  0
   -1.0496   -3.0234    1.3607 O   0  0  0  0  0  0  0  0  0  0  0  0
   -1.5857   -1.1351    0.2495 N   0  0  0  0  0  0  0  0  0  0  0  0
   -2.3476   -0.5785   -0.1361 H   0  0  0  0  0  0  0  0  0  0  0  0
   -0.2851   -0.4664    0.3990 C   0  0  1  0  0  0  0  0  0  0  0  0
    0.3023   -0.9175    1.2055 H   0  0  0  0  0  0  0  0  0  0  0  0
    0.4411   -0.6657   -0.9529 C   0  0  0  0  0  0  0  0  0  0  0  0
    0.2926   -1.7022   -1.2753 H   0  0  0  0  0  0  0  0  0  0  0  0
   -0.0571   -0.0264   -1.6902 H   0  0  0  0  0  0  0  0  0  0  0  0
    1.9649   -0.3929   -1.0054 C   0  0  0  0  0  0  0  0  0  0  0  0
    2.4794   -1.2464   -0.5506 H   0  0  0  0  0  0  0  0  0  0  0  0
    2.3902   -0.2866   -2.4761 C   0  0  0  0  0  0  0  0  0  0  0  0
    1.9276    0.5838   -2.9528 H   0  0  0  0  0  0  0  0  0  0  0  0
    3.4776   -0.1886   -2.5545 H   0  0  0  0  0  0  0  0  0  0  0  0
    2.0894   -1.1844   -3.0253 H   0  0  0  0  0  0  0  0  0  0  0  0
    2.4353    0.8742   -0.2839 C   0  0  0  0  0  0  0  0  0  0  0  0
    2.3592    0.7459    0.7982 H   0  0  0  0  0  0  0  0  0  0  0  0
    3.4858    1.0772   -0.5151 H   0  0  0  0  0  0  0  0  0  0  0  0
    1.8427    1.7412   -0.5931 H   0  0  0  0  0  0  0  0  0  0  0  0
   -0.5662    1.0138    0.7497 C   0  0  0  0  0  0  0  0  0  0  0  0
   -1.4436    1.6241    0.1473 O   0  0  0  0  0  0  0  0  0  0  0  0
    0.1266    1.6620    1.7563 N   0  0  0  0  0  0  0  0  0  0  0  0
    0.8208    1.1259    2.2691 H   0  0  0  0  0  0  0  0  0  0  0  0
   -0.1118    3.0504    2.1312 C   0  0  0  0  0  0  0  0  0  0  0  0
   -1.1508    3.1893    2.4479 H   0  0  0  0  0  0  0  0  0  0  0  0
    0.5430    3.3363    2.9600 H   0  0  0  0  0  0  0  0  0  0  0  0
    0.0912    3.7152    1.2850 H   0  0  0  0  0  0  0  0  0  0  0  0
  1  2  1  0  0  0  0
  2  3  1  0  0  0  0
  2  4  1  0  0  0  0
  2  5  1  0  0  0  0
  5  6  2  0  0  0  0
  5  7  1  0  0  0  0
  7  8  1  0  0  0  0
  7  9  1  0  0  0  0
  9 10  1  0  0  0  0
  9 11  1  0  0  0  0
  9 24  1  0  0  0  0
 11 12  1  0  0  0  0
 11 13  1  0  0  0  0
 11 14  1  0  0  0  0
 14 15  1  0  0  0  0
 14 16  1  0  0  0  0
 14 20  1  0  0  0  0
 16 17  1  0  0  0  0
 16 18  1  0  0  0  0
 16 19  1  0  0  0  0
 20 21  1  0  0  0  0
 20 22  1  0  0  0  0
 20 23  1  0  0  0  0
 24 25  2  0  0  0  0
 24 26  1  0  0  0  0
 26 27  1  0  0  0  0
 26 28  1  0  0  0  0
 28 29  1  0  0  0  0
 28 30  1  0  0  0  0
 28 31  1  0  0  0  0
M  END
$$$$

  -OEChem-03222214063D

 31 30  0     1  0  0  0  0  0999 V2000
   -3.4107   -3.8772    1.1470 H   0  0  0  0  0  0  0  0  0  0  0  0
   -3.3300   -2.9035    0.6558 C   0  0  0  0  0  0  0  0  0  0  0  0
   -4.0362   -2.2134    1.1238 H   0  0  0  0  0  0  0  0  0  0  0  0
   -3.5882   -3.0187   -0.3995 H   0  0  0  0  0  0  0  0  0  0  0  0
   -1.9169   -2.3673    0.7864 C   0  0  0  0  0  0  0  0  0  0  0  0
   -1.0663   -3.0231    1.3671 O   0  0  0  0  0  0  0  0  0  0  0  0
   -1.5995   -1.1367    0.2509 N   0  0  0  0  0  0  0  0  0  0  0  0
   -2.3605   -0.5811   -0.1379 H   0  0  0  0  0  0  0  0  0  0  0  0
   -0.2998   -0.4665    0.4040 C   0  0  1  0  0  0  0  0  0  0  0  0
    0.2804   -0.9204    1.2137 H   0  0  0  0  0  0  0  0  0  0  0  0
    0.4355   -0.6649   -0.9439 C   0  0  0  0  0  0  0  0  0  0  0  0
    0.2876   -1.7000   -1.2710 H   0  0  0  0  0  0  0  0  0  0  0  0
   -0.0688   -0.0273   -1.6787 H   0  0  0  0  0  0  0  0  0  0  0  0
    1.9634   -0.3918   -1.0045 C   0  0  0  0  0  0  0  0  0  0  0  0
    2.4768   -1.3382   -0.8018 H   0  0  0  0  0  0  0  0  0  0  0  0
    2.3339    0.0811   -2.4167 C   0  0  0  0  0  0  0  0  0  0  0  0
    1.8634    1.0442   -2.6404 H   0  0  0  0  0  0  0  0  0  0  0  0
    3.4186    0.1946   -2.5108 H   0  0  0  0  0  0  0  0  0  0  0  0
    2.0024   -0.6497   -3.1611 H   0  0  0  0  0  0  0  0  0  0  0  0
    2.5075    0.6406   -0.0109 C   0  0  0  0  0  0  0  0  0  0  0  0
    2.3450    0.3102    1.0183 H   0  0  0  0  0  0  0  0  0  0  0  0
    3.5861    0.7652   -0.1504 H   0  0  0  0  0  0  0  0  0  0  0  0
    2.0320    1.6143   -0.1635 H   0  0  0  0  0  0  0  0  0  0  0  0
   -0.5758    1.0150    0.7528 C   0  0  0  0  0  0  0  0  0  0  0  0
   -1.4525    1.6273    0.1515 O   0  0  0  0  0  0  0  0  0  0  0  0
    0.1186    1.6598    1.7607 N   0  0  0  0  0  0  0  0  0  0  0  0
    0.8135    1.1217    2.2702 H   0  0  0  0  0  0  0  0  0  0  0  0
   -0.1120    3.0495    2.1352 C   0  0  0  0  0  0  0  0  0  0  0  0
   -1.1494    3.1943    2.4546 H   0  0  0  0  0  0  0  0  0  0  0  0
    0.5465    3.3325    2.9621 H   0  0  0  0  0  0  0  0  0  0  0  0
    0.0924    3.7128    1.2883 H   0  0  0  0  0  0  0  0  0  0  0  0
  1  2  1  0  0  0  0
  2  3  1  0  0  0  0
  2  4  1  0  0  0  0
  2  5  1  0  0  0  0
  5  6  2  0  0  0  0
  5  7  1  0  0  0  0
  7  8  1  0  0  0  0
  7  9  1  0  0  0  0
  9 10  1  0  0  0  0
  9 11  1  0  0  0  0
  9 24  1  0  0  0  0
 11 12  1  0  0  0  0
 11 13  1  0  0  0  0
 11 14  1  0  0  0  0
 14 15  1  0  0  0  0
 14 16  1  0  0  0  0
 14 20  1  0  0  0  0
 16 17  1  0  0  0  0
 16 18  1  0  0  0  0
 16 19  1  0  0  0  0
 20 21  1  0  0  0  0
 20 22  1  0  0  0  0
 20 23  1  0  0  0  0
 24 25  2  0  0  0  0
 24 26  1  0  0  0  0
 26 27  1  0  0  0  0
 26 28  1  0  0  0  0
 28 29  1  0  0  0  0
 28 30  1  0  0  0  0
 28 31  1  0  0  0  0
M  END
$$$$

  -OEChem-03222214063D

 31 30  0     1  0  0  0  0  0999 V2000
   -3.4235   -3.8851    1.1452 H   0  0  0  0  0  0  0  0  0  0  0  0
   -3.3431   -2.9109    0.6549 C   0  0  0  0  0  0  0  0  0  0  0  0
   -4.0532   -2.2227    1.1197 H   0  0  0  0  0  0  0  0  0  0  0  0
   -3.5958   -3.0266   -0.4017 H   0  0  0  0  0  0  0  0  0  0  0  0
   -1.9320   -2.3709    0.7926 C   0  0  0  0  0  0  0  0  0  0  0  0
   -1.0834   -3.0236    1.3795 O   0  0  0  0  0  0  0  0  0  0  0  0
   -1.6140   -1.1422    0.2528 N   0  0  0  0  0  0  0  0  0  0  0  0
   -2.3749   -0.5906   -0.1416 H   0  0  0  0  0  0  0  0  0  0  0  0
   -0.3168   -0.4675    0.4089 C   0  0  1  0  0  0  0  0  0  0  0  0
    0.2518   -0.9227    1.2250 H   0  0  0  0  0  0  0  0  0  0  0  0
    0.4281   -0.6626   -0.9329 C   0  0  0  0  0  0  0  0  0  0  0  0
    0.2890   -1.7025   -1.2479 H   0  0  0  0  0  0  0  0  0  0  0  0
   -0.0832   -0.0426   -1.6779 H   0  0  0  0  0  0  0  0  0  0  0  0
    1.9580   -0.3837   -0.9969 C   0  0  0  0  0  0  0  0  0  0  0  0
    2.4583   -1.3553   -1.0763 H   0  0  0  0  0  0  0  0  0  0  0  0
    2.2790    0.4314   -2.2570 C   0  0  0  0  0  0  0  0  0  0  0  0
    1.8068    1.4183   -2.2103 H   0  0  0  0  0  0  0  0  0  0  0  0
    3.3601    0.5681   -2.3609 H   0  0  0  0  0  0  0  0  0  0  0  0
    1.9138   -0.0872   -3.1491 H   0  0  0  0  0  0  0  0  0  0  0  0
    2.5841    0.3395    0.2032 C   0  0  0  0  0  0  0  0  0  0  0  0
    2.3668   -0.1834    1.1382 H   0  0  0  0  0  0  0  0  0  0  0  0
    3.6721    0.3733    0.0884 H   0  0  0  0  0  0  0  0  0  0  0  0
    2.2249    1.3698    0.2674 H   0  0  0  0  0  0  0  0  0  0  0  0
   -0.5798    1.0169    0.7488 C   0  0  0  0  0  0  0  0  0  0  0  0
   -1.4539    1.6317    0.1467 O   0  0  0  0  0  0  0  0  0  0  0  0
    0.1193    1.6589    1.7548 N   0  0  0  0  0  0  0  0  0  0  0  0
    0.8152    1.1191    2.2614 H   0  0  0  0  0  0  0  0  0  0  0  0
   -0.1028    3.0509    2.1254 C   0  0  0  0  0  0  0  0  0  0  0  0
   -1.1399    3.2023    2.4427 H   0  0  0  0  0  0  0  0  0  0  0  0
    0.5561    3.3319    2.9526 H   0  0  0  0  0  0  0  0  0  0  0  0
    0.1065    3.7109    1.2770 H   0  0  0  0  0  0  0  0  0  0  0  0
  1  2  1  0  0  0  0
  2  3  1  0  0  0  0
  2  4  1  0  0  0  0
  2  5  1  0  0  0  0
  5  6  2  0  0  0  0
  5  7  1  0  0  0  0
  7  8  1  0  0  0  0
  7  9  1  0  0  0  0
  9 10  1  0  0  0  0
  9 11  1  0  0  0  0
  9 24  1  0  0  0  0
 11 12  1  0  0  0  0
 11 13  1  0  0  0  0
 11 14  1  0  0  0  0
 14 15  1  0  0  0  0
 14 16  1  0  0  0  0
 14 20  1  0  0  0  0
 16 17  1  0  0  0  0
 16 18  1  0  0  0  0
 16 19  1  0  0  0  0
 20 21  1  0  0  0  0
 20 22  1  0  0  0  0
 20 23  1  0  0  0  0
 24 25  2  0  0  0  0
 24 26  1  0  0  0  0
 26 27  1  0  0  0  0
 26 28  1  0  0  0  0
 28 29  1  0  0  0  0
 28 30  1  0  0  0  0
 28 31  1  0  0  0  0
M  END
$$$$

  -OEChem-03222214063D

 31 30  0     1  0  0  0  0  0999 V2000
   -3.4388   -3.8774    1.1669 H   0  0  0  0  0  0  0  0  0  0  0  0
   -3.3559   -2.9069    0.6700 C   0  0  0  0  0  0  0  0  0  0  0  0
   -4.0625   -2.2131    1.1316 H   0  0  0  0  0  0  0  0  0  0  0  0
   -3.6115   -3.0285   -0.3853 H   0  0  0  0  0  0  0  0  0  0  0  0
   -1.9429   -2.3704    0.8011 C   0  0  0  0  0  0  0  0  0  0  0  0
   -1.0956   -3.0202    1.3933 O   0  0  0  0  0  0  0  0  0  0  0  0
   -1.6229   -1.1467    0.2512 N   0  0  0  0  0  0  0  0  0  0  0  0
   -2.3826   -0.5983   -0.1498 H   0  0  0  0  0  0  0  0  0  0  0  0
   -0.3263   -0.4708    0.4056 C   0  0  1  0  0  0  0  0  0  0  0  0
    0.2349   -0.9217    1.2281 H   0  0  0  0  0  0  0  0  0  0  0  0
    0.4236   -0.6541   -0.9341 C   0  0  0  0  0  0  0  0  0  0  0  0
    0.2996   -1.7011   -1.2319 H   0  0  0  0  0  0  0  0  0  0  0  0
   -0.0903   -0.0557   -1.6946 H   0  0  0  0  0  0  0  0  0  0  0  0
    1.9525   -0.3672   -0.9860 C   0  0  0  0  0  0  0  0  0  0  0  0
    2.4247   -1.2777   -1.3720 H   0  0  0  0  0  0  0  0  0  0  0  0
    2.2431    0.7510   -1.9948 C   0  0  0  0  0  0  0  0  0  0  0  0
    1.7751    1.6874   -1.6743 H   0  0  0  0  0  0  0  0  0  0  0  0
    3.3215    0.9142   -2.0862 H   0  0  0  0  0  0  0  0  0  0  0  0
    1.8540    0.4863   -2.9830 H   0  0  0  0  0  0  0  0  0  0  0  0
    2.6525   -0.0528    0.3433 C   0  0  0  0  0  0  0  0  0  0  0  0
    2.4388   -0.8219    1.0909 H   0  0  0  0  0  0  0  0  0  0  0  0
    3.7364   -0.0297    0.1927 H   0  0  0  0  0  0  0  0  0  0  0  0
    2.3520    0.9233    0.7270 H   0  0  0  0  0  0  0  0  0  0  0  0
   -0.5788    1.0181    0.7314 C   0  0  0  0  0  0  0  0  0  0  0  0
   -1.4493    1.6321    0.1231 O   0  0  0  0  0  0  0  0  0  0  0  0
    0.1226    1.6652    1.7320 N   0  0  0  0  0  0  0  0  0  0  0  0
    0.8103    1.1241    2.2484 H   0  0  0  0  0  0  0  0  0  0  0  0
   -0.0953    3.0604    2.0933 C   0  0  0  0  0  0  0  0  0  0  0  0
   -1.1308    3.2165    2.4133 H   0  0  0  0  0  0  0  0  0  0  0  0
    0.5672    3.3460    2.9159 H   0  0  0  0  0  0  0  0  0  0  0  0
    0.1124    3.7138    1.2394 H   0  0  0  0  0  0  0  0  0  0  0  0
  1  2  1  0  0  0  0
  2  3  1  0  0  0  0
  2  4  1  0  0  0  0
  2  5  1  0  0  0  0
  5  6  2  0  0  0  0
  5  7  1  0  0  0  0
  7  8  1  0  0  0  0
  7  9  1  0  0  0  0
  9 10  1  0  0  0  0
  9 11  1  0  0  0  0
  9 24  1  0  0  0  0
 11 12  1  0  0  0  0
 11 13  1  0  0  0  0
 11 14  1  0  0  0  0
 14 15  1  0  0  0  0
 14 16  1  0  0  0  0
 14 20  1  0  0  0  0
 16 17  1  0  0  0  0
 16 18  1  0  0  0  0
 16 19  1  0  0  0  0
 20 21  1  0  0  0  0
 20 22  1  0  0  0  0
 20 23  1  0  0  0  0
 24 25  2  0  0  0  0
 24 26  1  0  0  0  0
 26 27  1  0  0  0  0
 26 28  1  0  0  0  0
 28 29  1  0  0  0  0
 28 30  1  0  0  0  0
 28 31  1  0  0  0  0
M  END
$$$$

  -OEChem-03222214063D

 31 30  0     1  0  0  0  0  0999 V2000
   -3.4452   -3.8775    1.1956 H   0  0  0  0  0  0  0  0  0  0  0  0
   -3.3653   -2.9111    0.6899 C   0  0  0  0  0  0  0  0  0  0  0  0
   -4.0662   -2.2124    1.1531 H   0  0  0  0  0  0  0  0  0  0  0  0
   -3.6318   -3.0409   -0.3617 H   0  0  0  0  0  0  0  0  0  0  0  0
   -1.9499   -2.3764    0.8028 C   0  0  0  0  0  0  0  0  0  0  0  0
   -1.0976   -3.0250    1.3891 O   0  0  0  0  0  0  0  0  0  0  0  0
   -1.6337   -1.1557    0.2437 N   0  0  0  0  0  0  0  0  0  0  0  0
   -2.3966   -0.6095   -0.1538 H   0  0  0  0  0  0  0  0  0  0  0  0
   -0.3368   -0.4780    0.3854 C   0  0  1  0  0  0  0  0  0  0  0  0
    0.2231   -0.9260    1.2105 H   0  0  0  0  0  0  0  0  0  0  0  0
    0.4201   -0.6532   -0.9493 C   0  0  0  0  0  0  0  0  0  0  0  0
    0.3157   -1.7051   -1.2369 H   0  0  0  0  0  0  0  0  0  0  0  0
   -0.0849   -0.0678   -1.7256 H   0  0  0  0  0  0  0  0  0  0  0  0
    1.9427   -0.3489   -0.9602 C   0  0  0  0  0  0  0  0  0  0  0  0
    2.4022   -1.1145   -1.5951 H   0  0  0  0  0  0  0  0  0  0  0  0
    2.2159    0.9954   -1.6448 C   0  0  0  0  0  0  0  0  0  0  0  0
    1.7604    1.8148   -1.0798 H   0  0  0  0  0  0  0  0  0  0  0  0
    3.2931    1.1772   -1.7125 H   0  0  0  0  0  0  0  0  0  0  0  0
    1.8048    1.0012   -2.6593 H   0  0  0  0  0  0  0  0  0  0  0  0
    2.6606   -0.4282    0.3942 C   0  0  0  0  0  0  0  0  0  0  0  0
    2.4567   -1.3880    0.8792 H   0  0  0  0  0  0  0  0  0  0  0  0
    3.7423   -0.3479    0.2476 H   0  0  0  0  0  0  0  0  0  0  0  0
    2.3521    0.3807    1.0585 H   0  0  0  0  0  0  0  0  0  0  0  0
   -0.5665    1.0149    0.7043 C   0  0  0  0  0  0  0  0  0  0  0  0
   -1.4365    1.6363    0.1033 O   0  0  0  0  0  0  0  0  0  0  0  0
    0.1551    1.6565    1.6940 N   0  0  0  0  0  0  0  0  0  0  0  0
    0.8383    1.1076    2.2078 H   0  0  0  0  0  0  0  0  0  0  0  0
   -0.0402    3.0559    2.0516 C   0  0  0  0  0  0  0  0  0  0  0  0
   -1.0672    3.2248    2.3921 H   0  0  0  0  0  0  0  0  0  0  0  0
    0.6424    3.3387    2.8586 H   0  0  0  0  0  0  0  0  0  0  0  0
    0.1569    3.7023    1.1899 H   0  0  0  0  0  0  0  0  0  0  0  0
  1  2  1  0  0  0  0
  2  3  1  0  0  0  0
  2  4  1  0  0  0  0
  2  5  1  0  0  0  0
  5  6  2  0  0  0  0
  5  7  1  0  0  0  0
  7  8  1  0  0  0  0
  7  9  1  0  0  0  0
  9 10  1  0  0  0  0
  9 11  1  0  0  0  0
  9 24  1  0  0  0  0
 11 12  1  0  0  0  0
 11 13  1  0  0  0  0
 11 14  1  0  0  0  0
 14 15  1  0  0  0  0
 14 16  1  0  0  0  0
 14 20  1  0  0  0  0
 16 17  1  0  0  0  0
 16 18  1  0  0  0  0
 16 19  1  0  0  0  0
 20 21  1  0  0  0  0
 20 22  1  0  0  0  0
 20 23  1  0  0  0  0
 24 25  2  0  0  0  0
 24 26  1  0  0  0  0
 26 27  1  0  0  0  0
 26 28  1  0  0  0  0
 28 29  1  0  0  0  0
 28 30  1  0  0  0  0
 28 31  1  0  0  0  0
M  END
$$$$

  -OEChem-03222214063D

 31 30  0     1  0  0  0  0  0999 V2000
   -3.4338   -3.8906    1.1862 H   0  0  0  0  0  0  0  0  0  0  0  0
   -3.3617   -2.9221    0.6833 C   0  0  0  0  0  0  0  0  0  0  0  0
   -4.0649   -2.2289    1.1511 H   0  0  0  0  0  0  0  0  0  0  0  0
   -3.6309   -3.0500   -0.3679 H   0  0  0  0  0  0  0  0  0  0  0  0
   -1.9494   -2.3793    0.7934 C   0  0  0  0  0  0  0  0  0  0  0  0
   -1.0905   -3.0268    1.3713 O   0  0  0  0  0  0  0  0  0  0  0  0
   -1.6435   -1.1540    0.2387 N   0  0  0  0  0  0  0  0  0  0  0  0
   -2.4120   -0.6105   -0.1512 H   0  0  0  0  0  0  0  0  0  0  0  0
   -0.3494   -0.4701    0.3725 C   0  0  1  0  0  0  0  0  0  0  0  0
    0.2056   -0.9181    1.2009 H   0  0  0  0  0  0  0  0  0  0  0  0
    0.4185   -0.6682   -0.9533 C   0  0  0  0  0  0  0  0  0  0  0  0
    0.3225   -1.7253   -1.2242 H   0  0  0  0  0  0  0  0  0  0  0  0
   -0.0751   -0.0940   -1.7449 H   0  0  0  0  0  0  0  0  0  0  0  0
    1.9363   -0.3544   -0.9490 C   0  0  0  0  0  0  0  0  0  0  0  0
    2.3782   -0.9580   -1.7493 H   0  0  0  0  0  0  0  0  0  0  0  0
    2.2067    1.1125   -1.3083 C   0  0  0  0  0  0  0  0  0  0  0  0
    1.8298    1.7860   -0.5345 H   0  0  0  0  0  0  0  0  0  0  0  0
    3.2826    1.2820   -1.4159 H   0  0  0  0  0  0  0  0  0  0  0  0
    1.7251    1.3699   -2.2568 H   0  0  0  0  0  0  0  0  0  0  0  0
    2.6605   -0.7319    0.3501 C   0  0  0  0  0  0  0  0  0  0  0  0
    2.4356   -1.7679    0.6236 H   0  0  0  0  0  0  0  0  0  0  0  0
    3.7429   -0.6417    0.2153 H   0  0  0  0  0  0  0  0  0  0  0  0
    2.3666   -0.0766    1.1744 H   0  0  0  0  0  0  0  0  0  0  0  0
   -0.5644    1.0206    0.7013 C   0  0  0  0  0  0  0  0  0  0  0  0
   -1.4380    1.6536    0.1185 O   0  0  0  0  0  0  0  0  0  0  0  0
    0.1797    1.6409    1.6881 N   0  0  0  0  0  0  0  0  0  0  0  0
    0.8704    1.0799    2.1783 H   0  0  0  0  0  0  0  0  0  0  0  0
    0.0109    3.0394    2.0617 C   0  0  0  0  0  0  0  0  0  0  0  0
   -1.0081    3.2208    2.4190 H   0  0  0  0  0  0  0  0  0  0  0  0
    0.7094    3.3041    2.8613 H   0  0  0  0  0  0  0  0  0  0  0  0
    0.2052    3.6907    1.2032 H   0  0  0  0  0  0  0  0  0  0  0  0
  1  2  1  0  0  0  0
  2  3  1  0  0  0  0
  2  4  1  0  0  0  0
  2  5  1  0  0  0  0
  5  6  2  0  0  0  0
  5  7  1  0  0  0  0
  7  8  1  0  0  0  0
  7  9  1  0  0  0  0
  9 10  1  0  0  0  0
  9 11  1  0  0  0  0
  9 24  1  0  0  0  0
 11 12  1  0  0  0  0
 11 13  1  0  0  0  0
 11 14  1  0  0  0  0
 14 15  1  0  0  0  0
 14 16  1  0  0  0  0
 14 20  1  0  0  0  0
 16 17  1  0  0  0  0
 16 18  1  0  0  0  0
 16 19  1  0  0  0  0
 20 21  1  0  0  0  0
 20 22  1  0  0  0  0
 20 23  1  0  0  0  0
 24 25  2  0  0  0  0
 24 26  1  0  0  0  0
 26 27  1  0  0  0  0
 26 28  1  0  0  0  0
 28 29  1  0  0  0  0
 28 30  1  0  0  0  0
 28 31  1  0  0  0  0
M  END
$$$$

  -OEChem-03222214063D

 31 30  0     1  0  0  0  0  0999 V2000
   -3.4232   -3.8835    1.1730 H   0  0  0  0  0  0  0  0  0  0  0  0
   -3.3499   -2.9118    0.6767 C   0  0  0  0  0  0  0  0  0  0  0  0
   -4.0550   -2.2221    1.1469 H   0  0  0  0  0  0  0  0  0  0  0  0
   -3.6159   -3.0327   -0.3761 H   0  0  0  0  0  0  0  0  0  0  0  0
   -1.9380   -2.3696    0.7938 C   0  0  0  0  0  0  0  0  0  0  0  0
   -1.0814   -3.0171    1.3752 O   0  0  0  0  0  0  0  0  0  0  0  0
   -1.6299   -1.1428    0.2438 N   0  0  0  0  0  0  0  0  0  0  0  0
   -2.3958   -0.5990   -0.1511 H   0  0  0  0  0  0  0  0  0  0  0  0
   -0.3359   -0.4604    0.3864 C   0  0  1  0  0  0  0  0  0  0  0  0
    0.2231   -0.9046    1.2142 H   0  0  0  0  0  0  0  0  0  0  0  0
    0.4246   -0.6747   -0.9432 C   0  0  0  0  0  0  0  0  0  0  0  0
    0.3113   -1.7287   -1.2198 H   0  0  0  0  0  0  0  0  0  0  0  0
   -0.0641   -0.0875   -1.7282 H   0  0  0  0  0  0  0  0  0  0  0  0
    1.9435   -0.3761   -0.9620 C   0  0  0  0  0  0  0  0  0  0  0  0
    2.3249   -0.7888   -1.9025 H   0  0  0  0  0  0  0  0  0  0  0  0
    2.2622    1.1244   -0.9729 C   0  0  0  0  0  0  0  0  0  0  0  0
    2.1026    1.5757    0.0076 H   0  0  0  0  0  0  0  0  0  0  0  0
    3.3106    1.2799   -1.2457 H   0  0  0  0  0  0  0  0  0  0  0  0
    1.6373    1.6453   -1.7052 H   0  0  0  0  0  0  0  0  0  0  0  0
    2.6969   -1.0643    0.1832 C   0  0  0  0  0  0  0  0  0  0  0  0
    2.4348   -2.1263    0.2280 H   0  0  0  0  0  0  0  0  0  0  0  0
    3.7766   -0.9836    0.0230 H   0  0  0  0  0  0  0  0  0  0  0  0
    2.4609   -0.6040    1.1468 H   0  0  0  0  0  0  0  0  0  0  0  0
   -0.5721    1.0265    0.7184 C   0  0  0  0  0  0  0  0  0  0  0  0
   -1.4443    1.6532    0.1264 O   0  0  0  0  0  0  0  0  0  0  0  0
    0.1555    1.6523    1.7140 N   0  0  0  0  0  0  0  0  0  0  0  0
    0.8482    1.0976    2.2088 H   0  0  0  0  0  0  0  0  0  0  0  0
   -0.0345    3.0473    2.0903 C   0  0  0  0  0  0  0  0  0  0  0  0
   -1.0599    3.2146    2.4361 H   0  0  0  0  0  0  0  0  0  0  0  0
    0.6513    3.3174    2.8988 H   0  0  0  0  0  0  0  0  0  0  0  0
    0.1618    3.7039    1.2363 H   0  0  0  0  0  0  0  0  0  0  0  0
  1  2  1  0  0  0  0
  2  3  1  0  0  0  0
  2  4  1  0  0  0  0
  2  5  1  0  0  0  0
  5  6  2  0  0  0  0
  5  7  1  0  0  0  0
  7  8  1  0  0  0  0
  7  9  1  0  0  0  0
  9 10  1  0  0  0  0
  9 11  1  0  0  0  0
  9 24  1  0  0  0  0
 11 12  1  0  0  0  0
 11 13  1  0  0  0  0
 11 14  1  0  0  0  0
 14 15  1  0  0  0  0
 14 16  1  0  0  0  0
 14 20  1  0  0  0  0
 16 17  1  0  0  0  0
 16 18  1  0  0  0  0
 16 19  1  0  0  0  0
 20 21  1  0  0  0  0
 20 22  1  0  0  0  0
 20 23  1  0  0  0  0
 24 25  2  0  0  0  0
 24 26  1  0  0  0  0
 26 27  1  0  0  0  0
 26 28  1  0  0  0  0
 28 29  1  0  0  0  0
 28 30  1  0  0  0  0
 28 31  1  0  0  0  0
M  END
$$$$

  -OEChem-03222214063D

 31 30  0     1  0  0  0  0  0999 V2000
   -3.4190   -3.8682    1.1766 H   0  0  0  0  0  0  0  0  0  0  0  0
   -3.3420   -2.8970    0.6798 C   0  0  0  0  0  0  0  0  0  0  0  0
   -4.0447   -2.2045    1.1493 H   0  0  0  0  0  0  0  0  0  0  0  0
   -3.6083   -3.0178   -0.3730 H   0  0  0  0  0  0  0  0  0  0  0  0
   -1.9282   -2.3598    0.7984 C   0  0  0  0  0  0  0  0  0  0  0  0
   -1.0755   -3.0100    1.3825 O   0  0  0  0  0  0  0  0  0  0  0  0
   -1.6132   -1.1341    0.2499 N   0  0  0  0  0  0  0  0  0  0  0  0
   -2.3754   -0.5840   -0.1438 H   0  0  0  0  0  0  0  0  0  0  0  0
   -0.3157   -0.4593    0.3989 C   0  0  1  0  0  0  0  0  0  0  0  0
    0.2515   -0.9014    1.2226 H   0  0  0  0  0  0  0  0  0  0  0  0
    0.4329   -0.6757   -0.9384 C   0  0  0  0  0  0  0  0  0  0  0  0
    0.2934   -1.7194   -1.2406 H   0  0  0  0  0  0  0  0  0  0  0  0
   -0.0495   -0.0584   -1.7041 H   0  0  0  0  0  0  0  0  0  0  0  0
    1.9540   -0.3948   -0.9756 C   0  0  0  0  0  0  0  0  0  0  0  0
    2.2769   -0.5773   -2.0063 H   0  0  0  0  0  0  0  0  0  0  0  0
    2.3405    1.0466   -0.6266 C   0  0  0  0  0  0  0  0  0  0  0  0
    2.3164    1.2130    0.4522 H   0  0  0  0  0  0  0  0  0  0  0  0
    3.3584    1.2522   -0.9723 H   0  0  0  0  0  0  0  0  0  0  0  0
    1.6643    1.7565   -1.1135 H   0  0  0  0  0  0  0  0  0  0  0  0
    2.7205   -1.3642   -0.0660 C   0  0  0  0  0  0  0  0  0  0  0  0
    2.4571   -2.3998   -0.3031 H   0  0  0  0  0  0  0  0  0  0  0  0
    3.7987   -1.2433   -0.2106 H   0  0  0  0  0  0  0  0  0  0  0  0
    2.4940   -1.1818    0.9885 H   0  0  0  0  0  0  0  0  0  0  0  0
   -0.5740    1.0262    0.7311 C   0  0  0  0  0  0  0  0  0  0  0  0
   -1.4449    1.6428    0.1264 O   0  0  0  0  0  0  0  0  0  0  0  0
    0.1326    1.6666    1.7326 N   0  0  0  0  0  0  0  0  0  0  0  0
    0.8225    1.1219    2.2422 H   0  0  0  0  0  0  0  0  0  0  0  0
   -0.0824    3.0597    2.1029 C   0  0  0  0  0  0  0  0  0  0  0  0
   -1.1163    3.2146    2.4288 H   0  0  0  0  0  0  0  0  0  0  0  0
    0.5844    3.3397    2.9239 H   0  0  0  0  0  0  0  0  0  0  0  0
    0.1221    3.7176    1.2518 H   0  0  0  0  0  0  0  0  0  0  0  0
  1  2  1  0  0  0  0
  2  3  1  0  0  0  0
  2  4  1  0  0  0  0
  2  5  1  0  0  0  0
  5  6  2  0  0  0  0
  5  7  1  0  0  0  0
  7  8  1  0  0  0  0
  7  9  1  0  0  0  0
  9 10  1  0  0  0  0
  9 11  1  0  0  0  0
  9 24  1  0  0  0  0
 11 12  1  0  0  0  0
 11 13  1  0  0  0  0
 11 14  1  0  0  0  0
 14 15  1  0  0  0  0
 14 16  1  0  0  0  0
 14 20  1  0  0  0  0
 16 17  1  0  0  0  0
 16 18  1  0  0  0  0
 16 19  1  0  0  0  0
 20 21  1  0  0  0  0
 20 22  1  0  0  0  0
 20 23  1  0  0  0  0
 24 25  2  0  0  0  0
 24 26  1  0  0  0  0
 26 27  1  0  0  0  0
 26 28  1  0  0  0  0
 28 29  1  0  0  0  0
 28 30  1  0  0  0  0
 28 31  1  0  0  0  0
M  END
$$$$

  -OEChem-03222214063D

 31 30  0     1  0  0  0  0  0999 V2000
   -3.4139   -3.8615    1.1766 H   0  0  0  0  0  0  0  0  0  0  0  0
   -3.3332   -2.8900    0.6813 C   0  0  0  0  0  0  0  0  0  0  0  0
   -4.0374   -2.1970    1.1479 H   0  0  0  0  0  0  0  0  0  0  0  0
   -3.5942   -3.0099   -0.3729 H   0  0  0  0  0  0  0  0  0  0  0  0
   -1.9192   -2.3547    0.8069 C   0  0  0  0  0  0  0  0  0  0  0  0
   -1.0688   -3.0069    1.3920 O   0  0  0  0  0  0  0  0  0  0  0  0
   -1.6008   -1.1291    0.2609 N   0  0  0  0  0  0  0  0  0  0  0  0
   -2.3604   -0.5765   -0.1347 H   0  0  0  0  0  0  0  0  0  0  0  0
   -0.3005   -0.4598    0.4081 C   0  0  1  0  0  0  0  0  0  0  0  0
    0.2776   -0.9032    1.2245 H   0  0  0  0  0  0  0  0  0  0  0  0
    0.4346   -0.6750   -0.9378 C   0  0  0  0  0  0  0  0  0  0  0  0
    0.2711   -1.7089   -1.2615 H   0  0  0  0  0  0  0  0  0  0  0  0
   -0.0468   -0.0337   -1.6841 H   0  0  0  0  0  0  0  0  0  0  0  0
    1.9589   -0.4049   -0.9933 C   0  0  0  0  0  0  0  0  0  0  0  0
    2.2368   -0.3471   -2.0513 H   0  0  0  0  0  0  0  0  0  0  0  0
    2.4241    0.8881   -0.3173 C   0  0  0  0  0  0  0  0  0  0  0  0
    2.3747    0.8023    0.7710 H   0  0  0  0  0  0  0  0  0  0  0  0
    3.4634    1.0977   -0.5892 H   0  0  0  0  0  0  0  0  0  0  0  0
    1.8117    1.7342   -0.6438 H   0  0  0  0  0  0  0  0  0  0  0  0
    2.7179   -1.5824   -0.3663 C   0  0  0  0  0  0  0  0  0  0  0  0
    2.4715   -2.5154   -0.8829 H   0  0  0  0  0  0  0  0  0  0  0  0
    3.7981   -1.4245   -0.4452 H   0  0  0  0  0  0  0  0  0  0  0  0
    2.4608   -1.6949    0.6914 H   0  0  0  0  0  0  0  0  0  0  0  0
   -0.5728    1.0242    0.7445 C   0  0  0  0  0  0  0  0  0  0  0  0
   -1.4460    1.6349    0.1366 O   0  0  0  0  0  0  0  0  0  0  0  0
    0.1248    1.6730    1.7470 N   0  0  0  0  0  0  0  0  0  0  0  0
    0.8162    1.1345    2.2610 H   0  0  0  0  0  0  0  0  0  0  0  0
   -0.1043    3.0642    2.1163 C   0  0  0  0  0  0  0  0  0  0  0  0
   -1.1420    3.2113    2.4333 H   0  0  0  0  0  0  0  0  0  0  0  0
    0.5532    3.3482    2.9434 H   0  0  0  0  0  0  0  0  0  0  0  0
    0.1025    3.7245    1.2676 H   0  0  0  0  0  0  0  0  0  0  0  0
  1  2  1  0  0  0  0
  2  3  1  0  0  0  0
  2  4  1  0  0  0  0
  2  5  1  0  0  0  0
  5  6  2  0  0  0  0
  5  7  1  0  0  0  0
  7  8  1  0  0  0  0
  7  9  1  0  0  0  0
  9 10  1  0  0  0  0
  9 11  1  0  0  0  0
  9 24  1  0  0  0  0
 11 12  1  0  0  0  0
 11 13  1  0  0  0  0
 11 14  1  0  0  0  0
 14 15  1  0  0  0  0
 14 16  1  0  0  0  0
 14 20  1  0  0  0  0
 16 17  1  0  0  0  0
 16 18  1  0  0  0  0
 16 19  1  0  0  0  0
 20 21  1  0  0  0  0
 20 22  1  0  0  0  0
 20 23  1  0  0  0  0
 24 25  2  0  0  0  0
 24 26  1  0  0  0  0
 26 27  1  0  0  0  0
 26 28  1  0  0  0  0
 28 29  1  0  0  0  0
 28 30  1  0  0  0  0
 28 31  1  0  0  0  0
M  END
$$$$

  -OEChem-03222214063D

 31 30  0     1  0  0  0  0  0999 V2000
   -3.4106   -3.8667    1.1717 H   0  0  0  0  0  0  0  0  0  0  0  0
   -3.3301   -2.8940    0.6785 C   0  0  0  0  0  0  0  0  0  0  0  0
   -4.0359   -2.2028    1.1454 H   0  0  0  0  0  0  0  0  0  0  0  0
   -3.5891   -3.0120   -0.3764 H   0  0  0  0  0  0  0  0  0  0  0  0
   -1.9170   -2.3575    0.8071 C   0  0  0  0  0  0  0  0  0  0  0  0
   -1.0670   -3.0101    1.3922 O   0  0  0  0  0  0  0  0  0  0  0  0
   -1.5986   -1.1309    0.2634 N   0  0  0  0  0  0  0  0  0  0  0  0
   -2.3586   -0.5772   -0.1299 H   0  0  0  0  0  0  0  0  0  0  0  0
   -0.2975   -0.4625    0.4108 C   0  0  1  0  0  0  0  0  0  0  0  0
    0.2828   -0.9109    1.2234 H   0  0  0  0  0  0  0  0  0  0  0  0
    0.4366   -0.6734   -0.9366 C   0  0  0  0  0  0  0  0  0  0  0  0
    0.2567   -1.7000   -1.2745 H   0  0  0  0  0  0  0  0  0  0  0  0
   -0.0430   -0.0190   -1.6724 H   0  0  0  0  0  0  0  0  0  0  0  0
    1.9646   -0.4046   -1.0004 C   0  0  0  0  0  0  0  0  0  0  0  0
    2.2064   -0.1009   -2.0247 H   0  0  0  0  0  0  0  0  0  0  0  0
    2.5028    0.6673   -0.0469 C   0  0  0  0  0  0  0  0  0  0  0  0
    2.3676    0.3713    0.9972 H   0  0  0  0  0  0  0  0  0  0  0  0
    3.5732    0.8188   -0.2181 H   0  0  0  0  0  0  0  0  0  0  0  0
    1.9994    1.6219   -0.2255 H   0  0  0  0  0  0  0  0  0  0  0  0
    2.7146   -1.7109   -0.7018 C   0  0  0  0  0  0  0  0  0  0  0  0
    2.4442   -2.4841   -1.4280 H   0  0  0  0  0  0  0  0  0  0  0  0
    3.7966   -1.5554   -0.7609 H   0  0  0  0  0  0  0  0  0  0  0  0
    2.4697   -2.0763    0.3009 H   0  0  0  0  0  0  0  0  0  0  0  0
   -0.5712    1.0212    0.7508 C   0  0  0  0  0  0  0  0  0  0  0  0
   -1.4467    1.6312    0.1456 O   0  0  0  0  0  0  0  0  0  0  0  0
    0.1252    1.6711    1.7540 N   0  0  0  0  0  0  0  0  0  0  0  0
    0.8196    1.1349    2.2663 H   0  0  0  0  0  0  0  0  0  0  0  0
   -0.1083    3.0613    2.1248 C   0  0  0  0  0  0  0  0  0  0  0  0
   -1.1455    3.2041    2.4458 H   0  0  0  0  0  0  0  0  0  0  0  0
    0.5510    3.3483    2.9496 H   0  0  0  0  0  0  0  0  0  0  0  0
    0.0926    3.7224    1.2754 H   0  0  0  0  0  0  0  0  0  0  0  0
  1  2  1  0  0  0  0
  2  3  1  0  0  0  0
  2  4  1  0  0  0  0
  2  5  1  0  0  0  0
  5  6  2  0  0  0  0
  5  7  1  0  0  0  0
  7  8  1  0  0  0  0
  7  9  1  0  0  0  0
  9 10  1  0  0  0  0
  9 11  1  0  0  0  0
  9 24  1  0  0  0  0
 11 12  1  0  0  0  0
 11 13  1  0  0  0  0
 11 14  1  0  0  0  0
 14 15  1  0  0  0  0
 14 16  1  0  0  0  0
 14 20  1  0  0  0  0
 16 17  1  0  0  0  0
 16 18  1  0  0  0  0
 16 19  1  0  0  0  0
 20 21  1  0  0  0  0
 20 22  1  0  0  0  0
 20 23  1  0  0  0  0
 24 25  2  0  0  0  0
 24 26  1  0  0  0  0
 26 27  1  0  0  0  0
 26 28  1  0  0  0  0
 28 29  1  0  0  0  0
 28 30  1  0  0  0  0
 28 31  1  0  0  0  0
M  END
$$$$

  -OEChem-03222214063D

 31 30  0     1  0  0  0  0  0999 V2000
   -3.4194   -3.8712    1.1660 H   0  0  0  0  0  0  0  0  0  0  0  0
   -3.3381   -2.8988    0.6723 C   0  0  0  0  0  0  0  0  0  0  0  0
   -4.0430   -2.2067    1.1390 H   0  0  0  0  0  0  0  0  0  0  0  0
   -3.5973   -3.0161   -0.3826 H   0  0  0  0  0  0  0  0  0  0  0  0
   -1.9244   -2.3638    0.8015 C   0  0  0  0  0  0  0  0  0  0  0  0
   -1.0764   -3.0160    1.3902 O   0  0  0  0  0  0  0  0  0  0  0  0
   -1.6052   -1.1371    0.2579 N   0  0  0  0  0  0  0  0  0  0  0  0
   -2.3648   -0.5851   -0.1384 H   0  0  0  0  0  0  0  0  0  0  0  0
   -0.3065   -0.4649    0.4117 C   0  0  1  0  0  0  0  0  0  0  0  0
    0.2616   -0.9166    1.2303 H   0  0  0  0  0  0  0  0  0  0  0  0
    0.4402   -0.6767   -0.9277 C   0  0  0  0  0  0  0  0  0  0  0  0
    0.2595   -1.7065   -1.2555 H   0  0  0  0  0  0  0  0  0  0  0  0
   -0.0390   -0.0315   -1.6722 H   0  0  0  0  0  0  0  0  0  0  0  0
    1.9718   -0.4038   -0.9904 C   0  0  0  0  0  0  0  0  0  0  0  0
    2.1762    0.1451   -1.9162 H   0  0  0  0  0  0  0  0  0  0  0  0
    2.5790    0.3934    0.1717 C   0  0  0  0  0  0  0  0  0  0  0  0
    2.3801   -0.0860    1.1342 H   0  0  0  0  0  0  0  0  0  0  0  0
    3.6643    0.4683    0.0508 H   0  0  0  0  0  0  0  0  0  0  0  0
    2.1822    1.4116    0.1786 H   0  0  0  0  0  0  0  0  0  0  0  0
    2.7157   -1.7458   -1.0661 C   0  0  0  0  0  0  0  0  0  0  0  0
    2.3922   -2.3162   -1.9426 H   0  0  0  0  0  0  0  0  0  0  0  0
    3.7951   -1.5849   -1.1495 H   0  0  0  0  0  0  0  0  0  0  0  0
    2.5210   -2.3442   -0.1699 H   0  0  0  0  0  0  0  0  0  0  0  0
   -0.5712    1.0201    0.7480 C   0  0  0  0  0  0  0  0  0  0  0  0
   -1.4461    1.6332    0.1452 O   0  0  0  0  0  0  0  0  0  0  0  0
    0.1277    1.6637    1.7531 N   0  0  0  0  0  0  0  0  0  0  0  0
    0.8210    1.1234    2.2626 H   0  0  0  0  0  0  0  0  0  0  0  0
   -0.0991    3.0539    2.1273 C   0  0  0  0  0  0  0  0  0  0  0  0
   -1.1349    3.2002    2.4510 H   0  0  0  0  0  0  0  0  0  0  0  0
    0.5635    3.3364    2.9510 H   0  0  0  0  0  0  0  0  0  0  0  0
    0.1026    3.7157    1.2785 H   0  0  0  0  0  0  0  0  0  0  0  0
  1  2  1  0  0  0  0
  2  3  1  0  0  0  0
  2  4  1  0  0  0  0
  2  5  1  0  0  0  0
  5  6  2  0  0  0  0
  5  7  1  0  0  0  0
  7  8  1  0  0  0  0
  7  9  1  0  0  0  0
  9 10  1  0  0  0  0
  9 11  1  0  0  0  0
  9 24  1  0  0  0  0
 11 12  1  0  0  0  0
 11 13  1  0  0  0  0
 11 14  1  0  0  0  0
 14 15  1  0  0  0  0
 14 16  1  0  0  0  0
 14 20  1  0  0  0  0
 16 17  1  0  0  0  0
 16 18  1  0  0  0  0
 16 19  1  0  0  0  0
 20 21  1  0  0  0  0
 20 22  1  0  0  0  0
 20 23  1  0  0  0  0
 24 25  2  0  0  0  0
 24 26  1  0  0  0  0
 26 27  1  0  0  0  0
 26 28  1  0  0  0  0
 28 29  1  0  0  0  0
 28 30  1  0  0  0  0
 28 31  1  0  0  0  0
M  END
$$$$

  -OEChem-03222214063D

 31 30  0     1  0  0  0  0  0999 V2000
   -3.4456   -3.8625    1.1586 H   0  0  0  0  0  0  0  0  0  0  0  0
   -3.3546   -2.8909    0.6649 C   0  0  0  0  0  0  0  0  0  0  0  0
   -4.0633   -2.1956    1.1214 H   0  0  0  0  0  0  0  0  0  0  0  0
   -3.6001   -3.0090   -0.3933 H   0  0  0  0  0  0  0  0  0  0  0  0
   -1.9408   -2.3609    0.8116 C   0  0  0  0  0  0  0  0  0  0  0  0
   -1.1044   -3.0126    1.4169 O   0  0  0  0  0  0  0  0  0  0  0  0
   -1.6077   -1.1413    0.2609 N   0  0  0  0  0  0  0  0  0  0  0  0
   -2.3593   -0.5892   -0.1500 H   0  0  0  0  0  0  0  0  0  0  0  0
   -0.3067   -0.4754    0.4226 C   0  0  1  0  0  0  0  0  0  0  0  0
    0.2478   -0.9265    1.2502 H   0  0  0  0  0  0  0  0  0  0  0  0
    0.4492   -0.6843   -0.9118 C   0  0  0  0  0  0  0  0  0  0  0  0
    0.2764   -1.7226   -1.2161 H   0  0  0  0  0  0  0  0  0  0  0  0
   -0.0290   -0.0590   -1.6737 H   0  0  0  0  0  0  0  0  0  0  0  0
    1.9834   -0.4171   -0.9669 C   0  0  0  0  0  0  0  0  0  0  0  0
    2.1485    0.3724   -1.7083 H   0  0  0  0  0  0  0  0  0  0  0  0
    2.6563    0.0441    0.3342 C   0  0  0  0  0  0  0  0  0  0  0  0
    2.4539   -0.6498    1.1550 H   0  0  0  0  0  0  0  0  0  0  0  0
    3.7411    0.0968    0.1983 H   0  0  0  0  0  0  0  0  0  0  0  0
    2.3186    1.0447    0.6073 H   0  0  0  0  0  0  0  0  0  0  0  0
    2.7066   -1.6776   -1.4628 C   0  0  0  0  0  0  0  0  0  0  0  0
    2.3086   -1.9900   -2.4335 H   0  0  0  0  0  0  0  0  0  0  0  0
    3.7775   -1.4859   -1.5821 H   0  0  0  0  0  0  0  0  0  0  0  0
    2.5773   -2.4996   -0.7511 H   0  0  0  0  0  0  0  0  0  0  0  0
   -0.5601    1.0147    0.7429 C   0  0  0  0  0  0  0  0  0  0  0  0
   -1.4228    1.6293    0.1241 O   0  0  0  0  0  0  0  0  0  0  0  0
    0.1332    1.6635    1.7481 N   0  0  0  0  0  0  0  0  0  0  0  0
    0.8123    1.1215    2.2748 H   0  0  0  0  0  0  0  0  0  0  0  0
   -0.0936    3.0569    2.1116 C   0  0  0  0  0  0  0  0  0  0  0  0
   -1.1314    3.2071    2.4272 H   0  0  0  0  0  0  0  0  0  0  0  0
    0.5636    3.3439    2.9381 H   0  0  0  0  0  0  0  0  0  0  0  0
    0.1148    3.7132    1.2602 H   0  0  0  0  0  0  0  0  0  0  0  0
  1  2  1  0  0  0  0
  2  3  1  0  0  0  0
  2  4  1  0  0  0  0
  2  5  1  0  0  0  0
  5  6  2  0  0  0  0
  5  7  1  0  0  0  0
  7  8  1  0  0  0  0
  7  9  1  0  0  0  0
  9 10  1  0  0  0  0
  9 11  1  0  0  0  0
  9 24  1  0  0  0  0
 11 12  1  0  0  0  0
 11 13  1  0  0  0  0
 11 14  1  0  0  0  0
 14 15  1  0  0  0  0
 14 16  1  0  0  0  0
 14 20  1  0  0  0  0
 16 17  1  0  0  0  0
 16 18  1  0  0  0  0
 16 19  1  0  0  0  0
 20 21  1  0  0  0  0
 20 22  1  0  0  0  0
 20 23  1  0  0  0  0
 24 25  2  0  0  0  0
 24 26  1  0  0  0  0
 26 27  1  0  0  0  0
 26 28  1  0  0  0  0
 28 29  1  0  0  0  0
 28 30  1  0  0  0  0
 28 31  1  0  0  0  0
M  END
$$$$

  -OEChem-03222214063D

 31 30  0     1  0  0  0  0  0999 V2000
   -3.4708   -3.8521    1.1770 H   0  0  0  0  0  0  0  0  0  0  0  0
   -3.3730   -2.8853    0.6755 C   0  0  0  0  0  0  0  0  0  0  0  0
   -4.0755   -2.1813    1.1280 H   0  0  0  0  0  0  0  0  0  0  0  0
   -3.6217   -3.0097   -0.3811 H   0  0  0  0  0  0  0  0  0  0  0  0
   -1.9546   -2.3653    0.8150 C   0  0  0  0  0  0  0  0  0  0  0  0
   -1.1216   -3.0202    1.4217 O   0  0  0  0  0  0  0  0  0  0  0  0
   -1.6129   -1.1516    0.2562 N   0  0  0  0  0  0  0  0  0  0  0  0
   -2.3609   -0.5966   -0.1574 H   0  0  0  0  0  0  0  0  0  0  0  0
   -0.3075   -0.4935    0.4129 C   0  0  1  0  0  0  0  0  0  0  0  0
    0.2425   -0.9455    1.2429 H   0  0  0  0  0  0  0  0  0  0  0  0
    0.4507   -0.6909   -0.9199 C   0  0  0  0  0  0  0  0  0  0  0  0
    0.2957   -1.7360   -1.2101 H   0  0  0  0  0  0  0  0  0  0  0  0
   -0.0253   -0.0783   -1.6935 H   0  0  0  0  0  0  0  0  0  0  0  0
    1.9820   -0.4213   -0.9490 C   0  0  0  0  0  0  0  0  0  0  0  0
    2.1258    0.5493   -1.4365 H   0  0  0  0  0  0  0  0  0  0  0  0
    2.6844   -0.3309    0.4139 C   0  0  0  0  0  0  0  0  0  0  0  0
    2.5087   -1.2376    1.0012 H   0  0  0  0  0  0  0  0  0  0  0  0
    3.7643   -0.2206    0.2736 H   0  0  0  0  0  0  0  0  0  0  0  0
    2.3409    0.5355    0.9788 H   0  0  0  0  0  0  0  0  0  0  0  0
    2.6813   -1.4833   -1.8078 C   0  0  0  0  0  0  0  0  0  0  0  0
    2.2331   -1.5218   -2.8056 H   0  0  0  0  0  0  0  0  0  0  0  0
    3.7440   -1.2469   -1.9201 H   0  0  0  0  0  0  0  0  0  0  0  0
    2.5927   -2.4722   -1.3464 H   0  0  0  0  0  0  0  0  0  0  0  0
   -0.5388    1.0022    0.7237 C   0  0  0  0  0  0  0  0  0  0  0  0
   -1.3952    1.6241    0.1035 O   0  0  0  0  0  0  0  0  0  0  0  0
    0.1659    1.6484    1.7224 N   0  0  0  0  0  0  0  0  0  0  0  0
    0.8298    1.0978    2.2593 H   0  0  0  0  0  0  0  0  0  0  0  0
   -0.0439    3.0459    2.0791 C   0  0  0  0  0  0  0  0  0  0  0  0
   -1.0754    3.2067    2.4097 H   0  0  0  0  0  0  0  0  0  0  0  0
    0.6291    3.3333    2.8926 H   0  0  0  0  0  0  0  0  0  0  0  0
    0.1561    3.6942    1.2196 H   0  0  0  0  0  0  0  0  0  0  0  0
  1  2  1  0  0  0  0
  2  3  1  0  0  0  0
  2  4  1  0  0  0  0
  2  5  1  0  0  0  0
  5  6  2  0  0  0  0
  5  7  1  0  0  0  0
  7  8  1  0  0  0  0
  7  9  1  0  0  0  0
  9 10  1  0  0  0  0
  9 11  1  0  0  0  0
  9 24  1  0  0  0  0
 11 12  1  0  0  0  0
 11 13  1  0  0  0  0
 11 14  1  0  0  0  0
 14 15  1  0  0  0  0
 14 16  1  0  0  0  0
 14 20  1  0  0  0  0
 16 17  1  0  0  0  0
 16 18  1  0  0  0  0
 16 19  1  0  0  0  0
 20 21  1  0  0  0  0
 20 22  1  0  0  0  0
 20 23  1  0  0  0  0
 24 25  2  0  0  0  0
 24 26  1  0  0  0  0
 26 27  1  0  0  0  0
 26 28  1  0  0  0  0
 28 29  1  0  0  0  0
 28 30  1  0  0  0  0
 28 31  1  0  0  0  0
M  END
$$$$

  -OEChem-03222214063D

 31 30  0     1  0  0  0  0  0999 V2000
   -3.4716   -3.8684    1.2027 H   0  0  0  0  0  0  0  0  0  0  0  0
   -3.3815   -2.9042    0.6948 C   0  0  0  0  0  0  0  0  0  0  0  0
   -4.0760   -2.1974    1.1552 H   0  0  0  0  0  0  0  0  0  0  0  0
   -3.6476   -3.0338   -0.3569 H   0  0  0  0  0  0  0  0  0  0  0  0
   -1.9610   -2.3836    0.8083 C   0  0  0  0  0  0  0  0  0  0  0  0
   -1.1169   -3.0383    1.3998 O   0  0  0  0  0  0  0  0  0  0  0  0
   -1.6322   -1.1682    0.2448 N   0  0  0  0  0  0  0  0  0  0  0  0
   -2.3893   -0.6169   -0.1565 H   0  0  0  0  0  0  0  0  0  0  0  0
   -0.3268   -0.5056    0.3772 C   0  0  1  0  0  0  0  0  0  0  0  0
    0.2238   -0.9625    1.2035 H   0  0  0  0  0  0  0  0  0  0  0  0
    0.4337   -0.6949   -0.9528 C   0  0  0  0  0  0  0  0  0  0  0  0
    0.3044   -1.7440   -1.2410 H   0  0  0  0  0  0  0  0  0  0  0  0
   -0.0414   -0.0892   -1.7322 H   0  0  0  0  0  0  0  0  0  0  0  0
    1.9565   -0.4006   -0.9439 C   0  0  0  0  0  0  0  0  0  0  0  0
    2.0835    0.6648   -1.1656 H   0  0  0  0  0  0  0  0  0  0  0  0
    2.6676   -0.6613    0.3929 C   0  0  0  0  0  0  0  0  0  0  0  0
    2.4880   -1.6884    0.7272 H   0  0  0  0  0  0  0  0  0  0  0  0
    3.7472   -0.5197    0.2812 H   0  0  0  0  0  0  0  0  0  0  0  0
    2.3243    0.0280    1.1666 H   0  0  0  0  0  0  0  0  0  0  0  0
    2.6429   -1.1994   -2.0583 C   0  0  0  0  0  0  0  0  0  0  0  0
    2.1678   -0.9934   -3.0227 H   0  0  0  0  0  0  0  0  0  0  0  0
    3.6995   -0.9235   -2.1319 H   0  0  0  0  0  0  0  0  0  0  0  0
    2.5782   -2.2740   -1.8597 H   0  0  0  0  0  0  0  0  0  0  0  0
   -0.5199    0.9921    0.6939 C   0  0  0  0  0  0  0  0  0  0  0  0
   -1.3846    1.6304    0.1034 O   0  0  0  0  0  0  0  0  0  0  0  0
    0.2265    1.6159    1.6765 N   0  0  0  0  0  0  0  0  0  0  0  0
    0.8948    1.0485    2.1899 H   0  0  0  0  0  0  0  0  0  0  0  0
    0.0538    3.0144    2.0493 C   0  0  0  0  0  0  0  0  0  0  0  0
   -0.9631    3.1912    2.4152 H   0  0  0  0  0  0  0  0  0  0  0  0
    0.7584    3.2839    2.8420 H   0  0  0  0  0  0  0  0  0  0  0  0
    0.2370    3.6659    1.1884 H   0  0  0  0  0  0  0  0  0  0  0  0
  1  2  1  0  0  0  0
  2  3  1  0  0  0  0
  2  4  1  0  0  0  0
  2  5  1  0  0  0  0
  5  6  2  0  0  0  0
  5  7  1  0  0  0  0
  7  8  1  0  0  0  0
  7  9  1  0  0  0  0
  9 10  1  0  0  0  0
  9 11  1  0  0  0  0
  9 24  1  0  0  0  0
 11 12  1  0  0  0  0
 11 13  1  0  0  0  0
 11 14  1  0  0  0  0
 14 15  1  0  0  0  0
 14 16  1  0  0  0  0
 14 20  1  0  0  0  0
 16 17  1  0  0  0  0
 16 18  1  0  0  0  0
 16 19  1  0  0  0  0
 20 21  1  0  0  0  0
 20 22  1  0  0  0  0
 20 23  1  0  0  0  0
 24 25  2  0  0  0  0
 24 26  1  0  0  0  0
 26 27  1  0  0  0  0
 26 28  1  0  0  0  0
 28 29  1  0  0  0  0
 28 30  1  0  0  0  0
 28 31  1  0  0  0  0
M  END
$$$$

  -OEChem-03222214063D

 31 30  0     1  0  0  0  0  0999 V2000
   -3.4475   -3.8964    1.2143 H   0  0  0  0  0  0  0  0  0  0  0  0
   -3.3719   -2.9328    0.7025 C   0  0  0  0  0  0  0  0  0  0  0  0
   -4.0667   -2.2304    1.1694 H   0  0  0  0  0  0  0  0  0  0  0  0
   -3.6505   -3.0678   -0.3453 H   0  0  0  0  0  0  0  0  0  0  0  0
   -1.9546   -2.4000    0.7965 C   0  0  0  0  0  0  0  0  0  0  0  0
   -1.0954   -3.0509    1.3701 O   0  0  0  0  0  0  0  0  0  0  0  0
   -1.6466   -1.1782    0.2351 N   0  0  0  0  0  0  0  0  0  0  0  0
   -2.4145   -0.6346   -0.1555 H   0  0  0  0  0  0  0  0  0  0  0  0
   -0.3450   -0.5049    0.3451 C   0  0  1  0  0  0  0  0  0  0  0  0
    0.2126   -0.9635    1.1653 H   0  0  0  0  0  0  0  0  0  0  0  0
    0.4118   -0.6928   -0.9847 C   0  0  0  0  0  0  0  0  0  0  0  0
    0.3021   -1.7424   -1.2792 H   0  0  0  0  0  0  0  0  0  0  0  0
   -0.0660   -0.0863   -1.7618 H   0  0  0  0  0  0  0  0  0  0  0  0
    1.9246   -0.3714   -0.9456 C   0  0  0  0  0  0  0  0  0  0  0  0
    2.0401    0.7175   -0.9124 H   0  0  0  0  0  0  0  0  0  0  0  0
    2.6597   -0.9519    0.2720 C   0  0  0  0  0  0  0  0  0  0  0  0
    2.4451   -2.0206    0.3757 H   0  0  0  0  0  0  0  0  0  0  0  0
    3.7410   -0.8255    0.1587 H   0  0  0  0  0  0  0  0  0  0  0  0
    2.3631   -0.4407    1.1915 H   0  0  0  0  0  0  0  0  0  0  0  0
    2.5808   -0.8799   -2.2343 C   0  0  0  0  0  0  0  0  0  0  0  0
    2.0831   -0.4517   -3.1102 H   0  0  0  0  0  0  0  0  0  0  0  0
    3.6360   -0.5912   -2.2660 H   0  0  0  0  0  0  0  0  0  0  0  0
    2.5178   -1.9711   -2.2960 H   0  0  0  0  0  0  0  0  0  0  0  0
   -0.5127    0.9906    0.6750 C   0  0  0  0  0  0  0  0  0  0  0  0
   -1.3829    1.6456    0.1123 O   0  0  0  0  0  0  0  0  0  0  0  0
    0.2710    1.5894    1.6439 N   0  0  0  0  0  0  0  0  0  0  0  0
    0.9482    1.0065    2.1273 H   0  0  0  0  0  0  0  0  0  0  0  0
    0.1342    2.9868    2.0340 C   0  0  0  0  0  0  0  0  0  0  0  0
   -0.8690    3.1780    2.4292 H   0  0  0  0  0  0  0  0  0  0  0  0
    0.8649    3.2364    2.8093 H   0  0  0  0  0  0  0  0  0  0  0  0
    0.3056    3.6423    1.1738 H   0  0  0  0  0  0  0  0  0  0  0  0
  1  2  1  0  0  0  0
  2  3  1  0  0  0  0
  2  4  1  0  0  0  0
  2  5  1  0  0  0  0
  5  6  2  0  0  0  0
  5  7  1  0  0  0  0
  7  8  1  0  0  0  0
  7  9  1  0  0  0  0
  9 10  1  0  0  0  0
  9 11  1  0  0  0  0
  9 24  1  0  0  0  0
 11 12  1  0  0  0  0
 11 13  1  0  0  0  0
 11 14  1  0  0  0  0
 14 15  1  0  0  0  0
 14 16  1  0  0  0  0
 14 20  1  0  0  0  0
 16 17  1  0  0  0  0
 16 18  1  0  0  0  0
 16 19  1  0  0  0  0
 20 21  1  0  0  0  0
 20 22  1  0  0  0  0
 20 23  1  0  0  0  0
 24 25  2  0  0  0  0
 24 26  1  0  0  0  0
 26 27  1  0  0  0  0
 26 28  1  0  0  0  0
 28 29  1  0  0  0  0
 28 30  1  0  0  0  0
 28 31  1  0  0  0  0
M  END
$$$$

  -OEChem-03222214063D

 31 30  0     1  0  0  0  0  0999 V2000
   -3.4209   -3.9035    1.2278 H   0  0  0  0  0  0  0  0  0  0  0  0
   -3.3557   -2.9399    0.7149 C   0  0  0  0  0  0  0  0  0  0  0  0
   -4.0445   -2.2392    1.1928 H   0  0  0  0  0  0  0  0  0  0  0  0
   -3.6499   -3.0754   -0.3286 H   0  0  0  0  0  0  0  0  0  0  0  0
   -1.9383   -2.4040    0.7865 C   0  0  0  0  0  0  0  0  0  0  0  0
   -1.0670   -3.0576    1.3384 O   0  0  0  0  0  0  0  0  0  0  0  0
   -1.6435   -1.1774    0.2284 N   0  0  0  0  0  0  0  0  0  0  0  0
   -2.4200   -0.6313   -0.1413 H   0  0  0  0  0  0  0  0  0  0  0  0
   -0.3426   -0.5015    0.3250 C   0  0  1  0  0  0  0  0  0  0  0  0
    0.2281   -0.9593    1.1362 H   0  0  0  0  0  0  0  0  0  0  0  0
    0.4020   -0.6866   -1.0108 C   0  0  0  0  0  0  0  0  0  0  0  0
    0.2943   -1.7302   -1.3265 H   0  0  0  0  0  0  0  0  0  0  0  0
   -0.0796   -0.0648   -1.7735 H   0  0  0  0  0  0  0  0  0  0  0  0
    1.9094   -0.3545   -0.9535 C   0  0  0  0  0  0  0  0  0  0  0  0
    2.0335    0.6954   -0.6675 H   0  0  0  0  0  0  0  0  0  0  0  0
    2.6747   -1.2285    0.0524 C   0  0  0  0  0  0  0  0  0  0  0  0
    2.4569   -2.2884   -0.1150 H   0  0  0  0  0  0  0  0  0  0  0  0
    3.7533   -1.0760   -0.0538 H   0  0  0  0  0  0  0  0  0  0  0  0
    2.4057   -0.9738    1.0808 H   0  0  0  0  0  0  0  0  0  0  0  0
    2.5151   -0.5428   -2.3492 C   0  0  0  0  0  0  0  0  0  0  0  0
    2.0011    0.0923   -3.0775 H   0  0  0  0  0  0  0  0  0  0  0  0
    3.5748   -0.2693   -2.3464 H   0  0  0  0  0  0  0  0  0  0  0  0
    2.4261   -1.5851   -2.6722 H   0  0  0  0  0  0  0  0  0  0  0  0
   -0.5105    0.9910    0.6672 C   0  0  0  0  0  0  0  0  0  0  0  0
   -1.3917    1.6466    0.1229 O   0  0  0  0  0  0  0  0  0  0  0  0
    0.2856    1.5842    1.6296 N   0  0  0  0  0  0  0  0  0  0  0  0
    0.9752    1.0006    2.0947 H   0  0  0  0  0  0  0  0  0  0  0  0
    0.1508    2.9781    2.0333 C   0  0  0  0  0  0  0  0  0  0  0  0
   -0.8476    3.1638    2.4431 H   0  0  0  0  0  0  0  0  0  0  0  0
    0.8909    3.2226    2.8013 H   0  0  0  0  0  0  0  0  0  0  0  0
    0.3097    3.6417    1.1768 H   0  0  0  0  0  0  0  0  0  0  0  0
  1  2  1  0  0  0  0
  2  3  1  0  0  0  0
  2  4  1  0  0  0  0
  2  5  1  0  0  0  0
  5  6  2  0  0  0  0
  5  7  1  0  0  0  0
  7  8  1  0  0  0  0
  7  9  1  0  0  0  0
  9 10  1  0  0  0  0
  9 11  1  0  0  0  0
  9 24  1  0  0  0  0
 11 12  1  0  0  0  0
 11 13  1  0  0  0  0
 11 14  1  0  0  0  0
 14 15  1  0  0  0  0
 14 16  1  0  0  0  0
 14 20  1  0  0  0  0
 16 17  1  0  0  0  0
 16 18  1  0  0  0  0
 16 19  1  0  0  0  0
 20 21  1  0  0  0  0
 20 22  1  0  0  0  0
 20 23  1  0  0  0  0
 24 25  2  0  0  0  0
 24 26  1  0  0  0  0
 26 27  1  0  0  0  0
 26 28  1  0  0  0  0
 28 29  1  0  0  0  0
 28 30  1  0  0  0  0
 28 31  1  0  0  0  0
M  END
$$$$

  -OEChem-03222214063D

 31 30  0     1  0  0  0  0  0999 V2000
   -3.3991   -3.9045    1.2439 H   0  0  0  0  0  0  0  0  0  0  0  0
   -3.3395   -2.9421    0.7281 C   0  0  0  0  0  0  0  0  0  0  0  0
   -4.0264   -2.2416    1.2088 H   0  0  0  0  0  0  0  0  0  0  0  0
   -3.6404   -3.0809   -0.3131 H   0  0  0  0  0  0  0  0  0  0  0  0
   -1.9230   -2.4030    0.7894 C   0  0  0  0  0  0  0  0  0  0  0  0
   -1.0454   -3.0550    1.3334 O   0  0  0  0  0  0  0  0  0  0  0  0
   -1.6346   -1.1750    0.2314 N   0  0  0  0  0  0  0  0  0  0  0  0
   -2.4147   -0.6279   -0.1293 H   0  0  0  0  0  0  0  0  0  0  0  0
   -0.3325   -0.4999    0.3179 C   0  0  1  0  0  0  0  0  0  0  0  0
    0.2568   -0.9549    1.1184 H   0  0  0  0  0  0  0  0  0  0  0  0
    0.3940   -0.6827   -1.0275 C   0  0  0  0  0  0  0  0  0  0  0  0
    0.2793   -1.7192   -1.3631 H   0  0  0  0  0  0  0  0  0  0  0  0
   -0.0934   -0.0455   -1.7736 H   0  0  0  0  0  0  0  0  0  0  0  0
    1.8993   -0.3480   -0.9602 C   0  0  0  0  0  0  0  0  0  0  0  0
    2.0463    0.5980   -0.4291 H   0  0  0  0  0  0  0  0  0  0  0  0
    2.6903   -1.4552   -0.2476 C   0  0  0  0  0  0  0  0  0  0  0  0
    2.5422   -2.4182   -0.7468 H   0  0  0  0  0  0  0  0  0  0  0  0
    3.7598   -1.2228   -0.2551 H   0  0  0  0  0  0  0  0  0  0  0  0
    2.3752   -1.5545    0.7945 H   0  0  0  0  0  0  0  0  0  0  0  0
    2.4455   -0.1838   -2.3831 C   0  0  0  0  0  0  0  0  0  0  0  0
    1.9268    0.6299   -2.8997 H   0  0  0  0  0  0  0  0  0  0  0  0
    3.5133    0.0548   -2.3577 H   0  0  0  0  0  0  0  0  0  0  0  0
    2.3084   -1.1047   -2.9590 H   0  0  0  0  0  0  0  0  0  0  0  0
   -0.5084    0.9913    0.6661 C   0  0  0  0  0  0  0  0  0  0  0  0
   -1.3966    1.6432    0.1286 O   0  0  0  0  0  0  0  0  0  0  0  0
    0.2900    1.5881    1.6245 N   0  0  0  0  0  0  0  0  0  0  0  0
    0.9843    1.0079    2.0868 H   0  0  0  0  0  0  0  0  0  0  0  0
    0.1489    2.9809    2.0301 C   0  0  0  0  0  0  0  0  0  0  0  0
   -0.8486    3.1603    2.4447 H   0  0  0  0  0  0  0  0  0  0  0  0
    0.8911    3.2292    2.7950 H   0  0  0  0  0  0  0  0  0  0  0  0
    0.2998    3.6465    1.1737 H   0  0  0  0  0  0  0  0  0  0  0  0
  1  2  1  0  0  0  0
  2  3  1  0  0  0  0
  2  4  1  0  0  0  0
  2  5  1  0  0  0  0
  5  6  2  0  0  0  0
  5  7  1  0  0  0  0
  7  8  1  0  0  0  0
  7  9  1  0  0  0  0
  9 10  1  0  0  0  0
  9 11  1  0  0  0  0
  9 24  1  0  0  0  0
 11 12  1  0  0  0  0
 11 13  1  0  0  0  0
 11 14  1  0  0  0  0
 14 15  1  0  0  0  0
 14 16  1  0  0  0  0
 14 20  1  0  0  0  0
 16 17  1  0  0  0  0
 16 18  1  0  0  0  0
 16 19  1  0  0  0  0
 20 21  1  0  0  0  0
 20 22  1  0  0  0  0
 20 23  1  0  0  0  0
 24 25  2  0  0  0  0
 24 26  1  0  0  0  0
 26 27  1  0  0  0  0
 26 28  1  0  0  0  0
 28 29  1  0  0  0  0
 28 30  1  0  0  0  0
 28 31  1  0  0  0  0
M  END
$$$$

  -OEChem-03222214063D

 31 30  0     1  0  0  0  0  0999 V2000
   -3.3846   -3.9072    1.2536 H   0  0  0  0  0  0  0  0  0  0  0  0
   -3.3283   -2.9449    0.7375 C   0  0  0  0  0  0  0  0  0  0  0  0
   -4.0137   -2.2450    1.2214 H   0  0  0  0  0  0  0  0  0  0  0  0
   -3.6340   -3.0841   -0.3023 H   0  0  0  0  0  0  0  0  0  0  0  0
   -1.9119   -2.4047    0.7919 C   0  0  0  0  0  0  0  0  0  0  0  0
   -1.0298   -3.0571    1.3280 O   0  0  0  0  0  0  0  0  0  0  0  0
   -1.6282   -1.1756    0.2339 N   0  0  0  0  0  0  0  0  0  0  0  0
   -2.4109   -0.6281   -0.1205 H   0  0  0  0  0  0  0  0  0  0  0  0
   -0.3259   -0.5004    0.3118 C   0  0  1  0  0  0  0  0  0  0  0  0
    0.2795   -0.9570    1.1011 H   0  0  0  0  0  0  0  0  0  0  0  0
    0.3867   -0.6830   -1.0398 C   0  0  0  0  0  0  0  0  0  0  0  0
    0.2646   -1.7153   -1.3857 H   0  0  0  0  0  0  0  0  0  0  0  0
   -0.1064   -0.0390   -1.7762 H   0  0  0  0  0  0  0  0  0  0  0  0
    1.8914   -0.3446   -0.9633 C   0  0  0  0  0  0  0  0  0  0  0  0
    2.0696    0.4348   -0.2162 H   0  0  0  0  0  0  0  0  0  0  0  0
    2.7022   -1.5939   -0.5956 C   0  0  0  0  0  0  0  0  0  0  0  0
    2.5824   -2.3737   -1.3547 H   0  0  0  0  0  0  0  0  0  0  0  0
    3.7657   -1.3480   -0.5167 H   0  0  0  0  0  0  0  0  0  0  0  0
    2.3707   -1.9950    0.3672 H   0  0  0  0  0  0  0  0  0  0  0  0
    2.3757    0.1799   -2.3197 C   0  0  0  0  0  0  0  0  0  0  0  0
    1.8445    1.0997   -2.5840 H   0  0  0  0  0  0  0  0  0  0  0  0
    3.4465    0.4030   -2.2824 H   0  0  0  0  0  0  0  0  0  0  0  0
    2.2016   -0.5614   -3.1062 H   0  0  0  0  0  0  0  0  0  0  0  0
   -0.5079    0.9899    0.6646 C   0  0  0  0  0  0  0  0  0  0  0  0
   -1.4015    1.6379    0.1311 O   0  0  0  0  0  0  0  0  0  0  0  0
    0.2919    1.5916    1.6190 N   0  0  0  0  0  0  0  0  0  0  0  0
    0.9878    1.0140    2.0822 H   0  0  0  0  0  0  0  0  0  0  0  0
    0.1448    2.9836    2.0255 C   0  0  0  0  0  0  0  0  0  0  0  0
   -0.8520    3.1575    2.4441 H   0  0  0  0  0  0  0  0  0  0  0  0
    0.8887    3.2354    2.7873 H   0  0  0  0  0  0  0  0  0  0  0  0
    0.2887    3.6500    1.1685 H   0  0  0  0  0  0  0  0  0  0  0  0
  1  2  1  0  0  0  0
  2  3  1  0  0  0  0
  2  4  1  0  0  0  0
  2  5  1  0  0  0  0
  5  6  2  0  0  0  0
  5  7  1  0  0  0  0
  7  8  1  0  0  0  0
  7  9  1  0  0  0  0
  9 10  1  0  0  0  0
  9 11  1  0  0  0  0
  9 24  1  0  0  0  0
 11 12  1  0  0  0  0
 11 13  1  0  0  0  0
 11 14  1  0  0  0  0
 14 15  1  0  0  0  0
 14 16  1  0  0  0  0
 14 20  1  0  0  0  0
 16 17  1  0  0  0  0
 16 18  1  0  0  0  0
 16 19  1  0  0  0  0
 20 21  1  0  0  0  0
 20 22  1  0  0  0  0
 20 23  1  0  0  0  0
 24 25  2  0  0  0  0
 24 26  1  0  0  0  0
 26 27  1  0  0  0  0
 26 28  1  0  0  0  0
 28 29  1  0  0  0  0
 28 30  1  0  0  0  0
 28 31  1  0  0  0  0
M  END
$$$$

  -OEChem-03222214063D

 31 30  0     1  0  0  0  0  0999 V2000
   -3.3945   -3.9067    1.2618 H   0  0  0  0  0  0  0  0  0  0  0  0
   -3.3359   -2.9457    0.7432 C   0  0  0  0  0  0  0  0  0  0  0  0
   -4.0185   -2.2424    1.2262 H   0  0  0  0  0  0  0  0  0  0  0  0
   -3.6431   -3.0864   -0.2959 H   0  0  0  0  0  0  0  0  0  0  0  0
   -1.9180   -2.4089    0.7945 C   0  0  0  0  0  0  0  0  0  0  0  0
   -1.0373   -3.0606    1.3338 O   0  0  0  0  0  0  0  0  0  0  0  0
   -1.6327   -1.1820    0.2327 N   0  0  0  0  0  0  0  0  0  0  0  0
   -2.4148   -0.6353   -0.1243 H   0  0  0  0  0  0  0  0  0  0  0  0
   -0.3297   -0.5081    0.3070 C   0  0  1  0  0  0  0  0  0  0  0  0
    0.2776   -0.9661    1.0946 H   0  0  0  0  0  0  0  0  0  0  0  0
    0.3818   -0.6884   -1.0444 C   0  0  0  0  0  0  0  0  0  0  0  0
    0.2590   -1.7229   -1.3832 H   0  0  0  0  0  0  0  0  0  0  0  0
   -0.1147   -0.0532   -1.7864 H   0  0  0  0  0  0  0  0  0  0  0  0
    1.8886   -0.3477   -0.9623 C   0  0  0  0  0  0  0  0  0  0  0  0
    2.1047    0.2057   -0.0433 H   0  0  0  0  0  0  0  0  0  0  0  0
    2.7287   -1.6305   -0.9688 C   0  0  0  0  0  0  0  0  0  0  0  0
    2.5809   -2.1877   -1.8996 H   0  0  0  0  0  0  0  0  0  0  0  0
    3.7922   -1.3902   -0.8736 H   0  0  0  0  0  0  0  0  0  0  0  0
    2.4451   -2.2737   -0.1295 H   0  0  0  0  0  0  0  0  0  0  0  0
    2.2982    0.5319   -2.1491 C   0  0  0  0  0  0  0  0  0  0  0  0
    1.7413    1.4744   -2.1330 H   0  0  0  0  0  0  0  0  0  0  0  0
    3.3666    0.7651   -2.1009 H   0  0  0  0  0  0  0  0  0  0  0  0
    2.0953    0.0231   -3.0971 H   0  0  0  0  0  0  0  0  0  0  0  0
   -0.5074    0.9839    0.6555 C   0  0  0  0  0  0  0  0  0  0  0  0
   -1.3998    1.6323    0.1204 O   0  0  0  0  0  0  0  0  0  0  0  0
    0.2949    1.5872    1.6068 N   0  0  0  0  0  0  0  0  0  0  0  0
    0.9873    1.0088    2.0744 H   0  0  0  0  0  0  0  0  0  0  0  0
    0.1495    2.9804    2.0102 C   0  0  0  0  0  0  0  0  0  0  0  0
   -0.8463    3.1555    2.4309 H   0  0  0  0  0  0  0  0  0  0  0  0
    0.8956    3.2340    2.7695 H   0  0  0  0  0  0  0  0  0  0  0  0
    0.2916    3.6447    1.1511 H   0  0  0  0  0  0  0  0  0  0  0  0
  1  2  1  0  0  0  0
  2  3  1  0  0  0  0
  2  4  1  0  0  0  0
  2  5  1  0  0  0  0
  5  6  2  0  0  0  0
  5  7  1  0  0  0  0
  7  8  1  0  0  0  0
  7  9  1  0  0  0  0
  9 10  1  0  0  0  0
  9 11  1  0  0  0  0
  9 24  1  0  0  0  0
 11 12  1  0  0  0  0
 11 13  1  0  0  0  0
 11 14  1  0  0  0  0
 14 15  1  0  0  0  0
 14 16  1  0  0  0  0
 14 20  1  0  0  0  0
 16 17  1  0  0  0  0
 16 18  1  0  0  0  0
 16 19  1  0  0  0  0
 20 21  1  0  0  0  0
 20 22  1  0  0  0  0
 20 23  1  0  0  0  0
 24 25  2  0  0  0  0
 24 26  1  0  0  0  0
 26 27  1  0  0  0  0
 26 28  1  0  0  0  0
 28 29  1  0  0  0  0
 28 30  1  0  0  0  0
 28 31  1  0  0  0  0
M  END
$$$$

  -OEChem-03222214063D

 31 30  0     1  0  0  0  0  0999 V2000
   -3.4022   -3.9096    1.2590 H   0  0  0  0  0  0  0  0  0  0  0  0
   -3.3427   -2.9497    0.7386 C   0  0  0  0  0  0  0  0  0  0  0  0
   -4.0300   -2.2470    1.2157 H   0  0  0  0  0  0  0  0  0  0  0  0
   -3.6428   -3.0936   -0.3022 H   0  0  0  0  0  0  0  0  0  0  0  0
   -1.9267   -2.4095    0.7977 C   0  0  0  0  0  0  0  0  0  0  0  0
   -1.0478   -3.0581    1.3432 O   0  0  0  0  0  0  0  0  0  0  0  0
   -1.6404   -1.1845    0.2328 N   0  0  0  0  0  0  0  0  0  0  0  0
   -2.4212   -0.6409   -0.1315 H   0  0  0  0  0  0  0  0  0  0  0  0
   -0.3373   -0.5104    0.3036 C   0  0  1  0  0  0  0  0  0  0  0  0
    0.2674   -0.9687    1.0933 H   0  0  0  0  0  0  0  0  0  0  0  0
    0.3759   -0.6923   -1.0466 C   0  0  0  0  0  0  0  0  0  0  0  0
    0.2591   -1.7351   -1.3613 H   0  0  0  0  0  0  0  0  0  0  0  0
   -0.1214   -0.0779   -1.8054 H   0  0  0  0  0  0  0  0  0  0  0  0
    1.8833   -0.3495   -0.9637 C   0  0  0  0  0  0  0  0  0  0  0  0
    2.1472   -0.0617    0.0590 H   0  0  0  0  0  0  0  0  0  0  0  0
    2.7368   -1.5663   -1.3390 C   0  0  0  0  0  0  0  0  0  0  0  0
    2.5272   -1.8843   -2.3654 H   0  0  0  0  0  0  0  0  0  0  0  0
    3.8013   -1.3242   -1.2608 H   0  0  0  0  0  0  0  0  0  0  0  0
    2.5247   -2.4025   -0.6648 H   0  0  0  0  0  0  0  0  0  0  0  0
    2.2163    0.8272   -1.8879 C   0  0  0  0  0  0  0  0  0  0  0  0
    1.6326    1.7093   -1.6056 H   0  0  0  0  0  0  0  0  0  0  0  0
    3.2783    1.0810   -1.8151 H   0  0  0  0  0  0  0  0  0  0  0  0
    1.9891    0.5783   -2.9295 H   0  0  0  0  0  0  0  0  0  0  0  0
   -0.5062    0.9829    0.6475 C   0  0  0  0  0  0  0  0  0  0  0  0
   -1.3953    1.6350    0.1114 O   0  0  0  0  0  0  0  0  0  0  0  0
    0.3020    1.5839    1.5949 N   0  0  0  0  0  0  0  0  0  0  0  0
    0.9926    1.0028    2.0615 H   0  0  0  0  0  0  0  0  0  0  0  0
    0.1657    2.9788    1.9951 C   0  0  0  0  0  0  0  0  0  0  0  0
   -0.8291    3.1613    2.4148 H   0  0  0  0  0  0  0  0  0  0  0  0
    0.9128    3.2294    2.7542 H   0  0  0  0  0  0  0  0  0  0  0  0
    0.3123    3.6403    1.1348 H   0  0  0  0  0  0  0  0  0  0  0  0
  1  2  1  0  0  0  0
  2  3  1  0  0  0  0
  2  4  1  0  0  0  0
  2  5  1  0  0  0  0
  5  6  2  0  0  0  0
  5  7  1  0  0  0  0
  7  8  1  0  0  0  0
  7  9  1  0  0  0  0
  9 10  1  0  0  0  0
  9 11  1  0  0  0  0
  9 24  1  0  0  0  0
 11 12  1  0  0  0  0
 11 13  1  0  0  0  0
 11 14  1  0  0  0  0
 14 15  1  0  0  0  0
 14 16  1  0  0  0  0
 14 20  1  0  0  0  0
 16 17  1  0  0  0  0
 16 18  1  0  0  0  0
 16 19  1  0  0  0  0
 20 21  1  0  0  0  0
 20 22  1  0  0  0  0
 20 23  1  0  0  0  0
 24 25  2  0  0  0  0
 24 26  1  0  0  0  0
 26 27  1  0  0  0  0
 26 28  1  0  0  0  0
 28 29  1  0  0  0  0
 28 30  1  0  0  0  0
 28 31  1  0  0  0  0
M  END
$$$$

  -OEChem-03222214063D

 31 30  0     1  0  0  0  0  0999 V2000
   -3.4021   -3.9093    1.2541 H   0  0  0  0  0  0  0  0  0  0  0  0
   -3.3433   -2.9486    0.7350 C   0  0  0  0  0  0  0  0  0  0  0  0
   -4.0293   -2.2463    1.2149 H   0  0  0  0  0  0  0  0  0  0  0  0
   -3.6464   -3.0907   -0.3052 H   0  0  0  0  0  0  0  0  0  0  0  0
   -1.9268   -2.4088    0.7911 C   0  0  0  0  0  0  0  0  0  0  0  0
   -1.0465   -3.0591    1.3324 O   0  0  0  0  0  0  0  0  0  0  0  0
   -1.6425   -1.1813    0.2306 N   0  0  0  0  0  0  0  0  0  0  0  0
   -2.4245   -0.6373   -0.1301 H   0  0  0  0  0  0  0  0  0  0  0  0
   -0.3405   -0.5049    0.3041 C   0  0  1  0  0  0  0  0  0  0  0  0
    0.2612   -0.9623    1.0962 H   0  0  0  0  0  0  0  0  0  0  0  0
    0.3781   -0.6888   -1.0445 C   0  0  0  0  0  0  0  0  0  0  0  0
    0.2681   -1.7384   -1.3383 H   0  0  0  0  0  0  0  0  0  0  0  0
   -0.1165   -0.0904   -1.8176 H   0  0  0  0  0  0  0  0  0  0  0  0
    1.8850   -0.3457   -0.9677 C   0  0  0  0  0  0  0  0  0  0  0  0
    2.2075   -0.3293    0.0786 H   0  0  0  0  0  0  0  0  0  0  0  0
    2.7165   -1.4150   -1.6859 C   0  0  0  0  0  0  0  0  0  0  0  0
    2.4315   -1.4805   -2.7408 H   0  0  0  0  0  0  0  0  0  0  0  0
    3.7821   -1.1723   -1.6280 H   0  0  0  0  0  0  0  0  0  0  0  0
    2.5633   -2.3944   -1.2215 H   0  0  0  0  0  0  0  0  0  0  0  0
    2.1657    1.0307   -1.5843 C   0  0  0  0  0  0  0  0  0  0  0  0
    1.5963    1.8095   -1.0688 H   0  0  0  0  0  0  0  0  0  0  0  0
    3.2294    1.2744   -1.5011 H   0  0  0  0  0  0  0  0  0  0  0  0
    1.8888    1.0433   -2.6434 H   0  0  0  0  0  0  0  0  0  0  0  0
   -0.5150    0.9858    0.6532 C   0  0  0  0  0  0  0  0  0  0  0  0
   -1.4055    1.6375    0.1192 O   0  0  0  0  0  0  0  0  0  0  0  0
    0.2914    1.5851    1.6033 N   0  0  0  0  0  0  0  0  0  0  0  0
    0.9897    1.0063    2.0613 H   0  0  0  0  0  0  0  0  0  0  0  0
    0.1592    2.9813    2.0000 C   0  0  0  0  0  0  0  0  0  0  0  0
   -0.8360    3.1686    2.4170 H   0  0  0  0  0  0  0  0  0  0  0  0
    0.9053    3.2309    2.7605 H   0  0  0  0  0  0  0  0  0  0  0  0
    0.3104    3.6396    1.1381 H   0  0  0  0  0  0  0  0  0  0  0  0
  1  2  1  0  0  0  0
  2  3  1  0  0  0  0
  2  4  1  0  0  0  0
  2  5  1  0  0  0  0
  5  6  2  0  0  0  0
  5  7  1  0  0  0  0
  7  8  1  0  0  0  0
  7  9  1  0  0  0  0
  9 10  1  0  0  0  0
  9 11  1  0  0  0  0
  9 24  1  0  0  0  0
 11 12  1  0  0  0  0
 11 13  1  0  0  0  0
 11 14  1  0  0  0  0
 14 15  1  0  0  0  0
 14 16  1  0  0  0  0
 14 20  1  0  0  0  0
 16 17  1  0  0  0  0
 16 18  1  0  0  0  0
 16 19  1  0  0  0  0
 20 21  1  0  0  0  0
 20 22  1  0  0  0  0
 20 23  1  0  0  0  0
 24 25  2  0  0  0  0
 24 26  1  0  0  0  0
 26 27  1  0  0  0  0
 26 28  1  0  0  0  0
 28 29  1  0  0  0  0
 28 30  1  0  0  0  0
 28 31  1  0  0  0  0
M  END
$$$$

  -OEChem-03222214063D

 31 30  0     1  0  0  0  0  0999 V2000
   -3.3825   -3.9079    1.2158 H   0  0  0  0  0  0  0  0  0  0  0  0
   -3.3250   -2.9403    0.7093 C   0  0  0  0  0  0  0  0  0  0  0  0
   -4.0166   -2.2470    1.1942 H   0  0  0  0  0  0  0  0  0  0  0  0
   -3.6215   -3.0702   -0.3343 H   0  0  0  0  0  0  0  0  0  0  0  0
   -1.9108   -2.3959    0.7804 C   0  0  0  0  0  0  0  0  0  0  0  0
   -1.0314   -3.0489    1.3199 O   0  0  0  0  0  0  0  0  0  0  0  0
   -1.6262   -1.1619    0.2341 N   0  0  0  0  0  0  0  0  0  0  0  0
   -2.4077   -0.6147   -0.1235 H   0  0  0  0  0  0  0  0  0  0  0  0
   -0.3274   -0.4811    0.3293 C   0  0  1  0  0  0  0  0  0  0  0  0
    0.2699   -0.9358    1.1261 H   0  0  0  0  0  0  0  0  0  0  0  0
    0.3971   -0.6789   -1.0179 C   0  0  0  0  0  0  0  0  0  0  0  0
    0.2838   -1.7328   -1.2948 H   0  0  0  0  0  0  0  0  0  0  0  0
   -0.0978   -0.0888   -1.7971 H   0  0  0  0  0  0  0  0  0  0  0  0
    1.9076   -0.3491   -0.9762 C   0  0  0  0  0  0  0  0  0  0  0  0
    2.3058   -0.5762    0.0183 H   0  0  0  0  0  0  0  0  0  0  0  0
    2.6520   -1.2199   -1.9966 C   0  0  0  0  0  0  0  0  0  0  0  0
    2.2705   -1.0419   -3.0073 H   0  0  0  0  0  0  0  0  0  0  0  0
    3.7228   -0.9942   -1.9839 H   0  0  0  0  0  0  0  0  0  0  0  0
    2.5263   -2.2808   -1.7584 H   0  0  0  0  0  0  0  0  0  0  0  0
    2.1848    1.1254   -1.3073 C   0  0  0  0  0  0  0  0  0  0  0  0
    1.7367    1.7911   -0.5677 H   0  0  0  0  0  0  0  0  0  0  0  0
    3.2628    1.3146   -1.3171 H   0  0  0  0  0  0  0  0  0  0  0  0
    1.7804    1.3820   -2.2918 H   0  0  0  0  0  0  0  0  0  0  0  0
   -0.5348    1.0026    0.6906 C   0  0  0  0  0  0  0  0  0  0  0  0
   -1.4264    1.6448    0.1466 O   0  0  0  0  0  0  0  0  0  0  0  0
    0.2453    1.6067    1.6600 N   0  0  0  0  0  0  0  0  0  0  0  0
    0.9501    1.0370    2.1197 H   0  0  0  0  0  0  0  0  0  0  0  0
    0.0890    2.9991    2.0615 C   0  0  0  0  0  0  0  0  0  0  0  0
   -0.9173    3.1742    2.4560 H   0  0  0  0  0  0  0  0  0  0  0  0
    0.8145    3.2513    2.8407 H   0  0  0  0  0  0  0  0  0  0  0  0
    0.2540    3.6641    1.2073 H   0  0  0  0  0  0  0  0  0  0  0  0
  1  2  1  0  0  0  0
  2  3  1  0  0  0  0
  2  4  1  0  0  0  0
  2  5  1  0  0  0  0
  5  6  2  0  0  0  0
  5  7  1  0  0  0  0
  7  8  1  0  0  0  0
  7  9  1  0  0  0  0
  9 10  1  0  0  0  0
  9 11  1  0  0  0  0
  9 24  1  0  0  0  0
 11 12  1  0  0  0  0
 11 13  1  0  0  0  0
 11 14  1  0  0  0  0
 14 15  1  0  0  0  0
 14 16  1  0  0  0  0
 14 20  1  0  0  0  0
 16 17  1  0  0  0  0
 16 18  1  0  0  0  0
 16 19  1  0  0  0  0
 20 21  1  0  0  0  0
 20 22  1  0  0  0  0
 20 23  1  0  0  0  0
 24 25  2  0  0  0  0
 24 26  1  0  0  0  0
 26 27  1  0  0  0  0
 26 28  1  0  0  0  0
 28 29  1  0  0  0  0
 28 30  1  0  0  0  0
 28 31  1  0  0  0  0
M  END
$$$$

  -OEChem-03222214063D

 31 30  0     1  0  0  0  0  0999 V2000
   -3.3764   -3.8950    1.1751 H   0  0  0  0  0  0  0  0  0  0  0  0
   -3.3100   -2.9217    0.6810 C   0  0  0  0  0  0  0  0  0  0  0  0
   -4.0067   -2.2329    1.1648 H   0  0  0  0  0  0  0  0  0  0  0  0
   -3.5931   -3.0389   -0.3677 H   0  0  0  0  0  0  0  0  0  0  0  0
   -1.8959   -2.3808    0.7776 C   0  0  0  0  0  0  0  0  0  0  0  0
   -1.0283   -3.0347    1.3348 O   0  0  0  0  0  0  0  0  0  0  0  0
   -1.5976   -1.1471    0.2382 N   0  0  0  0  0  0  0  0  0  0  0  0
   -2.3706   -0.5967   -0.1333 H   0  0  0  0  0  0  0  0  0  0  0  0
   -0.2997   -0.4680    0.3636 C   0  0  1  0  0  0  0  0  0  0  0  0
    0.2924   -0.9189    1.1664 H   0  0  0  0  0  0  0  0  0  0  0  0
    0.4261   -0.6731   -0.9847 C   0  0  0  0  0  0  0  0  0  0  0  0
    0.3006   -1.7247   -1.2651 H   0  0  0  0  0  0  0  0  0  0  0  0
   -0.0698   -0.0737   -1.7561 H   0  0  0  0  0  0  0  0  0  0  0  0
    1.9423   -0.3688   -0.9883 C   0  0  0  0  0  0  0  0  0  0  0  0
    2.4103   -0.8405   -0.1176 H   0  0  0  0  0  0  0  0  0  0  0  0
    2.5601   -0.9727   -2.2573 C   0  0  0  0  0  0  0  0  0  0  0  0
    2.1162   -0.5267   -3.1532 H   0  0  0  0  0  0  0  0  0  0  0  0
    3.6402   -0.7972   -2.2801 H   0  0  0  0  0  0  0  0  0  0  0  0
    2.3933   -2.0540   -2.2875 H   0  0  0  0  0  0  0  0  0  0  0  0
    2.2597    1.1342   -0.9797 C   0  0  0  0  0  0  0  0  0  0  0  0
    2.0834    1.5678    0.0045 H   0  0  0  0  0  0  0  0  0  0  0  0
    3.3129    1.3045   -1.2240 H   0  0  0  0  0  0  0  0  0  0  0  0
    1.6457    1.6645   -1.7147 H   0  0  0  0  0  0  0  0  0  0  0  0
   -0.5465    1.0125    0.7209 C   0  0  0  0  0  0  0  0  0  0  0  0
   -1.4323    1.6384    0.1486 O   0  0  0  0  0  0  0  0  0  0  0  0
    0.1894    1.6363    1.7123 N   0  0  0  0  0  0  0  0  0  0  0  0
    0.8893    1.0824    2.1978 H   0  0  0  0  0  0  0  0  0  0  0  0
   -0.0143    3.0237    2.1099 C   0  0  0  0  0  0  0  0  0  0  0  0
   -1.0367    3.1725    2.4730 H   0  0  0  0  0  0  0  0  0  0  0  0
    0.6798    3.2930    2.9118 H   0  0  0  0  0  0  0  0  0  0  0  0
    0.1602    3.6942    1.2618 H   0  0  0  0  0  0  0  0  0  0  0  0
  1  2  1  0  0  0  0
  2  3  1  0  0  0  0
  2  4  1  0  0  0  0
  2  5  1  0  0  0  0
  5  6  2  0  0  0  0
  5  7  1  0  0  0  0
  7  8  1  0  0  0  0
  7  9  1  0  0  0  0
  9 10  1  0  0  0  0
  9 11  1  0  0  0  0
  9 24  1  0  0  0  0
 11 12  1  0  0  0  0
 11 13  1  0  0  0  0
 11 14  1  0  0  0  0
 14 15  1  0  0  0  0
 14 16  1  0  0  0  0
 14 20  1  0  0  0  0
 16 17  1  0  0  0  0
 16 18  1  0  0  0  0
 16 19  1  0  0  0  0
 20 21  1  0  0  0  0
 20 22  1  0  0  0  0
 20 23  1  0  0  0  0
 24 25  2  0  0  0  0
 24 26  1  0  0  0  0
 26 27  1  0  0  0  0
 26 28  1  0  0  0  0
 28 29  1  0  0  0  0
 28 30  1  0  0  0  0
 28 31  1  0  0  0  0
M  END
$$$$

  -OEChem-03222214063D

 31 30  0     1  0  0  0  0  0999 V2000
   -3.4017   -3.8786    1.2080 H   0  0  0  0  0  0  0  0  0  0  0  0
   -3.3300   -2.9108    0.7038 C   0  0  0  0  0  0  0  0  0  0  0  0
   -4.0190   -2.2116    1.1839 H   0  0  0  0  0  0  0  0  0  0  0  0
   -3.6191   -3.0364   -0.3424 H   0  0  0  0  0  0  0  0  0  0  0  0
   -1.9112   -2.3805    0.7884 C   0  0  0  0  0  0  0  0  0  0  0  0
   -1.0472   -3.0361    1.3492 O   0  0  0  0  0  0  0  0  0  0  0  0
   -1.6052   -1.1549    0.2351 N   0  0  0  0  0  0  0  0  0  0  0  0
   -2.3754   -0.6004   -0.1363 H   0  0  0  0  0  0  0  0  0  0  0  0
   -0.3011   -0.4861    0.3500 C   0  0  1  0  0  0  0  0  0  0  0  0
    0.2880   -0.9395    1.1536 H   0  0  0  0  0  0  0  0  0  0  0  0
    0.4302   -0.6726   -0.9988 C   0  0  0  0  0  0  0  0  0  0  0  0
    0.1026   -1.6186   -1.4441 H   0  0  0  0  0  0  0  0  0  0  0  0
    0.1266    0.1258   -1.6850 H   0  0  0  0  0  0  0  0  0  0  0  0
    1.9711   -0.7241   -0.9074 C   0  0  0  0  0  0  0  0  0  0  0  0
    2.2579   -1.5895   -0.2998 H   0  0  0  0  0  0  0  0  0  0  0  0
    2.5428   -0.9121   -2.3182 C   0  0  0  0  0  0  0  0  0  0  0  0
    2.2946   -0.0556   -2.9534 H   0  0  0  0  0  0  0  0  0  0  0  0
    3.6321   -1.0124   -2.2800 H   0  0  0  0  0  0  0  0  0  0  0  0
    2.1339   -1.8170   -2.7785 H   0  0  0  0  0  0  0  0  0  0  0  0
    2.5936    0.5321   -0.2865 C   0  0  0  0  0  0  0  0  0  0  0  0
    2.4163    0.5541    0.7907 H   0  0  0  0  0  0  0  0  0  0  0  0
    3.6773    0.5382   -0.4403 H   0  0  0  0  0  0  0  0  0  0  0  0
    2.1752    1.4371   -0.7387 H   0  0  0  0  0  0  0  0  0  0  0  0
   -0.5345    1.0020    0.6933 C   0  0  0  0  0  0  0  0  0  0  0  0
   -1.4219    1.6246    0.1196 O   0  0  0  0  0  0  0  0  0  0  0  0
    0.2045    1.6380    1.6737 N   0  0  0  0  0  0  0  0  0  0  0  0
    0.8999    1.0877    2.1694 H   0  0  0  0  0  0  0  0  0  0  0  0
    0.0019    3.0299    2.0558 C   0  0  0  0  0  0  0  0  0  0  0  0
   -1.0187    3.1820    2.4225 H   0  0  0  0  0  0  0  0  0  0  0  0
    0.7000    3.3091    2.8508 H   0  0  0  0  0  0  0  0  0  0  0  0
    0.1715    3.6906    1.1991 H   0  0  0  0  0  0  0  0  0  0  0  0
  1  2  1  0  0  0  0
  2  3  1  0  0  0  0
  2  4  1  0  0  0  0
  2  5  1  0  0  0  0
  5  6  2  0  0  0  0
  5  7  1  0  0  0  0
  7  8  1  0  0  0  0
  7  9  1  0  0  0  0
  9 10  1  0  0  0  0
  9 11  1  0  0  0  0
  9 24  1  0  0  0  0
 11 12  1  0  0  0  0
 11 13  1  0  0  0  0
 11 14  1  0  0  0  0
 14 15  1  0  0  0  0
 14 16  1  0  0  0  0
 14 20  1  0  0  0  0
 16 17  1  0  0  0  0
 16 18  1  0  0  0  0
 16 19  1  0  0  0  0
 20 21  1  0  0  0  0
 20 22  1  0  0  0  0
 20 23  1  0  0  0  0
 24 25  2  0  0  0  0
 24 26  1  0  0  0  0
 26 27  1  0  0  0  0
 26 28  1  0  0  0  0
 28 29  1  0  0  0  0
 28 30  1  0  0  0  0
 28 31  1  0  0  0  0
M  END
$$$$

  -OEChem-03222214063D

 31 30  0     1  0  0  0  0  0999 V2000
   -3.4139   -3.8807    1.1933 H   0  0  0  0  0  0  0  0  0  0  0  0
   -3.3401   -2.9125    0.6901 C   0  0  0  0  0  0  0  0  0  0  0  0
   -4.0346   -2.2151    1.1645 H   0  0  0  0  0  0  0  0  0  0  0  0
   -3.6200   -3.0386   -0.3585 H   0  0  0  0  0  0  0  0  0  0  0  0
   -1.9231   -2.3794    0.7874 C   0  0  0  0  0  0  0  0  0  0  0  0
   -1.0627   -3.0351    1.3535 O   0  0  0  0  0  0  0  0  0  0  0  0
   -1.6142   -1.1529    0.2372 N   0  0  0  0  0  0  0  0  0  0  0  0
   -2.3820   -0.5998   -0.1412 H   0  0  0  0  0  0  0  0  0  0  0  0
   -0.3116   -0.4821    0.3612 C   0  0  1  0  0  0  0  0  0  0  0  0
    0.2671   -0.9378    1.1709 H   0  0  0  0  0  0  0  0  0  0  0  0
    0.4326   -0.6757   -0.9809 C   0  0  0  0  0  0  0  0  0  0  0  0
    0.1049   -1.6161   -1.4376 H   0  0  0  0  0  0  0  0  0  0  0  0
    0.1291    0.1295   -1.6595 H   0  0  0  0  0  0  0  0  0  0  0  0
    1.9773   -0.7282   -0.9005 C   0  0  0  0  0  0  0  0  0  0  0  0
    2.2705   -1.7121   -0.5177 H   0  0  0  0  0  0  0  0  0  0  0  0
    2.5518   -0.5481   -2.3116 C   0  0  0  0  0  0  0  0  0  0  0  0
    2.3047    0.4414   -2.7097 H   0  0  0  0  0  0  0  0  0  0  0  0
    3.6411   -0.6542   -2.2975 H   0  0  0  0  0  0  0  0  0  0  0  0
    2.1446   -1.3065   -2.9879 H   0  0  0  0  0  0  0  0  0  0  0  0
    2.6031    0.3414    0.0041 C   0  0  0  0  0  0  0  0  0  0  0  0
    2.3636    0.1493    1.0528 H   0  0  0  0  0  0  0  0  0  0  0  0
    3.6934    0.3291   -0.0910 H   0  0  0  0  0  0  0  0  0  0  0  0
    2.2459    1.3388   -0.2713 H   0  0  0  0  0  0  0  0  0  0  0  0
   -0.5438    1.0068    0.7039 C   0  0  0  0  0  0  0  0  0  0  0  0
   -1.4274    1.6314    0.1264 O   0  0  0  0  0  0  0  0  0  0  0  0
    0.1919    1.6399    1.6890 N   0  0  0  0  0  0  0  0  0  0  0  0
    0.8888    1.0887    2.1815 H   0  0  0  0  0  0  0  0  0  0  0  0
   -0.0041    3.0333    2.0696 C   0  0  0  0  0  0  0  0  0  0  0  0
   -1.0264    3.1928    2.4280 H   0  0  0  0  0  0  0  0  0  0  0  0
    0.6896    3.3075    2.8703 H   0  0  0  0  0  0  0  0  0  0  0  0
    0.1772    3.6929    1.2145 H   0  0  0  0  0  0  0  0  0  0  0  0
  1  2  1  0  0  0  0
  2  3  1  0  0  0  0
  2  4  1  0  0  0  0
  2  5  1  0  0  0  0
  5  6  2  0  0  0  0
  5  7  1  0  0  0  0
  7  8  1  0  0  0  0
  7  9  1  0  0  0  0
  9 10  1  0  0  0  0
  9 11  1  0  0  0  0
  9 24  1  0  0  0  0
 11 12  1  0  0  0  0
 11 13  1  0  0  0  0
 11 14  1  0  0  0  0
 14 15  1  0  0  0  0
 14 16  1  0  0  0  0
 14 20  1  0  0  0  0
 16 17  1  0  0  0  0
 16 18  1  0  0  0  0
 16 19  1  0  0  0  0
 20 21  1  0  0  0  0
 20 22  1  0  0  0  0
 20 23  1  0  0  0  0
 24 25  2  0  0  0  0
 24 26  1  0  0  0  0
 26 27  1  0  0  0  0
 26 28  1  0  0  0  0
 28 29  1  0  0  0  0
 28 30  1  0  0  0  0
 28 31  1  0  0  0  0
M  END
$$$$

  -OEChem-03222214063D

 31 30  0     1  0  0  0  0  0999 V2000
   -3.4320   -3.8855    1.1755 H   0  0  0  0  0  0  0  0  0  0  0  0
   -3.3551   -2.9155    0.6762 C   0  0  0  0  0  0  0  0  0  0  0  0
   -4.0554   -2.2207    1.1461 H   0  0  0  0  0  0  0  0  0  0  0  0
   -3.6242   -3.0382   -0.3756 H   0  0  0  0  0  0  0  0  0  0  0  0
   -1.9401   -2.3802    0.7886 C   0  0  0  0  0  0  0  0  0  0  0  0
   -1.0848   -3.0344    1.3642 O   0  0  0  0  0  0  0  0  0  0  0  0
   -1.6277   -1.1542    0.2387 N   0  0  0  0  0  0  0  0  0  0  0  0
   -2.3932   -0.6046   -0.1490 H   0  0  0  0  0  0  0  0  0  0  0  0
   -0.3285   -0.4788    0.3730 C   0  0  1  0  0  0  0  0  0  0  0  0
    0.2294   -0.9372    1.1941 H   0  0  0  0  0  0  0  0  0  0  0  0
    0.4343   -0.6806   -0.9582 C   0  0  0  0  0  0  0  0  0  0  0  0
    0.1101   -1.6229   -1.4135 H   0  0  0  0  0  0  0  0  0  0  0  0
    0.1233    0.1184   -1.6404 H   0  0  0  0  0  0  0  0  0  0  0  0
    1.9847   -0.7307   -0.8921 C   0  0  0  0  0  0  0  0  0  0  0  0
    2.2860   -1.7761   -0.7630 H   0  0  0  0  0  0  0  0  0  0  0  0
    2.5564   -0.1961   -2.2126 C   0  0  0  0  0  0  0  0  0  0  0  0
    2.3057    0.8613   -2.3468 H   0  0  0  0  0  0  0  0  0  0  0  0
    3.6460   -0.2986   -2.2279 H   0  0  0  0  0  0  0  0  0  0  0  0
    2.1494   -0.7598   -3.0581 H   0  0  0  0  0  0  0  0  0  0  0  0
    2.6272    0.0857    0.2399 C   0  0  0  0  0  0  0  0  0  0  0  0
    2.3310   -0.2941    1.2209 H   0  0  0  0  0  0  0  0  0  0  0  0
    3.7180    0.0167    0.1791 H   0  0  0  0  0  0  0  0  0  0  0  0
    2.3495    1.1409    0.1611 H   0  0  0  0  0  0  0  0  0  0  0  0
   -0.5526    1.0119    0.7094 C   0  0  0  0  0  0  0  0  0  0  0  0
   -1.4333    1.6390    0.1303 O   0  0  0  0  0  0  0  0  0  0  0  0
    0.1822    1.6402    1.6983 N   0  0  0  0  0  0  0  0  0  0  0  0
    0.8795    1.0870    2.1882 H   0  0  0  0  0  0  0  0  0  0  0  0
   -0.0099    3.0336    2.0806 C   0  0  0  0  0  0  0  0  0  0  0  0
   -1.0343    3.1978    2.4310 H   0  0  0  0  0  0  0  0  0  0  0  0
    0.6781    3.3020    2.8880 H   0  0  0  0  0  0  0  0  0  0  0  0
    0.1820    3.6944    1.2288 H   0  0  0  0  0  0  0  0  0  0  0  0
  1  2  1  0  0  0  0
  2  3  1  0  0  0  0
  2  4  1  0  0  0  0
  2  5  1  0  0  0  0
  5  6  2  0  0  0  0
  5  7  1  0  0  0  0
  7  8  1  0  0  0  0
  7  9  1  0  0  0  0
  9 10  1  0  0  0  0
  9 11  1  0  0  0  0
  9 24  1  0  0  0  0
 11 12  1  0  0  0  0
 11 13  1  0  0  0  0
 11 14  1  0  0  0  0
 14 15  1  0  0  0  0
 14 16  1  0  0  0  0
 14 20  1  0  0  0  0
 16 17  1  0  0  0  0
 16 18  1  0  0  0  0
 16 19  1  0  0  0  0
 20 21  1  0  0  0  0
 20 22  1  0  0  0  0
 20 23  1  0  0  0  0
 24 25  2  0  0  0  0
 24 26  1  0  0  0  0
 26 27  1  0  0  0  0
 26 28  1  0  0  0  0
 28 29  1  0  0  0  0
 28 30  1  0  0  0  0
 28 31  1  0  0  0  0
M  END
$$$$

  -OEChem-03222214063D

 31 30  0     1  0  0  0  0  0999 V2000
   -3.4504   -3.8797    1.1745 H   0  0  0  0  0  0  0  0  0  0  0  0
   -3.3706   -2.9105    0.6742 C   0  0  0  0  0  0  0  0  0  0  0  0
   -4.0737   -2.2153    1.1389 H   0  0  0  0  0  0  0  0  0  0  0  0
   -3.6341   -3.0351   -0.3789 H   0  0  0  0  0  0  0  0  0  0  0  0
   -1.9563   -2.3747    0.7946 C   0  0  0  0  0  0  0  0  0  0  0  0
   -1.1068   -3.0243    1.3838 O   0  0  0  0  0  0  0  0  0  0  0  0
   -1.6387   -1.1526    0.2390 N   0  0  0  0  0  0  0  0  0  0  0  0
   -2.4006   -0.6063   -0.1603 H   0  0  0  0  0  0  0  0  0  0  0  0
   -0.3409   -0.4754    0.3808 C   0  0  1  0  0  0  0  0  0  0  0  0
    0.1996   -0.9286    1.2144 H   0  0  0  0  0  0  0  0  0  0  0  0
    0.4357   -0.6769   -0.9432 C   0  0  0  0  0  0  0  0  0  0  0  0
    0.1164   -1.6264   -1.3868 H   0  0  0  0  0  0  0  0  0  0  0  0
    0.1134    0.1068   -1.6379 H   0  0  0  0  0  0  0  0  0  0  0  0
    1.9910   -0.7265   -0.8898 C   0  0  0  0  0  0  0  0  0  0  0  0
    2.2931   -1.7662   -1.0571 H   0  0  0  0  0  0  0  0  0  0  0  0
    2.5633    0.1365   -2.0229 C   0  0  0  0  0  0  0  0  0  0  0  0
    2.2964    1.1889   -1.8812 H   0  0  0  0  0  0  0  0  0  0  0  0
    3.6544    0.0557   -2.0535 H   0  0  0  0  0  0  0  0  0  0  0  0
    2.1708   -0.1958   -2.9892 H   0  0  0  0  0  0  0  0  0  0  0  0
    2.6522   -0.2700    0.4206 C   0  0  0  0  0  0  0  0  0  0  0  0
    2.3430   -0.8976    1.2605 H   0  0  0  0  0  0  0  0  0  0  0  0
    3.7404   -0.3530    0.3370 H   0  0  0  0  0  0  0  0  0  0  0  0
    2.4115    0.7735    0.6367 H   0  0  0  0  0  0  0  0  0  0  0  0
   -0.5583    1.0181    0.7043 C   0  0  0  0  0  0  0  0  0  0  0  0
   -1.4324    1.6456    0.1161 O   0  0  0  0  0  0  0  0  0  0  0  0
    0.1733    1.6474    1.6944 N   0  0  0  0  0  0  0  0  0  0  0  0
    0.8602    1.0911    2.1955 H   0  0  0  0  0  0  0  0  0  0  0  0
   -0.0203    3.0412    2.0738 C   0  0  0  0  0  0  0  0  0  0  0  0
   -1.0461    3.2046    2.4204 H   0  0  0  0  0  0  0  0  0  0  0  0
    0.6651    3.3113    2.8828 H   0  0  0  0  0  0  0  0  0  0  0  0
    0.1737    3.7011    1.2218 H   0  0  0  0  0  0  0  0  0  0  0  0
  1  2  1  0  0  0  0
  2  3  1  0  0  0  0
  2  4  1  0  0  0  0
  2  5  1  0  0  0  0
  5  6  2  0  0  0  0
  5  7  1  0  0  0  0
  7  8  1  0  0  0  0
  7  9  1  0  0  0  0
  9 10  1  0  0  0  0
  9 11  1  0  0  0  0
  9 24  1  0  0  0  0
 11 12  1  0  0  0  0
 11 13  1  0  0  0  0
 11 14  1  0  0  0  0
 14 15  1  0  0  0  0
 14 16  1  0  0  0  0
 14 20  1  0  0  0  0
 16 17  1  0  0  0  0
 16 18  1  0  0  0  0
 16 19  1  0  0  0  0
 20 21  1  0  0  0  0
 20 22  1  0  0  0  0
 20 23  1  0  0  0  0
 24 25  2  0  0  0  0
 24 26  1  0  0  0  0
 26 27  1  0  0  0  0
 26 28  1  0  0  0  0
 28 29  1  0  0  0  0
 28 30  1  0  0  0  0
 28 31  1  0  0  0  0
M  END
$$$$

  -OEChem-03222214063D

 31 30  0     1  0  0  0  0  0999 V2000
   -3.4607   -3.8773    1.1952 H   0  0  0  0  0  0  0  0  0  0  0  0
   -3.3818   -2.9115    0.6880 C   0  0  0  0  0  0  0  0  0  0  0  0
   -4.0844   -2.2132    1.1492 H   0  0  0  0  0  0  0  0  0  0  0  0
   -3.6470   -3.0433   -0.3638 H   0  0  0  0  0  0  0  0  0  0  0  0
   -1.9670   -2.3752    0.8015 C   0  0  0  0  0  0  0  0  0  0  0  0
   -1.1159   -3.0232    1.3903 O   0  0  0  0  0  0  0  0  0  0  0  0
   -1.6504   -1.1564    0.2381 N   0  0  0  0  0  0  0  0  0  0  0  0
   -2.4130   -0.6132   -0.1635 H   0  0  0  0  0  0  0  0  0  0  0  0
   -0.3533   -0.4773    0.3752 C   0  0  1  0  0  0  0  0  0  0  0  0
    0.1806   -0.9247    1.2154 H   0  0  0  0  0  0  0  0  0  0  0  0
    0.4322   -0.6671   -0.9450 C   0  0  0  0  0  0  0  0  0  0  0  0
    0.1272   -1.6292   -1.3710 H   0  0  0  0  0  0  0  0  0  0  0  0
    0.1030    0.0967   -1.6585 H   0  0  0  0  0  0  0  0  0  0  0  0
    1.9875   -0.7071   -0.8793 C   0  0  0  0  0  0  0  0  0  0  0  0
    2.3021   -1.6489   -1.3423 H   0  0  0  0  0  0  0  0  0  0  0  0
    2.5698    0.4311   -1.7271 C   0  0  0  0  0  0  0  0  0  0  0  0
    2.2789    1.4038   -1.3171 H   0  0  0  0  0  0  0  0  0  0  0  0
    3.6627    0.3747   -1.7462 H   0  0  0  0  0  0  0  0  0  0  0  0
    2.2083    0.3648   -2.7582 H   0  0  0  0  0  0  0  0  0  0  0  0
    2.6255   -0.6719    0.5175 C   0  0  0  0  0  0  0  0  0  0  0  0
    2.2881   -1.5226    1.1176 H   0  0  0  0  0  0  0  0  0  0  0  0
    3.7148   -0.7383    0.4333 H   0  0  0  0  0  0  0  0  0  0  0  0
    2.3839    0.2569    1.0389 H   0  0  0  0  0  0  0  0  0  0  0  0
   -0.5568    1.0192    0.6893 C   0  0  0  0  0  0  0  0  0  0  0  0
   -1.4285    1.6500    0.1012 O   0  0  0  0  0  0  0  0  0  0  0  0
    0.1839    1.6468    1.6735 N   0  0  0  0  0  0  0  0  0  0  0  0
    0.8653    1.0867    2.1777 H   0  0  0  0  0  0  0  0  0  0  0  0
    0.0062    3.0453    2.0431 C   0  0  0  0  0  0  0  0  0  0  0  0
   -1.0138    3.2203    2.4012 H   0  0  0  0  0  0  0  0  0  0  0  0
    0.7040    3.3168    2.8409 H   0  0  0  0  0  0  0  0  0  0  0  0
    0.1951    3.6956    1.1825 H   0  0  0  0  0  0  0  0  0  0  0  0
  1  2  1  0  0  0  0
  2  3  1  0  0  0  0
  2  4  1  0  0  0  0
  2  5  1  0  0  0  0
  5  6  2  0  0  0  0
  5  7  1  0  0  0  0
  7  8  1  0  0  0  0
  7  9  1  0  0  0  0
  9 10  1  0  0  0  0
  9 11  1  0  0  0  0
  9 24  1  0  0  0  0
 11 12  1  0  0  0  0
 11 13  1  0  0  0  0
 11 14  1  0  0  0  0
 14 15  1  0  0  0  0
 14 16  1  0  0  0  0
 14 20  1  0  0  0  0
 16 17  1  0  0  0  0
 16 18  1  0  0  0  0
 16 19  1  0  0  0  0
 20 21  1  0  0  0  0
 20 22  1  0  0  0  0
 20 23  1  0  0  0  0
 24 25  2  0  0  0  0
 24 26  1  0  0  0  0
 26 27  1  0  0  0  0
 26 28  1  0  0  0  0
 28 29  1  0  0  0  0
 28 30  1  0  0  0  0
 28 31  1  0  0  0  0
M  END
$$$$

  -OEChem-03222214063D

 31 30  0     1  0  0  0  0  0999 V2000
   -3.4556   -3.8970    1.1951 H   0  0  0  0  0  0  0  0  0  0  0  0
   -3.3834   -2.9320    0.6855 C   0  0  0  0  0  0  0  0  0  0  0  0
   -4.0922   -2.2378    1.1433 H   0  0  0  0  0  0  0  0  0  0  0  0
   -3.6447   -3.0693   -0.3666 H   0  0  0  0  0  0  0  0  0  0  0  0
   -1.9737   -2.3837    0.8012 C   0  0  0  0  0  0  0  0  0  0  0  0
   -1.1187   -3.0244    1.3923 O   0  0  0  0  0  0  0  0  0  0  0  0
   -1.6664   -1.1632    0.2356 N   0  0  0  0  0  0  0  0  0  0  0  0
   -2.4329   -0.6273   -0.1679 H   0  0  0  0  0  0  0  0  0  0  0  0
   -0.3719   -0.4781    0.3636 C   0  0  1  0  0  0  0  0  0  0  0  0
    0.1572   -0.9242    1.2071 H   0  0  0  0  0  0  0  0  0  0  0  0
    0.4221   -0.6674   -0.9503 C   0  0  0  0  0  0  0  0  0  0  0  0
    0.1348   -1.6423   -1.3593 H   0  0  0  0  0  0  0  0  0  0  0  0
    0.0951    0.0790   -1.6826 H   0  0  0  0  0  0  0  0  0  0  0  0
    1.9732   -0.6912   -0.8564 C   0  0  0  0  0  0  0  0  0  0  0  0
    2.3175   -1.4712   -1.5447 H   0  0  0  0  0  0  0  0  0  0  0  0
    2.5474    0.6347   -1.3695 C   0  0  0  0  0  0  0  0  0  0  0  0
    2.2188    1.4661   -0.7379 H   0  0  0  0  0  0  0  0  0  0  0  0
    3.6414    0.6048   -1.3636 H   0  0  0  0  0  0  0  0  0  0  0  0
    2.2175    0.8254   -2.3955 H   0  0  0  0  0  0  0  0  0  0  0  0
    2.5684   -1.0243    0.5190 C   0  0  0  0  0  0  0  0  0  0  0  0
    2.1680   -1.9742    0.8880 H   0  0  0  0  0  0  0  0  0  0  0  0
    3.6559   -1.1233    0.4436 H   0  0  0  0  0  0  0  0  0  0  0  0
    2.3499   -0.2373    1.2460 H   0  0  0  0  0  0  0  0  0  0  0  0
   -0.5512    1.0193    0.6789 C   0  0  0  0  0  0  0  0  0  0  0  0
   -1.4170    1.6648    0.0987 O   0  0  0  0  0  0  0  0  0  0  0  0
    0.2131    1.6298    1.6560 N   0  0  0  0  0  0  0  0  0  0  0  0
    0.8969    1.0579    2.1433 H   0  0  0  0  0  0  0  0  0  0  0  0
    0.0763    3.0340    2.0213 C   0  0  0  0  0  0  0  0  0  0  0  0
   -0.9324    3.2360    2.3969 H   0  0  0  0  0  0  0  0  0  0  0  0
    0.7952    3.2925    2.8046 H   0  0  0  0  0  0  0  0  0  0  0  0
    0.2652    3.6750    1.1537 H   0  0  0  0  0  0  0  0  0  0  0  0
  1  2  1  0  0  0  0
  2  3  1  0  0  0  0
  2  4  1  0  0  0  0
  2  5  1  0  0  0  0
  5  6  2  0  0  0  0
  5  7  1  0  0  0  0
  7  8  1  0  0  0  0
  7  9  1  0  0  0  0
  9 10  1  0  0  0  0
  9 11  1  0  0  0  0
  9 24  1  0  0  0  0
 11 12  1  0  0  0  0
 11 13  1  0  0  0  0
 11 14  1  0  0  0  0
 14 15  1  0  0  0  0
 14 16  1  0  0  0  0
 14 20  1  0  0  0  0
 16 17  1  0  0  0  0
 16 18  1  0  0  0  0
 16 19  1  0  0  0  0
 20 21  1  0  0  0  0
 20 22  1  0  0  0  0
 20 23  1  0  0  0  0
 24 25  2  0  0  0  0
 24 26  1  0  0  0  0
 26 27  1  0  0  0  0
 26 28  1  0  0  0  0
 28 29  1  0  0  0  0
 28 30  1  0  0  0  0
 28 31  1  0  0  0  0
M  END
$$$$

  -OEChem-03222214063D

 31 30  0     1  0  0  0  0  0999 V2000
   -3.4476   -3.8907    1.1967 H   0  0  0  0  0  0  0  0  0  0  0  0
   -3.3764   -2.9241    0.6902 C   0  0  0  0  0  0  0  0  0  0  0  0
   -4.0790   -2.2292    1.1564 H   0  0  0  0  0  0  0  0  0  0  0  0
   -3.6471   -3.0560   -0.3601 H   0  0  0  0  0  0  0  0  0  0  0  0
   -1.9637   -2.3815    0.7958 C   0  0  0  0  0  0  0  0  0  0  0  0
   -1.1047   -3.0278    1.3752 O   0  0  0  0  0  0  0  0  0  0  0  0
   -1.6576   -1.1591    0.2341 N   0  0  0  0  0  0  0  0  0  0  0  0
   -2.4259   -0.6184   -0.1599 H   0  0  0  0  0  0  0  0  0  0  0  0
   -0.3626   -0.4746    0.3621 C   0  0  1  0  0  0  0  0  0  0  0  0
    0.1710   -0.9184    1.2042 H   0  0  0  0  0  0  0  0  0  0  0  0
    0.4271   -0.6729   -0.9539 C   0  0  0  0  0  0  0  0  0  0  0  0
    0.1373   -1.6475   -1.3612 H   0  0  0  0  0  0  0  0  0  0  0  0
    0.1099    0.0758   -1.6879 H   0  0  0  0  0  0  0  0  0  0  0  0
    1.9741   -0.6998   -0.8566 C   0  0  0  0  0  0  0  0  0  0  0  0
    2.3272   -1.2825   -1.7145 H   0  0  0  0  0  0  0  0  0  0  0  0
    2.5569    0.7102   -1.0108 C   0  0  0  0  0  0  0  0  0  0  0  0
    2.2620    1.3495   -0.1744 H   0  0  0  0  0  0  0  0  0  0  0  0
    3.6501    0.6663   -1.0421 H   0  0  0  0  0  0  0  0  0  0  0  0
    2.2075    1.1708   -1.9403 H   0  0  0  0  0  0  0  0  0  0  0  0
    2.5349   -1.3746    0.4025 C   0  0  0  0  0  0  0  0  0  0  0  0
    2.0536   -2.3452    0.5611 H   0  0  0  0  0  0  0  0  0  0  0  0
    3.6109   -1.5406    0.2908 H   0  0  0  0  0  0  0  0  0  0  0  0
    2.3797   -0.7525    1.2887 H   0  0  0  0  0  0  0  0  0  0  0  0
   -0.5518    1.0201    0.6831 C   0  0  0  0  0  0  0  0  0  0  0  0
   -1.4224    1.6622    0.1063 O   0  0  0  0  0  0  0  0  0  0  0  0
    0.2088    1.6317    1.6626 N   0  0  0  0  0  0  0  0  0  0  0  0
    0.8991    1.0633    2.1450 H   0  0  0  0  0  0  0  0  0  0  0  0
    0.0622    3.0335    2.0333 C   0  0  0  0  0  0  0  0  0  0  0  0
   -0.9494    3.2281    2.4049 H   0  0  0  0  0  0  0  0  0  0  0  0
    0.7757    3.2930    2.8212 H   0  0  0  0  0  0  0  0  0  0  0  0
    0.2514    3.6791    1.1692 H   0  0  0  0  0  0  0  0  0  0  0  0
  1  2  1  0  0  0  0
  2  3  1  0  0  0  0
  2  4  1  0  0  0  0
  2  5  1  0  0  0  0
  5  6  2  0  0  0  0
  5  7  1  0  0  0  0
  7  8  1  0  0  0  0
  7  9  1  0  0  0  0
  9 10  1  0  0  0  0
  9 11  1  0  0  0  0
  9 24  1  0  0  0  0
 11 12  1  0  0  0  0
 11 13  1  0  0  0  0
 11 14  1  0  0  0  0
 14 15  1  0  0  0  0
 14 16  1  0  0  0  0
 14 20  1  0  0  0  0
 16 17  1  0  0  0  0
 16 18  1  0  0  0  0
 16 19  1  0  0  0  0
 20 21  1  0  0  0  0
 20 22  1  0  0  0  0
 20 23  1  0  0  0  0
 24 25  2  0  0  0  0
 24 26  1  0  0  0  0
 26 27  1  0  0  0  0
 26 28  1  0  0  0  0
 28 29  1  0  0  0  0
 28 30  1  0  0  0  0
 28 31  1  0  0  0  0
M  END
$$$$

  -OEChem-03222214063D

 31 30  0     1  0  0  0  0  0999 V2000
   -3.4420   -3.8701    1.2026 H   0  0  0  0  0  0  0  0  0  0  0  0
   -3.3650   -2.9036    0.6966 C   0  0  0  0  0  0  0  0  0  0  0  0
   -4.0610   -2.2040    1.1659 H   0  0  0  0  0  0  0  0  0  0  0  0
   -3.6404   -3.0324   -0.3529 H   0  0  0  0  0  0  0  0  0  0  0  0
   -1.9481   -2.3709    0.7980 C   0  0  0  0  0  0  0  0  0  0  0  0
   -1.0915   -3.0215    1.3762 O   0  0  0  0  0  0  0  0  0  0  0  0
   -1.6363   -1.1502    0.2366 N   0  0  0  0  0  0  0  0  0  0  0  0
   -2.4022   -0.6039   -0.1547 H   0  0  0  0  0  0  0  0  0  0  0  0
   -0.3384   -0.4728    0.3700 C   0  0  1  0  0  0  0  0  0  0  0  0
    0.2085   -0.9131    1.2063 H   0  0  0  0  0  0  0  0  0  0  0  0
    0.4365   -0.6766   -0.9543 C   0  0  0  0  0  0  0  0  0  0  0  0
    0.1290   -1.6389   -1.3779 H   0  0  0  0  0  0  0  0  0  0  0  0
    0.1322    0.0915   -1.6736 H   0  0  0  0  0  0  0  0  0  0  0  0
    1.9805   -0.7193   -0.8652 C   0  0  0  0  0  0  0  0  0  0  0  0
    2.3319   -1.0716   -1.8411 H   0  0  0  0  0  0  0  0  0  0  0  0
    2.5885    0.6707   -0.6475 C   0  0  0  0  0  0  0  0  0  0  0  0
    2.3979    1.0299    0.3661 H   0  0  0  0  0  0  0  0  0  0  0  0
    3.6722    0.6326   -0.7955 H   0  0  0  0  0  0  0  0  0  0  0  0
    2.1706    1.3897   -1.3593 H   0  0  0  0  0  0  0  0  0  0  0  0
    2.5054   -1.7043    0.1887 C   0  0  0  0  0  0  0  0  0  0  0  0
    1.9926   -2.6675    0.1002 H   0  0  0  0  0  0  0  0  0  0  0  0
    3.5770   -1.8714    0.0426 H   0  0  0  0  0  0  0  0  0  0  0  0
    2.3593   -1.3213    1.2027 H   0  0  0  0  0  0  0  0  0  0  0  0
   -0.5511    1.0207    0.6905 C   0  0  0  0  0  0  0  0  0  0  0  0
   -1.4222    1.6516    0.1017 O   0  0  0  0  0  0  0  0  0  0  0  0
    0.1892    1.6474    1.6759 N   0  0  0  0  0  0  0  0  0  0  0  0
    0.8767    1.0889    2.1736 H   0  0  0  0  0  0  0  0  0  0  0  0
    0.0115    3.0458    2.0466 C   0  0  0  0  0  0  0  0  0  0  0  0
   -1.0083    3.2210    2.4048 H   0  0  0  0  0  0  0  0  0  0  0  0
    0.7095    3.3170    2.8445 H   0  0  0  0  0  0  0  0  0  0  0  0
    0.2001    3.6968    1.1864 H   0  0  0  0  0  0  0  0  0  0  0  0
  1  2  1  0  0  0  0
  2  3  1  0  0  0  0
  2  4  1  0  0  0  0
  2  5  1  0  0  0  0
  5  6  2  0  0  0  0
  5  7  1  0  0  0  0
  7  8  1  0  0  0  0
  7  9  1  0  0  0  0
  9 10  1  0  0  0  0
  9 11  1  0  0  0  0
  9 24  1  0  0  0  0
 11 12  1  0  0  0  0
 11 13  1  0  0  0  0
 11 14  1  0  0  0  0
 14 15  1  0  0  0  0
 14 16  1  0  0  0  0
 14 20  1  0  0  0  0
 16 17  1  0  0  0  0
 16 18  1  0  0  0  0
 16 19  1  0  0  0  0
 20 21  1  0  0  0  0
 20 22  1  0  0  0  0
 20 23  1  0  0  0  0
 24 25  2  0  0  0  0
 24 26  1  0  0  0  0
 26 27  1  0  0  0  0
 26 28  1  0  0  0  0
 28 29  1  0  0  0  0
 28 30  1  0  0  0  0
 28 31  1  0  0  0  0
M  END
$$$$

  -OEChem-03222214063D

 31 30  0     1  0  0  0  0  0999 V2000
   -3.4346   -3.8638    1.2076 H   0  0  0  0  0  0  0  0  0  0  0  0
   -3.3559   -2.8981    0.7004 C   0  0  0  0  0  0  0  0  0  0  0  0
   -4.0544   -2.1983    1.1655 H   0  0  0  0  0  0  0  0  0  0  0  0
   -3.6268   -3.0289   -0.3500 H   0  0  0  0  0  0  0  0  0  0  0  0
   -1.9394   -2.3654    0.8069 C   0  0  0  0  0  0  0  0  0  0  0  0
   -1.0851   -3.0168    1.3873 O   0  0  0  0  0  0  0  0  0  0  0  0
   -1.6235   -1.1455    0.2458 N   0  0  0  0  0  0  0  0  0  0  0  0
   -2.3863   -0.5962   -0.1478 H   0  0  0  0  0  0  0  0  0  0  0  0
   -0.3212   -0.4762    0.3770 C   0  0  1  0  0  0  0  0  0  0  0  0
    0.2401   -0.9178    1.2042 H   0  0  0  0  0  0  0  0  0  0  0  0
    0.4378   -0.6765   -0.9570 C   0  0  0  0  0  0  0  0  0  0  0  0
    0.1098   -1.6200   -1.4070 H   0  0  0  0  0  0  0  0  0  0  0  0
    0.1478    0.1186   -1.6524 H   0  0  0  0  0  0  0  0  0  0  0  0
    1.9804   -0.7315   -0.8738 C   0  0  0  0  0  0  0  0  0  0  0  0
    2.3438   -0.8346   -1.9020 H   0  0  0  0  0  0  0  0  0  0  0  0
    2.6016    0.5440   -0.2958 C   0  0  0  0  0  0  0  0  0  0  0  0
    2.4423    0.6034    0.7835 H   0  0  0  0  0  0  0  0  0  0  0  0
    3.6806    0.5499   -0.4785 H   0  0  0  0  0  0  0  0  0  0  0  0
    2.1689    1.4310   -0.7691 H   0  0  0  0  0  0  0  0  0  0  0  0
    2.4673   -1.9575   -0.0883 C   0  0  0  0  0  0  0  0  0  0  0  0
    2.0121   -2.8702   -0.4858 H   0  0  0  0  0  0  0  0  0  0  0  0
    3.5542   -2.0514   -0.1749 H   0  0  0  0  0  0  0  0  0  0  0  0
    2.2160   -1.8801    0.9731 H   0  0  0  0  0  0  0  0  0  0  0  0
   -0.5454    1.0169    0.7004 C   0  0  0  0  0  0  0  0  0  0  0  0
   -1.4183    1.6419    0.1073 O   0  0  0  0  0  0  0  0  0  0  0  0
    0.1862    1.6537    1.6858 N   0  0  0  0  0  0  0  0  0  0  0  0
    0.8746    1.1024    2.1901 H   0  0  0  0  0  0  0  0  0  0  0  0
   -0.0002    3.0537    2.0463 C   0  0  0  0  0  0  0  0  0  0  0  0
   -1.0226    3.2263    2.3985 H   0  0  0  0  0  0  0  0  0  0  0  0
    0.6927    3.3339    2.8455 H   0  0  0  0  0  0  0  0  0  0  0  0
    0.1894    3.6999    1.1827 H   0  0  0  0  0  0  0  0  0  0  0  0
  1  2  1  0  0  0  0
  2  3  1  0  0  0  0
  2  4  1  0  0  0  0
  2  5  1  0  0  0  0
  5  6  2  0  0  0  0
  5  7  1  0  0  0  0
  7  8  1  0  0  0  0
  7  9  1  0  0  0  0
  9 10  1  0  0  0  0
  9 11  1  0  0  0  0
  9 24  1  0  0  0  0
 11 12  1  0  0  0  0
 11 13  1  0  0  0  0
 11 14  1  0  0  0  0
 14 15  1  0  0  0  0
 14 16  1  0  0  0  0
 14 20  1  0  0  0  0
 16 17  1  0  0  0  0
 16 18  1  0  0  0  0
 16 19  1  0  0  0  0
 20 21  1  0  0  0  0
 20 22  1  0  0  0  0
 20 23  1  0  0  0  0
 24 25  2  0  0  0  0
 24 26  1  0  0  0  0
 26 27  1  0  0  0  0
 26 28  1  0  0  0  0
 28 29  1  0  0  0  0
 28 30  1  0  0  0  0
 28 31  1  0  0  0  0
M  END
$$$$

  -OEChem-03222214063D

 31 30  0     1  0  0  0  0  0999 V2000
   -3.4247   -3.8621    1.2136 H   0  0  0  0  0  0  0  0  0  0  0  0
   -3.3480   -2.8960    0.7069 C   0  0  0  0  0  0  0  0  0  0  0  0
   -4.0396   -2.1942    1.1793 H   0  0  0  0  0  0  0  0  0  0  0  0
   -3.6286   -3.0245   -0.3413 H   0  0  0  0  0  0  0  0  0  0  0  0
   -1.9292   -2.3675    0.8014 C   0  0  0  0  0  0  0  0  0  0  0  0
   -1.0712   -3.0222    1.3727 O   0  0  0  0  0  0  0  0  0  0  0  0
   -1.6171   -1.1450    0.2444 N   0  0  0  0  0  0  0  0  0  0  0  0
   -2.3825   -0.5932   -0.1401 H   0  0  0  0  0  0  0  0  0  0  0  0
   -0.3140   -0.4767    0.3695 C   0  0  1  0  0  0  0  0  0  0  0  0
    0.2566   -0.9256    1.1878 H   0  0  0  0  0  0  0  0  0  0  0  0
    0.4363   -0.6792   -0.9693 C   0  0  0  0  0  0  0  0  0  0  0  0
    0.0936   -1.6100   -1.4344 H   0  0  0  0  0  0  0  0  0  0  0  0
    0.1516    0.1302   -1.6502 H   0  0  0  0  0  0  0  0  0  0  0  0
    1.9809   -0.7360   -0.8937 C   0  0  0  0  0  0  0  0  0  0  0  0
    2.3639   -0.6078   -1.9120 H   0  0  0  0  0  0  0  0  0  0  0  0
    2.6112    0.3475   -0.0111 C   0  0  0  0  0  0  0  0  0  0  0  0
    2.3911    0.1752    1.0458 H   0  0  0  0  0  0  0  0  0  0  0  0
    3.6987    0.3429   -0.1339 H   0  0  0  0  0  0  0  0  0  0  0  0
    2.2413    1.3364   -0.2991 H   0  0  0  0  0  0  0  0  0  0  0  0
    2.4329   -2.1131   -0.3878 C   0  0  0  0  0  0  0  0  0  0  0  0
    2.0548   -2.9039   -1.0433 H   0  0  0  0  0  0  0  0  0  0  0  0
    3.5255   -2.1742   -0.3756 H   0  0  0  0  0  0  0  0  0  0  0  0
    2.0648   -2.3007    0.6256 H   0  0  0  0  0  0  0  0  0  0  0  0
   -0.5410    1.0144    0.7022 C   0  0  0  0  0  0  0  0  0  0  0  0
   -1.4199    1.6399    0.1187 O   0  0  0  0  0  0  0  0  0  0  0  0
    0.1952    1.6479    1.6865 N   0  0  0  0  0  0  0  0  0  0  0  0
    0.8846    1.0940    2.1864 H   0  0  0  0  0  0  0  0  0  0  0  0
    0.0000    3.0416    2.0650 C   0  0  0  0  0  0  0  0  0  0  0  0
   -1.0229    3.2026    2.4212 H   0  0  0  0  0  0  0  0  0  0  0  0
    0.6923    3.3159    2.8669 H   0  0  0  0  0  0  0  0  0  0  0  0
    0.1838    3.6999    1.2094 H   0  0  0  0  0  0  0  0  0  0  0  0
  1  2  1  0  0  0  0
  2  3  1  0  0  0  0
  2  4  1  0  0  0  0
  2  5  1  0  0  0  0
  5  6  2  0  0  0  0
  5  7  1  0  0  0  0
  7  8  1  0  0  0  0
  7  9  1  0  0  0  0
  9 10  1  0  0  0  0
  9 11  1  0  0  0  0
  9 24  1  0  0  0  0
 11 12  1  0  0  0  0
 11 13  1  0  0  0  0
 11 14  1  0  0  0  0
 14 15  1  0  0  0  0
 14 16  1  0  0  0  0
 14 20  1  0  0  0  0
 16 17  1  0  0  0  0
 16 18  1  0  0  0  0
 16 19  1  0  0  0  0
 20 21  1  0  0  0  0
 20 22  1  0  0  0  0
 20 23  1  0  0  0  0
 24 25  2  0  0  0  0
 24 26  1  0  0  0  0
 26 27  1  0  0  0  0
 26 28  1  0  0  0  0
 28 29  1  0  0  0  0
 28 30  1  0  0  0  0
 28 31  1  0  0  0  0
M  END
$$$$

  -OEChem-03222214063D

 31 30  0     1  0  0  0  0  0999 V2000
   -3.4291   -3.8755    1.1964 H   0  0  0  0  0  0  0  0  0  0  0  0
   -3.3525   -2.9066    0.6951 C   0  0  0  0  0  0  0  0  0  0  0  0
   -4.0480   -2.2093    1.1682 H   0  0  0  0  0  0  0  0  0  0  0  0
   -3.6287   -3.0304   -0.3547 H   0  0  0  0  0  0  0  0  0  0  0  0
   -1.9355   -2.3742    0.7978 C   0  0  0  0  0  0  0  0  0  0  0  0
   -1.0776   -3.0288    1.3693 O   0  0  0  0  0  0  0  0  0  0  0  0
   -1.6254   -1.1490    0.2453 N   0  0  0  0  0  0  0  0  0  0  0  0
   -2.3926   -0.5996   -0.1391 H   0  0  0  0  0  0  0  0  0  0  0  0
   -0.3248   -0.4748    0.3716 C   0  0  1  0  0  0  0  0  0  0  0  0
    0.2372   -0.9316    1.1910 H   0  0  0  0  0  0  0  0  0  0  0  0
    0.4322   -0.6826   -0.9627 C   0  0  0  0  0  0  0  0  0  0  0  0
    0.0795   -1.6072   -1.4328 H   0  0  0  0  0  0  0  0  0  0  0  0
    0.1474    0.1304   -1.6392 H   0  0  0  0  0  0  0  0  0  0  0  0
    1.9823   -0.7342   -0.9010 C   0  0  0  0  0  0  0  0  0  0  0  0
    2.3683   -0.3748   -1.8611 H   0  0  0  0  0  0  0  0  0  0  0  0
    2.6309    0.0942    0.2174 C   0  0  0  0  0  0  0  0  0  0  0  0
    2.3547   -0.2755    1.2087 H   0  0  0  0  0  0  0  0  0  0  0  0
    3.7212    0.0451    0.1332 H   0  0  0  0  0  0  0  0  0  0  0  0
    2.3371    1.1438    0.1275 H   0  0  0  0  0  0  0  0  0  0  0  0
    2.4308   -2.1917   -0.7221 C   0  0  0  0  0  0  0  0  0  0  0  0
    2.0804   -2.8071   -1.5568 H   0  0  0  0  0  0  0  0  0  0  0  0
    3.5230   -2.2560   -0.6896 H   0  0  0  0  0  0  0  0  0  0  0  0
    2.0296   -2.6085    0.2077 H   0  0  0  0  0  0  0  0  0  0  0  0
   -0.5455    1.0162    0.7081 C   0  0  0  0  0  0  0  0  0  0  0  0
   -1.4267    1.6449    0.1317 O   0  0  0  0  0  0  0  0  0  0  0  0
    0.1960    1.6432    1.6926 N   0  0  0  0  0  0  0  0  0  0  0  0
    0.8898    1.0866    2.1836 H   0  0  0  0  0  0  0  0  0  0  0  0
    0.0049    3.0353    2.0794 C   0  0  0  0  0  0  0  0  0  0  0  0
   -1.0172    3.1968    2.4378 H   0  0  0  0  0  0  0  0  0  0  0  0
    0.6986    3.3030    2.8821 H   0  0  0  0  0  0  0  0  0  0  0  0
    0.1895    3.6982    1.2276 H   0  0  0  0  0  0  0  0  0  0  0  0
  1  2  1  0  0  0  0
  2  3  1  0  0  0  0
  2  4  1  0  0  0  0
  2  5  1  0  0  0  0
  5  6  2  0  0  0  0
  5  7  1  0  0  0  0
  7  8  1  0  0  0  0
  7  9  1  0  0  0  0
  9 10  1  0  0  0  0
  9 11  1  0  0  0  0
  9 24  1  0  0  0  0
 11 12  1  0  0  0  0
 11 13  1  0  0  0  0
 11 14  1  0  0  0  0
 14 15  1  0  0  0  0
 14 16  1  0  0  0  0
 14 20  1  0  0  0  0
 16 17  1  0  0  0  0
 16 18  1  0  0  0  0
 16 19  1  0  0  0  0
 20 21  1  0  0  0  0
 20 22  1  0  0  0  0
 20 23  1  0  0  0  0
 24 25  2  0  0  0  0
 24 26  1  0  0  0  0
 26 27  1  0  0  0  0
 26 28  1  0  0  0  0
 28 29  1  0  0  0  0
 28 30  1  0  0  0  0
 28 31  1  0  0  0  0
M  END
$$$$

  -OEChem-03222214063D

 31 30  0     1  0  0  0  0  0999 V2000
   -3.4512   -3.8722    1.1876 H   0  0  0  0  0  0  0  0  0  0  0  0
   -3.3685   -2.9034    0.6868 C   0  0  0  0  0  0  0  0  0  0  0  0
   -4.0680   -2.2052    1.1526 H   0  0  0  0  0  0  0  0  0  0  0  0
   -3.6342   -3.0273   -0.3658 H   0  0  0  0  0  0  0  0  0  0  0  0
   -1.9521   -2.3722    0.8040 C   0  0  0  0  0  0  0  0  0  0  0  0
   -1.1030   -3.0248    1.3907 O   0  0  0  0  0  0  0  0  0  0  0  0
   -1.6333   -1.1503    0.2482 N   0  0  0  0  0  0  0  0  0  0  0  0
   -2.3946   -0.6029   -0.1506 H   0  0  0  0  0  0  0  0  0  0  0  0
   -0.3329   -0.4772    0.3855 C   0  0  1  0  0  0  0  0  0  0  0  0
    0.2116   -0.9323    1.2159 H   0  0  0  0  0  0  0  0  0  0  0  0
    0.4379   -0.6860   -0.9416 C   0  0  0  0  0  0  0  0  0  0  0  0
    0.0786   -1.6105   -1.4063 H   0  0  0  0  0  0  0  0  0  0  0  0
    0.1532    0.1223   -1.6241 H   0  0  0  0  0  0  0  0  0  0  0  0
    1.9930   -0.7417   -0.8903 C   0  0  0  0  0  0  0  0  0  0  0  0
    2.3735   -0.1389   -1.7220 H   0  0  0  0  0  0  0  0  0  0  0  0
    2.6581   -0.2329    0.3980 C   0  0  0  0  0  0  0  0  0  0  0  0
    2.3697   -0.8318    1.2664 H   0  0  0  0  0  0  0  0  0  0  0  0
    3.7472   -0.2884    0.3016 H   0  0  0  0  0  0  0  0  0  0  0  0
    2.3976    0.8132    0.5730 H   0  0  0  0  0  0  0  0  0  0  0  0
    2.4543   -2.1902   -1.1080 C   0  0  0  0  0  0  0  0  0  0  0  0
    2.0962   -2.5664   -2.0715 H   0  0  0  0  0  0  0  0  0  0  0  0
    3.5471   -2.2515   -1.1065 H   0  0  0  0  0  0  0  0  0  0  0  0
    2.0680   -2.8395   -0.3152 H   0  0  0  0  0  0  0  0  0  0  0  0
   -0.5504    1.0160    0.7113 C   0  0  0  0  0  0  0  0  0  0  0  0
   -1.4243    1.6444    0.1236 O   0  0  0  0  0  0  0  0  0  0  0  0
    0.1835    1.6450    1.6998 N   0  0  0  0  0  0  0  0  0  0  0  0
    0.8688    1.0875    2.2017 H   0  0  0  0  0  0  0  0  0  0  0  0
   -0.0062    3.0398    2.0775 C   0  0  0  0  0  0  0  0  0  0  0  0
   -1.0292    3.2058    2.4311 H   0  0  0  0  0  0  0  0  0  0  0  0
    0.6854    3.3108    2.8809 H   0  0  0  0  0  0  0  0  0  0  0  0
    0.1829    3.6969    1.2221 H   0  0  0  0  0  0  0  0  0  0  0  0
  1  2  1  0  0  0  0
  2  3  1  0  0  0  0
  2  4  1  0  0  0  0
  2  5  1  0  0  0  0
  5  6  2  0  0  0  0
  5  7  1  0  0  0  0
  7  8  1  0  0  0  0
  7  9  1  0  0  0  0
  9 10  1  0  0  0  0
  9 11  1  0  0  0  0
  9 24  1  0  0  0  0
 11 12  1  0  0  0  0
 11 13  1  0  0  0  0
 11 14  1  0  0  0  0
 14 15  1  0  0  0  0
 14 16  1  0  0  0  0
 14 20  1  0  0  0  0
 16 17  1  0  0  0  0
 16 18  1  0  0  0  0
 16 19  1  0  0  0  0
 20 21  1  0  0  0  0
 20 22  1  0  0  0  0
 20 23  1  0  0  0  0
 24 25  2  0  0  0  0
 24 26  1  0  0  0  0
 26 27  1  0  0  0  0
 26 28  1  0  0  0  0
 28 29  1  0  0  0  0
 28 30  1  0  0  0  0
 28 31  1  0  0  0  0
M  END
$$$$

  -OEChem-03222214063D

 31 30  0     1  0  0  0  0  0999 V2000
   -3.4845   -3.8578    1.1996 H   0  0  0  0  0  0  0  0  0  0  0  0
   -3.3938   -2.8925    0.6938 C   0  0  0  0  0  0  0  0  0  0  0  0
   -4.0926   -2.1881    1.1513 H   0  0  0  0  0  0  0  0  0  0  0  0
   -3.6540   -3.0213   -0.3596 H   0  0  0  0  0  0  0  0  0  0  0  0
   -1.9750   -2.3689    0.8160 C   0  0  0  0  0  0  0  0  0  0  0  0
   -1.1342   -3.0219    1.4138 O   0  0  0  0  0  0  0  0  0  0  0  0
   -1.6437   -1.1545    0.2517 N   0  0  0  0  0  0  0  0  0  0  0  0
   -2.3990   -0.6047   -0.1552 H   0  0  0  0  0  0  0  0  0  0  0  0
   -0.3392   -0.4891    0.3903 C   0  0  1  0  0  0  0  0  0  0  0  0
    0.1932   -0.9408    1.2301 H   0  0  0  0  0  0  0  0  0  0  0  0
    0.4434   -0.6960   -0.9308 C   0  0  0  0  0  0  0  0  0  0  0  0
    0.0913   -1.6350   -1.3718 H   0  0  0  0  0  0  0  0  0  0  0  0
    0.1558    0.0934   -1.6337 H   0  0  0  0  0  0  0  0  0  0  0  0
    1.9996   -0.7565   -0.8714 C   0  0  0  0  0  0  0  0  0  0  0  0
    2.3758    0.0684   -1.4864 H   0  0  0  0  0  0  0  0  0  0  0  0
    2.6449   -0.6049    0.5143 C   0  0  0  0  0  0  0  0  0  0  0  0
    2.3410   -1.4175    1.1816 H   0  0  0  0  0  0  0  0  0  0  0  0
    3.7355   -0.6331    0.4247 H   0  0  0  0  0  0  0  0  0  0  0  0
    2.3766    0.3527    0.9643 H   0  0  0  0  0  0  0  0  0  0  0  0
    2.4965   -2.0669   -1.4978 C   0  0  0  0  0  0  0  0  0  0  0  0
    2.1315   -2.1613   -2.5255 H   0  0  0  0  0  0  0  0  0  0  0  0
    3.5905   -2.0912   -1.5223 H   0  0  0  0  0  0  0  0  0  0  0  0
    2.1427   -2.9279   -0.9211 H   0  0  0  0  0  0  0  0  0  0  0  0
   -0.5415    1.0090    0.7017 C   0  0  0  0  0  0  0  0  0  0  0  0
   -1.4067    1.6409    0.1049 O   0  0  0  0  0  0  0  0  0  0  0  0
    0.1946    1.6395    1.6876 N   0  0  0  0  0  0  0  0  0  0  0  0
    0.8626    1.0765    2.2064 H   0  0  0  0  0  0  0  0  0  0  0  0
    0.0086    3.0364    2.0599 C   0  0  0  0  0  0  0  0  0  0  0  0
   -1.0130    3.2056    2.4164 H   0  0  0  0  0  0  0  0  0  0  0  0
    0.7037    3.3098    2.8595 H   0  0  0  0  0  0  0  0  0  0  0  0
    0.1955    3.6899    1.2012 H   0  0  0  0  0  0  0  0  0  0  0  0
  1  2  1  0  0  0  0
  2  3  1  0  0  0  0
  2  4  1  0  0  0  0
  2  5  1  0  0  0  0
  5  6  2  0  0  0  0
  5  7  1  0  0  0  0
  7  8  1  0  0  0  0
  7  9  1  0  0  0  0
  9 10  1  0  0  0  0
  9 11  1  0  0  0  0
  9 24  1  0  0  0  0
 11 12  1  0  0  0  0
 11 13  1  0  0  0  0
 11 14  1  0  0  0  0
 14 15  1  0  0  0  0
 14 16  1  0  0  0  0
 14 20  1  0  0  0  0
 16 17  1  0  0  0  0
 16 18  1  0  0  0  0
 16 19  1  0  0  0  0
 20 21  1  0  0  0  0
 20 22  1  0  0  0  0
 20 23  1  0  0  0  0
 24 25  2  0  0  0  0
 24 26  1  0  0  0  0
 26 27  1  0  0  0  0
 26 28  1  0  0  0  0
 28 29  1  0  0  0  0
 28 30  1  0  0  0  0
 28 31  1  0  0  0  0
M  END
$$$$

  -OEChem-03222214063D

 31 30  0     1  0  0  0  0  0999 V2000
   -3.4950   -3.8695    1.2090 H   0  0  0  0  0  0  0  0  0  0  0  0
   -3.4076   -2.9060    0.6991 C   0  0  0  0  0  0  0  0  0  0  0  0
   -4.1055   -2.2006    1.1567 H   0  0  0  0  0  0  0  0  0  0  0  0
   -3.6716   -3.0389   -0.3529 H   0  0  0  0  0  0  0  0  0  0  0  0
   -1.9889   -2.3809    0.8143 C   0  0  0  0  0  0  0  0  0  0  0  0
   -1.1451   -3.0320    1.4101 O   0  0  0  0  0  0  0  0  0  0  0  0
   -1.6620   -1.1667    0.2466 N   0  0  0  0  0  0  0  0  0  0  0  0
   -2.4195   -0.6195   -0.1590 H   0  0  0  0  0  0  0  0  0  0  0  0
   -0.3580   -0.4998    0.3757 C   0  0  1  0  0  0  0  0  0  0  0  0
    0.1671   -0.9512    1.2193 H   0  0  0  0  0  0  0  0  0  0  0  0
    0.4315   -0.7027   -0.9406 C   0  0  0  0  0  0  0  0  0  0  0  0
    0.1006   -1.6595   -1.3593 H   0  0  0  0  0  0  0  0  0  0  0  0
    0.1367    0.0665   -1.6629 H   0  0  0  0  0  0  0  0  0  0  0  0
    1.9848   -0.7518   -0.8606 C   0  0  0  0  0  0  0  0  0  0  0  0
    2.3497    0.2182   -1.2156 H   0  0  0  0  0  0  0  0  0  0  0  0
    2.5905   -0.9553    0.5363 C   0  0  0  0  0  0  0  0  0  0  0  0
    2.2385   -1.8939    0.9772 H   0  0  0  0  0  0  0  0  0  0  0  0
    3.6824   -0.9969    0.4720 H   0  0  0  0  0  0  0  0  0  0  0  0
    2.3299   -0.1276    1.2002 H   0  0  0  0  0  0  0  0  0  0  0  0
    2.5263   -1.8290   -1.8091 C   0  0  0  0  0  0  0  0  0  0  0  0
    2.1557   -1.6630   -2.8256 H   0  0  0  0  0  0  0  0  0  0  0  0
    3.6202   -1.8014   -1.8359 H   0  0  0  0  0  0  0  0  0  0  0  0
    2.2125   -2.8253   -1.4809 H   0  0  0  0  0  0  0  0  0  0  0  0
   -0.5319    0.9999    0.6867 C   0  0  0  0  0  0  0  0  0  0  0  0
   -1.3944    1.6459    0.1019 O   0  0  0  0  0  0  0  0  0  0  0  0
    0.2289    1.6127    1.6649 N   0  0  0  0  0  0  0  0  0  0  0  0
    0.8947    1.0365    2.1717 H   0  0  0  0  0  0  0  0  0  0  0  0
    0.0772    3.0129    2.0398 C   0  0  0  0  0  0  0  0  0  0  0  0
   -0.9333    3.2018    2.4169 H   0  0  0  0  0  0  0  0  0  0  0  0
    0.7939    3.2732    2.8245 H   0  0  0  0  0  0  0  0  0  0  0  0
    0.2589    3.6623    1.1770 H   0  0  0  0  0  0  0  0  0  0  0  0
  1  2  1  0  0  0  0
  2  3  1  0  0  0  0
  2  4  1  0  0  0  0
  2  5  1  0  0  0  0
  5  6  2  0  0  0  0
  5  7  1  0  0  0  0
  7  8  1  0  0  0  0
  7  9  1  0  0  0  0
  9 10  1  0  0  0  0
  9 11  1  0  0  0  0
  9 24  1  0  0  0  0
 11 12  1  0  0  0  0
 11 13  1  0  0  0  0
 11 14  1  0  0  0  0
 14 15  1  0  0  0  0
 14 16  1  0  0  0  0
 14 20  1  0  0  0  0
 16 17  1  0  0  0  0
 16 18  1  0  0  0  0
 16 19  1  0  0  0  0
 20 21  1  0  0  0  0
 20 22  1  0  0  0  0
 20 23  1  0  0  0  0
 24 25  2  0  0  0  0
 24 26  1  0  0  0  0
 26 27  1  0  0  0  0
 26 28  1  0  0  0  0
 28 29  1  0  0  0  0
 28 30  1  0  0  0  0
 28 31  1  0  0  0  0
M  END
$$$$

  -OEChem-03222214063D

 31 30  0     1  0  0  0  0  0999 V2000
   -3.4811   -3.8918    1.2056 H   0  0  0  0  0  0  0  0  0  0  0  0
   -3.4006   -2.9286    0.6943 C   0  0  0  0  0  0  0  0  0  0  0  0
   -4.1017   -2.2267    1.1521 H   0  0  0  0  0  0  0  0  0  0  0  0
   -3.6656   -3.0643   -0.3570 H   0  0  0  0  0  0  0  0  0  0  0  0
   -1.9852   -2.3942    0.8058 C   0  0  0  0  0  0  0  0  0  0  0  0
   -1.1323   -3.0449    1.3891 O   0  0  0  0  0  0  0  0  0  0  0  0
   -1.6706   -1.1753    0.2411 N   0  0  0  0  0  0  0  0  0  0  0  0
   -2.4342   -0.6347   -0.1617 H   0  0  0  0  0  0  0  0  0  0  0  0
   -0.3688   -0.5017    0.3587 C   0  0  1  0  0  0  0  0  0  0  0  0
    0.1587   -0.9553    1.1992 H   0  0  0  0  0  0  0  0  0  0  0  0
    0.4169   -0.7020   -0.9581 C   0  0  0  0  0  0  0  0  0  0  0  0
    0.1024   -1.6676   -1.3694 H   0  0  0  0  0  0  0  0  0  0  0  0
    0.1167    0.0607   -1.6849 H   0  0  0  0  0  0  0  0  0  0  0  0
    1.9655   -0.7370   -0.8626 C   0  0  0  0  0  0  0  0  0  0  0  0
    2.3191    0.2955   -0.9566 H   0  0  0  0  0  0  0  0  0  0  0  0
    2.5397   -1.2812    0.4543 C   0  0  0  0  0  0  0  0  0  0  0  0
    2.1140   -2.2643    0.6822 H   0  0  0  0  0  0  0  0  0  0  0  0
    3.6267   -1.3857    0.3809 H   0  0  0  0  0  0  0  0  0  0  0  0
    2.3299   -0.5999    1.2836 H   0  0  0  0  0  0  0  0  0  0  0  0
    2.5331   -1.5371   -2.0414 C   0  0  0  0  0  0  0  0  0  0  0  0
    2.1553   -1.1393   -2.9885 H   0  0  0  0  0  0  0  0  0  0  0  0
    3.6256   -1.4748   -2.0556 H   0  0  0  0  0  0  0  0  0  0  0  0
    2.2468   -2.5912   -1.9665 H   0  0  0  0  0  0  0  0  0  0  0  0
   -0.5236    0.9968    0.6791 C   0  0  0  0  0  0  0  0  0  0  0  0
   -1.3866    1.6557    0.1104 O   0  0  0  0  0  0  0  0  0  0  0  0
    0.2601    1.5930    1.6497 N   0  0  0  0  0  0  0  0  0  0  0  0
    0.9319    1.0071    2.1372 H   0  0  0  0  0  0  0  0  0  0  0  0
    0.1348    2.9938    2.0325 C   0  0  0  0  0  0  0  0  0  0  0  0
   -0.8669    3.1953    2.4264 H   0  0  0  0  0  0  0  0  0  0  0  0
    0.8673    3.2411    2.8068 H   0  0  0  0  0  0  0  0  0  0  0  0
    0.3119    3.6442    1.1694 H   0  0  0  0  0  0  0  0  0  0  0  0
  1  2  1  0  0  0  0
  2  3  1  0  0  0  0
  2  4  1  0  0  0  0
  2  5  1  0  0  0  0
  5  6  2  0  0  0  0
  5  7  1  0  0  0  0
  7  8  1  0  0  0  0
  7  9  1  0  0  0  0
  9 10  1  0  0  0  0
  9 11  1  0  0  0  0
  9 24  1  0  0  0  0
 11 12  1  0  0  0  0
 11 13  1  0  0  0  0
 11 14  1  0  0  0  0
 14 15  1  0  0  0  0
 14 16  1  0  0  0  0
 14 20  1  0  0  0  0
 16 17  1  0  0  0  0
 16 18  1  0  0  0  0
 16 19  1  0  0  0  0
 20 21  1  0  0  0  0
 20 22  1  0  0  0  0
 20 23  1  0  0  0  0
 24 25  2  0  0  0  0
 24 26  1  0  0  0  0
 26 27  1  0  0  0  0
 26 28  1  0  0  0  0
 28 29  1  0  0  0  0
 28 30  1  0  0  0  0
 28 31  1  0  0  0  0
M  END
$$$$

  -OEChem-03222214063D

 31 30  0     1  0  0  0  0  0999 V2000
   -3.4545   -3.9008    1.2160 H   0  0  0  0  0  0  0  0  0  0  0  0
   -3.3826   -2.9383    0.7017 C   0  0  0  0  0  0  0  0  0  0  0  0
   -4.0803   -2.2374    1.1665 H   0  0  0  0  0  0  0  0  0  0  0  0
   -3.6597   -3.0768   -0.3462 H   0  0  0  0  0  0  0  0  0  0  0  0
   -1.9675   -2.3999    0.7946 C   0  0  0  0  0  0  0  0  0  0  0  0
   -1.1039   -3.0514    1.3608 O   0  0  0  0  0  0  0  0  0  0  0  0
   -1.6644   -1.1768    0.2329 N   0  0  0  0  0  0  0  0  0  0  0  0
   -2.4349   -0.6344   -0.1540 H   0  0  0  0  0  0  0  0  0  0  0  0
   -0.3628   -0.5017    0.3391 C   0  0  1  0  0  0  0  0  0  0  0  0
    0.1788   -0.9548    1.1707 H   0  0  0  0  0  0  0  0  0  0  0  0
    0.4101   -0.6940   -0.9846 C   0  0  0  0  0  0  0  0  0  0  0  0
    0.1020   -1.6551   -1.4107 H   0  0  0  0  0  0  0  0  0  0  0  0
    0.1102    0.0806   -1.6989 H   0  0  0  0  0  0  0  0  0  0  0  0
    1.9534   -0.7223   -0.8715 C   0  0  0  0  0  0  0  0  0  0  0  0
    2.2990    0.3032   -0.7008 H   0  0  0  0  0  0  0  0  0  0  0  0
    2.4930   -1.5892    0.2774 C   0  0  0  0  0  0  0  0  0  0  0  0
    2.0069   -2.5705    0.2796 H   0  0  0  0  0  0  0  0  0  0  0  0
    3.5718   -1.7388    0.1691 H   0  0  0  0  0  0  0  0  0  0  0  0
    2.3250   -1.1079    1.2447 H   0  0  0  0  0  0  0  0  0  0  0  0
    2.5435   -1.2066   -2.2011 C   0  0  0  0  0  0  0  0  0  0  0  0
    2.1822   -0.5862   -3.0273 H   0  0  0  0  0  0  0  0  0  0  0  0
    3.6360   -1.1446   -2.1799 H   0  0  0  0  0  0  0  0  0  0  0  0
    2.2586   -2.2458   -2.3947 H   0  0  0  0  0  0  0  0  0  0  0  0
   -0.5157    0.9944    0.6707 C   0  0  0  0  0  0  0  0  0  0  0  0
   -1.3881    1.6554    0.1190 O   0  0  0  0  0  0  0  0  0  0  0  0
    0.2797    1.5841    1.6358 N   0  0  0  0  0  0  0  0  0  0  0  0
    0.9582    0.9954    2.1105 H   0  0  0  0  0  0  0  0  0  0  0  0
    0.1538    2.9808    2.0329 C   0  0  0  0  0  0  0  0  0  0  0  0
   -0.8454    3.1760    2.4361 H   0  0  0  0  0  0  0  0  0  0  0  0
    0.8914    3.2225    2.8041 H   0  0  0  0  0  0  0  0  0  0  0  0
    0.3228    3.6399    1.1748 H   0  0  0  0  0  0  0  0  0  0  0  0
  1  2  1  0  0  0  0
  2  3  1  0  0  0  0
  2  4  1  0  0  0  0
  2  5  1  0  0  0  0
  5  6  2  0  0  0  0
  5  7  1  0  0  0  0
  7  8  1  0  0  0  0
  7  9  1  0  0  0  0
  9 10  1  0  0  0  0
  9 11  1  0  0  0  0
  9 24  1  0  0  0  0
 11 12  1  0  0  0  0
 11 13  1  0  0  0  0
 11 14  1  0  0  0  0
 14 15  1  0  0  0  0
 14 16  1  0  0  0  0
 14 20  1  0  0  0  0
 16 17  1  0  0  0  0
 16 18  1  0  0  0  0
 16 19  1  0  0  0  0
 20 21  1  0  0  0  0
 20 22  1  0  0  0  0
 20 23  1  0  0  0  0
 24 25  2  0  0  0  0
 24 26  1  0  0  0  0
 26 27  1  0  0  0  0
 26 28  1  0  0  0  0
 28 29  1  0  0  0  0
 28 30  1  0  0  0  0
 28 31  1  0  0  0  0
M  END
$$$$

  -OEChem-03222214063D

 31 30  0     1  0  0  0  0  0999 V2000
   -3.4295   -3.9036    1.2328 H   0  0  0  0  0  0  0  0  0  0  0  0
   -3.3663   -2.9404    0.7189 C   0  0  0  0  0  0  0  0  0  0  0  0
   -4.0530   -2.2393    1.1993 H   0  0  0  0  0  0  0  0  0  0  0  0
   -3.6650   -3.0765   -0.3232 H   0  0  0  0  0  0  0  0  0  0  0  0
   -1.9485   -2.4046    0.7845 C   0  0  0  0  0  0  0  0  0  0  0  0
   -1.0743   -3.0596    1.3302 O   0  0  0  0  0  0  0  0  0  0  0  0
   -1.6558   -1.1778    0.2255 N   0  0  0  0  0  0  0  0  0  0  0  0
   -2.4341   -0.6308   -0.1389 H   0  0  0  0  0  0  0  0  0  0  0  0
   -0.3544   -0.5014    0.3187 C   0  0  1  0  0  0  0  0  0  0  0  0
    0.2062   -0.9531    1.1386 H   0  0  0  0  0  0  0  0  0  0  0  0
    0.4028   -0.6855   -1.0132 C   0  0  0  0  0  0  0  0  0  0  0  0
    0.0966   -1.6378   -1.4601 H   0  0  0  0  0  0  0  0  0  0  0  0
    0.1030    0.1054   -1.7096 H   0  0  0  0  0  0  0  0  0  0  0  0
    1.9414   -0.7071   -0.8792 C   0  0  0  0  0  0  0  0  0  0  0  0
    2.2715    0.2468   -0.4544 H   0  0  0  0  0  0  0  0  0  0  0  0
    2.4549   -1.8431    0.0209 C   0  0  0  0  0  0  0  0  0  0  0  0
    2.0070   -2.7982   -0.2723 H   0  0  0  0  0  0  0  0  0  0  0  0
    3.5426   -1.9315   -0.0617 H   0  0  0  0  0  0  0  0  0  0  0  0
    2.2208   -1.6558    1.0718 H   0  0  0  0  0  0  0  0  0  0  0  0
    2.5611   -0.8491   -2.2745 C   0  0  0  0  0  0  0  0  0  0  0  0
    2.2301   -0.0332   -2.9247 H   0  0  0  0  0  0  0  0  0  0  0  0
    3.6534   -0.8141   -2.2134 H   0  0  0  0  0  0  0  0  0  0  0  0
    2.2691   -1.7995   -2.7326 H   0  0  0  0  0  0  0  0  0  0  0  0
   -0.5115    0.9919    0.6611 C   0  0  0  0  0  0  0  0  0  0  0  0
   -1.3952    1.6514    0.1256 O   0  0  0  0  0  0  0  0  0  0  0  0
    0.2928    1.5792    1.6202 N   0  0  0  0  0  0  0  0  0  0  0  0
    0.9789    0.9902    2.0836 H   0  0  0  0  0  0  0  0  0  0  0  0
    0.1616    2.9709    2.0327 C   0  0  0  0  0  0  0  0  0  0  0  0
   -0.8334    3.1542    2.4516 H   0  0  0  0  0  0  0  0  0  0  0  0
    0.9078    3.2107    2.7961 H   0  0  0  0  0  0  0  0  0  0  0  0
    0.3137    3.6394    1.1789 H   0  0  0  0  0  0  0  0  0  0  0  0
  1  2  1  0  0  0  0
  2  3  1  0  0  0  0
  2  4  1  0  0  0  0
  2  5  1  0  0  0  0
  5  6  2  0  0  0  0
  5  7  1  0  0  0  0
  7  8  1  0  0  0  0
  7  9  1  0  0  0  0
  9 10  1  0  0  0  0
  9 11  1  0  0  0  0
  9 24  1  0  0  0  0
 11 12  1  0  0  0  0
 11 13  1  0  0  0  0
 11 14  1  0  0  0  0
 14 15  1  0  0  0  0
 14 16  1  0  0  0  0
 14 20  1  0  0  0  0
 16 17  1  0  0  0  0
 16 18  1  0  0  0  0
 16 19  1  0  0  0  0
 20 21  1  0  0  0  0
 20 22  1  0  0  0  0
 20 23  1  0  0  0  0
 24 25  2  0  0  0  0
 24 26  1  0  0  0  0
 26 27  1  0  0  0  0
 26 28  1  0  0  0  0
 28 29  1  0  0  0  0
 28 30  1  0  0  0  0
 28 31  1  0  0  0  0
M  END
$$$$

  -OEChem-03222214063D

 31 30  0     1  0  0  0  0  0999 V2000
   -3.3969   -3.9141    1.2567 H   0  0  0  0  0  0  0  0  0  0  0  0
   -3.3439   -2.9540    0.7356 C   0  0  0  0  0  0  0  0  0  0  0  0
   -4.0334   -2.2550    1.2152 H   0  0  0  0  0  0  0  0  0  0  0  0
   -3.6473   -3.0997   -0.3039 H   0  0  0  0  0  0  0  0  0  0  0  0
   -1.9297   -2.4075    0.7890 C   0  0  0  0  0  0  0  0  0  0  0  0
   -1.0459   -3.0569    1.3259 O   0  0  0  0  0  0  0  0  0  0  0  0
   -1.6499   -1.1779    0.2297 N   0  0  0  0  0  0  0  0  0  0  0  0
   -2.4332   -0.6361   -0.1316 H   0  0  0  0  0  0  0  0  0  0  0  0
   -0.3484   -0.4997    0.3045 C   0  0  1  0  0  0  0  0  0  0  0  0
    0.2379   -0.9526    1.1082 H   0  0  0  0  0  0  0  0  0  0  0  0
    0.3864   -0.6770   -1.0396 C   0  0  0  0  0  0  0  0  0  0  0  0
    0.0776   -1.6192   -1.5053 H   0  0  0  0  0  0  0  0  0  0  0  0
    0.0842    0.1282   -1.7185 H   0  0  0  0  0  0  0  0  0  0  0  0
    1.9212   -0.6922   -0.8849 C   0  0  0  0  0  0  0  0  0  0  0  0
    2.2290    0.1268   -0.2262 H   0  0  0  0  0  0  0  0  0  0  0  0
    2.4175   -2.0230   -0.2982 C   0  0  0  0  0  0  0  0  0  0  0  0
    2.1141   -2.8618   -0.9328 H   0  0  0  0  0  0  0  0  0  0  0  0
    3.5095   -2.0215   -0.2262 H   0  0  0  0  0  0  0  0  0  0  0  0
    2.0144   -2.1882    0.7046 H   0  0  0  0  0  0  0  0  0  0  0  0
    2.5742   -0.4768   -2.2548 C   0  0  0  0  0  0  0  0  0  0  0  0
    2.2768    0.4907   -2.6712 H   0  0  0  0  0  0  0  0  0  0  0  0
    3.6649   -0.4889   -2.1644 H   0  0  0  0  0  0  0  0  0  0  0  0
    2.2747   -1.2638   -2.9544 H   0  0  0  0  0  0  0  0  0  0  0  0
   -0.5079    0.9921    0.6558 C   0  0  0  0  0  0  0  0  0  0  0  0
   -1.4016    1.6503    0.1354 O   0  0  0  0  0  0  0  0  0  0  0  0
    0.3082    1.5792    1.6050 N   0  0  0  0  0  0  0  0  0  0  0  0
    1.0028    0.9910    2.0566 H   0  0  0  0  0  0  0  0  0  0  0  0
    0.1771    2.9682    2.0263 C   0  0  0  0  0  0  0  0  0  0  0  0
   -0.8153    3.1472    2.4531 H   0  0  0  0  0  0  0  0  0  0  0  0
    0.9280    3.2047    2.7863 H   0  0  0  0  0  0  0  0  0  0  0  0
    0.3222    3.6424    1.1756 H   0  0  0  0  0  0  0  0  0  0  0  0
  1  2  1  0  0  0  0
  2  3  1  0  0  0  0
  2  4  1  0  0  0  0
  2  5  1  0  0  0  0
  5  6  2  0  0  0  0
  5  7  1  0  0  0  0
  7  8  1  0  0  0  0
  7  9  1  0  0  0  0
  9 10  1  0  0  0  0
  9 11  1  0  0  0  0
  9 24  1  0  0  0  0
 11 12  1  0  0  0  0
 11 13  1  0  0  0  0
 11 14  1  0  0  0  0
 14 15  1  0  0  0  0
 14 16  1  0  0  0  0
 14 20  1  0  0  0  0
 16 17  1  0  0  0  0
 16 18  1  0  0  0  0
 16 19  1  0  0  0  0
 20 21  1  0  0  0  0
 20 22  1  0  0  0  0
 20 23  1  0  0  0  0
 24 25  2  0  0  0  0
 24 26  1  0  0  0  0
 26 27  1  0  0  0  0
 26 28  1  0  0  0  0
 28 29  1  0  0  0  0
 28 30  1  0  0  0  0
 28 31  1  0  0  0  0
M  END
$$$$

  -OEChem-03222214063D

 31 30  0     1  0  0  0  0  0999 V2000
   -3.3818   -3.9210    1.2613 H   0  0  0  0  0  0  0  0  0  0  0  0
   -3.3333   -2.9588    0.7443 C   0  0  0  0  0  0  0  0  0  0  0  0
   -4.0143   -2.2603    1.2366 H   0  0  0  0  0  0  0  0  0  0  0  0
   -3.6513   -3.0988   -0.2916 H   0  0  0  0  0  0  0  0  0  0  0  0
   -1.9174   -2.4156    0.7811 C   0  0  0  0  0  0  0  0  0  0  0  0
   -1.0263   -3.0692    1.3007 O   0  0  0  0  0  0  0  0  0  0  0  0
   -1.6462   -1.1820    0.2263 N   0  0  0  0  0  0  0  0  0  0  0  0
   -2.4360   -0.6378   -0.1168 H   0  0  0  0  0  0  0  0  0  0  0  0
   -0.3466   -0.4996    0.2912 C   0  0  1  0  0  0  0  0  0  0  0  0
    0.2544   -0.9604    1.0814 H   0  0  0  0  0  0  0  0  0  0  0  0
    0.3766   -0.6746   -1.0574 C   0  0  0  0  0  0  0  0  0  0  0  0
    0.0665   -1.6129   -1.5305 H   0  0  0  0  0  0  0  0  0  0  0  0
    0.0698    0.1346   -1.7294 H   0  0  0  0  0  0  0  0  0  0  0  0
    1.9101   -0.6807   -0.8843 C   0  0  0  0  0  0  0  0  0  0  0  0
    2.1949   -0.0493   -0.0363 H   0  0  0  0  0  0  0  0  0  0  0  0
    2.4168   -2.1097   -0.6489 C   0  0  0  0  0  0  0  0  0  0  0  0
    2.1939   -2.7490   -1.5092 H   0  0  0  0  0  0  0  0  0  0  0  0
    3.4996   -2.1087   -0.4890 H   0  0  0  0  0  0  0  0  0  0  0  0
    1.9400   -2.5433    0.2360 H   0  0  0  0  0  0  0  0  0  0  0  0
    2.5795   -0.1171   -2.1428 C   0  0  0  0  0  0  0  0  0  0  0  0
    2.2701    0.9198   -2.3077 H   0  0  0  0  0  0  0  0  0  0  0  0
    3.6687   -0.1353   -2.0368 H   0  0  0  0  0  0  0  0  0  0  0  0
    2.3055   -0.7065   -3.0237 H   0  0  0  0  0  0  0  0  0  0  0  0
   -0.5084    0.9898    0.6525 C   0  0  0  0  0  0  0  0  0  0  0  0
   -1.4096    1.6465    0.1434 O   0  0  0  0  0  0  0  0  0  0  0  0
    0.3139    1.5775    1.5961 N   0  0  0  0  0  0  0  0  0  0  0  0
    1.0128    0.9905    2.0426 H   0  0  0  0  0  0  0  0  0  0  0  0
    0.1813    2.9654    2.0206 C   0  0  0  0  0  0  0  0  0  0  0  0
   -0.8061    3.1391    2.4609 H   0  0  0  0  0  0  0  0  0  0  0  0
    0.9413    3.2059    2.7702 H   0  0  0  0  0  0  0  0  0  0  0  0
    0.3111    3.6401    1.1680 H   0  0  0  0  0  0  0  0  0  0  0  0
  1  2  1  0  0  0  0
  2  3  1  0  0  0  0
  2  4  1  0  0  0  0
  2  5  1  0  0  0  0
  5  6  2  0  0  0  0
  5  7  1  0  0  0  0
  7  8  1  0  0  0  0
  7  9  1  0  0  0  0
  9 10  1  0  0  0  0
  9 11  1  0  0  0  0
  9 24  1  0  0  0  0
 11 12  1  0  0  0  0
 11 13  1  0  0  0  0
 11 14  1  0  0  0  0
 14 15  1  0  0  0  0
 14 16  1  0  0  0  0
 14 20  1  0  0  0  0
 16 17  1  0  0  0  0
 16 18  1  0  0  0  0
 16 19  1  0  0  0  0
 20 21  1  0  0  0  0
 20 22  1  0  0  0  0
 20 23  1  0  0  0  0
 24 25  2  0  0  0  0
 24 26  1  0  0  0  0
 26 27  1  0  0  0  0
 26 28  1  0  0  0  0
 28 29  1  0  0  0  0
 28 30  1  0  0  0  0
 28 31  1  0  0  0  0
M  END
$$$$

  -OEChem-03222214063D

 31 30  0     1  0  0  0  0  0999 V2000
   -3.3897   -3.9212    1.2631 H   0  0  0  0  0  0  0  0  0  0  0  0
   -3.3412   -2.9598    0.7444 C   0  0  0  0  0  0  0  0  0  0  0  0
   -4.0219   -2.2602    1.2355 H   0  0  0  0  0  0  0  0  0  0  0  0
   -3.6593   -3.1012   -0.2912 H   0  0  0  0  0  0  0  0  0  0  0  0
   -1.9252   -2.4171    0.7800 C   0  0  0  0  0  0  0  0  0  0  0  0
   -1.0342   -3.0714    1.2990 O   0  0  0  0  0  0  0  0  0  0  0  0
   -1.6531   -1.1843    0.2242 N   0  0  0  0  0  0  0  0  0  0  0  0
   -2.4426   -0.6403   -0.1199 H   0  0  0  0  0  0  0  0  0  0  0  0
   -0.3535   -0.5016    0.2887 C   0  0  1  0  0  0  0  0  0  0  0  0
    0.2440   -0.9654    1.0802 H   0  0  0  0  0  0  0  0  0  0  0  0
    0.3732   -0.6774   -1.0577 C   0  0  0  0  0  0  0  0  0  0  0  0
    0.0613   -1.6188   -1.5228 H   0  0  0  0  0  0  0  0  0  0  0  0
    0.0610    0.1237   -1.7370 H   0  0  0  0  0  0  0  0  0  0  0  0
    1.9100   -0.6820   -0.8835 C   0  0  0  0  0  0  0  0  0  0  0  0
    2.1817   -0.2890    0.1016 H   0  0  0  0  0  0  0  0  0  0  0  0
    2.4617   -2.1062   -1.0193 C   0  0  0  0  0  0  0  0  0  0  0  0
    2.2575   -2.5101   -2.0162 H   0  0  0  0  0  0  0  0  0  0  0  0
    3.5441   -2.1136   -0.8572 H   0  0  0  0  0  0  0  0  0  0  0  0
    1.9983   -2.7634   -0.2761 H   0  0  0  0  0  0  0  0  0  0  0  0
    2.5638    0.2130   -1.9424 C   0  0  0  0  0  0  0  0  0  0  0  0
    2.2154    1.2452   -1.8349 H   0  0  0  0  0  0  0  0  0  0  0  0
    3.6524    0.2060   -1.8291 H   0  0  0  0  0  0  0  0  0  0  0  0
    2.3166   -0.1354   -2.9505 H   0  0  0  0  0  0  0  0  0  0  0  0
   -0.5106    0.9887    0.6478 C   0  0  0  0  0  0  0  0  0  0  0  0
   -1.4096    1.6472    0.1373 O   0  0  0  0  0  0  0  0  0  0  0  0
    0.3139    1.5754    1.5903 N   0  0  0  0  0  0  0  0  0  0  0  0
    1.0135    0.9879    2.0351 H   0  0  0  0  0  0  0  0  0  0  0  0
    0.1861    2.9644    2.0128 C   0  0  0  0  0  0  0  0  0  0  0  0
   -0.8007    3.1420    2.4532 H   0  0  0  0  0  0  0  0  0  0  0  0
    0.9472    3.2031    2.7618 H   0  0  0  0  0  0  0  0  0  0  0  0
    0.3179    3.6380    1.1596 H   0  0  0  0  0  0  0  0  0  0  0  0
  1  2  1  0  0  0  0
  2  3  1  0  0  0  0
  2  4  1  0  0  0  0
  2  5  1  0  0  0  0
  5  6  2  0  0  0  0
  5  7  1  0  0  0  0
  7  8  1  0  0  0  0
  7  9  1  0  0  0  0
  9 10  1  0  0  0  0
  9 11  1  0  0  0  0
  9 24  1  0  0  0  0
 11 12  1  0  0  0  0
 11 13  1  0  0  0  0
 11 14  1  0  0  0  0
 14 15  1  0  0  0  0
 14 16  1  0  0  0  0
 14 20  1  0  0  0  0
 16 17  1  0  0  0  0
 16 18  1  0  0  0  0
 16 19  1  0  0  0  0
 20 21  1  0  0  0  0
 20 22  1  0  0  0  0
 20 23  1  0  0  0  0
 24 25  2  0  0  0  0
 24 26  1  0  0  0  0
 26 27  1  0  0  0  0
 26 28  1  0  0  0  0
 28 29  1  0  0  0  0
 28 30  1  0  0  0  0
 28 31  1  0  0  0  0
M  END
$$$$

  -OEChem-03222214063D

 31 30  0     1  0  0  0  0  0999 V2000
   -3.4049   -3.9173    1.2636 H   0  0  0  0  0  0  0  0  0  0  0  0
   -3.3526   -2.9565    0.7442 C   0  0  0  0  0  0  0  0  0  0  0  0
   -4.0324   -2.2547    1.2332 H   0  0  0  0  0  0  0  0  0  0  0  0
   -3.6690   -3.0981   -0.2919 H   0  0  0  0  0  0  0  0  0  0  0  0
   -1.9350   -2.4177    0.7821 C   0  0  0  0  0  0  0  0  0  0  0  0
   -1.0474   -3.0725    1.3058 O   0  0  0  0  0  0  0  0  0  0  0  0
   -1.6583   -1.1870    0.2236 N   0  0  0  0  0  0  0  0  0  0  0  0
   -2.4457   -0.6431   -0.1254 H   0  0  0  0  0  0  0  0  0  0  0  0
   -0.3580   -0.5052    0.2900 C   0  0  1  0  0  0  0  0  0  0  0  0
    0.2321   -0.9686    1.0868 H   0  0  0  0  0  0  0  0  0  0  0  0
    0.3742   -0.6802   -1.0542 C   0  0  0  0  0  0  0  0  0  0  0  0
    0.0632   -1.6316   -1.4995 H   0  0  0  0  0  0  0  0  0  0  0  0
    0.0570    0.1043   -1.7504 H   0  0  0  0  0  0  0  0  0  0  0  0
    1.9141   -0.6860   -0.8879 C   0  0  0  0  0  0  0  0  0  0  0  0
    2.1817   -0.5762    0.1679 H   0  0  0  0  0  0  0  0  0  0  0  0
    2.5100   -2.0071   -1.3878 C   0  0  0  0  0  0  0  0  0  0  0  0
    2.2921   -2.1534   -2.4506 H   0  0  0  0  0  0  0  0  0  0  0  0
    3.5960   -2.0117   -1.2521 H   0  0  0  0  0  0  0  0  0  0  0  0
    2.0906   -2.8482   -0.8263 H   0  0  0  0  0  0  0  0  0  0  0  0
    2.5360    0.4865   -1.6546 C   0  0  0  0  0  0  0  0  0  0  0  0
    2.1368    1.4365   -1.2852 H   0  0  0  0  0  0  0  0  0  0  0  0
    3.6224    0.4959   -1.5221 H   0  0  0  0  0  0  0  0  0  0  0  0
    2.3175    0.4090   -2.7245 H   0  0  0  0  0  0  0  0  0  0  0  0
   -0.5115    0.9864    0.6435 C   0  0  0  0  0  0  0  0  0  0  0  0
   -1.4069    1.6461    0.1283 O   0  0  0  0  0  0  0  0  0  0  0  0
    0.3127    1.5729    1.5861 N   0  0  0  0  0  0  0  0  0  0  0  0
    1.0132    0.9856    2.0296 H   0  0  0  0  0  0  0  0  0  0  0  0
    0.1922    2.9648    2.0007 C   0  0  0  0  0  0  0  0  0  0  0  0
   -0.7936    3.1504    2.4398 H   0  0  0  0  0  0  0  0  0  0  0  0
    0.9544    3.2033    2.7487 H   0  0  0  0  0  0  0  0  0  0  0  0
    0.3281    3.6327    1.1437 H   0  0  0  0  0  0  0  0  0  0  0  0
  1  2  1  0  0  0  0
  2  3  1  0  0  0  0
  2  4  1  0  0  0  0
  2  5  1  0  0  0  0
  5  6  2  0  0  0  0
  5  7  1  0  0  0  0
  7  8  1  0  0  0  0
  7  9  1  0  0  0  0
  9 10  1  0  0  0  0
  9 11  1  0  0  0  0
  9 24  1  0  0  0  0
 11 12  1  0  0  0  0
 11 13  1  0  0  0  0
 11 14  1  0  0  0  0
 14 15  1  0  0  0  0
 14 16  1  0  0  0  0
 14 20  1  0  0  0  0
 16 17  1  0  0  0  0
 16 18  1  0  0  0  0
 16 19  1  0  0  0  0
 20 21  1  0  0  0  0
 20 22  1  0  0  0  0
 20 23  1  0  0  0  0
 24 25  2  0  0  0  0
 24 26  1  0  0  0  0
 26 27  1  0  0  0  0
 26 28  1  0  0  0  0
 28 29  1  0  0  0  0
 28 30  1  0  0  0  0
 28 31  1  0  0  0  0
M  END
$$$$

  -OEChem-03222214063D

 31 30  0     1  0  0  0  0  0999 V2000
   -3.4034   -3.9137    1.2559 H   0  0  0  0  0  0  0  0  0  0  0  0
   -3.3486   -2.9534    0.7356 C   0  0  0  0  0  0  0  0  0  0  0  0
   -4.0338   -2.2519    1.2175 H   0  0  0  0  0  0  0  0  0  0  0  0
   -3.6551   -3.0969   -0.3033 H   0  0  0  0  0  0  0  0  0  0  0  0
   -1.9329   -2.4113    0.7858 C   0  0  0  0  0  0  0  0  0  0  0  0
   -1.0484   -3.0634    1.3182 O   0  0  0  0  0  0  0  0  0  0  0  0
   -1.6535   -1.1813    0.2275 N   0  0  0  0  0  0  0  0  0  0  0  0
   -2.4389   -0.6381   -0.1272 H   0  0  0  0  0  0  0  0  0  0  0  0
   -0.3528   -0.5006    0.2979 C   0  0  1  0  0  0  0  0  0  0  0  0
    0.2354   -0.9608    1.0976 H   0  0  0  0  0  0  0  0  0  0  0  0
    0.3788   -0.6787   -1.0480 C   0  0  0  0  0  0  0  0  0  0  0  0
    0.0682   -1.6397   -1.4726 H   0  0  0  0  0  0  0  0  0  0  0  0
    0.0598    0.0920   -1.7585 H   0  0  0  0  0  0  0  0  0  0  0  0
    1.9190   -0.6895   -0.8961 C   0  0  0  0  0  0  0  0  0  0  0  0
    2.1912   -0.8697    0.1489 H   0  0  0  0  0  0  0  0  0  0  0  0
    2.5365   -1.8224   -1.7243 C   0  0  0  0  0  0  0  0  0  0  0  0
    2.2949   -1.7007   -2.7851 H   0  0  0  0  0  0  0  0  0  0  0  0
    3.6254   -1.8256   -1.6138 H   0  0  0  0  0  0  0  0  0  0  0  0
    2.1559   -2.7924   -1.3885 H   0  0  0  0  0  0  0  0  0  0  0  0
    2.5125    0.6582   -1.3230 C   0  0  0  0  0  0  0  0  0  0  0  0
    2.0914    1.4709   -0.7238 H   0  0  0  0  0  0  0  0  0  0  0  0
    3.5981    0.6568   -1.1839 H   0  0  0  0  0  0  0  0  0  0  0  0
    2.2987    0.8584   -2.3778 H   0  0  0  0  0  0  0  0  0  0  0  0
   -0.5135    0.9902    0.6505 C   0  0  0  0  0  0  0  0  0  0  0  0
   -1.4075    1.6474    0.1296 O   0  0  0  0  0  0  0  0  0  0  0  0
    0.3039    1.5801    1.5968 N   0  0  0  0  0  0  0  0  0  0  0  0
    1.0062    0.9965    2.0422 H   0  0  0  0  0  0  0  0  0  0  0  0
    0.1808    2.9740    2.0043 C   0  0  0  0  0  0  0  0  0  0  0  0
   -0.8100    3.1622    2.4310 H   0  0  0  0  0  0  0  0  0  0  0  0
    0.9344    3.2151    2.7602 H   0  0  0  0  0  0  0  0  0  0  0  0
    0.3274    3.6382    1.1460 H   0  0  0  0  0  0  0  0  0  0  0  0
  1  2  1  0  0  0  0
  2  3  1  0  0  0  0
  2  4  1  0  0  0  0
  2  5  1  0  0  0  0
  5  6  2  0  0  0  0
  5  7  1  0  0  0  0
  7  8  1  0  0  0  0
  7  9  1  0  0  0  0
  9 10  1  0  0  0  0
  9 11  1  0  0  0  0
  9 24  1  0  0  0  0
 11 12  1  0  0  0  0
 11 13  1  0  0  0  0
 11 14  1  0  0  0  0
 14 15  1  0  0  0  0
 14 16  1  0  0  0  0
 14 20  1  0  0  0  0
 16 17  1  0  0  0  0
 16 18  1  0  0  0  0
 16 19  1  0  0  0  0
 20 21  1  0  0  0  0
 20 22  1  0  0  0  0
 20 23  1  0  0  0  0
 24 25  2  0  0  0  0
 24 26  1  0  0  0  0
 26 27  1  0  0  0  0
 26 28  1  0  0  0  0
 28 29  1  0  0  0  0
 28 30  1  0  0  0  0
 28 31  1  0  0  0  0
M  END
$$$$

  -OEChem-03222214063D

 31 30  0     1  0  0  0  0  0999 V2000
   -3.3914   -3.9071    1.2281 H   0  0  0  0  0  0  0  0  0  0  0  0
   -3.3325   -2.9424    0.7165 C   0  0  0  0  0  0  0  0  0  0  0  0
   -4.0240   -2.2463    1.1973 H   0  0  0  0  0  0  0  0  0  0  0  0
   -3.6279   -3.0777   -0.3267 H   0  0  0  0  0  0  0  0  0  0  0  0
   -1.9182   -2.3986    0.7861 C   0  0  0  0  0  0  0  0  0  0  0  0
   -1.0398   -3.0503    1.3290 O   0  0  0  0  0  0  0  0  0  0  0  0
   -1.6323   -1.1674    0.2340 N   0  0  0  0  0  0  0  0  0  0  0  0
   -2.4130   -0.6220   -0.1280 H   0  0  0  0  0  0  0  0  0  0  0  0
   -0.3315   -0.4883    0.3225 C   0  0  1  0  0  0  0  0  0  0  0  0
    0.2590   -0.9447    1.1230 H   0  0  0  0  0  0  0  0  0  0  0  0
    0.3968   -0.6743   -1.0268 C   0  0  0  0  0  0  0  0  0  0  0  0
    0.0801   -1.6370   -1.4432 H   0  0  0  0  0  0  0  0  0  0  0  0
    0.0802    0.0957   -1.7388 H   0  0  0  0  0  0  0  0  0  0  0  0
    1.9376   -0.6997   -0.9021 C   0  0  0  0  0  0  0  0  0  0  0  0
    2.2217   -1.1414    0.0589 H   0  0  0  0  0  0  0  0  0  0  0  0
    2.5358   -1.5776   -2.0083 C   0  0  0  0  0  0  0  0  0  0  0  0
    2.2639   -1.1916   -2.9961 H   0  0  0  0  0  0  0  0  0  0  0  0
    3.6273   -1.5986   -1.9313 H   0  0  0  0  0  0  0  0  0  0  0  0
    2.1692   -2.6055   -1.9223 H   0  0  0  0  0  0  0  0  0  0  0  0
    2.5369    0.7095   -1.0000 C   0  0  0  0  0  0  0  0  0  0  0  0
    2.1880    1.3416   -0.1813 H   0  0  0  0  0  0  0  0  0  0  0  0
    3.6290    0.6613   -0.9457 H   0  0  0  0  0  0  0  0  0  0  0  0
    2.2585    1.1831   -1.9469 H   0  0  0  0  0  0  0  0  0  0  0  0
   -0.5255    0.9989    0.6780 C   0  0  0  0  0  0  0  0  0  0  0  0
   -1.4169    1.6436    0.1370 O   0  0  0  0  0  0  0  0  0  0  0  0
    0.2621    1.6033    1.6406 N   0  0  0  0  0  0  0  0  0  0  0  0
    0.9664    1.0322    2.0989 H   0  0  0  0  0  0  0  0  0  0  0  0
    0.1151    2.9981    2.0373 C   0  0  0  0  0  0  0  0  0  0  0  0
   -0.8878    3.1792    2.4381 H   0  0  0  0  0  0  0  0  0  0  0  0
    0.8472    3.2503    2.8106 H   0  0  0  0  0  0  0  0  0  0  0  0
    0.2769    3.6593    1.1795 H   0  0  0  0  0  0  0  0  0  0  0  0
  1  2  1  0  0  0  0
  2  3  1  0  0  0  0
  2  4  1  0  0  0  0
  2  5  1  0  0  0  0
  5  6  2  0  0  0  0
  5  7  1  0  0  0  0
  7  8  1  0  0  0  0
  7  9  1  0  0  0  0
  9 10  1  0  0  0  0
  9 11  1  0  0  0  0
  9 24  1  0  0  0  0
 11 12  1  0  0  0  0
 11 13  1  0  0  0  0
 11 14  1  0  0  0  0
 14 15  1  0  0  0  0
 14 16  1  0  0  0  0
 14 20  1  0  0  0  0
 16 17  1  0  0  0  0
 16 18  1  0  0  0  0
 16 19  1  0  0  0  0
 20 21  1  0  0  0  0
 20 22  1  0  0  0  0
 20 23  1  0  0  0  0
 24 25  2  0  0  0  0
 24 26  1  0  0  0  0
 26 27  1  0  0  0  0
 26 28  1  0  0  0  0
 28 29  1  0  0  0  0
 28 30  1  0  0  0  0
 28 31  1  0  0  0  0
M  END
$$$$

  -OEChem-03222214063D

 31 30  0     1  0  0  0  0  0999 V2000
   -3.3944   -3.8868    1.2154 H   0  0  0  0  0  0  0  0  0  0  0  0
   -3.3264   -2.9198    0.7093 C   0  0  0  0  0  0  0  0  0  0  0  0
   -4.0144   -2.2210    1.1910 H   0  0  0  0  0  0  0  0  0  0  0  0
   -3.6195   -3.0476   -0.3355 H   0  0  0  0  0  0  0  0  0  0  0  0
   -1.9081   -2.3871    0.7873 C   0  0  0  0  0  0  0  0  0  0  0  0
   -1.0387   -3.0428    1.3395 O   0  0  0  0  0  0  0  0  0  0  0  0
   -1.6086   -1.1594    0.2352 N   0  0  0  0  0  0  0  0  0  0  0  0
   -2.3820   -0.6082   -0.1340 H   0  0  0  0  0  0  0  0  0  0  0  0
   -0.3058   -0.4864    0.3412 C   0  0  1  0  0  0  0  0  0  0  0  0
    0.2865   -0.9390    1.1430 H   0  0  0  0  0  0  0  0  0  0  0  0
    0.4207   -0.6739   -1.0097 C   0  0  0  0  0  0  0  0  0  0  0  0
    0.0959   -1.6294   -1.4358 H   0  0  0  0  0  0  0  0  0  0  0  0
    0.1107    0.1085   -1.7112 H   0  0  0  0  0  0  0  0  0  0  0  0
    1.9611   -0.7167   -0.9081 C   0  0  0  0  0  0  0  0  0  0  0  0
    2.2498   -1.3980   -0.1001 H   0  0  0  0  0  0  0  0  0  0  0  0
    2.5350   -1.2711   -2.2183 C   0  0  0  0  0  0  0  0  0  0  0  0
    2.2728   -0.6216   -3.0596 H   0  0  0  0  0  0  0  0  0  0  0  0
    3.6257   -1.3404   -2.1593 H   0  0  0  0  0  0  0  0  0  0  0  0
    2.1418   -2.2732   -2.4163 H   0  0  0  0  0  0  0  0  0  0  0  0
    2.5757    0.6625   -0.6380 C   0  0  0  0  0  0  0  0  0  0  0  0
    2.3777    0.9799    0.3868 H   0  0  0  0  0  0  0  0  0  0  0  0
    3.6619    0.6289   -0.7678 H   0  0  0  0  0  0  0  0  0  0  0  0
    2.1684    1.4104   -1.3259 H   0  0  0  0  0  0  0  0  0  0  0  0
   -0.5306    1.0006    0.6894 C   0  0  0  0  0  0  0  0  0  0  0  0
   -1.4203    1.6289    0.1256 O   0  0  0  0  0  0  0  0  0  0  0  0
    0.2226    1.6277    1.6647 N   0  0  0  0  0  0  0  0  0  0  0  0
    0.9209    1.0710    2.1491 H   0  0  0  0  0  0  0  0  0  0  0  0
    0.0359    3.0204    2.0521 C   0  0  0  0  0  0  0  0  0  0  0  0
   -0.9795    3.1806    2.4294 H   0  0  0  0  0  0  0  0  0  0  0  0
    0.7446    3.2917    2.8404 H   0  0  0  0  0  0  0  0  0  0  0  0
    0.2024    3.6813    1.1950 H   0  0  0  0  0  0  0  0  0  0  0  0
  1  2  1  0  0  0  0
  2  3  1  0  0  0  0
  2  4  1  0  0  0  0
  2  5  1  0  0  0  0
  5  6  2  0  0  0  0
  5  7  1  0  0  0  0
  7  8  1  0  0  0  0
  7  9  1  0  0  0  0
  9 10  1  0  0  0  0
  9 11  1  0  0  0  0
  9 24  1  0  0  0  0
 11 12  1  0  0  0  0
 11 13  1  0  0  0  0
 11 14  1  0  0  0  0
 14 15  1  0  0  0  0
 14 16  1  0  0  0  0
 14 20  1  0  0  0  0
 16 17  1  0  0  0  0
 16 18  1  0  0  0  0
 16 19  1  0  0  0  0
 20 21  1  0  0  0  0
 20 22  1  0  0  0  0
 20 23  1  0  0  0  0
 24 25  2  0  0  0  0
 24 26  1  0  0  0  0
 26 27  1  0  0  0  0
 26 28  1  0  0  0  0
 28 29  1  0  0  0  0
 28 30  1  0  0  0  0
 28 31  1  0  0  0  0
M  END
$$$$

  -OEChem-03222214063D

 31 30  0     1  0  0  0  0  0999 V2000
   -3.4061   -3.8936    1.2356 H   0  0  0  0  0  0  0  0  0  0  0  0
   -3.3432   -2.9302    0.7221 C   0  0  0  0  0  0  0  0  0  0  0  0
   -4.0291   -2.2291    1.2036 H   0  0  0  0  0  0  0  0  0  0  0  0
   -3.6430   -3.0658   -0.3199 H   0  0  0  0  0  0  0  0  0  0  0  0
   -1.9251   -2.3951    0.7864 C   0  0  0  0  0  0  0  0  0  0  0  0
   -1.0501   -3.0503    1.3306 O   0  0  0  0  0  0  0  0  0  0  0  0
   -1.6321   -1.1677    0.2295 N   0  0  0  0  0  0  0  0  0  0  0  0
   -2.4097   -0.6187   -0.1336 H   0  0  0  0  0  0  0  0  0  0  0  0
   -0.3287   -0.4939    0.3217 C   0  0  1  0  0  0  0  0  0  0  0  0
    0.2544   -0.9501    1.1276 H   0  0  0  0  0  0  0  0  0  0  0  0
    0.4172   -0.6709   -1.0207 C   0  0  0  0  0  0  0  0  0  0  0  0
   -0.0729   -1.4601   -1.6012 H   0  0  0  0  0  0  0  0  0  0  0  0
    0.3388    0.2499   -1.6092 H   0  0  0  0  0  0  0  0  0  0  0  0
    1.9008   -1.0626   -0.8613 C   0  0  0  0  0  0  0  0  0  0  0  0
    1.9587   -2.0281   -0.3463 H   0  0  0  0  0  0  0  0  0  0  0  0
    2.5316   -1.2099   -2.2510 C   0  0  0  0  0  0  0  0  0  0  0  0
    2.5120   -0.2562   -2.7883 H   0  0  0  0  0  0  0  0  0  0  0  0
    3.5718   -1.5396   -2.1660 H   0  0  0  0  0  0  0  0  0  0  0  0
    1.9857   -1.9529   -2.8408 H   0  0  0  0  0  0  0  0  0  0  0  0
    2.7038   -0.0276   -0.0607 C   0  0  0  0  0  0  0  0  0  0  0  0
    2.3966   -0.0235    0.9879 H   0  0  0  0  0  0  0  0  0  0  0  0
    3.7714   -0.2672   -0.0920 H   0  0  0  0  0  0  0  0  0  0  0  0
    2.5618    0.9757   -0.4751 H   0  0  0  0  0  0  0  0  0  0  0  0
   -0.5232    0.9970    0.6695 C   0  0  0  0  0  0  0  0  0  0  0  0
   -1.4149    1.6369    0.1227 O   0  0  0  0  0  0  0  0  0  0  0  0
    0.2564    1.6106    1.6325 N   0  0  0  0  0  0  0  0  0  0  0  0
    0.9562    1.0434    2.1023 H   0  0  0  0  0  0  0  0  0  0  0  0
    0.0973    3.0052    2.0254 C   0  0  0  0  0  0  0  0  0  0  0  0
   -0.9069    3.1789    2.4262 H   0  0  0  0  0  0  0  0  0  0  0  0
    0.8276    3.2658    2.7975 H   0  0  0  0  0  0  0  0  0  0  0  0
    0.2528    3.6652    1.1656 H   0  0  0  0  0  0  0  0  0  0  0  0
  1  2  1  0  0  0  0
  2  3  1  0  0  0  0
  2  4  1  0  0  0  0
  2  5  1  0  0  0  0
  5  6  2  0  0  0  0
  5  7  1  0  0  0  0
  7  8  1  0  0  0  0
  7  9  1  0  0  0  0
  9 10  1  0  0  0  0
  9 11  1  0  0  0  0
  9 24  1  0  0  0  0
 11 12  1  0  0  0  0
 11 13  1  0  0  0  0
 11 14  1  0  0  0  0
 14 15  1  0  0  0  0
 14 16  1  0  0  0  0
 14 20  1  0  0  0  0
 16 17  1  0  0  0  0
 16 18  1  0  0  0  0
 16 19  1  0  0  0  0
 20 21  1  0  0  0  0
 20 22  1  0  0  0  0
 20 23  1  0  0  0  0
 24 25  2  0  0  0  0
 24 26  1  0  0  0  0
 26 27  1  0  0  0  0
 26 28  1  0  0  0  0
 28 29  1  0  0  0  0
 28 30  1  0  0  0  0
 28 31  1  0  0  0  0
M  END
$$$$

  -OEChem-03222214063D

 31 30  0     1  0  0  0  0  0999 V2000
   -3.4290   -3.8950    1.2128 H   0  0  0  0  0  0  0  0  0  0  0  0
   -3.3613   -2.9295    0.7039 C   0  0  0  0  0  0  0  0  0  0  0  0
   -4.0517   -2.2303    1.1818 H   0  0  0  0  0  0  0  0  0  0  0  0
   -3.6516   -3.0604   -0.3412 H   0  0  0  0  0  0  0  0  0  0  0  0
   -1.9440   -2.3948    0.7836 C   0  0  0  0  0  0  0  0  0  0  0  0
   -1.0762   -3.0492    1.3400 O   0  0  0  0  0  0  0  0  0  0  0  0
   -1.6449   -1.1680    0.2281 N   0  0  0  0  0  0  0  0  0  0  0  0
   -2.4186   -0.6217   -0.1472 H   0  0  0  0  0  0  0  0  0  0  0  0
   -0.3446   -0.4903    0.3351 C   0  0  1  0  0  0  0  0  0  0  0  0
    0.2141   -0.9486    1.1551 H   0  0  0  0  0  0  0  0  0  0  0  0
    0.4247   -0.6838   -0.9930 C   0  0  0  0  0  0  0  0  0  0  0  0
   -0.0580   -1.4725   -1.5804 H   0  0  0  0  0  0  0  0  0  0  0  0
    0.3440    0.2376   -1.5807 H   0  0  0  0  0  0  0  0  0  0  0  0
    1.9151   -1.0711   -0.8437 C   0  0  0  0  0  0  0  0  0  0  0  0
    1.9789   -2.1265   -0.5566 H   0  0  0  0  0  0  0  0  0  0  0  0
    2.6139   -0.8629   -2.1938 C   0  0  0  0  0  0  0  0  0  0  0  0
    2.5998    0.1935   -2.4814 H   0  0  0  0  0  0  0  0  0  0  0  0
    3.6558   -1.1943   -2.1412 H   0  0  0  0  0  0  0  0  0  0  0  0
    2.1116   -1.4424   -2.9748 H   0  0  0  0  0  0  0  0  0  0  0  0
    2.6743   -0.2314    0.1978 C   0  0  0  0  0  0  0  0  0  0  0  0
    2.3336   -0.4531    1.2122 H   0  0  0  0  0  0  0  0  0  0  0  0
    3.7448   -0.4562    0.1571 H   0  0  0  0  0  0  0  0  0  0  0  0
    2.5395    0.8373    0.0028 H   0  0  0  0  0  0  0  0  0  0  0  0
   -0.5325    1.0021    0.6761 C   0  0  0  0  0  0  0  0  0  0  0  0
   -1.4171    1.6456    0.1224 O   0  0  0  0  0  0  0  0  0  0  0  0
    0.2432    1.6100    1.6459 N   0  0  0  0  0  0  0  0  0  0  0  0
    0.9406    1.0400    2.1160 H   0  0  0  0  0  0  0  0  0  0  0  0
    0.0900    3.0056    2.0374 C   0  0  0  0  0  0  0  0  0  0  0  0
   -0.9164    3.1861    2.4296 H   0  0  0  0  0  0  0  0  0  0  0  0
    0.8153    3.2615    2.8157 H   0  0  0  0  0  0  0  0  0  0  0  0
    0.2572    3.6648    1.1791 H   0  0  0  0  0  0  0  0  0  0  0  0
  1  2  1  0  0  0  0
  2  3  1  0  0  0  0
  2  4  1  0  0  0  0
  2  5  1  0  0  0  0
  5  6  2  0  0  0  0
  5  7  1  0  0  0  0
  7  8  1  0  0  0  0
  7  9  1  0  0  0  0
  9 10  1  0  0  0  0
  9 11  1  0  0  0  0
  9 24  1  0  0  0  0
 11 12  1  0  0  0  0
 11 13  1  0  0  0  0
 11 14  1  0  0  0  0
 14 15  1  0  0  0  0
 14 16  1  0  0  0  0
 14 20  1  0  0  0  0
 16 17  1  0  0  0  0
 16 18  1  0  0  0  0
 16 19  1  0  0  0  0
 20 21  1  0  0  0  0
 20 22  1  0  0  0  0
 20 23  1  0  0  0  0
 24 25  2  0  0  0  0
 24 26  1  0  0  0  0
 26 27  1  0  0  0  0
 26 28  1  0  0  0  0
 28 29  1  0  0  0  0
 28 30  1  0  0  0  0
 28 31  1  0  0  0  0
M  END
$$$$

  -OEChem-03222214063D

 31 30  0     1  0  0  0  0  0999 V2000
   -3.4517   -3.9006    1.1850 H   0  0  0  0  0  0  0  0  0  0  0  0
   -3.3773   -2.9341    0.6786 C   0  0  0  0  0  0  0  0  0  0  0  0
   -4.0863   -2.2405    1.1370 H   0  0  0  0  0  0  0  0  0  0  0  0
   -3.6370   -3.0673   -0.3743 H   0  0  0  0  0  0  0  0  0  0  0  0
   -1.9667   -2.3885    0.7978 C   0  0  0  0  0  0  0  0  0  0  0  0
   -1.1117   -3.0338    1.3840 O   0  0  0  0  0  0  0  0  0  0  0  0
   -1.6583   -1.1655    0.2386 N   0  0  0  0  0  0  0  0  0  0  0  0
   -2.4239   -0.6274   -0.1638 H   0  0  0  0  0  0  0  0  0  0  0  0
   -0.3594   -0.4860    0.3588 C   0  0  1  0  0  0  0  0  0  0  0  0
    0.1760   -0.9386    1.1948 H   0  0  0  0  0  0  0  0  0  0  0  0
    0.4283   -0.6905   -0.9601 C   0  0  0  0  0  0  0  0  0  0  0  0
   -0.0545   -1.4774   -1.5498 H   0  0  0  0  0  0  0  0  0  0  0  0
    0.3392    0.2296   -1.5486 H   0  0  0  0  0  0  0  0  0  0  0  0
    1.9273   -1.0786   -0.8370 C   0  0  0  0  0  0  0  0  0  0  0  0
    2.0035   -2.1716   -0.8229 H   0  0  0  0  0  0  0  0  0  0  0  0
    2.6785   -0.5276   -2.0578 C   0  0  0  0  0  0  0  0  0  0  0  0
    2.6658    0.5673   -2.0622 H   0  0  0  0  0  0  0  0  0  0  0  0
    3.7207   -0.8620   -2.0508 H   0  0  0  0  0  0  0  0  0  0  0  0
    2.2133   -0.8840   -2.9824 H   0  0  0  0  0  0  0  0  0  0  0  0
    2.6469   -0.5327    0.4093 C   0  0  0  0  0  0  0  0  0  0  0  0
    2.2891   -1.0195    1.3201 H   0  0  0  0  0  0  0  0  0  0  0  0
    3.7215   -0.7290    0.3412 H   0  0  0  0  0  0  0  0  0  0  0  0
    2.5027    0.5481    0.4971 H   0  0  0  0  0  0  0  0  0  0  0  0
   -0.5440    1.0096    0.6867 C   0  0  0  0  0  0  0  0  0  0  0  0
   -1.4142    1.6556    0.1137 O   0  0  0  0  0  0  0  0  0  0  0  0
    0.2234    1.6190    1.6620 N   0  0  0  0  0  0  0  0  0  0  0  0
    0.9103    1.0469    2.1449 H   0  0  0  0  0  0  0  0  0  0  0  0
    0.0838    3.0212    2.0343 C   0  0  0  0  0  0  0  0  0  0  0  0
   -0.9242    3.2186    2.4137 H   0  0  0  0  0  0  0  0  0  0  0  0
    0.8042    3.2781    2.8168 H   0  0  0  0  0  0  0  0  0  0  0  0
    0.2686    3.6670    1.1694 H   0  0  0  0  0  0  0  0  0  0  0  0
  1  2  1  0  0  0  0
  2  3  1  0  0  0  0
  2  4  1  0  0  0  0
  2  5  1  0  0  0  0
  5  6  2  0  0  0  0
  5  7  1  0  0  0  0
  7  8  1  0  0  0  0
  7  9  1  0  0  0  0
  9 10  1  0  0  0  0
  9 11  1  0  0  0  0
  9 24  1  0  0  0  0
 11 12  1  0  0  0  0
 11 13  1  0  0  0  0
 11 14  1  0  0  0  0
 14 15  1  0  0  0  0
 14 16  1  0  0  0  0
 14 20  1  0  0  0  0
 16 17  1  0  0  0  0
 16 18  1  0  0  0  0
 16 19  1  0  0  0  0
 20 21  1  0  0  0  0
 20 22  1  0  0  0  0
 20 23  1  0  0  0  0
 24 25  2  0  0  0  0
 24 26  1  0  0  0  0
 26 27  1  0  0  0  0
 26 28  1  0  0  0  0
 28 29  1  0  0  0  0
 28 30  1  0  0  0  0
 28 31  1  0  0  0  0
M  END
$$$$

  -OEChem-03222214063D

 31 30  0     1  0  0  0  0  0999 V2000
   -3.4697   -3.8775    1.2008 H   0  0  0  0  0  0  0  0  0  0  0  0
   -3.3917   -2.9129    0.6914 C   0  0  0  0  0  0  0  0  0  0  0  0
   -4.0903   -2.2122    1.1546 H   0  0  0  0  0  0  0  0  0  0  0  0
   -3.6621   -3.0461   -0.3589 H   0  0  0  0  0  0  0  0  0  0  0  0
   -1.9760   -2.3783    0.7975 C   0  0  0  0  0  0  0  0  0  0  0  0
   -1.1224   -3.0263    1.3827 O   0  0  0  0  0  0  0  0  0  0  0  0
   -1.6626   -1.1593    0.2324 N   0  0  0  0  0  0  0  0  0  0  0  0
   -2.4281   -0.6159   -0.1637 H   0  0  0  0  0  0  0  0  0  0  0  0
   -0.3640   -0.4809    0.3600 C   0  0  1  0  0  0  0  0  0  0  0  0
    0.1552   -0.9221    1.2109 H   0  0  0  0  0  0  0  0  0  0  0  0
    0.4379   -0.6884   -0.9516 C   0  0  0  0  0  0  0  0  0  0  0  0
   -0.0432   -1.4832   -1.5316 H   0  0  0  0  0  0  0  0  0  0  0  0
    0.3368    0.2218   -1.5532 H   0  0  0  0  0  0  0  0  0  0  0  0
    1.9422   -1.0779   -0.8420 C   0  0  0  0  0  0  0  0  0  0  0  0
    2.0374   -2.1318   -1.1256 H   0  0  0  0  0  0  0  0  0  0  0  0
    2.7524   -0.2297   -1.8328 C   0  0  0  0  0  0  0  0  0  0  0  0
    2.7060    0.8306   -1.5635 H   0  0  0  0  0  0  0  0  0  0  0  0
    3.8018   -0.5413   -1.8376 H   0  0  0  0  0  0  0  0  0  0  0  0
    2.3586   -0.3496   -2.8472 H   0  0  0  0  0  0  0  0  0  0  0  0
    2.5916   -0.9169    0.5428 C   0  0  0  0  0  0  0  0  0  0  0  0
    2.1706   -1.6322    1.2557 H   0  0  0  0  0  0  0  0  0  0  0  0
    3.6666   -1.1144    0.4823 H   0  0  0  0  0  0  0  0  0  0  0  0
    2.4531    0.0988    0.9237 H   0  0  0  0  0  0  0  0  0  0  0  0
   -0.5480    1.0170    0.6762 C   0  0  0  0  0  0  0  0  0  0  0  0
   -1.4206    1.6580    0.1010 O   0  0  0  0  0  0  0  0  0  0  0  0
    0.2128    1.6304    1.6544 N   0  0  0  0  0  0  0  0  0  0  0  0
    0.8952    1.0600    2.1457 H   0  0  0  0  0  0  0  0  0  0  0  0
    0.0552    3.0286    2.0347 C   0  0  0  0  0  0  0  0  0  0  0  0
   -0.9564    3.2117    2.4117 H   0  0  0  0  0  0  0  0  0  0  0  0
    0.7698    3.2892    2.8213 H   0  0  0  0  0  0  0  0  0  0  0  0
    0.2350    3.6821    1.1746 H   0  0  0  0  0  0  0  0  0  0  0  0
  1  2  1  0  0  0  0
  2  3  1  0  0  0  0
  2  4  1  0  0  0  0
  2  5  1  0  0  0  0
  5  6  2  0  0  0  0
  5  7  1  0  0  0  0
  7  8  1  0  0  0  0
  7  9  1  0  0  0  0
  9 10  1  0  0  0  0
  9 11  1  0  0  0  0
  9 24  1  0  0  0  0
 11 12  1  0  0  0  0
 11 13  1  0  0  0  0
 11 14  1  0  0  0  0
 14 15  1  0  0  0  0
 14 16  1  0  0  0  0
 14 20  1  0  0  0  0
 16 17  1  0  0  0  0
 16 18  1  0  0  0  0
 16 19  1  0  0  0  0
 20 21  1  0  0  0  0
 20 22  1  0  0  0  0
 20 23  1  0  0  0  0
 24 25  2  0  0  0  0
 24 26  1  0  0  0  0
 26 27  1  0  0  0  0
 26 28  1  0  0  0  0
 28 29  1  0  0  0  0
 28 30  1  0  0  0  0
 28 31  1  0  0  0  0
M  END
$$$$

  -OEChem-03222214063D

 31 30  0     1  0  0  0  0  0999 V2000
   -3.4746   -3.8784    1.2114 H   0  0  0  0  0  0  0  0  0  0  0  0
   -3.3993   -2.9149    0.6996 C   0  0  0  0  0  0  0  0  0  0  0  0
   -4.0994   -2.2149    1.1620 H   0  0  0  0  0  0  0  0  0  0  0  0
   -3.6707   -3.0516   -0.3499 H   0  0  0  0  0  0  0  0  0  0  0  0
   -1.9844   -2.3773    0.8030 C   0  0  0  0  0  0  0  0  0  0  0  0
   -1.1298   -3.0218    1.3907 O   0  0  0  0  0  0  0  0  0  0  0  0
   -1.6731   -1.1599    0.2331 N   0  0  0  0  0  0  0  0  0  0  0  0
   -2.4391   -0.6201   -0.1664 H   0  0  0  0  0  0  0  0  0  0  0  0
   -0.3757   -0.4788    0.3587 C   0  0  1  0  0  0  0  0  0  0  0  0
    0.1364   -0.9128    1.2172 H   0  0  0  0  0  0  0  0  0  0  0  0
    0.4360   -0.6800   -0.9483 C   0  0  0  0  0  0  0  0  0  0  0  0
   -0.0358   -1.4936   -1.5098 H   0  0  0  0  0  0  0  0  0  0  0  0
    0.3217    0.2134   -1.5725 H   0  0  0  0  0  0  0  0  0  0  0  0
    1.9425   -1.0617   -0.8350 C   0  0  0  0  0  0  0  0  0  0  0  0
    2.0830   -1.9933   -1.3945 H   0  0  0  0  0  0  0  0  0  0  0  0
    2.7965    0.0172   -1.5141 C   0  0  0  0  0  0  0  0  0  0  0  0
    2.6846    0.9768   -0.9989 H   0  0  0  0  0  0  0  0  0  0  0  0
    3.8541   -0.2648   -1.4994 H   0  0  0  0  0  0  0  0  0  0  0  0
    2.4939    0.1440   -2.5584 H   0  0  0  0  0  0  0  0  0  0  0  0
    2.4935   -1.3057    0.5779 C   0  0  0  0  0  0  0  0  0  0  0  0
    1.9632   -2.1341    1.0587 H   0  0  0  0  0  0  0  0  0  0  0  0
    3.5533   -1.5751    0.5283 H   0  0  0  0  0  0  0  0  0  0  0  0
    2.3986   -0.4086    1.1970 H   0  0  0  0  0  0  0  0  0  0  0  0
   -0.5492    1.0203    0.6688 C   0  0  0  0  0  0  0  0  0  0  0  0
   -1.4193    1.6651    0.0944 O   0  0  0  0  0  0  0  0  0  0  0  0
    0.2188    1.6293    1.6439 N   0  0  0  0  0  0  0  0  0  0  0  0
    0.9020    1.0560    2.1306 H   0  0  0  0  0  0  0  0  0  0  0  0
    0.0727    3.0294    2.0217 C   0  0  0  0  0  0  0  0  0  0  0  0
   -0.9361    3.2204    2.4025 H   0  0  0  0  0  0  0  0  0  0  0  0
    0.7924    3.2867    2.8048 H   0  0  0  0  0  0  0  0  0  0  0  0
    0.2532    3.6801    1.1595 H   0  0  0  0  0  0  0  0  0  0  0  0
  1  2  1  0  0  0  0
  2  3  1  0  0  0  0
  2  4  1  0  0  0  0
  2  5  1  0  0  0  0
  5  6  2  0  0  0  0
  5  7  1  0  0  0  0
  7  8  1  0  0  0  0
  7  9  1  0  0  0  0
  9 10  1  0  0  0  0
  9 11  1  0  0  0  0
  9 24  1  0  0  0  0
 11 12  1  0  0  0  0
 11 13  1  0  0  0  0
 11 14  1  0  0  0  0
 14 15  1  0  0  0  0
 14 16  1  0  0  0  0
 14 20  1  0  0  0  0
 16 17  1  0  0  0  0
 16 18  1  0  0  0  0
 16 19  1  0  0  0  0
 20 21  1  0  0  0  0
 20 22  1  0  0  0  0
 20 23  1  0  0  0  0
 24 25  2  0  0  0  0
 24 26  1  0  0  0  0
 26 27  1  0  0  0  0
 26 28  1  0  0  0  0
 28 29  1  0  0  0  0
 28 30  1  0  0  0  0
 28 31  1  0  0  0  0
M  END
$$$$

  -OEChem-03222214063D

 31 30  0     1  0  0  0  0  0999 V2000
   -3.4684   -3.8854    1.2131 H   0  0  0  0  0  0  0  0  0  0  0  0
   -3.3942   -2.9224    0.7001 C   0  0  0  0  0  0  0  0  0  0  0  0
   -4.0996   -2.2243    1.1572 H   0  0  0  0  0  0  0  0  0  0  0  0
   -3.6590   -3.0612   -0.3508 H   0  0  0  0  0  0  0  0  0  0  0  0
   -1.9823   -2.3786    0.8100 C   0  0  0  0  0  0  0  0  0  0  0  0
   -1.1272   -3.0191    1.4014 O   0  0  0  0  0  0  0  0  0  0  0  0
   -1.6743   -1.1613    0.2385 N   0  0  0  0  0  0  0  0  0  0  0  0
   -2.4406   -0.6260   -0.1665 H   0  0  0  0  0  0  0  0  0  0  0  0
   -0.3779   -0.4782    0.3605 C   0  0  1  0  0  0  0  0  0  0  0  0
    0.1395   -0.9067    1.2187 H   0  0  0  0  0  0  0  0  0  0  0  0
    0.4332   -0.6737   -0.9470 C   0  0  0  0  0  0  0  0  0  0  0  0
   -0.0324   -1.4986   -1.4971 H   0  0  0  0  0  0  0  0  0  0  0  0
    0.3171    0.2102   -1.5839 H   0  0  0  0  0  0  0  0  0  0  0  0
    1.9367   -1.0502   -0.8227 C   0  0  0  0  0  0  0  0  0  0  0  0
    2.1373   -1.7937   -1.6021 H   0  0  0  0  0  0  0  0  0  0  0  0
    2.8073    0.1710   -1.1414 C   0  0  0  0  0  0  0  0  0  0  0  0
    2.6273    0.9707   -0.4160 H   0  0  0  0  0  0  0  0  0  0  0  0
    3.8679   -0.0971   -1.1085 H   0  0  0  0  0  0  0  0  0  0  0  0
    2.5838    0.5515   -2.1432 H   0  0  0  0  0  0  0  0  0  0  0  0
    2.3820   -1.6788    0.5055 C   0  0  0  0  0  0  0  0  0  0  0  0
    1.7409   -2.5292    0.7596 H   0  0  0  0  0  0  0  0  0  0  0  0
    3.4103   -2.0438    0.4217 H   0  0  0  0  0  0  0  0  0  0  0  0
    2.3477   -0.9487    1.3197 H   0  0  0  0  0  0  0  0  0  0  0  0
   -0.5508    1.0206    0.6698 C   0  0  0  0  0  0  0  0  0  0  0  0
   -1.4192    1.6673    0.0950 O   0  0  0  0  0  0  0  0  0  0  0  0
    0.2215    1.6271    1.6429 N   0  0  0  0  0  0  0  0  0  0  0  0
    0.9058    1.0517    2.1257 H   0  0  0  0  0  0  0  0  0  0  0  0
    0.0927    3.0318    2.0092 C   0  0  0  0  0  0  0  0  0  0  0  0
   -0.9113    3.2369    2.3950 H   0  0  0  0  0  0  0  0  0  0  0  0
    0.8206    3.2877    2.7851 H   0  0  0  0  0  0  0  0  0  0  0  0
    0.2745    3.6727    1.1400 H   0  0  0  0  0  0  0  0  0  0  0  0
  1  2  1  0  0  0  0
  2  3  1  0  0  0  0
  2  4  1  0  0  0  0
  2  5  1  0  0  0  0
  5  6  2  0  0  0  0
  5  7  1  0  0  0  0
  7  8  1  0  0  0  0
  7  9  1  0  0  0  0
  9 10  1  0  0  0  0
  9 11  1  0  0  0  0
  9 24  1  0  0  0  0
 11 12  1  0  0  0  0
 11 13  1  0  0  0  0
 11 14  1  0  0  0  0
 14 15  1  0  0  0  0
 14 16  1  0  0  0  0
 14 20  1  0  0  0  0
 16 17  1  0  0  0  0
 16 18  1  0  0  0  0
 16 19  1  0  0  0  0
 20 21  1  0  0  0  0
 20 22  1  0  0  0  0
 20 23  1  0  0  0  0
 24 25  2  0  0  0  0
 24 26  1  0  0  0  0
 26 27  1  0  0  0  0
 26 28  1  0  0  0  0
 28 29  1  0  0  0  0
 28 30  1  0  0  0  0
 28 31  1  0  0  0  0
M  END
$$$$

  -OEChem-03222214063D

 31 30  0     1  0  0  0  0  0999 V2000
   -3.4629   -3.8740    1.2256 H   0  0  0  0  0  0  0  0  0  0  0  0
   -3.3881   -2.9116    0.7116 C   0  0  0  0  0  0  0  0  0  0  0  0
   -4.0865   -2.2099    1.1739 H   0  0  0  0  0  0  0  0  0  0  0  0
   -3.6617   -3.0502   -0.3372 H   0  0  0  0  0  0  0  0  0  0  0  0
   -1.9726   -2.3748    0.8111 C   0  0  0  0  0  0  0  0  0  0  0  0
   -1.1186   -3.0167    1.4024 O   0  0  0  0  0  0  0  0  0  0  0  0
   -1.6615   -1.1590    0.2382 N   0  0  0  0  0  0  0  0  0  0  0  0
   -2.4273   -0.6203   -0.1632 H   0  0  0  0  0  0  0  0  0  0  0  0
   -0.3621   -0.4802    0.3556 C   0  0  1  0  0  0  0  0  0  0  0  0
    0.1688   -0.9075    1.2066 H   0  0  0  0  0  0  0  0  0  0  0  0
    0.4396   -0.6748   -0.9569 C   0  0  0  0  0  0  0  0  0  0  0  0
   -0.0280   -1.4969   -1.5094 H   0  0  0  0  0  0  0  0  0  0  0  0
    0.3364    0.2125   -1.5914 H   0  0  0  0  0  0  0  0  0  0  0  0
    1.9354   -1.0561   -0.8193 C   0  0  0  0  0  0  0  0  0  0  0  0
    2.2038   -1.5777   -1.7447 H   0  0  0  0  0  0  0  0  0  0  0  0
    2.8056    0.2040   -0.7567 C   0  0  0  0  0  0  0  0  0  0  0  0
    2.5775    0.7870    0.1405 H   0  0  0  0  0  0  0  0  0  0  0  0
    3.8657   -0.0675   -0.7333 H   0  0  0  0  0  0  0  0  0  0  0  0
    2.6336    0.8347   -1.6347 H   0  0  0  0  0  0  0  0  0  0  0  0
    2.2741   -2.0096    0.3354 C   0  0  0  0  0  0  0  0  0  0  0  0
    1.5675   -2.8453    0.3595 H   0  0  0  0  0  0  0  0  0  0  0  0
    3.2807   -2.4171    0.1999 H   0  0  0  0  0  0  0  0  0  0  0  0
    2.2484   -1.4948    1.3002 H   0  0  0  0  0  0  0  0  0  0  0  0
   -0.5415    1.0184    0.6649 C   0  0  0  0  0  0  0  0  0  0  0  0
   -1.4133    1.6607    0.0901 O   0  0  0  0  0  0  0  0  0  0  0  0
    0.2283    1.6307    1.6365 N   0  0  0  0  0  0  0  0  0  0  0  0
    0.9110    1.0582    2.1249 H   0  0  0  0  0  0  0  0  0  0  0  0
    0.0797    3.0306    2.0136 C   0  0  0  0  0  0  0  0  0  0  0  0
   -0.9284    3.2189    2.3976 H   0  0  0  0  0  0  0  0  0  0  0  0
    0.8013    3.2902    2.7942 H   0  0  0  0  0  0  0  0  0  0  0  0
    0.2559    3.6809    1.1504 H   0  0  0  0  0  0  0  0  0  0  0  0
  1  2  1  0  0  0  0
  2  3  1  0  0  0  0
  2  4  1  0  0  0  0
  2  5  1  0  0  0  0
  5  6  2  0  0  0  0
  5  7  1  0  0  0  0
  7  8  1  0  0  0  0
  7  9  1  0  0  0  0
  9 10  1  0  0  0  0
  9 11  1  0  0  0  0
  9 24  1  0  0  0  0
 11 12  1  0  0  0  0
 11 13  1  0  0  0  0
 11 14  1  0  0  0  0
 14 15  1  0  0  0  0
 14 16  1  0  0  0  0
 14 20  1  0  0  0  0
 16 17  1  0  0  0  0
 16 18  1  0  0  0  0
 16 19  1  0  0  0  0
 20 21  1  0  0  0  0
 20 22  1  0  0  0  0
 20 23  1  0  0  0  0
 24 25  2  0  0  0  0
 24 26  1  0  0  0  0
 26 27  1  0  0  0  0
 26 28  1  0  0  0  0
 28 29  1  0  0  0  0
 28 30  1  0  0  0  0
 28 31  1  0  0  0  0
M  END
$$$$

  -OEChem-03222214063D

 31 30  0     1  0  0  0  0  0999 V2000
   -3.4487   -3.8691    1.2292 H   0  0  0  0  0  0  0  0  0  0  0  0
   -3.3731   -2.9071    0.7145 C   0  0  0  0  0  0  0  0  0  0  0  0
   -4.0704   -2.2044    1.1769 H   0  0  0  0  0  0  0  0  0  0  0  0
   -3.6477   -3.0461   -0.3339 H   0  0  0  0  0  0  0  0  0  0  0  0
   -1.9571   -2.3720    0.8121 C   0  0  0  0  0  0  0  0  0  0  0  0
   -1.1010   -3.0175    1.3963 O   0  0  0  0  0  0  0  0  0  0  0  0
   -1.6462   -1.1553    0.2415 N   0  0  0  0  0  0  0  0  0  0  0  0
   -2.4124   -0.6111   -0.1519 H   0  0  0  0  0  0  0  0  0  0  0  0
   -0.3440   -0.4829    0.3557 C   0  0  1  0  0  0  0  0  0  0  0  0
    0.2044   -0.9123    1.1957 H   0  0  0  0  0  0  0  0  0  0  0  0
    0.4403   -0.6756   -0.9662 C   0  0  0  0  0  0  0  0  0  0  0  0
   -0.0385   -1.4794   -1.5357 H   0  0  0  0  0  0  0  0  0  0  0  0
    0.3580    0.2270   -1.5816 H   0  0  0  0  0  0  0  0  0  0  0  0
    1.9284   -1.0674   -0.8213 C   0  0  0  0  0  0  0  0  0  0  0  0
    2.2683   -1.3538   -1.8225 H   0  0  0  0  0  0  0  0  0  0  0  0
    2.7805    0.1287   -0.3844 C   0  0  0  0  0  0  0  0  0  0  0  0
    2.5334    0.4298    0.6370 H   0  0  0  0  0  0  0  0  0  0  0  0
    3.8428   -0.1328   -0.4178 H   0  0  0  0  0  0  0  0  0  0  0  0
    2.6161    0.9815   -1.0505 H   0  0  0  0  0  0  0  0  0  0  0  0
    2.1682   -2.2770    0.0939 C   0  0  0  0  0  0  0  0  0  0  0  0
    1.4687   -3.0831   -0.1494 H   0  0  0  0  0  0  0  0  0  0  0  0
    3.1865   -2.6530   -0.0446 H   0  0  0  0  0  0  0  0  0  0  0  0
    2.0482   -2.0169    1.1491 H   0  0  0  0  0  0  0  0  0  0  0  0
   -0.5339    1.0141    0.6718 C   0  0  0  0  0  0  0  0  0  0  0  0
   -1.4082    1.6524    0.0960 O   0  0  0  0  0  0  0  0  0  0  0  0
    0.2304    1.6332    1.6436 N   0  0  0  0  0  0  0  0  0  0  0  0
    0.9155    1.0663    2.1352 H   0  0  0  0  0  0  0  0  0  0  0  0
    0.0744    3.0341    2.0150 C   0  0  0  0  0  0  0  0  0  0  0  0
   -0.9345    3.2191    2.3985 H   0  0  0  0  0  0  0  0  0  0  0  0
    0.7950    3.3013    2.7939 H   0  0  0  0  0  0  0  0  0  0  0  0
    0.2466    3.6813    1.1485 H   0  0  0  0  0  0  0  0  0  0  0  0
  1  2  1  0  0  0  0
  2  3  1  0  0  0  0
  2  4  1  0  0  0  0
  2  5  1  0  0  0  0
  5  6  2  0  0  0  0
  5  7  1  0  0  0  0
  7  8  1  0  0  0  0
  7  9  1  0  0  0  0
  9 10  1  0  0  0  0
  9 11  1  0  0  0  0
  9 24  1  0  0  0  0
 11 12  1  0  0  0  0
 11 13  1  0  0  0  0
 11 14  1  0  0  0  0
 14 15  1  0  0  0  0
 14 16  1  0  0  0  0
 14 20  1  0  0  0  0
 16 17  1  0  0  0  0
 16 18  1  0  0  0  0
 16 19  1  0  0  0  0
 20 21  1  0  0  0  0
 20 22  1  0  0  0  0
 20 23  1  0  0  0  0
 24 25  2  0  0  0  0
 24 26  1  0  0  0  0
 26 27  1  0  0  0  0
 26 28  1  0  0  0  0
 28 29  1  0  0  0  0
 28 30  1  0  0  0  0
 28 31  1  0  0  0  0
M  END
$$$$

  -OEChem-03222214063D

 31 30  0     1  0  0  0  0  0999 V2000
   -3.4413   -3.8701    1.2329 H   0  0  0  0  0  0  0  0  0  0  0  0
   -3.3651   -2.9082    0.7183 C   0  0  0  0  0  0  0  0  0  0  0  0
   -4.0581   -2.2035    1.1842 H   0  0  0  0  0  0  0  0  0  0  0  0
   -3.6451   -3.0459   -0.3289 H   0  0  0  0  0  0  0  0  0  0  0  0
   -1.9471   -2.3768    0.8089 C   0  0  0  0  0  0  0  0  0  0  0  0
   -1.0884   -3.0268    1.3842 O   0  0  0  0  0  0  0  0  0  0  0  0
   -1.6386   -1.1577    0.2425 N   0  0  0  0  0  0  0  0  0  0  0  0
   -2.4065   -0.6109   -0.1440 H   0  0  0  0  0  0  0  0  0  0  0  0
   -0.3346   -0.4880    0.3504 C   0  0  1  0  0  0  0  0  0  0  0  0
    0.2268   -0.9266    1.1791 H   0  0  0  0  0  0  0  0  0  0  0  0
    0.4362   -0.6775   -0.9792 C   0  0  0  0  0  0  0  0  0  0  0  0
   -0.0530   -1.4604   -1.5686 H   0  0  0  0  0  0  0  0  0  0  0  0
    0.3699    0.2415   -1.5721 H   0  0  0  0  0  0  0  0  0  0  0  0
    1.9217   -1.0738   -0.8318 C   0  0  0  0  0  0  0  0  0  0  0  0
    2.3378   -1.1284   -1.8435 H   0  0  0  0  0  0  0  0  0  0  0  0
    2.7292   -0.0263   -0.0556 C   0  0  0  0  0  0  0  0  0  0  0  0
    2.4457   -0.0134    1.0002 H   0  0  0  0  0  0  0  0  0  0  0  0
    3.7977   -0.2548   -0.1179 H   0  0  0  0  0  0  0  0  0  0  0  0
    2.5665    0.9710   -0.4764 H   0  0  0  0  0  0  0  0  0  0  0  0
    2.0885   -2.4592   -0.1910 C   0  0  0  0  0  0  0  0  0  0  0  0
    1.4882   -3.2013   -0.7265 H   0  0  0  0  0  0  0  0  0  0  0  0
    3.1368   -2.7697   -0.2358 H   0  0  0  0  0  0  0  0  0  0  0  0
    1.7788   -2.4576    0.8578 H   0  0  0  0  0  0  0  0  0  0  0  0
   -0.5257    1.0078    0.6760 C   0  0  0  0  0  0  0  0  0  0  0  0
   -1.4030    1.6474    0.1062 O   0  0  0  0  0  0  0  0  0  0  0  0
    0.2421    1.6262    1.6455 N   0  0  0  0  0  0  0  0  0  0  0  0
    0.9294    1.0588    2.1335 H   0  0  0  0  0  0  0  0  0  0  0  0
    0.0868    3.0262    2.0201 C   0  0  0  0  0  0  0  0  0  0  0  0
   -0.9203    3.2099    2.4086 H   0  0  0  0  0  0  0  0  0  0  0  0
    0.8108    3.2923    2.7962 H   0  0  0  0  0  0  0  0  0  0  0  0
    0.2547    3.6753    1.1543 H   0  0  0  0  0  0  0  0  0  0  0  0
  1  2  1  0  0  0  0
  2  3  1  0  0  0  0
  2  4  1  0  0  0  0
  2  5  1  0  0  0  0
  5  6  2  0  0  0  0
  5  7  1  0  0  0  0
  7  8  1  0  0  0  0
  7  9  1  0  0  0  0
  9 10  1  0  0  0  0
  9 11  1  0  0  0  0
  9 24  1  0  0  0  0
 11 12  1  0  0  0  0
 11 13  1  0  0  0  0
 11 14  1  0  0  0  0
 14 15  1  0  0  0  0
 14 16  1  0  0  0  0
 14 20  1  0  0  0  0
 16 17  1  0  0  0  0
 16 18  1  0  0  0  0
 16 19  1  0  0  0  0
 20 21  1  0  0  0  0
 20 22  1  0  0  0  0
 20 23  1  0  0  0  0
 24 25  2  0  0  0  0
 24 26  1  0  0  0  0
 26 27  1  0  0  0  0
 26 28  1  0  0  0  0
 28 29  1  0  0  0  0
 28 30  1  0  0  0  0
 28 31  1  0  0  0  0
M  END
$$$$

  -OEChem-03222214063D

 31 30  0     1  0  0  0  0  0999 V2000
   -3.4371   -3.8903    1.2098 H   0  0  0  0  0  0  0  0  0  0  0  0
   -3.3633   -2.9256    0.7002 C   0  0  0  0  0  0  0  0  0  0  0  0
   -4.0666   -2.2284    1.1619 H   0  0  0  0  0  0  0  0  0  0  0  0
   -3.6307   -3.0607   -0.3506 H   0  0  0  0  0  0  0  0  0  0  0  0
   -1.9506   -2.3836    0.8080 C   0  0  0  0  0  0  0  0  0  0  0  0
   -1.0937   -3.0300    1.3901 O   0  0  0  0  0  0  0  0  0  0  0  0
   -1.6455   -1.1604    0.2480 N   0  0  0  0  0  0  0  0  0  0  0  0
   -2.4143   -0.6194   -0.1445 H   0  0  0  0  0  0  0  0  0  0  0  0
   -0.3436   -0.4851    0.3521 C   0  0  1  0  0  0  0  0  0  0  0  0
    0.2147   -0.9371    1.1755 H   0  0  0  0  0  0  0  0  0  0  0  0
    0.4245   -0.6815   -0.9785 C   0  0  0  0  0  0  0  0  0  0  0  0
   -0.0738   -1.4519   -1.5768 H   0  0  0  0  0  0  0  0  0  0  0  0
    0.3620    0.2448   -1.5598 H   0  0  0  0  0  0  0  0  0  0  0  0
    1.9154   -1.0717   -0.8463 C   0  0  0  0  0  0  0  0  0  0  0  0
    2.3861   -0.9101   -1.8222 H   0  0  0  0  0  0  0  0  0  0  0  0
    2.6818   -0.2447    0.1973 C   0  0  0  0  0  0  0  0  0  0  0  0
    2.3630   -0.4810    1.2161 H   0  0  0  0  0  0  0  0  0  0  0  0
    3.7535   -0.4547    0.1238 H   0  0  0  0  0  0  0  0  0  0  0  0
    2.5318    0.8243    0.0174 H   0  0  0  0  0  0  0  0  0  0  0  0
    2.0457   -2.5604   -0.4970 C   0  0  0  0  0  0  0  0  0  0  0  0
    1.5493   -3.1761   -1.2536 H   0  0  0  0  0  0  0  0  0  0  0  0
    3.1002   -2.8511   -0.4592 H   0  0  0  0  0  0  0  0  0  0  0  0
    1.5925   -2.7767    0.4754 H   0  0  0  0  0  0  0  0  0  0  0  0
   -0.5279    1.0091    0.6861 C   0  0  0  0  0  0  0  0  0  0  0  0
   -1.4061    1.6547    0.1249 O   0  0  0  0  0  0  0  0  0  0  0  0
    0.2502    1.6179    1.6534 N   0  0  0  0  0  0  0  0  0  0  0  0
    0.9403    1.0451    2.1309 H   0  0  0  0  0  0  0  0  0  0  0  0
    0.1069    3.0174    2.0342 C   0  0  0  0  0  0  0  0  0  0  0  0
   -0.8981    3.2076    2.4254 H   0  0  0  0  0  0  0  0  0  0  0  0
    0.8343    3.2745    2.8101 H   0  0  0  0  0  0  0  0  0  0  0  0
    0.2784    3.6681    1.1703 H   0  0  0  0  0  0  0  0  0  0  0  0
  1  2  1  0  0  0  0
  2  3  1  0  0  0  0
  2  4  1  0  0  0  0
  2  5  1  0  0  0  0
  5  6  2  0  0  0  0
  5  7  1  0  0  0  0
  7  8  1  0  0  0  0
  7  9  1  0  0  0  0
  9 10  1  0  0  0  0
  9 11  1  0  0  0  0
  9 24  1  0  0  0  0
 11 12  1  0  0  0  0
 11 13  1  0  0  0  0
 11 14  1  0  0  0  0
 14 15  1  0  0  0  0
 14 16  1  0  0  0  0
 14 20  1  0  0  0  0
 16 17  1  0  0  0  0
 16 18  1  0  0  0  0
 16 19  1  0  0  0  0
 20 21  1  0  0  0  0
 20 22  1  0  0  0  0
 20 23  1  0  0  0  0
 24 25  2  0  0  0  0
 24 26  1  0  0  0  0
 26 27  1  0  0  0  0
 26 28  1  0  0  0  0
 28 29  1  0  0  0  0
 28 30  1  0  0  0  0
 28 31  1  0  0  0  0
M  END
$$$$

  -OEChem-03222214063D

 31 30  0     1  0  0  0  0  0999 V2000
   -3.4481   -3.8827    1.2079 H   0  0  0  0  0  0  0  0  0  0  0  0
   -3.3741   -2.9160    0.7016 C   0  0  0  0  0  0  0  0  0  0  0  0
   -4.0725   -2.2186    1.1707 H   0  0  0  0  0  0  0  0  0  0  0  0
   -3.6489   -3.0461   -0.3478 H   0  0  0  0  0  0  0  0  0  0  0  0
   -1.9586   -2.3795    0.8018 C   0  0  0  0  0  0  0  0  0  0  0  0
   -1.1002   -3.0315    1.3754 O   0  0  0  0  0  0  0  0  0  0  0  0
   -1.6512   -1.1566    0.2420 N   0  0  0  0  0  0  0  0  0  0  0  0
   -2.4197   -0.6127   -0.1472 H   0  0  0  0  0  0  0  0  0  0  0  0
   -0.3503   -0.4804    0.3557 C   0  0  1  0  0  0  0  0  0  0  0  0
    0.1907   -0.9331    1.1885 H   0  0  0  0  0  0  0  0  0  0  0  0
    0.4295   -0.6865   -0.9678 C   0  0  0  0  0  0  0  0  0  0  0  0
   -0.0791   -1.4443   -1.5735 H   0  0  0  0  0  0  0  0  0  0  0  0
    0.3724    0.2437   -1.5436 H   0  0  0  0  0  0  0  0  0  0  0  0
    1.9272   -1.0788   -0.8527 C   0  0  0  0  0  0  0  0  0  0  0  0
    2.4402   -0.6944   -1.7411 H   0  0  0  0  0  0  0  0  0  0  0  0
    2.6580   -0.5458    0.3907 C   0  0  0  0  0  0  0  0  0  0  0  0
    2.3188   -1.0382    1.3065 H   0  0  0  0  0  0  0  0  0  0  0  0
    3.7329   -0.7288    0.2948 H   0  0  0  0  0  0  0  0  0  0  0  0
    2.5086    0.5333    0.4859 H   0  0  0  0  0  0  0  0  0  0  0  0
    2.0531   -2.6085   -0.8526 C   0  0  0  0  0  0  0  0  0  0  0  0
    1.6366   -3.0283   -1.7735 H   0  0  0  0  0  0  0  0  0  0  0  0
    3.1042   -2.9068   -0.7886 H   0  0  0  0  0  0  0  0  0  0  0  0
    1.5164   -3.0400   -0.0012 H   0  0  0  0  0  0  0  0  0  0  0  0
   -0.5351    1.0144    0.6860 C   0  0  0  0  0  0  0  0  0  0  0  0
   -1.4116    1.6585    0.1203 O   0  0  0  0  0  0  0  0  0  0  0  0
    0.2357    1.6242    1.6583 N   0  0  0  0  0  0  0  0  0  0  0  0
    0.9203    1.0510    2.1434 H   0  0  0  0  0  0  0  0  0  0  0  0
    0.0777    3.0195    2.0482 C   0  0  0  0  0  0  0  0  0  0  0  0
   -0.9310    3.1976    2.4354 H   0  0  0  0  0  0  0  0  0  0  0  0
    0.7986    3.2778    2.8298 H   0  0  0  0  0  0  0  0  0  0  0  0
    0.2477    3.6782    1.1900 H   0  0  0  0  0  0  0  0  0  0  0  0
  1  2  1  0  0  0  0
  2  3  1  0  0  0  0
  2  4  1  0  0  0  0
  2  5  1  0  0  0  0
  5  6  2  0  0  0  0
  5  7  1  0  0  0  0
  7  8  1  0  0  0  0
  7  9  1  0  0  0  0
  9 10  1  0  0  0  0
  9 11  1  0  0  0  0
  9 24  1  0  0  0  0
 11 12  1  0  0  0  0
 11 13  1  0  0  0  0
 11 14  1  0  0  0  0
 14 15  1  0  0  0  0
 14 16  1  0  0  0  0
 14 20  1  0  0  0  0
 16 17  1  0  0  0  0
 16 18  1  0  0  0  0
 16 19  1  0  0  0  0
 20 21  1  0  0  0  0
 20 22  1  0  0  0  0
 20 23  1  0  0  0  0
 24 25  2  0  0  0  0
 24 26  1  0  0  0  0
 26 27  1  0  0  0  0
 26 28  1  0  0  0  0
 28 29  1  0  0  0  0
 28 30  1  0  0  0  0
 28 31  1  0  0  0  0
M  END
$$$$

  -OEChem-03222214063D

 31 30  0     1  0  0  0  0  0999 V2000
   -3.4735   -3.8671    1.2153 H   0  0  0  0  0  0  0  0  0  0  0  0
   -3.3942   -2.9023    0.7064 C   0  0  0  0  0  0  0  0  0  0  0  0
   -4.0889   -2.1999    1.1731 H   0  0  0  0  0  0  0  0  0  0  0  0
   -3.6694   -3.0337   -0.3429 H   0  0  0  0  0  0  0  0  0  0  0  0
   -1.9758   -2.3732    0.8070 C   0  0  0  0  0  0  0  0  0  0  0  0
   -1.1225   -3.0261    1.3875 O   0  0  0  0  0  0  0  0  0  0  0  0
   -1.6601   -1.1546    0.2423 N   0  0  0  0  0  0  0  0  0  0  0  0
   -2.4246   -0.6075   -0.1502 H   0  0  0  0  0  0  0  0  0  0  0  0
   -0.3579   -0.4824    0.3649 C   0  0  1  0  0  0  0  0  0  0  0  0
    0.1667   -0.9275    1.2109 H   0  0  0  0  0  0  0  0  0  0  0  0
    0.4348   -0.6938   -0.9520 C   0  0  0  0  0  0  0  0  0  0  0  0
   -0.0801   -1.4519   -1.5523 H   0  0  0  0  0  0  0  0  0  0  0  0
    0.3768    0.2316   -1.5354 H   0  0  0  0  0  0  0  0  0  0  0  0
    1.9366   -1.0915   -0.8462 C   0  0  0  0  0  0  0  0  0  0  0  0
    2.4870   -0.4832   -1.5721 H   0  0  0  0  0  0  0  0  0  0  0  0
    2.6020   -0.8938    0.5253 C   0  0  0  0  0  0  0  0  0  0  0  0
    2.2114   -1.5997    1.2652 H   0  0  0  0  0  0  0  0  0  0  0  0
    3.6807   -1.0605    0.4425 H   0  0  0  0  0  0  0  0  0  0  0  0
    2.4475    0.1272    0.8838 H   0  0  0  0  0  0  0  0  0  0  0  0
    2.1072   -2.5654   -1.2395 C   0  0  0  0  0  0  0  0  0  0  0  0
    1.7522   -2.7336   -2.2611 H   0  0  0  0  0  0  0  0  0  0  0  0
    3.1619   -2.8550   -1.1952 H   0  0  0  0  0  0  0  0  0  0  0  0
    1.5395   -3.2123   -0.5619 H   0  0  0  0  0  0  0  0  0  0  0  0
   -0.5389    1.0151    0.6845 C   0  0  0  0  0  0  0  0  0  0  0  0
   -1.4099    1.6586    0.1097 O   0  0  0  0  0  0  0  0  0  0  0  0
    0.2255    1.6271    1.6606 N   0  0  0  0  0  0  0  0  0  0  0  0
    0.8996    1.0526    2.1587 H   0  0  0  0  0  0  0  0  0  0  0  0
    0.0637    3.0230    2.0480 C   0  0  0  0  0  0  0  0  0  0  0  0
   -0.9470    3.1999    2.4305 H   0  0  0  0  0  0  0  0  0  0  0  0
    0.7806    3.2832    2.8325 H   0  0  0  0  0  0  0  0  0  0  0  0
    0.2365    3.6808    1.1898 H   0  0  0  0  0  0  0  0  0  0  0  0
  1  2  1  0  0  0  0
  2  3  1  0  0  0  0
  2  4  1  0  0  0  0
  2  5  1  0  0  0  0
  5  6  2  0  0  0  0
  5  7  1  0  0  0  0
  7  8  1  0  0  0  0
  7  9  1  0  0  0  0
  9 10  1  0  0  0  0
  9 11  1  0  0  0  0
  9 24  1  0  0  0  0
 11 12  1  0  0  0  0
 11 13  1  0  0  0  0
 11 14  1  0  0  0  0
 14 15  1  0  0  0  0
 14 16  1  0  0  0  0
 14 20  1  0  0  0  0
 16 17  1  0  0  0  0
 16 18  1  0  0  0  0
 16 19  1  0  0  0  0
 20 21  1  0  0  0  0
 20 22  1  0  0  0  0
 20 23  1  0  0  0  0
 24 25  2  0  0  0  0
 24 26  1  0  0  0  0
 26 27  1  0  0  0  0
 26 28  1  0  0  0  0
 28 29  1  0  0  0  0
 28 30  1  0  0  0  0
 28 31  1  0  0  0  0
M  END
$$$$

  -OEChem-03222214063D

 31 30  0     1  0  0  0  0  0999 V2000
   -3.4987   -3.8622    1.2264 H   0  0  0  0  0  0  0  0  0  0  0  0
   -3.4157   -2.8998    0.7138 C   0  0  0  0  0  0  0  0  0  0  0  0
   -4.1088   -2.1933    1.1768 H   0  0  0  0  0  0  0  0  0  0  0  0
   -3.6894   -3.0349   -0.3353 H   0  0  0  0  0  0  0  0  0  0  0  0
   -1.9961   -2.3746    0.8141 C   0  0  0  0  0  0  0  0  0  0  0  0
   -1.1457   -3.0279    1.3981 O   0  0  0  0  0  0  0  0  0  0  0  0
   -1.6761   -1.1594    0.2443 N   0  0  0  0  0  0  0  0  0  0  0  0
   -2.4383   -0.6127   -0.1532 H   0  0  0  0  0  0  0  0  0  0  0  0
   -0.3723   -0.4900    0.3674 C   0  0  1  0  0  0  0  0  0  0  0  0
    0.1397   -0.9300    1.2232 H   0  0  0  0  0  0  0  0  0  0  0  0
    0.4325   -0.7022   -0.9434 C   0  0  0  0  0  0  0  0  0  0  0  0
   -0.0787   -1.4782   -1.5234 H   0  0  0  0  0  0  0  0  0  0  0  0
    0.3655    0.2090   -1.5480 H   0  0  0  0  0  0  0  0  0  0  0  0
    1.9363   -1.0996   -0.8347 C   0  0  0  0  0  0  0  0  0  0  0  0
    2.5124   -0.3078   -1.3258 H   0  0  0  0  0  0  0  0  0  0  0  0
    2.5118   -1.2520    0.5816 C   0  0  0  0  0  0  0  0  0  0  0  0
    2.0274   -2.0776    1.1136 H   0  0  0  0  0  0  0  0  0  0  0  0
    3.5842   -1.4652    0.5310 H   0  0  0  0  0  0  0  0  0  0  0  0
    2.3819   -0.3288    1.1535 H   0  0  0  0  0  0  0  0  0  0  0  0
    2.1893   -2.4047   -1.6017 C   0  0  0  0  0  0  0  0  0  0  0  0
    1.8801   -2.2998   -2.6464 H   0  0  0  0  0  0  0  0  0  0  0  0
    3.2536   -2.6597   -1.5857 H   0  0  0  0  0  0  0  0  0  0  0  0
    1.6277   -3.2304   -1.1523 H   0  0  0  0  0  0  0  0  0  0  0  0
   -0.5397    1.0099    0.6792 C   0  0  0  0  0  0  0  0  0  0  0  0
   -1.4055    1.6590    0.1030 O   0  0  0  0  0  0  0  0  0  0  0  0
    0.2312    1.6159    1.6539 N   0  0  0  0  0  0  0  0  0  0  0  0
    0.8999    1.0357    2.1524 H   0  0  0  0  0  0  0  0  0  0  0  0
    0.0833    3.0140    2.0386 C   0  0  0  0  0  0  0  0  0  0  0  0
   -0.9242    3.2007    2.4246 H   0  0  0  0  0  0  0  0  0  0  0  0
    0.8060    3.2697    2.8194 H   0  0  0  0  0  0  0  0  0  0  0  0
    0.2587    3.6683    1.1782 H   0  0  0  0  0  0  0  0  0  0  0  0
  1  2  1  0  0  0  0
  2  3  1  0  0  0  0
  2  4  1  0  0  0  0
  2  5  1  0  0  0  0
  5  6  2  0  0  0  0
  5  7  1  0  0  0  0
  7  8  1  0  0  0  0
  7  9  1  0  0  0  0
  9 10  1  0  0  0  0
  9 11  1  0  0  0  0
  9 24  1  0  0  0  0
 11 12  1  0  0  0  0
 11 13  1  0  0  0  0
 11 14  1  0  0  0  0
 14 15  1  0  0  0  0
 14 16  1  0  0  0  0
 14 20  1  0  0  0  0
 16 17  1  0  0  0  0
 16 18  1  0  0  0  0
 16 19  1  0  0  0  0
 20 21  1  0  0  0  0
 20 22  1  0  0  0  0
 20 23  1  0  0  0  0
 24 25  2  0  0  0  0
 24 26  1  0  0  0  0
 26 27  1  0  0  0  0
 26 28  1  0  0  0  0
 28 29  1  0  0  0  0
 28 30  1  0  0  0  0
 28 31  1  0  0  0  0
M  END
$$$$

  -OEChem-03222214063D

 31 30  0     1  0  0  0  0  0999 V2000
   -3.5099   -3.8708    1.2223 H   0  0  0  0  0  0  0  0  0  0  0  0
   -3.4239   -2.9089    0.7092 C   0  0  0  0  0  0  0  0  0  0  0  0
   -4.1216   -2.2025    1.1654 H   0  0  0  0  0  0  0  0  0  0  0  0
   -3.6885   -3.0459   -0.3421 H   0  0  0  0  0  0  0  0  0  0  0  0
   -2.0059   -2.3812    0.8210 C   0  0  0  0  0  0  0  0  0  0  0  0
   -1.1597   -3.0312    1.4148 O   0  0  0  0  0  0  0  0  0  0  0  0
   -1.6826   -1.1674    0.2501 N   0  0  0  0  0  0  0  0  0  0  0  0
   -2.4422   -0.6230   -0.1553 H   0  0  0  0  0  0  0  0  0  0  0  0
   -0.3777   -0.5000    0.3721 C   0  0  1  0  0  0  0  0  0  0  0  0
    0.1331   -0.9373    1.2295 H   0  0  0  0  0  0  0  0  0  0  0  0
    0.4282   -0.7072   -0.9388 C   0  0  0  0  0  0  0  0  0  0  0  0
   -0.0760   -1.5022   -1.4989 H   0  0  0  0  0  0  0  0  0  0  0  0
    0.3498    0.1919   -1.5598 H   0  0  0  0  0  0  0  0  0  0  0  0
    1.9300   -1.1043   -0.8304 C   0  0  0  0  0  0  0  0  0  0  0  0
    2.5134   -0.2032   -1.0492 H   0  0  0  0  0  0  0  0  0  0  0  0
    2.4114   -1.6083    0.5382 C   0  0  0  0  0  0  0  0  0  0  0  0
    1.8192   -2.4710    0.8617 H   0  0  0  0  0  0  0  0  0  0  0  0
    3.4605   -1.9153    0.4822 H   0  0  0  0  0  0  0  0  0  0  0  0
    2.3376   -0.8184    1.2913 H   0  0  0  0  0  0  0  0  0  0  0  0
    2.2705   -2.1505   -1.9002 C   0  0  0  0  0  0  0  0  0  0  0  0
    1.9862   -1.7872   -2.8929 H   0  0  0  0  0  0  0  0  0  0  0  0
    3.3454   -2.3564   -1.9070 H   0  0  0  0  0  0  0  0  0  0  0  0
    1.7389   -3.0878   -1.7057 H   0  0  0  0  0  0  0  0  0  0  0  0
   -0.5378    1.0004    0.6820 C   0  0  0  0  0  0  0  0  0  0  0  0
   -1.3964    1.6551    0.1015 O   0  0  0  0  0  0  0  0  0  0  0  0
    0.2373    1.6034    1.6554 N   0  0  0  0  0  0  0  0  0  0  0  0
    0.9065    1.0218    2.1517 H   0  0  0  0  0  0  0  0  0  0  0  0
    0.1097    3.0074    2.0256 C   0  0  0  0  0  0  0  0  0  0  0  0
   -0.8929    3.2117    2.4160 H   0  0  0  0  0  0  0  0  0  0  0  0
    0.8408    3.2629    2.7989 H   0  0  0  0  0  0  0  0  0  0  0  0
    0.2879    3.6496    1.1567 H   0  0  0  0  0  0  0  0  0  0  0  0
  1  2  1  0  0  0  0
  2  3  1  0  0  0  0
  2  4  1  0  0  0  0
  2  5  1  0  0  0  0
  5  6  2  0  0  0  0
  5  7  1  0  0  0  0
  7  8  1  0  0  0  0
  7  9  1  0  0  0  0
  9 10  1  0  0  0  0
  9 11  1  0  0  0  0
  9 24  1  0  0  0  0
 11 12  1  0  0  0  0
 11 13  1  0  0  0  0
 11 14  1  0  0  0  0
 14 15  1  0  0  0  0
 14 16  1  0  0  0  0
 14 20  1  0  0  0  0
 16 17  1  0  0  0  0
 16 18  1  0  0  0  0
 16 19  1  0  0  0  0
 20 21  1  0  0  0  0
 20 22  1  0  0  0  0
 20 23  1  0  0  0  0
 24 25  2  0  0  0  0
 24 26  1  0  0  0  0
 26 27  1  0  0  0  0
 26 28  1  0  0  0  0
 28 29  1  0  0  0  0
 28 30  1  0  0  0  0
 28 31  1  0  0  0  0
M  END
$$$$

  -OEChem-03222214063D

 31 30  0     1  0  0  0  0  0999 V2000
   -3.4989   -3.8769    1.2208 H   0  0  0  0  0  0  0  0  0  0  0  0
   -3.4144   -2.9150    0.7075 C   0  0  0  0  0  0  0  0  0  0  0  0
   -4.1128   -2.2094    1.1636 H   0  0  0  0  0  0  0  0  0  0  0  0
   -3.6792   -3.0520   -0.3436 H   0  0  0  0  0  0  0  0  0  0  0  0
   -1.9973   -2.3855    0.8187 C   0  0  0  0  0  0  0  0  0  0  0  0
   -1.1494   -3.0342    1.4112 O   0  0  0  0  0  0  0  0  0  0  0  0
   -1.6774   -1.1708    0.2484 N   0  0  0  0  0  0  0  0  0  0  0  0
   -2.4389   -0.6261   -0.1531 H   0  0  0  0  0  0  0  0  0  0  0  0
   -0.3715   -0.5045    0.3618 C   0  0  1  0  0  0  0  0  0  0  0  0
    0.1514   -0.9410    1.2123 H   0  0  0  0  0  0  0  0  0  0  0  0
    0.4245   -0.7059   -0.9544 C   0  0  0  0  0  0  0  0  0  0  0  0
   -0.0734   -1.5079   -1.5104 H   0  0  0  0  0  0  0  0  0  0  0  0
    0.3434    0.1924   -1.5763 H   0  0  0  0  0  0  0  0  0  0  0  0
    1.9217   -1.1021   -0.8381 C   0  0  0  0  0  0  0  0  0  0  0  0
    2.4999   -0.1736   -0.7842 H   0  0  0  0  0  0  0  0  0  0  0  0
    2.3042   -1.9304    0.3985 C   0  0  0  0  0  0  0  0  0  0  0  0
    1.6324   -2.7880    0.5096 H   0  0  0  0  0  0  0  0  0  0  0  0
    3.3280   -2.3055    0.3040 H   0  0  0  0  0  0  0  0  0  0  0  0
    2.2625   -1.3225    1.3067 H   0  0  0  0  0  0  0  0  0  0  0  0
    2.3505   -1.8491   -2.1075 C   0  0  0  0  0  0  0  0  0  0  0  0
    2.1133   -1.2567   -2.9969 H   0  0  0  0  0  0  0  0  0  0  0  0
    3.4292   -2.0336   -2.0973 H   0  0  0  0  0  0  0  0  0  0  0  0
    1.8350   -2.8122   -2.1818 H   0  0  0  0  0  0  0  0  0  0  0  0
   -0.5297    0.9951    0.6766 C   0  0  0  0  0  0  0  0  0  0  0  0
   -1.3948    1.6506    0.1068 O   0  0  0  0  0  0  0  0  0  0  0  0
    0.2534    1.5942    1.6458 N   0  0  0  0  0  0  0  0  0  0  0  0
    0.9247    1.0098    2.1358 H   0  0  0  0  0  0  0  0  0  0  0  0
    0.1262    2.9956    2.0256 C   0  0  0  0  0  0  0  0  0  0  0  0
   -0.8748    3.1964    2.4214 H   0  0  0  0  0  0  0  0  0  0  0  0
    0.8601    3.2461    2.7976 H   0  0  0  0  0  0  0  0  0  0  0  0
    0.3004    3.6440    1.1605 H   0  0  0  0  0  0  0  0  0  0  0  0
  1  2  1  0  0  0  0
  2  3  1  0  0  0  0
  2  4  1  0  0  0  0
  2  5  1  0  0  0  0
  5  6  2  0  0  0  0
  5  7  1  0  0  0  0
  7  8  1  0  0  0  0
  7  9  1  0  0  0  0
  9 10  1  0  0  0  0
  9 11  1  0  0  0  0
  9 24  1  0  0  0  0
 11 12  1  0  0  0  0
 11 13  1  0  0  0  0
 11 14  1  0  0  0  0
 14 15  1  0  0  0  0
 14 16  1  0  0  0  0
 14 20  1  0  0  0  0
 16 17  1  0  0  0  0
 16 18  1  0  0  0  0
 16 19  1  0  0  0  0
 20 21  1  0  0  0  0
 20 22  1  0  0  0  0
 20 23  1  0  0  0  0
 24 25  2  0  0  0  0
 24 26  1  0  0  0  0
 26 27  1  0  0  0  0
 26 28  1  0  0  0  0
 28 29  1  0  0  0  0
 28 30  1  0  0  0  0
 28 31  1  0  0  0  0
M  END
$$$$

  -OEChem-03222214063D

 31 30  0     1  0  0  0  0  0999 V2000
   -3.4709   -3.8855    1.2291 H   0  0  0  0  0  0  0  0  0  0  0  0
   -3.3940   -2.9241    0.7134 C   0  0  0  0  0  0  0  0  0  0  0  0
   -4.0889   -2.2192    1.1764 H   0  0  0  0  0  0  0  0  0  0  0  0
   -3.6704   -3.0631   -0.3346 H   0  0  0  0  0  0  0  0  0  0  0  0
   -1.9767   -2.3919    0.8085 C   0  0  0  0  0  0  0  0  0  0  0  0
   -1.1205   -3.0414    1.3882 O   0  0  0  0  0  0  0  0  0  0  0  0
   -1.6657   -1.1733    0.2418 N   0  0  0  0  0  0  0  0  0  0  0  0
   -2.4322   -0.6278   -0.1488 H   0  0  0  0  0  0  0  0  0  0  0  0
   -0.3596   -0.5064    0.3458 C   0  0  1  0  0  0  0  0  0  0  0  0
    0.1825   -0.9436    1.1843 H   0  0  0  0  0  0  0  0  0  0  0  0
    0.4202   -0.6954   -0.9793 C   0  0  0  0  0  0  0  0  0  0  0  0
   -0.0733   -1.4914   -1.5478 H   0  0  0  0  0  0  0  0  0  0  0  0
    0.3424    0.2138   -1.5856 H   0  0  0  0  0  0  0  0  0  0  0  0
    1.9114   -1.0900   -0.8479 C   0  0  0  0  0  0  0  0  0  0  0  0
    2.4692   -0.2029   -0.5299 H   0  0  0  0  0  0  0  0  0  0  0  0
    2.1920   -2.2024    0.1758 C   0  0  0  0  0  0  0  0  0  0  0  0
    1.4928   -3.0338    0.0391 H   0  0  0  0  0  0  0  0  0  0  0  0
    3.2103   -2.5843    0.0540 H   0  0  0  0  0  0  0  0  0  0  0  0
    2.1054   -1.8317    1.2004 H   0  0  0  0  0  0  0  0  0  0  0  0
    2.4395   -1.5145   -2.2238 C   0  0  0  0  0  0  0  0  0  0  0  0
    2.2667   -0.7231   -2.9601 H   0  0  0  0  0  0  0  0  0  0  0  0
    3.5157   -1.7085   -2.1771 H   0  0  0  0  0  0  0  0  0  0  0  0
    1.9374   -2.4248   -2.5671 H   0  0  0  0  0  0  0  0  0  0  0  0
   -0.5203    0.9907    0.6715 C   0  0  0  0  0  0  0  0  0  0  0  0
   -1.3917    1.6472    0.1125 O   0  0  0  0  0  0  0  0  0  0  0  0
    0.2700    1.5868    1.6368 N   0  0  0  0  0  0  0  0  0  0  0  0
    0.9477    1.0017    2.1173 H   0  0  0  0  0  0  0  0  0  0  0  0
    0.1390    2.9845    2.0282 C   0  0  0  0  0  0  0  0  0  0  0  0
   -0.8604    3.1775    2.4320 H   0  0  0  0  0  0  0  0  0  0  0  0
    0.8766    3.2325    2.7973 H   0  0  0  0  0  0  0  0  0  0  0  0
    0.3043    3.6401    1.1669 H   0  0  0  0  0  0  0  0  0  0  0  0
  1  2  1  0  0  0  0
  2  3  1  0  0  0  0
  2  4  1  0  0  0  0
  2  5  1  0  0  0  0
  5  6  2  0  0  0  0
  5  7  1  0  0  0  0
  7  8  1  0  0  0  0
  7  9  1  0  0  0  0
  9 10  1  0  0  0  0
  9 11  1  0  0  0  0
  9 24  1  0  0  0  0
 11 12  1  0  0  0  0
 11 13  1  0  0  0  0
 11 14  1  0  0  0  0
 14 15  1  0  0  0  0
 14 16  1  0  0  0  0
 14 20  1  0  0  0  0
 16 17  1  0  0  0  0
 16 18  1  0  0  0  0
 16 19  1  0  0  0  0
 20 21  1  0  0  0  0
 20 22  1  0  0  0  0
 20 23  1  0  0  0  0
 24 25  2  0  0  0  0
 24 26  1  0  0  0  0
 26 27  1  0  0  0  0
 26 28  1  0  0  0  0
 28 29  1  0  0  0  0
 28 30  1  0  0  0  0
 28 31  1  0  0  0  0
M  END
$$$$

  -OEChem-03222214063D

 31 30  0     1  0  0  0  0  0999 V2000
   -3.4372   -3.8953    1.2439 H   0  0  0  0  0  0  0  0  0  0  0  0
   -3.3697   -2.9331    0.7283 C   0  0  0  0  0  0  0  0  0  0  0  0
   -4.0549   -2.2287    1.2059 H   0  0  0  0  0  0  0  0  0  0  0  0
   -3.6663   -3.0701   -0.3143 H   0  0  0  0  0  0  0  0  0  0  0  0
   -1.9508   -2.4010    0.7960 C   0  0  0  0  0  0  0  0  0  0  0  0
   -1.0807   -3.0542    1.3502 O   0  0  0  0  0  0  0  0  0  0  0  0
   -1.6550   -1.1763    0.2345 N   0  0  0  0  0  0  0  0  0  0  0  0
   -2.4315   -0.6287   -0.1329 H   0  0  0  0  0  0  0  0  0  0  0  0
   -0.3504   -0.5053    0.3228 C   0  0  1  0  0  0  0  0  0  0  0  0
    0.2162   -0.9457    1.1450 H   0  0  0  0  0  0  0  0  0  0  0  0
    0.4094   -0.6819   -1.0128 C   0  0  0  0  0  0  0  0  0  0  0  0
   -0.0793   -1.4678   -1.5989 H   0  0  0  0  0  0  0  0  0  0  0  0
    0.3330    0.2401   -1.5998 H   0  0  0  0  0  0  0  0  0  0  0  0
    1.8958   -1.0707   -0.8568 C   0  0  0  0  0  0  0  0  0  0  0  0
    2.4078   -0.2815   -0.2959 H   0  0  0  0  0  0  0  0  0  0  0  0
    2.0954   -2.4024   -0.1132 C   0  0  0  0  0  0  0  0  0  0  0  0
    1.4793   -3.1880   -0.5623 H   0  0  0  0  0  0  0  0  0  0  0  0
    3.1435   -2.7132   -0.1658 H   0  0  0  0  0  0  0  0  0  0  0  0
    1.8314   -2.3174    0.9437 H   0  0  0  0  0  0  0  0  0  0  0  0
    2.5377   -1.1667   -2.2459 C   0  0  0  0  0  0  0  0  0  0  0  0
    2.4331   -0.2183   -2.7821 H   0  0  0  0  0  0  0  0  0  0  0  0
    3.6050   -1.3936   -2.1594 H   0  0  0  0  0  0  0  0  0  0  0  0
    2.0620   -1.9555   -2.8374 H   0  0  0  0  0  0  0  0  0  0  0  0
   -0.5140    0.9882    0.6644 C   0  0  0  0  0  0  0  0  0  0  0  0
   -1.3989    1.6445    0.1270 O   0  0  0  0  0  0  0  0  0  0  0  0
    0.2884    1.5805    1.6220 N   0  0  0  0  0  0  0  0  0  0  0  0
    0.9752    0.9947    2.0886 H   0  0  0  0  0  0  0  0  0  0  0  0
    0.1521    2.9727    2.0317 C   0  0  0  0  0  0  0  0  0  0  0  0
   -0.8431    3.1532    2.4515 H   0  0  0  0  0  0  0  0  0  0  0  0
    0.8984    3.2174    2.7936 H   0  0  0  0  0  0  0  0  0  0  0  0
    0.3004    3.6399    1.1761 H   0  0  0  0  0  0  0  0  0  0  0  0
  1  2  1  0  0  0  0
  2  3  1  0  0  0  0
  2  4  1  0  0  0  0
  2  5  1  0  0  0  0
  5  6  2  0  0  0  0
  5  7  1  0  0  0  0
  7  8  1  0  0  0  0
  7  9  1  0  0  0  0
  9 10  1  0  0  0  0
  9 11  1  0  0  0  0
  9 24  1  0  0  0  0
 11 12  1  0  0  0  0
 11 13  1  0  0  0  0
 11 14  1  0  0  0  0
 14 15  1  0  0  0  0
 14 16  1  0  0  0  0
 14 20  1  0  0  0  0
 16 17  1  0  0  0  0
 16 18  1  0  0  0  0
 16 19  1  0  0  0  0
 20 21  1  0  0  0  0
 20 22  1  0  0  0  0
 20 23  1  0  0  0  0
 24 25  2  0  0  0  0
 24 26  1  0  0  0  0
 26 27  1  0  0  0  0
 26 28  1  0  0  0  0
 28 29  1  0  0  0  0
 28 30  1  0  0  0  0
 28 31  1  0  0  0  0
M  END
$$$$

  -OEChem-03222214063D

 31 30  0     1  0  0  0  0  0999 V2000
   -3.4004   -3.9207    1.2445 H   0  0  0  0  0  0  0  0  0  0  0  0
   -3.3441   -2.9586    0.7276 C   0  0  0  0  0  0  0  0  0  0  0  0
   -4.0415   -2.2633    1.2010 H   0  0  0  0  0  0  0  0  0  0  0  0
   -3.6345   -3.1016   -0.3159 H   0  0  0  0  0  0  0  0  0  0  0  0
   -1.9320   -2.4084    0.7999 C   0  0  0  0  0  0  0  0  0  0  0  0
   -1.0570   -3.0521    1.3570 O   0  0  0  0  0  0  0  0  0  0  0  0
   -1.6484   -1.1789    0.2420 N   0  0  0  0  0  0  0  0  0  0  0  0
   -2.4291   -0.6417   -0.1316 H   0  0  0  0  0  0  0  0  0  0  0  0
   -0.3459   -0.5003    0.3087 C   0  0  1  0  0  0  0  0  0  0  0  0
    0.2469   -0.9502    1.1106 H   0  0  0  0  0  0  0  0  0  0  0  0
    0.3897   -0.6695   -1.0392 C   0  0  0  0  0  0  0  0  0  0  0  0
   -0.0986   -1.4478   -1.6358 H   0  0  0  0  0  0  0  0  0  0  0  0
    0.3102    0.2610   -1.6122 H   0  0  0  0  0  0  0  0  0  0  0  0
    1.8737   -1.0482   -0.8610 C   0  0  0  0  0  0  0  0  0  0  0  0
    2.3229   -0.4075   -0.0947 H   0  0  0  0  0  0  0  0  0  0  0  0
    2.0320   -2.5181   -0.4450 C   0  0  0  0  0  0  0  0  0  0  0  0
    1.5709   -3.1812   -1.1839 H   0  0  0  0  0  0  0  0  0  0  0  0
    3.0919   -2.7772   -0.3608 H   0  0  0  0  0  0  0  0  0  0  0  0
    1.5623   -2.7037    0.5248 H   0  0  0  0  0  0  0  0  0  0  0  0
    2.6220   -0.8180   -2.1788 C   0  0  0  0  0  0  0  0  0  0  0  0
    2.5643    0.2348   -2.4722 H   0  0  0  0  0  0  0  0  0  0  0  0
    3.6780   -1.0842   -2.0701 H   0  0  0  0  0  0  0  0  0  0  0  0
    2.1905   -1.4268   -2.9799 H   0  0  0  0  0  0  0  0  0  0  0  0
   -0.5084    0.9906    0.6625 C   0  0  0  0  0  0  0  0  0  0  0  0
   -1.4056    1.6470    0.1458 O   0  0  0  0  0  0  0  0  0  0  0  0
    0.3114    1.5796    1.6073 N   0  0  0  0  0  0  0  0  0  0  0  0
    1.0077    0.9924    2.0577 H   0  0  0  0  0  0  0  0  0  0  0  0
    0.1760    2.9673    2.0321 C   0  0  0  0  0  0  0  0  0  0  0  0
   -0.8169    3.1429    2.4593 H   0  0  0  0  0  0  0  0  0  0  0  0
    0.9261    3.2045    2.7925 H   0  0  0  0  0  0  0  0  0  0  0  0
    0.3191    3.6430    1.1825 H   0  0  0  0  0  0  0  0  0  0  0  0
  1  2  1  0  0  0  0
  2  3  1  0  0  0  0
  2  4  1  0  0  0  0
  2  5  1  0  0  0  0
  5  6  2  0  0  0  0
  5  7  1  0  0  0  0
  7  8  1  0  0  0  0
  7  9  1  0  0  0  0
  9 10  1  0  0  0  0
  9 11  1  0  0  0  0
  9 24  1  0  0  0  0
 11 12  1  0  0  0  0
 11 13  1  0  0  0  0
 11 14  1  0  0  0  0
 14 15  1  0  0  0  0
 14 16  1  0  0  0  0
 14 20  1  0  0  0  0
 16 17  1  0  0  0  0
 16 18  1  0  0  0  0
 16 19  1  0  0  0  0
 20 21  1  0  0  0  0
 20 22  1  0  0  0  0
 20 23  1  0  0  0  0
 24 25  2  0  0  0  0
 24 26  1  0  0  0  0
 26 27  1  0  0  0  0
 26 28  1  0  0  0  0
 28 29  1  0  0  0  0
 28 30  1  0  0  0  0
 28 31  1  0  0  0  0
M  END
$$$$

  -OEChem-03222214063D

 31 30  0     1  0  0  0  0  0999 V2000
   -3.3829   -3.9296    1.2428 H   0  0  0  0  0  0  0  0  0  0  0  0
   -3.3328   -2.9660    0.7282 C   0  0  0  0  0  0  0  0  0  0  0  0
   -4.0250   -2.2721    1.2113 H   0  0  0  0  0  0  0  0  0  0  0  0
   -3.6341   -3.1058   -0.3127 H   0  0  0  0  0  0  0  0  0  0  0  0
   -1.9210   -2.4142    0.7875 C   0  0  0  0  0  0  0  0  0  0  0  0
   -1.0369   -3.0612    1.3263 O   0  0  0  0  0  0  0  0  0  0  0  0
   -1.6481   -1.1798    0.2357 N   0  0  0  0  0  0  0  0  0  0  0  0
   -2.4360   -0.6409   -0.1200 H   0  0  0  0  0  0  0  0  0  0  0  0
   -0.3487   -0.4953    0.2988 C   0  0  1  0  0  0  0  0  0  0  0  0
    0.2477   -0.9543    1.0937 H   0  0  0  0  0  0  0  0  0  0  0  0
    0.3818   -0.6645   -1.0513 C   0  0  0  0  0  0  0  0  0  0  0  0
   -0.1067   -1.4391   -1.6526 H   0  0  0  0  0  0  0  0  0  0  0  0
    0.2971    0.2681   -1.6201 H   0  0  0  0  0  0  0  0  0  0  0  0
    1.8675   -1.0366   -0.8591 C   0  0  0  0  0  0  0  0  0  0  0  0
    2.2509   -0.5898    0.0645 H   0  0  0  0  0  0  0  0  0  0  0  0
    2.0372   -2.5602   -0.8012 C   0  0  0  0  0  0  0  0  0  0  0  0
    1.6998   -3.0267   -1.7323 H   0  0  0  0  0  0  0  0  0  0  0  0
    3.0882   -2.8214   -0.6435 H   0  0  0  0  0  0  0  0  0  0  0  0
    1.4543   -2.9774    0.0257 H   0  0  0  0  0  0  0  0  0  0  0  0
    2.6953   -0.4922   -2.0293 C   0  0  0  0  0  0  0  0  0  0  0  0
    2.6301    0.5998   -2.0674 H   0  0  0  0  0  0  0  0  0  0  0  0
    3.7483   -0.7673   -1.9129 H   0  0  0  0  0  0  0  0  0  0  0  0
    2.3336   -0.8961   -2.9804 H   0  0  0  0  0  0  0  0  0  0  0  0
   -0.5115    0.9931    0.6628 C   0  0  0  0  0  0  0  0  0  0  0  0
   -1.4133    1.6501    0.1553 O   0  0  0  0  0  0  0  0  0  0  0  0
    0.3127    1.5792    1.6056 N   0  0  0  0  0  0  0  0  0  0  0  0
    1.0142    0.9921    2.0480 H   0  0  0  0  0  0  0  0  0  0  0  0
    0.1795    2.9661    2.0336 C   0  0  0  0  0  0  0  0  0  0  0  0
   -0.8103    3.1395    2.4687 H   0  0  0  0  0  0  0  0  0  0  0  0
    0.9352    3.2033    2.7885 H   0  0  0  0  0  0  0  0  0  0  0  0
    0.3151    3.6436    1.1841 H   0  0  0  0  0  0  0  0  0  0  0  0
  1  2  1  0  0  0  0
  2  3  1  0  0  0  0
  2  4  1  0  0  0  0
  2  5  1  0  0  0  0
  5  6  2  0  0  0  0
  5  7  1  0  0  0  0
  7  8  1  0  0  0  0
  7  9  1  0  0  0  0
  9 10  1  0  0  0  0
  9 11  1  0  0  0  0
  9 24  1  0  0  0  0
 11 12  1  0  0  0  0
 11 13  1  0  0  0  0
 11 14  1  0  0  0  0
 14 15  1  0  0  0  0
 14 16  1  0  0  0  0
 14 20  1  0  0  0  0
 16 17  1  0  0  0  0
 16 18  1  0  0  0  0
 16 19  1  0  0  0  0
 20 21  1  0  0  0  0
 20 22  1  0  0  0  0
 20 23  1  0  0  0  0
 24 25  2  0  0  0  0
 24 26  1  0  0  0  0
 26 27  1  0  0  0  0
 26 28  1  0  0  0  0
 28 29  1  0  0  0  0
 28 30  1  0  0  0  0
 28 31  1  0  0  0  0
M  END
$$$$

  -OEChem-03222214063D

 31 30  0     1  0  0  0  0  0999 V2000
   -3.3893   -3.9240    1.2516 H   0  0  0  0  0  0  0  0  0  0  0  0
   -3.3407   -2.9605    0.7365 C   0  0  0  0  0  0  0  0  0  0  0  0
   -4.0236   -2.2634    1.2282 H   0  0  0  0  0  0  0  0  0  0  0  0
   -3.6562   -3.0986   -0.3005 H   0  0  0  0  0  0  0  0  0  0  0  0
   -1.9255   -2.4156    0.7774 C   0  0  0  0  0  0  0  0  0  0  0  0
   -1.0351   -3.0697    1.2975 O   0  0  0  0  0  0  0  0  0  0  0  0
   -1.6551   -1.1804    0.2260 N   0  0  0  0  0  0  0  0  0  0  0  0
   -2.4454   -0.6370   -0.1173 H   0  0  0  0  0  0  0  0  0  0  0  0
   -0.3566   -0.4950    0.2934 C   0  0  1  0  0  0  0  0  0  0  0  0
    0.2296   -0.9552    1.0948 H   0  0  0  0  0  0  0  0  0  0  0  0
    0.3819   -0.6677   -1.0519 C   0  0  0  0  0  0  0  0  0  0  0  0
   -0.1082   -1.4460   -1.6472 H   0  0  0  0  0  0  0  0  0  0  0  0
    0.2905    0.2589   -1.6295 H   0  0  0  0  0  0  0  0  0  0  0  0
    1.8721   -1.0390   -0.8595 C   0  0  0  0  0  0  0  0  0  0  0  0
    2.1895   -0.8363    0.1685 H   0  0  0  0  0  0  0  0  0  0  0  0
    2.0994   -2.5236   -1.1687 C   0  0  0  0  0  0  0  0  0  0  0  0
    1.8443   -2.7493   -2.2091 H   0  0  0  0  0  0  0  0  0  0  0  0
    3.1473   -2.7920   -1.0028 H   0  0  0  0  0  0  0  0  0  0  0  0
    1.4781   -3.1445   -0.5150 H   0  0  0  0  0  0  0  0  0  0  0  0
    2.7487   -0.1955   -1.7929 C   0  0  0  0  0  0  0  0  0  0  0  0
    2.6351    0.8687   -1.5632 H   0  0  0  0  0  0  0  0  0  0  0  0
    3.8033   -0.4609   -1.6698 H   0  0  0  0  0  0  0  0  0  0  0  0
    2.4689   -0.3581   -2.8387 H   0  0  0  0  0  0  0  0  0  0  0  0
   -0.5165    0.9936    0.6573 C   0  0  0  0  0  0  0  0  0  0  0  0
   -1.4173    1.6521    0.1498 O   0  0  0  0  0  0  0  0  0  0  0  0
    0.3072    1.5774    1.6020 N   0  0  0  0  0  0  0  0  0  0  0  0
    1.0107    0.9902    2.0409 H   0  0  0  0  0  0  0  0  0  0  0  0
    0.1776    2.9646    2.0302 C   0  0  0  0  0  0  0  0  0  0  0  0
   -0.8108    3.1403    2.4676 H   0  0  0  0  0  0  0  0  0  0  0  0
    0.9358    3.2001    2.7832 H   0  0  0  0  0  0  0  0  0  0  0  0
    0.3127    3.6418    1.1804 H   0  0  0  0  0  0  0  0  0  0  0  0
  1  2  1  0  0  0  0
  2  3  1  0  0  0  0
  2  4  1  0  0  0  0
  2  5  1  0  0  0  0
  5  6  2  0  0  0  0
  5  7  1  0  0  0  0
  7  8  1  0  0  0  0
  7  9  1  0  0  0  0
  9 10  1  0  0  0  0
  9 11  1  0  0  0  0
  9 24  1  0  0  0  0
 11 12  1  0  0  0  0
 11 13  1  0  0  0  0
 11 14  1  0  0  0  0
 14 15  1  0  0  0  0
 14 16  1  0  0  0  0
 14 20  1  0  0  0  0
 16 17  1  0  0  0  0
 16 18  1  0  0  0  0
 16 19  1  0  0  0  0
 20 21  1  0  0  0  0
 20 22  1  0  0  0  0
 20 23  1  0  0  0  0
 24 25  2  0  0  0  0
 24 26  1  0  0  0  0
 26 27  1  0  0  0  0
 26 28  1  0  0  0  0
 28 29  1  0  0  0  0
 28 30  1  0  0  0  0
 28 31  1  0  0  0  0
M  END
$$$$

  -OEChem-03222214063D

 31 30  0     1  0  0  0  0  0999 V2000
   -3.4020   -3.9169    1.2610 H   0  0  0  0  0  0  0  0  0  0  0  0
   -3.3505   -2.9564    0.7408 C   0  0  0  0  0  0  0  0  0  0  0  0
   -4.0329   -2.2556    1.2278 H   0  0  0  0  0  0  0  0  0  0  0  0
   -3.6638   -3.0998   -0.2961 H   0  0  0  0  0  0  0  0  0  0  0  0
   -1.9344   -2.4139    0.7825 C   0  0  0  0  0  0  0  0  0  0  0  0
   -1.0465   -3.0673    1.3075 O   0  0  0  0  0  0  0  0  0  0  0  0
   -1.6597   -1.1815    0.2269 N   0  0  0  0  0  0  0  0  0  0  0  0
   -2.4478   -0.6373   -0.1202 H   0  0  0  0  0  0  0  0  0  0  0  0
   -0.3597   -0.4986    0.2960 C   0  0  1  0  0  0  0  0  0  0  0  0
    0.2195   -0.9553    1.1036 H   0  0  0  0  0  0  0  0  0  0  0  0
    0.3836   -0.6708   -1.0481 C   0  0  0  0  0  0  0  0  0  0  0  0
   -0.1097   -1.4605   -1.6251 H   0  0  0  0  0  0  0  0  0  0  0  0
    0.2832    0.2431   -1.6443 H   0  0  0  0  0  0  0  0  0  0  0  0
    1.8771   -1.0450   -0.8682 C   0  0  0  0  0  0  0  0  0  0  0  0
    2.1272   -1.1320    0.1936 H   0  0  0  0  0  0  0  0  0  0  0  0
    2.1810   -2.3944   -1.5296 C   0  0  0  0  0  0  0  0  0  0  0  0
    1.9815   -2.3530   -2.6052 H   0  0  0  0  0  0  0  0  0  0  0  0
    3.2313   -2.6638   -1.3808 H   0  0  0  0  0  0  0  0  0  0  0  0
    1.5599   -3.1813   -1.0892 H   0  0  0  0  0  0  0  0  0  0  0  0
    2.7734    0.0421   -1.4724 C   0  0  0  0  0  0  0  0  0  0  0  0
    2.5828    1.0046   -0.9871 H   0  0  0  0  0  0  0  0  0  0  0  0
    3.8286   -0.2113   -1.3303 H   0  0  0  0  0  0  0  0  0  0  0  0
    2.5836    0.1490   -2.5453 H   0  0  0  0  0  0  0  0  0  0  0  0
   -0.5166    0.9915    0.6532 C   0  0  0  0  0  0  0  0  0  0  0  0
   -1.4149    1.6501    0.1415 O   0  0  0  0  0  0  0  0  0  0  0  0
    0.3058    1.5764    1.5982 N   0  0  0  0  0  0  0  0  0  0  0  0
    1.0094    0.9899    2.0382 H   0  0  0  0  0  0  0  0  0  0  0  0
    0.1810    2.9663    2.0184 C   0  0  0  0  0  0  0  0  0  0  0  0
   -0.8082    3.1482    2.4516 H   0  0  0  0  0  0  0  0  0  0  0  0
    0.9374    3.2031    2.7728 H   0  0  0  0  0  0  0  0  0  0  0  0
    0.3217    3.6380    1.1650 H   0  0  0  0  0  0  0  0  0  0  0  0
  1  2  1  0  0  0  0
  2  3  1  0  0  0  0
  2  4  1  0  0  0  0
  2  5  1  0  0  0  0
  5  6  2  0  0  0  0
  5  7  1  0  0  0  0
  7  8  1  0  0  0  0
  7  9  1  0  0  0  0
  9 10  1  0  0  0  0
  9 11  1  0  0  0  0
  9 24  1  0  0  0  0
 11 12  1  0  0  0  0
 11 13  1  0  0  0  0
 11 14  1  0  0  0  0
 14 15  1  0  0  0  0
 14 16  1  0  0  0  0
 14 20  1  0  0  0  0
 16 17  1  0  0  0  0
 16 18  1  0  0  0  0
 16 19  1  0  0  0  0
 20 21  1  0  0  0  0
 20 22  1  0  0  0  0
 20 23  1  0  0  0  0
 24 25  2  0  0  0  0
 24 26  1  0  0  0  0
 26 27  1  0  0  0  0
 26 28  1  0  0  0  0
 28 29  1  0  0  0  0
 28 30  1  0  0  0  0
 28 31  1  0  0  0  0
M  END
$$$$

  -OEChem-03222214063D

 31 30  0     1  0  0  0  0  0999 V2000
   -3.4014   -3.9128    1.2647 H   0  0  0  0  0  0  0  0  0  0  0  0
   -3.3492   -2.9532    0.7429 C   0  0  0  0  0  0  0  0  0  0  0  0
   -4.0327   -2.2515    1.2272 H   0  0  0  0  0  0  0  0  0  0  0  0
   -3.6606   -3.0987   -0.2945 H   0  0  0  0  0  0  0  0  0  0  0  0
   -1.9331   -2.4107    0.7865 C   0  0  0  0  0  0  0  0  0  0  0  0
   -1.0463   -3.0630    1.3148 O   0  0  0  0  0  0  0  0  0  0  0  0
   -1.6563   -1.1800    0.2282 N   0  0  0  0  0  0  0  0  0  0  0  0
   -2.4432   -0.6350   -0.1204 H   0  0  0  0  0  0  0  0  0  0  0  0
   -0.3548   -0.5000    0.2965 C   0  0  1  0  0  0  0  0  0  0  0  0
    0.2271   -0.9526    1.1043 H   0  0  0  0  0  0  0  0  0  0  0  0
    0.3859   -0.6690   -1.0500 C   0  0  0  0  0  0  0  0  0  0  0  0
   -0.1088   -1.4691   -1.6115 H   0  0  0  0  0  0  0  0  0  0  0  0
    0.2836    0.2363   -1.6589 H   0  0  0  0  0  0  0  0  0  0  0  0
    1.8774   -1.0467   -0.8775 C   0  0  0  0  0  0  0  0  0  0  0  0
    2.0568   -1.4231    0.1347 H   0  0  0  0  0  0  0  0  0  0  0  0
    2.2655   -2.1748   -1.8402 C   0  0  0  0  0  0  0  0  0  0  0  0
    2.1091   -1.8665   -2.8788 H   0  0  0  0  0  0  0  0  0  0  0  0
    3.3194   -2.4400   -1.7110 H   0  0  0  0  0  0  0  0  0  0  0  0
    1.6621   -3.0675   -1.6459 H   0  0  0  0  0  0  0  0  0  0  0  0
    2.7707    0.1787   -1.0989 C   0  0  0  0  0  0  0  0  0  0  0  0
    2.5052    0.9764   -0.3985 H   0  0  0  0  0  0  0  0  0  0  0  0
    3.8213   -0.0831   -0.9393 H   0  0  0  0  0  0  0  0  0  0  0  0
    2.6592    0.5600   -2.1191 H   0  0  0  0  0  0  0  0  0  0  0  0
   -0.5156    0.9904    0.6510 C   0  0  0  0  0  0  0  0  0  0  0  0
   -1.4131    1.6472    0.1356 O   0  0  0  0  0  0  0  0  0  0  0  0
    0.3039    1.5792    1.5964 N   0  0  0  0  0  0  0  0  0  0  0  0
    1.0085    0.9955    2.0383 H   0  0  0  0  0  0  0  0  0  0  0  0
    0.1787    2.9714    2.0092 C   0  0  0  0  0  0  0  0  0  0  0  0
   -0.8112    3.1557    2.4396 H   0  0  0  0  0  0  0  0  0  0  0  0
    0.9340    3.2120    2.7636 H   0  0  0  0  0  0  0  0  0  0  0  0
    0.3209    3.6386    1.1525 H   0  0  0  0  0  0  0  0  0  0  0  0
  1  2  1  0  0  0  0
  2  3  1  0  0  0  0
  2  4  1  0  0  0  0
  2  5  1  0  0  0  0
  5  6  2  0  0  0  0
  5  7  1  0  0  0  0
  7  8  1  0  0  0  0
  7  9  1  0  0  0  0
  9 10  1  0  0  0  0
  9 11  1  0  0  0  0
  9 24  1  0  0  0  0
 11 12  1  0  0  0  0
 11 13  1  0  0  0  0
 11 14  1  0  0  0  0
 14 15  1  0  0  0  0
 14 16  1  0  0  0  0
 14 20  1  0  0  0  0
 16 17  1  0  0  0  0
 16 18  1  0  0  0  0
 16 19  1  0  0  0  0
 20 21  1  0  0  0  0
 20 22  1  0  0  0  0
 20 23  1  0  0  0  0
 24 25  2  0  0  0  0
 24 26  1  0  0  0  0
 26 27  1  0  0  0  0
 26 28  1  0  0  0  0
 28 29  1  0  0  0  0
 28 30  1  0  0  0  0
 28 31  1  0  0  0  0
M  END
$$$$

  -OEChem-03222214063D

 31 30  0     1  0  0  0  0  0999 V2000
   -3.3911   -3.9073    1.2528 H   0  0  0  0  0  0  0  0  0  0  0  0
   -3.3374   -2.9454    0.7353 C   0  0  0  0  0  0  0  0  0  0  0  0
   -4.0231   -2.2461    1.2195 H   0  0  0  0  0  0  0  0  0  0  0  0
   -3.6443   -3.0863   -0.3039 H   0  0  0  0  0  0  0  0  0  0  0  0
   -1.9221   -2.4021    0.7863 C   0  0  0  0  0  0  0  0  0  0  0  0
   -1.0373   -3.0547    1.3176 O   0  0  0  0  0  0  0  0  0  0  0  0
   -1.6416   -1.1716    0.2297 N   0  0  0  0  0  0  0  0  0  0  0  0
   -2.4260   -0.6238   -0.1205 H   0  0  0  0  0  0  0  0  0  0  0  0
   -0.3384   -0.4949    0.3053 C   0  0  1  0  0  0  0  0  0  0  0  0
    0.2509   -0.9468    1.1087 H   0  0  0  0  0  0  0  0  0  0  0  0
    0.3958   -0.6657   -1.0451 C   0  0  0  0  0  0  0  0  0  0  0  0
   -0.1011   -1.4664   -1.6037 H   0  0  0  0  0  0  0  0  0  0  0  0
    0.3007    0.2407   -1.6532 H   0  0  0  0  0  0  0  0  0  0  0  0
    1.8824   -1.0519   -0.8792 C   0  0  0  0  0  0  0  0  0  0  0  0
    2.0021   -1.6731    0.0150 H   0  0  0  0  0  0  0  0  0  0  0  0
    2.3466   -1.8948   -2.0726 C   0  0  0  0  0  0  0  0  0  0  0  0
    2.2275   -1.3377   -3.0073 H   0  0  0  0  0  0  0  0  0  0  0  0
    3.4010   -2.1662   -1.9608 H   0  0  0  0  0  0  0  0  0  0  0  0
    1.7628   -2.8184   -2.1393 H   0  0  0  0  0  0  0  0  0  0  0  0
    2.7650    0.1933   -0.7365 C   0  0  0  0  0  0  0  0  0  0  0  0
    2.4805    0.7685    0.1481 H   0  0  0  0  0  0  0  0  0  0  0  0
    3.8152   -0.0960   -0.6307 H   0  0  0  0  0  0  0  0  0  0  0  0
    2.6703    0.8375   -1.6165 H   0  0  0  0  0  0  0  0  0  0  0  0
   -0.5170    0.9944    0.6612 C   0  0  0  0  0  0  0  0  0  0  0  0
   -1.4128    1.6434    0.1329 O   0  0  0  0  0  0  0  0  0  0  0  0
    0.2858    1.5947    1.6137 N   0  0  0  0  0  0  0  0  0  0  0  0
    0.9883    1.0183    2.0684 H   0  0  0  0  0  0  0  0  0  0  0  0
    0.1441    2.9878    2.0183 C   0  0  0  0  0  0  0  0  0  0  0  0
   -0.8521    3.1662    2.4366 H   0  0  0  0  0  0  0  0  0  0  0  0
    0.8887    3.2383    2.7800 H   0  0  0  0  0  0  0  0  0  0  0  0
    0.2907    3.6524    1.1604 H   0  0  0  0  0  0  0  0  0  0  0  0
  1  2  1  0  0  0  0
  2  3  1  0  0  0  0
  2  4  1  0  0  0  0
  2  5  1  0  0  0  0
  5  6  2  0  0  0  0
  5  7  1  0  0  0  0
  7  8  1  0  0  0  0
  7  9  1  0  0  0  0
  9 10  1  0  0  0  0
  9 11  1  0  0  0  0
  9 24  1  0  0  0  0
 11 12  1  0  0  0  0
 11 13  1  0  0  0  0
 11 14  1  0  0  0  0
 14 15  1  0  0  0  0
 14 16  1  0  0  0  0
 14 20  1  0  0  0  0
 16 17  1  0  0  0  0
 16 18  1  0  0  0  0
 16 19  1  0  0  0  0
 20 21  1  0  0  0  0
 20 22  1  0  0  0  0
 20 23  1  0  0  0  0
 24 25  2  0  0  0  0
 24 26  1  0  0  0  0
 26 27  1  0  0  0  0
 26 28  1  0  0  0  0
 28 29  1  0  0  0  0
 28 30  1  0  0  0  0
 28 31  1  0  0  0  0
M  END
$$$$

  -OEChem-03222214063D

 31 30  0     1  0  0  0  0  0999 V2000
   -3.3945   -3.8948    1.2459 H   0  0  0  0  0  0  0  0  0  0  0  0
   -3.3350   -2.9316    0.7316 C   0  0  0  0  0  0  0  0  0  0  0  0
   -4.0180   -2.2303    1.2170 H   0  0  0  0  0  0  0  0  0  0  0  0
   -3.6416   -3.0678   -0.3083 H   0  0  0  0  0  0  0  0  0  0  0  0
   -1.9166   -2.3963    0.7867 C   0  0  0  0  0  0  0  0  0  0  0  0
   -1.0367   -3.0520    1.3226 O   0  0  0  0  0  0  0  0  0  0  0  0
   -1.6283   -1.1679    0.2297 N   0  0  0  0  0  0  0  0  0  0  0  0
   -2.4087   -0.6175   -0.1255 H   0  0  0  0  0  0  0  0  0  0  0  0
   -0.3241   -0.4945    0.3139 C   0  0  1  0  0  0  0  0  0  0  0  0
    0.2687   -0.9468    1.1155 H   0  0  0  0  0  0  0  0  0  0  0  0
    0.4097   -0.6661   -1.0360 C   0  0  0  0  0  0  0  0  0  0  0  0
   -0.0868   -1.4609   -1.6033 H   0  0  0  0  0  0  0  0  0  0  0  0
    0.3250    0.2476   -1.6345 H   0  0  0  0  0  0  0  0  0  0  0  0
    1.8923   -1.0589   -0.8747 C   0  0  0  0  0  0  0  0  0  0  0  0
    1.9685   -1.8798   -0.1526 H   0  0  0  0  0  0  0  0  0  0  0  0
    2.4377   -1.5657   -2.2147 C   0  0  0  0  0  0  0  0  0  0  0  0
    2.3740   -0.7833   -2.9777 H   0  0  0  0  0  0  0  0  0  0  0  0
    3.4850   -1.8667   -2.1117 H   0  0  0  0  0  0  0  0  0  0  0  0
    1.8659   -2.4339   -2.5571 H   0  0  0  0  0  0  0  0  0  0  0  0
    2.7453    0.1160   -0.3813 C   0  0  0  0  0  0  0  0  0  0  0  0
    2.4662    0.3949    0.6371 H   0  0  0  0  0  0  0  0  0  0  0  0
    3.8046   -0.1591   -0.3745 H   0  0  0  0  0  0  0  0  0  0  0  0
    2.6178    0.9869   -1.0323 H   0  0  0  0  0  0  0  0  0  0  0  0
   -0.5197    0.9952    0.6658 C   0  0  0  0  0  0  0  0  0  0  0  0
   -1.4146    1.6356    0.1248 O   0  0  0  0  0  0  0  0  0  0  0  0
    0.2654    1.6075    1.6252 N   0  0  0  0  0  0  0  0  0  0  0  0
    0.9645    1.0381    2.0936 H   0  0  0  0  0  0  0  0  0  0  0  0
    0.1066    3.0006    2.0231 C   0  0  0  0  0  0  0  0  0  0  0  0
   -0.8948    3.1715    2.4317 H   0  0  0  0  0  0  0  0  0  0  0  0
    0.8420    3.2604    2.7905 H   0  0  0  0  0  0  0  0  0  0  0  0
    0.2550    3.6631    1.1639 H   0  0  0  0  0  0  0  0  0  0  0  0
  1  2  1  0  0  0  0
  2  3  1  0  0  0  0
  2  4  1  0  0  0  0
  2  5  1  0  0  0  0
  5  6  2  0  0  0  0
  5  7  1  0  0  0  0
  7  8  1  0  0  0  0
  7  9  1  0  0  0  0
  9 10  1  0  0  0  0
  9 11  1  0  0  0  0
  9 24  1  0  0  0  0
 11 12  1  0  0  0  0
 11 13  1  0  0  0  0
 11 14  1  0  0  0  0
 14 15  1  0  0  0  0
 14 16  1  0  0  0  0
 14 20  1  0  0  0  0
 16 17  1  0  0  0  0
 16 18  1  0  0  0  0
 16 19  1  0  0  0  0
 20 21  1  0  0  0  0
 20 22  1  0  0  0  0
 20 23  1  0  0  0  0
 24 25  2  0  0  0  0
 24 26  1  0  0  0  0
 26 27  1  0  0  0  0
 26 28  1  0  0  0  0
 28 29  1  0  0  0  0
 28 30  1  0  0  0  0
 28 31  1  0  0  0  0
M  END
$$$$

  -OEChem-03222214063D

 31 30  0     1  0  0  0  0  0999 V2000
   -3.4131   -3.9029    1.2346 H   0  0  0  0  0  0  0  0  0  0  0  0
   -3.3516   -2.9396    0.7207 C   0  0  0  0  0  0  0  0  0  0  0  0
   -4.0387   -2.2393    1.2015 H   0  0  0  0  0  0  0  0  0  0  0  0
   -3.6511   -3.0762   -0.3212 H   0  0  0  0  0  0  0  0  0  0  0  0
   -1.9349   -2.4012    0.7850 C   0  0  0  0  0  0  0  0  0  0  0  0
   -1.0586   -3.0531    1.3311 O   0  0  0  0  0  0  0  0  0  0  0  0
   -1.6468   -1.1730    0.2272 N   0  0  0  0  0  0  0  0  0  0  0  0
   -2.4266   -0.6282   -0.1374 H   0  0  0  0  0  0  0  0  0  0  0  0
   -0.3458   -0.4945    0.3162 C   0  0  1  0  0  0  0  0  0  0  0  0
    0.2236   -0.9450    1.1333 H   0  0  0  0  0  0  0  0  0  0  0  0
    0.4145   -0.6730   -1.0190 C   0  0  0  0  0  0  0  0  0  0  0  0
   -0.2068   -1.2438   -1.7176 H   0  0  0  0  0  0  0  0  0  0  0  0
    0.5831    0.3070   -1.4795 H   0  0  0  0  0  0  0  0  0  0  0  0
    1.7678   -1.3980   -0.8682 C   0  0  0  0  0  0  0  0  0  0  0  0
    1.5947   -2.4015   -0.4630 H   0  0  0  0  0  0  0  0  0  0  0  0
    2.4251   -1.5192   -2.2486 C   0  0  0  0  0  0  0  0  0  0  0  0
    2.6250   -0.5295   -2.6717 H   0  0  0  0  0  0  0  0  0  0  0  0
    3.3718   -2.0634   -2.1746 H   0  0  0  0  0  0  0  0  0  0  0  0
    1.7714   -2.0653   -2.9357 H   0  0  0  0  0  0  0  0  0  0  0  0
    2.7356   -0.6410    0.0572 C   0  0  0  0  0  0  0  0  0  0  0  0
    2.3850   -0.6481    1.0921 H   0  0  0  0  0  0  0  0  0  0  0  0
    3.7225   -1.1140    0.0401 H   0  0  0  0  0  0  0  0  0  0  0  0
    2.8446    0.3987   -0.2678 H   0  0  0  0  0  0  0  0  0  0  0  0
   -0.5217    0.9969    0.6628 C   0  0  0  0  0  0  0  0  0  0  0  0
   -1.4090    1.6479    0.1229 O   0  0  0  0  0  0  0  0  0  0  0  0
    0.2755    1.5942    1.6217 N   0  0  0  0  0  0  0  0  0  0  0  0
    0.9717    1.0150    2.0825 H   0  0  0  0  0  0  0  0  0  0  0  0
    0.1361    2.9878    2.0253 C   0  0  0  0  0  0  0  0  0  0  0  0
   -0.8618    3.1695    2.4380 H   0  0  0  0  0  0  0  0  0  0  0  0
    0.8772    3.2358    2.7911 H   0  0  0  0  0  0  0  0  0  0  0  0
    0.2899    3.6517    1.1681 H   0  0  0  0  0  0  0  0  0  0  0  0
  1  2  1  0  0  0  0
  2  3  1  0  0  0  0
  2  4  1  0  0  0  0
  2  5  1  0  0  0  0
  5  6  2  0  0  0  0
  5  7  1  0  0  0  0
  7  8  1  0  0  0  0
  7  9  1  0  0  0  0
  9 10  1  0  0  0  0
  9 11  1  0  0  0  0
  9 24  1  0  0  0  0
 11 12  1  0  0  0  0
 11 13  1  0  0  0  0
 11 14  1  0  0  0  0
 14 15  1  0  0  0  0
 14 16  1  0  0  0  0
 14 20  1  0  0  0  0
 16 17  1  0  0  0  0
 16 18  1  0  0  0  0
 16 19  1  0  0  0  0
 20 21  1  0  0  0  0
 20 22  1  0  0  0  0
 20 23  1  0  0  0  0
 24 25  2  0  0  0  0
 24 26  1  0  0  0  0
 26 27  1  0  0  0  0
 26 28  1  0  0  0  0
 28 29  1  0  0  0  0
 28 30  1  0  0  0  0
 28 31  1  0  0  0  0
M  END
$$$$

  -OEChem-03222214063D

 31 30  0     1  0  0  0  0  0999 V2000
   -3.4389   -3.8963    1.2146 H   0  0  0  0  0  0  0  0  0  0  0  0
   -3.3701   -2.9326    0.7022 C   0  0  0  0  0  0  0  0  0  0  0  0
   -4.0691   -2.2346    1.1691 H   0  0  0  0  0  0  0  0  0  0  0  0
   -3.6483   -3.0702   -0.3455 H   0  0  0  0  0  0  0  0  0  0  0  0
   -1.9561   -2.3907    0.7950 C   0  0  0  0  0  0  0  0  0  0  0  0
   -1.0912   -3.0390    1.3630 O   0  0  0  0  0  0  0  0  0  0  0  0
   -1.6556   -1.1677    0.2320 N   0  0  0  0  0  0  0  0  0  0  0  0
   -2.4276   -0.6255   -0.1525 H   0  0  0  0  0  0  0  0  0  0  0  0
   -0.3550   -0.4904    0.3374 C   0  0  1  0  0  0  0  0  0  0  0  0
    0.1893   -0.9326    1.1731 H   0  0  0  0  0  0  0  0  0  0  0  0
    0.4251   -0.6904   -0.9854 C   0  0  0  0  0  0  0  0  0  0  0  0
   -0.1915   -1.2536   -1.6942 H   0  0  0  0  0  0  0  0  0  0  0  0
    0.5957    0.2927   -1.4383 H   0  0  0  0  0  0  0  0  0  0  0  0
    1.7858   -1.4161   -0.8553 C   0  0  0  0  0  0  0  0  0  0  0  0
    1.6074   -2.4864   -0.7028 H   0  0  0  0  0  0  0  0  0  0  0  0
    2.5751   -1.2028   -2.1545 C   0  0  0  0  0  0  0  0  0  0  0  0
    2.8070   -0.1429   -2.3008 H   0  0  0  0  0  0  0  0  0  0  0  0
    3.5148   -1.7635   -2.1291 H   0  0  0  0  0  0  0  0  0  0  0  0
    1.9935   -1.5529   -3.0132 H   0  0  0  0  0  0  0  0  0  0  0  0
    2.6624   -0.8896    0.2966 C   0  0  0  0  0  0  0  0  0  0  0  0
    2.2818   -1.2152    1.2680 H   0  0  0  0  0  0  0  0  0  0  0  0
    3.6824   -1.2759    0.2055 H   0  0  0  0  0  0  0  0  0  0  0  0
    2.7050    0.2040    0.2797 H   0  0  0  0  0  0  0  0  0  0  0  0
   -0.5307    1.0043    0.6679 C   0  0  0  0  0  0  0  0  0  0  0  0
   -1.4064    1.6545    0.1084 O   0  0  0  0  0  0  0  0  0  0  0  0
    0.2537    1.6050    1.6350 N   0  0  0  0  0  0  0  0  0  0  0  0
    0.9429    1.0272    2.1079 H   0  0  0  0  0  0  0  0  0  0  0  0
    0.1168    3.0031    2.0233 C   0  0  0  0  0  0  0  0  0  0  0  0
   -0.8854    3.1940    2.4212 H   0  0  0  0  0  0  0  0  0  0  0  0
    0.8494    3.2546    2.7964 H   0  0  0  0  0  0  0  0  0  0  0  0
    0.2856    3.6575    1.1617 H   0  0  0  0  0  0  0  0  0  0  0  0
  1  2  1  0  0  0  0
  2  3  1  0  0  0  0
  2  4  1  0  0  0  0
  2  5  1  0  0  0  0
  5  6  2  0  0  0  0
  5  7  1  0  0  0  0
  7  8  1  0  0  0  0
  7  9  1  0  0  0  0
  9 10  1  0  0  0  0
  9 11  1  0  0  0  0
  9 24  1  0  0  0  0
 11 12  1  0  0  0  0
 11 13  1  0  0  0  0
 11 14  1  0  0  0  0
 14 15  1  0  0  0  0
 14 16  1  0  0  0  0
 14 20  1  0  0  0  0
 16 17  1  0  0  0  0
 16 18  1  0  0  0  0
 16 19  1  0  0  0  0
 20 21  1  0  0  0  0
 20 22  1  0  0  0  0
 20 23  1  0  0  0  0
 24 25  2  0  0  0  0
 24 26  1  0  0  0  0
 26 27  1  0  0  0  0
 26 28  1  0  0  0  0
 28 29  1  0  0  0  0
 28 30  1  0  0  0  0
 28 31  1  0  0  0  0
M  END
$$$$

  -OEChem-03222214063D

 31 30  0     1  0  0  0  0  0999 V2000
   -3.4601   -3.8890    1.2082 H   0  0  0  0  0  0  0  0  0  0  0  0
   -3.3858   -2.9255    0.6964 C   0  0  0  0  0  0  0  0  0  0  0  0
   -4.0951   -2.2299    1.1512 H   0  0  0  0  0  0  0  0  0  0  0  0
   -3.6455   -3.0652   -0.3557 H   0  0  0  0  0  0  0  0  0  0  0  0
   -1.9751   -2.3790    0.8125 C   0  0  0  0  0  0  0  0  0  0  0  0
   -1.1220   -3.0193    1.4070 O   0  0  0  0  0  0  0  0  0  0  0  0
   -1.6630   -1.1621    0.2418 N   0  0  0  0  0  0  0  0  0  0  0  0
   -2.4257   -0.6248   -0.1671 H   0  0  0  0  0  0  0  0  0  0  0  0
   -0.3617   -0.4877    0.3600 C   0  0  1  0  0  0  0  0  0  0  0  0
    0.1646   -0.9159    1.2125 H   0  0  0  0  0  0  0  0  0  0  0  0
    0.4328   -0.6940   -0.9575 C   0  0  0  0  0  0  0  0  0  0  0  0
   -0.1852   -1.2451   -1.6743 H   0  0  0  0  0  0  0  0  0  0  0  0
    0.5987    0.2939   -1.4020 H   0  0  0  0  0  0  0  0  0  0  0  0
    1.8018   -1.4230   -0.8601 C   0  0  0  0  0  0  0  0  0  0  0  0
    1.6337   -2.4966   -0.9990 H   0  0  0  0  0  0  0  0  0  0  0  0
    2.7175   -0.9017   -1.9776 C   0  0  0  0  0  0  0  0  0  0  0  0
    2.9553    0.1563   -1.8261 H   0  0  0  0  0  0  0  0  0  0  0  0
    3.6540   -1.4679   -2.0014 H   0  0  0  0  0  0  0  0  0  0  0  0
    2.2292   -1.0127   -2.9510 H   0  0  0  0  0  0  0  0  0  0  0  0
    2.5583   -1.2278    0.4660 C   0  0  0  0  0  0  0  0  0  0  0  0
    2.0879   -1.7989    1.2716 H   0  0  0  0  0  0  0  0  0  0  0  0
    3.5877   -1.5888    0.3756 H   0  0  0  0  0  0  0  0  0  0  0  0
    2.5879   -0.1695    0.7433 H   0  0  0  0  0  0  0  0  0  0  0  0
   -0.5405    1.0110    0.6735 C   0  0  0  0  0  0  0  0  0  0  0  0
   -1.4042    1.6576    0.0916 O   0  0  0  0  0  0  0  0  0  0  0  0
    0.2299    1.6206    1.6466 N   0  0  0  0  0  0  0  0  0  0  0  0
    0.9073    1.0453    2.1391 H   0  0  0  0  0  0  0  0  0  0  0  0
    0.0955    3.0246    2.0141 C   0  0  0  0  0  0  0  0  0  0  0  0
   -0.9091    3.2253    2.4009 H   0  0  0  0  0  0  0  0  0  0  0  0
    0.8229    3.2834    2.7895 H   0  0  0  0  0  0  0  0  0  0  0  0
    0.2742    3.6665    1.1451 H   0  0  0  0  0  0  0  0  0  0  0  0
  1  2  1  0  0  0  0
  2  3  1  0  0  0  0
  2  4  1  0  0  0  0
  2  5  1  0  0  0  0
  5  6  2  0  0  0  0
  5  7  1  0  0  0  0
  7  8  1  0  0  0  0
  7  9  1  0  0  0  0
  9 10  1  0  0  0  0
  9 11  1  0  0  0  0
  9 24  1  0  0  0  0
 11 12  1  0  0  0  0
 11 13  1  0  0  0  0
 11 14  1  0  0  0  0
 14 15  1  0  0  0  0
 14 16  1  0  0  0  0
 14 20  1  0  0  0  0
 16 17  1  0  0  0  0
 16 18  1  0  0  0  0
 16 19  1  0  0  0  0
 20 21  1  0  0  0  0
 20 22  1  0  0  0  0
 20 23  1  0  0  0  0
 24 25  2  0  0  0  0
 24 26  1  0  0  0  0
 26 27  1  0  0  0  0
 26 28  1  0  0  0  0
 28 29  1  0  0  0  0
 28 30  1  0  0  0  0
 28 31  1  0  0  0  0
M  END
$$$$

  -OEChem-03222214063D

 31 30  0     1  0  0  0  0  0999 V2000
   -3.4807   -3.8581    1.2286 H   0  0  0  0  0  0  0  0  0  0  0  0
   -3.3980   -2.8966    0.7143 C   0  0  0  0  0  0  0  0  0  0  0  0
   -4.0959   -2.1912    1.1716 H   0  0  0  0  0  0  0  0  0  0  0  0
   -3.6657   -3.0351   -0.3359 H   0  0  0  0  0  0  0  0  0  0  0  0
   -1.9808   -2.3660    0.8211 C   0  0  0  0  0  0  0  0  0  0  0  0
   -1.1322   -3.0097    1.4184 O   0  0  0  0  0  0  0  0  0  0  0  0
   -1.6607   -1.1549    0.2435 N   0  0  0  0  0  0  0  0  0  0  0  0
   -2.4215   -0.6121   -0.1623 H   0  0  0  0  0  0  0  0  0  0  0  0
   -0.3580   -0.4847    0.3681 C   0  0  1  0  0  0  0  0  0  0  0  0
    0.1589   -0.8998    1.2325 H   0  0  0  0  0  0  0  0  0  0  0  0
    0.4469   -0.6911   -0.9460 C   0  0  0  0  0  0  0  0  0  0  0  0
   -0.1732   -1.2460   -1.6580 H   0  0  0  0  0  0  0  0  0  0  0  0
    0.6010    0.2951   -1.3983 H   0  0  0  0  0  0  0  0  0  0  0  0
    1.8210   -1.4226   -0.8698 C   0  0  0  0  0  0  0  0  0  0  0  0
    1.6904   -2.4204   -1.3028 H   0  0  0  0  0  0  0  0  0  0  0  0
    2.8498   -0.6561   -1.7139 C   0  0  0  0  0  0  0  0  0  0  0  0
    3.0324    0.3384   -1.2937 H   0  0  0  0  0  0  0  0  0  0  0  0
    3.8000   -1.1984   -1.7475 H   0  0  0  0  0  0  0  0  0  0  0  0
    2.4891   -0.5400   -2.7409 H   0  0  0  0  0  0  0  0  0  0  0  0
    2.4201   -1.6133    0.5330 C   0  0  0  0  0  0  0  0  0  0  0  0
    1.8068   -2.3015    1.1234 H   0  0  0  0  0  0  0  0  0  0  0  0
    3.4226   -2.0475    0.4634 H   0  0  0  0  0  0  0  0  0  0  0  0
    2.4965   -0.6562    1.0580 H   0  0  0  0  0  0  0  0  0  0  0  0
   -0.5448    1.0160    0.6687 C   0  0  0  0  0  0  0  0  0  0  0  0
   -1.4133    1.6530    0.0828 O   0  0  0  0  0  0  0  0  0  0  0  0
    0.2134    1.6358    1.6448 N   0  0  0  0  0  0  0  0  0  0  0  0
    0.8935    1.0686    2.1428 H   0  0  0  0  0  0  0  0  0  0  0  0
    0.0530    3.0360    2.0167 C   0  0  0  0  0  0  0  0  0  0  0  0
   -0.9593    3.2196    2.3917 H   0  0  0  0  0  0  0  0  0  0  0  0
    0.7662    3.3026    2.8025 H   0  0  0  0  0  0  0  0  0  0  0  0
    0.2323    3.6848    1.1529 H   0  0  0  0  0  0  0  0  0  0  0  0
  1  2  1  0  0  0  0
  2  3  1  0  0  0  0
  2  4  1  0  0  0  0
  2  5  1  0  0  0  0
  5  6  2  0  0  0  0
  5  7  1  0  0  0  0
  7  8  1  0  0  0  0
  7  9  1  0  0  0  0
  9 10  1  0  0  0  0
  9 11  1  0  0  0  0
  9 24  1  0  0  0  0
 11 12  1  0  0  0  0
 11 13  1  0  0  0  0
 11 14  1  0  0  0  0
 14 15  1  0  0  0  0
 14 16  1  0  0  0  0
 14 20  1  0  0  0  0
 16 17  1  0  0  0  0
 16 18  1  0  0  0  0
 16 19  1  0  0  0  0
 20 21  1  0  0  0  0
 20 22  1  0  0  0  0
 20 23  1  0  0  0  0
 24 25  2  0  0  0  0
 24 26  1  0  0  0  0
 26 27  1  0  0  0  0
 26 28  1  0  0  0  0
 28 29  1  0  0  0  0
 28 30  1  0  0  0  0
 28 31  1  0  0  0  0
M  END
$$$$

  -OEChem-03222214063D

 31 30  0     1  0  0  0  0  0999 V2000
   -3.4943   -3.8495    1.2355 H   0  0  0  0  0  0  0  0  0  0  0  0
   -3.4053   -2.8899    0.7186 C   0  0  0  0  0  0  0  0  0  0  0  0
   -4.1076   -2.1824    1.1659 H   0  0  0  0  0  0  0  0  0  0  0  0
   -3.6617   -3.0319   -0.3339 H   0  0  0  0  0  0  0  0  0  0  0  0
   -1.9890   -2.3601    0.8394 C   0  0  0  0  0  0  0  0  0  0  0  0
   -1.1534   -2.9960    1.4620 O   0  0  0  0  0  0  0  0  0  0  0  0
   -1.6601   -1.1537    0.2571 N   0  0  0  0  0  0  0  0  0  0  0  0
   -2.4150   -0.6168   -0.1668 H   0  0  0  0  0  0  0  0  0  0  0  0
   -0.3562   -0.4841    0.3784 C   0  0  1  0  0  0  0  0  0  0  0  0
    0.1653   -0.8924    1.2437 H   0  0  0  0  0  0  0  0  0  0  0  0
    0.4510   -0.6833   -0.9359 C   0  0  0  0  0  0  0  0  0  0  0  0
   -0.1708   -1.2565   -1.6319 H   0  0  0  0  0  0  0  0  0  0  0  0
    0.5883    0.2949   -1.4100 H   0  0  0  0  0  0  0  0  0  0  0  0
    1.8276   -1.4117   -0.8674 C   0  0  0  0  0  0  0  0  0  0  0  0
    1.7737   -2.2609   -1.5575 H   0  0  0  0  0  0  0  0  0  0  0  0
    2.9341   -0.4759   -1.3728 C   0  0  0  0  0  0  0  0  0  0  0  0
    3.0241    0.4002   -0.7227 H   0  0  0  0  0  0  0  0  0  0  0  0
    3.8973   -0.9955   -1.3911 H   0  0  0  0  0  0  0  0  0  0  0  0
    2.7129   -0.1353   -2.3893 H   0  0  0  0  0  0  0  0  0  0  0  0
    2.2502   -1.9802    0.4953 C   0  0  0  0  0  0  0  0  0  0  0  0
    1.5031   -2.6899    0.8638 H   0  0  0  0  0  0  0  0  0  0  0  0
    3.2000   -2.5159    0.4014 H   0  0  0  0  0  0  0  0  0  0  0  0
    2.3819   -1.1814    1.2316 H   0  0  0  0  0  0  0  0  0  0  0  0
   -0.5455    1.0180    0.6695 C   0  0  0  0  0  0  0  0  0  0  0  0
   -1.4114    1.6517    0.0762 O   0  0  0  0  0  0  0  0  0  0  0  0
    0.2114    1.6433    1.6430 N   0  0  0  0  0  0  0  0  0  0  0  0
    0.8867    1.0772    2.1490 H   0  0  0  0  0  0  0  0  0  0  0  0
    0.0456    3.0436    2.0120 C   0  0  0  0  0  0  0  0  0  0  0  0
   -0.9684    3.2247    2.3836 H   0  0  0  0  0  0  0  0  0  0  0  0
    0.7556    3.3132    2.7996 H   0  0  0  0  0  0  0  0  0  0  0  0
    0.2259    3.6913    1.1477 H   0  0  0  0  0  0  0  0  0  0  0  0
  1  2  1  0  0  0  0
  2  3  1  0  0  0  0
  2  4  1  0  0  0  0
  2  5  1  0  0  0  0
  5  6  2  0  0  0  0
  5  7  1  0  0  0  0
  7  8  1  0  0  0  0
  7  9  1  0  0  0  0
  9 10  1  0  0  0  0
  9 11  1  0  0  0  0
  9 24  1  0  0  0  0
 11 12  1  0  0  0  0
 11 13  1  0  0  0  0
 11 14  1  0  0  0  0
 14 15  1  0  0  0  0
 14 16  1  0  0  0  0
 14 20  1  0  0  0  0
 16 17  1  0  0  0  0
 16 18  1  0  0  0  0
 16 19  1  0  0  0  0
 20 21  1  0  0  0  0
 20 22  1  0  0  0  0
 20 23  1  0  0  0  0
 24 25  2  0  0  0  0
 24 26  1  0  0  0  0
 26 27  1  0  0  0  0
 26 28  1  0  0  0  0
 28 29  1  0  0  0  0
 28 30  1  0  0  0  0
 28 31  1  0  0  0  0
M  END
$$$$

  -OEChem-03222214063D

 31 30  0     1  0  0  0  0  0999 V2000
   -3.5000   -3.8611    1.2242 H   0  0  0  0  0  0  0  0  0  0  0  0
   -3.4050   -2.9006    0.7100 C   0  0  0  0  0  0  0  0  0  0  0  0
   -4.1251   -2.1989    1.1380 H   0  0  0  0  0  0  0  0  0  0  0  0
   -3.6314   -3.0446   -0.3492 H   0  0  0  0  0  0  0  0  0  0  0  0
   -1.9969   -2.3587    0.8688 C   0  0  0  0  0  0  0  0  0  0  0  0
   -1.1801   -2.9770    1.5320 O   0  0  0  0  0  0  0  0  0  0  0  0
   -1.6602   -1.1567    0.2824 N   0  0  0  0  0  0  0  0  0  0  0  0
   -2.4063   -0.6339   -0.1733 H   0  0  0  0  0  0  0  0  0  0  0  0
   -0.3543   -0.4884    0.3939 C   0  0  1  0  0  0  0  0  0  0  0  0
    0.1825   -0.8961    1.2506 H   0  0  0  0  0  0  0  0  0  0  0  0
    0.4472   -0.6739   -0.9250 C   0  0  0  0  0  0  0  0  0  0  0  0
   -0.1757   -1.2596   -1.6094 H   0  0  0  0  0  0  0  0  0  0  0  0
    0.5779    0.2988   -1.4119 H   0  0  0  0  0  0  0  0  0  0  0  0
    1.8211   -1.3994   -0.8556 C   0  0  0  0  0  0  0  0  0  0  0  0
    1.8754   -2.0422   -1.7412 H   0  0  0  0  0  0  0  0  0  0  0  0
    2.9600   -0.3800   -0.9821 C   0  0  0  0  0  0  0  0  0  0  0  0
    2.9409    0.3221   -0.1425 H   0  0  0  0  0  0  0  0  0  0  0  0
    3.9291   -0.8888   -0.9887 H   0  0  0  0  0  0  0  0  0  0  0  0
    2.8680    0.1873   -1.9138 H   0  0  0  0  0  0  0  0  0  0  0  0
    2.0656   -2.3098    0.3557 C   0  0  0  0  0  0  0  0  0  0  0  0
    1.2393   -3.0159    0.4755 H   0  0  0  0  0  0  0  0  0  0  0  0
    2.9831   -2.8880    0.2092 H   0  0  0  0  0  0  0  0  0  0  0  0
    2.1790   -1.7294    1.2759 H   0  0  0  0  0  0  0  0  0  0  0  0
   -0.5431    1.0146    0.6790 C   0  0  0  0  0  0  0  0  0  0  0  0
   -1.4039    1.6485    0.0784 O   0  0  0  0  0  0  0  0  0  0  0  0
    0.2181    1.6444    1.6462 N   0  0  0  0  0  0  0  0  0  0  0  0
    0.8895    1.0791    2.1583 H   0  0  0  0  0  0  0  0  0  0  0  0
    0.0675    3.0515    1.9942 C   0  0  0  0  0  0  0  0  0  0  0  0
   -0.9409    3.2469    2.3738 H   0  0  0  0  0  0  0  0  0  0  0  0
    0.7885    3.3288    2.7692 H   0  0  0  0  0  0  0  0  0  0  0  0
    0.2432    3.6830    1.1170 H   0  0  0  0  0  0  0  0  0  0  0  0
  1  2  1  0  0  0  0
  2  3  1  0  0  0  0
  2  4  1  0  0  0  0
  2  5  1  0  0  0  0
  5  6  2  0  0  0  0
  5  7  1  0  0  0  0
  7  8  1  0  0  0  0
  7  9  1  0  0  0  0
  9 10  1  0  0  0  0
  9 11  1  0  0  0  0
  9 24  1  0  0  0  0
 11 12  1  0  0  0  0
 11 13  1  0  0  0  0
 11 14  1  0  0  0  0
 14 15  1  0  0  0  0
 14 16  1  0  0  0  0
 14 20  1  0  0  0  0
 16 17  1  0  0  0  0
 16 18  1  0  0  0  0
 16 19  1  0  0  0  0
 20 21  1  0  0  0  0
 20 22  1  0  0  0  0
 20 23  1  0  0  0  0
 24 25  2  0  0  0  0
 24 26  1  0  0  0  0
 26 27  1  0  0  0  0
 26 28  1  0  0  0  0
 28 29  1  0  0  0  0
 28 30  1  0  0  0  0
 28 31  1  0  0  0  0
M  END
$$$$

  -OEChem-03222214063D

 31 30  0     1  0  0  0  0  0999 V2000
   -3.4822   -3.8648    1.2363 H   0  0  0  0  0  0  0  0  0  0  0  0
   -3.3921   -2.9054    0.7191 C   0  0  0  0  0  0  0  0  0  0  0  0
   -4.1130   -2.2050    1.1478 H   0  0  0  0  0  0  0  0  0  0  0  0
   -3.6219   -3.0528   -0.3388 H   0  0  0  0  0  0  0  0  0  0  0  0
   -1.9850   -2.3588    0.8711 C   0  0  0  0  0  0  0  0  0  0  0  0
   -1.1626   -2.9737    1.5308 O   0  0  0  0  0  0  0  0  0  0  0  0
   -1.6542   -1.1558    0.2832 N   0  0  0  0  0  0  0  0  0  0  0  0
   -2.4029   -0.6334   -0.1687 H   0  0  0  0  0  0  0  0  0  0  0  0
   -0.3466   -0.4897    0.3851 C   0  0  1  0  0  0  0  0  0  0  0  0
    0.2060   -0.8988    1.2321 H   0  0  0  0  0  0  0  0  0  0  0  0
    0.4448   -0.6712   -0.9381 C   0  0  0  0  0  0  0  0  0  0  0  0
   -0.1776   -1.2558   -1.6240 H   0  0  0  0  0  0  0  0  0  0  0  0
    0.5899    0.3005   -1.4230 H   0  0  0  0  0  0  0  0  0  0  0  0
    1.8090   -1.3998   -0.8453 C   0  0  0  0  0  0  0  0  0  0  0  0
    1.9952   -1.8246   -1.8378 H   0  0  0  0  0  0  0  0  0  0  0  0
    2.9342   -0.3918   -0.5866 C   0  0  0  0  0  0  0  0  0  0  0  0
    2.7947    0.0995    0.3813 H   0  0  0  0  0  0  0  0  0  0  0  0
    3.9052   -0.8970   -0.5830 H   0  0  0  0  0  0  0  0  0  0  0  0
    2.9516    0.3748   -1.3677 H   0  0  0  0  0  0  0  0  0  0  0  0
    1.8769   -2.5704    0.1449 C   0  0  0  0  0  0  0  0  0  0  0  0
    1.0277   -3.2436   -0.0046 H   0  0  0  0  0  0  0  0  0  0  0  0
    2.7956   -3.1425   -0.0177 H   0  0  0  0  0  0  0  0  0  0  0  0
    1.8788   -2.2251    1.1822 H   0  0  0  0  0  0  0  0  0  0  0  0
   -0.5333    1.0127    0.6750 C   0  0  0  0  0  0  0  0  0  0  0  0
   -1.3960    1.6492    0.0797 O   0  0  0  0  0  0  0  0  0  0  0  0
    0.2359    1.6399    1.6376 N   0  0  0  0  0  0  0  0  0  0  0  0
    0.9052    1.0711    2.1486 H   0  0  0  0  0  0  0  0  0  0  0  0
    0.0863    3.0453    1.9930 C   0  0  0  0  0  0  0  0  0  0  0  0
   -0.9197    3.2378    2.3804 H   0  0  0  0  0  0  0  0  0  0  0  0
    0.8124    3.3192    2.7644 H   0  0  0  0  0  0  0  0  0  0  0  0
    0.2555    3.6820    1.1182 H   0  0  0  0  0  0  0  0  0  0  0  0
  1  2  1  0  0  0  0
  2  3  1  0  0  0  0
  2  4  1  0  0  0  0
  2  5  1  0  0  0  0
  5  6  2  0  0  0  0
  5  7  1  0  0  0  0
  7  8  1  0  0  0  0
  7  9  1  0  0  0  0
  9 10  1  0  0  0  0
  9 11  1  0  0  0  0
  9 24  1  0  0  0  0
 11 12  1  0  0  0  0
 11 13  1  0  0  0  0
 11 14  1  0  0  0  0
 14 15  1  0  0  0  0
 14 16  1  0  0  0  0
 14 20  1  0  0  0  0
 16 17  1  0  0  0  0
 16 18  1  0  0  0  0
 16 19  1  0  0  0  0
 20 21  1  0  0  0  0
 20 22  1  0  0  0  0
 20 23  1  0  0  0  0
 24 25  2  0  0  0  0
 24 26  1  0  0  0  0
 26 27  1  0  0  0  0
 26 28  1  0  0  0  0
 28 29  1  0  0  0  0
 28 30  1  0  0  0  0
 28 31  1  0  0  0  0
M  END
$$$$

  -OEChem-03222214063D

 31 30  0     1  0  0  0  0  0999 V2000
   -3.4691   -3.8719    1.2324 H   0  0  0  0  0  0  0  0  0  0  0  0
   -3.3805   -2.9109    0.7180 C   0  0  0  0  0  0  0  0  0  0  0  0
   -4.0958   -2.2101    1.1554 H   0  0  0  0  0  0  0  0  0  0  0  0
   -3.6201   -3.0540   -0.3384 H   0  0  0  0  0  0  0  0  0  0  0  0
   -1.9706   -2.3691    0.8596 C   0  0  0  0  0  0  0  0  0  0  0  0
   -1.1412   -2.9938    1.5010 O   0  0  0  0  0  0  0  0  0  0  0  0
   -1.6448   -1.1614    0.2786 N   0  0  0  0  0  0  0  0  0  0  0  0
   -2.3983   -0.6345   -0.1600 H   0  0  0  0  0  0  0  0  0  0  0  0
   -0.3367   -0.4958    0.3726 C   0  0  1  0  0  0  0  0  0  0  0  0
    0.2311   -0.9155    1.2063 H   0  0  0  0  0  0  0  0  0  0  0  0
    0.4389   -0.6734   -0.9583 C   0  0  0  0  0  0  0  0  0  0  0  0
   -0.1861   -1.2436   -1.6539 H   0  0  0  0  0  0  0  0  0  0  0  0
    0.6029    0.3027   -1.4283 H   0  0  0  0  0  0  0  0  0  0  0  0
    1.7951   -1.4053   -0.8480 C   0  0  0  0  0  0  0  0  0  0  0  0
    2.1150   -1.6246   -1.8725 H   0  0  0  0  0  0  0  0  0  0  0  0
    2.8582   -0.4898   -0.2301 C   0  0  0  0  0  0  0  0  0  0  0  0
    2.6038   -0.2415    0.8045 H   0  0  0  0  0  0  0  0  0  0  0  0
    3.8340   -0.9854   -0.2359 H   0  0  0  0  0  0  0  0  0  0  0  0
    2.9422    0.4401   -0.8010 H   0  0  0  0  0  0  0  0  0  0  0  0
    1.7242   -2.7468   -0.1060 C   0  0  0  0  0  0  0  0  0  0  0  0
    0.8987   -3.3522   -0.4930 H   0  0  0  0  0  0  0  0  0  0  0  0
    2.6550   -3.3036   -0.2516 H   0  0  0  0  0  0  0  0  0  0  0  0
    1.5811   -2.6071    0.9689 H   0  0  0  0  0  0  0  0  0  0  0  0
   -0.5214    1.0043    0.6761 C   0  0  0  0  0  0  0  0  0  0  0  0
   -1.3893    1.6443    0.0925 O   0  0  0  0  0  0  0  0  0  0  0  0
    0.2560    1.6265    1.6354 N   0  0  0  0  0  0  0  0  0  0  0  0
    0.9312    1.0558    2.1363 H   0  0  0  0  0  0  0  0  0  0  0  0
    0.1075    3.0297    2.0001 C   0  0  0  0  0  0  0  0  0  0  0  0
   -0.8961    3.2186    2.3955 H   0  0  0  0  0  0  0  0  0  0  0  0
    0.8386    3.3000    2.7680 H   0  0  0  0  0  0  0  0  0  0  0  0
    0.2698    3.6712    1.1276 H   0  0  0  0  0  0  0  0  0  0  0  0
  1  2  1  0  0  0  0
  2  3  1  0  0  0  0
  2  4  1  0  0  0  0
  2  5  1  0  0  0  0
  5  6  2  0  0  0  0
  5  7  1  0  0  0  0
  7  8  1  0  0  0  0
  7  9  1  0  0  0  0
  9 10  1  0  0  0  0
  9 11  1  0  0  0  0
  9 24  1  0  0  0  0
 11 12  1  0  0  0  0
 11 13  1  0  0  0  0
 11 14  1  0  0  0  0
 14 15  1  0  0  0  0
 14 16  1  0  0  0  0
 14 20  1  0  0  0  0
 16 17  1  0  0  0  0
 16 18  1  0  0  0  0
 16 19  1  0  0  0  0
 20 21  1  0  0  0  0
 20 22  1  0  0  0  0
 20 23  1  0  0  0  0
 24 25  2  0  0  0  0
 24 26  1  0  0  0  0
 26 27  1  0  0  0  0
 26 28  1  0  0  0  0
 28 29  1  0  0  0  0
 28 30  1  0  0  0  0
 28 31  1  0  0  0  0
M  END
$$$$

  -OEChem-03222214063D

 31 30  0     1  0  0  0  0  0999 V2000
   -3.4670   -3.8894    1.2041 H   0  0  0  0  0  0  0  0  0  0  0  0
   -3.3786   -2.9249    0.6961 C   0  0  0  0  0  0  0  0  0  0  0  0
   -4.1014   -2.2301    1.1307 H   0  0  0  0  0  0  0  0  0  0  0  0
   -3.6073   -3.0630   -0.3634 H   0  0  0  0  0  0  0  0  0  0  0  0
   -1.9730   -2.3767    0.8545 C   0  0  0  0  0  0  0  0  0  0  0  0
   -1.1498   -2.9984    1.5062 O   0  0  0  0  0  0  0  0  0  0  0  0
   -1.6475   -1.1656    0.2804 N   0  0  0  0  0  0  0  0  0  0  0  0
   -2.3995   -0.6439   -0.1665 H   0  0  0  0  0  0  0  0  0  0  0  0
   -0.3407   -0.4961    0.3712 C   0  0  1  0  0  0  0  0  0  0  0  0
    0.2263   -0.9314    1.1980 H   0  0  0  0  0  0  0  0  0  0  0  0
    0.4275   -0.6802   -0.9633 C   0  0  0  0  0  0  0  0  0  0  0  0
   -0.2010   -1.2348   -1.6681 H   0  0  0  0  0  0  0  0  0  0  0  0
    0.6034    0.3003   -1.4192 H   0  0  0  0  0  0  0  0  0  0  0  0
    1.7853   -1.4082   -0.8596 C   0  0  0  0  0  0  0  0  0  0  0  0
    2.2157   -1.4303   -1.8665 H   0  0  0  0  0  0  0  0  0  0  0  0
    2.7669   -0.6647    0.0577 C   0  0  0  0  0  0  0  0  0  0  0  0
    2.4462   -0.7011    1.1024 H   0  0  0  0  0  0  0  0  0  0  0  0
    3.7597   -1.1206   -0.0088 H   0  0  0  0  0  0  0  0  0  0  0  0
    2.8509    0.3835   -0.2456 H   0  0  0  0  0  0  0  0  0  0  0  0
    1.6304   -2.8591   -0.3884 C   0  0  0  0  0  0  0  0  0  0  0  0
    0.8672   -3.3757   -0.9787 H   0  0  0  0  0  0  0  0  0  0  0  0
    2.5770   -3.3953   -0.5062 H   0  0  0  0  0  0  0  0  0  0  0  0
    1.3448   -2.9035    0.6659 H   0  0  0  0  0  0  0  0  0  0  0  0
   -0.5188    1.0027    0.6833 C   0  0  0  0  0  0  0  0  0  0  0  0
   -1.3875    1.6481    0.1071 O   0  0  0  0  0  0  0  0  0  0  0  0
    0.2666    1.6173    1.6407 N   0  0  0  0  0  0  0  0  0  0  0  0
    0.9399    1.0405    2.1372 H   0  0  0  0  0  0  0  0  0  0  0  0
    0.1281    3.0199    2.0115 C   0  0  0  0  0  0  0  0  0  0  0  0
   -0.8730    3.2141    2.4104 H   0  0  0  0  0  0  0  0  0  0  0  0
    0.8632    3.2821    2.7786 H   0  0  0  0  0  0  0  0  0  0  0  0
    0.2925    3.6639    1.1412 H   0  0  0  0  0  0  0  0  0  0  0  0
  1  2  1  0  0  0  0
  2  3  1  0  0  0  0
  2  4  1  0  0  0  0
  2  5  1  0  0  0  0
  5  6  2  0  0  0  0
  5  7  1  0  0  0  0
  7  8  1  0  0  0  0
  7  9  1  0  0  0  0
  9 10  1  0  0  0  0
  9 11  1  0  0  0  0
  9 24  1  0  0  0  0
 11 12  1  0  0  0  0
 11 13  1  0  0  0  0
 11 14  1  0  0  0  0
 14 15  1  0  0  0  0
 14 16  1  0  0  0  0
 14 20  1  0  0  0  0
 16 17  1  0  0  0  0
 16 18  1  0  0  0  0
 16 19  1  0  0  0  0
 20 21  1  0  0  0  0
 20 22  1  0  0  0  0
 20 23  1  0  0  0  0
 24 25  2  0  0  0  0
 24 26  1  0  0  0  0
 26 27  1  0  0  0  0
 26 28  1  0  0  0  0
 28 29  1  0  0  0  0
 28 30  1  0  0  0  0
 28 31  1  0  0  0  0
M  END
$$$$

  -OEChem-03222214063D

 31 30  0     1  0  0  0  0  0999 V2000
   -3.4686   -3.8920    1.1991 H   0  0  0  0  0  0  0  0  0  0  0  0
   -3.3821   -2.9269    0.6921 C   0  0  0  0  0  0  0  0  0  0  0  0
   -4.1105   -2.2357    1.1229 H   0  0  0  0  0  0  0  0  0  0  0  0
   -3.6045   -3.0657   -0.3686 H   0  0  0  0  0  0  0  0  0  0  0  0
   -1.9799   -2.3723    0.8589 C   0  0  0  0  0  0  0  0  0  0  0  0
   -1.1584   -2.9884    1.5185 O   0  0  0  0  0  0  0  0  0  0  0  0
   -1.6545   -1.1620    0.2827 N   0  0  0  0  0  0  0  0  0  0  0  0
   -2.4046   -0.6429   -0.1705 H   0  0  0  0  0  0  0  0  0  0  0  0
   -0.3486   -0.4919    0.3791 C   0  0  1  0  0  0  0  0  0  0  0  0
    0.2036   -0.9281    1.2134 H   0  0  0  0  0  0  0  0  0  0  0  0
    0.4252   -0.6855   -0.9526 C   0  0  0  0  0  0  0  0  0  0  0  0
   -0.2082   -1.2189   -1.6692 H   0  0  0  0  0  0  0  0  0  0  0  0
    0.6125    0.2998   -1.3936 H   0  0  0  0  0  0  0  0  0  0  0  0
    1.7881   -1.4131   -0.8653 C   0  0  0  0  0  0  0  0  0  0  0  0
    2.3170   -1.2235   -1.8055 H   0  0  0  0  0  0  0  0  0  0  0  0
    2.6782   -0.9249    0.2891 C   0  0  0  0  0  0  0  0  0  0  0  0
    2.3160   -1.2746    1.2598 H   0  0  0  0  0  0  0  0  0  0  0  0
    3.6961   -1.3048    0.1579 H   0  0  0  0  0  0  0  0  0  0  0  0
    2.7207    0.1686    0.2999 H   0  0  0  0  0  0  0  0  0  0  0  0
    1.5887   -2.9275   -0.7343 C   0  0  0  0  0  0  0  0  0  0  0  0
    0.9644   -3.3052   -1.5499 H   0  0  0  0  0  0  0  0  0  0  0  0
    2.5539   -3.4417   -0.7759 H   0  0  0  0  0  0  0  0  0  0  0  0
    1.1082   -3.1772    0.2154 H   0  0  0  0  0  0  0  0  0  0  0  0
   -0.5249    1.0080    0.6868 C   0  0  0  0  0  0  0  0  0  0  0  0
   -1.3874    1.6552    0.1035 O   0  0  0  0  0  0  0  0  0  0  0  0
    0.2579    1.6217    1.6470 N   0  0  0  0  0  0  0  0  0  0  0  0
    0.9285    1.0440    2.1459 H   0  0  0  0  0  0  0  0  0  0  0  0
    0.1198    3.0245    2.0169 C   0  0  0  0  0  0  0  0  0  0  0  0
   -0.8823    3.2195    2.4130 H   0  0  0  0  0  0  0  0  0  0  0  0
    0.8530    3.2866    2.7857 H   0  0  0  0  0  0  0  0  0  0  0  0
    0.2867    3.6683    1.1469 H   0  0  0  0  0  0  0  0  0  0  0  0
  1  2  1  0  0  0  0
  2  3  1  0  0  0  0
  2  4  1  0  0  0  0
  2  5  1  0  0  0  0
  5  6  2  0  0  0  0
  5  7  1  0  0  0  0
  7  8  1  0  0  0  0
  7  9  1  0  0  0  0
  9 10  1  0  0  0  0
  9 11  1  0  0  0  0
  9 24  1  0  0  0  0
 11 12  1  0  0  0  0
 11 13  1  0  0  0  0
 11 14  1  0  0  0  0
 14 15  1  0  0  0  0
 14 16  1  0  0  0  0
 14 20  1  0  0  0  0
 16 17  1  0  0  0  0
 16 18  1  0  0  0  0
 16 19  1  0  0  0  0
 20 21  1  0  0  0  0
 20 22  1  0  0  0  0
 20 23  1  0  0  0  0
 24 25  2  0  0  0  0
 24 26  1  0  0  0  0
 26 27  1  0  0  0  0
 26 28  1  0  0  0  0
 28 29  1  0  0  0  0
 28 30  1  0  0  0  0
 28 31  1  0  0  0  0
M  END
$$$$

  -OEChem-03222214063D

 31 30  0     1  0  0  0  0  0999 V2000
   -3.4701   -3.8699    1.2246 H   0  0  0  0  0  0  0  0  0  0  0  0
   -3.3874   -2.9079    0.7111 C   0  0  0  0  0  0  0  0  0  0  0  0
   -4.0978   -2.2081    1.1577 H   0  0  0  0  0  0  0  0  0  0  0  0
   -3.6379   -3.0486   -0.3430 H   0  0  0  0  0  0  0  0  0  0  0  0
   -1.9758   -2.3671    0.8390 C   0  0  0  0  0  0  0  0  0  0  0  0
   -1.1358   -3.0015    1.4576 O   0  0  0  0  0  0  0  0  0  0  0  0
   -1.6549   -1.1553    0.2631 N   0  0  0  0  0  0  0  0  0  0  0  0
   -2.4126   -0.6197   -0.1574 H   0  0  0  0  0  0  0  0  0  0  0  0
   -0.3499   -0.4870    0.3740 C   0  0  1  0  0  0  0  0  0  0  0  0
    0.1845   -0.9158    1.2219 H   0  0  0  0  0  0  0  0  0  0  0  0
    0.4361   -0.6909   -0.9498 C   0  0  0  0  0  0  0  0  0  0  0  0
   -0.2010   -1.2047   -1.6777 H   0  0  0  0  0  0  0  0  0  0  0  0
    0.6361    0.2970   -1.3790 H   0  0  0  0  0  0  0  0  0  0  0  0
    1.8021   -1.4242   -0.8681 C   0  0  0  0  0  0  0  0  0  0  0  0
    2.4282   -1.0413   -1.6814 H   0  0  0  0  0  0  0  0  0  0  0  0
    2.5720   -1.2418    0.4503 C   0  0  0  0  0  0  0  0  0  0  0  0
    2.1232   -1.8217    1.2629 H   0  0  0  0  0  0  0  0  0  0  0  0
    3.6039   -1.5858    0.3279 H   0  0  0  0  0  0  0  0  0  0  0  0
    2.5970   -0.1857    0.7354 H   0  0  0  0  0  0  0  0  0  0  0  0
    1.5965   -2.9272   -1.0967 C   0  0  0  0  0  0  0  0  0  0  0  0
    1.1304   -3.1079   -2.0703 H   0  0  0  0  0  0  0  0  0  0  0  0
    2.5569   -3.4518   -1.0767 H   0  0  0  0  0  0  0  0  0  0  0  0
    0.9534   -3.3523   -0.3199 H   0  0  0  0  0  0  0  0  0  0  0  0
   -0.5314    1.0125    0.6812 C   0  0  0  0  0  0  0  0  0  0  0  0
   -1.3971    1.6558    0.0983 O   0  0  0  0  0  0  0  0  0  0  0  0
    0.2395    1.6270    1.6503 N   0  0  0  0  0  0  0  0  0  0  0  0
    0.9108    1.0521    2.1515 H   0  0  0  0  0  0  0  0  0  0  0  0
    0.0864    3.0264    2.0275 C   0  0  0  0  0  0  0  0  0  0  0  0
   -0.9207    3.2109    2.4160 H   0  0  0  0  0  0  0  0  0  0  0  0
    0.8105    3.2900    2.8044 H   0  0  0  0  0  0  0  0  0  0  0  0
    0.2556    3.6763    1.1625 H   0  0  0  0  0  0  0  0  0  0  0  0
  1  2  1  0  0  0  0
  2  3  1  0  0  0  0
  2  4  1  0  0  0  0
  2  5  1  0  0  0  0
  5  6  2  0  0  0  0
  5  7  1  0  0  0  0
  7  8  1  0  0  0  0
  7  9  1  0  0  0  0
  9 10  1  0  0  0  0
  9 11  1  0  0  0  0
  9 24  1  0  0  0  0
 11 12  1  0  0  0  0
 11 13  1  0  0  0  0
 11 14  1  0  0  0  0
 14 15  1  0  0  0  0
 14 16  1  0  0  0  0
 14 20  1  0  0  0  0
 16 17  1  0  0  0  0
 16 18  1  0  0  0  0
 16 19  1  0  0  0  0
 20 21  1  0  0  0  0
 20 22  1  0  0  0  0
 20 23  1  0  0  0  0
 24 25  2  0  0  0  0
 24 26  1  0  0  0  0
 26 27  1  0  0  0  0
 26 28  1  0  0  0  0
 28 29  1  0  0  0  0
 28 30  1  0  0  0  0
 28 31  1  0  0  0  0
M  END
$$$$

  -OEChem-03222214063D

 31 30  0     1  0  0  0  0  0999 V2000
   -3.4811   -3.8556    1.2358 H   0  0  0  0  0  0  0  0  0  0  0  0
   -3.3979   -2.8943    0.7210 C   0  0  0  0  0  0  0  0  0  0  0  0
   -4.0967   -2.1890    1.1772 H   0  0  0  0  0  0  0  0  0  0  0  0
   -3.6647   -3.0328   -0.3295 H   0  0  0  0  0  0  0  0  0  0  0  0
   -1.9807   -2.3640    0.8299 C   0  0  0  0  0  0  0  0  0  0  0  0
   -1.1340   -3.0098    1.4276 O   0  0  0  0  0  0  0  0  0  0  0  0
   -1.6586   -1.1525    0.2541 N   0  0  0  0  0  0  0  0  0  0  0  0
   -2.4179   -0.6078   -0.1518 H   0  0  0  0  0  0  0  0  0  0  0  0
   -0.3536   -0.4869    0.3780 C   0  0  1  0  0  0  0  0  0  0  0  0
    0.1656   -0.9068    1.2385 H   0  0  0  0  0  0  0  0  0  0  0  0
    0.4429   -0.6973   -0.9401 C   0  0  0  0  0  0  0  0  0  0  0  0
   -0.1997   -1.2047   -1.6680 H   0  0  0  0  0  0  0  0  0  0  0  0
    0.6450    0.2897   -1.3705 H   0  0  0  0  0  0  0  0  0  0  0  0
    1.8117   -1.4357   -0.8662 C   0  0  0  0  0  0  0  0  0  0  0  0
    2.5190   -0.8798   -1.4913 H   0  0  0  0  0  0  0  0  0  0  0  0
    2.4379   -1.5818    0.5294 C   0  0  0  0  0  0  0  0  0  0  0  0
    1.8587   -2.2706    1.1534 H   0  0  0  0  0  0  0  0  0  0  0  0
    3.4538   -1.9801    0.4439 H   0  0  0  0  0  0  0  0  0  0  0  0
    2.4973   -0.6092    1.0270 H   0  0  0  0  0  0  0  0  0  0  0  0
    1.6626   -2.8435   -1.4591 C   0  0  0  0  0  0  0  0  0  0  0  0
    1.3222   -2.7883   -2.4978 H   0  0  0  0  0  0  0  0  0  0  0  0
    2.6221   -3.3700   -1.4438 H   0  0  0  0  0  0  0  0  0  0  0  0
    0.9359   -3.4275   -0.8842 H   0  0  0  0  0  0  0  0  0  0  0  0
   -0.5363    1.0133    0.6822 C   0  0  0  0  0  0  0  0  0  0  0  0
   -1.3984    1.6555    0.0927 O   0  0  0  0  0  0  0  0  0  0  0  0
    0.2244    1.6294    1.6587 N   0  0  0  0  0  0  0  0  0  0  0  0
    0.8926    1.0563    2.1663 H   0  0  0  0  0  0  0  0  0  0  0  0
    0.0669    3.0296    2.0320 C   0  0  0  0  0  0  0  0  0  0  0  0
   -0.9438    3.2138    2.4109 H   0  0  0  0  0  0  0  0  0  0  0  0
    0.7837    3.2955    2.8149 H   0  0  0  0  0  0  0  0  0  0  0  0
    0.2430    3.6785    1.1675 H   0  0  0  0  0  0  0  0  0  0  0  0
  1  2  1  0  0  0  0
  2  3  1  0  0  0  0
  2  4  1  0  0  0  0
  2  5  1  0  0  0  0
  5  6  2  0  0  0  0
  5  7  1  0  0  0  0
  7  8  1  0  0  0  0
  7  9  1  0  0  0  0
  9 10  1  0  0  0  0
  9 11  1  0  0  0  0
  9 24  1  0  0  0  0
 11 12  1  0  0  0  0
 11 13  1  0  0  0  0
 11 14  1  0  0  0  0
 14 15  1  0  0  0  0
 14 16  1  0  0  0  0
 14 20  1  0  0  0  0
 16 17  1  0  0  0  0
 16 18  1  0  0  0  0
 16 19  1  0  0  0  0
 20 21  1  0  0  0  0
 20 22  1  0  0  0  0
 20 23  1  0  0  0  0
 24 25  2  0  0  0  0
 24 26  1  0  0  0  0
 26 27  1  0  0  0  0
 26 28  1  0  0  0  0
 28 29  1  0  0  0  0
 28 30  1  0  0  0  0
 28 31  1  0  0  0  0
M  END
$$$$

  -OEChem-03222214063D

 31 30  0     1  0  0  0  0  0999 V2000
   -3.5146   -3.8442    1.2421 H   0  0  0  0  0  0  0  0  0  0  0  0
   -3.4204   -2.8849    0.7256 C   0  0  0  0  0  0  0  0  0  0  0  0
   -4.1195   -2.1741    1.1728 H   0  0  0  0  0  0  0  0  0  0  0  0
   -3.6773   -3.0254   -0.3271 H   0  0  0  0  0  0  0  0  0  0  0  0
   -2.0012   -2.3625    0.8472 C   0  0  0  0  0  0  0  0  0  0  0  0
   -1.1668   -3.0068    1.4630 O   0  0  0  0  0  0  0  0  0  0  0  0
   -1.6655   -1.1572    0.2665 N   0  0  0  0  0  0  0  0  0  0  0  0
   -2.4177   -0.6127   -0.1527 H   0  0  0  0  0  0  0  0  0  0  0  0
   -0.3569   -0.4975    0.3905 C   0  0  1  0  0  0  0  0  0  0  0  0
    0.1591   -0.9120    1.2557 H   0  0  0  0  0  0  0  0  0  0  0  0
    0.4447   -0.7068   -0.9260 C   0  0  0  0  0  0  0  0  0  0  0  0
   -0.2038   -1.2277   -1.6387 H   0  0  0  0  0  0  0  0  0  0  0  0
    0.6366    0.2746   -1.3738 H   0  0  0  0  0  0  0  0  0  0  0  0
    1.8145   -1.4491   -0.8605 C   0  0  0  0  0  0  0  0  0  0  0  0
    2.5770   -0.7554   -1.2310 H   0  0  0  0  0  0  0  0  0  0  0  0
    2.2812   -1.9275    0.5225 C   0  0  0  0  0  0  0  0  0  0  0  0
    1.5763   -2.6512    0.9441 H   0  0  0  0  0  0  0  0  0  0  0  0
    3.2593   -2.4125    0.4440 H   0  0  0  0  0  0  0  0  0  0  0  0
    2.3832   -1.0821    1.2093 H   0  0  0  0  0  0  0  0  0  0  0  0
    1.7885   -2.6608   -1.8018 C   0  0  0  0  0  0  0  0  0  0  0  0
    1.5502   -2.3470   -2.8229 H   0  0  0  0  0  0  0  0  0  0  0  0
    2.7642   -3.1564   -1.8174 H   0  0  0  0  0  0  0  0  0  0  0  0
    1.0359   -3.3855   -1.4737 H   0  0  0  0  0  0  0  0  0  0  0  0
   -0.5368    1.0053    0.6841 C   0  0  0  0  0  0  0  0  0  0  0  0
   -1.3955    1.6457    0.0876 O   0  0  0  0  0  0  0  0  0  0  0  0
    0.2218    1.6260    1.6595 N   0  0  0  0  0  0  0  0  0  0  0  0
    0.8888    1.0555    2.1716 H   0  0  0  0  0  0  0  0  0  0  0  0
    0.0652    3.0288    2.0235 C   0  0  0  0  0  0  0  0  0  0  0  0
   -0.9458    3.2164    2.3997 H   0  0  0  0  0  0  0  0  0  0  0  0
    0.7808    3.2989    2.8058 H   0  0  0  0  0  0  0  0  0  0  0  0
    0.2438    3.6724    1.1558 H   0  0  0  0  0  0  0  0  0  0  0  0
  1  2  1  0  0  0  0
  2  3  1  0  0  0  0
  2  4  1  0  0  0  0
  2  5  1  0  0  0  0
  5  6  2  0  0  0  0
  5  7  1  0  0  0  0
  7  8  1  0  0  0  0
  7  9  1  0  0  0  0
  9 10  1  0  0  0  0
  9 11  1  0  0  0  0
  9 24  1  0  0  0  0
 11 12  1  0  0  0  0
 11 13  1  0  0  0  0
 11 14  1  0  0  0  0
 14 15  1  0  0  0  0
 14 16  1  0  0  0  0
 14 20  1  0  0  0  0
 16 17  1  0  0  0  0
 16 18  1  0  0  0  0
 16 19  1  0  0  0  0
 20 21  1  0  0  0  0
 20 22  1  0  0  0  0
 20 23  1  0  0  0  0
 24 25  2  0  0  0  0
 24 26  1  0  0  0  0
 26 27  1  0  0  0  0
 26 28  1  0  0  0  0
 28 29  1  0  0  0  0
 28 30  1  0  0  0  0
 28 31  1  0  0  0  0
M  END
$$$$

  -OEChem-03222214063D

 31 30  0     1  0  0  0  0  0999 V2000
   -3.5378   -3.8466    1.2356 H   0  0  0  0  0  0  0  0  0  0  0  0
   -3.4342   -2.8879    0.7199 C   0  0  0  0  0  0  0  0  0  0  0  0
   -4.1442   -2.1775    1.1502 H   0  0  0  0  0  0  0  0  0  0  0  0
   -3.6667   -3.0312   -0.3381 H   0  0  0  0  0  0  0  0  0  0  0  0
   -2.0191   -2.3627    0.8713 C   0  0  0  0  0  0  0  0  0  0  0  0
   -1.2030   -2.9955    1.5217 O   0  0  0  0  0  0  0  0  0  0  0  0
   -1.6711   -1.1636    0.2854 N   0  0  0  0  0  0  0  0  0  0  0  0
   -2.4139   -0.6278   -0.1607 H   0  0  0  0  0  0  0  0  0  0  0  0
   -0.3578   -0.5103    0.4001 C   0  0  1  0  0  0  0  0  0  0  0  0
    0.1679   -0.9233    1.2605 H   0  0  0  0  0  0  0  0  0  0  0  0
    0.4403   -0.7141   -0.9196 C   0  0  0  0  0  0  0  0  0  0  0  0
   -0.2110   -1.2559   -1.6140 H   0  0  0  0  0  0  0  0  0  0  0  0
    0.6196    0.2609   -1.3861 H   0  0  0  0  0  0  0  0  0  0  0  0
    1.8072   -1.4584   -0.8596 C   0  0  0  0  0  0  0  0  0  0  0  0
    2.5903   -0.6973   -0.9442 H   0  0  0  0  0  0  0  0  0  0  0  0
    2.1119   -2.2504    0.4206 C   0  0  0  0  0  0  0  0  0  0  0  0
    1.3190   -2.9758    0.6246 H   0  0  0  0  0  0  0  0  0  0  0  0
    3.0542   -2.7967    0.3130 H   0  0  0  0  0  0  0  0  0  0  0  0
    2.2182   -1.5810    1.2790 H   0  0  0  0  0  0  0  0  0  0  0  0
    1.9363   -2.3959   -2.0674 C   0  0  0  0  0  0  0  0  0  0  0  0
    1.7870   -1.8410   -2.9990 H   0  0  0  0  0  0  0  0  0  0  0  0
    2.9320   -2.8493   -2.0961 H   0  0  0  0  0  0  0  0  0  0  0  0
    1.1919   -3.1970   -2.0141 H   0  0  0  0  0  0  0  0  0  0  0  0
   -0.5327    0.9944    0.6860 C   0  0  0  0  0  0  0  0  0  0  0  0
   -1.3872    1.6359    0.0846 O   0  0  0  0  0  0  0  0  0  0  0  0
    0.2316    1.6173    1.6551 N   0  0  0  0  0  0  0  0  0  0  0  0
    0.8938    1.0453    2.1717 H   0  0  0  0  0  0  0  0  0  0  0  0
    0.0841    3.0232    2.0103 C   0  0  0  0  0  0  0  0  0  0  0  0
   -0.9239    3.2186    2.3912 H   0  0  0  0  0  0  0  0  0  0  0  0
    0.8059    3.2946    2.7864 H   0  0  0  0  0  0  0  0  0  0  0  0
    0.2612    3.6596    1.1368 H   0  0  0  0  0  0  0  0  0  0  0  0
  1  2  1  0  0  0  0
  2  3  1  0  0  0  0
  2  4  1  0  0  0  0
  2  5  1  0  0  0  0
  5  6  2  0  0  0  0
  5  7  1  0  0  0  0
  7  8  1  0  0  0  0
  7  9  1  0  0  0  0
  9 10  1  0  0  0  0
  9 11  1  0  0  0  0
  9 24  1  0  0  0  0
 11 12  1  0  0  0  0
 11 13  1  0  0  0  0
 11 14  1  0  0  0  0
 14 15  1  0  0  0  0
 14 16  1  0  0  0  0
 14 20  1  0  0  0  0
 16 17  1  0  0  0  0
 16 18  1  0  0  0  0
 16 19  1  0  0  0  0
 20 21  1  0  0  0  0
 20 22  1  0  0  0  0
 20 23  1  0  0  0  0
 24 25  2  0  0  0  0
 24 26  1  0  0  0  0
 26 27  1  0  0  0  0
 26 28  1  0  0  0  0
 28 29  1  0  0  0  0
 28 30  1  0  0  0  0
 28 31  1  0  0  0  0
M  END
$$$$

  -OEChem-03222214063D

 31 30  0     1  0  0  0  0  0999 V2000
   -3.5325   -3.8546    1.2332 H   0  0  0  0  0  0  0  0  0  0  0  0
   -3.4275   -2.8954    0.7186 C   0  0  0  0  0  0  0  0  0  0  0  0
   -4.1418   -2.1867    1.1446 H   0  0  0  0  0  0  0  0  0  0  0  0
   -3.6535   -3.0381   -0.3407 H   0  0  0  0  0  0  0  0  0  0  0  0
   -2.0144   -2.3668    0.8790 C   0  0  0  0  0  0  0  0  0  0  0  0
   -1.2030   -2.9923    1.5425 O   0  0  0  0  0  0  0  0  0  0  0  0
   -1.6653   -1.1687    0.2916 N   0  0  0  0  0  0  0  0  0  0  0  0
   -2.4055   -0.6365   -0.1631 H   0  0  0  0  0  0  0  0  0  0  0  0
   -0.3486   -0.5208    0.3963 C   0  0  1  0  0  0  0  0  0  0  0  0
    0.1934   -0.9355    1.2462 H   0  0  0  0  0  0  0  0  0  0  0  0
    0.4383   -0.7116   -0.9305 C   0  0  0  0  0  0  0  0  0  0  0  0
   -0.2117   -1.2616   -1.6196 H   0  0  0  0  0  0  0  0  0  0  0  0
    0.6151    0.2638   -1.3974 H   0  0  0  0  0  0  0  0  0  0  0  0
    1.7979   -1.4595   -0.8682 C   0  0  0  0  0  0  0  0  0  0  0  0
    2.5720   -0.7103   -0.6706 H   0  0  0  0  0  0  0  0  0  0  0  0
    1.9322   -2.5270    0.2286 C   0  0  0  0  0  0  0  0  0  0  0  0
    1.0930   -3.2274    0.1853 H   0  0  0  0  0  0  0  0  0  0  0  0
    2.8580   -3.0948    0.0935 H   0  0  0  0  0  0  0  0  0  0  0  0
    1.9715   -2.0754    1.2232 H   0  0  0  0  0  0  0  0  0  0  0  0
    2.0935   -2.0906   -2.2346 C   0  0  0  0  0  0  0  0  0  0  0  0
    2.0383   -1.3345   -3.0243 H   0  0  0  0  0  0  0  0  0  0  0  0
    3.0982   -2.5245   -2.2467 H   0  0  0  0  0  0  0  0  0  0  0  0
    1.3709   -2.8822   -2.4577 H   0  0  0  0  0  0  0  0  0  0  0  0
   -0.5225    0.9838    0.6852 C   0  0  0  0  0  0  0  0  0  0  0  0
   -1.3773    1.6270    0.0859 O   0  0  0  0  0  0  0  0  0  0  0  0
    0.2478    1.6071    1.6494 N   0  0  0  0  0  0  0  0  0  0  0  0
    0.9095    1.0343    2.1656 H   0  0  0  0  0  0  0  0  0  0  0  0
    0.1031    3.0133    2.0046 C   0  0  0  0  0  0  0  0  0  0  0  0
   -0.9019    3.2096    2.3924 H   0  0  0  0  0  0  0  0  0  0  0  0
    0.8305    3.2855    2.7754 H   0  0  0  0  0  0  0  0  0  0  0  0
    0.2737    3.6491    1.1295 H   0  0  0  0  0  0  0  0  0  0  0  0
  1  2  1  0  0  0  0
  2  3  1  0  0  0  0
  2  4  1  0  0  0  0
  2  5  1  0  0  0  0
  5  6  2  0  0  0  0
  5  7  1  0  0  0  0
  7  8  1  0  0  0  0
  7  9  1  0  0  0  0
  9 10  1  0  0  0  0
  9 11  1  0  0  0  0
  9 24  1  0  0  0  0
 11 12  1  0  0  0  0
 11 13  1  0  0  0  0
 11 14  1  0  0  0  0
 14 15  1  0  0  0  0
 14 16  1  0  0  0  0
 14 20  1  0  0  0  0
 16 17  1  0  0  0  0
 16 18  1  0  0  0  0
 16 19  1  0  0  0  0
 20 21  1  0  0  0  0
 20 22  1  0  0  0  0
 20 23  1  0  0  0  0
 24 25  2  0  0  0  0
 24 26  1  0  0  0  0
 26 27  1  0  0  0  0
 26 28  1  0  0  0  0
 28 29  1  0  0  0  0
 28 30  1  0  0  0  0
 28 31  1  0  0  0  0
M  END
$$$$

  -OEChem-03222214063D

 31 30  0     1  0  0  0  0  0999 V2000
   -3.4967   -3.8692    1.2374 H   0  0  0  0  0  0  0  0  0  0  0  0
   -3.4015   -2.9092    0.7222 C   0  0  0  0  0  0  0  0  0  0  0  0
   -4.1094   -2.2019    1.1609 H   0  0  0  0  0  0  0  0  0  0  0  0
   -3.6447   -3.0506   -0.3336 H   0  0  0  0  0  0  0  0  0  0  0  0
   -1.9868   -2.3791    0.8602 C   0  0  0  0  0  0  0  0  0  0  0  0
   -1.1612   -3.0095    1.5012 O   0  0  0  0  0  0  0  0  0  0  0  0
   -1.6523   -1.1734    0.2802 N   0  0  0  0  0  0  0  0  0  0  0  0
   -2.4020   -0.6379   -0.1546 H   0  0  0  0  0  0  0  0  0  0  0  0
   -0.3373   -0.5214    0.3734 C   0  0  1  0  0  0  0  0  0  0  0  0
    0.2273   -0.9412    1.2077 H   0  0  0  0  0  0  0  0  0  0  0  0
    0.4315   -0.6978   -0.9628 C   0  0  0  0  0  0  0  0  0  0  0  0
   -0.2133   -1.2449   -1.6590 H   0  0  0  0  0  0  0  0  0  0  0  0
    0.6116    0.2832   -1.4166 H   0  0  0  0  0  0  0  0  0  0  0  0
    1.7849   -1.4443   -0.8806 C   0  0  0  0  0  0  0  0  0  0  0  0
    2.5167   -0.7664   -0.4287 H   0  0  0  0  0  0  0  0  0  0  0  0
    1.7594   -2.7244   -0.0300 C   0  0  0  0  0  0  0  0  0  0  0  0
    0.9309   -3.3704   -0.3371 H   0  0  0  0  0  0  0  0  0  0  0  0
    2.6933   -3.2812   -0.1544 H   0  0  0  0  0  0  0  0  0  0  0  0
    1.6548   -2.4997    1.0342 H   0  0  0  0  0  0  0  0  0  0  0  0
    2.2596   -1.7824   -2.2988 C   0  0  0  0  0  0  0  0  0  0  0  0
    2.3130   -0.8759   -2.9099 H   0  0  0  0  0  0  0  0  0  0  0  0
    3.2558   -2.2349   -2.2709 H   0  0  0  0  0  0  0  0  0  0  0  0
    1.5722   -2.4867   -2.7785 H   0  0  0  0  0  0  0  0  0  0  0  0
   -0.5148    0.9793    0.6807 C   0  0  0  0  0  0  0  0  0  0  0  0
   -1.3819    1.6246    0.1017 O   0  0  0  0  0  0  0  0  0  0  0  0
    0.2660    1.5958    1.6411 N   0  0  0  0  0  0  0  0  0  0  0  0
    0.9366    1.0201    2.1424 H   0  0  0  0  0  0  0  0  0  0  0  0
    0.1207    2.9974    2.0142 C   0  0  0  0  0  0  0  0  0  0  0  0
   -0.8814    3.1867    2.4131 H   0  0  0  0  0  0  0  0  0  0  0  0
    0.8542    3.2618    2.7820 H   0  0  0  0  0  0  0  0  0  0  0  0
    0.2826    3.6438    1.1453 H   0  0  0  0  0  0  0  0  0  0  0  0
  1  2  1  0  0  0  0
  2  3  1  0  0  0  0
  2  4  1  0  0  0  0
  2  5  1  0  0  0  0
  5  6  2  0  0  0  0
  5  7  1  0  0  0  0
  7  8  1  0  0  0  0
  7  9  1  0  0  0  0
  9 10  1  0  0  0  0
  9 11  1  0  0  0  0
  9 24  1  0  0  0  0
 11 12  1  0  0  0  0
 11 13  1  0  0  0  0
 11 14  1  0  0  0  0
 14 15  1  0  0  0  0
 14 16  1  0  0  0  0
 14 20  1  0  0  0  0
 16 17  1  0  0  0  0
 16 18  1  0  0  0  0
 16 19  1  0  0  0  0
 20 21  1  0  0  0  0
 20 22  1  0  0  0  0
 20 23  1  0  0  0  0
 24 25  2  0  0  0  0
 24 26  1  0  0  0  0
 26 27  1  0  0  0  0
 26 28  1  0  0  0  0
 28 29  1  0  0  0  0
 28 30  1  0  0  0  0
 28 31  1  0  0  0  0
M  END
$$$$

  -OEChem-03222214063D

 31 30  0     1  0  0  0  0  0999 V2000
   -3.4579   -3.9002    1.2139 H   0  0  0  0  0  0  0  0  0  0  0  0
   -3.3707   -2.9365    0.7041 C   0  0  0  0  0  0  0  0  0  0  0  0
   -4.0870   -2.2386    1.1446 H   0  0  0  0  0  0  0  0  0  0  0  0
   -3.6095   -3.0748   -0.3532 H   0  0  0  0  0  0  0  0  0  0  0  0
   -1.9616   -2.3936    0.8496 C   0  0  0  0  0  0  0  0  0  0  0  0
   -1.1339   -3.0200    1.4908 O   0  0  0  0  0  0  0  0  0  0  0  0
   -1.6382   -1.1799    0.2801 N   0  0  0  0  0  0  0  0  0  0  0  0
   -2.3938   -0.6518   -0.1532 H   0  0  0  0  0  0  0  0  0  0  0  0
   -0.3273   -0.5167    0.3588 C   0  0  1  0  0  0  0  0  0  0  0  0
    0.2611   -0.9504    1.1724 H   0  0  0  0  0  0  0  0  0  0  0  0
    0.4190   -0.6812   -0.9892 C   0  0  0  0  0  0  0  0  0  0  0  0
   -0.2208   -1.2252   -1.6925 H   0  0  0  0  0  0  0  0  0  0  0  0
    0.5967    0.3062   -1.4300 H   0  0  0  0  0  0  0  0  0  0  0  0
    1.7704   -1.4193   -0.8859 C   0  0  0  0  0  0  0  0  0  0  0  0
    2.4315   -0.8544   -0.2200 H   0  0  0  0  0  0  0  0  0  0  0  0
    1.6317   -2.8453   -0.3349 C   0  0  0  0  0  0  0  0  0  0  0  0
    0.8511   -3.3925   -0.8728 H   0  0  0  0  0  0  0  0  0  0  0  0
    2.5745   -3.3901   -0.4435 H   0  0  0  0  0  0  0  0  0  0  0  0
    1.3804   -2.8316    0.7284 H   0  0  0  0  0  0  0  0  0  0  0  0
    2.4180   -1.4746   -2.2747 C   0  0  0  0  0  0  0  0  0  0  0  0
    2.5532   -0.4647   -2.6746 H   0  0  0  0  0  0  0  0  0  0  0  0
    3.4004   -1.9537   -2.2195 H   0  0  0  0  0  0  0  0  0  0  0  0
    1.7927   -2.0438   -2.9700 H   0  0  0  0  0  0  0  0  0  0  0  0
   -0.5065    0.9796    0.6842 C   0  0  0  0  0  0  0  0  0  0  0  0
   -1.3825    1.6272    0.1214 O   0  0  0  0  0  0  0  0  0  0  0  0
    0.2875    1.5901    1.6372 N   0  0  0  0  0  0  0  0  0  0  0  0
    0.9647    1.0115    2.1263 H   0  0  0  0  0  0  0  0  0  0  0  0
    0.1417    2.9879    2.0234 C   0  0  0  0  0  0  0  0  0  0  0  0
   -0.8586    3.1707    2.4298 H   0  0  0  0  0  0  0  0  0  0  0  0
    0.8795    3.2480    2.7886 H   0  0  0  0  0  0  0  0  0  0  0  0
    0.2958    3.6422    1.1589 H   0  0  0  0  0  0  0  0  0  0  0  0
  1  2  1  0  0  0  0
  2  3  1  0  0  0  0
  2  4  1  0  0  0  0
  2  5  1  0  0  0  0
  5  6  2  0  0  0  0
  5  7  1  0  0  0  0
  7  8  1  0  0  0  0
  7  9  1  0  0  0  0
  9 10  1  0  0  0  0
  9 11  1  0  0  0  0
  9 24  1  0  0  0  0
 11 12  1  0  0  0  0
 11 13  1  0  0  0  0
 11 14  1  0  0  0  0
 14 15  1  0  0  0  0
 14 16  1  0  0  0  0
 14 20  1  0  0  0  0
 16 17  1  0  0  0  0
 16 18  1  0  0  0  0
 16 19  1  0  0  0  0
 20 21  1  0  0  0  0
 20 22  1  0  0  0  0
 20 23  1  0  0  0  0
 24 25  2  0  0  0  0
 24 26  1  0  0  0  0
 26 27  1  0  0  0  0
 26 28  1  0  0  0  0
 28 29  1  0  0  0  0
 28 30  1  0  0  0  0
 28 31  1  0  0  0  0
M  END
$$$$

  -OEChem-03222214063D

 31 30  0     1  0  0  0  0  0999 V2000
   -3.4311   -3.9232    1.1989 H   0  0  0  0  0  0  0  0  0  0  0  0
   -3.3497   -2.9568    0.6935 C   0  0  0  0  0  0  0  0  0  0  0  0
   -4.0775   -2.2684    1.1297 H   0  0  0  0  0  0  0  0  0  0  0  0
   -3.5773   -3.0938   -0.3663 H   0  0  0  0  0  0  0  0  0  0  0  0
   -1.9482   -2.3987    0.8538 C   0  0  0  0  0  0  0  0  0  0  0  0
   -1.1237   -3.0108    1.5128 O   0  0  0  0  0  0  0  0  0  0  0  0
   -1.6325   -1.1820    0.2863 N   0  0  0  0  0  0  0  0  0  0  0  0
   -2.3876   -0.6671   -0.1630 H   0  0  0  0  0  0  0  0  0  0  0  0
   -0.3239   -0.5134    0.3537 C   0  0  1  0  0  0  0  0  0  0  0  0
    0.2765   -0.9577    1.1540 H   0  0  0  0  0  0  0  0  0  0  0  0
    0.4086   -0.6685   -1.0027 C   0  0  0  0  0  0  0  0  0  0  0  0
   -0.2297   -1.2004   -1.7164 H   0  0  0  0  0  0  0  0  0  0  0  0
    0.5851    0.3258   -1.4284 H   0  0  0  0  0  0  0  0  0  0  0  0
    1.7605   -1.4027   -0.8881 C   0  0  0  0  0  0  0  0  0  0  0  0
    2.3284   -0.9946   -0.0454 H   0  0  0  0  0  0  0  0  0  0  0  0
    1.5744   -2.9115   -0.6863 C   0  0  0  0  0  0  0  0  0  0  0  0
    0.9307   -3.3326   -1.4650 H   0  0  0  0  0  0  0  0  0  0  0  0
    2.5407   -3.4242   -0.7200 H   0  0  0  0  0  0  0  0  0  0  0  0
    1.1240   -3.1152    0.2875 H   0  0  0  0  0  0  0  0  0  0  0  0
    2.5715   -1.1731   -2.1694 C   0  0  0  0  0  0  0  0  0  0  0  0
    2.7573   -0.1049   -2.3191 H   0  0  0  0  0  0  0  0  0  0  0  0
    3.5390   -1.6809   -2.1060 H   0  0  0  0  0  0  0  0  0  0  0  0
    2.0333   -1.5584   -3.0414 H   0  0  0  0  0  0  0  0  0  0  0  0
   -0.5042    0.9815    0.6868 C   0  0  0  0  0  0  0  0  0  0  0  0
   -1.3840    1.6306    0.1319 O   0  0  0  0  0  0  0  0  0  0  0  0
    0.2986    1.5902    1.6338 N   0  0  0  0  0  0  0  0  0  0  0  0
    0.9786    1.0100    2.1170 H   0  0  0  0  0  0  0  0  0  0  0  0
    0.1536    2.9858    2.0289 C   0  0  0  0  0  0  0  0  0  0  0  0
   -0.8464    3.1665    2.4369 H   0  0  0  0  0  0  0  0  0  0  0  0
    0.8914    3.2401    2.7958 H   0  0  0  0  0  0  0  0  0  0  0  0
    0.3083    3.6456    1.1688 H   0  0  0  0  0  0  0  0  0  0  0  0
  1  2  1  0  0  0  0
  2  3  1  0  0  0  0
  2  4  1  0  0  0  0
  2  5  1  0  0  0  0
  5  6  2  0  0  0  0
  5  7  1  0  0  0  0
  7  8  1  0  0  0  0
  7  9  1  0  0  0  0
  9 10  1  0  0  0  0
  9 11  1  0  0  0  0
  9 24  1  0  0  0  0
 11 12  1  0  0  0  0
 11 13  1  0  0  0  0
 11 14  1  0  0  0  0
 14 15  1  0  0  0  0
 14 16  1  0  0  0  0
 14 20  1  0  0  0  0
 16 17  1  0  0  0  0
 16 18  1  0  0  0  0
 16 19  1  0  0  0  0
 20 21  1  0  0  0  0
 20 22  1  0  0  0  0
 20 23  1  0  0  0  0
 24 25  2  0  0  0  0
 24 26  1  0  0  0  0
 26 27  1  0  0  0  0
 26 28  1  0  0  0  0
 28 29  1  0  0  0  0
 28 30  1  0  0  0  0
 28 31  1  0  0  0  0
M  END
$$$$

  -OEChem-03222214063D

 31 30  0     1  0  0  0  0  0999 V2000
   -3.4001   -3.9292    1.2182 H   0  0  0  0  0  0  0  0  0  0  0  0
   -3.3342   -2.9639    0.7084 C   0  0  0  0  0  0  0  0  0  0  0  0
   -4.0521   -2.2761    1.1615 H   0  0  0  0  0  0  0  0  0  0  0  0
   -3.5896   -3.1040   -0.3447 H   0  0  0  0  0  0  0  0  0  0  0  0
   -1.9301   -2.4027    0.8307 C   0  0  0  0  0  0  0  0  0  0  0  0
   -1.0788   -3.0251    1.4455 O   0  0  0  0  0  0  0  0  0  0  0  0
   -1.6336   -1.1786    0.2684 N   0  0  0  0  0  0  0  0  0  0  0  0
   -2.4020   -0.6531   -0.1451 H   0  0  0  0  0  0  0  0  0  0  0  0
   -0.3284   -0.5050    0.3369 C   0  0  1  0  0  0  0  0  0  0  0  0
    0.2687   -0.9516    1.1382 H   0  0  0  0  0  0  0  0  0  0  0  0
    0.4030   -0.6610   -1.0191 C   0  0  0  0  0  0  0  0  0  0  0  0
   -0.2334   -1.1894   -1.7372 H   0  0  0  0  0  0  0  0  0  0  0  0
    0.5764    0.3351   -1.4415 H   0  0  0  0  0  0  0  0  0  0  0  0
    1.7566   -1.3942   -0.8888 C   0  0  0  0  0  0  0  0  0  0  0  0
    2.2088   -1.1842    0.0861 H   0  0  0  0  0  0  0  0  0  0  0  0
    1.5745   -2.9081   -1.0509 C   0  0  0  0  0  0  0  0  0  0  0  0
    1.1489   -3.1472   -2.0306 H   0  0  0  0  0  0  0  0  0  0  0  0
    2.5377   -3.4194   -0.9576 H   0  0  0  0  0  0  0  0  0  0  0  0
    0.9068   -3.2980   -0.2783 H   0  0  0  0  0  0  0  0  0  0  0  0
    2.7205   -0.8991   -1.9743 C   0  0  0  0  0  0  0  0  0  0  0  0
    2.9133    0.1717   -1.8557 H   0  0  0  0  0  0  0  0  0  0  0  0
    3.6770   -1.4269   -1.9058 H   0  0  0  0  0  0  0  0  0  0  0  0
    2.3001   -1.0687   -2.9709 H   0  0  0  0  0  0  0  0  0  0  0  0
   -0.5092    0.9869    0.6826 C   0  0  0  0  0  0  0  0  0  0  0  0
   -1.3981    1.6363    0.1427 O   0  0  0  0  0  0  0  0  0  0  0  0
    0.2963    1.5899    1.6309 N   0  0  0  0  0  0  0  0  0  0  0  0
    0.9866    1.0101    2.0998 H   0  0  0  0  0  0  0  0  0  0  0  0
    0.1506    2.9825    2.0362 C   0  0  0  0  0  0  0  0  0  0  0  0
   -0.8481    3.1591    2.4492 H   0  0  0  0  0  0  0  0  0  0  0  0
    0.8909    3.2331    2.8021 H   0  0  0  0  0  0  0  0  0  0  0  0
    0.3010    3.6477    1.1796 H   0  0  0  0  0  0  0  0  0  0  0  0
  1  2  1  0  0  0  0
  2  3  1  0  0  0  0
  2  4  1  0  0  0  0
  2  5  1  0  0  0  0
  5  6  2  0  0  0  0
  5  7  1  0  0  0  0
  7  8  1  0  0  0  0
  7  9  1  0  0  0  0
  9 10  1  0  0  0  0
  9 11  1  0  0  0  0
  9 24  1  0  0  0  0
 11 12  1  0  0  0  0
 11 13  1  0  0  0  0
 11 14  1  0  0  0  0
 14 15  1  0  0  0  0
 14 16  1  0  0  0  0
 14 20  1  0  0  0  0
 16 17  1  0  0  0  0
 16 18  1  0  0  0  0
 16 19  1  0  0  0  0
 20 21  1  0  0  0  0
 20 22  1  0  0  0  0
 20 23  1  0  0  0  0
 24 25  2  0  0  0  0
 24 26  1  0  0  0  0
 26 27  1  0  0  0  0
 26 28  1  0  0  0  0
 28 29  1  0  0  0  0
 28 30  1  0  0  0  0
 28 31  1  0  0  0  0
M  END
$$$$

  -OEChem-03222214063D

 31 30  0     1  0  0  0  0  0999 V2000
   -3.3900   -3.9179    1.2436 H   0  0  0  0  0  0  0  0  0  0  0  0
   -3.3338   -2.9536    0.7307 C   0  0  0  0  0  0  0  0  0  0  0  0
   -4.0250   -2.2577    1.2125 H   0  0  0  0  0  0  0  0  0  0  0  0
   -3.6326   -3.0908   -0.3114 H   0  0  0  0  0  0  0  0  0  0  0  0
   -1.9199   -2.4074    0.7950 C   0  0  0  0  0  0  0  0  0  0  0  0
   -1.0404   -3.0552    1.3407 O   0  0  0  0  0  0  0  0  0  0  0  0
   -1.6383   -1.1767    0.2396 N   0  0  0  0  0  0  0  0  0  0  0  0
   -2.4210   -0.6336   -0.1213 H   0  0  0  0  0  0  0  0  0  0  0  0
   -0.3369   -0.4979    0.3171 C   0  0  1  0  0  0  0  0  0  0  0  0
    0.2482   -0.9426    1.1274 H   0  0  0  0  0  0  0  0  0  0  0  0
    0.4025   -0.6620   -1.0328 C   0  0  0  0  0  0  0  0  0  0  0  0
   -0.2325   -1.1962   -1.7480 H   0  0  0  0  0  0  0  0  0  0  0  0
    0.5685    0.3311   -1.4649 H   0  0  0  0  0  0  0  0  0  0  0  0
    1.7602   -1.3935   -0.8897 C   0  0  0  0  0  0  0  0  0  0  0  0
    2.0822   -1.4154    0.1560 H   0  0  0  0  0  0  0  0  0  0  0  0
    1.6461   -2.8337   -1.4040 C   0  0  0  0  0  0  0  0  0  0  0  0
    1.3772   -2.8496   -2.4651 H   0  0  0  0  0  0  0  0  0  0  0  0
    2.5975   -3.3601   -1.2790 H   0  0  0  0  0  0  0  0  0  0  0  0
    0.8791   -3.3762   -0.8419 H   0  0  0  0  0  0  0  0  0  0  0  0
    2.8418   -0.6637   -1.6962 C   0  0  0  0  0  0  0  0  0  0  0  0
    2.9768    0.3546   -1.3183 H   0  0  0  0  0  0  0  0  0  0  0  0
    3.7990   -1.1881   -1.6138 H   0  0  0  0  0  0  0  0  0  0  0  0
    2.5654   -0.6093   -2.7542 H   0  0  0  0  0  0  0  0  0  0  0  0
   -0.5178    0.9911    0.6726 C   0  0  0  0  0  0  0  0  0  0  0  0
   -1.4128    1.6407    0.1436 O   0  0  0  0  0  0  0  0  0  0  0  0
    0.2857    1.5882    1.6265 N   0  0  0  0  0  0  0  0  0  0  0  0
    0.9858    1.0093    2.0819 H   0  0  0  0  0  0  0  0  0  0  0  0
    0.1395    2.9781    2.0410 C   0  0  0  0  0  0  0  0  0  0  0  0
   -0.8573    3.1504    2.4601 H   0  0  0  0  0  0  0  0  0  0  0  0
    0.8831    3.2254    2.8047 H   0  0  0  0  0  0  0  0  0  0  0  0
    0.2843    3.6491    1.1879 H   0  0  0  0  0  0  0  0  0  0  0  0
  1  2  1  0  0  0  0
  2  3  1  0  0  0  0
  2  4  1  0  0  0  0
  2  5  1  0  0  0  0
  5  6  2  0  0  0  0
  5  7  1  0  0  0  0
  7  8  1  0  0  0  0
  7  9  1  0  0  0  0
  9 10  1  0  0  0  0
  9 11  1  0  0  0  0
  9 24  1  0  0  0  0
 11 12  1  0  0  0  0
 11 13  1  0  0  0  0
 11 14  1  0  0  0  0
 14 15  1  0  0  0  0
 14 16  1  0  0  0  0
 14 20  1  0  0  0  0
 16 17  1  0  0  0  0
 16 18  1  0  0  0  0
 16 19  1  0  0  0  0
 20 21  1  0  0  0  0
 20 22  1  0  0  0  0
 20 23  1  0  0  0  0
 24 25  2  0  0  0  0
 24 26  1  0  0  0  0
 26 27  1  0  0  0  0
 26 28  1  0  0  0  0
 28 29  1  0  0  0  0
 28 30  1  0  0  0  0
 28 31  1  0  0  0  0
M  END
$$$$

  -OEChem-03222214063D

 31 30  0     1  0  0  0  0  0999 V2000
   -3.3911   -3.9128    1.2558 H   0  0  0  0  0  0  0  0  0  0  0  0
   -3.3376   -2.9499    0.7400 C   0  0  0  0  0  0  0  0  0  0  0  0
   -4.0245   -2.2519    1.2247 H   0  0  0  0  0  0  0  0  0  0  0  0
   -3.6439   -3.0894   -0.2996 H   0  0  0  0  0  0  0  0  0  0  0  0
   -1.9226   -2.4058    0.7926 C   0  0  0  0  0  0  0  0  0  0  0  0
   -1.0375   -3.0579    1.3241 O   0  0  0  0  0  0  0  0  0  0  0  0
   -1.6435   -1.1758    0.2346 N   0  0  0  0  0  0  0  0  0  0  0  0
   -2.4283   -0.6290   -0.1158 H   0  0  0  0  0  0  0  0  0  0  0  0
   -0.3415   -0.4987    0.3116 C   0  0  1  0  0  0  0  0  0  0  0  0
    0.2406   -0.9392    1.1258 H   0  0  0  0  0  0  0  0  0  0  0  0
    0.3999   -0.6630   -1.0373 C   0  0  0  0  0  0  0  0  0  0  0  0
   -0.2411   -1.2110   -1.7365 H   0  0  0  0  0  0  0  0  0  0  0  0
    0.5558    0.3229   -1.4894 H   0  0  0  0  0  0  0  0  0  0  0  0
    1.7592   -1.3961   -0.8996 C   0  0  0  0  0  0  0  0  0  0  0  0
    1.9392   -1.6854    0.1403 H   0  0  0  0  0  0  0  0  0  0  0  0
    1.7636   -2.6778   -1.7404 C   0  0  0  0  0  0  0  0  0  0  0  0
    1.6069   -2.4486   -2.7993 H   0  0  0  0  0  0  0  0  0  0  0  0
    2.7198   -3.1999   -1.6360 H   0  0  0  0  0  0  0  0  0  0  0  0
    0.9674   -3.3509   -1.4061 H   0  0  0  0  0  0  0  0  0  0  0  0
    2.9093   -0.4834   -1.3401 C   0  0  0  0  0  0  0  0  0  0  0  0
    2.9326    0.4221   -0.7256 H   0  0  0  0  0  0  0  0  0  0  0  0
    3.8686   -0.9985   -1.2285 H   0  0  0  0  0  0  0  0  0  0  0  0
    2.7920   -0.1914   -2.3887 H   0  0  0  0  0  0  0  0  0  0  0  0
   -0.5194    0.9910    0.6651 C   0  0  0  0  0  0  0  0  0  0  0  0
   -1.4156    1.6408    0.1383 O   0  0  0  0  0  0  0  0  0  0  0  0
    0.2855    1.5873    1.6182 N   0  0  0  0  0  0  0  0  0  0  0  0
    0.9891    1.0090    2.0689 H   0  0  0  0  0  0  0  0  0  0  0  0
    0.1433    2.9780    2.0309 C   0  0  0  0  0  0  0  0  0  0  0  0
   -0.8525    3.1537    2.4511 H   0  0  0  0  0  0  0  0  0  0  0  0
    0.8887    3.2235    2.7934 H   0  0  0  0  0  0  0  0  0  0  0  0
    0.2890    3.6478    1.1769 H   0  0  0  0  0  0  0  0  0  0  0  0
  1  2  1  0  0  0  0
  2  3  1  0  0  0  0
  2  4  1  0  0  0  0
  2  5  1  0  0  0  0
  5  6  2  0  0  0  0
  5  7  1  0  0  0  0
  7  8  1  0  0  0  0
  7  9  1  0  0  0  0
  9 10  1  0  0  0  0
  9 11  1  0  0  0  0
  9 24  1  0  0  0  0
 11 12  1  0  0  0  0
 11 13  1  0  0  0  0
 11 14  1  0  0  0  0
 14 15  1  0  0  0  0
 14 16  1  0  0  0  0
 14 20  1  0  0  0  0
 16 17  1  0  0  0  0
 16 18  1  0  0  0  0
 16 19  1  0  0  0  0
 20 21  1  0  0  0  0
 20 22  1  0  0  0  0
 20 23  1  0  0  0  0
 24 25  2  0  0  0  0
 24 26  1  0  0  0  0
 26 27  1  0  0  0  0
 26 28  1  0  0  0  0
 28 29  1  0  0  0  0
 28 30  1  0  0  0  0
 28 31  1  0  0  0  0
M  END
$$$$

  -OEChem-03222214063D

 31 30  0     1  0  0  0  0  0999 V2000
   -3.3885   -3.9102    1.2670 H   0  0  0  0  0  0  0  0  0  0  0  0
   -3.3362   -2.9497    0.7468 C   0  0  0  0  0  0  0  0  0  0  0  0
   -4.0209   -2.2492    1.2308 H   0  0  0  0  0  0  0  0  0  0  0  0
   -3.6458   -3.0934   -0.2911 H   0  0  0  0  0  0  0  0  0  0  0  0
   -1.9209   -2.4061    0.7928 C   0  0  0  0  0  0  0  0  0  0  0  0
   -1.0343   -3.0561    1.3245 O   0  0  0  0  0  0  0  0  0  0  0  0
   -1.6441   -1.1763    0.2332 N   0  0  0  0  0  0  0  0  0  0  0  0
   -2.4303   -0.6292   -0.1139 H   0  0  0  0  0  0  0  0  0  0  0  0
   -0.3409   -0.5003    0.3032 C   0  0  1  0  0  0  0  0  0  0  0  0
    0.2496   -0.9395    1.1127 H   0  0  0  0  0  0  0  0  0  0  0  0
    0.3962   -0.6580   -1.0484 C   0  0  0  0  0  0  0  0  0  0  0  0
   -0.2471   -1.2217   -1.7330 H   0  0  0  0  0  0  0  0  0  0  0  0
    0.5466    0.3210   -1.5167 H   0  0  0  0  0  0  0  0  0  0  0  0
    1.7526   -1.3904   -0.9099 C   0  0  0  0  0  0  0  0  0  0  0  0
    1.7904   -1.9318    0.0413 H   0  0  0  0  0  0  0  0  0  0  0  0
    1.9127   -2.4423   -2.0130 C   0  0  0  0  0  0  0  0  0  0  0  0
    1.8756   -1.9737   -3.0016 H   0  0  0  0  0  0  0  0  0  0  0  0
    2.8711   -2.9604   -1.9089 H   0  0  0  0  0  0  0  0  0  0  0  0
    1.1130   -3.1872   -1.9482 H   0  0  0  0  0  0  0  0  0  0  0  0
    2.9130   -0.3900   -0.9411 C   0  0  0  0  0  0  0  0  0  0  0  0
    2.8025    0.3457   -0.1384 H   0  0  0  0  0  0  0  0  0  0  0  0
    3.8664   -0.9093   -0.8028 H   0  0  0  0  0  0  0  0  0  0  0  0
    2.9426    0.1400   -1.8985 H   0  0  0  0  0  0  0  0  0  0  0  0
   -0.5171    0.9889    0.6579 C   0  0  0  0  0  0  0  0  0  0  0  0
   -1.4148    1.6392    0.1343 O   0  0  0  0  0  0  0  0  0  0  0  0
    0.2928    1.5846    1.6070 N   0  0  0  0  0  0  0  0  0  0  0  0
    0.9953    1.0048    2.0575 H   0  0  0  0  0  0  0  0  0  0  0  0
    0.1542    2.9761    2.0182 C   0  0  0  0  0  0  0  0  0  0  0  0
   -0.8398    3.1535    2.4421 H   0  0  0  0  0  0  0  0  0  0  0  0
    0.9028    3.2227    2.7772 H   0  0  0  0  0  0  0  0  0  0  0  0
    0.2971    3.6440    1.1621 H   0  0  0  0  0  0  0  0  0  0  0  0
  1  2  1  0  0  0  0
  2  3  1  0  0  0  0
  2  4  1  0  0  0  0
  2  5  1  0  0  0  0
  5  6  2  0  0  0  0
  5  7  1  0  0  0  0
  7  8  1  0  0  0  0
  7  9  1  0  0  0  0
  9 10  1  0  0  0  0
  9 11  1  0  0  0  0
  9 24  1  0  0  0  0
 11 12  1  0  0  0  0
 11 13  1  0  0  0  0
 11 14  1  0  0  0  0
 14 15  1  0  0  0  0
 14 16  1  0  0  0  0
 14 20  1  0  0  0  0
 16 17  1  0  0  0  0
 16 18  1  0  0  0  0
 16 19  1  0  0  0  0
 20 21  1  0  0  0  0
 20 22  1  0  0  0  0
 20 23  1  0  0  0  0
 24 25  2  0  0  0  0
 24 26  1  0  0  0  0
 26 27  1  0  0  0  0
 26 28  1  0  0  0  0
 28 29  1  0  0  0  0
 28 30  1  0  0  0  0
 28 31  1  0  0  0  0
M  END
$$$$

  -OEChem-03222214063D

 31 30  0     1  0  0  0  0  0999 V2000
   -3.3802   -3.9083    1.2663 H   0  0  0  0  0  0  0  0  0  0  0  0
   -3.3297   -2.9478    0.7460 C   0  0  0  0  0  0  0  0  0  0  0  0
   -4.0125   -2.2471    1.2324 H   0  0  0  0  0  0  0  0  0  0  0  0
   -3.6431   -3.0913   -0.2909 H   0  0  0  0  0  0  0  0  0  0  0  0
   -1.9141   -2.4047    0.7873 C   0  0  0  0  0  0  0  0  0  0  0  0
   -1.0256   -3.0558    1.3144 O   0  0  0  0  0  0  0  0  0  0  0  0
   -1.6389   -1.1741    0.2294 N   0  0  0  0  0  0  0  0  0  0  0  0
   -2.4259   -0.6259   -0.1142 H   0  0  0  0  0  0  0  0  0  0  0  0
   -0.3359   -0.4981    0.2974 C   0  0  1  0  0  0  0  0  0  0  0  0
    0.2624   -0.9407    1.1000 H   0  0  0  0  0  0  0  0  0  0  0  0
    0.3971   -0.6522   -1.0557 C   0  0  0  0  0  0  0  0  0  0  0  0
   -0.2429   -1.2226   -1.7376 H   0  0  0  0  0  0  0  0  0  0  0  0
    0.5529    0.3249   -1.5264 H   0  0  0  0  0  0  0  0  0  0  0  0
    1.7474   -1.3840   -0.9069 C   0  0  0  0  0  0  0  0  0  0  0  0
    1.6710   -2.1254   -0.1036 H   0  0  0  0  0  0  0  0  0  0  0  0
    2.0807   -2.1562   -2.1877 C   0  0  0  0  0  0  0  0  0  0  0  0
    2.1511   -1.4741   -3.0410 H   0  0  0  0  0  0  0  0  0  0  0  0
    3.0363   -2.6783   -2.0790 H   0  0  0  0  0  0  0  0  0  0  0  0
    1.3069   -2.9012   -2.3986 H   0  0  0  0  0  0  0  0  0  0  0  0
    2.8671   -0.3965   -0.5602 C   0  0  0  0  0  0  0  0  0  0  0  0
    2.6398    0.1286    0.3721 H   0  0  0  0  0  0  0  0  0  0  0  0
    3.8151   -0.9279   -0.4318 H   0  0  0  0  0  0  0  0  0  0  0  0
    2.9899    0.3445   -1.3565 H   0  0  0  0  0  0  0  0  0  0  0  0
   -0.5150    0.9898    0.6556 C   0  0  0  0  0  0  0  0  0  0  0  0
   -1.4140    1.6396    0.1336 O   0  0  0  0  0  0  0  0  0  0  0  0
    0.2948    1.5861    1.6043 N   0  0  0  0  0  0  0  0  0  0  0  0
    0.9974    1.0067    2.0552 H   0  0  0  0  0  0  0  0  0  0  0  0
    0.1548    2.9771    2.0160 C   0  0  0  0  0  0  0  0  0  0  0  0
   -0.8387    3.1523    2.4421 H   0  0  0  0  0  0  0  0  0  0  0  0
    0.9047    3.2251    2.7733 H   0  0  0  0  0  0  0  0  0  0  0  0
    0.2945    3.6449    1.1594 H   0  0  0  0  0  0  0  0  0  0  0  0
  1  2  1  0  0  0  0
  2  3  1  0  0  0  0
  2  4  1  0  0  0  0
  2  5  1  0  0  0  0
  5  6  2  0  0  0  0
  5  7  1  0  0  0  0
  7  8  1  0  0  0  0
  7  9  1  0  0  0  0
  9 10  1  0  0  0  0
  9 11  1  0  0  0  0
  9 24  1  0  0  0  0
 11 12  1  0  0  0  0
 11 13  1  0  0  0  0
 11 14  1  0  0  0  0
 14 15  1  0  0  0  0
 14 16  1  0  0  0  0
 14 20  1  0  0  0  0
 16 17  1  0  0  0  0
 16 18  1  0  0  0  0
 16 19  1  0  0  0  0
 20 21  1  0  0  0  0
 20 22  1  0  0  0  0
 20 23  1  0  0  0  0
 24 25  2  0  0  0  0
 24 26  1  0  0  0  0
 26 27  1  0  0  0  0
 26 28  1  0  0  0  0
 28 29  1  0  0  0  0
 28 30  1  0  0  0  0
 28 31  1  0  0  0  0
M  END
$$$$

  -OEChem-03222214063D

 31 30  0     1  0  0  0  0  0999 V2000
   -3.3849   -3.9063    1.2549 H   0  0  0  0  0  0  0  0  0  0  0  0
   -3.3330   -2.9440    0.7379 C   0  0  0  0  0  0  0  0  0  0  0  0
   -4.0159   -2.2446    1.2263 H   0  0  0  0  0  0  0  0  0  0  0  0
   -3.6458   -3.0837   -0.2996 H   0  0  0  0  0  0  0  0  0  0  0  0
   -1.9165   -2.4026    0.7824 C   0  0  0  0  0  0  0  0  0  0  0  0
   -1.0299   -3.0562    1.3096 O   0  0  0  0  0  0  0  0  0  0  0  0
   -1.6379   -1.1717    0.2259 N   0  0  0  0  0  0  0  0  0  0  0  0
   -2.4234   -0.6237   -0.1215 H   0  0  0  0  0  0  0  0  0  0  0  0
   -0.3351   -0.4951    0.3010 C   0  0  1  0  0  0  0  0  0  0  0  0
    0.2576   -0.9436    1.1044 H   0  0  0  0  0  0  0  0  0  0  0  0
    0.4047   -0.6558   -1.0468 C   0  0  0  0  0  0  0  0  0  0  0  0
   -0.2274   -1.2269   -1.7354 H   0  0  0  0  0  0  0  0  0  0  0  0
    0.5697    0.3225   -1.5118 H   0  0  0  0  0  0  0  0  0  0  0  0
    1.7526   -1.3861   -0.8911 C   0  0  0  0  0  0  0  0  0  0  0  0
    1.6055   -2.2792   -0.2727 H   0  0  0  0  0  0  0  0  0  0  0  0
    2.2565   -1.8431   -2.2643 C   0  0  0  0  0  0  0  0  0  0  0  0
    2.4048   -0.9843   -2.9267 H   0  0  0  0  0  0  0  0  0  0  0  0
    3.2083   -2.3740   -2.1640 H   0  0  0  0  0  0  0  0  0  0  0  0
    1.5348   -2.5219   -2.7294 H   0  0  0  0  0  0  0  0  0  0  0  0
    2.8031   -0.4865   -0.2261 C   0  0  0  0  0  0  0  0  0  0  0  0
    2.4950   -0.2116    0.7862 H   0  0  0  0  0  0  0  0  0  0  0  0
    3.7614   -1.0106   -0.1570 H   0  0  0  0  0  0  0  0  0  0  0  0
    2.9500    0.4297   -0.8068 H   0  0  0  0  0  0  0  0  0  0  0  0
   -0.5159    0.9937    0.6580 C   0  0  0  0  0  0  0  0  0  0  0  0
   -1.4128    1.6427    0.1315 O   0  0  0  0  0  0  0  0  0  0  0  0
    0.2879    1.5918    1.6106 N   0  0  0  0  0  0  0  0  0  0  0  0
    0.9891    1.0135    2.0647 H   0  0  0  0  0  0  0  0  0  0  0  0
    0.1447    2.9829    2.0216 C   0  0  0  0  0  0  0  0  0  0  0  0
   -0.8500    3.1576    2.4450 H   0  0  0  0  0  0  0  0  0  0  0  0
    0.8922    3.2314    2.7810 H   0  0  0  0  0  0  0  0  0  0  0  0
    0.2861    3.6513    1.1658 H   0  0  0  0  0  0  0  0  0  0  0  0
  1  2  1  0  0  0  0
  2  3  1  0  0  0  0
  2  4  1  0  0  0  0
  2  5  1  0  0  0  0
  5  6  2  0  0  0  0
  5  7  1  0  0  0  0
  7  8  1  0  0  0  0
  7  9  1  0  0  0  0
  9 10  1  0  0  0  0
  9 11  1  0  0  0  0
  9 24  1  0  0  0  0
 11 12  1  0  0  0  0
 11 13  1  0  0  0  0
 11 14  1  0  0  0  0
 14 15  1  0  0  0  0
 14 16  1  0  0  0  0
 14 20  1  0  0  0  0
 16 17  1  0  0  0  0
 16 18  1  0  0  0  0
 16 19  1  0  0  0  0
 20 21  1  0  0  0  0
 20 22  1  0  0  0  0
 20 23  1  0  0  0  0
 24 25  2  0  0  0  0
 24 26  1  0  0  0  0
 26 27  1  0  0  0  0
 26 28  1  0  0  0  0
 28 29  1  0  0  0  0
 28 30  1  0  0  0  0
 28 31  1  0  0  0  0
M  END
$$$$

  -OEChem-03222214063D

 31 30  0     1  0  0  0  0  0999 V2000
   -3.4196   -3.8888    1.2372 H   0  0  0  0  0  0  0  0  0  0  0  0
   -3.3509   -2.9262    0.7230 C   0  0  0  0  0  0  0  0  0  0  0  0
   -4.0438   -2.2251    1.1943 H   0  0  0  0  0  0  0  0  0  0  0  0
   -3.6369   -3.0640   -0.3226 H   0  0  0  0  0  0  0  0  0  0  0  0
   -1.9342   -2.3896    0.8050 C   0  0  0  0  0  0  0  0  0  0  0  0
   -1.0690   -3.0366    1.3741 O   0  0  0  0  0  0  0  0  0  0  0  0
   -1.6323   -1.1696    0.2370 N   0  0  0  0  0  0  0  0  0  0  0  0
   -2.4037   -0.6238   -0.1437 H   0  0  0  0  0  0  0  0  0  0  0  0
   -0.3288   -0.4986    0.3389 C   0  0  1  0  0  0  0  0  0  0  0  0
    0.2366   -0.9303    1.1668 H   0  0  0  0  0  0  0  0  0  0  0  0
    0.4308   -0.6745   -0.9966 C   0  0  0  0  0  0  0  0  0  0  0  0
   -0.2759   -0.9606   -1.7831 H   0  0  0  0  0  0  0  0  0  0  0  0
    0.8579    0.2891   -1.2958 H   0  0  0  0  0  0  0  0  0  0  0  0
    1.5762   -1.7081   -0.9405 C   0  0  0  0  0  0  0  0  0  0  0  0
    1.1620   -2.6899   -0.6846 H   0  0  0  0  0  0  0  0  0  0  0  0
    2.2382   -1.7853   -2.3221 C   0  0  0  0  0  0  0  0  0  0  0  0
    2.6783   -0.8213   -2.5969 H   0  0  0  0  0  0  0  0  0  0  0  0
    3.0289   -2.5421   -2.3261 H   0  0  0  0  0  0  0  0  0  0  0  0
    1.5006   -2.0604   -3.0823 H   0  0  0  0  0  0  0  0  0  0  0  0
    2.6638   -1.3399    0.0842 C   0  0  0  0  0  0  0  0  0  0  0  0
    2.3016   -1.4533    1.1089 H   0  0  0  0  0  0  0  0  0  0  0  0
    3.5303   -1.9990   -0.0300 H   0  0  0  0  0  0  0  0  0  0  0  0
    2.9947   -0.3066   -0.0598 H   0  0  0  0  0  0  0  0  0  0  0  0
   -0.5200    0.9952    0.6661 C   0  0  0  0  0  0  0  0  0  0  0  0
   -1.3979    1.6371    0.1001 O   0  0  0  0  0  0  0  0  0  0  0  0
    0.2563    1.6062    1.6333 N   0  0  0  0  0  0  0  0  0  0  0  0
    0.9436    1.0342    2.1160 H   0  0  0  0  0  0  0  0  0  0  0  0
    0.1024    3.0032    2.0196 C   0  0  0  0  0  0  0  0  0  0  0  0
   -0.9018    3.1827    2.4175 H   0  0  0  0  0  0  0  0  0  0  0  0
    0.8325    3.2645    2.7916 H   0  0  0  0  0  0  0  0  0  0  0  0
    0.2621    3.6586    1.1570 H   0  0  0  0  0  0  0  0  0  0  0  0
  1  2  1  0  0  0  0
  2  3  1  0  0  0  0
  2  4  1  0  0  0  0
  2  5  1  0  0  0  0
  5  6  2  0  0  0  0
  5  7  1  0  0  0  0
  7  8  1  0  0  0  0
  7  9  1  0  0  0  0
  9 10  1  0  0  0  0
  9 11  1  0  0  0  0
  9 24  1  0  0  0  0
 11 12  1  0  0  0  0
 11 13  1  0  0  0  0
 11 14  1  0  0  0  0
 14 15  1  0  0  0  0
 14 16  1  0  0  0  0
 14 20  1  0  0  0  0
 16 17  1  0  0  0  0
 16 18  1  0  0  0  0
 16 19  1  0  0  0  0
 20 21  1  0  0  0  0
 20 22  1  0  0  0  0
 20 23  1  0  0  0  0
 24 25  2  0  0  0  0
 24 26  1  0  0  0  0
 26 27  1  0  0  0  0
 26 28  1  0  0  0  0
 28 29  1  0  0  0  0
 28 30  1  0  0  0  0
 28 31  1  0  0  0  0
M  END
$$$$

  -OEChem-03222214063D

 31 30  0     1  0  0  0  0  0999 V2000
   -3.4470   -3.8688    1.2395 H   0  0  0  0  0  0  0  0  0  0  0  0
   -3.3683   -2.9079    0.7237 C   0  0  0  0  0  0  0  0  0  0  0  0
   -4.0649   -2.2026    1.1834 H   0  0  0  0  0  0  0  0  0  0  0  0
   -3.6408   -3.0476   -0.3251 H   0  0  0  0  0  0  0  0  0  0  0  0
   -1.9513   -2.3757    0.8230 C   0  0  0  0  0  0  0  0  0  0  0  0
   -1.0975   -3.0196    1.4128 O   0  0  0  0  0  0  0  0  0  0  0  0
   -1.6355   -1.1638    0.2455 N   0  0  0  0  0  0  0  0  0  0  0  0
   -2.3980   -0.6195   -0.1547 H   0  0  0  0  0  0  0  0  0  0  0  0
   -0.3303   -0.4986    0.3608 C   0  0  1  0  0  0  0  0  0  0  0  0
    0.2175   -0.9147    1.2067 H   0  0  0  0  0  0  0  0  0  0  0  0
    0.4427   -0.6890   -0.9677 C   0  0  0  0  0  0  0  0  0  0  0  0
   -0.2566   -0.9554   -1.7675 H   0  0  0  0  0  0  0  0  0  0  0  0
    0.8769    0.2779   -1.2454 H   0  0  0  0  0  0  0  0  0  0  0  0
    1.5941   -1.7244   -0.9410 C   0  0  0  0  0  0  0  0  0  0  0  0
    1.1630   -2.7314   -0.9631 H   0  0  0  0  0  0  0  0  0  0  0  0
    2.4657   -1.5165   -2.1874 C   0  0  0  0  0  0  0  0  0  0  0  0
    2.9537   -0.5367   -2.1635 H   0  0  0  0  0  0  0  0  0  0  0  0
    3.2396   -2.2883   -2.2455 H   0  0  0  0  0  0  0  0  0  0  0  0
    1.8550   -1.5786   -3.0936 H   0  0  0  0  0  0  0  0  0  0  0  0
    2.5149   -1.6152    0.2871 C   0  0  0  0  0  0  0  0  0  0  0  0
    2.0287   -2.0189    1.1796 H   0  0  0  0  0  0  0  0  0  0  0  0
    3.4310   -2.1936    0.1308 H   0  0  0  0  0  0  0  0  0  0  0  0
    2.7919   -0.5725    0.4708 H   0  0  0  0  0  0  0  0  0  0  0  0
   -0.5262    0.9996    0.6678 C   0  0  0  0  0  0  0  0  0  0  0  0
   -1.3940    1.6358    0.0802 O   0  0  0  0  0  0  0  0  0  0  0  0
    0.2338    1.6214    1.6411 N   0  0  0  0  0  0  0  0  0  0  0  0
    0.9115    1.0544    2.1428 H   0  0  0  0  0  0  0  0  0  0  0  0
    0.0751    3.0232    2.0077 C   0  0  0  0  0  0  0  0  0  0  0  0
   -0.9339    3.2074    2.3913 H   0  0  0  0  0  0  0  0  0  0  0  0
    0.7956    3.2944    2.7852 H   0  0  0  0  0  0  0  0  0  0  0  0
    0.2458    3.6679    1.1390 H   0  0  0  0  0  0  0  0  0  0  0  0
  1  2  1  0  0  0  0
  2  3  1  0  0  0  0
  2  4  1  0  0  0  0
  2  5  1  0  0  0  0
  5  6  2  0  0  0  0
  5  7  1  0  0  0  0
  7  8  1  0  0  0  0
  7  9  1  0  0  0  0
  9 10  1  0  0  0  0
  9 11  1  0  0  0  0
  9 24  1  0  0  0  0
 11 12  1  0  0  0  0
 11 13  1  0  0  0  0
 11 14  1  0  0  0  0
 14 15  1  0  0  0  0
 14 16  1  0  0  0  0
 14 20  1  0  0  0  0
 16 17  1  0  0  0  0
 16 18  1  0  0  0  0
 16 19  1  0  0  0  0
 20 21  1  0  0  0  0
 20 22  1  0  0  0  0
 20 23  1  0  0  0  0
 24 25  2  0  0  0  0
 24 26  1  0  0  0  0
 26 27  1  0  0  0  0
 26 28  1  0  0  0  0
 28 29  1  0  0  0  0
 28 30  1  0  0  0  0
 28 31  1  0  0  0  0
M  END
$$$$

  -OEChem-03222214063D

 31 30  0     1  0  0  0  0  0999 V2000
   -3.4740   -3.8484    1.2431 H   0  0  0  0  0  0  0  0  0  0  0  0
   -3.3852   -2.8890    0.7256 C   0  0  0  0  0  0  0  0  0  0  0  0
   -4.0853   -2.1801    1.1742 H   0  0  0  0  0  0  0  0  0  0  0  0
   -3.6442   -3.0308   -0.3263 H   0  0  0  0  0  0  0  0  0  0  0  0
   -1.9678   -2.3614    0.8424 C   0  0  0  0  0  0  0  0  0  0  0  0
   -1.1284   -2.9999    1.4578 O   0  0  0  0  0  0  0  0  0  0  0  0
   -1.6376   -1.1569    0.2576 N   0  0  0  0  0  0  0  0  0  0  0  0
   -2.3915   -0.6142   -0.1608 H   0  0  0  0  0  0  0  0  0  0  0  0
   -0.3305   -0.4968    0.3814 C   0  0  1  0  0  0  0  0  0  0  0  0
    0.2065   -0.8992    1.2403 H   0  0  0  0  0  0  0  0  0  0  0  0
    0.4517   -0.6953   -0.9442 C   0  0  0  0  0  0  0  0  0  0  0  0
   -0.2456   -0.9477   -1.7500 H   0  0  0  0  0  0  0  0  0  0  0  0
    0.8827    0.2758   -1.2117 H   0  0  0  0  0  0  0  0  0  0  0  0
    1.6100   -1.7317   -0.9484 C   0  0  0  0  0  0  0  0  0  0  0  0
    1.2004   -2.7010   -1.2529 H   0  0  0  0  0  0  0  0  0  0  0  0
    2.6710   -1.2894   -1.9671 C   0  0  0  0  0  0  0  0  0  0  0  0
    3.1400   -0.3492   -1.6592 H   0  0  0  0  0  0  0  0  0  0  0  0
    3.4516   -2.0508   -2.0625 H   0  0  0  0  0  0  0  0  0  0  0  0
    2.2151   -1.1452   -2.9518 H   0  0  0  0  0  0  0  0  0  0  0  0
    2.3267   -1.9290    0.3977 C   0  0  0  0  0  0  0  0  0  0  0  0
    1.6841   -2.4642    1.1033 H   0  0  0  0  0  0  0  0  0  0  0  0
    3.2325   -2.5292    0.2651 H   0  0  0  0  0  0  0  0  0  0  0  0
    2.6121   -0.9651    0.8304 H   0  0  0  0  0  0  0  0  0  0  0  0
   -0.5300    1.0049    0.6717 C   0  0  0  0  0  0  0  0  0  0  0  0
   -1.3901    1.6358    0.0669 O   0  0  0  0  0  0  0  0  0  0  0  0
    0.2178    1.6366    1.6484 N   0  0  0  0  0  0  0  0  0  0  0  0
    0.8889    1.0746    2.1646 H   0  0  0  0  0  0  0  0  0  0  0  0
    0.0485    3.0397    2.0054 C   0  0  0  0  0  0  0  0  0  0  0  0
   -0.9662    3.2213    2.3750 H   0  0  0  0  0  0  0  0  0  0  0  0
    0.7578    3.3184    2.7906 H   0  0  0  0  0  0  0  0  0  0  0  0
    0.2273    3.6806    1.1356 H   0  0  0  0  0  0  0  0  0  0  0  0
  1  2  1  0  0  0  0
  2  3  1  0  0  0  0
  2  4  1  0  0  0  0
  2  5  1  0  0  0  0
  5  6  2  0  0  0  0
  5  7  1  0  0  0  0
  7  8  1  0  0  0  0
  7  9  1  0  0  0  0
  9 10  1  0  0  0  0
  9 11  1  0  0  0  0
  9 24  1  0  0  0  0
 11 12  1  0  0  0  0
 11 13  1  0  0  0  0
 11 14  1  0  0  0  0
 14 15  1  0  0  0  0
 14 16  1  0  0  0  0
 14 20  1  0  0  0  0
 16 17  1  0  0  0  0
 16 18  1  0  0  0  0
 16 19  1  0  0  0  0
 20 21  1  0  0  0  0
 20 22  1  0  0  0  0
 20 23  1  0  0  0  0
 24 25  2  0  0  0  0
 24 26  1  0  0  0  0
 26 27  1  0  0  0  0
 26 28  1  0  0  0  0
 28 29  1  0  0  0  0
 28 30  1  0  0  0  0
 28 31  1  0  0  0  0
M  END
$$$$

  -OEChem-03222214063D

 31 30  0     1  0  0  0  0  0999 V2000
   -3.5151   -3.8361    1.2308 H   0  0  0  0  0  0  0  0  0  0  0  0
   -3.4073   -2.8784    0.7140 C   0  0  0  0  0  0  0  0  0  0  0  0
   -4.1230   -2.1683    1.1351 H   0  0  0  0  0  0  0  0  0  0  0  0
   -3.6282   -3.0236   -0.3461 H   0  0  0  0  0  0  0  0  0  0  0  0
   -1.9949   -2.3506    0.8801 C   0  0  0  0  0  0  0  0  0  0  0  0
   -1.1909   -2.9713    1.5563 O   0  0  0  0  0  0  0  0  0  0  0  0
   -1.6402   -1.1563    0.2889 N   0  0  0  0  0  0  0  0  0  0  0  0
   -2.3768   -0.6277   -0.1758 H   0  0  0  0  0  0  0  0  0  0  0  0
   -0.3293   -0.5006    0.4108 C   0  0  1  0  0  0  0  0  0  0  0  0
    0.2103   -0.8956    1.2723 H   0  0  0  0  0  0  0  0  0  0  0  0
    0.4560   -0.6964   -0.9168 C   0  0  0  0  0  0  0  0  0  0  0  0
   -0.2485   -0.9495   -1.7163 H   0  0  0  0  0  0  0  0  0  0  0  0
    0.8729    0.2792   -1.1902 H   0  0  0  0  0  0  0  0  0  0  0  0
    1.6219   -1.7298   -0.9537 C   0  0  0  0  0  0  0  0  0  0  0  0
    1.2781   -2.5987   -1.5251 H   0  0  0  0  0  0  0  0  0  0  0  0
    2.8307   -1.1120   -1.6729 C   0  0  0  0  0  0  0  0  0  0  0  0
    3.2224   -0.2575   -1.1115 H   0  0  0  0  0  0  0  0  0  0  0  0
    3.6309   -1.8508   -1.7830 H   0  0  0  0  0  0  0  0  0  0  0  0
    2.5442   -0.7708   -2.6727 H   0  0  0  0  0  0  0  0  0  0  0  0
    2.1193   -2.2452    0.4056 C   0  0  0  0  0  0  0  0  0  0  0  0
    1.3354   -2.8103    0.9158 H   0  0  0  0  0  0  0  0  0  0  0  0
    2.9708   -2.9189    0.2676 H   0  0  0  0  0  0  0  0  0  0  0  0
    2.4384   -1.4163    1.0450 H   0  0  0  0  0  0  0  0  0  0  0  0
   -0.5326    1.0044    0.6826 C   0  0  0  0  0  0  0  0  0  0  0  0
   -1.3838    1.6305    0.0604 O   0  0  0  0  0  0  0  0  0  0  0  0
    0.2097    1.6465    1.6564 N   0  0  0  0  0  0  0  0  0  0  0  0
    0.8687    1.0867    2.1900 H   0  0  0  0  0  0  0  0  0  0  0  0
    0.0373    3.0528    1.9994 C   0  0  0  0  0  0  0  0  0  0  0  0
   -0.9793    3.2374    2.3620 H   0  0  0  0  0  0  0  0  0  0  0  0
    0.7424    3.3389    2.7857 H   0  0  0  0  0  0  0  0  0  0  0  0
    0.2202    3.6859    1.1249 H   0  0  0  0  0  0  0  0  0  0  0  0
  1  2  1  0  0  0  0
  2  3  1  0  0  0  0
  2  4  1  0  0  0  0
  2  5  1  0  0  0  0
  5  6  2  0  0  0  0
  5  7  1  0  0  0  0
  7  8  1  0  0  0  0
  7  9  1  0  0  0  0
  9 10  1  0  0  0  0
  9 11  1  0  0  0  0
  9 24  1  0  0  0  0
 11 12  1  0  0  0  0
 11 13  1  0  0  0  0
 11 14  1  0  0  0  0
 14 15  1  0  0  0  0
 14 16  1  0  0  0  0
 14 20  1  0  0  0  0
 16 17  1  0  0  0  0
 16 18  1  0  0  0  0
 16 19  1  0  0  0  0
 20 21  1  0  0  0  0
 20 22  1  0  0  0  0
 20 23  1  0  0  0  0
 24 25  2  0  0  0  0
 24 26  1  0  0  0  0
 26 27  1  0  0  0  0
 26 28  1  0  0  0  0
 28 29  1  0  0  0  0
 28 30  1  0  0  0  0
 28 31  1  0  0  0  0
M  END
$$$$

  -OEChem-03222214063D

 31 30  0     1  0  0  0  0  0999 V2000
   -3.5303   -3.8444    1.2167 H   0  0  0  0  0  0  0  0  0  0  0  0
   -3.4116   -2.8870    0.7017 C   0  0  0  0  0  0  0  0  0  0  0  0
   -4.1574   -2.1859    1.0840 H   0  0  0  0  0  0  0  0  0  0  0  0
   -3.5782   -3.0397   -0.3673 H   0  0  0  0  0  0  0  0  0  0  0  0
   -2.0171   -2.3369    0.9345 C   0  0  0  0  0  0  0  0  0  0  0  0
   -1.2570   -2.9157    1.6931 O   0  0  0  0  0  0  0  0  0  0  0  0
   -1.6438   -1.1538    0.3324 N   0  0  0  0  0  0  0  0  0  0  0  0
   -2.3585   -0.6528   -0.1926 H   0  0  0  0  0  0  0  0  0  0  0  0
   -0.3277   -0.5047    0.4433 C   0  0  1  0  0  0  0  0  0  0  0  0
    0.2235   -0.8995    1.2983 H   0  0  0  0  0  0  0  0  0  0  0  0
    0.4560   -0.6849   -0.8891 C   0  0  0  0  0  0  0  0  0  0  0  0
   -0.2607   -0.9503   -1.6734 H   0  0  0  0  0  0  0  0  0  0  0  0
    0.8555    0.2927   -1.1813 H   0  0  0  0  0  0  0  0  0  0  0  0
    1.6242   -1.7145   -0.9518 C   0  0  0  0  0  0  0  0  0  0  0  0
    1.3934   -2.4119   -1.7644 H   0  0  0  0  0  0  0  0  0  0  0  0
    2.9326   -0.9963   -1.3126 C   0  0  0  0  0  0  0  0  0  0  0  0
    3.2078   -0.2806   -0.5312 H   0  0  0  0  0  0  0  0  0  0  0  0
    3.7480   -1.7177   -1.4261 H   0  0  0  0  0  0  0  0  0  0  0  0
    2.8245   -0.4564   -2.2587 H   0  0  0  0  0  0  0  0  0  0  0  0
    1.8720   -2.5618    0.3031 C   0  0  0  0  0  0  0  0  0  0  0  0
    0.9830   -3.1433    0.5535 H   0  0  0  0  0  0  0  0  0  0  0  0
    2.6882   -3.2688    0.1245 H   0  0  0  0  0  0  0  0  0  0  0  0
    2.1481   -1.9364    1.1572 H   0  0  0  0  0  0  0  0  0  0  0  0
   -0.5299    1.0037    0.6976 C   0  0  0  0  0  0  0  0  0  0  0  0
   -1.3685    1.6275    0.0557 O   0  0  0  0  0  0  0  0  0  0  0  0
    0.2140    1.6571    1.6626 N   0  0  0  0  0  0  0  0  0  0  0  0
    0.8620    1.1007    2.2133 H   0  0  0  0  0  0  0  0  0  0  0  0
    0.0467    3.0694    1.9816 C   0  0  0  0  0  0  0  0  0  0  0  0
   -0.9676    3.2623    2.3463 H   0  0  0  0  0  0  0  0  0  0  0  0
    0.7569    3.3681    2.7585 H   0  0  0  0  0  0  0  0  0  0  0  0
    0.2258    3.6863    1.0947 H   0  0  0  0  0  0  0  0  0  0  0  0
  1  2  1  0  0  0  0
  2  3  1  0  0  0  0
  2  4  1  0  0  0  0
  2  5  1  0  0  0  0
  5  6  2  0  0  0  0
  5  7  1  0  0  0  0
  7  8  1  0  0  0  0
  7  9  1  0  0  0  0
  9 10  1  0  0  0  0
  9 11  1  0  0  0  0
  9 24  1  0  0  0  0
 11 12  1  0  0  0  0
 11 13  1  0  0  0  0
 11 14  1  0  0  0  0
 14 15  1  0  0  0  0
 14 16  1  0  0  0  0
 14 20  1  0  0  0  0
 16 17  1  0  0  0  0
 16 18  1  0  0  0  0
 16 19  1  0  0  0  0
 20 21  1  0  0  0  0
 20 22  1  0  0  0  0
 20 23  1  0  0  0  0
 24 25  2  0  0  0  0
 24 26  1  0  0  0  0
 26 27  1  0  0  0  0
 26 28  1  0  0  0  0
 28 29  1  0  0  0  0
 28 30  1  0  0  0  0
 28 31  1  0  0  0  0
M  END
$$$$

  -OEChem-03222214063D

 31 30  0     1  0  0  0  0  0999 V2000
   -3.5241   -3.8320    1.2625 H   0  0  0  0  0  0  0  0  0  0  0  0
   -3.4051   -2.8848    0.7289 C   0  0  0  0  0  0  0  0  0  0  0  0
   -4.1496   -2.1758    1.0990 H   0  0  0  0  0  0  0  0  0  0  0  0
   -3.5743   -3.0577   -0.3366 H   0  0  0  0  0  0  0  0  0  0  0  0
   -2.0092   -2.3323    0.9487 C   0  0  0  0  0  0  0  0  0  0  0  0
   -1.2440   -2.9037    1.7085 O   0  0  0  0  0  0  0  0  0  0  0  0
   -1.6416   -1.1509    0.3399 N   0  0  0  0  0  0  0  0  0  0  0  0
   -2.3592   -0.6522   -0.1832 H   0  0  0  0  0  0  0  0  0  0  0  0
   -0.3233   -0.5043    0.4385 C   0  0  1  0  0  0  0  0  0  0  0  0
    0.2411   -0.8976    1.2861 H   0  0  0  0  0  0  0  0  0  0  0  0
    0.4611   -0.6718   -0.8934 C   0  0  0  0  0  0  0  0  0  0  0  0
   -0.2581   -0.9553   -1.6691 H   0  0  0  0  0  0  0  0  0  0  0  0
    0.8550    0.3028   -1.2028 H   0  0  0  0  0  0  0  0  0  0  0  0
    1.6250   -1.7012   -0.9405 C   0  0  0  0  0  0  0  0  0  0  0  0
    1.5614   -2.1924   -1.9178 H   0  0  0  0  0  0  0  0  0  0  0  0
    2.9764   -0.9762   -0.9072 C   0  0  0  0  0  0  0  0  0  0  0  0
    3.0956   -0.4334    0.0359 H   0  0  0  0  0  0  0  0  0  0  0  0
    3.7975   -1.6939   -1.0016 H   0  0  0  0  0  0  0  0  0  0  0  0
    3.0528   -0.2629   -1.7340 H   0  0  0  0  0  0  0  0  0  0  0  0
    1.6020   -2.8224    0.1050 C   0  0  0  0  0  0  0  0  0  0  0  0
    0.6594   -3.3718    0.0477 H   0  0  0  0  0  0  0  0  0  0  0  0
    2.4128   -3.5313   -0.0895 H   0  0  0  0  0  0  0  0  0  0  0  0
    1.7341   -2.4345    1.1187 H   0  0  0  0  0  0  0  0  0  0  0  0
   -0.5255    1.0040    0.6921 C   0  0  0  0  0  0  0  0  0  0  0  0
   -1.3727    1.6253    0.0591 O   0  0  0  0  0  0  0  0  0  0  0  0
    0.2256    1.6592    1.6504 N   0  0  0  0  0  0  0  0  0  0  0  0
    0.8772    1.1035    2.1974 H   0  0  0  0  0  0  0  0  0  0  0  0
    0.0526    3.0692    1.9773 C   0  0  0  0  0  0  0  0  0  0  0  0
   -0.9614    3.2550    2.3466 H   0  0  0  0  0  0  0  0  0  0  0  0
    0.7639    3.3675    2.7536 H   0  0  0  0  0  0  0  0  0  0  0  0
    0.2257    3.6917    1.0931 H   0  0  0  0  0  0  0  0  0  0  0  0
  1  2  1  0  0  0  0
  2  3  1  0  0  0  0
  2  4  1  0  0  0  0
  2  5  1  0  0  0  0
  5  6  2  0  0  0  0
  5  7  1  0  0  0  0
  7  8  1  0  0  0  0
  7  9  1  0  0  0  0
  9 10  1  0  0  0  0
  9 11  1  0  0  0  0
  9 24  1  0  0  0  0
 11 12  1  0  0  0  0
 11 13  1  0  0  0  0
 11 14  1  0  0  0  0
 14 15  1  0  0  0  0
 14 16  1  0  0  0  0
 14 20  1  0  0  0  0
 16 17  1  0  0  0  0
 16 18  1  0  0  0  0
 16 19  1  0  0  0  0
 20 21  1  0  0  0  0
 20 22  1  0  0  0  0
 20 23  1  0  0  0  0
 24 25  2  0  0  0  0
 24 26  1  0  0  0  0
 26 27  1  0  0  0  0
 26 28  1  0  0  0  0
 28 29  1  0  0  0  0
 28 30  1  0  0  0  0
 28 31  1  0  0  0  0
M  END
$$$$

  -OEChem-03222214063D

 31 30  0     1  0  0  0  0  0999 V2000
   -3.5120   -3.8502    1.2480 H   0  0  0  0  0  0  0  0  0  0  0  0
   -3.3981   -2.8963    0.7257 C   0  0  0  0  0  0  0  0  0  0  0  0
   -4.1400   -2.1925    1.1107 H   0  0  0  0  0  0  0  0  0  0  0  0
   -3.5754   -3.0556   -0.3406 H   0  0  0  0  0  0  0  0  0  0  0  0
   -2.0014   -2.3451    0.9414 C   0  0  0  0  0  0  0  0  0  0  0  0
   -1.2292   -2.9252    1.6872 O   0  0  0  0  0  0  0  0  0  0  0  0
   -1.6398   -1.1587    0.3386 N   0  0  0  0  0  0  0  0  0  0  0  0
   -2.3638   -0.6572   -0.1732 H   0  0  0  0  0  0  0  0  0  0  0  0
   -0.3221   -0.5090    0.4276 C   0  0  1  0  0  0  0  0  0  0  0  0
    0.2569   -0.9124    1.2624 H   0  0  0  0  0  0  0  0  0  0  0  0
    0.4519   -0.6712   -0.9090 C   0  0  0  0  0  0  0  0  0  0  0  0
   -0.2676   -0.9604   -1.6825 H   0  0  0  0  0  0  0  0  0  0  0  0
    0.8524    0.2992   -1.2227 H   0  0  0  0  0  0  0  0  0  0  0  0
    1.6087   -1.7009   -0.9340 C   0  0  0  0  0  0  0  0  0  0  0  0
    1.7233   -2.0111   -1.9783 H   0  0  0  0  0  0  0  0  0  0  0  0
    2.9269   -1.0315   -0.5282 C   0  0  0  0  0  0  0  0  0  0  0  0
    2.8711   -0.6678    0.5025 H   0  0  0  0  0  0  0  0  0  0  0  0
    3.7538   -1.7450   -0.6003 H   0  0  0  0  0  0  0  0  0  0  0  0
    3.1490   -0.1853   -1.1859 H   0  0  0  0  0  0  0  0  0  0  0  0
    1.3787   -2.9788   -0.1206 C   0  0  0  0  0  0  0  0  0  0  0  0
    0.4235   -3.4354   -0.3948 H   0  0  0  0  0  0  0  0  0  0  0  0
    2.1721   -3.7031   -0.3292 H   0  0  0  0  0  0  0  0  0  0  0  0
    1.3833   -2.7771    0.9540 H   0  0  0  0  0  0  0  0  0  0  0  0
   -0.5196    0.9973    0.6940 C   0  0  0  0  0  0  0  0  0  0  0  0
   -1.3701    1.6248    0.0719 O   0  0  0  0  0  0  0  0  0  0  0  0
    0.2433    1.6444    1.6483 N   0  0  0  0  0  0  0  0  0  0  0  0
    0.8965    1.0825    2.1871 H   0  0  0  0  0  0  0  0  0  0  0  0
    0.0832    3.0546    1.9802 C   0  0  0  0  0  0  0  0  0  0  0  0
   -0.9247    3.2460    2.3631 H   0  0  0  0  0  0  0  0  0  0  0  0
    0.8066    3.3467    2.7474 H   0  0  0  0  0  0  0  0  0  0  0  0
    0.2484    3.6779    1.0952 H   0  0  0  0  0  0  0  0  0  0  0  0
  1  2  1  0  0  0  0
  2  3  1  0  0  0  0
  2  4  1  0  0  0  0
  2  5  1  0  0  0  0
  5  6  2  0  0  0  0
  5  7  1  0  0  0  0
  7  8  1  0  0  0  0
  7  9  1  0  0  0  0
  9 10  1  0  0  0  0
  9 11  1  0  0  0  0
  9 24  1  0  0  0  0
 11 12  1  0  0  0  0
 11 13  1  0  0  0  0
 11 14  1  0  0  0  0
 14 15  1  0  0  0  0
 14 16  1  0  0  0  0
 14 20  1  0  0  0  0
 16 17  1  0  0  0  0
 16 18  1  0  0  0  0
 16 19  1  0  0  0  0
 20 21  1  0  0  0  0
 20 22  1  0  0  0  0
 20 23  1  0  0  0  0
 24 25  2  0  0  0  0
 24 26  1  0  0  0  0
 26 27  1  0  0  0  0
 26 28  1  0  0  0  0
 28 29  1  0  0  0  0
 28 30  1  0  0  0  0
 28 31  1  0  0  0  0
M  END
$$$$

  -OEChem-03222214063D

 31 30  0     1  0  0  0  0  0999 V2000
   -3.4942   -3.8843    1.2037 H   0  0  0  0  0  0  0  0  0  0  0  0
   -3.3893   -2.9191    0.7004 C   0  0  0  0  0  0  0  0  0  0  0  0
   -4.1429   -2.2323    1.0932 H   0  0  0  0  0  0  0  0  0  0  0  0
   -3.5577   -3.0610   -0.3698 H   0  0  0  0  0  0  0  0  0  0  0  0
   -2.0010   -2.3545    0.9362 C   0  0  0  0  0  0  0  0  0  0  0  0
   -1.2350   -2.9290    1.6920 O   0  0  0  0  0  0  0  0  0  0  0  0
   -1.6413   -1.1644    0.3394 N   0  0  0  0  0  0  0  0  0  0  0  0
   -2.3623   -0.6711   -0.1838 H   0  0  0  0  0  0  0  0  0  0  0  0
   -0.3243   -0.5118    0.4233 C   0  0  1  0  0  0  0  0  0  0  0  0
    0.2594   -0.9309    1.2479 H   0  0  0  0  0  0  0  0  0  0  0  0
    0.4388   -0.6747   -0.9190 C   0  0  0  0  0  0  0  0  0  0  0  0
   -0.2802   -0.9546   -1.6962 H   0  0  0  0  0  0  0  0  0  0  0  0
    0.8537    0.2922   -1.2245 H   0  0  0  0  0  0  0  0  0  0  0  0
    1.5915   -1.7035   -0.9361 C   0  0  0  0  0  0  0  0  0  0  0  0
    1.8740   -1.8429   -1.9853 H   0  0  0  0  0  0  0  0  0  0  0  0
    2.8196   -1.1555   -0.1981 C   0  0  0  0  0  0  0  0  0  0  0  0
    2.6019   -1.0012    0.8630 H   0  0  0  0  0  0  0  0  0  0  0  0
    3.6545   -1.8585   -0.2802 H   0  0  0  0  0  0  0  0  0  0  0  0
    3.1330   -0.2008   -0.6318 H   0  0  0  0  0  0  0  0  0  0  0  0
    1.2116   -3.0792   -0.3818 C   0  0  0  0  0  0  0  0  0  0  0  0
    0.2599   -3.4148   -0.8048 H   0  0  0  0  0  0  0  0  0  0  0  0
    1.9800   -3.8136   -0.6420 H   0  0  0  0  0  0  0  0  0  0  0  0
    1.1278   -3.0533    0.7076 H   0  0  0  0  0  0  0  0  0  0  0  0
   -0.5141    0.9937    0.6990 C   0  0  0  0  0  0  0  0  0  0  0  0
   -1.3640    1.6282    0.0834 O   0  0  0  0  0  0  0  0  0  0  0  0
    0.2583    1.6334    1.6507 N   0  0  0  0  0  0  0  0  0  0  0  0
    0.9117    1.0665    2.1837 H   0  0  0  0  0  0  0  0  0  0  0  0
    0.1098    3.0440    1.9863 C   0  0  0  0  0  0  0  0  0  0  0  0
   -0.8940    3.2414    2.3768 H   0  0  0  0  0  0  0  0  0  0  0  0
    0.8406    3.3302    2.7488 H   0  0  0  0  0  0  0  0  0  0  0  0
    0.2730    3.6676    1.1009 H   0  0  0  0  0  0  0  0  0  0  0  0
  1  2  1  0  0  0  0
  2  3  1  0  0  0  0
  2  4  1  0  0  0  0
  2  5  1  0  0  0  0
  5  6  2  0  0  0  0
  5  7  1  0  0  0  0
  7  8  1  0  0  0  0
  7  9  1  0  0  0  0
  9 10  1  0  0  0  0
  9 11  1  0  0  0  0
  9 24  1  0  0  0  0
 11 12  1  0  0  0  0
 11 13  1  0  0  0  0
 11 14  1  0  0  0  0
 14 15  1  0  0  0  0
 14 16  1  0  0  0  0
 14 20  1  0  0  0  0
 16 17  1  0  0  0  0
 16 18  1  0  0  0  0
 16 19  1  0  0  0  0
 20 21  1  0  0  0  0
 20 22  1  0  0  0  0
 20 23  1  0  0  0  0
 24 25  2  0  0  0  0
 24 26  1  0  0  0  0
 26 27  1  0  0  0  0
 26 28  1  0  0  0  0
 28 29  1  0  0  0  0
 28 30  1  0  0  0  0
 28 31  1  0  0  0  0
M  END
$$$$

  -OEChem-03222214063D

 31 30  0     1  0  0  0  0  0999 V2000
   -3.4884   -3.8858    1.2022 H   0  0  0  0  0  0  0  0  0  0  0  0
   -3.3846   -2.9225    0.6952 C   0  0  0  0  0  0  0  0  0  0  0  0
   -4.1444   -2.2374    1.0790 H   0  0  0  0  0  0  0  0  0  0  0  0
   -3.5439   -3.0701   -0.3756 H   0  0  0  0  0  0  0  0  0  0  0  0
   -2.0010   -2.3504    0.9389 C   0  0  0  0  0  0  0  0  0  0  0  0
   -1.2380   -2.9159    1.7049 O   0  0  0  0  0  0  0  0  0  0  0  0
   -1.6426   -1.1615    0.3391 N   0  0  0  0  0  0  0  0  0  0  0  0
   -2.3616   -0.6717   -0.1902 H   0  0  0  0  0  0  0  0  0  0  0  0
   -0.3264   -0.5097    0.4279 C   0  0  1  0  0  0  0  0  0  0  0  0
    0.2462   -0.9292    1.2585 H   0  0  0  0  0  0  0  0  0  0  0  0
    0.4370   -0.6812   -0.9137 C   0  0  0  0  0  0  0  0  0  0  0  0
   -0.2790   -0.9376   -1.7018 H   0  0  0  0  0  0  0  0  0  0  0  0
    0.8708    0.2831   -1.2008 H   0  0  0  0  0  0  0  0  0  0  0  0
    1.5894   -1.7104   -0.9373 C   0  0  0  0  0  0  0  0  0  0  0  0
    2.0291   -1.6665   -1.9396 H   0  0  0  0  0  0  0  0  0  0  0  0
    2.6936   -1.3705    0.0743 C   0  0  0  0  0  0  0  0  0  0  0  0
    2.3543   -1.5159    1.1036 H   0  0  0  0  0  0  0  0  0  0  0  0
    3.5615   -2.0170   -0.0894 H   0  0  0  0  0  0  0  0  0  0  0  0
    3.0132   -0.3307   -0.0453 H   0  0  0  0  0  0  0  0  0  0  0  0
    1.1038   -3.1449   -0.7109 C   0  0  0  0  0  0  0  0  0  0  0  0
    0.2241   -3.3563   -1.3263 H   0  0  0  0  0  0  0  0  0  0  0  0
    1.8914   -3.8548   -0.9813 H   0  0  0  0  0  0  0  0  0  0  0  0
    0.8485   -3.3099    0.3379 H   0  0  0  0  0  0  0  0  0  0  0  0
   -0.5153    0.9967    0.6990 C   0  0  0  0  0  0  0  0  0  0  0  0
   -1.3600    1.6314    0.0765 O   0  0  0  0  0  0  0  0  0  0  0  0
    0.2537    1.6369    1.6531 N   0  0  0  0  0  0  0  0  0  0  0  0
    0.9011    1.0688    2.1923 H   0  0  0  0  0  0  0  0  0  0  0  0
    0.1037    3.0475    1.9883 C   0  0  0  0  0  0  0  0  0  0  0  0
   -0.9011    3.2444    2.3764 H   0  0  0  0  0  0  0  0  0  0  0  0
    0.8324    3.3340    2.7526 H   0  0  0  0  0  0  0  0  0  0  0  0
    0.2690    3.6714    1.1035 H   0  0  0  0  0  0  0  0  0  0  0  0
  1  2  1  0  0  0  0
  2  3  1  0  0  0  0
  2  4  1  0  0  0  0
  2  5  1  0  0  0  0
  5  6  2  0  0  0  0
  5  7  1  0  0  0  0
  7  8  1  0  0  0  0
  7  9  1  0  0  0  0
  9 10  1  0  0  0  0
  9 11  1  0  0  0  0
  9 24  1  0  0  0  0
 11 12  1  0  0  0  0
 11 13  1  0  0  0  0
 11 14  1  0  0  0  0
 14 15  1  0  0  0  0
 14 16  1  0  0  0  0
 14 20  1  0  0  0  0
 16 17  1  0  0  0  0
 16 18  1  0  0  0  0
 16 19  1  0  0  0  0
 20 21  1  0  0  0  0
 20 22  1  0  0  0  0
 20 23  1  0  0  0  0
 24 25  2  0  0  0  0
 24 26  1  0  0  0  0
 26 27  1  0  0  0  0
 26 28  1  0  0  0  0
 28 29  1  0  0  0  0
 28 30  1  0  0  0  0
 28 31  1  0  0  0  0
M  END
$$$$

  -OEChem-03222214063D

 31 30  0     1  0  0  0  0  0999 V2000
   -3.4968   -3.8563    1.2532 H   0  0  0  0  0  0  0  0  0  0  0  0
   -3.3910   -2.9043    0.7256 C   0  0  0  0  0  0  0  0  0  0  0  0
   -4.1317   -2.2013    1.1144 H   0  0  0  0  0  0  0  0  0  0  0  0
   -3.5777   -3.0693   -0.3383 H   0  0  0  0  0  0  0  0  0  0  0  0
   -1.9941   -2.3478    0.9262 C   0  0  0  0  0  0  0  0  0  0  0  0
   -1.2069   -2.9313    1.6544 O   0  0  0  0  0  0  0  0  0  0  0  0
   -1.6417   -1.1583    0.3237 N   0  0  0  0  0  0  0  0  0  0  0  0
   -2.3698   -0.6510   -0.1764 H   0  0  0  0  0  0  0  0  0  0  0  0
   -0.3257   -0.5100    0.4235 C   0  0  1  0  0  0  0  0  0  0  0  0
    0.2316   -0.9205    1.2671 H   0  0  0  0  0  0  0  0  0  0  0  0
    0.4475   -0.6886   -0.9122 C   0  0  0  0  0  0  0  0  0  0  0  0
   -0.2614   -0.9156   -1.7155 H   0  0  0  0  0  0  0  0  0  0  0  0
    0.9012    0.2739   -1.1739 H   0  0  0  0  0  0  0  0  0  0  0  0
    1.5997   -1.7221   -0.9383 C   0  0  0  0  0  0  0  0  0  0  0  0
    2.1982   -1.5062   -1.8298 H   0  0  0  0  0  0  0  0  0  0  0  0
    2.5318   -1.6452    0.2796 C   0  0  0  0  0  0  0  0  0  0  0  0
    2.0597   -2.0643    1.1732 H   0  0  0  0  0  0  0  0  0  0  0  0
    3.4448   -2.2167    0.0857 H   0  0  0  0  0  0  0  0  0  0  0  0
    2.8129   -0.6069    0.4806 H   0  0  0  0  0  0  0  0  0  0  0  0
    1.0634   -3.1504   -1.0807 C   0  0  0  0  0  0  0  0  0  0  0  0
    0.3914   -3.2247   -1.9410 H   0  0  0  0  0  0  0  0  0  0  0  0
    1.8910   -3.8505   -1.2309 H   0  0  0  0  0  0  0  0  0  0  0  0
    0.5178   -3.4557   -0.1855 H   0  0  0  0  0  0  0  0  0  0  0  0
   -0.5181    0.9966    0.6926 C   0  0  0  0  0  0  0  0  0  0  0  0
   -1.3659    1.6274    0.0704 O   0  0  0  0  0  0  0  0  0  0  0  0
    0.2412    1.6392    1.6530 N   0  0  0  0  0  0  0  0  0  0  0  0
    0.8940    1.0759    2.1906 H   0  0  0  0  0  0  0  0  0  0  0  0
    0.0798    3.0480    1.9905 C   0  0  0  0  0  0  0  0  0  0  0  0
   -0.9296    3.2374    2.3706 H   0  0  0  0  0  0  0  0  0  0  0  0
    0.8002    3.3374    2.7617 H   0  0  0  0  0  0  0  0  0  0  0  0
    0.2483    3.6752    1.1086 H   0  0  0  0  0  0  0  0  0  0  0  0
  1  2  1  0  0  0  0
  2  3  1  0  0  0  0
  2  4  1  0  0  0  0
  2  5  1  0  0  0  0
  5  6  2  0  0  0  0
  5  7  1  0  0  0  0
  7  8  1  0  0  0  0
  7  9  1  0  0  0  0
  9 10  1  0  0  0  0
  9 11  1  0  0  0  0
  9 24  1  0  0  0  0
 11 12  1  0  0  0  0
 11 13  1  0  0  0  0
 11 14  1  0  0  0  0
 14 15  1  0  0  0  0
 14 16  1  0  0  0  0
 14 20  1  0  0  0  0
 16 17  1  0  0  0  0
 16 18  1  0  0  0  0
 16 19  1  0  0  0  0
 20 21  1  0  0  0  0
 20 22  1  0  0  0  0
 20 23  1  0  0  0  0
 24 25  2  0  0  0  0
 24 26  1  0  0  0  0
 26 27  1  0  0  0  0
 26 28  1  0  0  0  0
 28 29  1  0  0  0  0
 28 30  1  0  0  0  0
 28 31  1  0  0  0  0
M  END
$$$$

  -OEChem-03222214063D

 31 30  0     1  0  0  0  0  0999 V2000
   -3.4926   -3.8363    1.2698 H   0  0  0  0  0  0  0  0  0  0  0  0
   -3.3922   -2.8833    0.7430 C   0  0  0  0  0  0  0  0  0  0  0  0
   -4.1035   -2.1699    1.1661 H   0  0  0  0  0  0  0  0  0  0  0  0
   -3.6261   -3.0384   -0.3130 H   0  0  0  0  0  0  0  0  0  0  0  0
   -1.9787   -2.3522    0.8872 C   0  0  0  0  0  0  0  0  0  0  0  0
   -1.1596   -2.9726    1.5466 O   0  0  0  0  0  0  0  0  0  0  0  0
   -1.6359   -1.1564    0.2919 N   0  0  0  0  0  0  0  0  0  0  0  0
   -2.3785   -0.6236   -0.1580 H   0  0  0  0  0  0  0  0  0  0  0  0
   -0.3238   -0.5045    0.4079 C   0  0  1  0  0  0  0  0  0  0  0  0
    0.2189   -0.9066    1.2639 H   0  0  0  0  0  0  0  0  0  0  0  0
    0.4562   -0.6970   -0.9213 C   0  0  0  0  0  0  0  0  0  0  0  0
   -0.2484   -0.9092   -1.7327 H   0  0  0  0  0  0  0  0  0  0  0  0
    0.9187    0.2638   -1.1729 H   0  0  0  0  0  0  0  0  0  0  0  0
    1.6113   -1.7339   -0.9425 C   0  0  0  0  0  0  0  0  0  0  0  0
    2.3453   -1.3893   -1.6790 H   0  0  0  0  0  0  0  0  0  0  0  0
    2.3429   -1.9341    0.3932 C   0  0  0  0  0  0  0  0  0  0  0  0
    1.7190   -2.4749    1.1121 H   0  0  0  0  0  0  0  0  0  0  0  0
    3.2545   -2.5189    0.2352 H   0  0  0  0  0  0  0  0  0  0  0  0
    2.6270   -0.9685    0.8224 H   0  0  0  0  0  0  0  0  0  0  0  0
    1.0808   -3.0945   -1.4117 C   0  0  0  0  0  0  0  0  0  0  0  0
    0.6222   -3.0074   -2.4014 H   0  0  0  0  0  0  0  0  0  0  0  0
    1.8978   -3.8197   -1.4776 H   0  0  0  0  0  0  0  0  0  0  0  0
    0.3316   -3.4808   -0.7145 H   0  0  0  0  0  0  0  0  0  0  0  0
   -0.5215    1.0000    0.6843 C   0  0  0  0  0  0  0  0  0  0  0  0
   -1.3749    1.6292    0.0683 O   0  0  0  0  0  0  0  0  0  0  0  0
    0.2275    1.6387    1.6553 N   0  0  0  0  0  0  0  0  0  0  0  0
    0.8860    1.0762    2.1869 H   0  0  0  0  0  0  0  0  0  0  0  0
    0.0524    3.0424    2.0068 C   0  0  0  0  0  0  0  0  0  0  0  0
   -0.9627    3.2209    2.3767 H   0  0  0  0  0  0  0  0  0  0  0  0
    0.7611    3.3272    2.7902 H   0  0  0  0  0  0  0  0  0  0  0  0
    0.2275    3.6808    1.1344 H   0  0  0  0  0  0  0  0  0  0  0  0
  1  2  1  0  0  0  0
  2  3  1  0  0  0  0
  2  4  1  0  0  0  0
  2  5  1  0  0  0  0
  5  6  2  0  0  0  0
  5  7  1  0  0  0  0
  7  8  1  0  0  0  0
  7  9  1  0  0  0  0
  9 10  1  0  0  0  0
  9 11  1  0  0  0  0
  9 24  1  0  0  0  0
 11 12  1  0  0  0  0
 11 13  1  0  0  0  0
 11 14  1  0  0  0  0
 14 15  1  0  0  0  0
 14 16  1  0  0  0  0
 14 20  1  0  0  0  0
 16 17  1  0  0  0  0
 16 18  1  0  0  0  0
 16 19  1  0  0  0  0
 20 21  1  0  0  0  0
 20 22  1  0  0  0  0
 20 23  1  0  0  0  0
 24 25  2  0  0  0  0
 24 26  1  0  0  0  0
 26 27  1  0  0  0  0
 26 28  1  0  0  0  0
 28 29  1  0  0  0  0
 28 30  1  0  0  0  0
 28 31  1  0  0  0  0
M  END
$$$$

  -OEChem-03222214063D

 31 30  0     1  0  0  0  0  0999 V2000
   -3.5101   -3.8336    1.2485 H   0  0  0  0  0  0  0  0  0  0  0  0
   -3.4013   -2.8782    0.7274 C   0  0  0  0  0  0  0  0  0  0  0  0
   -4.1143   -2.1645    1.1472 H   0  0  0  0  0  0  0  0  0  0  0  0
   -3.6259   -3.0272   -0.3315 H   0  0  0  0  0  0  0  0  0  0  0  0
   -1.9870   -2.3534    0.8875 C   0  0  0  0  0  0  0  0  0  0  0  0
   -1.1786   -2.9806    1.5525 O   0  0  0  0  0  0  0  0  0  0  0  0
   -1.6334   -1.1588    0.2967 N   0  0  0  0  0  0  0  0  0  0  0  0
   -2.3714   -0.6263   -0.1612 H   0  0  0  0  0  0  0  0  0  0  0  0
   -0.3225   -0.5044    0.4196 C   0  0  1  0  0  0  0  0  0  0  0  0
    0.2173   -0.9015    1.2802 H   0  0  0  0  0  0  0  0  0  0  0  0
    0.4565   -0.7053   -0.9095 C   0  0  0  0  0  0  0  0  0  0  0  0
   -0.2553   -0.9122   -1.7160 H   0  0  0  0  0  0  0  0  0  0  0  0
    0.9165    0.2555   -1.1657 H   0  0  0  0  0  0  0  0  0  0  0  0
    1.6171   -1.7419   -0.9441 C   0  0  0  0  0  0  0  0  0  0  0  0
    2.4546   -1.2862   -1.4834 H   0  0  0  0  0  0  0  0  0  0  0  0
    2.1428   -2.2279    0.4147 C   0  0  0  0  0  0  0  0  0  0  0  0
    1.3841   -2.8033    0.9524 H   0  0  0  0  0  0  0  0  0  0  0  0
    3.0145   -2.8737    0.2705 H   0  0  0  0  0  0  0  0  0  0  0  0
    2.4517   -1.3786    1.0315 H   0  0  0  0  0  0  0  0  0  0  0  0
    1.1624   -2.9771   -1.7331 C   0  0  0  0  0  0  0  0  0  0  0  0
    0.8735   -2.6978   -2.7511 H   0  0  0  0  0  0  0  0  0  0  0  0
    1.9727   -3.7099   -1.7990 H   0  0  0  0  0  0  0  0  0  0  0  0
    0.3045   -3.4505   -1.2440 H   0  0  0  0  0  0  0  0  0  0  0  0
   -0.5241    1.0001    0.6921 C   0  0  0  0  0  0  0  0  0  0  0  0
   -1.3728    1.6272    0.0674 O   0  0  0  0  0  0  0  0  0  0  0  0
    0.2180    1.6417    1.6665 N   0  0  0  0  0  0  0  0  0  0  0  0
    0.8710    1.0804    2.2061 H   0  0  0  0  0  0  0  0  0  0  0  0
    0.0435    3.0475    2.0100 C   0  0  0  0  0  0  0  0  0  0  0  0
   -0.9731    3.2299    2.3741 H   0  0  0  0  0  0  0  0  0  0  0  0
    0.7493    3.3350    2.7953 H   0  0  0  0  0  0  0  0  0  0  0  0
    0.2237    3.6809    1.1351 H   0  0  0  0  0  0  0  0  0  0  0  0
  1  2  1  0  0  0  0
  2  3  1  0  0  0  0
  2  4  1  0  0  0  0
  2  5  1  0  0  0  0
  5  6  2  0  0  0  0
  5  7  1  0  0  0  0
  7  8  1  0  0  0  0
  7  9  1  0  0  0  0
  9 10  1  0  0  0  0
  9 11  1  0  0  0  0
  9 24  1  0  0  0  0
 11 12  1  0  0  0  0
 11 13  1  0  0  0  0
 11 14  1  0  0  0  0
 14 15  1  0  0  0  0
 14 16  1  0  0  0  0
 14 20  1  0  0  0  0
 16 17  1  0  0  0  0
 16 18  1  0  0  0  0
 16 19  1  0  0  0  0
 20 21  1  0  0  0  0
 20 22  1  0  0  0  0
 20 23  1  0  0  0  0
 24 25  2  0  0  0  0
 24 26  1  0  0  0  0
 26 27  1  0  0  0  0
 26 28  1  0  0  0  0
 28 29  1  0  0  0  0
 28 30  1  0  0  0  0
 28 31  1  0  0  0  0
M  END
$$$$

  -OEChem-03222214063D

 31 30  0     1  0  0  0  0  0999 V2000
   -3.5500   -3.8340    1.2412 H   0  0  0  0  0  0  0  0  0  0  0  0
   -3.4240   -2.8822    0.7176 C   0  0  0  0  0  0  0  0  0  0  0  0
   -4.1604   -2.1701    1.0980 H   0  0  0  0  0  0  0  0  0  0  0  0
   -3.5982   -3.0420   -0.3492 H   0  0  0  0  0  0  0  0  0  0  0  0
   -2.0225   -2.3449    0.9384 C   0  0  0  0  0  0  0  0  0  0  0  0
   -1.2567   -2.9383    1.6797 O   0  0  0  0  0  0  0  0  0  0  0  0
   -1.6455   -1.1635    0.3354 N   0  0  0  0  0  0  0  0  0  0  0  0
   -2.3622   -0.6538   -0.1786 H   0  0  0  0  0  0  0  0  0  0  0  0
   -0.3277   -0.5188    0.4481 C   0  0  1  0  0  0  0  0  0  0  0  0
    0.2173   -0.9144    1.3066 H   0  0  0  0  0  0  0  0  0  0  0  0
    0.4514   -0.7164   -0.8834 C   0  0  0  0  0  0  0  0  0  0  0  0
   -0.2747   -0.9342   -1.6742 H   0  0  0  0  0  0  0  0  0  0  0  0
    0.9001    0.2446   -1.1580 H   0  0  0  0  0  0  0  0  0  0  0  0
    1.6123   -1.7544   -0.9386 C   0  0  0  0  0  0  0  0  0  0  0  0
    2.5244   -1.2101   -1.2069 H   0  0  0  0  0  0  0  0  0  0  0  0
    1.9179   -2.5286    0.3511 C   0  0  0  0  0  0  0  0  0  0  0  0
    1.0600   -3.1304    0.6587 H   0  0  0  0  0  0  0  0  0  0  0  0
    2.7639   -3.2045    0.1925 H   0  0  0  0  0  0  0  0  0  0  0  0
    2.1888   -1.8453    1.1610 H   0  0  0  0  0  0  0  0  0  0  0  0
    1.3305   -2.7732   -2.0511 C   0  0  0  0  0  0  0  0  0  0  0  0
    1.2023   -2.2647   -3.0119 H   0  0  0  0  0  0  0  0  0  0  0  0
    2.1626   -3.4777   -2.1478 H   0  0  0  0  0  0  0  0  0  0  0  0
    0.4198   -3.3397   -1.8306 H   0  0  0  0  0  0  0  0  0  0  0  0
   -0.5216    0.9910    0.7000 C   0  0  0  0  0  0  0  0  0  0  0  0
   -1.3602    1.6167    0.0602 O   0  0  0  0  0  0  0  0  0  0  0  0
    0.2243    1.6420    1.6653 N   0  0  0  0  0  0  0  0  0  0  0  0
    0.8665    1.0825    2.2193 H   0  0  0  0  0  0  0  0  0  0  0  0
    0.0582    3.0533    1.9895 C   0  0  0  0  0  0  0  0  0  0  0  0
   -0.9561    3.2452    2.3551 H   0  0  0  0  0  0  0  0  0  0  0  0
    0.7683    3.3485    2.7679 H   0  0  0  0  0  0  0  0  0  0  0  0
    0.2385    3.6739    1.1053 H   0  0  0  0  0  0  0  0  0  0  0  0
  1  2  1  0  0  0  0
  2  3  1  0  0  0  0
  2  4  1  0  0  0  0
  2  5  1  0  0  0  0
  5  6  2  0  0  0  0
  5  7  1  0  0  0  0
  7  8  1  0  0  0  0
  7  9  1  0  0  0  0
  9 10  1  0  0  0  0
  9 11  1  0  0  0  0
  9 24  1  0  0  0  0
 11 12  1  0  0  0  0
 11 13  1  0  0  0  0
 11 14  1  0  0  0  0
 14 15  1  0  0  0  0
 14 16  1  0  0  0  0
 14 20  1  0  0  0  0
 16 17  1  0  0  0  0
 16 18  1  0  0  0  0
 16 19  1  0  0  0  0
 20 21  1  0  0  0  0
 20 22  1  0  0  0  0
 20 23  1  0  0  0  0
 24 25  2  0  0  0  0
 24 26  1  0  0  0  0
 26 27  1  0  0  0  0
 26 28  1  0  0  0  0
 28 29  1  0  0  0  0
 28 30  1  0  0  0  0
 28 31  1  0  0  0  0
M  END
$$$$

  -OEChem-03222214063D

 31 30  0     1  0  0  0  0  0999 V2000
   -3.5622   -3.8335    1.2542 H   0  0  0  0  0  0  0  0  0  0  0  0
   -3.4355   -2.8828    0.7290 C   0  0  0  0  0  0  0  0  0  0  0  0
   -4.1781   -2.1725    1.1005 H   0  0  0  0  0  0  0  0  0  0  0  0
   -3.6000   -3.0462   -0.3388 H   0  0  0  0  0  0  0  0  0  0  0  0
   -2.0381   -2.3398    0.9609 C   0  0  0  0  0  0  0  0  0  0  0  0
   -1.2821   -2.9166    1.7257 O   0  0  0  0  0  0  0  0  0  0  0  0
   -1.6555   -1.1648    0.3491 N   0  0  0  0  0  0  0  0  0  0  0  0
   -2.3651   -0.6601   -0.1793 H   0  0  0  0  0  0  0  0  0  0  0  0
   -0.3304   -0.5340    0.4525 C   0  0  1  0  0  0  0  0  0  0  0  0
    0.2226   -0.9291    1.3059 H   0  0  0  0  0  0  0  0  0  0  0  0
    0.4474   -0.7230   -0.8808 C   0  0  0  0  0  0  0  0  0  0  0  0
   -0.2875   -0.9580   -1.6584 H   0  0  0  0  0  0  0  0  0  0  0  0
    0.8897    0.2364   -1.1723 H   0  0  0  0  0  0  0  0  0  0  0  0
    1.5989   -1.7684   -0.9397 C   0  0  0  0  0  0  0  0  0  0  0  0
    2.5398   -1.2087   -0.9024 H   0  0  0  0  0  0  0  0  0  0  0  0
    1.6677   -2.7957    0.1984 C   0  0  0  0  0  0  0  0  0  0  0  0
    0.7484   -3.3850    0.2382 H   0  0  0  0  0  0  0  0  0  0  0  0
    2.5024   -3.4838    0.0325 H   0  0  0  0  0  0  0  0  0  0  0  0
    1.8316   -2.3130    1.1654 H   0  0  0  0  0  0  0  0  0  0  0  0
    1.5502   -2.5117   -2.2810 C   0  0  0  0  0  0  0  0  0  0  0  0
    1.5732   -1.8000   -3.1121 H   0  0  0  0  0  0  0  0  0  0  0  0
    2.4108   -3.1806   -2.3806 H   0  0  0  0  0  0  0  0  0  0  0  0
    0.6359   -3.1090   -2.3573 H   0  0  0  0  0  0  0  0  0  0  0  0
   -0.5164    0.9779    0.6994 C   0  0  0  0  0  0  0  0  0  0  0  0
   -1.3503    1.6071    0.0566 O   0  0  0  0  0  0  0  0  0  0  0  0
    0.2363    1.6294    1.6591 N   0  0  0  0  0  0  0  0  0  0  0  0
    0.8746    1.0686    2.2166 H   0  0  0  0  0  0  0  0  0  0  0  0
    0.0812    3.0445    1.9729 C   0  0  0  0  0  0  0  0  0  0  0  0
   -0.9290    3.2453    2.3446 H   0  0  0  0  0  0  0  0  0  0  0  0
    0.7995    3.3424    2.7428 H   0  0  0  0  0  0  0  0  0  0  0  0
    0.2572    3.6560    1.0817 H   0  0  0  0  0  0  0  0  0  0  0  0
  1  2  1  0  0  0  0
  2  3  1  0  0  0  0
  2  4  1  0  0  0  0
  2  5  1  0  0  0  0
  5  6  2  0  0  0  0
  5  7  1  0  0  0  0
  7  8  1  0  0  0  0
  7  9  1  0  0  0  0
  9 10  1  0  0  0  0
  9 11  1  0  0  0  0
  9 24  1  0  0  0  0
 11 12  1  0  0  0  0
 11 13  1  0  0  0  0
 11 14  1  0  0  0  0
 14 15  1  0  0  0  0
 14 16  1  0  0  0  0
 14 20  1  0  0  0  0
 16 17  1  0  0  0  0
 16 18  1  0  0  0  0
 16 19  1  0  0  0  0
 20 21  1  0  0  0  0
 20 22  1  0  0  0  0
 20 23  1  0  0  0  0
 24 25  2  0  0  0  0
 24 26  1  0  0  0  0
 26 27  1  0  0  0  0
 26 28  1  0  0  0  0
 28 29  1  0  0  0  0
 28 30  1  0  0  0  0
 28 31  1  0  0  0  0
M  END
$$$$

  -OEChem-03222214063D

 31 30  0     1  0  0  0  0  0999 V2000
   -3.5528   -3.8404    1.2616 H   0  0  0  0  0  0  0  0  0  0  0  0
   -3.4305   -2.8894    0.7357 C   0  0  0  0  0  0  0  0  0  0  0  0
   -4.1658   -2.1775    1.1182 H   0  0  0  0  0  0  0  0  0  0  0  0
   -3.6095   -3.0512   -0.3299 H   0  0  0  0  0  0  0  0  0  0  0  0
   -2.0284   -2.3511    0.9495 C   0  0  0  0  0  0  0  0  0  0  0  0
   -1.2615   -2.9374    1.6962 O   0  0  0  0  0  0  0  0  0  0  0  0
   -1.6523   -1.1719    0.3418 N   0  0  0  0  0  0  0  0  0  0  0  0
   -2.3686   -0.6609   -0.1714 H   0  0  0  0  0  0  0  0  0  0  0  0
   -0.3254   -0.5428    0.4334 C   0  0  1  0  0  0  0  0  0  0  0  0
    0.2441   -0.9455    1.2738 H   0  0  0  0  0  0  0  0  0  0  0  0
    0.4434   -0.7181   -0.9051 C   0  0  0  0  0  0  0  0  0  0  0  0
   -0.2916   -0.9646   -1.6791 H   0  0  0  0  0  0  0  0  0  0  0  0
    0.8830    0.2413   -1.1998 H   0  0  0  0  0  0  0  0  0  0  0  0
    1.5875   -1.7654   -0.9524 C   0  0  0  0  0  0  0  0  0  0  0  0
    2.5046   -1.2558   -0.6374 H   0  0  0  0  0  0  0  0  0  0  0  0
    1.4286   -2.9806   -0.0288 C   0  0  0  0  0  0  0  0  0  0  0  0
    0.4871   -3.4967   -0.2377 H   0  0  0  0  0  0  0  0  0  0  0  0
    2.2480   -3.6875   -0.1918 H   0  0  0  0  0  0  0  0  0  0  0  0
    1.4526   -2.6920    1.0248 H   0  0  0  0  0  0  0  0  0  0  0  0
    1.7844   -2.2424   -2.3965 C   0  0  0  0  0  0  0  0  0  0  0  0
    1.9453   -1.3882   -3.0616 H   0  0  0  0  0  0  0  0  0  0  0  0
    2.6568   -2.8996   -2.4668 H   0  0  0  0  0  0  0  0  0  0  0  0
    0.9054   -2.7949   -2.7441 H   0  0  0  0  0  0  0  0  0  0  0  0
   -0.5085    0.9672    0.6940 C   0  0  0  0  0  0  0  0  0  0  0  0
   -1.3518    1.6002    0.0674 O   0  0  0  0  0  0  0  0  0  0  0  0
    0.2556    1.6121    1.6492 N   0  0  0  0  0  0  0  0  0  0  0  0
    0.9033    1.0481    2.1924 H   0  0  0  0  0  0  0  0  0  0  0  0
    0.1029    3.0243    1.9770 C   0  0  0  0  0  0  0  0  0  0  0  0
   -0.9035    3.2220    2.3602 H   0  0  0  0  0  0  0  0  0  0  0  0
    0.8285    3.3153    2.7426 H   0  0  0  0  0  0  0  0  0  0  0  0
    0.2706    3.6441    1.0899 H   0  0  0  0  0  0  0  0  0  0  0  0
  1  2  1  0  0  0  0
  2  3  1  0  0  0  0
  2  4  1  0  0  0  0
  2  5  1  0  0  0  0
  5  6  2  0  0  0  0
  5  7  1  0  0  0  0
  7  8  1  0  0  0  0
  7  9  1  0  0  0  0
  9 10  1  0  0  0  0
  9 11  1  0  0  0  0
  9 24  1  0  0  0  0
 11 12  1  0  0  0  0
 11 13  1  0  0  0  0
 11 14  1  0  0  0  0
 14 15  1  0  0  0  0
 14 16  1  0  0  0  0
 14 20  1  0  0  0  0
 16 17  1  0  0  0  0
 16 18  1  0  0  0  0
 16 19  1  0  0  0  0
 20 21  1  0  0  0  0
 20 22  1  0  0  0  0
 20 23  1  0  0  0  0
 24 25  2  0  0  0  0
 24 26  1  0  0  0  0
 26 27  1  0  0  0  0
 26 28  1  0  0  0  0
 28 29  1  0  0  0  0
 28 30  1  0  0  0  0
 28 31  1  0  0  0  0
M  END
$$$$

  -OEChem-03222214063D

 31 30  0     1  0  0  0  0  0999 V2000
   -3.5261   -3.8731    1.2207 H   0  0  0  0  0  0  0  0  0  0  0  0
   -3.4068   -2.9143    0.7083 C   0  0  0  0  0  0  0  0  0  0  0  0
   -4.1501   -2.2128    1.0951 H   0  0  0  0  0  0  0  0  0  0  0  0
   -3.5775   -3.0634   -0.3606 H   0  0  0  0  0  0  0  0  0  0  0  0
   -2.0104   -2.3677    0.9377 C   0  0  0  0  0  0  0  0  0  0  0  0
   -1.2476   -2.9515    1.6898 O   0  0  0  0  0  0  0  0  0  0  0  0
   -1.6400   -1.1817    0.3396 N   0  0  0  0  0  0  0  0  0  0  0  0
   -2.3585   -0.6801   -0.1795 H   0  0  0  0  0  0  0  0  0  0  0  0
   -0.3158   -0.5429    0.4177 C   0  0  1  0  0  0  0  0  0  0  0  0
    0.2731   -0.9616    1.2389 H   0  0  0  0  0  0  0  0  0  0  0  0
    0.4371   -0.7058   -0.9300 C   0  0  0  0  0  0  0  0  0  0  0  0
   -0.2951   -0.9594   -1.7043 H   0  0  0  0  0  0  0  0  0  0  0  0
    0.8730    0.2568   -1.2208 H   0  0  0  0  0  0  0  0  0  0  0  0
    1.5800   -1.7472   -0.9611 C   0  0  0  0  0  0  0  0  0  0  0  0
    2.4339   -1.3278   -0.4187 H   0  0  0  0  0  0  0  0  0  0  0  0
    1.2376   -3.0892   -0.3049 C   0  0  0  0  0  0  0  0  0  0  0  0
    0.2890   -3.4761   -0.6893 H   0  0  0  0  0  0  0  0  0  0  0  0
    2.0197   -3.8262   -0.5117 H   0  0  0  0  0  0  0  0  0  0  0  0
    1.1675   -2.9829    0.7804 H   0  0  0  0  0  0  0  0  0  0  0  0
    2.0065   -1.9813   -2.4153 C   0  0  0  0  0  0  0  0  0  0  0  0
    2.2824   -1.0342   -2.8897 H   0  0  0  0  0  0  0  0  0  0  0  0
    2.8727   -2.6491   -2.4569 H   0  0  0  0  0  0  0  0  0  0  0  0
    1.1912   -2.4339   -2.9888 H   0  0  0  0  0  0  0  0  0  0  0  0
   -0.4997    0.9639    0.6942 C   0  0  0  0  0  0  0  0  0  0  0  0
   -1.3517    1.6005    0.0835 O   0  0  0  0  0  0  0  0  0  0  0  0
    0.2772    1.6018    1.6434 N   0  0  0  0  0  0  0  0  0  0  0  0
    0.9312    1.0334    2.1742 H   0  0  0  0  0  0  0  0  0  0  0  0
    0.1229    3.0094    1.9898 C   0  0  0  0  0  0  0  0  0  0  0  0
   -0.8811    3.1991    2.3836 H   0  0  0  0  0  0  0  0  0  0  0  0
    0.8536    3.2929    2.7532 H   0  0  0  0  0  0  0  0  0  0  0  0
    0.2813    3.6407    1.1091 H   0  0  0  0  0  0  0  0  0  0  0  0
  1  2  1  0  0  0  0
  2  3  1  0  0  0  0
  2  4  1  0  0  0  0
  2  5  1  0  0  0  0
  5  6  2  0  0  0  0
  5  7  1  0  0  0  0
  7  8  1  0  0  0  0
  7  9  1  0  0  0  0
  9 10  1  0  0  0  0
  9 11  1  0  0  0  0
  9 24  1  0  0  0  0
 11 12  1  0  0  0  0
 11 13  1  0  0  0  0
 11 14  1  0  0  0  0
 14 15  1  0  0  0  0
 14 16  1  0  0  0  0
 14 20  1  0  0  0  0
 16 17  1  0  0  0  0
 16 18  1  0  0  0  0
 16 19  1  0  0  0  0
 20 21  1  0  0  0  0
 20 22  1  0  0  0  0
 20 23  1  0  0  0  0
 24 25  2  0  0  0  0
 24 26  1  0  0  0  0
 26 27  1  0  0  0  0
 26 28  1  0  0  0  0
 28 29  1  0  0  0  0
 28 30  1  0  0  0  0
 28 31  1  0  0  0  0
M  END
$$$$

  -OEChem-03222214063D

 31 30  0     1  0  0  0  0  0999 V2000
   -3.4805   -3.9095    1.1785 H   0  0  0  0  0  0  0  0  0  0  0  0
   -3.3760   -2.9410    0.6814 C   0  0  0  0  0  0  0  0  0  0  0  0
   -4.1329   -2.2584    1.0753 H   0  0  0  0  0  0  0  0  0  0  0  0
   -3.5396   -3.0769   -0.3904 H   0  0  0  0  0  0  0  0  0  0  0  0
   -1.9903   -2.3745    0.9267 C   0  0  0  0  0  0  0  0  0  0  0  0
   -1.2321   -2.9432    1.6947 O   0  0  0  0  0  0  0  0  0  0  0  0
   -1.6286   -1.1831    0.3342 N   0  0  0  0  0  0  0  0  0  0  0  0
   -2.3467   -0.6918   -0.1949 H   0  0  0  0  0  0  0  0  0  0  0  0
   -0.3073   -0.5387    0.4087 C   0  0  1  0  0  0  0  0  0  0  0  0
    0.2914   -0.9690    1.2177 H   0  0  0  0  0  0  0  0  0  0  0  0
    0.4344   -0.6912   -0.9450 C   0  0  0  0  0  0  0  0  0  0  0  0
   -0.2916   -0.9367   -1.7278 H   0  0  0  0  0  0  0  0  0  0  0  0
    0.8740    0.2742   -1.2205 H   0  0  0  0  0  0  0  0  0  0  0  0
    1.5740   -1.7322   -0.9617 C   0  0  0  0  0  0  0  0  0  0  0  0
    2.3305   -1.4400   -0.2256 H   0  0  0  0  0  0  0  0  0  0  0  0
    1.1032   -3.1518   -0.6299 C   0  0  0  0  0  0  0  0  0  0  0  0
    0.1897   -3.3977   -1.1799 H   0  0  0  0  0  0  0  0  0  0  0  0
    1.8731   -3.8843   -0.8911 H   0  0  0  0  0  0  0  0  0  0  0  0
    0.9123   -3.2464    0.4405 H   0  0  0  0  0  0  0  0  0  0  0  0
    2.2281   -1.7304   -2.3493 C   0  0  0  0  0  0  0  0  0  0  0  0
    2.5931   -0.7295   -2.6001 H   0  0  0  0  0  0  0  0  0  0  0  0
    3.0793   -2.4181   -2.3717 H   0  0  0  0  0  0  0  0  0  0  0  0
    1.5103   -2.0409   -3.1154 H   0  0  0  0  0  0  0  0  0  0  0  0
   -0.4934    0.9660    0.6964 C   0  0  0  0  0  0  0  0  0  0  0  0
   -1.3445    1.6067    0.0888 O   0  0  0  0  0  0  0  0  0  0  0  0
    0.2879    1.5993    1.6451 N   0  0  0  0  0  0  0  0  0  0  0  0
    0.9375    1.0263    2.1764 H   0  0  0  0  0  0  0  0  0  0  0  0
    0.1338    3.0048    1.9999 C   0  0  0  0  0  0  0  0  0  0  0  0
   -0.8711    3.1930    2.3921 H   0  0  0  0  0  0  0  0  0  0  0  0
    0.8626    3.2832    2.7670 H   0  0  0  0  0  0  0  0  0  0  0  0
    0.2950    3.6413    1.1235 H   0  0  0  0  0  0  0  0  0  0  0  0
  1  2  1  0  0  0  0
  2  3  1  0  0  0  0
  2  4  1  0  0  0  0
  2  5  1  0  0  0  0
  5  6  2  0  0  0  0
  5  7  1  0  0  0  0
  7  8  1  0  0  0  0
  7  9  1  0  0  0  0
  9 10  1  0  0  0  0
  9 11  1  0  0  0  0
  9 24  1  0  0  0  0
 11 12  1  0  0  0  0
 11 13  1  0  0  0  0
 11 14  1  0  0  0  0
 14 15  1  0  0  0  0
 14 16  1  0  0  0  0
 14 20  1  0  0  0  0
 16 17  1  0  0  0  0
 16 18  1  0  0  0  0
 16 19  1  0  0  0  0
 20 21  1  0  0  0  0
 20 22  1  0  0  0  0
 20 23  1  0  0  0  0
 24 25  2  0  0  0  0
 24 26  1  0  0  0  0
 26 27  1  0  0  0  0
 26 28  1  0  0  0  0
 28 29  1  0  0  0  0
 28 30  1  0  0  0  0
 28 31  1  0  0  0  0
M  END
$$$$

  -OEChem-03222214063D

 31 30  0     1  0  0  0  0  0999 V2000
   -3.4509   -3.9210    1.1908 H   0  0  0  0  0  0  0  0  0  0  0  0
   -3.3575   -2.9537    0.6894 C   0  0  0  0  0  0  0  0  0  0  0  0
   -4.1123   -2.2734    1.0908 H   0  0  0  0  0  0  0  0  0  0  0  0
   -3.5337   -3.0934   -0.3798 H   0  0  0  0  0  0  0  0  0  0  0  0
   -1.9715   -2.3803    0.9156 C   0  0  0  0  0  0  0  0  0  0  0  0
   -1.1961   -2.9476    1.6684 O   0  0  0  0  0  0  0  0  0  0  0  0
   -1.6251   -1.1832    0.3252 N   0  0  0  0  0  0  0  0  0  0  0  0
   -2.3514   -0.6893   -0.1902 H   0  0  0  0  0  0  0  0  0  0  0  0
   -0.3054   -0.5369    0.3975 C   0  0  1  0  0  0  0  0  0  0  0  0
    0.2963   -0.9712    1.2023 H   0  0  0  0  0  0  0  0  0  0  0  0
    0.4331   -0.6771   -0.9589 C   0  0  0  0  0  0  0  0  0  0  0  0
   -0.2856   -0.9071   -1.7528 H   0  0  0  0  0  0  0  0  0  0  0  0
    0.8761    0.2921   -1.2144 H   0  0  0  0  0  0  0  0  0  0  0  0
    1.5709   -1.7205   -0.9654 C   0  0  0  0  0  0  0  0  0  0  0  0
    2.1905   -1.5901   -0.0716 H   0  0  0  0  0  0  0  0  0  0  0  0
    1.0408   -3.1584   -0.9996 C   0  0  0  0  0  0  0  0  0  0  0  0
    0.3164   -3.2866   -1.8098 H   0  0  0  0  0  0  0  0  0  0  0  0
    1.8619   -3.8654   -1.1530 H   0  0  0  0  0  0  0  0  0  0  0  0
    0.5602   -3.4134   -0.0552 H   0  0  0  0  0  0  0  0  0  0  0  0
    2.4553   -1.4952   -2.1988 C   0  0  0  0  0  0  0  0  0  0  0  0
    2.8860   -0.4892   -2.1838 H   0  0  0  0  0  0  0  0  0  0  0  0
    3.2784   -2.2164   -2.2160 H   0  0  0  0  0  0  0  0  0  0  0  0
    1.8725   -1.6110   -3.1183 H   0  0  0  0  0  0  0  0  0  0  0  0
   -0.4957    0.9650    0.6962 C   0  0  0  0  0  0  0  0  0  0  0  0
   -1.3518    1.6069    0.0969 O   0  0  0  0  0  0  0  0  0  0  0  0
    0.2878    1.5944    1.6456 N   0  0  0  0  0  0  0  0  0  0  0  0
    0.9451    1.0210    2.1670 H   0  0  0  0  0  0  0  0  0  0  0  0
    0.1344    2.9983    2.0070 C   0  0  0  0  0  0  0  0  0  0  0  0
   -0.8702    3.1851    2.4009 H   0  0  0  0  0  0  0  0  0  0  0  0
    0.8640    3.2730    2.7748 H   0  0  0  0  0  0  0  0  0  0  0  0
    0.2953    3.6390    1.1336 H   0  0  0  0  0  0  0  0  0  0  0  0
  1  2  1  0  0  0  0
  2  3  1  0  0  0  0
  2  4  1  0  0  0  0
  2  5  1  0  0  0  0
  5  6  2  0  0  0  0
  5  7  1  0  0  0  0
  7  8  1  0  0  0  0
  7  9  1  0  0  0  0
  9 10  1  0  0  0  0
  9 11  1  0  0  0  0
  9 24  1  0  0  0  0
 11 12  1  0  0  0  0
 11 13  1  0  0  0  0
 11 14  1  0  0  0  0
 14 15  1  0  0  0  0
 14 16  1  0  0  0  0
 14 20  1  0  0  0  0
 16 17  1  0  0  0  0
 16 18  1  0  0  0  0
 16 19  1  0  0  0  0
 20 21  1  0  0  0  0
 20 22  1  0  0  0  0
 20 23  1  0  0  0  0
 24 25  2  0  0  0  0
 24 26  1  0  0  0  0
 26 27  1  0  0  0  0
 26 28  1  0  0  0  0
 28 29  1  0  0  0  0
 28 30  1  0  0  0  0
 28 31  1  0  0  0  0
M  END
$$$$

  -OEChem-03222214063D

 31 30  0     1  0  0  0  0  0999 V2000
   -3.4117   -3.9270    1.2167 H   0  0  0  0  0  0  0  0  0  0  0  0
   -3.3357   -2.9614    0.7088 C   0  0  0  0  0  0  0  0  0  0  0  0
   -4.0690   -2.2766    1.1414 H   0  0  0  0  0  0  0  0  0  0  0  0
   -3.5605   -3.1029   -0.3510 H   0  0  0  0  0  0  0  0  0  0  0  0
   -1.9378   -2.3943    0.8699 C   0  0  0  0  0  0  0  0  0  0  0  0
   -1.1086   -2.9996    1.5308 O   0  0  0  0  0  0  0  0  0  0  0  0
   -1.6221   -1.1821    0.2928 N   0  0  0  0  0  0  0  0  0  0  0  0
   -2.3744   -0.6653   -0.1595 H   0  0  0  0  0  0  0  0  0  0  0  0
   -0.3104   -0.5225    0.3687 C   0  0  1  0  0  0  0  0  0  0  0  0
    0.2900   -0.9556    1.1748 H   0  0  0  0  0  0  0  0  0  0  0  0
    0.4243   -0.6628   -0.9877 C   0  0  0  0  0  0  0  0  0  0  0  0
   -0.2887   -0.8953   -1.7860 H   0  0  0  0  0  0  0  0  0  0  0  0
    0.8611    0.3093   -1.2419 H   0  0  0  0  0  0  0  0  0  0  0  0
    1.5651   -1.7053   -0.9650 C   0  0  0  0  0  0  0  0  0  0  0  0
    2.0149   -1.7507    0.0324 H   0  0  0  0  0  0  0  0  0  0  0  0
    1.0473   -3.0968   -1.3501 C   0  0  0  0  0  0  0  0  0  0  0  0
    0.6110   -3.0854   -2.3538 H   0  0  0  0  0  0  0  0  0  0  0  0
    1.8650   -3.8241   -1.3357 H   0  0  0  0  0  0  0  0  0  0  0  0
    0.2843   -3.4339   -0.6456 H   0  0  0  0  0  0  0  0  0  0  0  0
    2.6597   -1.3022   -1.9619 C   0  0  0  0  0  0  0  0  0  0  0  0
    3.0932   -0.3362   -1.6849 H   0  0  0  0  0  0  0  0  0  0  0  0
    3.4628   -2.0460   -1.9688 H   0  0  0  0  0  0  0  0  0  0  0  0
    2.2507   -1.2229   -2.9744 H   0  0  0  0  0  0  0  0  0  0  0  0
   -0.5061    0.9733    0.6917 C   0  0  0  0  0  0  0  0  0  0  0  0
   -1.3770    1.6162    0.1155 O   0  0  0  0  0  0  0  0  0  0  0  0
    0.2801    1.5929    1.6456 N   0  0  0  0  0  0  0  0  0  0  0  0
    0.9571    1.0199    2.1415 H   0  0  0  0  0  0  0  0  0  0  0  0
    0.1279    2.9924    2.0239 C   0  0  0  0  0  0  0  0  0  0  0  0
   -0.8766    3.1754    2.4196 H   0  0  0  0  0  0  0  0  0  0  0  0
    0.8573    3.2569    2.7956 H   0  0  0  0  0  0  0  0  0  0  0  0
    0.2903    3.6430    1.1582 H   0  0  0  0  0  0  0  0  0  0  0  0
  1  2  1  0  0  0  0
  2  3  1  0  0  0  0
  2  4  1  0  0  0  0
  2  5  1  0  0  0  0
  5  6  2  0  0  0  0
  5  7  1  0  0  0  0
  7  8  1  0  0  0  0
  7  9  1  0  0  0  0
  9 10  1  0  0  0  0
  9 11  1  0  0  0  0
  9 24  1  0  0  0  0
 11 12  1  0  0  0  0
 11 13  1  0  0  0  0
 11 14  1  0  0  0  0
 14 15  1  0  0  0  0
 14 16  1  0  0  0  0
 14 20  1  0  0  0  0
 16 17  1  0  0  0  0
 16 18  1  0  0  0  0
 16 19  1  0  0  0  0
 20 21  1  0  0  0  0
 20 22  1  0  0  0  0
 20 23  1  0  0  0  0
 24 25  2  0  0  0  0
 24 26  1  0  0  0  0
 26 27  1  0  0  0  0
 26 28  1  0  0  0  0
 28 29  1  0  0  0  0
 28 30  1  0  0  0  0
 28 31  1  0  0  0  0
M  END
$$$$

  -OEChem-03222214063D

 31 30  0     1  0  0  0  0  0999 V2000
   -3.3854   -3.9157    1.2375 H   0  0  0  0  0  0  0  0  0  0  0  0
   -3.3225   -2.9517    0.7247 C   0  0  0  0  0  0  0  0  0  0  0  0
   -4.0252   -2.2575    1.1921 H   0  0  0  0  0  0  0  0  0  0  0  0
   -3.6005   -3.0910   -0.3227 H   0  0  0  0  0  0  0  0  0  0  0  0
   -1.9116   -2.4015    0.8156 C   0  0  0  0  0  0  0  0  0  0  0  0
   -1.0431   -3.0415    1.3877 O   0  0  0  0  0  0  0  0  0  0  0  0
   -1.6185   -1.1773    0.2526 N   0  0  0  0  0  0  0  0  0  0  0  0
   -2.3923   -0.6378   -0.1324 H   0  0  0  0  0  0  0  0  0  0  0  0
   -0.3143   -0.5057    0.3396 C   0  0  1  0  0  0  0  0  0  0  0  0
    0.2794   -0.9353    1.1520 H   0  0  0  0  0  0  0  0  0  0  0  0
    0.4198   -0.6581   -1.0132 C   0  0  0  0  0  0  0  0  0  0  0  0
   -0.2934   -0.9045   -1.8072 H   0  0  0  0  0  0  0  0  0  0  0  0
    0.8467    0.3139   -1.2835 H   0  0  0  0  0  0  0  0  0  0  0  0
    1.5639   -1.7008   -0.9634 C   0  0  0  0  0  0  0  0  0  0  0  0
    1.8250   -1.9413    0.0721 H   0  0  0  0  0  0  0  0  0  0  0  0
    1.1373   -2.9904   -1.6744 C   0  0  0  0  0  0  0  0  0  0  0  0
    0.9112   -2.7993   -2.7283 H   0  0  0  0  0  0  0  0  0  0  0  0
    1.9355   -3.7371   -1.6197 H   0  0  0  0  0  0  0  0  0  0  0  0
    0.2462   -3.4092   -1.1970 H   0  0  0  0  0  0  0  0  0  0  0  0
    2.8194   -1.1495   -1.6518 C   0  0  0  0  0  0  0  0  0  0  0  0
    3.1772   -0.2545   -1.1333 H   0  0  0  0  0  0  0  0  0  0  0  0
    3.6207   -1.8949   -1.6382 H   0  0  0  0  0  0  0  0  0  0  0  0
    2.6063   -0.8879   -2.6934 H   0  0  0  0  0  0  0  0  0  0  0  0
   -0.5134    0.9847    0.6815 C   0  0  0  0  0  0  0  0  0  0  0  0
   -1.3991    1.6264    0.1274 O   0  0  0  0  0  0  0  0  0  0  0  0
    0.2708    1.5951    1.6428 N   0  0  0  0  0  0  0  0  0  0  0  0
    0.9625    1.0228    2.1189 H   0  0  0  0  0  0  0  0  0  0  0  0
    0.1116    2.9885    2.0405 C   0  0  0  0  0  0  0  0  0  0  0  0
   -0.8930    3.1606    2.4408 H   0  0  0  0  0  0  0  0  0  0  0  0
    0.8410    3.2466    2.8141 H   0  0  0  0  0  0  0  0  0  0  0  0
    0.2683    3.6516    1.1832 H   0  0  0  0  0  0  0  0  0  0  0  0
  1  2  1  0  0  0  0
  2  3  1  0  0  0  0
  2  4  1  0  0  0  0
  2  5  1  0  0  0  0
  5  6  2  0  0  0  0
  5  7  1  0  0  0  0
  7  8  1  0  0  0  0
  7  9  1  0  0  0  0
  9 10  1  0  0  0  0
  9 11  1  0  0  0  0
  9 24  1  0  0  0  0
 11 12  1  0  0  0  0
 11 13  1  0  0  0  0
 11 14  1  0  0  0  0
 14 15  1  0  0  0  0
 14 16  1  0  0  0  0
 14 20  1  0  0  0  0
 16 17  1  0  0  0  0
 16 18  1  0  0  0  0
 16 19  1  0  0  0  0
 20 21  1  0  0  0  0
 20 22  1  0  0  0  0
 20 23  1  0  0  0  0
 24 25  2  0  0  0  0
 24 26  1  0  0  0  0
 26 27  1  0  0  0  0
 26 28  1  0  0  0  0
 28 29  1  0  0  0  0
 28 30  1  0  0  0  0
 28 31  1  0  0  0  0
M  END
$$$$

  -OEChem-03222214063D

 31 30  0     1  0  0  0  0  0999 V2000
   -3.3816   -3.9062    1.2561 H   0  0  0  0  0  0  0  0  0  0  0  0
   -3.3229   -2.9428    0.7419 C   0  0  0  0  0  0  0  0  0  0  0  0
   -4.0107   -2.2437    1.2237 H   0  0  0  0  0  0  0  0  0  0  0  0
   -3.6240   -3.0799   -0.2994 H   0  0  0  0  0  0  0  0  0  0  0  0
   -1.9067   -2.4020    0.8026 C   0  0  0  0  0  0  0  0  0  0  0  0
   -1.0281   -3.0507    1.3490 O   0  0  0  0  0  0  0  0  0  0  0  0
   -1.6196   -1.1760    0.2404 N   0  0  0  0  0  0  0  0  0  0  0  0
   -2.3993   -0.6282   -0.1202 H   0  0  0  0  0  0  0  0  0  0  0  0
   -0.3158   -0.5043    0.3256 C   0  0  1  0  0  0  0  0  0  0  0  0
    0.2804   -0.9321    1.1371 H   0  0  0  0  0  0  0  0  0  0  0  0
    0.4167   -0.6546   -1.0276 C   0  0  0  0  0  0  0  0  0  0  0  0
   -0.3054   -0.9156   -1.8091 H   0  0  0  0  0  0  0  0  0  0  0  0
    0.8340    0.3158   -1.3186 H   0  0  0  0  0  0  0  0  0  0  0  0
    1.5608   -1.6989   -0.9754 C   0  0  0  0  0  0  0  0  0  0  0  0
    1.6156   -2.1567    0.0176 H   0  0  0  0  0  0  0  0  0  0  0  0
    1.2999   -2.8232   -1.9838 C   0  0  0  0  0  0  0  0  0  0  0  0
    1.2541   -2.4274   -3.0033 H   0  0  0  0  0  0  0  0  0  0  0  0
    2.0981   -3.5705   -1.9368 H   0  0  0  0  0  0  0  0  0  0  0  0
    0.3510   -3.3205   -1.7579 H   0  0  0  0  0  0  0  0  0  0  0  0
    2.9139   -1.0409   -1.2714 C   0  0  0  0  0  0  0  0  0  0  0  0
    3.1270   -0.2607   -0.5341 H   0  0  0  0  0  0  0  0  0  0  0  0
    3.7167   -1.7836   -1.2263 H   0  0  0  0  0  0  0  0  0  0  0  0
    2.9150   -0.5893   -2.2687 H   0  0  0  0  0  0  0  0  0  0  0  0
   -0.5153    0.9850    0.6713 C   0  0  0  0  0  0  0  0  0  0  0  0
   -1.4065    1.6254    0.1246 O   0  0  0  0  0  0  0  0  0  0  0  0
    0.2705    1.5943    1.6320 N   0  0  0  0  0  0  0  0  0  0  0  0
    0.9671    1.0233    2.1023 H   0  0  0  0  0  0  0  0  0  0  0  0
    0.1074    2.9854    2.0359 C   0  0  0  0  0  0  0  0  0  0  0  0
   -0.8950    3.1517    2.4443 H   0  0  0  0  0  0  0  0  0  0  0  0
    0.8413    3.2443    2.8051 H   0  0  0  0  0  0  0  0  0  0  0  0
    0.2545    3.6522    1.1798 H   0  0  0  0  0  0  0  0  0  0  0  0
  1  2  1  0  0  0  0
  2  3  1  0  0  0  0
  2  4  1  0  0  0  0
  2  5  1  0  0  0  0
  5  6  2  0  0  0  0
  5  7  1  0  0  0  0
  7  8  1  0  0  0  0
  7  9  1  0  0  0  0
  9 10  1  0  0  0  0
  9 11  1  0  0  0  0
  9 24  1  0  0  0  0
 11 12  1  0  0  0  0
 11 13  1  0  0  0  0
 11 14  1  0  0  0  0
 14 15  1  0  0  0  0
 14 16  1  0  0  0  0
 14 20  1  0  0  0  0
 16 17  1  0  0  0  0
 16 18  1  0  0  0  0
 16 19  1  0  0  0  0
 20 21  1  0  0  0  0
 20 22  1  0  0  0  0
 20 23  1  0  0  0  0
 24 25  2  0  0  0  0
 24 26  1  0  0  0  0
 26 27  1  0  0  0  0
 26 28  1  0  0  0  0
 28 29  1  0  0  0  0
 28 30  1  0  0  0  0
 28 31  1  0  0  0  0
M  END
$$$$

  -OEChem-03222214063D

 31 30  0     1  0  0  0  0  0999 V2000
   -3.3729   -3.9105    1.2575 H   0  0  0  0  0  0  0  0  0  0  0  0
   -3.3181   -2.9480    0.7415 C   0  0  0  0  0  0  0  0  0  0  0  0
   -4.0073   -2.2503    1.2232 H   0  0  0  0  0  0  0  0  0  0  0  0
   -3.6200   -3.0880   -0.2991 H   0  0  0  0  0  0  0  0  0  0  0  0
   -1.9036   -2.4031    0.7994 C   0  0  0  0  0  0  0  0  0  0  0  0
   -1.0217   -3.0499    1.3428 O   0  0  0  0  0  0  0  0  0  0  0  0
   -1.6220   -1.1753    0.2382 N   0  0  0  0  0  0  0  0  0  0  0  0
   -2.4044   -0.6295   -0.1193 H   0  0  0  0  0  0  0  0  0  0  0  0
   -0.3182   -0.5017    0.3147 C   0  0  1  0  0  0  0  0  0  0  0  0
    0.2869   -0.9326    1.1185 H   0  0  0  0  0  0  0  0  0  0  0  0
    0.4091   -0.6459   -1.0408 C   0  0  0  0  0  0  0  0  0  0  0  0
   -0.3200   -0.9272   -1.8085 H   0  0  0  0  0  0  0  0  0  0  0  0
    0.8187    0.3215   -1.3522 H   0  0  0  0  0  0  0  0  0  0  0  0
    1.5510   -1.6875   -0.9820 C   0  0  0  0  0  0  0  0  0  0  0  0
    1.4155   -2.3348   -0.1084 H   0  0  0  0  0  0  0  0  0  0  0  0
    1.5088   -2.5997   -2.2125 C   0  0  0  0  0  0  0  0  0  0  0  0
    1.6235   -2.0152   -3.1308 H   0  0  0  0  0  0  0  0  0  0  0  0
    2.3149   -3.3385   -2.1671 H   0  0  0  0  0  0  0  0  0  0  0  0
    0.5555   -3.1360   -2.2552 H   0  0  0  0  0  0  0  0  0  0  0  0
    2.9147   -0.9983   -0.8654 C   0  0  0  0  0  0  0  0  0  0  0  0
    2.9456   -0.3656    0.0270 H   0  0  0  0  0  0  0  0  0  0  0  0
    3.7118   -1.7441   -0.7858 H   0  0  0  0  0  0  0  0  0  0  0  0
    3.1100   -0.3745   -1.7436 H   0  0  0  0  0  0  0  0  0  0  0  0
   -0.5135    0.9867    0.6655 C   0  0  0  0  0  0  0  0  0  0  0  0
   -1.4076    1.6299    0.1268 O   0  0  0  0  0  0  0  0  0  0  0  0
    0.2811    1.5926    1.6211 N   0  0  0  0  0  0  0  0  0  0  0  0
    0.9813    1.0194    2.0834 H   0  0  0  0  0  0  0  0  0  0  0  0
    0.1254    2.9836    2.0280 C   0  0  0  0  0  0  0  0  0  0  0  0
   -0.8736    3.1531    2.4433 H   0  0  0  0  0  0  0  0  0  0  0  0
    0.8653    3.2385    2.7927 H   0  0  0  0  0  0  0  0  0  0  0  0
    0.2692    3.6508    1.1718 H   0  0  0  0  0  0  0  0  0  0  0  0
  1  2  1  0  0  0  0
  2  3  1  0  0  0  0
  2  4  1  0  0  0  0
  2  5  1  0  0  0  0
  5  6  2  0  0  0  0
  5  7  1  0  0  0  0
  7  8  1  0  0  0  0
  7  9  1  0  0  0  0
  9 10  1  0  0  0  0
  9 11  1  0  0  0  0
  9 24  1  0  0  0  0
 11 12  1  0  0  0  0
 11 13  1  0  0  0  0
 11 14  1  0  0  0  0
 14 15  1  0  0  0  0
 14 16  1  0  0  0  0
 14 20  1  0  0  0  0
 16 17  1  0  0  0  0
 16 18  1  0  0  0  0
 16 19  1  0  0  0  0
 20 21  1  0  0  0  0
 20 22  1  0  0  0  0
 20 23  1  0  0  0  0
 24 25  2  0  0  0  0
 24 26  1  0  0  0  0
 26 27  1  0  0  0  0
 26 28  1  0  0  0  0
 28 29  1  0  0  0  0
 28 30  1  0  0  0  0
 28 31  1  0  0  0  0
M  END
$$$$

  -OEChem-03222214063D

 31 30  0     1  0  0  0  0  0999 V2000
   -3.3722   -3.9107    1.2554 H   0  0  0  0  0  0  0  0  0  0  0  0
   -3.3179   -2.9479    0.7398 C   0  0  0  0  0  0  0  0  0  0  0  0
   -4.0050   -2.2499    1.2240 H   0  0  0  0  0  0  0  0  0  0  0  0
   -3.6233   -3.0873   -0.3000 H   0  0  0  0  0  0  0  0  0  0  0  0
   -1.9028   -2.4040    0.7946 C   0  0  0  0  0  0  0  0  0  0  0  0
   -1.0212   -3.0510    1.3381 O   0  0  0  0  0  0  0  0  0  0  0  0
   -1.6216   -1.1753    0.2351 N   0  0  0  0  0  0  0  0  0  0  0  0
   -2.4046   -0.6301   -0.1222 H   0  0  0  0  0  0  0  0  0  0  0  0
   -0.3180   -0.5003    0.3091 C   0  0  1  0  0  0  0  0  0  0  0  0
    0.2896   -0.9371    1.1082 H   0  0  0  0  0  0  0  0  0  0  0  0
    0.4100   -0.6415   -1.0458 C   0  0  0  0  0  0  0  0  0  0  0  0
   -0.3168   -0.9338   -1.8114 H   0  0  0  0  0  0  0  0  0  0  0  0
    0.8216    0.3233   -1.3624 H   0  0  0  0  0  0  0  0  0  0  0  0
    1.5488   -1.6795   -0.9769 C   0  0  0  0  0  0  0  0  0  0  0  0
    1.2685   -2.4738   -0.2757 H   0  0  0  0  0  0  0  0  0  0  0  0
    1.7507   -2.3411   -2.3439 C   0  0  0  0  0  0  0  0  0  0  0  0
    2.0123   -1.5935   -3.0994 H   0  0  0  0  0  0  0  0  0  0  0  0
    2.5553   -3.0812   -2.2936 H   0  0  0  0  0  0  0  0  0  0  0  0
    0.8357   -2.8518   -2.6598 H   0  0  0  0  0  0  0  0  0  0  0  0
    2.8512   -1.0333   -0.4909 C   0  0  0  0  0  0  0  0  0  0  0  0
    2.7101   -0.5820    0.4957 H   0  0  0  0  0  0  0  0  0  0  0  0
    3.6421   -1.7859   -0.4136 H   0  0  0  0  0  0  0  0  0  0  0  0
    3.1804   -0.2548   -1.1866 H   0  0  0  0  0  0  0  0  0  0  0  0
   -0.5114    0.9877    0.6626 C   0  0  0  0  0  0  0  0  0  0  0  0
   -1.4067    1.6320    0.1274 O   0  0  0  0  0  0  0  0  0  0  0  0
    0.2864    1.5918    1.6166 N   0  0  0  0  0  0  0  0  0  0  0  0
    0.9871    1.0173    2.0763 H   0  0  0  0  0  0  0  0  0  0  0  0
    0.1330    2.9824    2.0259 C   0  0  0  0  0  0  0  0  0  0  0  0
   -0.8639    3.1509    2.4467 H   0  0  0  0  0  0  0  0  0  0  0  0
    0.8769    3.2363    2.7870 H   0  0  0  0  0  0  0  0  0  0  0  0
    0.2725    3.6508    1.1698 H   0  0  0  0  0  0  0  0  0  0  0  0
  1  2  1  0  0  0  0
  2  3  1  0  0  0  0
  2  4  1  0  0  0  0
  2  5  1  0  0  0  0
  5  6  2  0  0  0  0
  5  7  1  0  0  0  0
  7  8  1  0  0  0  0
  7  9  1  0  0  0  0
  9 10  1  0  0  0  0
  9 11  1  0  0  0  0
  9 24  1  0  0  0  0
 11 12  1  0  0  0  0
 11 13  1  0  0  0  0
 11 14  1  0  0  0  0
 14 15  1  0  0  0  0
 14 16  1  0  0  0  0
 14 20  1  0  0  0  0
 16 17  1  0  0  0  0
 16 18  1  0  0  0  0
 16 19  1  0  0  0  0
 20 21  1  0  0  0  0
 20 22  1  0  0  0  0
 20 23  1  0  0  0  0
 24 25  2  0  0  0  0
 24 26  1  0  0  0  0
 26 27  1  0  0  0  0
 26 28  1  0  0  0  0
 28 29  1  0  0  0  0
 28 30  1  0  0  0  0
 28 31  1  0  0  0  0
M  END
$$$$

  -OEChem-03222214063D

 31 30  0     1  0  0  0  0  0999 V2000
   -3.3868   -3.9064    1.2426 H   0  0  0  0  0  0  0  0  0  0  0  0
   -3.3280   -2.9430    0.7285 C   0  0  0  0  0  0  0  0  0  0  0  0
   -4.0186   -2.2450    1.2081 H   0  0  0  0  0  0  0  0  0  0  0  0
   -3.6252   -3.0810   -0.3138 H   0  0  0  0  0  0  0  0  0  0  0  0
   -1.9131   -2.3999    0.7953 C   0  0  0  0  0  0  0  0  0  0  0  0
   -1.0367   -3.0473    1.3466 O   0  0  0  0  0  0  0  0  0  0  0  0
   -1.6258   -1.1730    0.2349 N   0  0  0  0  0  0  0  0  0  0  0  0
   -2.4054   -0.6284   -0.1307 H   0  0  0  0  0  0  0  0  0  0  0  0
   -0.3230   -0.4978    0.3189 C   0  0  1  0  0  0  0  0  0  0  0  0
    0.2688   -0.9378    1.1269 H   0  0  0  0  0  0  0  0  0  0  0  0
    0.4170   -0.6520   -1.0287 C   0  0  0  0  0  0  0  0  0  0  0  0
   -0.3008   -0.9468   -1.8019 H   0  0  0  0  0  0  0  0  0  0  0  0
    0.8357    0.3112   -1.3410 H   0  0  0  0  0  0  0  0  0  0  0  0
    1.5571   -1.6867   -0.9572 C   0  0  0  0  0  0  0  0  0  0  0  0
    1.1886   -2.5909   -0.4596 H   0  0  0  0  0  0  0  0  0  0  0  0
    1.9978   -2.0670   -2.3750 C   0  0  0  0  0  0  0  0  0  0  0  0
    2.3599   -1.1875   -2.9168 H   0  0  0  0  0  0  0  0  0  0  0  0
    2.8015   -2.8091   -2.3386 H   0  0  0  0  0  0  0  0  0  0  0  0
    1.1602   -2.4989   -2.9317 H   0  0  0  0  0  0  0  0  0  0  0  0
    2.7646   -1.1438   -0.1784 C   0  0  0  0  0  0  0  0  0  0  0  0
    2.4966   -0.9212    0.8577 H   0  0  0  0  0  0  0  0  0  0  0  0
    3.5699   -1.8850   -0.1659 H   0  0  0  0  0  0  0  0  0  0  0  0
    3.1439   -0.2285   -0.6435 H   0  0  0  0  0  0  0  0  0  0  0  0
   -0.5137    0.9918    0.6656 C   0  0  0  0  0  0  0  0  0  0  0  0
   -1.4033    1.6368    0.1220 O   0  0  0  0  0  0  0  0  0  0  0  0
    0.2784    1.5964    1.6242 N   0  0  0  0  0  0  0  0  0  0  0  0
    0.9740    1.0215    2.0911 H   0  0  0  0  0  0  0  0  0  0  0  0
    0.1262    2.9888    2.0276 C   0  0  0  0  0  0  0  0  0  0  0  0
   -0.8734    3.1617    2.4401 H   0  0  0  0  0  0  0  0  0  0  0  0
    0.8651    3.2434    2.7935 H   0  0  0  0  0  0  0  0  0  0  0  0
    0.2740    3.6539    1.1703 H   0  0  0  0  0  0  0  0  0  0  0  0
  1  2  1  0  0  0  0
  2  3  1  0  0  0  0
  2  4  1  0  0  0  0
  2  5  1  0  0  0  0
  5  6  2  0  0  0  0
  5  7  1  0  0  0  0
  7  8  1  0  0  0  0
  7  9  1  0  0  0  0
  9 10  1  0  0  0  0
  9 11  1  0  0  0  0
  9 24  1  0  0  0  0
 11 12  1  0  0  0  0
 11 13  1  0  0  0  0
 11 14  1  0  0  0  0
 14 15  1  0  0  0  0
 14 16  1  0  0  0  0
 14 20  1  0  0  0  0
 16 17  1  0  0  0  0
 16 18  1  0  0  0  0
 16 19  1  0  0  0  0
 20 21  1  0  0  0  0
 20 22  1  0  0  0  0
 20 23  1  0  0  0  0
 24 25  2  0  0  0  0
 24 26  1  0  0  0  0
 26 27  1  0  0  0  0
 26 28  1  0  0  0  0
 28 29  1  0  0  0  0
 28 30  1  0  0  0  0
 28 31  1  0  0  0  0
M  END
$$$$

  -OEChem-03222214063D

 31 30  0     1  0  0  0  0  0999 V2000
   -3.4251   -3.8769    1.2517 H   0  0  0  0  0  0  0  0  0  0  0  0
   -3.3478   -2.9170    0.7337 C   0  0  0  0  0  0  0  0  0  0  0  0
   -4.0465   -2.2125    1.1915 H   0  0  0  0  0  0  0  0  0  0  0  0
   -3.6194   -3.0597   -0.3150 H   0  0  0  0  0  0  0  0  0  0  0  0
   -1.9315   -2.3823    0.8324 C   0  0  0  0  0  0  0  0  0  0  0  0
   -1.0778   -3.0222    1.4264 O   0  0  0  0  0  0  0  0  0  0  0  0
   -1.6164   -1.1718    0.2518 N   0  0  0  0  0  0  0  0  0  0  0  0
   -2.3794   -0.6278   -0.1478 H   0  0  0  0  0  0  0  0  0  0  0  0
   -0.3099   -0.5083    0.3596 C   0  0  1  0  0  0  0  0  0  0  0  0
    0.2620   -0.9242    1.1911 H   0  0  0  0  0  0  0  0  0  0  0  0
    0.4458   -0.6763   -0.9762 C   0  0  0  0  0  0  0  0  0  0  0  0
   -0.2746   -0.6720   -1.8014 H   0  0  0  0  0  0  0  0  0  0  0  0
    1.0995    0.1910   -1.1209 H   0  0  0  0  0  0  0  0  0  0  0  0
    1.3239   -1.9442   -1.0584 C   0  0  0  0  0  0  0  0  0  0  0  0
    0.6844   -2.8280   -0.9575 H   0  0  0  0  0  0  0  0  0  0  0  0
    2.0074   -1.9808   -2.4310 C   0  0  0  0  0  0  0  0  0  0  0  0
    2.6750   -1.1222   -2.5553 H   0  0  0  0  0  0  0  0  0  0  0  0
    2.5952   -2.8974   -2.5415 H   0  0  0  0  0  0  0  0  0  0  0  0
    1.2595   -1.9586   -3.2297 H   0  0  0  0  0  0  0  0  0  0  0  0
    2.4136   -1.9974    0.0253 C   0  0  0  0  0  0  0  0  0  0  0  0
    1.9804   -2.1879    1.0107 H   0  0  0  0  0  0  0  0  0  0  0  0
    3.1173   -2.8094   -0.1833 H   0  0  0  0  0  0  0  0  0  0  0  0
    2.9713   -1.0564    0.0591 H   0  0  0  0  0  0  0  0  0  0  0  0
   -0.5098    0.9893    0.6659 C   0  0  0  0  0  0  0  0  0  0  0  0
   -1.3787    1.6239    0.0779 O   0  0  0  0  0  0  0  0  0  0  0  0
    0.2517    1.6152    1.6355 N   0  0  0  0  0  0  0  0  0  0  0  0
    0.9279    1.0495    2.1407 H   0  0  0  0  0  0  0  0  0  0  0  0
    0.0843    3.0153    2.0053 C   0  0  0  0  0  0  0  0  0  0  0  0
   -0.9245    3.1918    2.3930 H   0  0  0  0  0  0  0  0  0  0  0  0
    0.8060    3.2902    2.7806 H   0  0  0  0  0  0  0  0  0  0  0  0
    0.2467    3.6625    1.1370 H   0  0  0  0  0  0  0  0  0  0  0  0
  1  2  1  0  0  0  0
  2  3  1  0  0  0  0
  2  4  1  0  0  0  0
  2  5  1  0  0  0  0
  5  6  2  0  0  0  0
  5  7  1  0  0  0  0
  7  8  1  0  0  0  0
  7  9  1  0  0  0  0
  9 10  1  0  0  0  0
  9 11  1  0  0  0  0
  9 24  1  0  0  0  0
 11 12  1  0  0  0  0
 11 13  1  0  0  0  0
 11 14  1  0  0  0  0
 14 15  1  0  0  0  0
 14 16  1  0  0  0  0
 14 20  1  0  0  0  0
 16 17  1  0  0  0  0
 16 18  1  0  0  0  0
 16 19  1  0  0  0  0
 20 21  1  0  0  0  0
 20 22  1  0  0  0  0
 20 23  1  0  0  0  0
 24 25  2  0  0  0  0
 24 26  1  0  0  0  0
 26 27  1  0  0  0  0
 26 28  1  0  0  0  0
 28 29  1  0  0  0  0
 28 30  1  0  0  0  0
 28 31  1  0  0  0  0
M  END
$$$$

  -OEChem-03222214063D

 31 30  0     1  0  0  0  0  0999 V2000
   -3.4540   -3.8679    1.2364 H   0  0  0  0  0  0  0  0  0  0  0  0
   -3.3649   -2.9065    0.7229 C   0  0  0  0  0  0  0  0  0  0  0  0
   -4.0761   -2.2039    1.1638 H   0  0  0  0  0  0  0  0  0  0  0  0
   -3.6088   -3.0474   -0.3329 H   0  0  0  0  0  0  0  0  0  0  0  0
   -1.9530   -2.3691    0.8601 C   0  0  0  0  0  0  0  0  0  0  0  0
   -1.1210   -2.9983    1.4943 O   0  0  0  0  0  0  0  0  0  0  0  0
   -1.6203   -1.1674    0.2716 N   0  0  0  0  0  0  0  0  0  0  0  0
   -2.3701   -0.6323   -0.1635 H   0  0  0  0  0  0  0  0  0  0  0  0
   -0.3122   -0.5087    0.3875 C   0  0  1  0  0  0  0  0  0  0  0  0
    0.2508   -0.9111    1.2314 H   0  0  0  0  0  0  0  0  0  0  0  0
    0.4473   -0.6909   -0.9466 C   0  0  0  0  0  0  0  0  0  0  0  0
   -0.2635   -0.6702   -1.7797 H   0  0  0  0  0  0  0  0  0  0  0  0
    1.1049    0.1762   -1.0732 H   0  0  0  0  0  0  0  0  0  0  0  0
    1.3312   -1.9573   -1.0564 C   0  0  0  0  0  0  0  0  0  0  0  0
    0.6832   -2.8247   -1.2219 H   0  0  0  0  0  0  0  0  0  0  0  0
    2.2766   -1.7929   -2.2543 C   0  0  0  0  0  0  0  0  0  0  0  0
    2.9737   -0.9648   -2.0902 H   0  0  0  0  0  0  0  0  0  0  0  0
    2.8558   -2.7081   -2.4130 H   0  0  0  0  0  0  0  0  0  0  0  0
    1.7042   -1.5906   -3.1651 H   0  0  0  0  0  0  0  0  0  0  0  0
    2.1979   -2.2317    0.1841 C   0  0  0  0  0  0  0  0  0  0  0  0
    1.5869   -2.5894    1.0175 H   0  0  0  0  0  0  0  0  0  0  0  0
    2.9379   -3.0089   -0.0312 H   0  0  0  0  0  0  0  0  0  0  0  0
    2.7278   -1.3256    0.4939 H   0  0  0  0  0  0  0  0  0  0  0  0
   -0.5132    0.9927    0.6740 C   0  0  0  0  0  0  0  0  0  0  0  0
   -1.3696    1.6235    0.0639 O   0  0  0  0  0  0  0  0  0  0  0  0
    0.2381    1.6269    1.6463 N   0  0  0  0  0  0  0  0  0  0  0  0
    0.9024    1.0633    2.1694 H   0  0  0  0  0  0  0  0  0  0  0  0
    0.0776    3.0333    1.9934 C   0  0  0  0  0  0  0  0  0  0  0  0
   -0.9325    3.2221    2.3714 H   0  0  0  0  0  0  0  0  0  0  0  0
    0.7960    3.3151    2.7690 H   0  0  0  0  0  0  0  0  0  0  0  0
    0.2504    3.6664    1.1167 H   0  0  0  0  0  0  0  0  0  0  0  0
  1  2  1  0  0  0  0
  2  3  1  0  0  0  0
  2  4  1  0  0  0  0
  2  5  1  0  0  0  0
  5  6  2  0  0  0  0
  5  7  1  0  0  0  0
  7  8  1  0  0  0  0
  7  9  1  0  0  0  0
  9 10  1  0  0  0  0
  9 11  1  0  0  0  0
  9 24  1  0  0  0  0
 11 12  1  0  0  0  0
 11 13  1  0  0  0  0
 11 14  1  0  0  0  0
 14 15  1  0  0  0  0
 14 16  1  0  0  0  0
 14 20  1  0  0  0  0
 16 17  1  0  0  0  0
 16 18  1  0  0  0  0
 16 19  1  0  0  0  0
 20 21  1  0  0  0  0
 20 22  1  0  0  0  0
 20 23  1  0  0  0  0
 24 25  2  0  0  0  0
 24 26  1  0  0  0  0
 26 27  1  0  0  0  0
 26 28  1  0  0  0  0
 28 29  1  0  0  0  0
 28 30  1  0  0  0  0
 28 31  1  0  0  0  0
M  END
$$$$

  -OEChem-03222214063D

 31 30  0     1  0  0  0  0  0999 V2000
   -3.5172   -3.8548    1.2039 H   0  0  0  0  0  0  0  0  0  0  0  0
   -3.4019   -2.8913    0.6997 C   0  0  0  0  0  0  0  0  0  0  0  0
   -4.1354   -2.1904    1.1055 H   0  0  0  0  0  0  0  0  0  0  0  0
   -3.5904   -3.0284   -0.3678 H   0  0  0  0  0  0  0  0  0  0  0  0
   -1.9994   -2.3543    0.9134 C   0  0  0  0  0  0  0  0  0  0  0  0
   -1.2242   -2.9552    1.6386 O   0  0  0  0  0  0  0  0  0  0  0  0
   -1.6280   -1.1691    0.3149 N   0  0  0  0  0  0  0  0  0  0  0  0
   -2.3495   -0.6554   -0.1881 H   0  0  0  0  0  0  0  0  0  0  0  0
   -0.3137   -0.5194    0.4302 C   0  0  1  0  0  0  0  0  0  0  0  0
    0.2468   -0.9160    1.2794 H   0  0  0  0  0  0  0  0  0  0  0  0
    0.4478   -0.7080   -0.9060 C   0  0  0  0  0  0  0  0  0  0  0  0
   -0.2627   -0.6722   -1.7389 H   0  0  0  0  0  0  0  0  0  0  0  0
    1.1004    0.1646   -1.0209 H   0  0  0  0  0  0  0  0  0  0  0  0
    1.3414   -1.9685   -1.0613 C   0  0  0  0  0  0  0  0  0  0  0  0
    0.7355   -2.7756   -1.4868 H   0  0  0  0  0  0  0  0  0  0  0  0
    2.5051   -1.6380   -2.0082 C   0  0  0  0  0  0  0  0  0  0  0  0
    3.1605   -0.8762   -1.5734 H   0  0  0  0  0  0  0  0  0  0  0  0
    3.1011   -2.5337   -2.2099 H   0  0  0  0  0  0  0  0  0  0  0  0
    2.1217   -1.2630   -2.9625 H   0  0  0  0  0  0  0  0  0  0  0  0
    1.9756   -2.4796    0.2430 C   0  0  0  0  0  0  0  0  0  0  0  0
    1.2192   -2.8971    0.9102 H   0  0  0  0  0  0  0  0  0  0  0  0
    2.6955   -3.2764    0.0306 H   0  0  0  0  0  0  0  0  0  0  0  0
    2.4994   -1.6709    0.7624 H   0  0  0  0  0  0  0  0  0  0  0  0
   -0.5113    0.9882    0.6875 C   0  0  0  0  0  0  0  0  0  0  0  0
   -1.3501    1.6148    0.0491 O   0  0  0  0  0  0  0  0  0  0  0  0
    0.2338    1.6359    1.6553 N   0  0  0  0  0  0  0  0  0  0  0  0
    0.8790    1.0752    2.2047 H   0  0  0  0  0  0  0  0  0  0  0  0
    0.0711    3.0473    1.9803 C   0  0  0  0  0  0  0  0  0  0  0  0
   -0.9409    3.2408    2.3509 H   0  0  0  0  0  0  0  0  0  0  0  0
    0.7859    3.3409    2.7548 H   0  0  0  0  0  0  0  0  0  0  0  0
    0.2474    3.6675    1.0953 H   0  0  0  0  0  0  0  0  0  0  0  0
  1  2  1  0  0  0  0
  2  3  1  0  0  0  0
  2  4  1  0  0  0  0
  2  5  1  0  0  0  0
  5  6  2  0  0  0  0
  5  7  1  0  0  0  0
  7  8  1  0  0  0  0
  7  9  1  0  0  0  0
  9 10  1  0  0  0  0
  9 11  1  0  0  0  0
  9 24  1  0  0  0  0
 11 12  1  0  0  0  0
 11 13  1  0  0  0  0
 11 14  1  0  0  0  0
 14 15  1  0  0  0  0
 14 16  1  0  0  0  0
 14 20  1  0  0  0  0
 16 17  1  0  0  0  0
 16 18  1  0  0  0  0
 16 19  1  0  0  0  0
 20 21  1  0  0  0  0
 20 22  1  0  0  0  0
 20 23  1  0  0  0  0
 24 25  2  0  0  0  0
 24 26  1  0  0  0  0
 26 27  1  0  0  0  0
 26 28  1  0  0  0  0
 28 29  1  0  0  0  0
 28 30  1  0  0  0  0
 28 31  1  0  0  0  0
M  END
$$$$

  -OEChem-03222214063D

 31 30  0     1  0  0  0  0  0999 V2000
   -3.5369   -3.8617    1.1853 H   0  0  0  0  0  0  0  0  0  0  0  0
   -3.4130   -2.8963    0.6867 C   0  0  0  0  0  0  0  0  0  0  0  0
   -4.1845   -2.2113    1.0465 H   0  0  0  0  0  0  0  0  0  0  0  0
   -3.5346   -3.0387   -0.3897 H   0  0  0  0  0  0  0  0  0  0  0  0
   -2.0379   -2.3277    0.9819 C   0  0  0  0  0  0  0  0  0  0  0  0
   -1.3276   -2.8656    1.8149 O   0  0  0  0  0  0  0  0  0  0  0  0
   -1.6396   -1.1602    0.3660 N   0  0  0  0  0  0  0  0  0  0  0  0
   -2.3270   -0.6864   -0.2170 H   0  0  0  0  0  0  0  0  0  0  0  0
   -0.3166   -0.5245    0.4722 C   0  0  1  0  0  0  0  0  0  0  0  0
    0.2481   -0.9206    1.3194 H   0  0  0  0  0  0  0  0  0  0  0  0
    0.4489   -0.7058   -0.8676 C   0  0  0  0  0  0  0  0  0  0  0  0
   -0.2696   -0.6604   -1.6932 H   0  0  0  0  0  0  0  0  0  0  0  0
    1.0925    0.1740   -0.9815 H   0  0  0  0  0  0  0  0  0  0  0  0
    1.3490   -1.9598   -1.0714 C   0  0  0  0  0  0  0  0  0  0  0  0
    0.8343   -2.6384   -1.7600 H   0  0  0  0  0  0  0  0  0  0  0  0
    2.6865   -1.5305   -1.6950 C   0  0  0  0  0  0  0  0  0  0  0  0
    3.2468   -0.8860   -1.0100 H   0  0  0  0  0  0  0  0  0  0  0  0
    3.3009   -2.4061   -1.9271 H   0  0  0  0  0  0  0  0  0  0  0  0
    2.5125   -0.9820   -2.6263 H   0  0  0  0  0  0  0  0  0  0  0  0
    1.6927   -2.7539    0.1965 C   0  0  0  0  0  0  0  0  0  0  0  0
    0.8000   -3.2182    0.6140 H   0  0  0  0  0  0  0  0  0  0  0  0
    2.3968   -3.5583   -0.0379 H   0  0  0  0  0  0  0  0  0  0  0  0
    2.1511   -2.1093    0.9527 H   0  0  0  0  0  0  0  0  0  0  0  0
   -0.5093    0.9895    0.7019 C   0  0  0  0  0  0  0  0  0  0  0  0
   -1.3298    1.6131    0.0368 O   0  0  0  0  0  0  0  0  0  0  0  0
    0.2353    1.6511    1.6609 N   0  0  0  0  0  0  0  0  0  0  0  0
    0.8565    1.0929    2.2398 H   0  0  0  0  0  0  0  0  0  0  0  0
    0.0747    3.0681    1.9627 C   0  0  0  0  0  0  0  0  0  0  0  0
   -0.9366    3.2689    2.3314 H   0  0  0  0  0  0  0  0  0  0  0  0
    0.7911    3.3741    2.7312 H   0  0  0  0  0  0  0  0  0  0  0  0
    0.2505    3.6729    1.0669 H   0  0  0  0  0  0  0  0  0  0  0  0
  1  2  1  0  0  0  0
  2  3  1  0  0  0  0
  2  4  1  0  0  0  0
  2  5  1  0  0  0  0
  5  6  2  0  0  0  0
  5  7  1  0  0  0  0
  7  8  1  0  0  0  0
  7  9  1  0  0  0  0
  9 10  1  0  0  0  0
  9 11  1  0  0  0  0
  9 24  1  0  0  0  0
 11 12  1  0  0  0  0
 11 13  1  0  0  0  0
 11 14  1  0  0  0  0
 14 15  1  0  0  0  0
 14 16  1  0  0  0  0
 14 20  1  0  0  0  0
 16 17  1  0  0  0  0
 16 18  1  0  0  0  0
 16 19  1  0  0  0  0
 20 21  1  0  0  0  0
 20 22  1  0  0  0  0
 20 23  1  0  0  0  0
 24 25  2  0  0  0  0
 24 26  1  0  0  0  0
 26 27  1  0  0  0  0
 26 28  1  0  0  0  0
 28 29  1  0  0  0  0
 28 30  1  0  0  0  0
 28 31  1  0  0  0  0
M  END
$$$$

  -OEChem-03222214063D

 31 30  0     1  0  0  0  0  0999 V2000
   -3.5534   -3.8284    1.2688 H   0  0  0  0  0  0  0  0  0  0  0  0
   -3.4194   -2.8860    0.7304 C   0  0  0  0  0  0  0  0  0  0  0  0
   -4.1870   -2.1805    1.0575 H   0  0  0  0  0  0  0  0  0  0  0  0
   -3.5376   -3.0727   -0.3396 H   0  0  0  0  0  0  0  0  0  0  0  0
   -2.0409   -2.3168    1.0083 C   0  0  0  0  0  0  0  0  0  0  0  0
   -1.3254   -2.8441    1.8449 O   0  0  0  0  0  0  0  0  0  0  0  0
   -1.6448   -1.1540    0.3819 N   0  0  0  0  0  0  0  0  0  0  0  0
   -2.3331   -0.6816   -0.2014 H   0  0  0  0  0  0  0  0  0  0  0  0
   -0.3172   -0.5263    0.4794 C   0  0  1  0  0  0  0  0  0  0  0  0
    0.2517   -0.9208    1.3249 H   0  0  0  0  0  0  0  0  0  0  0  0
    0.4634   -0.6879   -0.8549 C   0  0  0  0  0  0  0  0  0  0  0  0
   -0.2626   -0.6531   -1.6744 H   0  0  0  0  0  0  0  0  0  0  0  0
    1.0928    0.2008   -0.9791 H   0  0  0  0  0  0  0  0  0  0  0  0
    1.3692   -1.9366   -1.0723 C   0  0  0  0  0  0  0  0  0  0  0  0
    1.0251   -2.4269   -1.9895 H   0  0  0  0  0  0  0  0  0  0  0  0
    2.8208   -1.4943   -1.3077 C   0  0  0  0  0  0  0  0  0  0  0  0
    3.2202   -0.9971   -0.4180 H   0  0  0  0  0  0  0  0  0  0  0  0
    3.4531   -2.3581   -1.5361 H   0  0  0  0  0  0  0  0  0  0  0  0
    2.8787   -0.8002   -2.1522 H   0  0  0  0  0  0  0  0  0  0  0  0
    1.3581   -3.0031    0.0285 C   0  0  0  0  0  0  0  0  0  0  0  0
    0.3702   -3.4603    0.0983 H   0  0  0  0  0  0  0  0  0  0  0  0
    2.0689   -3.8003   -0.2101 H   0  0  0  0  0  0  0  0  0  0  0  0
    1.6371   -2.5833    0.9988 H   0  0  0  0  0  0  0  0  0  0  0  0
   -0.5125    0.9884    0.7037 C   0  0  0  0  0  0  0  0  0  0  0  0
   -1.3367    1.6085    0.0395 O   0  0  0  0  0  0  0  0  0  0  0  0
    0.2341    1.6550    1.6576 N   0  0  0  0  0  0  0  0  0  0  0  0
    0.8608    1.1008    2.2344 H   0  0  0  0  0  0  0  0  0  0  0  0
    0.0735    3.0734    1.9523 C   0  0  0  0  0  0  0  0  0  0  0  0
   -0.9387    3.2763    2.3175 H   0  0  0  0  0  0  0  0  0  0  0  0
    0.7879    3.3828    2.7211 H   0  0  0  0  0  0  0  0  0  0  0  0
    0.2523    3.6741    1.0543 H   0  0  0  0  0  0  0  0  0  0  0  0
  1  2  1  0  0  0  0
  2  3  1  0  0  0  0
  2  4  1  0  0  0  0
  2  5  1  0  0  0  0
  5  6  2  0  0  0  0
  5  7  1  0  0  0  0
  7  8  1  0  0  0  0
  7  9  1  0  0  0  0
  9 10  1  0  0  0  0
  9 11  1  0  0  0  0
  9 24  1  0  0  0  0
 11 12  1  0  0  0  0
 11 13  1  0  0  0  0
 11 14  1  0  0  0  0
 14 15  1  0  0  0  0
 14 16  1  0  0  0  0
 14 20  1  0  0  0  0
 16 17  1  0  0  0  0
 16 18  1  0  0  0  0
 16 19  1  0  0  0  0
 20 21  1  0  0  0  0
 20 22  1  0  0  0  0
 20 23  1  0  0  0  0
 24 25  2  0  0  0  0
 24 26  1  0  0  0  0
 26 27  1  0  0  0  0
 26 28  1  0  0  0  0
 28 29  1  0  0  0  0
 28 30  1  0  0  0  0
 28 31  1  0  0  0  0
M  END
$$$$

  -OEChem-03222214063D

 31 30  0     1  0  0  0  0  0999 V2000
   -3.5625   -3.8257    1.2832 H   0  0  0  0  0  0  0  0  0  0  0  0
   -3.4284   -2.8808    0.7491 C   0  0  0  0  0  0  0  0  0  0  0  0
   -4.1859   -2.1713    1.0909 H   0  0  0  0  0  0  0  0  0  0  0  0
   -3.5622   -3.0592   -0.3205 H   0  0  0  0  0  0  0  0  0  0  0  0
   -2.0421   -2.3240    1.0120 C   0  0  0  0  0  0  0  0  0  0  0  0
   -1.3143   -2.8684    1.8265 O   0  0  0  0  0  0  0  0  0  0  0  0
   -1.6483   -1.1589    0.3882 N   0  0  0  0  0  0  0  0  0  0  0  0
   -2.3450   -0.6781   -0.1780 H   0  0  0  0  0  0  0  0  0  0  0  0
   -0.3193   -0.5306    0.4742 C   0  0  1  0  0  0  0  0  0  0  0  0
    0.2593   -0.9327    1.3107 H   0  0  0  0  0  0  0  0  0  0  0  0
    0.4635   -0.6828   -0.8594 C   0  0  0  0  0  0  0  0  0  0  0  0
   -0.2707   -0.6683   -1.6720 H   0  0  0  0  0  0  0  0  0  0  0  0
    1.0839    0.2091   -1.0027 H   0  0  0  0  0  0  0  0  0  0  0  0
    1.3694   -1.9291   -1.0653 C   0  0  0  0  0  0  0  0  0  0  0  0
    1.2317   -2.2491   -2.1039 H   0  0  0  0  0  0  0  0  0  0  0  0
    2.8457   -1.5371   -0.9172 C   0  0  0  0  0  0  0  0  0  0  0  0
    3.0463   -1.1769    0.0968 H   0  0  0  0  0  0  0  0  0  0  0  0
    3.4918   -2.3983   -1.1145 H   0  0  0  0  0  0  0  0  0  0  0  0
    3.1085   -0.7474   -1.6283 H   0  0  0  0  0  0  0  0  0  0  0  0
    1.0730   -3.1479   -0.1880 C   0  0  0  0  0  0  0  0  0  0  0  0
    0.0519   -3.4966   -0.3594 H   0  0  0  0  0  0  0  0  0  0  0  0
    1.7503   -3.9689   -0.4424 H   0  0  0  0  0  0  0  0  0  0  0  0
    1.2071   -2.9177    0.8725 H   0  0  0  0  0  0  0  0  0  0  0  0
   -0.5114    0.9831    0.7066 C   0  0  0  0  0  0  0  0  0  0  0  0
   -1.3433    1.6050    0.0538 O   0  0  0  0  0  0  0  0  0  0  0  0
    0.2450    1.6470    1.6547 N   0  0  0  0  0  0  0  0  0  0  0  0
    0.8805    1.0922    2.2214 H   0  0  0  0  0  0  0  0  0  0  0  0
    0.0874    3.0650    1.9531 C   0  0  0  0  0  0  0  0  0  0  0  0
   -0.9215    3.2671    2.3276 H   0  0  0  0  0  0  0  0  0  0  0  0
    0.8086    3.3740    2.7157 H   0  0  0  0  0  0  0  0  0  0  0  0
    0.2572    3.6670    1.0542 H   0  0  0  0  0  0  0  0  0  0  0  0
  1  2  1  0  0  0  0
  2  3  1  0  0  0  0
  2  4  1  0  0  0  0
  2  5  1  0  0  0  0
  5  6  2  0  0  0  0
  5  7  1  0  0  0  0
  7  8  1  0  0  0  0
  7  9  1  0  0  0  0
  9 10  1  0  0  0  0
  9 11  1  0  0  0  0
  9 24  1  0  0  0  0
 11 12  1  0  0  0  0
 11 13  1  0  0  0  0
 11 14  1  0  0  0  0
 14 15  1  0  0  0  0
 14 16  1  0  0  0  0
 14 20  1  0  0  0  0
 16 17  1  0  0  0  0
 16 18  1  0  0  0  0
 16 19  1  0  0  0  0
 20 21  1  0  0  0  0
 20 22  1  0  0  0  0
 20 23  1  0  0  0  0
 24 25  2  0  0  0  0
 24 26  1  0  0  0  0
 26 27  1  0  0  0  0
 26 28  1  0  0  0  0
 28 29  1  0  0  0  0
 28 30  1  0  0  0  0
 28 31  1  0  0  0  0
M  END
$$$$

  -OEChem-03222214063D

 31 30  0     1  0  0  0  0  0999 V2000
   -3.5642   -3.8406    1.2662 H   0  0  0  0  0  0  0  0  0  0  0  0
   -3.4294   -2.8921    0.7390 C   0  0  0  0  0  0  0  0  0  0  0  0
   -4.1903   -2.1865    1.0810 H   0  0  0  0  0  0  0  0  0  0  0  0
   -3.5570   -3.0644   -0.3324 H   0  0  0  0  0  0  0  0  0  0  0  0
   -2.0460   -2.3330    1.0126 C   0  0  0  0  0  0  0  0  0  0  0  0
   -1.3251   -2.8756    1.8340 O   0  0  0  0  0  0  0  0  0  0  0  0
   -1.6512   -1.1664    0.3922 N   0  0  0  0  0  0  0  0  0  0  0  0
   -2.3475   -0.6888   -0.1770 H   0  0  0  0  0  0  0  0  0  0  0  0
   -0.3222   -0.5358    0.4714 C   0  0  1  0  0  0  0  0  0  0  0  0
    0.2633   -0.9492    1.2986 H   0  0  0  0  0  0  0  0  0  0  0  0
    0.4562   -0.6824   -0.8651 C   0  0  0  0  0  0  0  0  0  0  0  0
   -0.2807   -0.6734   -1.6755 H   0  0  0  0  0  0  0  0  0  0  0  0
    1.0803    0.2060   -1.0147 H   0  0  0  0  0  0  0  0  0  0  0  0
    1.3592   -1.9265   -1.0620 C   0  0  0  0  0  0  0  0  0  0  0  0
    1.4314   -2.0931   -2.1422 H   0  0  0  0  0  0  0  0  0  0  0  0
    2.7781   -1.6350   -0.5567 C   0  0  0  0  0  0  0  0  0  0  0  0
    2.7690   -1.4284    0.5181 H   0  0  0  0  0  0  0  0  0  0  0  0
    3.4311   -2.4944   -0.7392 H   0  0  0  0  0  0  0  0  0  0  0  0
    3.2026   -0.7698   -1.0752 H   0  0  0  0  0  0  0  0  0  0  0  0
    0.8498   -3.2282   -0.4431 C   0  0  0  0  0  0  0  0  0  0  0  0
   -0.1795   -3.4244   -0.7551 H   0  0  0  0  0  0  0  0  0  0  0  0
    1.4683   -4.0684   -0.7733 H   0  0  0  0  0  0  0  0  0  0  0  0
    0.8990   -3.1848    0.6478 H   0  0  0  0  0  0  0  0  0  0  0  0
   -0.5112    0.9770    0.7092 C   0  0  0  0  0  0  0  0  0  0  0  0
   -1.3426    1.6027    0.0596 O   0  0  0  0  0  0  0  0  0  0  0  0
    0.2523    1.6375    1.6538 N   0  0  0  0  0  0  0  0  0  0  0  0
    0.8849    1.0788    2.2196 H   0  0  0  0  0  0  0  0  0  0  0  0
    0.1001    3.0553    1.9560 C   0  0  0  0  0  0  0  0  0  0  0  0
   -0.9054    3.2594    2.3387 H   0  0  0  0  0  0  0  0  0  0  0  0
    0.8283    3.3609    2.7136 H   0  0  0  0  0  0  0  0  0  0  0  0
    0.2644    3.6586    1.0569 H   0  0  0  0  0  0  0  0  0  0  0  0
  1  2  1  0  0  0  0
  2  3  1  0  0  0  0
  2  4  1  0  0  0  0
  2  5  1  0  0  0  0
  5  6  2  0  0  0  0
  5  7  1  0  0  0  0
  7  8  1  0  0  0  0
  7  9  1  0  0  0  0
  9 10  1  0  0  0  0
  9 11  1  0  0  0  0
  9 24  1  0  0  0  0
 11 12  1  0  0  0  0
 11 13  1  0  0  0  0
 11 14  1  0  0  0  0
 14 15  1  0  0  0  0
 14 16  1  0  0  0  0
 14 20  1  0  0  0  0
 16 17  1  0  0  0  0
 16 18  1  0  0  0  0
 16 19  1  0  0  0  0
 20 21  1  0  0  0  0
 20 22  1  0  0  0  0
 20 23  1  0  0  0  0
 24 25  2  0  0  0  0
 24 26  1  0  0  0  0
 26 27  1  0  0  0  0
 26 28  1  0  0  0  0
 28 29  1  0  0  0  0
 28 30  1  0  0  0  0
 28 31  1  0  0  0  0
M  END
$$$$

  -OEChem-03222214063D

 31 30  0     1  0  0  0  0  0999 V2000
   -3.5412   -3.8533    1.2728 H   0  0  0  0  0  0  0  0  0  0  0  0
   -3.4138   -2.9078    0.7384 C   0  0  0  0  0  0  0  0  0  0  0  0
   -4.1828   -2.2072    1.0726 H   0  0  0  0  0  0  0  0  0  0  0  0
   -3.5358   -3.0901   -0.3319 H   0  0  0  0  0  0  0  0  0  0  0  0
   -2.0367   -2.3337    1.0122 C   0  0  0  0  0  0  0  0  0  0  0  0
   -1.3121   -2.8645    1.8385 O   0  0  0  0  0  0  0  0  0  0  0  0
   -1.6502   -1.1656    0.3894 N   0  0  0  0  0  0  0  0  0  0  0  0
   -2.3456   -0.6945   -0.1863 H   0  0  0  0  0  0  0  0  0  0  0  0
   -0.3221   -0.5352    0.4692 C   0  0  1  0  0  0  0  0  0  0  0  0
    0.2615   -0.9507    1.2963 H   0  0  0  0  0  0  0  0  0  0  0  0
    0.4532   -0.6830   -0.8683 C   0  0  0  0  0  0  0  0  0  0  0  0
   -0.2763   -0.6605   -1.6850 H   0  0  0  0  0  0  0  0  0  0  0  0
    1.0939    0.1952   -1.0062 H   0  0  0  0  0  0  0  0  0  0  0  0
    1.3492   -1.9292   -1.0553 C   0  0  0  0  0  0  0  0  0  0  0  0
    1.6358   -1.9471   -2.1126 H   0  0  0  0  0  0  0  0  0  0  0  0
    2.6398   -1.8011   -0.2363 C   0  0  0  0  0  0  0  0  0  0  0  0
    2.4218   -1.7900    0.8359 H   0  0  0  0  0  0  0  0  0  0  0  0
    3.3040   -2.6459   -0.4439 H   0  0  0  0  0  0  0  0  0  0  0  0
    3.1691   -0.8787   -0.4942 H   0  0  0  0  0  0  0  0  0  0  0  0
    0.6649   -3.2640   -0.7570 C   0  0  0  0  0  0  0  0  0  0  0  0
   -0.3350   -3.2935   -1.1999 H   0  0  0  0  0  0  0  0  0  0  0  0
    1.2506   -4.0865   -1.1787 H   0  0  0  0  0  0  0  0  0  0  0  0
    0.5883   -3.4282    0.3195 H   0  0  0  0  0  0  0  0  0  0  0  0
   -0.5108    0.9773    0.7084 C   0  0  0  0  0  0  0  0  0  0  0  0
   -1.3413    1.6042    0.0588 O   0  0  0  0  0  0  0  0  0  0  0  0
    0.2529    1.6363    1.6538 N   0  0  0  0  0  0  0  0  0  0  0  0
    0.8857    1.0772    2.2192 H   0  0  0  0  0  0  0  0  0  0  0  0
    0.1027    3.0544    1.9551 C   0  0  0  0  0  0  0  0  0  0  0  0
   -0.9019    3.2602    2.3393 H   0  0  0  0  0  0  0  0  0  0  0  0
    0.8322    3.3600    2.7111 H   0  0  0  0  0  0  0  0  0  0  0  0
    0.2663    3.6561    1.0548 H   0  0  0  0  0  0  0  0  0  0  0  0
  1  2  1  0  0  0  0
  2  3  1  0  0  0  0
  2  4  1  0  0  0  0
  2  5  1  0  0  0  0
  5  6  2  0  0  0  0
  5  7  1  0  0  0  0
  7  8  1  0  0  0  0
  7  9  1  0  0  0  0
  9 10  1  0  0  0  0
  9 11  1  0  0  0  0
  9 24  1  0  0  0  0
 11 12  1  0  0  0  0
 11 13  1  0  0  0  0
 11 14  1  0  0  0  0
 14 15  1  0  0  0  0
 14 16  1  0  0  0  0
 14 20  1  0  0  0  0
 16 17  1  0  0  0  0
 16 18  1  0  0  0  0
 16 19  1  0  0  0  0
 20 21  1  0  0  0  0
 20 22  1  0  0  0  0
 20 23  1  0  0  0  0
 24 25  2  0  0  0  0
 24 26  1  0  0  0  0
 26 27  1  0  0  0  0
 26 28  1  0  0  0  0
 28 29  1  0  0  0  0
 28 30  1  0  0  0  0
 28 31  1  0  0  0  0
M  END
$$$$

  -OEChem-03222214063D

 31 30  0     1  0  0  0  0  0999 V2000
   -3.5217   -3.8527    1.2894 H   0  0  0  0  0  0  0  0  0  0  0  0
   -3.4053   -2.9074    0.7521 C   0  0  0  0  0  0  0  0  0  0  0  0
   -4.1683   -2.2071    1.1004 H   0  0  0  0  0  0  0  0  0  0  0  0
   -3.5480   -3.0905   -0.3156 H   0  0  0  0  0  0  0  0  0  0  0  0
   -2.0233   -2.3324    0.9989 C   0  0  0  0  0  0  0  0  0  0  0  0
   -1.2729   -2.8748    1.7948 O   0  0  0  0  0  0  0  0  0  0  0  0
   -1.6495   -1.1614    0.3734 N   0  0  0  0  0  0  0  0  0  0  0  0
   -2.3552   -0.6794   -0.1804 H   0  0  0  0  0  0  0  0  0  0  0  0
   -0.3235   -0.5303    0.4588 C   0  0  1  0  0  0  0  0  0  0  0  0
    0.2504   -0.9383    1.2948 H   0  0  0  0  0  0  0  0  0  0  0  0
    0.4526   -0.6898   -0.8758 C   0  0  0  0  0  0  0  0  0  0  0  0
   -0.2636   -0.6490   -1.7036 H   0  0  0  0  0  0  0  0  0  0  0  0
    1.1126    0.1766   -0.9964 H   0  0  0  0  0  0  0  0  0  0  0  0
    1.3438   -1.9412   -1.0479 C   0  0  0  0  0  0  0  0  0  0  0  0
    1.8373   -1.8317   -2.0197 H   0  0  0  0  0  0  0  0  0  0  0  0
    2.4447   -2.0207    0.0177 C   0  0  0  0  0  0  0  0  0  0  0  0
    2.0257   -2.2464    1.0028 H   0  0  0  0  0  0  0  0  0  0  0  0
    3.1564   -2.8121   -0.2372 H   0  0  0  0  0  0  0  0  0  0  0  0
    2.9904   -1.0741    0.0768 H   0  0  0  0  0  0  0  0  0  0  0  0
    0.5538   -3.2522   -1.0969 C   0  0  0  0  0  0  0  0  0  0  0  0
   -0.3365   -3.1442   -1.7238 H   0  0  0  0  0  0  0  0  0  0  0  0
    1.1767   -4.0471   -1.5186 H   0  0  0  0  0  0  0  0  0  0  0  0
    0.2477   -3.5646   -0.0977 H   0  0  0  0  0  0  0  0  0  0  0  0
   -0.5102    0.9823    0.6988 C   0  0  0  0  0  0  0  0  0  0  0  0
   -1.3430    1.6100    0.0531 O   0  0  0  0  0  0  0  0  0  0  0  0
    0.2520    1.6386    1.6477 N   0  0  0  0  0  0  0  0  0  0  0  0
    0.8887    1.0783    2.2073 H   0  0  0  0  0  0  0  0  0  0  0  0
    0.0979    3.0545    1.9586 C   0  0  0  0  0  0  0  0  0  0  0  0
   -0.9087    3.2558    2.3397 H   0  0  0  0  0  0  0  0  0  0  0  0
    0.8233    3.3551    2.7206 H   0  0  0  0  0  0  0  0  0  0  0  0
    0.2649    3.6639    1.0641 H   0  0  0  0  0  0  0  0  0  0  0  0
  1  2  1  0  0  0  0
  2  3  1  0  0  0  0
  2  4  1  0  0  0  0
  2  5  1  0  0  0  0
  5  6  2  0  0  0  0
  5  7  1  0  0  0  0
  7  8  1  0  0  0  0
  7  9  1  0  0  0  0
  9 10  1  0  0  0  0
  9 11  1  0  0  0  0
  9 24  1  0  0  0  0
 11 12  1  0  0  0  0
 11 13  1  0  0  0  0
 11 14  1  0  0  0  0
 14 15  1  0  0  0  0
 14 16  1  0  0  0  0
 14 20  1  0  0  0  0
 16 17  1  0  0  0  0
 16 18  1  0  0  0  0
 16 19  1  0  0  0  0
 20 21  1  0  0  0  0
 20 22  1  0  0  0  0
 20 23  1  0  0  0  0
 24 25  2  0  0  0  0
 24 26  1  0  0  0  0
 26 27  1  0  0  0  0
 26 28  1  0  0  0  0
 28 29  1  0  0  0  0
 28 30  1  0  0  0  0
 28 31  1  0  0  0  0
M  END
$$$$

  -OEChem-03222214063D

 31 30  0     1  0  0  0  0  0999 V2000
   -3.5170   -3.8426    1.3024 H   0  0  0  0  0  0  0  0  0  0  0  0
   -3.4082   -2.8930    0.7711 C   0  0  0  0  0  0  0  0  0  0  0  0
   -4.1462   -2.1858    1.1572 H   0  0  0  0  0  0  0  0  0  0  0  0
   -3.5956   -3.0617   -0.2920 H   0  0  0  0  0  0  0  0  0  0  0  0
   -2.0091   -2.3410    0.9685 C   0  0  0  0  0  0  0  0  0  0  0  0
   -1.2218   -2.9247    1.6970 O   0  0  0  0  0  0  0  0  0  0  0  0
   -1.6466   -1.1631    0.3496 N   0  0  0  0  0  0  0  0  0  0  0  0
   -2.3702   -0.6537   -0.1547 H   0  0  0  0  0  0  0  0  0  0  0  0
   -0.3241   -0.5279    0.4432 C   0  0  1  0  0  0  0  0  0  0  0  0
    0.2417   -0.9277    1.2877 H   0  0  0  0  0  0  0  0  0  0  0  0
    0.4531   -0.6975   -0.8884 C   0  0  0  0  0  0  0  0  0  0  0  0
   -0.2510   -0.6394   -1.7253 H   0  0  0  0  0  0  0  0  0  0  0  0
    1.1257    0.1613   -0.9918 H   0  0  0  0  0  0  0  0  0  0  0  0
    1.3447   -1.9529   -1.0503 C   0  0  0  0  0  0  0  0  0  0  0  0
    2.0229   -1.7465   -1.8854 H   0  0  0  0  0  0  0  0  0  0  0  0
    2.2082   -2.2575    0.1810 C   0  0  0  0  0  0  0  0  0  0  0  0
    1.6007   -2.6432    1.0055 H   0  0  0  0  0  0  0  0  0  0  0  0
    2.9584   -3.0147   -0.0665 H   0  0  0  0  0  0  0  0  0  0  0  0
    2.7284   -1.3551    0.5162 H   0  0  0  0  0  0  0  0  0  0  0  0
    0.5279   -3.1927   -1.4316 C   0  0  0  0  0  0  0  0  0  0  0  0
   -0.1206   -2.9776   -2.2862 H   0  0  0  0  0  0  0  0  0  0  0  0
    1.1980   -4.0125   -1.7079 H   0  0  0  0  0  0  0  0  0  0  0  0
   -0.0921   -3.5296   -0.5992 H   0  0  0  0  0  0  0  0  0  0  0  0
   -0.5131    0.9827    0.6926 C   0  0  0  0  0  0  0  0  0  0  0  0
   -1.3542    1.6100    0.0576 O   0  0  0  0  0  0  0  0  0  0  0  0
    0.2456    1.6344    1.6473 N   0  0  0  0  0  0  0  0  0  0  0  0
    0.8907    1.0741    2.1973 H   0  0  0  0  0  0  0  0  0  0  0  0
    0.0886    3.0478    1.9673 C   0  0  0  0  0  0  0  0  0  0  0  0
   -0.9197    3.2450    2.3461 H   0  0  0  0  0  0  0  0  0  0  0  0
    0.8108    3.3442    2.7341 H   0  0  0  0  0  0  0  0  0  0  0  0
    0.2580    3.6640    1.0779 H   0  0  0  0  0  0  0  0  0  0  0  0
  1  2  1  0  0  0  0
  2  3  1  0  0  0  0
  2  4  1  0  0  0  0
  2  5  1  0  0  0  0
  5  6  2  0  0  0  0
  5  7  1  0  0  0  0
  7  8  1  0  0  0  0
  7  9  1  0  0  0  0
  9 10  1  0  0  0  0
  9 11  1  0  0  0  0
  9 24  1  0  0  0  0
 11 12  1  0  0  0  0
 11 13  1  0  0  0  0
 11 14  1  0  0  0  0
 14 15  1  0  0  0  0
 14 16  1  0  0  0  0
 14 20  1  0  0  0  0
 16 17  1  0  0  0  0
 16 18  1  0  0  0  0
 16 19  1  0  0  0  0
 20 21  1  0  0  0  0
 20 22  1  0  0  0  0
 20 23  1  0  0  0  0
 24 25  2  0  0  0  0
 24 26  1  0  0  0  0
 26 27  1  0  0  0  0
 26 28  1  0  0  0  0
 28 29  1  0  0  0  0
 28 30  1  0  0  0  0
 28 31  1  0  0  0  0
M  END
$$$$

  -OEChem-03222214063D

 31 30  0     1  0  0  0  0  0999 V2000
   -3.5256   -3.8419    1.2679 H   0  0  0  0  0  0  0  0  0  0  0  0
   -3.4059   -2.8892    0.7447 C   0  0  0  0  0  0  0  0  0  0  0  0
   -4.1400   -2.1790    1.1329 H   0  0  0  0  0  0  0  0  0  0  0  0
   -3.5899   -3.0475   -0.3206 H   0  0  0  0  0  0  0  0  0  0  0  0
   -2.0031   -2.3507    0.9531 C   0  0  0  0  0  0  0  0  0  0  0  0
   -1.2264   -2.9484    1.6797 O   0  0  0  0  0  0  0  0  0  0  0  0
   -1.6311   -1.1701    0.3455 N   0  0  0  0  0  0  0  0  0  0  0  0
   -2.3519   -0.6588   -0.1612 H   0  0  0  0  0  0  0  0  0  0  0  0
   -0.3130   -0.5259    0.4502 C   0  0  1  0  0  0  0  0  0  0  0  0
    0.2516   -0.9231    1.2969 H   0  0  0  0  0  0  0  0  0  0  0  0
    0.4530   -0.7054   -0.8864 C   0  0  0  0  0  0  0  0  0  0  0  0
   -0.2537   -0.6332   -1.7203 H   0  0  0  0  0  0  0  0  0  0  0  0
    1.1285    0.1513   -0.9860 H   0  0  0  0  0  0  0  0  0  0  0  0
    1.3503   -1.9594   -1.0604 C   0  0  0  0  0  0  0  0  0  0  0  0
    2.1663   -1.6863   -1.7383 H   0  0  0  0  0  0  0  0  0  0  0  0
    1.9729   -2.5027    0.2334 C   0  0  0  0  0  0  0  0  0  0  0  0
    1.2176   -2.9437    0.8879 H   0  0  0  0  0  0  0  0  0  0  0  0
    2.7067   -3.2799   -0.0024 H   0  0  0  0  0  0  0  0  0  0  0  0
    2.4865   -1.7025    0.7745 H   0  0  0  0  0  0  0  0  0  0  0  0
    0.5513   -3.0888   -1.7235 C   0  0  0  0  0  0  0  0  0  0  0  0
    0.1438   -2.7583   -2.6839 H   0  0  0  0  0  0  0  0  0  0  0  0
    1.1963   -3.9539   -1.9069 H   0  0  0  0  0  0  0  0  0  0  0  0
   -0.2775   -3.4067   -1.0848 H   0  0  0  0  0  0  0  0  0  0  0  0
   -0.5114    0.9832    0.7010 C   0  0  0  0  0  0  0  0  0  0  0  0
   -1.3512    1.6059    0.0598 O   0  0  0  0  0  0  0  0  0  0  0  0
    0.2357    1.6393    1.6616 N   0  0  0  0  0  0  0  0  0  0  0  0
    0.8811    1.0836    2.2159 H   0  0  0  0  0  0  0  0  0  0  0  0
    0.0694    3.0526    1.9773 C   0  0  0  0  0  0  0  0  0  0  0  0
   -0.9423    3.2458    2.3493 H   0  0  0  0  0  0  0  0  0  0  0  0
    0.7853    3.3548    2.7478 H   0  0  0  0  0  0  0  0  0  0  0  0
    0.2411    3.6672    1.0872 H   0  0  0  0  0  0  0  0  0  0  0  0
  1  2  1  0  0  0  0
  2  3  1  0  0  0  0
  2  4  1  0  0  0  0
  2  5  1  0  0  0  0
  5  6  2  0  0  0  0
  5  7  1  0  0  0  0
  7  8  1  0  0  0  0
  7  9  1  0  0  0  0
  9 10  1  0  0  0  0
  9 11  1  0  0  0  0
  9 24  1  0  0  0  0
 11 12  1  0  0  0  0
 11 13  1  0  0  0  0
 11 14  1  0  0  0  0
 14 15  1  0  0  0  0
 14 16  1  0  0  0  0
 14 20  1  0  0  0  0
 16 17  1  0  0  0  0
 16 18  1  0  0  0  0
 16 19  1  0  0  0  0
 20 21  1  0  0  0  0
 20 22  1  0  0  0  0
 20 23  1  0  0  0  0
 24 25  2  0  0  0  0
 24 26  1  0  0  0  0
 26 27  1  0  0  0  0
 26 28  1  0  0  0  0
 28 29  1  0  0  0  0
 28 30  1  0  0  0  0
 28 31  1  0  0  0  0
M  END
$$$$

  -OEChem-03222214063D

 31 30  0     1  0  0  0  0  0999 V2000
   -3.5470   -3.8427    1.2608 H   0  0  0  0  0  0  0  0  0  0  0  0
   -3.4058   -2.9043    0.7174 C   0  0  0  0  0  0  0  0  0  0  0  0
   -4.1718   -2.1934    1.0364 H   0  0  0  0  0  0  0  0  0  0  0  0
   -3.5192   -3.0966   -0.3521 H   0  0  0  0  0  0  0  0  0  0  0  0
   -2.0261   -2.3394    0.9981 C   0  0  0  0  0  0  0  0  0  0  0  0
   -1.3050   -2.8831    1.8181 O   0  0  0  0  0  0  0  0  0  0  0  0
   -1.6336   -1.1713    0.3798 N   0  0  0  0  0  0  0  0  0  0  0  0
   -2.3273   -0.6954   -0.1940 H   0  0  0  0  0  0  0  0  0  0  0  0
   -0.3122   -0.5319    0.4828 C   0  0  1  0  0  0  0  0  0  0  0  0
    0.2549   -0.9273    1.3289 H   0  0  0  0  0  0  0  0  0  0  0  0
    0.4478   -0.7147   -0.8584 C   0  0  0  0  0  0  0  0  0  0  0  0
   -0.2683   -0.6288   -1.6831 H   0  0  0  0  0  0  0  0  0  0  0  0
    1.1234    0.1419   -0.9605 H   0  0  0  0  0  0  0  0  0  0  0  0
    1.3476   -1.9663   -1.0615 C   0  0  0  0  0  0  0  0  0  0  0  0
    2.2821   -1.6309   -1.5245 H   0  0  0  0  0  0  0  0  0  0  0  0
    1.7112   -2.7566    0.2020 C   0  0  0  0  0  0  0  0  0  0  0  0
    0.8373   -3.2521    0.6259 H   0  0  0  0  0  0  0  0  0  0  0  0
    2.4478   -3.5291   -0.0400 H   0  0  0  0  0  0  0  0  0  0  0  0
    2.1517   -2.0980    0.9561 H   0  0  0  0  0  0  0  0  0  0  0  0
    0.6589   -2.9313   -2.0360 C   0  0  0  0  0  0  0  0  0  0  0  0
    0.4717   -2.4395   -2.9957 H   0  0  0  0  0  0  0  0  0  0  0  0
    1.2907   -3.8060   -2.2202 H   0  0  0  0  0  0  0  0  0  0  0  0
   -0.2973   -3.2735   -1.6269 H   0  0  0  0  0  0  0  0  0  0  0  0
   -0.5068    0.9817    0.7110 C   0  0  0  0  0  0  0  0  0  0  0  0
   -1.3312    1.6022    0.0479 O   0  0  0  0  0  0  0  0  0  0  0  0
    0.2380    1.6468    1.6674 N   0  0  0  0  0  0  0  0  0  0  0  0
    0.8665    1.0926    2.2423 H   0  0  0  0  0  0  0  0  0  0  0  0
    0.0740    3.0643    1.9648 C   0  0  0  0  0  0  0  0  0  0  0  0
   -0.9392    3.2646    2.3288 H   0  0  0  0  0  0  0  0  0  0  0  0
    0.7865    3.3736    2.7354 H   0  0  0  0  0  0  0  0  0  0  0  0
    0.2524    3.6675    1.0683 H   0  0  0  0  0  0  0  0  0  0  0  0
  1  2  1  0  0  0  0
  2  3  1  0  0  0  0
  2  4  1  0  0  0  0
  2  5  1  0  0  0  0
  5  6  2  0  0  0  0
  5  7  1  0  0  0  0
  7  8  1  0  0  0  0
  7  9  1  0  0  0  0
  9 10  1  0  0  0  0
  9 11  1  0  0  0  0
  9 24  1  0  0  0  0
 11 12  1  0  0  0  0
 11 13  1  0  0  0  0
 11 14  1  0  0  0  0
 14 15  1  0  0  0  0
 14 16  1  0  0  0  0
 14 20  1  0  0  0  0
 16 17  1  0  0  0  0
 16 18  1  0  0  0  0
 16 19  1  0  0  0  0
 20 21  1  0  0  0  0
 20 22  1  0  0  0  0
 20 23  1  0  0  0  0
 24 25  2  0  0  0  0
 24 26  1  0  0  0  0
 26 27  1  0  0  0  0
 26 28  1  0  0  0  0
 28 29  1  0  0  0  0
 28 30  1  0  0  0  0
 28 31  1  0  0  0  0
M  END
$$$$

  -OEChem-03222214063D

 31 30  0     1  0  0  0  0  0999 V2000
   -3.5672   -3.8354    1.2919 H   0  0  0  0  0  0  0  0  0  0  0  0
   -3.4293   -2.8981    0.7454 C   0  0  0  0  0  0  0  0  0  0  0  0
   -4.1998   -2.1897    1.0593 H   0  0  0  0  0  0  0  0  0  0  0  0
   -3.5388   -3.0956   -0.3235 H   0  0  0  0  0  0  0  0  0  0  0  0
   -2.0530   -2.3257    1.0278 C   0  0  0  0  0  0  0  0  0  0  0  0
   -1.3395   -2.8500    1.8678 O   0  0  0  0  0  0  0  0  0  0  0  0
   -1.6542   -1.1673    0.3950 N   0  0  0  0  0  0  0  0  0  0  0  0
   -2.3393   -0.6997   -0.1957 H   0  0  0  0  0  0  0  0  0  0  0  0
   -0.3248   -0.5438    0.4901 C   0  0  1  0  0  0  0  0  0  0  0  0
    0.2414   -0.9359    1.3380 H   0  0  0  0  0  0  0  0  0  0  0  0
    0.4443   -0.7262   -0.8469 C   0  0  0  0  0  0  0  0  0  0  0  0
   -0.2823   -0.6492   -1.6634 H   0  0  0  0  0  0  0  0  0  0  0  0
    1.1147    0.1328   -0.9630 H   0  0  0  0  0  0  0  0  0  0  0  0
    1.3393   -1.9829   -1.0575 C   0  0  0  0  0  0  0  0  0  0  0  0
    2.3612   -1.6250   -1.2247 H   0  0  0  0  0  0  0  0  0  0  0  0
    1.4106   -2.9909    0.0956 C   0  0  0  0  0  0  0  0  0  0  0  0
    0.4499   -3.4905    0.2325 H   0  0  0  0  0  0  0  0  0  0  0  0
    2.1564   -3.7601   -0.1277 H   0  0  0  0  0  0  0  0  0  0  0  0
    1.7064   -2.5070    1.0301 H   0  0  0  0  0  0  0  0  0  0  0  0
    0.8931   -2.7277   -2.3225 C   0  0  0  0  0  0  0  0  0  0  0  0
    0.9244   -2.0613   -3.1903 H   0  0  0  0  0  0  0  0  0  0  0  0
    1.5552   -3.5766   -2.5209 H   0  0  0  0  0  0  0  0  0  0  0  0
   -0.1289   -3.1031   -2.2072 H   0  0  0  0  0  0  0  0  0  0  0  0
   -0.5075    0.9734    0.7062 C   0  0  0  0  0  0  0  0  0  0  0  0
   -1.3240    1.5975    0.0366 O   0  0  0  0  0  0  0  0  0  0  0  0
    0.2446    1.6390    1.6566 N   0  0  0  0  0  0  0  0  0  0  0  0
    0.8639    1.0821    2.2387 H   0  0  0  0  0  0  0  0  0  0  0  0
    0.0919    3.0593    1.9472 C   0  0  0  0  0  0  0  0  0  0  0  0
   -0.9183    3.2688    2.3142 H   0  0  0  0  0  0  0  0  0  0  0  0
    0.8096    3.3673    2.7136 H   0  0  0  0  0  0  0  0  0  0  0  0
    0.2713    3.6568    1.0471 H   0  0  0  0  0  0  0  0  0  0  0  0
  1  2  1  0  0  0  0
  2  3  1  0  0  0  0
  2  4  1  0  0  0  0
  2  5  1  0  0  0  0
  5  6  2  0  0  0  0
  5  7  1  0  0  0  0
  7  8  1  0  0  0  0
  7  9  1  0  0  0  0
  9 10  1  0  0  0  0
  9 11  1  0  0  0  0
  9 24  1  0  0  0  0
 11 12  1  0  0  0  0
 11 13  1  0  0  0  0
 11 14  1  0  0  0  0
 14 15  1  0  0  0  0
 14 16  1  0  0  0  0
 14 20  1  0  0  0  0
 16 17  1  0  0  0  0
 16 18  1  0  0  0  0
 16 19  1  0  0  0  0
 20 21  1  0  0  0  0
 20 22  1  0  0  0  0
 20 23  1  0  0  0  0
 24 25  2  0  0  0  0
 24 26  1  0  0  0  0
 26 27  1  0  0  0  0
 26 28  1  0  0  0  0
 28 29  1  0  0  0  0
 28 30  1  0  0  0  0
 28 31  1  0  0  0  0
M  END
$$$$

  -OEChem-03222214063D

 31 30  0     1  0  0  0  0  0999 V2000
   -3.5949   -3.8243    1.3140 H   0  0  0  0  0  0  0  0  0  0  0  0
   -3.4542   -2.8859    0.7702 C   0  0  0  0  0  0  0  0  0  0  0  0
   -4.2083   -2.1687    1.1029 H   0  0  0  0  0  0  0  0  0  0  0  0
   -3.5867   -3.0754   -0.2977 H   0  0  0  0  0  0  0  0  0  0  0  0
   -2.0653   -2.3337    1.0296 C   0  0  0  0  0  0  0  0  0  0  0  0
   -1.3401   -2.8768    1.8476 O   0  0  0  0  0  0  0  0  0  0  0  0
   -1.6642   -1.1761    0.3968 N   0  0  0  0  0  0  0  0  0  0  0  0
   -2.3559   -0.6946   -0.1748 H   0  0  0  0  0  0  0  0  0  0  0  0
   -0.3298   -0.5600    0.4797 C   0  0  1  0  0  0  0  0  0  0  0  0
    0.2450   -0.9584    1.3199 H   0  0  0  0  0  0  0  0  0  0  0  0
    0.4400   -0.7341   -0.8577 C   0  0  0  0  0  0  0  0  0  0  0  0
   -0.2996   -0.6792   -1.6640 H   0  0  0  0  0  0  0  0  0  0  0  0
    1.0999    0.1299   -0.9946 H   0  0  0  0  0  0  0  0  0  0  0  0
    1.3300   -1.9920   -1.0662 C   0  0  0  0  0  0  0  0  0  0  0  0
    2.3682   -1.6688   -0.9338 H   0  0  0  0  0  0  0  0  0  0  0  0
    1.1229   -3.1586   -0.0947 C   0  0  0  0  0  0  0  0  0  0  0  0
    0.1186   -3.5751   -0.2048 H   0  0  0  0  0  0  0  0  0  0  0  0
    1.8421   -3.9553   -0.3079 H   0  0  0  0  0  0  0  0  0  0  0  0
    1.2753   -2.8472    0.9419 H   0  0  0  0  0  0  0  0  0  0  0  0
    1.1790   -2.5014   -2.5048 C   0  0  0  0  0  0  0  0  0  0  0  0
    1.3962   -1.6999   -3.2180 H   0  0  0  0  0  0  0  0  0  0  0  0
    1.8745   -3.3250   -2.6939 H   0  0  0  0  0  0  0  0  0  0  0  0
    0.1599   -2.8601   -2.6814 H   0  0  0  0  0  0  0  0  0  0  0  0
   -0.5060    0.9572    0.7018 C   0  0  0  0  0  0  0  0  0  0  0  0
   -1.3301    1.5840    0.0440 O   0  0  0  0  0  0  0  0  0  0  0  0
    0.2568    1.6195    1.6460 N   0  0  0  0  0  0  0  0  0  0  0  0
    0.8829    1.0610    2.2193 H   0  0  0  0  0  0  0  0  0  0  0  0
    0.1124    3.0405    1.9374 C   0  0  0  0  0  0  0  0  0  0  0  0
   -0.8930    3.2534    2.3153 H   0  0  0  0  0  0  0  0  0  0  0  0
    0.8397    3.3467    2.6953 H   0  0  0  0  0  0  0  0  0  0  0  0
    0.2838    3.6365    1.0348 H   0  0  0  0  0  0  0  0  0  0  0  0
  1  2  1  0  0  0  0
  2  3  1  0  0  0  0
  2  4  1  0  0  0  0
  2  5  1  0  0  0  0
  5  6  2  0  0  0  0
  5  7  1  0  0  0  0
  7  8  1  0  0  0  0
  7  9  1  0  0  0  0
  9 10  1  0  0  0  0
  9 11  1  0  0  0  0
  9 24  1  0  0  0  0
 11 12  1  0  0  0  0
 11 13  1  0  0  0  0
 11 14  1  0  0  0  0
 14 15  1  0  0  0  0
 14 16  1  0  0  0  0
 14 20  1  0  0  0  0
 16 17  1  0  0  0  0
 16 18  1  0  0  0  0
 16 19  1  0  0  0  0
 20 21  1  0  0  0  0
 20 22  1  0  0  0  0
 20 23  1  0  0  0  0
 24 25  2  0  0  0  0
 24 26  1  0  0  0  0
 26 27  1  0  0  0  0
 26 28  1  0  0  0  0
 28 29  1  0  0  0  0
 28 30  1  0  0  0  0
 28 31  1  0  0  0  0
M  END
$$$$

  -OEChem-03222214063D

 31 30  0     1  0  0  0  0  0999 V2000
   -3.5966   -3.8394    1.2899 H   0  0  0  0  0  0  0  0  0  0  0  0
   -3.4556   -2.8954    0.7562 C   0  0  0  0  0  0  0  0  0  0  0  0
   -4.2121   -2.1828    1.0935 H   0  0  0  0  0  0  0  0  0  0  0  0
   -3.5839   -3.0740   -0.3140 H   0  0  0  0  0  0  0  0  0  0  0  0
   -2.0680   -2.3448    1.0257 C   0  0  0  0  0  0  0  0  0  0  0  0
   -1.3494   -2.8895    1.8478 O   0  0  0  0  0  0  0  0  0  0  0  0
   -1.6631   -1.1859    0.3975 N   0  0  0  0  0  0  0  0  0  0  0  0
   -2.3539   -0.7063   -0.1769 H   0  0  0  0  0  0  0  0  0  0  0  0
   -0.3270   -0.5703    0.4695 C   0  0  1  0  0  0  0  0  0  0  0  0
    0.2581   -0.9826    1.2973 H   0  0  0  0  0  0  0  0  0  0  0  0
    0.4385   -0.7341   -0.8718 C   0  0  0  0  0  0  0  0  0  0  0  0
   -0.3056   -0.6907   -1.6746 H   0  0  0  0  0  0  0  0  0  0  0  0
    1.0948    0.1320   -1.0132 H   0  0  0  0  0  0  0  0  0  0  0  0
    1.3260   -1.9894   -1.0767 C   0  0  0  0  0  0  0  0  0  0  0  0
    2.3213   -1.7461   -0.6895 H   0  0  0  0  0  0  0  0  0  0  0  0
    0.8794   -3.2592   -0.3489 C   0  0  0  0  0  0  0  0  0  0  0  0
   -0.1447   -3.5244   -0.6259 H   0  0  0  0  0  0  0  0  0  0  0  0
    1.5313   -4.0974   -0.6132 H   0  0  0  0  0  0  0  0  0  0  0  0
    0.9421   -3.1249    0.7337 H   0  0  0  0  0  0  0  0  0  0  0  0
    1.4613   -2.2785   -2.5767 C   0  0  0  0  0  0  0  0  0  0  0  0
    1.8246   -1.3913   -3.1048 H   0  0  0  0  0  0  0  0  0  0  0  0
    2.1726   -3.0928   -2.7472 H   0  0  0  0  0  0  0  0  0  0  0  0
    0.4951   -2.5670   -3.0027 H   0  0  0  0  0  0  0  0  0  0  0  0
   -0.5006    0.9460    0.6996 C   0  0  0  0  0  0  0  0  0  0  0  0
   -1.3301    1.5755    0.0511 O   0  0  0  0  0  0  0  0  0  0  0  0
    0.2715    1.6049    1.6386 N   0  0  0  0  0  0  0  0  0  0  0  0
    0.9002    1.0437    2.2065 H   0  0  0  0  0  0  0  0  0  0  0  0
    0.1296    3.0247    1.9367 C   0  0  0  0  0  0  0  0  0  0  0  0
   -0.8721    3.2358    2.3255 H   0  0  0  0  0  0  0  0  0  0  0  0
    0.8644    3.3284    2.6883 H   0  0  0  0  0  0  0  0  0  0  0  0
    0.2915    3.6242    1.0347 H   0  0  0  0  0  0  0  0  0  0  0  0
  1  2  1  0  0  0  0
  2  3  1  0  0  0  0
  2  4  1  0  0  0  0
  2  5  1  0  0  0  0
  5  6  2  0  0  0  0
  5  7  1  0  0  0  0
  7  8  1  0  0  0  0
  7  9  1  0  0  0  0
  9 10  1  0  0  0  0
  9 11  1  0  0  0  0
  9 24  1  0  0  0  0
 11 12  1  0  0  0  0
 11 13  1  0  0  0  0
 11 14  1  0  0  0  0
 14 15  1  0  0  0  0
 14 16  1  0  0  0  0
 14 20  1  0  0  0  0
 16 17  1  0  0  0  0
 16 18  1  0  0  0  0
 16 19  1  0  0  0  0
 20 21  1  0  0  0  0
 20 22  1  0  0  0  0
 20 23  1  0  0  0  0
 24 25  2  0  0  0  0
 24 26  1  0  0  0  0
 26 27  1  0  0  0  0
 26 28  1  0  0  0  0
 28 29  1  0  0  0  0
 28 30  1  0  0  0  0
 28 31  1  0  0  0  0
M  END
$$$$

  -OEChem-03222214063D

 31 30  0     1  0  0  0  0  0999 V2000
   -3.5759   -3.8632    1.2619 H   0  0  0  0  0  0  0  0  0  0  0  0
   -3.4387   -2.9160    0.7328 C   0  0  0  0  0  0  0  0  0  0  0  0
   -4.2027   -2.2103    1.0683 H   0  0  0  0  0  0  0  0  0  0  0  0
   -3.5596   -3.0915   -0.3389 H   0  0  0  0  0  0  0  0  0  0  0  0
   -2.0573   -2.3551    1.0131 C   0  0  0  0  0  0  0  0  0  0  0  0
   -1.3442   -2.8888    1.8471 O   0  0  0  0  0  0  0  0  0  0  0  0
   -1.6572   -1.1920    0.3893 N   0  0  0  0  0  0  0  0  0  0  0  0
   -2.3468   -0.7204   -0.1928 H   0  0  0  0  0  0  0  0  0  0  0  0
   -0.3219   -0.5738    0.4578 C   0  0  1  0  0  0  0  0  0  0  0  0
    0.2688   -0.9960    1.2771 H   0  0  0  0  0  0  0  0  0  0  0  0
    0.4410   -0.7264   -0.8858 C   0  0  0  0  0  0  0  0  0  0  0  0
   -0.2973   -0.6836   -1.6938 H   0  0  0  0  0  0  0  0  0  0  0  0
    1.0988    0.1403   -1.0173 H   0  0  0  0  0  0  0  0  0  0  0  0
    1.3255   -1.9806   -1.0814 C   0  0  0  0  0  0  0  0  0  0  0  0
    2.2318   -1.8497   -0.4804 H   0  0  0  0  0  0  0  0  0  0  0  0
    0.6870   -3.3023   -0.6522 C   0  0  0  0  0  0  0  0  0  0  0  0
   -0.3235   -3.3970   -1.0601 H   0  0  0  0  0  0  0  0  0  0  0  0
    1.2826   -4.1490   -1.0068 H   0  0  0  0  0  0  0  0  0  0  0  0
    0.6495   -3.3651    0.4367 H   0  0  0  0  0  0  0  0  0  0  0  0
    1.7402   -2.0710   -2.5554 C   0  0  0  0  0  0  0  0  0  0  0  0
    2.2348   -1.1470   -2.8710 H   0  0  0  0  0  0  0  0  0  0  0  0
    2.4385   -2.8999   -2.7065 H   0  0  0  0  0  0  0  0  0  0  0  0
    0.8655   -2.2337   -3.1933 H   0  0  0  0  0  0  0  0  0  0  0  0
   -0.4953    0.9410    0.6974 C   0  0  0  0  0  0  0  0  0  0  0  0
   -1.3266    1.5746    0.0554 O   0  0  0  0  0  0  0  0  0  0  0  0
    0.2820    1.5939    1.6361 N   0  0  0  0  0  0  0  0  0  0  0  0
    0.9124    1.0289    2.1983 H   0  0  0  0  0  0  0  0  0  0  0  0
    0.1421    3.0120    1.9426 C   0  0  0  0  0  0  0  0  0  0  0  0
   -0.8580    3.2214    2.3362 H   0  0  0  0  0  0  0  0  0  0  0  0
    0.8799    3.3114    2.6930 H   0  0  0  0  0  0  0  0  0  0  0  0
    0.3010    3.6164    1.0433 H   0  0  0  0  0  0  0  0  0  0  0  0
  1  2  1  0  0  0  0
  2  3  1  0  0  0  0
  2  4  1  0  0  0  0
  2  5  1  0  0  0  0
  5  6  2  0  0  0  0
  5  7  1  0  0  0  0
  7  8  1  0  0  0  0
  7  9  1  0  0  0  0
  9 10  1  0  0  0  0
  9 11  1  0  0  0  0
  9 24  1  0  0  0  0
 11 12  1  0  0  0  0
 11 13  1  0  0  0  0
 11 14  1  0  0  0  0
 14 15  1  0  0  0  0
 14 16  1  0  0  0  0
 14 20  1  0  0  0  0
 16 17  1  0  0  0  0
 16 18  1  0  0  0  0
 16 19  1  0  0  0  0
 20 21  1  0  0  0  0
 20 22  1  0  0  0  0
 20 23  1  0  0  0  0
 24 25  2  0  0  0  0
 24 26  1  0  0  0  0
 26 27  1  0  0  0  0
 26 28  1  0  0  0  0
 28 29  1  0  0  0  0
 28 30  1  0  0  0  0
 28 31  1  0  0  0  0
M  END
$$$$

  -OEChem-03222214063D

 31 30  0     1  0  0  0  0  0999 V2000
   -3.5424   -3.8771    1.2530 H   0  0  0  0  0  0  0  0  0  0  0  0
   -3.4146   -2.9304    0.7206 C   0  0  0  0  0  0  0  0  0  0  0  0
   -4.1784   -2.2273    1.0615 H   0  0  0  0  0  0  0  0  0  0  0  0
   -3.5441   -3.1087   -0.3495 H   0  0  0  0  0  0  0  0  0  0  0  0
   -2.0336   -2.3628    0.9878 C   0  0  0  0  0  0  0  0  0  0  0  0
   -1.3041   -2.8990    1.8067 O   0  0  0  0  0  0  0  0  0  0  0  0
   -1.6476   -1.1927    0.3690 N   0  0  0  0  0  0  0  0  0  0  0  0
   -2.3438   -0.7174   -0.2021 H   0  0  0  0  0  0  0  0  0  0  0  0
   -0.3145   -0.5725    0.4400 C   0  0  1  0  0  0  0  0  0  0  0  0
    0.2785   -1.0001    1.2548 H   0  0  0  0  0  0  0  0  0  0  0  0
    0.4472   -0.7140   -0.9035 C   0  0  0  0  0  0  0  0  0  0  0  0
   -0.2779   -0.6605   -1.7230 H   0  0  0  0  0  0  0  0  0  0  0  0
    1.1121    0.1503   -1.0141 H   0  0  0  0  0  0  0  0  0  0  0  0
    1.3248   -1.9729   -1.0819 C   0  0  0  0  0  0  0  0  0  0  0  0
    2.0951   -1.9766   -0.3034 H   0  0  0  0  0  0  0  0  0  0  0  0
    0.5510   -3.2914   -0.9908 C   0  0  0  0  0  0  0  0  0  0  0  0
   -0.3887   -3.2305   -1.5484 H   0  0  0  0  0  0  0  0  0  0  0  0
    1.1434   -4.1156   -1.4002 H   0  0  0  0  0  0  0  0  0  0  0  0
    0.3376   -3.5342    0.0502 H   0  0  0  0  0  0  0  0  0  0  0  0
    2.0223   -1.8956   -2.4464 C   0  0  0  0  0  0  0  0  0  0  0  0
    2.6126   -0.9772   -2.5241 H   0  0  0  0  0  0  0  0  0  0  0  0
    2.6985   -2.7459   -2.5795 H   0  0  0  0  0  0  0  0  0  0  0  0
    1.2866   -1.9065   -3.2573 H   0  0  0  0  0  0  0  0  0  0  0  0
   -0.4909    0.9400    0.6928 C   0  0  0  0  0  0  0  0  0  0  0  0
   -1.3246    1.5771    0.0574 O   0  0  0  0  0  0  0  0  0  0  0  0
    0.2866    1.5871    1.6355 N   0  0  0  0  0  0  0  0  0  0  0  0
    0.9190    1.0190    2.1921 H   0  0  0  0  0  0  0  0  0  0  0  0
    0.1424    3.0019    1.9556 C   0  0  0  0  0  0  0  0  0  0  0  0
   -0.8586    3.2051    2.3503 H   0  0  0  0  0  0  0  0  0  0  0  0
    0.8786    3.2961    2.7098 H   0  0  0  0  0  0  0  0  0  0  0  0
    0.3007    3.6152    1.0622 H   0  0  0  0  0  0  0  0  0  0  0  0
  1  2  1  0  0  0  0
  2  3  1  0  0  0  0
  2  4  1  0  0  0  0
  2  5  1  0  0  0  0
  5  6  2  0  0  0  0
  5  7  1  0  0  0  0
  7  8  1  0  0  0  0
  7  9  1  0  0  0  0
  9 10  1  0  0  0  0
  9 11  1  0  0  0  0
  9 24  1  0  0  0  0
 11 12  1  0  0  0  0
 11 13  1  0  0  0  0
 11 14  1  0  0  0  0
 14 15  1  0  0  0  0
 14 16  1  0  0  0  0
 14 20  1  0  0  0  0
 16 17  1  0  0  0  0
 16 18  1  0  0  0  0
 16 19  1  0  0  0  0
 20 21  1  0  0  0  0
 20 22  1  0  0  0  0
 20 23  1  0  0  0  0
 24 25  2  0  0  0  0
 24 26  1  0  0  0  0
 26 27  1  0  0  0  0
 26 28  1  0  0  0  0
 28 29  1  0  0  0  0
 28 30  1  0  0  0  0
 28 31  1  0  0  0  0
M  END
$$$$

  -OEChem-03222214063D

 31 30  0     1  0  0  0  0  0999 V2000
   -3.4985   -3.8949    1.2410 H   0  0  0  0  0  0  0  0  0  0  0  0
   -3.3935   -2.9348    0.7281 C   0  0  0  0  0  0  0  0  0  0  0  0
   -4.1424   -2.2415    1.1187 H   0  0  0  0  0  0  0  0  0  0  0  0
   -3.5681   -3.0859   -0.3398 H   0  0  0  0  0  0  0  0  0  0  0  0
   -2.0025   -2.3726    0.9503 C   0  0  0  0  0  0  0  0  0  0  0  0
   -1.2299   -2.9396    1.7072 O   0  0  0  0  0  0  0  0  0  0  0  0
   -1.6392   -1.1903    0.3411 N   0  0  0  0  0  0  0  0  0  0  0  0
   -2.3558   -0.6938   -0.1853 H   0  0  0  0  0  0  0  0  0  0  0  0
   -0.3111   -0.5631    0.4134 C   0  0  1  0  0  0  0  0  0  0  0  0
    0.2846   -0.9928    1.2252 H   0  0  0  0  0  0  0  0  0  0  0  0
    0.4483   -0.6971   -0.9299 C   0  0  0  0  0  0  0  0  0  0  0  0
   -0.2650   -0.6370   -1.7589 H   0  0  0  0  0  0  0  0  0  0  0  0
    1.1144    0.1680   -1.0251 H   0  0  0  0  0  0  0  0  0  0  0  0
    1.3229   -1.9615   -1.0835 C   0  0  0  0  0  0  0  0  0  0  0  0
    1.9139   -2.1048   -0.1728 H   0  0  0  0  0  0  0  0  0  0  0  0
    0.5019   -3.2307   -1.3434 C   0  0  0  0  0  0  0  0  0  0  0  0
   -0.2303   -3.0633   -2.1392 H   0  0  0  0  0  0  0  0  0  0  0  0
    1.1568   -4.0546   -1.6434 H   0  0  0  0  0  0  0  0  0  0  0  0
   -0.0224   -3.5460   -0.4425 H   0  0  0  0  0  0  0  0  0  0  0  0
    2.2902   -1.7595   -2.2574 C   0  0  0  0  0  0  0  0  0  0  0  0
    2.9294   -0.8884   -2.0833 H   0  0  0  0  0  0  0  0  0  0  0  0
    2.9362   -2.6348   -2.3762 H   0  0  0  0  0  0  0  0  0  0  0  0
    1.7374   -1.6059   -3.1898 H   0  0  0  0  0  0  0  0  0  0  0  0
   -0.4947    0.9445    0.6872 C   0  0  0  0  0  0  0  0  0  0  0  0
   -1.3416    1.5834    0.0715 O   0  0  0  0  0  0  0  0  0  0  0  0
    0.2845    1.5829    1.6344 N   0  0  0  0  0  0  0  0  0  0  0  0
    0.9284    1.0120    2.1747 H   0  0  0  0  0  0  0  0  0  0  0  0
    0.1334    2.9917    1.9767 C   0  0  0  0  0  0  0  0  0  0  0  0
   -0.8699    3.1847    2.3708 H   0  0  0  0  0  0  0  0  0  0  0  0
    0.8655    3.2761    2.7386 H   0  0  0  0  0  0  0  0  0  0  0  0
    0.2929    3.6197    1.0939 H   0  0  0  0  0  0  0  0  0  0  0  0
  1  2  1  0  0  0  0
  2  3  1  0  0  0  0
  2  4  1  0  0  0  0
  2  5  1  0  0  0  0
  5  6  2  0  0  0  0
  5  7  1  0  0  0  0
  7  8  1  0  0  0  0
  7  9  1  0  0  0  0
  9 10  1  0  0  0  0
  9 11  1  0  0  0  0
  9 24  1  0  0  0  0
 11 12  1  0  0  0  0
 11 13  1  0  0  0  0
 11 14  1  0  0  0  0
 14 15  1  0  0  0  0
 14 16  1  0  0  0  0
 14 20  1  0  0  0  0
 16 17  1  0  0  0  0
 16 18  1  0  0  0  0
 16 19  1  0  0  0  0
 20 21  1  0  0  0  0
 20 22  1  0  0  0  0
 20 23  1  0  0  0  0
 24 25  2  0  0  0  0
 24 26  1  0  0  0  0
 26 27  1  0  0  0  0
 26 28  1  0  0  0  0
 28 29  1  0  0  0  0
 28 30  1  0  0  0  0
 28 31  1  0  0  0  0
M  END
$$$$

  -OEChem-03222214063D

 31 30  0     1  0  0  0  0  0999 V2000
   -3.4508   -3.8984    1.2663 H   0  0  0  0  0  0  0  0  0  0  0  0
   -3.3644   -2.9400    0.7470 C   0  0  0  0  0  0  0  0  0  0  0  0
   -4.0790   -2.2372    1.1822 H   0  0  0  0  0  0  0  0  0  0  0  0
   -3.6058   -3.0880   -0.3083 H   0  0  0  0  0  0  0  0  0  0  0  0
   -1.9545   -2.3965    0.8824 C   0  0  0  0  0  0  0  0  0  0  0  0
   -1.1207   -3.0160    1.5246 O   0  0  0  0  0  0  0  0  0  0  0  0
   -1.6280   -1.1922    0.2949 N   0  0  0  0  0  0  0  0  0  0  0  0
   -2.3788   -0.6635   -0.1459 H   0  0  0  0  0  0  0  0  0  0  0  0
   -0.3112   -0.5435    0.3716 C   0  0  1  0  0  0  0  0  0  0  0  0
    0.2886   -0.9734    1.1799 H   0  0  0  0  0  0  0  0  0  0  0  0
    0.4406   -0.6717   -0.9738 C   0  0  0  0  0  0  0  0  0  0  0  0
   -0.2689   -0.6222   -1.8069 H   0  0  0  0  0  0  0  0  0  0  0  0
    1.0984    0.1990   -1.0725 H   0  0  0  0  0  0  0  0  0  0  0  0
    1.3169   -1.9407   -1.0844 C   0  0  0  0  0  0  0  0  0  0  0  0
    1.6881   -2.2214   -0.0930 H   0  0  0  0  0  0  0  0  0  0  0  0
    0.5305   -3.1189   -1.6744 C   0  0  0  0  0  0  0  0  0  0  0  0
    0.1499   -2.8708   -2.6702 H   0  0  0  0  0  0  0  0  0  0  0  0
    1.1743   -3.9998   -1.7592 H   0  0  0  0  0  0  0  0  0  0  0  0
   -0.3151   -3.3824   -1.0377 H   0  0  0  0  0  0  0  0  0  0  0  0
    2.5265   -1.6631   -1.9865 C   0  0  0  0  0  0  0  0  0  0  0  0
    3.1465   -0.8674   -1.5619 H   0  0  0  0  0  0  0  0  0  0  0  0
    3.1450   -2.5609   -2.0829 H   0  0  0  0  0  0  0  0  0  0  0  0
    2.2006   -1.3559   -2.9855 H   0  0  0  0  0  0  0  0  0  0  0  0
   -0.5062    0.9551    0.6807 C   0  0  0  0  0  0  0  0  0  0  0  0
   -1.3766    1.5937    0.0989 O   0  0  0  0  0  0  0  0  0  0  0  0
    0.2754    1.5806    1.6343 N   0  0  0  0  0  0  0  0  0  0  0  0
    0.9508    1.0111    2.1365 H   0  0  0  0  0  0  0  0  0  0  0  0
    0.1155    2.9803    2.0079 C   0  0  0  0  0  0  0  0  0  0  0  0
   -0.8883    3.1586    2.4075 H   0  0  0  0  0  0  0  0  0  0  0  0
    0.8467    3.2524    2.7751 H   0  0  0  0  0  0  0  0  0  0  0  0
    0.2693    3.6285    1.1388 H   0  0  0  0  0  0  0  0  0  0  0  0
  1  2  1  0  0  0  0
  2  3  1  0  0  0  0
  2  4  1  0  0  0  0
  2  5  1  0  0  0  0
  5  6  2  0  0  0  0
  5  7  1  0  0  0  0
  7  8  1  0  0  0  0
  7  9  1  0  0  0  0
  9 10  1  0  0  0  0
  9 11  1  0  0  0  0
  9 24  1  0  0  0  0
 11 12  1  0  0  0  0
 11 13  1  0  0  0  0
 11 14  1  0  0  0  0
 14 15  1  0  0  0  0
 14 16  1  0  0  0  0
 14 20  1  0  0  0  0
 16 17  1  0  0  0  0
 16 18  1  0  0  0  0
 16 19  1  0  0  0  0
 20 21  1  0  0  0  0
 20 22  1  0  0  0  0
 20 23  1  0  0  0  0
 24 25  2  0  0  0  0
 24 26  1  0  0  0  0
 26 27  1  0  0  0  0
 26 28  1  0  0  0  0
 28 29  1  0  0  0  0
 28 30  1  0  0  0  0
 28 31  1  0  0  0  0
M  END
$$$$

  -OEChem-03222214063D

 31 30  0     1  0  0  0  0  0999 V2000
   -3.3845   -3.9123    1.2400 H   0  0  0  0  0  0  0  0  0  0  0  0
   -3.3181   -2.9489    0.7269 C   0  0  0  0  0  0  0  0  0  0  0  0
   -4.0198   -2.2527    1.1924 H   0  0  0  0  0  0  0  0  0  0  0  0
   -3.5939   -3.0881   -0.3212 H   0  0  0  0  0  0  0  0  0  0  0  0
   -1.9065   -2.4021    0.8214 C   0  0  0  0  0  0  0  0  0  0  0  0
   -1.0418   -3.0418    1.3997 O   0  0  0  0  0  0  0  0  0  0  0  0
   -1.6078   -1.1815    0.2535 N   0  0  0  0  0  0  0  0  0  0  0  0
   -2.3782   -0.6410   -0.1364 H   0  0  0  0  0  0  0  0  0  0  0  0
   -0.3023   -0.5140    0.3446 C   0  0  1  0  0  0  0  0  0  0  0  0
    0.2995   -0.9420    1.1524 H   0  0  0  0  0  0  0  0  0  0  0  0
    0.4323   -0.6550   -1.0048 C   0  0  0  0  0  0  0  0  0  0  0  0
   -0.2852   -0.6228   -1.8319 H   0  0  0  0  0  0  0  0  0  0  0  0
    1.0839    0.2170   -1.1283 H   0  0  0  0  0  0  0  0  0  0  0  0
    1.3042   -1.9323   -1.0747 C   0  0  0  0  0  0  0  0  0  0  0  0
    1.4473   -2.3519   -0.0731 H   0  0  0  0  0  0  0  0  0  0  0  0
    0.6290   -2.9904   -1.9564 C   0  0  0  0  0  0  0  0  0  0  0  0
    0.5053   -2.6224   -2.9798 H   0  0  0  0  0  0  0  0  0  0  0  0
    1.2325   -3.9029   -1.9862 H   0  0  0  0  0  0  0  0  0  0  0  0
   -0.3567   -3.2464   -1.5575 H   0  0  0  0  0  0  0  0  0  0  0  0
    2.6861   -1.6100   -1.6565 C   0  0  0  0  0  0  0  0  0  0  0  0
    3.2129   -0.8961   -1.0155 H   0  0  0  0  0  0  0  0  0  0  0  0
    3.2921   -2.5190   -1.7249 H   0  0  0  0  0  0  0  0  0  0  0  0
    2.5929   -1.1778   -2.6580 H   0  0  0  0  0  0  0  0  0  0  0  0
   -0.5071    0.9774    0.6784 C   0  0  0  0  0  0  0  0  0  0  0  0
   -1.3898    1.6152    0.1150 O   0  0  0  0  0  0  0  0  0  0  0  0
    0.2689    1.5943    1.6423 N   0  0  0  0  0  0  0  0  0  0  0  0
    0.9554    1.0252    2.1294 H   0  0  0  0  0  0  0  0  0  0  0  0
    0.0982    2.9872    2.0369 C   0  0  0  0  0  0  0  0  0  0  0  0
   -0.9082    3.1520    2.4361 H   0  0  0  0  0  0  0  0  0  0  0  0
    0.8250    3.2529    2.8105 H   0  0  0  0  0  0  0  0  0  0  0  0
    0.2499    3.6496    1.1781 H   0  0  0  0  0  0  0  0  0  0  0  0
  1  2  1  0  0  0  0
  2  3  1  0  0  0  0
  2  4  1  0  0  0  0
  2  5  1  0  0  0  0
  5  6  2  0  0  0  0
  5  7  1  0  0  0  0
  7  8  1  0  0  0  0
  7  9  1  0  0  0  0
  9 10  1  0  0  0  0
  9 11  1  0  0  0  0
  9 24  1  0  0  0  0
 11 12  1  0  0  0  0
 11 13  1  0  0  0  0
 11 14  1  0  0  0  0
 14 15  1  0  0  0  0
 14 16  1  0  0  0  0
 14 20  1  0  0  0  0
 16 17  1  0  0  0  0
 16 18  1  0  0  0  0
 16 19  1  0  0  0  0
 20 21  1  0  0  0  0
 20 22  1  0  0  0  0
 20 23  1  0  0  0  0
 24 25  2  0  0  0  0
 24 26  1  0  0  0  0
 26 27  1  0  0  0  0
 26 28  1  0  0  0  0
 28 29  1  0  0  0  0
 28 30  1  0  0  0  0
 28 31  1  0  0  0  0
M  END
$$$$

  -OEChem-03222214063D

 31 30  0     1  0  0  0  0  0999 V2000
   -3.3716   -3.9205    1.2286 H   0  0  0  0  0  0  0  0  0  0  0  0
   -3.3085   -2.9559    0.7170 C   0  0  0  0  0  0  0  0  0  0  0  0
   -4.0157   -2.2639    1.1810 H   0  0  0  0  0  0  0  0  0  0  0  0
   -3.5795   -3.0949   -0.3324 H   0  0  0  0  0  0  0  0  0  0  0  0
   -1.8997   -2.4024    0.8172 C   0  0  0  0  0  0  0  0  0  0  0  0
   -1.0355   -3.0380    1.4004 O   0  0  0  0  0  0  0  0  0  0  0  0
   -1.6047   -1.1796    0.2523 N   0  0  0  0  0  0  0  0  0  0  0  0
   -2.3764   -0.6430   -0.1407 H   0  0  0  0  0  0  0  0  0  0  0  0
   -0.3012   -0.5072    0.3411 C   0  0  1  0  0  0  0  0  0  0  0  0
    0.3080   -0.9357    1.1435 H   0  0  0  0  0  0  0  0  0  0  0  0
    0.4240   -0.6472   -1.0123 C   0  0  0  0  0  0  0  0  0  0  0  0
   -0.3109   -0.6311   -1.8248 H   0  0  0  0  0  0  0  0  0  0  0  0
    1.0647    0.2287   -1.1625 H   0  0  0  0  0  0  0  0  0  0  0  0
    1.2961   -1.9252   -1.0795 C   0  0  0  0  0  0  0  0  0  0  0  0
    1.2046   -2.4936   -0.1477 H   0  0  0  0  0  0  0  0  0  0  0  0
    0.8264   -2.8293   -2.2245 C   0  0  0  0  0  0  0  0  0  0  0  0
    0.9176   -2.3156   -3.1869 H   0  0  0  0  0  0  0  0  0  0  0  0
    1.4275   -3.7432   -2.2592 H   0  0  0  0  0  0  0  0  0  0  0  0
   -0.2203   -3.1138   -2.0775 H   0  0  0  0  0  0  0  0  0  0  0  0
    2.7747   -1.5696   -1.2755 C   0  0  0  0  0  0  0  0  0  0  0  0
    3.1310   -0.9534   -0.4442 H   0  0  0  0  0  0  0  0  0  0  0  0
    3.3826   -2.4790   -1.3130 H   0  0  0  0  0  0  0  0  0  0  0  0
    2.9203   -1.0163   -2.2088 H   0  0  0  0  0  0  0  0  0  0  0  0
   -0.5062    0.9827    0.6787 C   0  0  0  0  0  0  0  0  0  0  0  0
   -1.3891    1.6212    0.1164 O   0  0  0  0  0  0  0  0  0  0  0  0
    0.2724    1.5982    1.6413 N   0  0  0  0  0  0  0  0  0  0  0  0
    0.9611    1.0286    2.1249 H   0  0  0  0  0  0  0  0  0  0  0  0
    0.1062    2.9920    2.0348 C   0  0  0  0  0  0  0  0  0  0  0  0
   -0.8993    3.1605    2.4345 H   0  0  0  0  0  0  0  0  0  0  0  0
    0.8345    3.2560    2.8078 H   0  0  0  0  0  0  0  0  0  0  0  0
    0.2597    3.6534    1.1756 H   0  0  0  0  0  0  0  0  0  0  0  0
  1  2  1  0  0  0  0
  2  3  1  0  0  0  0
  2  4  1  0  0  0  0
  2  5  1  0  0  0  0
  5  6  2  0  0  0  0
  5  7  1  0  0  0  0
  7  8  1  0  0  0  0
  7  9  1  0  0  0  0
  9 10  1  0  0  0  0
  9 11  1  0  0  0  0
  9 24  1  0  0  0  0
 11 12  1  0  0  0  0
 11 13  1  0  0  0  0
 11 14  1  0  0  0  0
 14 15  1  0  0  0  0
 14 16  1  0  0  0  0
 14 20  1  0  0  0  0
 16 17  1  0  0  0  0
 16 18  1  0  0  0  0
 16 19  1  0  0  0  0
 20 21  1  0  0  0  0
 20 22  1  0  0  0  0
 20 23  1  0  0  0  0
 24 25  2  0  0  0  0
 24 26  1  0  0  0  0
 26 27  1  0  0  0  0
 26 28  1  0  0  0  0
 28 29  1  0  0  0  0
 28 30  1  0  0  0  0
 28 31  1  0  0  0  0
M  END
$$$$

  -OEChem-03222214063D

 31 30  0     1  0  0  0  0  0999 V2000
   -3.3755   -3.9236    1.2269 H   0  0  0  0  0  0  0  0  0  0  0  0
   -3.3097   -2.9594    0.7152 C   0  0  0  0  0  0  0  0  0  0  0  0
   -4.0206   -2.2677    1.1736 H   0  0  0  0  0  0  0  0  0  0  0  0
   -3.5741   -3.0998   -0.3357 H   0  0  0  0  0  0  0  0  0  0  0  0
   -1.9024   -2.4038    0.8250 C   0  0  0  0  0  0  0  0  0  0  0  0
   -1.0440   -3.0326    1.4238 O   0  0  0  0  0  0  0  0  0  0  0  0
   -1.6060   -1.1819    0.2585 N   0  0  0  0  0  0  0  0  0  0  0  0
   -2.3761   -0.6505   -0.1443 H   0  0  0  0  0  0  0  0  0  0  0  0
   -0.3018   -0.5088    0.3390 C   0  0  1  0  0  0  0  0  0  0  0  0
    0.3135   -0.9410    1.1351 H   0  0  0  0  0  0  0  0  0  0  0  0
    0.4209   -0.6418   -1.0164 C   0  0  0  0  0  0  0  0  0  0  0  0
   -0.3265   -0.6416   -1.8174 H   0  0  0  0  0  0  0  0  0  0  0  0
    1.0545    0.2359   -1.1859 H   0  0  0  0  0  0  0  0  0  0  0  0
    1.2936   -1.9158   -1.0857 C   0  0  0  0  0  0  0  0  0  0  0  0
    0.9885   -2.6137   -0.2987 H   0  0  0  0  0  0  0  0  0  0  0  0
    1.0907   -2.6320   -2.4247 C   0  0  0  0  0  0  0  0  0  0  0  0
    1.3779   -1.9822   -3.2575 H   0  0  0  0  0  0  0  0  0  0  0  0
    1.6991   -3.5408   -2.4663 H   0  0  0  0  0  0  0  0  0  0  0  0
    0.0409   -2.9166   -2.5486 H   0  0  0  0  0  0  0  0  0  0  0  0
    2.7735   -1.5767   -0.8782 C   0  0  0  0  0  0  0  0  0  0  0  0
    2.9183   -1.0828    0.0875 H   0  0  0  0  0  0  0  0  0  0  0  0
    3.3777   -2.4891   -0.8919 H   0  0  0  0  0  0  0  0  0  0  0  0
    3.1332   -0.9108   -1.6691 H   0  0  0  0  0  0  0  0  0  0  0  0
   -0.5033    0.9818    0.6760 C   0  0  0  0  0  0  0  0  0  0  0  0
   -1.3879    1.6215    0.1175 O   0  0  0  0  0  0  0  0  0  0  0  0
    0.2822    1.5968    1.6331 N   0  0  0  0  0  0  0  0  0  0  0  0
    0.9690    1.0252    2.1171 H   0  0  0  0  0  0  0  0  0  0  0  0
    0.1208    2.9911    2.0253 C   0  0  0  0  0  0  0  0  0  0  0  0
   -0.8830    3.1624    2.4282 H   0  0  0  0  0  0  0  0  0  0  0  0
    0.8521    3.2547    2.7953 H   0  0  0  0  0  0  0  0  0  0  0  0
    0.2728    3.6506    1.1643 H   0  0  0  0  0  0  0  0  0  0  0  0
  1  2  1  0  0  0  0
  2  3  1  0  0  0  0
  2  4  1  0  0  0  0
  2  5  1  0  0  0  0
  5  6  2  0  0  0  0
  5  7  1  0  0  0  0
  7  8  1  0  0  0  0
  7  9  1  0  0  0  0
  9 10  1  0  0  0  0
  9 11  1  0  0  0  0
  9 24  1  0  0  0  0
 11 12  1  0  0  0  0
 11 13  1  0  0  0  0
 11 14  1  0  0  0  0
 14 15  1  0  0  0  0
 14 16  1  0  0  0  0
 14 20  1  0  0  0  0
 16 17  1  0  0  0  0
 16 18  1  0  0  0  0
 16 19  1  0  0  0  0
 20 21  1  0  0  0  0
 20 22  1  0  0  0  0
 20 23  1  0  0  0  0
 24 25  2  0  0  0  0
 24 26  1  0  0  0  0
 26 27  1  0  0  0  0
 26 28  1  0  0  0  0
 28 29  1  0  0  0  0
 28 30  1  0  0  0  0
 28 31  1  0  0  0  0
M  END
$$$$

  -OEChem-03222214063D

 31 30  0     1  0  0  0  0  0999 V2000
   -3.3792   -3.9208    1.2279 H   0  0  0  0  0  0  0  0  0  0  0  0
   -3.3130   -2.9570    0.7154 C   0  0  0  0  0  0  0  0  0  0  0  0
   -4.0233   -2.2645    1.1734 H   0  0  0  0  0  0  0  0  0  0  0  0
   -3.5775   -3.0980   -0.3354 H   0  0  0  0  0  0  0  0  0  0  0  0
   -1.9053   -2.4026    0.8249 C   0  0  0  0  0  0  0  0  0  0  0  0
   -1.0477   -3.0312    1.4252 O   0  0  0  0  0  0  0  0  0  0  0  0
   -1.6078   -1.1813    0.2577 N   0  0  0  0  0  0  0  0  0  0  0  0
   -2.3774   -0.6498   -0.1459 H   0  0  0  0  0  0  0  0  0  0  0  0
   -0.3033   -0.5082    0.3380 C   0  0  1  0  0  0  0  0  0  0  0  0
    0.3082   -0.9427    1.1354 H   0  0  0  0  0  0  0  0  0  0  0  0
    0.4240   -0.6414   -1.0152 C   0  0  0  0  0  0  0  0  0  0  0  0
   -0.3238   -0.6515   -1.8158 H   0  0  0  0  0  0  0  0  0  0  0  0
    1.0585    0.2343   -1.1907 H   0  0  0  0  0  0  0  0  0  0  0  0
    1.2964   -1.9119   -1.0810 C   0  0  0  0  0  0  0  0  0  0  0  0
    0.8256   -2.7045   -0.4899 H   0  0  0  0  0  0  0  0  0  0  0  0
    1.3900   -2.4168   -2.5243 C   0  0  0  0  0  0  0  0  0  0  0  0
    1.8402   -1.6564   -3.1701 H   0  0  0  0  0  0  0  0  0  0  0  0
    2.0036   -3.3217   -2.5711 H   0  0  0  0  0  0  0  0  0  0  0  0
    0.3947   -2.6584   -2.9106 H   0  0  0  0  0  0  0  0  0  0  0  0
    2.6966   -1.6485   -0.5140 C   0  0  0  0  0  0  0  0  0  0  0  0
    2.6329   -1.3090    0.5240 H   0  0  0  0  0  0  0  0  0  0  0  0
    3.2929   -2.5659   -0.5375 H   0  0  0  0  0  0  0  0  0  0  0  0
    3.2150   -0.8832   -1.1002 H   0  0  0  0  0  0  0  0  0  0  0  0
   -0.5022    0.9827    0.6738 C   0  0  0  0  0  0  0  0  0  0  0  0
   -1.3858    1.6230    0.1146 O   0  0  0  0  0  0  0  0  0  0  0  0
    0.2844    1.5975    1.6303 N   0  0  0  0  0  0  0  0  0  0  0  0
    0.9718    1.0258    2.1132 H   0  0  0  0  0  0  0  0  0  0  0  0
    0.1246    2.9924    2.0217 C   0  0  0  0  0  0  0  0  0  0  0  0
   -0.8786    3.1644    2.4254 H   0  0  0  0  0  0  0  0  0  0  0  0
    0.8569    3.2560    2.7908 H   0  0  0  0  0  0  0  0  0  0  0  0
    0.2762    3.6512    1.1603 H   0  0  0  0  0  0  0  0  0  0  0  0
  1  2  1  0  0  0  0
  2  3  1  0  0  0  0
  2  4  1  0  0  0  0
  2  5  1  0  0  0  0
  5  6  2  0  0  0  0
  5  7  1  0  0  0  0
  7  8  1  0  0  0  0
  7  9  1  0  0  0  0
  9 10  1  0  0  0  0
  9 11  1  0  0  0  0
  9 24  1  0  0  0  0
 11 12  1  0  0  0  0
 11 13  1  0  0  0  0
 11 14  1  0  0  0  0
 14 15  1  0  0  0  0
 14 16  1  0  0  0  0
 14 20  1  0  0  0  0
 16 17  1  0  0  0  0
 16 18  1  0  0  0  0
 16 19  1  0  0  0  0
 20 21  1  0  0  0  0
 20 22  1  0  0  0  0
 20 23  1  0  0  0  0
 24 25  2  0  0  0  0
 24 26  1  0  0  0  0
 26 27  1  0  0  0  0
 26 28  1  0  0  0  0
 28 29  1  0  0  0  0
 28 30  1  0  0  0  0
 28 31  1  0  0  0  0
M  END
$$$$

  -OEChem-03222214063D

 31 30  0     1  0  0  0  0  0999 V2000
   -3.3934   -3.9130    1.2266 H   0  0  0  0  0  0  0  0  0  0  0  0
   -3.3252   -2.9492    0.7143 C   0  0  0  0  0  0  0  0  0  0  0  0
   -4.0387   -2.2576    1.1686 H   0  0  0  0  0  0  0  0  0  0  0  0
   -3.5839   -3.0909   -0.3378 H   0  0  0  0  0  0  0  0  0  0  0  0
   -1.9180   -2.3940    0.8301 C   0  0  0  0  0  0  0  0  0  0  0  0
   -1.0620   -3.0242    1.4312 O   0  0  0  0  0  0  0  0  0  0  0  0
   -1.6144   -1.1765    0.2573 N   0  0  0  0  0  0  0  0  0  0  0  0
   -2.3799   -0.6444   -0.1533 H   0  0  0  0  0  0  0  0  0  0  0  0
   -0.3095   -0.5062    0.3495 C   0  0  1  0  0  0  0  0  0  0  0  0
    0.2824   -0.9353    1.1621 H   0  0  0  0  0  0  0  0  0  0  0  0
    0.4307   -0.6555   -0.9961 C   0  0  0  0  0  0  0  0  0  0  0  0
   -0.3056   -0.6629   -1.8071 H   0  0  0  0  0  0  0  0  0  0  0  0
    1.0745    0.2154   -1.1614 H   0  0  0  0  0  0  0  0  0  0  0  0
    1.3052   -1.9239   -1.0640 C   0  0  0  0  0  0  0  0  0  0  0  0
    0.7265   -2.7802   -0.7004 H   0  0  0  0  0  0  0  0  0  0  0  0
    1.6973   -2.1960   -2.5207 C   0  0  0  0  0  0  0  0  0  0  0  0
    2.2766   -1.3610   -2.9278 H   0  0  0  0  0  0  0  0  0  0  0  0
    2.3020   -3.1057   -2.5892 H   0  0  0  0  0  0  0  0  0  0  0  0
    0.8037   -2.3335   -3.1376 H   0  0  0  0  0  0  0  0  0  0  0  0
    2.5780   -1.7880   -0.2146 C   0  0  0  0  0  0  0  0  0  0  0  0
    2.3343   -1.6773    0.8452 H   0  0  0  0  0  0  0  0  0  0  0  0
    3.2009   -2.6814   -0.3225 H   0  0  0  0  0  0  0  0  0  0  0  0
    3.1628   -0.9182   -0.5305 H   0  0  0  0  0  0  0  0  0  0  0  0
   -0.5063    0.9878    0.6729 C   0  0  0  0  0  0  0  0  0  0  0  0
   -1.3820    1.6276    0.1008 O   0  0  0  0  0  0  0  0  0  0  0  0
    0.2718    1.6052    1.6350 N   0  0  0  0  0  0  0  0  0  0  0  0
    0.9562    1.0350    2.1241 H   0  0  0  0  0  0  0  0  0  0  0  0
    0.1156    3.0035    2.0160 C   0  0  0  0  0  0  0  0  0  0  0  0
   -0.8899    3.1831    2.4107 H   0  0  0  0  0  0  0  0  0  0  0  0
    0.8432    3.2680    2.7893 H   0  0  0  0  0  0  0  0  0  0  0  0
    0.2773    3.6565    1.1518 H   0  0  0  0  0  0  0  0  0  0  0  0
  1  2  1  0  0  0  0
  2  3  1  0  0  0  0
  2  4  1  0  0  0  0
  2  5  1  0  0  0  0
  5  6  2  0  0  0  0
  5  7  1  0  0  0  0
  7  8  1  0  0  0  0
  7  9  1  0  0  0  0
  9 10  1  0  0  0  0
  9 11  1  0  0  0  0
  9 24  1  0  0  0  0
 11 12  1  0  0  0  0
 11 13  1  0  0  0  0
 11 14  1  0  0  0  0
 14 15  1  0  0  0  0
 14 16  1  0  0  0  0
 14 20  1  0  0  0  0
 16 17  1  0  0  0  0
 16 18  1  0  0  0  0
 16 19  1  0  0  0  0
 20 21  1  0  0  0  0
 20 22  1  0  0  0  0
 20 23  1  0  0  0  0
 24 25  2  0  0  0  0
 24 26  1  0  0  0  0
 26 27  1  0  0  0  0
 26 28  1  0  0  0  0
 28 29  1  0  0  0  0
 28 30  1  0  0  0  0
 28 31  1  0  0  0  0
M  END
$$$$

  -OEChem-03222214063D

 31 30  0     1  0  0  0  0  0999 V2000
   -3.4416   -3.8902    1.2355 H   0  0  0  0  0  0  0  0  0  0  0  0
   -3.3547   -2.9278    0.7235 C   0  0  0  0  0  0  0  0  0  0  0  0
   -4.0708   -2.2289    1.1623 H   0  0  0  0  0  0  0  0  0  0  0  0
   -3.5934   -3.0686   -0.3334 H   0  0  0  0  0  0  0  0  0  0  0  0
   -1.9458   -2.3841    0.8662 C   0  0  0  0  0  0  0  0  0  0  0  0
   -1.1139   -3.0094    1.5042 O   0  0  0  0  0  0  0  0  0  0  0  0
   -1.6170   -1.1805    0.2789 N   0  0  0  0  0  0  0  0  0  0  0  0
   -2.3677   -0.6528   -0.1635 H   0  0  0  0  0  0  0  0  0  0  0  0
   -0.3079   -0.5194    0.3798 C   0  0  1  0  0  0  0  0  0  0  0  0
    0.2745   -0.9362    1.2052 H   0  0  0  0  0  0  0  0  0  0  0  0
    0.4442   -0.6846   -0.9564 C   0  0  0  0  0  0  0  0  0  0  0  0
   -0.2323   -0.4236   -1.7774 H   0  0  0  0  0  0  0  0  0  0  0  0
    1.2718    0.0327   -0.9803 H   0  0  0  0  0  0  0  0  0  0  0  0
    1.0244   -2.0949   -1.2002 C   0  0  0  0  0  0  0  0  0  0  0  0
    0.2066   -2.8228   -1.2225 H   0  0  0  0  0  0  0  0  0  0  0  0
    1.7369   -2.1107   -2.5579 C   0  0  0  0  0  0  0  0  0  0  0  0
    2.5810   -1.4136   -2.5622 H   0  0  0  0  0  0  0  0  0  0  0  0
    2.1133   -3.1142   -2.7802 H   0  0  0  0  0  0  0  0  0  0  0  0
    1.0440   -1.8230   -3.3547 H   0  0  0  0  0  0  0  0  0  0  0  0
    2.0324   -2.5176   -0.1200 C   0  0  0  0  0  0  0  0  0  0  0  0
    1.5339   -2.6899    0.8373 H   0  0  0  0  0  0  0  0  0  0  0  0
    2.5259   -3.4518   -0.4058 H   0  0  0  0  0  0  0  0  0  0  0  0
    2.7989   -1.7482    0.0157 H   0  0  0  0  0  0  0  0  0  0  0  0
   -0.4980    0.9818    0.6733 C   0  0  0  0  0  0  0  0  0  0  0  0
   -1.3574    1.6183    0.0734 O   0  0  0  0  0  0  0  0  0  0  0  0
    0.2684    1.6123    1.6363 N   0  0  0  0  0  0  0  0  0  0  0  0
    0.9303    1.0441    2.1576 H   0  0  0  0  0  0  0  0  0  0  0  0
    0.1074    3.0166    1.9930 C   0  0  0  0  0  0  0  0  0  0  0  0
   -0.8998    3.2000    2.3816 H   0  0  0  0  0  0  0  0  0  0  0  0
    0.8322    3.2967    2.7633 H   0  0  0  0  0  0  0  0  0  0  0  0
    0.2697    3.6550    1.1181 H   0  0  0  0  0  0  0  0  0  0  0  0
  1  2  1  0  0  0  0
  2  3  1  0  0  0  0
  2  4  1  0  0  0  0
  2  5  1  0  0  0  0
  5  6  2  0  0  0  0
  5  7  1  0  0  0  0
  7  8  1  0  0  0  0
  7  9  1  0  0  0  0
  9 10  1  0  0  0  0
  9 11  1  0  0  0  0
  9 24  1  0  0  0  0
 11 12  1  0  0  0  0
 11 13  1  0  0  0  0
 11 14  1  0  0  0  0
 14 15  1  0  0  0  0
 14 16  1  0  0  0  0
 14 20  1  0  0  0  0
 16 17  1  0  0  0  0
 16 18  1  0  0  0  0
 16 19  1  0  0  0  0
 20 21  1  0  0  0  0
 20 22  1  0  0  0  0
 20 23  1  0  0  0  0
 24 25  2  0  0  0  0
 24 26  1  0  0  0  0
 26 27  1  0  0  0  0
 26 28  1  0  0  0  0
 28 29  1  0  0  0  0
 28 30  1  0  0  0  0
 28 31  1  0  0  0  0
M  END
$$$$

  -OEChem-03222214063D

 31 30  0     1  0  0  0  0  0999 V2000
   -3.5056   -3.8762    1.2033 H   0  0  0  0  0  0  0  0  0  0  0  0
   -3.3932   -2.9118    0.6999 C   0  0  0  0  0  0  0  0  0  0  0  0
   -4.1350   -2.2162    1.0996 H   0  0  0  0  0  0  0  0  0  0  0  0
   -3.5715   -3.0503   -0.3691 H   0  0  0  0  0  0  0  0  0  0  0  0
   -1.9963   -2.3652    0.9252 C   0  0  0  0  0  0  0  0  0  0  0  0
   -1.2287   -2.9546    1.6675 O   0  0  0  0  0  0  0  0  0  0  0  0
   -1.6256   -1.1813    0.3238 N   0  0  0  0  0  0  0  0  0  0  0  0
   -2.3440   -0.6786   -0.1943 H   0  0  0  0  0  0  0  0  0  0  0  0
   -0.3096   -0.5320    0.4254 C   0  0  1  0  0  0  0  0  0  0  0  0
    0.2683   -0.9426    1.2577 H   0  0  0  0  0  0  0  0  0  0  0  0
    0.4399   -0.7112   -0.9140 C   0  0  0  0  0  0  0  0  0  0  0  0
   -0.2267   -0.4325   -1.7374 H   0  0  0  0  0  0  0  0  0  0  0  0
    1.2703    0.0032   -0.9203 H   0  0  0  0  0  0  0  0  0  0  0  0
    1.0267   -2.1141   -1.1991 C   0  0  0  0  0  0  0  0  0  0  0  0
    0.2152   -2.7984   -1.4688 H   0  0  0  0  0  0  0  0  0  0  0  0
    2.0247   -2.0020   -2.3605 C   0  0  0  0  0  0  0  0  0  0  0  0
    2.8722   -1.3641   -2.0896 H   0  0  0  0  0  0  0  0  0  0  0  0
    2.4079   -2.9907   -2.6320 H   0  0  0  0  0  0  0  0  0  0  0  0
    1.5355   -1.5732   -3.2407 H   0  0  0  0  0  0  0  0  0  0  0  0
    1.8048   -2.7037   -0.0108 C   0  0  0  0  0  0  0  0  0  0  0  0
    1.1384   -2.9588    0.8141 H   0  0  0  0  0  0  0  0  0  0  0  0
    2.3181   -3.6230   -0.3102 H   0  0  0  0  0  0  0  0  0  0  0  0
    2.5526   -1.9914    0.3520 H   0  0  0  0  0  0  0  0  0  0  0  0
   -0.4926    0.9769    0.6837 C   0  0  0  0  0  0  0  0  0  0  0  0
   -1.3318    1.6094    0.0516 O   0  0  0  0  0  0  0  0  0  0  0  0
    0.2670    1.6218    1.6423 N   0  0  0  0  0  0  0  0  0  0  0  0
    0.9050    1.0561    2.1950 H   0  0  0  0  0  0  0  0  0  0  0  0
    0.1049    3.0316    1.9755 C   0  0  0  0  0  0  0  0  0  0  0  0
   -0.9037    3.2211    2.3576 H   0  0  0  0  0  0  0  0  0  0  0  0
    0.8270    3.3242    2.7438 H   0  0  0  0  0  0  0  0  0  0  0  0
    0.2703    3.6560    1.0912 H   0  0  0  0  0  0  0  0  0  0  0  0
  1  2  1  0  0  0  0
  2  3  1  0  0  0  0
  2  4  1  0  0  0  0
  2  5  1  0  0  0  0
  5  6  2  0  0  0  0
  5  7  1  0  0  0  0
  7  8  1  0  0  0  0
  7  9  1  0  0  0  0
  9 10  1  0  0  0  0
  9 11  1  0  0  0  0
  9 24  1  0  0  0  0
 11 12  1  0  0  0  0
 11 13  1  0  0  0  0
 11 14  1  0  0  0  0
 14 15  1  0  0  0  0
 14 16  1  0  0  0  0
 14 20  1  0  0  0  0
 16 17  1  0  0  0  0
 16 18  1  0  0  0  0
 16 19  1  0  0  0  0
 20 21  1  0  0  0  0
 20 22  1  0  0  0  0
 20 23  1  0  0  0  0
 24 25  2  0  0  0  0
 24 26  1  0  0  0  0
 26 27  1  0  0  0  0
 26 28  1  0  0  0  0
 28 29  1  0  0  0  0
 28 30  1  0  0  0  0
 28 31  1  0  0  0  0
M  END
$$$$

  -OEChem-03222214063D

 31 30  0     1  0  0  0  0  0999 V2000
   -3.5649   -3.8570    1.2298 H   0  0  0  0  0  0  0  0  0  0  0  0
   -3.4218   -2.9150    0.6929 C   0  0  0  0  0  0  0  0  0  0  0  0
   -4.2006   -2.2124    0.9993 H   0  0  0  0  0  0  0  0  0  0  0  0
   -3.5122   -3.1047   -0.3793 H   0  0  0  0  0  0  0  0  0  0  0  0
   -2.0534   -2.3387    1.0039 C   0  0  0  0  0  0  0  0  0  0  0  0
   -1.3632   -2.8546    1.8674 O   0  0  0  0  0  0  0  0  0  0  0  0
   -1.6477   -1.1775    0.3806 N   0  0  0  0  0  0  0  0  0  0  0  0
   -2.3253   -0.7194   -0.2258 H   0  0  0  0  0  0  0  0  0  0  0  0
   -0.3208   -0.5473    0.4760 C   0  0  1  0  0  0  0  0  0  0  0  0
    0.2547   -0.9586    1.3104 H   0  0  0  0  0  0  0  0  0  0  0  0
    0.4357   -0.7228   -0.8656 C   0  0  0  0  0  0  0  0  0  0  0  0
   -0.2229   -0.4180   -1.6863 H   0  0  0  0  0  0  0  0  0  0  0  0
    1.2641   -0.0059   -0.8476 H   0  0  0  0  0  0  0  0  0  0  0  0
    1.0344   -2.1112   -1.2139 C   0  0  0  0  0  0  0  0  0  0  0  0
    0.2843   -2.6988   -1.7539 H   0  0  0  0  0  0  0  0  0  0  0  0
    2.2766   -1.9062   -2.0952 C   0  0  0  0  0  0  0  0  0  0  0  0
    3.0653   -1.3811   -1.5465 H   0  0  0  0  0  0  0  0  0  0  0  0
    2.6717   -2.8701   -2.4313 H   0  0  0  0  0  0  0  0  0  0  0  0
    2.0190   -1.3179   -2.9815 H   0  0  0  0  0  0  0  0  0  0  0  0
    1.5136   -2.9195    0.0011 C   0  0  0  0  0  0  0  0  0  0  0  0
    0.6704   -3.2835    0.5845 H   0  0  0  0  0  0  0  0  0  0  0  0
    2.0834   -3.7963   -0.3223 H   0  0  0  0  0  0  0  0  0  0  0  0
    2.1550   -2.3105    0.6457 H   0  0  0  0  0  0  0  0  0  0  0  0
   -0.4926    0.9698    0.6981 C   0  0  0  0  0  0  0  0  0  0  0  0
   -1.3088    1.6002    0.0341 O   0  0  0  0  0  0  0  0  0  0  0  0
    0.2661    1.6284    1.6482 N   0  0  0  0  0  0  0  0  0  0  0  0
    0.8806    1.0663    2.2304 H   0  0  0  0  0  0  0  0  0  0  0  0
    0.1216    3.0488    1.9422 C   0  0  0  0  0  0  0  0  0  0  0  0
   -0.8844    3.2615    2.3190 H   0  0  0  0  0  0  0  0  0  0  0  0
    0.8480    3.3536    2.7018 H   0  0  0  0  0  0  0  0  0  0  0  0
    0.2946    3.6463    1.0408 H   0  0  0  0  0  0  0  0  0  0  0  0
  1  2  1  0  0  0  0
  2  3  1  0  0  0  0
  2  4  1  0  0  0  0
  2  5  1  0  0  0  0
  5  6  2  0  0  0  0
  5  7  1  0  0  0  0
  7  8  1  0  0  0  0
  7  9  1  0  0  0  0
  9 10  1  0  0  0  0
  9 11  1  0  0  0  0
  9 24  1  0  0  0  0
 11 12  1  0  0  0  0
 11 13  1  0  0  0  0
 11 14  1  0  0  0  0
 14 15  1  0  0  0  0
 14 16  1  0  0  0  0
 14 20  1  0  0  0  0
 16 17  1  0  0  0  0
 16 18  1  0  0  0  0
 16 19  1  0  0  0  0
 20 21  1  0  0  0  0
 20 22  1  0  0  0  0
 20 23  1  0  0  0  0
 24 25  2  0  0  0  0
 24 26  1  0  0  0  0
 26 27  1  0  0  0  0
 26 28  1  0  0  0  0
 28 29  1  0  0  0  0
 28 30  1  0  0  0  0
 28 31  1  0  0  0  0
M  END
$$$$

  -OEChem-03222214063D

 31 30  0     1  0  0  0  0  0999 V2000
   -3.5329   -3.8885    1.3051 H   0  0  0  0  0  0  0  0  0  0  0  0
   -3.4112   -2.9440    0.7674 C   0  0  0  0  0  0  0  0  0  0  0  0
   -4.1938   -2.2518    1.0876 H   0  0  0  0  0  0  0  0  0  0  0  0
   -3.5166   -3.1334   -0.3035 H   0  0  0  0  0  0  0  0  0  0  0  0
   -2.0456   -2.3501    1.0563 C   0  0  0  0  0  0  0  0  0  0  0  0
   -1.3357   -2.8506    1.9143 O   0  0  0  0  0  0  0  0  0  0  0  0
   -1.6598   -1.1882    0.4219 N   0  0  0  0  0  0  0  0  0  0  0  0
   -2.3472   -0.7380   -0.1792 H   0  0  0  0  0  0  0  0  0  0  0  0
   -0.3328   -0.5563    0.4972 C   0  0  1  0  0  0  0  0  0  0  0  0
    0.2546   -0.9627    1.3255 H   0  0  0  0  0  0  0  0  0  0  0  0
    0.4311   -0.7007   -0.8466 C   0  0  0  0  0  0  0  0  0  0  0  0
   -0.2375   -0.3887   -1.6564 H   0  0  0  0  0  0  0  0  0  0  0  0
    1.2406    0.0373   -0.8172 H   0  0  0  0  0  0  0  0  0  0  0  0
    1.0602   -2.0654   -1.2534 C   0  0  0  0  0  0  0  0  0  0  0  0
    0.4487   -2.4978   -2.0527 H   0  0  0  0  0  0  0  0  0  0  0  0
    2.4788   -1.8227   -1.7935 C   0  0  0  0  0  0  0  0  0  0  0  0
    3.1347   -1.4405   -1.0045 H   0  0  0  0  0  0  0  0  0  0  0  0
    2.9078   -2.7523   -2.1807 H   0  0  0  0  0  0  0  0  0  0  0  0
    2.4554   -1.0953   -2.6112 H   0  0  0  0  0  0  0  0  0  0  0  0
    1.1794   -3.1147   -0.1406 C   0  0  0  0  0  0  0  0  0  0  0  0
    1.8187   -3.9432   -0.4611 H   0  0  0  0  0  0  0  0  0  0  0  0
    0.2018   -3.5388    0.0855 H   0  0  0  0  0  0  0  0  0  0  0  0
    1.6112   -2.6849    0.7680 H   0  0  0  0  0  0  0  0  0  0  0  0
   -0.5193    0.9593    0.7216 C   0  0  0  0  0  0  0  0  0  0  0  0
   -1.3484    1.5833    0.0673 O   0  0  0  0  0  0  0  0  0  0  0  0
    0.2459    1.6241    1.6619 N   0  0  0  0  0  0  0  0  0  0  0  0
    0.8702    1.0661    2.2377 H   0  0  0  0  0  0  0  0  0  0  0  0
    0.0953    3.0435    1.9567 C   0  0  0  0  0  0  0  0  0  0  0  0
   -0.9103    3.2513    2.3370 H   0  0  0  0  0  0  0  0  0  0  0  0
    0.8227    3.3517    2.7139 H   0  0  0  0  0  0  0  0  0  0  0  0
    0.2623    3.6418    1.0548 H   0  0  0  0  0  0  0  0  0  0  0  0
  1  2  1  0  0  0  0
  2  3  1  0  0  0  0
  2  4  1  0  0  0  0
  2  5  1  0  0  0  0
  5  6  2  0  0  0  0
  5  7  1  0  0  0  0
  7  8  1  0  0  0  0
  7  9  1  0  0  0  0
  9 10  1  0  0  0  0
  9 11  1  0  0  0  0
  9 24  1  0  0  0  0
 11 12  1  0  0  0  0
 11 13  1  0  0  0  0
 11 14  1  0  0  0  0
 14 15  1  0  0  0  0
 14 16  1  0  0  0  0
 14 20  1  0  0  0  0
 16 17  1  0  0  0  0
 16 18  1  0  0  0  0
 16 19  1  0  0  0  0
 20 21  1  0  0  0  0
 20 22  1  0  0  0  0
 20 23  1  0  0  0  0
 24 25  2  0  0  0  0
 24 26  1  0  0  0  0
 26 27  1  0  0  0  0
 26 28  1  0  0  0  0
 28 29  1  0  0  0  0
 28 30  1  0  0  0  0
 28 31  1  0  0  0  0
M  END
$$$$

  -OEChem-03222214063D

 31 30  0     1  0  0  0  0  0999 V2000
   -3.6316   -3.7945    1.3392 H   0  0  0  0  0  0  0  0  0  0  0  0
   -3.4802   -2.8624    0.7876 C   0  0  0  0  0  0  0  0  0  0  0  0
   -4.2323   -2.1370    1.1070 H   0  0  0  0  0  0  0  0  0  0  0  0
   -3.6046   -3.0609   -0.2796 H   0  0  0  0  0  0  0  0  0  0  0  0
   -2.0901   -2.3170    1.0545 C   0  0  0  0  0  0  0  0  0  0  0  0
   -1.3789   -2.8500    1.8915 O   0  0  0  0  0  0  0  0  0  0  0  0
   -1.6759   -1.1675    0.4147 N   0  0  0  0  0  0  0  0  0  0  0  0
   -2.3605   -0.6917   -0.1702 H   0  0  0  0  0  0  0  0  0  0  0  0
   -0.3376   -0.5575    0.4916 C   0  0  1  0  0  0  0  0  0  0  0  0
    0.2348   -0.9672    1.3294 H   0  0  0  0  0  0  0  0  0  0  0  0
    0.4590   -0.7137   -0.8337 C   0  0  0  0  0  0  0  0  0  0  0  0
   -0.2083   -0.4172   -1.6505 H   0  0  0  0  0  0  0  0  0  0  0  0
    1.2614    0.0322   -0.8142 H   0  0  0  0  0  0  0  0  0  0  0  0
    1.0902   -2.0816   -1.2319 C   0  0  0  0  0  0  0  0  0  0  0  0
    0.6932   -2.3535   -2.2161 H   0  0  0  0  0  0  0  0  0  0  0  0
    2.6120   -1.9201   -1.3735 C   0  0  0  0  0  0  0  0  0  0  0  0
    3.0624   -1.6542   -0.4118 H   0  0  0  0  0  0  0  0  0  0  0  0
    3.0675   -2.8515   -1.7246 H   0  0  0  0  0  0  0  0  0  0  0  0
    2.8480   -1.1355   -2.0995 H   0  0  0  0  0  0  0  0  0  0  0  0
    0.8267   -3.2659   -0.2976 C   0  0  0  0  0  0  0  0  0  0  0  0
   -0.2216   -3.5638   -0.3532 H   0  0  0  0  0  0  0  0  0  0  0  0
    1.4235   -4.1317   -0.6006 H   0  0  0  0  0  0  0  0  0  0  0  0
    1.0863   -3.0215    0.7365 H   0  0  0  0  0  0  0  0  0  0  0  0
   -0.5063    0.9623    0.7030 C   0  0  0  0  0  0  0  0  0  0  0  0
   -1.3295    1.5898    0.0446 O   0  0  0  0  0  0  0  0  0  0  0  0
    0.2620    1.6252    1.6423 N   0  0  0  0  0  0  0  0  0  0  0  0
    0.8848    1.0655    2.2180 H   0  0  0  0  0  0  0  0  0  0  0  0
    0.1252    3.0479    1.9286 C   0  0  0  0  0  0  0  0  0  0  0  0
   -0.8778    3.2673    2.3092 H   0  0  0  0  0  0  0  0  0  0  0  0
    0.8567    3.3538    2.6826 H   0  0  0  0  0  0  0  0  0  0  0  0
    0.2961    3.6393    1.0229 H   0  0  0  0  0  0  0  0  0  0  0  0
  1  2  1  0  0  0  0
  2  3  1  0  0  0  0
  2  4  1  0  0  0  0
  2  5  1  0  0  0  0
  5  6  2  0  0  0  0
  5  7  1  0  0  0  0
  7  8  1  0  0  0  0
  7  9  1  0  0  0  0
  9 10  1  0  0  0  0
  9 11  1  0  0  0  0
  9 24  1  0  0  0  0
 11 12  1  0  0  0  0
 11 13  1  0  0  0  0
 11 14  1  0  0  0  0
 14 15  1  0  0  0  0
 14 16  1  0  0  0  0
 14 20  1  0  0  0  0
 16 17  1  0  0  0  0
 16 18  1  0  0  0  0
 16 19  1  0  0  0  0
 20 21  1  0  0  0  0
 20 22  1  0  0  0  0
 20 23  1  0  0  0  0
 24 25  2  0  0  0  0
 24 26  1  0  0  0  0
 26 27  1  0  0  0  0
 26 28  1  0  0  0  0
 28 29  1  0  0  0  0
 28 30  1  0  0  0  0
 28 31  1  0  0  0  0
M  END
$$$$

  -OEChem-03222214063D

 31 30  0     1  0  0  0  0  0999 V2000
   -3.6419   -3.7964    1.3496 H   0  0  0  0  0  0  0  0  0  0  0  0
   -3.4924   -2.8609    0.8032 C   0  0  0  0  0  0  0  0  0  0  0  0
   -4.2451   -2.1382    1.1276 H   0  0  0  0  0  0  0  0  0  0  0  0
   -3.6184   -3.0540   -0.2648 H   0  0  0  0  0  0  0  0  0  0  0  0
   -2.1023   -2.3155    1.0708 C   0  0  0  0  0  0  0  0  0  0  0  0
   -1.3928   -2.8493    1.9082 O   0  0  0  0  0  0  0  0  0  0  0  0
   -1.6854   -1.1682    0.4279 N   0  0  0  0  0  0  0  0  0  0  0  0
   -2.3704   -0.6924   -0.1563 H   0  0  0  0  0  0  0  0  0  0  0  0
   -0.3446   -0.5608    0.4949 C   0  0  1  0  0  0  0  0  0  0  0  0
    0.2306   -0.9767    1.3282 H   0  0  0  0  0  0  0  0  0  0  0  0
    0.4599   -0.7117   -0.8274 C   0  0  0  0  0  0  0  0  0  0  0  0
   -0.2200   -0.4316   -1.6397 H   0  0  0  0  0  0  0  0  0  0  0  0
    1.2543    0.0429   -0.8260 H   0  0  0  0  0  0  0  0  0  0  0  0
    1.0965   -2.0742   -1.2256 C   0  0  0  0  0  0  0  0  0  0  0  0
    0.9383   -2.1988   -2.3024 H   0  0  0  0  0  0  0  0  0  0  0  0
    2.6134   -2.0188   -0.9946 C   0  0  0  0  0  0  0  0  0  0  0  0
    2.8345   -1.8609    0.0659 H   0  0  0  0  0  0  0  0  0  0  0  0
    3.0845   -2.9546   -1.3117 H   0  0  0  0  0  0  0  0  0  0  0  0
    3.0613   -1.2028   -1.5707 H   0  0  0  0  0  0  0  0  0  0  0  0
    0.5449   -3.3272   -0.5469 C   0  0  0  0  0  0  0  0  0  0  0  0
   -0.5210   -3.4383   -0.7578 H   0  0  0  0  0  0  0  0  0  0  0  0
    1.0513   -4.2184   -0.9304 H   0  0  0  0  0  0  0  0  0  0  0  0
    0.7083   -3.2869    0.5332 H   0  0  0  0  0  0  0  0  0  0  0  0
   -0.5101    0.9596    0.7052 C   0  0  0  0  0  0  0  0  0  0  0  0
   -1.3364    1.5871    0.0507 O   0  0  0  0  0  0  0  0  0  0  0  0
    0.2650    1.6234    1.6381 N   0  0  0  0  0  0  0  0  0  0  0  0
    0.8904    1.0641    2.2113 H   0  0  0  0  0  0  0  0  0  0  0  0
    0.1284    3.0460    1.9252 C   0  0  0  0  0  0  0  0  0  0  0  0
   -0.8727    3.2645    2.3116 H   0  0  0  0  0  0  0  0  0  0  0  0
    0.8639    3.3522    2.6753 H   0  0  0  0  0  0  0  0  0  0  0  0
    0.2938    3.6380    1.0188 H   0  0  0  0  0  0  0  0  0  0  0  0
  1  2  1  0  0  0  0
  2  3  1  0  0  0  0
  2  4  1  0  0  0  0
  2  5  1  0  0  0  0
  5  6  2  0  0  0  0
  5  7  1  0  0  0  0
  7  8  1  0  0  0  0
  7  9  1  0  0  0  0
  9 10  1  0  0  0  0
  9 11  1  0  0  0  0
  9 24  1  0  0  0  0
 11 12  1  0  0  0  0
 11 13  1  0  0  0  0
 11 14  1  0  0  0  0
 14 15  1  0  0  0  0
 14 16  1  0  0  0  0
 14 20  1  0  0  0  0
 16 17  1  0  0  0  0
 16 18  1  0  0  0  0
 16 19  1  0  0  0  0
 20 21  1  0  0  0  0
 20 22  1  0  0  0  0
 20 23  1  0  0  0  0
 24 25  2  0  0  0  0
 24 26  1  0  0  0  0
 26 27  1  0  0  0  0
 26 28  1  0  0  0  0
 28 29  1  0  0  0  0
 28 30  1  0  0  0  0
 28 31  1  0  0  0  0
M  END
$$$$

  -OEChem-03222214063D

 31 30  0     1  0  0  0  0  0999 V2000
   -3.6097   -3.8256    1.3426 H   0  0  0  0  0  0  0  0  0  0  0  0
   -3.4759   -2.8814    0.8073 C   0  0  0  0  0  0  0  0  0  0  0  0
   -4.2396   -2.1747    1.1408 H   0  0  0  0  0  0  0  0  0  0  0  0
   -3.5998   -3.0637   -0.2629 H   0  0  0  0  0  0  0  0  0  0  0  0
   -2.0942   -2.3175    1.0801 C   0  0  0  0  0  0  0  0  0  0  0  0
   -1.3809   -2.8393    1.9221 O   0  0  0  0  0  0  0  0  0  0  0  0
   -1.6875   -1.1683    0.4345 N   0  0  0  0  0  0  0  0  0  0  0  0
   -2.3728   -0.7022   -0.1571 H   0  0  0  0  0  0  0  0  0  0  0  0
   -0.3480   -0.5591    0.4978 C   0  0  1  0  0  0  0  0  0  0  0  0
    0.2295   -0.9759    1.3292 H   0  0  0  0  0  0  0  0  0  0  0  0
    0.4569   -0.7059   -0.8240 C   0  0  0  0  0  0  0  0  0  0  0  0
   -0.2231   -0.4290   -1.6370 H   0  0  0  0  0  0  0  0  0  0  0  0
    1.2568    0.0429   -0.8260 H   0  0  0  0  0  0  0  0  0  0  0  0
    1.0897   -2.0679   -1.2116 C   0  0  0  0  0  0  0  0  0  0  0  0
    1.1844   -2.0619   -2.3030 H   0  0  0  0  0  0  0  0  0  0  0  0
    2.5110   -2.1666   -0.6431 C   0  0  0  0  0  0  0  0  0  0  0  0
    2.4891   -2.1405    0.4510 H   0  0  0  0  0  0  0  0  0  0  0  0
    2.9833   -3.1024   -0.9587 H   0  0  0  0  0  0  0  0  0  0  0  0
    3.1289   -1.3367   -1.0005 H   0  0  0  0  0  0  0  0  0  0  0  0
    0.3019   -3.3258   -0.8500 C   0  0  0  0  0  0  0  0  0  0  0  0
   -0.7374   -3.2377   -1.1773 H   0  0  0  0  0  0  0  0  0  0  0  0
    0.7393   -4.1962   -1.3484 H   0  0  0  0  0  0  0  0  0  0  0  0
    0.3372   -3.5073    0.2261 H   0  0  0  0  0  0  0  0  0  0  0  0
   -0.5147    0.9605    0.7100 C   0  0  0  0  0  0  0  0  0  0  0  0
   -1.3401    1.5876    0.0539 O   0  0  0  0  0  0  0  0  0  0  0  0
    0.2619    1.6256    1.6410 N   0  0  0  0  0  0  0  0  0  0  0  0
    0.8828    1.0665    2.2193 H   0  0  0  0  0  0  0  0  0  0  0  0
    0.1281    3.0495    1.9226 C   0  0  0  0  0  0  0  0  0  0  0  0
   -0.8706    3.2698    2.3140 H   0  0  0  0  0  0  0  0  0  0  0  0
    0.8682    3.3592    2.6666 H   0  0  0  0  0  0  0  0  0  0  0  0
    0.2881    3.6371    1.0124 H   0  0  0  0  0  0  0  0  0  0  0  0
  1  2  1  0  0  0  0
  2  3  1  0  0  0  0
  2  4  1  0  0  0  0
  2  5  1  0  0  0  0
  5  6  2  0  0  0  0
  5  7  1  0  0  0  0
  7  8  1  0  0  0  0
  7  9  1  0  0  0  0
  9 10  1  0  0  0  0
  9 11  1  0  0  0  0
  9 24  1  0  0  0  0
 11 12  1  0  0  0  0
 11 13  1  0  0  0  0
 11 14  1  0  0  0  0
 14 15  1  0  0  0  0
 14 16  1  0  0  0  0
 14 20  1  0  0  0  0
 16 17  1  0  0  0  0
 16 18  1  0  0  0  0
 16 19  1  0  0  0  0
 20 21  1  0  0  0  0
 20 22  1  0  0  0  0
 20 23  1  0  0  0  0
 24 25  2  0  0  0  0
 24 26  1  0  0  0  0
 26 27  1  0  0  0  0
 26 28  1  0  0  0  0
 28 29  1  0  0  0  0
 28 30  1  0  0  0  0
 28 31  1  0  0  0  0
M  END
$$$$

  -OEChem-03222214063D

 31 30  0     1  0  0  0  0  0999 V2000
   -3.5695   -3.8617    1.3345 H   0  0  0  0  0  0  0  0  0  0  0  0
   -3.4469   -2.9196    0.7927 C   0  0  0  0  0  0  0  0  0  0  0  0
   -4.2060   -2.2129    1.1369 H   0  0  0  0  0  0  0  0  0  0  0  0
   -3.5892   -3.1070   -0.2744 H   0  0  0  0  0  0  0  0  0  0  0  0
   -2.0619   -2.3515    1.0382 C   0  0  0  0  0  0  0  0  0  0  0  0
   -1.3129   -2.8973    1.8334 O   0  0  0  0  0  0  0  0  0  0  0  0
   -1.6832   -1.1814    0.4139 N   0  0  0  0  0  0  0  0  0  0  0  0
   -2.3867   -0.6985   -0.1419 H   0  0  0  0  0  0  0  0  0  0  0  0
   -0.3518   -0.5592    0.4879 C   0  0  1  0  0  0  0  0  0  0  0  0
    0.2294   -0.9837    1.3121 H   0  0  0  0  0  0  0  0  0  0  0  0
    0.4515   -0.6805   -0.8350 C   0  0  0  0  0  0  0  0  0  0  0  0
   -0.2176   -0.3875   -1.6513 H   0  0  0  0  0  0  0  0  0  0  0  0
    1.2603    0.0584   -0.8160 H   0  0  0  0  0  0  0  0  0  0  0  0
    1.0840   -2.0402   -1.2174 C   0  0  0  0  0  0  0  0  0  0  0  0
    1.4282   -1.9269   -2.2513 H   0  0  0  0  0  0  0  0  0  0  0  0
    2.3268   -2.3176   -0.3641 C   0  0  0  0  0  0  0  0  0  0  0  0
    2.0519   -2.4419    0.6881 H   0  0  0  0  0  0  0  0  0  0  0  0
    2.8219   -3.2335   -0.7017 H   0  0  0  0  0  0  0  0  0  0  0  0
    3.0419   -1.4930   -0.4437 H   0  0  0  0  0  0  0  0  0  0  0  0
    0.1424   -3.2462   -1.2098 C   0  0  0  0  0  0  0  0  0  0  0  0
   -0.8296   -2.9815   -1.6361 H   0  0  0  0  0  0  0  0  0  0  0  0
    0.0036   -3.6275   -0.1971 H   0  0  0  0  0  0  0  0  0  0  0  0
    0.5701   -4.0548   -1.8107 H   0  0  0  0  0  0  0  0  0  0  0  0
   -0.5311    0.9534    0.7360 C   0  0  0  0  0  0  0  0  0  0  0  0
   -1.3677    1.5873    0.1013 O   0  0  0  0  0  0  0  0  0  0  0  0
    0.2428    1.6032    1.6800 N   0  0  0  0  0  0  0  0  0  0  0  0
    0.8775    1.0373    2.2364 H   0  0  0  0  0  0  0  0  0  0  0  0
    0.1008    3.0197    1.9939 C   0  0  0  0  0  0  0  0  0  0  0  0
   -0.9026    3.2285    2.3797 H   0  0  0  0  0  0  0  0  0  0  0  0
    0.8319    3.3136    2.7533 H   0  0  0  0  0  0  0  0  0  0  0  0
    0.2687    3.6290    1.0995 H   0  0  0  0  0  0  0  0  0  0  0  0
  1  2  1  0  0  0  0
  2  3  1  0  0  0  0
  2  4  1  0  0  0  0
  2  5  1  0  0  0  0
  5  6  2  0  0  0  0
  5  7  1  0  0  0  0
  7  8  1  0  0  0  0
  7  9  1  0  0  0  0
  9 10  1  0  0  0  0
  9 11  1  0  0  0  0
  9 24  1  0  0  0  0
 11 12  1  0  0  0  0
 11 13  1  0  0  0  0
 11 14  1  0  0  0  0
 14 15  1  0  0  0  0
 14 16  1  0  0  0  0
 14 20  1  0  0  0  0
 16 17  1  0  0  0  0
 16 18  1  0  0  0  0
 16 19  1  0  0  0  0
 20 21  1  0  0  0  0
 20 22  1  0  0  0  0
 20 23  1  0  0  0  0
 24 25  2  0  0  0  0
 24 26  1  0  0  0  0
 26 27  1  0  0  0  0
 26 28  1  0  0  0  0
 28 29  1  0  0  0  0
 28 30  1  0  0  0  0
 28 31  1  0  0  0  0
M  END
$$$$

  -OEChem-03222214063D

 31 30  0     1  0  0  0  0  0999 V2000
   -3.5666   -3.8223    1.3778 H   0  0  0  0  0  0  0  0  0  0  0  0
   -3.4499   -2.8823    0.8311 C   0  0  0  0  0  0  0  0  0  0  0  0
   -4.1847   -2.1640    1.2025 H   0  0  0  0  0  0  0  0  0  0  0  0
   -3.6345   -3.0673   -0.2299 H   0  0  0  0  0  0  0  0  0  0  0  0
   -2.0483   -2.3360    1.0250 C   0  0  0  0  0  0  0  0  0  0  0  0
   -1.2684   -2.9100    1.7692 O   0  0  0  0  0  0  0  0  0  0  0  0
   -1.6760   -1.1703    0.3888 N   0  0  0  0  0  0  0  0  0  0  0  0
   -2.3933   -0.6677   -0.1306 H   0  0  0  0  0  0  0  0  0  0  0  0
   -0.3450   -0.5497    0.4595 C   0  0  1  0  0  0  0  0  0  0  0  0
    0.2291   -0.9603    1.2951 H   0  0  0  0  0  0  0  0  0  0  0  0
    0.4515   -0.7074   -0.8609 C   0  0  0  0  0  0  0  0  0  0  0  0
   -0.1997   -0.4110   -1.6904 H   0  0  0  0  0  0  0  0  0  0  0  0
    1.2799    0.0090   -0.8414 H   0  0  0  0  0  0  0  0  0  0  0  0
    1.0648   -2.0877   -1.1942 C   0  0  0  0  0  0  0  0  0  0  0  0
    1.6308   -1.9442   -2.1211 H   0  0  0  0  0  0  0  0  0  0  0  0
    2.0621   -2.5433   -0.1223 C   0  0  0  0  0  0  0  0  0  0  0  0
    1.5486   -2.7769    0.8154 H   0  0  0  0  0  0  0  0  0  0  0  0
    2.5885   -3.4430   -0.4556 H   0  0  0  0  0  0  0  0  0  0  0  0
    2.8036   -1.7617    0.0692 H   0  0  0  0  0  0  0  0  0  0  0  0
    0.0358   -3.1860   -1.4840 C   0  0  0  0  0  0  0  0  0  0  0  0
   -0.7991   -2.7884   -2.0690 H   0  0  0  0  0  0  0  0  0  0  0  0
    0.5048   -3.9909   -2.0584 H   0  0  0  0  0  0  0  0  0  0  0  0
   -0.3511   -3.6219   -0.5621 H   0  0  0  0  0  0  0  0  0  0  0  0
   -0.5157    0.9654    0.6943 C   0  0  0  0  0  0  0  0  0  0  0  0
   -1.3576    1.5950    0.0623 O   0  0  0  0  0  0  0  0  0  0  0  0
    0.2610    1.6195    1.6330 N   0  0  0  0  0  0  0  0  0  0  0  0
    0.9023    1.0576    2.1860 H   0  0  0  0  0  0  0  0  0  0  0  0
    0.1224    3.0383    1.9381 C   0  0  0  0  0  0  0  0  0  0  0  0
   -0.8775    3.2496    2.3311 H   0  0  0  0  0  0  0  0  0  0  0  0
    0.8603    3.3375    2.6888 H   0  0  0  0  0  0  0  0  0  0  0  0
    0.2820    3.6415    1.0382 H   0  0  0  0  0  0  0  0  0  0  0  0
  1  2  1  0  0  0  0
  2  3  1  0  0  0  0
  2  4  1  0  0  0  0
  2  5  1  0  0  0  0
  5  6  2  0  0  0  0
  5  7  1  0  0  0  0
  7  8  1  0  0  0  0
  7  9  1  0  0  0  0
  9 10  1  0  0  0  0
  9 11  1  0  0  0  0
  9 24  1  0  0  0  0
 11 12  1  0  0  0  0
 11 13  1  0  0  0  0
 11 14  1  0  0  0  0
 14 15  1  0  0  0  0
 14 16  1  0  0  0  0
 14 20  1  0  0  0  0
 16 17  1  0  0  0  0
 16 18  1  0  0  0  0
 16 19  1  0  0  0  0
 20 21  1  0  0  0  0
 20 22  1  0  0  0  0
 20 23  1  0  0  0  0
 24 25  2  0  0  0  0
 24 26  1  0  0  0  0
 26 27  1  0  0  0  0
 26 28  1  0  0  0  0
 28 29  1  0  0  0  0
 28 30  1  0  0  0  0
 28 31  1  0  0  0  0
M  END
$$$$

  -OEChem-03222214063D

 31 30  0     1  0  0  0  0  0999 V2000
   -3.5712   -3.8305    1.3462 H   0  0  0  0  0  0  0  0  0  0  0  0
   -3.4492   -2.8836    0.8127 C   0  0  0  0  0  0  0  0  0  0  0  0
   -4.1807   -2.1669    1.1938 H   0  0  0  0  0  0  0  0  0  0  0  0
   -3.6345   -3.0529   -0.2508 H   0  0  0  0  0  0  0  0  0  0  0  0
   -2.0446   -2.3468    1.0146 C   0  0  0  0  0  0  0  0  0  0  0  0
   -1.2735   -2.9318    1.7576 O   0  0  0  0  0  0  0  0  0  0  0  0
   -1.6659   -1.1782    0.3876 N   0  0  0  0  0  0  0  0  0  0  0  0
   -2.3827   -0.6750   -0.1322 H   0  0  0  0  0  0  0  0  0  0  0  0
   -0.3384   -0.5486    0.4613 C   0  0  1  0  0  0  0  0  0  0  0  0
    0.2385   -0.9570    1.2960 H   0  0  0  0  0  0  0  0  0  0  0  0
    0.4431   -0.7121   -0.8679 C   0  0  0  0  0  0  0  0  0  0  0  0
   -0.2036   -0.4001   -1.6953 H   0  0  0  0  0  0  0  0  0  0  0  0
    1.2785   -0.0042   -0.8412 H   0  0  0  0  0  0  0  0  0  0  0  0
    1.0584   -2.0921   -1.2061 C   0  0  0  0  0  0  0  0  0  0  0  0
    1.7991   -1.9170   -1.9938 H   0  0  0  0  0  0  0  0  0  0  0  0
    1.7877   -2.7363   -0.0206 C   0  0  0  0  0  0  0  0  0  0  0  0
    1.0880   -3.0485    0.7574 H   0  0  0  0  0  0  0  0  0  0  0  0
    2.3373   -3.6217   -0.3547 H   0  0  0  0  0  0  0  0  0  0  0  0
    2.5031   -2.0319    0.4144 H   0  0  0  0  0  0  0  0  0  0  0  0
    0.0248   -3.0709   -1.7775 C   0  0  0  0  0  0  0  0  0  0  0  0
   -0.5501   -2.5985   -2.5797 H   0  0  0  0  0  0  0  0  0  0  0  0
    0.5306   -3.9490   -2.1908 H   0  0  0  0  0  0  0  0  0  0  0  0
   -0.6671   -3.4139   -1.0066 H   0  0  0  0  0  0  0  0  0  0  0  0
   -0.5138    0.9652    0.6993 C   0  0  0  0  0  0  0  0  0  0  0  0
   -1.3574    1.5932    0.0683 O   0  0  0  0  0  0  0  0  0  0  0  0
    0.2602    1.6198    1.6397 N   0  0  0  0  0  0  0  0  0  0  0  0
    0.9064    1.0596    2.1886 H   0  0  0  0  0  0  0  0  0  0  0  0
    0.1164    3.0372    1.9482 C   0  0  0  0  0  0  0  0  0  0  0  0
   -0.8847    3.2441    2.3404 H   0  0  0  0  0  0  0  0  0  0  0  0
    0.8522    3.3368    2.7005 H   0  0  0  0  0  0  0  0  0  0  0  0
    0.2753    3.6431    1.0499 H   0  0  0  0  0  0  0  0  0  0  0  0
  1  2  1  0  0  0  0
  2  3  1  0  0  0  0
  2  4  1  0  0  0  0
  2  5  1  0  0  0  0
  5  6  2  0  0  0  0
  5  7  1  0  0  0  0
  7  8  1  0  0  0  0
  7  9  1  0  0  0  0
  9 10  1  0  0  0  0
  9 11  1  0  0  0  0
  9 24  1  0  0  0  0
 11 12  1  0  0  0  0
 11 13  1  0  0  0  0
 11 14  1  0  0  0  0
 14 15  1  0  0  0  0
 14 16  1  0  0  0  0
 14 20  1  0  0  0  0
 16 17  1  0  0  0  0
 16 18  1  0  0  0  0
 16 19  1  0  0  0  0
 20 21  1  0  0  0  0
 20 22  1  0  0  0  0
 20 23  1  0  0  0  0
 24 25  2  0  0  0  0
 24 26  1  0  0  0  0
 26 27  1  0  0  0  0
 26 28  1  0  0  0  0
 28 29  1  0  0  0  0
 28 30  1  0  0  0  0
 28 31  1  0  0  0  0
M  END
$$$$

  -OEChem-03222214063D

 31 30  0     1  0  0  0  0  0999 V2000
   -3.5444   -3.8698    1.2894 H   0  0  0  0  0  0  0  0  0  0  0  0
   -3.4168   -2.9235    0.7562 C   0  0  0  0  0  0  0  0  0  0  0  0
   -4.1963   -2.2286    1.0782 H   0  0  0  0  0  0  0  0  0  0  0  0
   -3.5219   -3.1070   -0.3158 H   0  0  0  0  0  0  0  0  0  0  0  0
   -2.0483   -2.3387    1.0499 C   0  0  0  0  0  0  0  0  0  0  0  0
   -1.3407   -2.8522    1.9008 O   0  0  0  0  0  0  0  0  0  0  0  0
   -1.6561   -1.1788    0.4161 N   0  0  0  0  0  0  0  0  0  0  0  0
   -2.3419   -0.7269   -0.1855 H   0  0  0  0  0  0  0  0  0  0  0  0
   -0.3291   -0.5472    0.4921 C   0  0  1  0  0  0  0  0  0  0  0  0
    0.2524   -0.9548    1.3243 H   0  0  0  0  0  0  0  0  0  0  0  0
    0.4314   -0.7160   -0.8496 C   0  0  0  0  0  0  0  0  0  0  0  0
   -0.2192   -0.3839   -1.6661 H   0  0  0  0  0  0  0  0  0  0  0  0
    1.2730   -0.0152   -0.8228 H   0  0  0  0  0  0  0  0  0  0  0  0
    1.0447   -2.0930   -1.2131 C   0  0  0  0  0  0  0  0  0  0  0  0
    1.9266   -1.9011   -1.8340 H   0  0  0  0  0  0  0  0  0  0  0  0
    1.4911   -2.9392   -0.0150 C   0  0  0  0  0  0  0  0  0  0  0  0
    0.6389   -3.3473    0.5268 H   0  0  0  0  0  0  0  0  0  0  0  0
    2.0995   -3.7810   -0.3598 H   0  0  0  0  0  0  0  0  0  0  0  0
    2.0969   -2.3416    0.6726 H   0  0  0  0  0  0  0  0  0  0  0  0
    0.0560   -2.9137   -2.0521 C   0  0  0  0  0  0  0  0  0  0  0  0
   -0.2214   -2.3685   -2.9595 H   0  0  0  0  0  0  0  0  0  0  0  0
    0.5092   -3.8640   -2.3513 H   0  0  0  0  0  0  0  0  0  0  0  0
   -0.8532   -3.1296   -1.4845 H   0  0  0  0  0  0  0  0  0  0  0  0
   -0.5037    0.9698    0.7120 C   0  0  0  0  0  0  0  0  0  0  0  0
   -1.3298    1.5959    0.0564 O   0  0  0  0  0  0  0  0  0  0  0  0
    0.2650    1.6334    1.6504 N   0  0  0  0  0  0  0  0  0  0  0  0
    0.8874    1.0741    2.2270 H   0  0  0  0  0  0  0  0  0  0  0  0
    0.1204    3.0542    1.9421 C   0  0  0  0  0  0  0  0  0  0  0  0
   -0.8821    3.2655    2.3287 H   0  0  0  0  0  0  0  0  0  0  0  0
    0.8538    3.3624    2.6933 H   0  0  0  0  0  0  0  0  0  0  0  0
    0.2824    3.6500    1.0377 H   0  0  0  0  0  0  0  0  0  0  0  0
  1  2  1  0  0  0  0
  2  3  1  0  0  0  0
  2  4  1  0  0  0  0
  2  5  1  0  0  0  0
  5  6  2  0  0  0  0
  5  7  1  0  0  0  0
  7  8  1  0  0  0  0
  7  9  1  0  0  0  0
  9 10  1  0  0  0  0
  9 11  1  0  0  0  0
  9 24  1  0  0  0  0
 11 12  1  0  0  0  0
 11 13  1  0  0  0  0
 11 14  1  0  0  0  0
 14 15  1  0  0  0  0
 14 16  1  0  0  0  0
 14 20  1  0  0  0  0
 16 17  1  0  0  0  0
 16 18  1  0  0  0  0
 16 19  1  0  0  0  0
 20 21  1  0  0  0  0
 20 22  1  0  0  0  0
 20 23  1  0  0  0  0
 24 25  2  0  0  0  0
 24 26  1  0  0  0  0
 26 27  1  0  0  0  0
 26 28  1  0  0  0  0
 28 29  1  0  0  0  0
 28 30  1  0  0  0  0
 28 31  1  0  0  0  0
M  END
$$$$

  -OEChem-03222214063D

 31 30  0     1  0  0  0  0  0999 V2000
   -3.5004   -3.9149    1.3524 H   0  0  0  0  0  0  0  0  0  0  0  0
   -3.3863   -2.9785    0.7992 C   0  0  0  0  0  0  0  0  0  0  0  0
   -4.1773   -2.2891    1.1044 H   0  0  0  0  0  0  0  0  0  0  0  0
   -3.4851   -3.1865   -0.2689 H   0  0  0  0  0  0  0  0  0  0  0  0
   -2.0283   -2.3657    1.0838 C   0  0  0  0  0  0  0  0  0  0  0  0
   -1.3080   -2.8555    1.9392 O   0  0  0  0  0  0  0  0  0  0  0  0
   -1.6598   -1.2018    0.4434 N   0  0  0  0  0  0  0  0  0  0  0  0
   -2.3533   -0.7650   -0.1605 H   0  0  0  0  0  0  0  0  0  0  0  0
   -0.3398   -0.5555    0.5085 C   0  0  1  0  0  0  0  0  0  0  0  0
    0.2563   -0.9537    1.3345 H   0  0  0  0  0  0  0  0  0  0  0  0
    0.4107   -0.7048   -0.8412 C   0  0  0  0  0  0  0  0  0  0  0  0
   -0.2576   -0.3686   -1.6419 H   0  0  0  0  0  0  0  0  0  0  0  0
    1.2403    0.0103   -0.8177 H   0  0  0  0  0  0  0  0  0  0  0  0
    1.0454   -2.0670   -1.2394 C   0  0  0  0  0  0  0  0  0  0  0  0
    2.0454   -1.8537   -1.6328 H   0  0  0  0  0  0  0  0  0  0  0  0
    1.2064   -3.1013   -0.1197 C   0  0  0  0  0  0  0  0  0  0  0  0
    1.8818   -3.8978   -0.4468 H   0  0  0  0  0  0  0  0  0  0  0  0
    0.2513   -3.5642    0.1298 H   0  0  0  0  0  0  0  0  0  0  0  0
    1.6351   -2.6466    0.7777 H   0  0  0  0  0  0  0  0  0  0  0  0
    0.2267   -2.7105   -2.3671 C   0  0  0  0  0  0  0  0  0  0  0  0
    0.1874   -2.0487   -3.2381 H   0  0  0  0  0  0  0  0  0  0  0  0
    0.6818   -3.6560   -2.6791 H   0  0  0  0  0  0  0  0  0  0  0  0
   -0.7969   -2.9102   -2.0344 H   0  0  0  0  0  0  0  0  0  0  0  0
   -0.5347    0.9595    0.7290 C   0  0  0  0  0  0  0  0  0  0  0  0
   -1.3722    1.5750    0.0776 O   0  0  0  0  0  0  0  0  0  0  0  0
    0.2319    1.6335    1.6617 N   0  0  0  0  0  0  0  0  0  0  0  0
    0.8651    1.0828    2.2346 H   0  0  0  0  0  0  0  0  0  0  0  0
    0.0750    3.0538    1.9499 C   0  0  0  0  0  0  0  0  0  0  0  0
   -0.9293    3.2578    2.3357 H   0  0  0  0  0  0  0  0  0  0  0  0
    0.8056    3.3700    2.7006 H   0  0  0  0  0  0  0  0  0  0  0  0
    0.2326    3.6485    1.0439 H   0  0  0  0  0  0  0  0  0  0  0  0
  1  2  1  0  0  0  0
  2  3  1  0  0  0  0
  2  4  1  0  0  0  0
  2  5  1  0  0  0  0
  5  6  2  0  0  0  0
  5  7  1  0  0  0  0
  7  8  1  0  0  0  0
  7  9  1  0  0  0  0
  9 10  1  0  0  0  0
  9 11  1  0  0  0  0
  9 24  1  0  0  0  0
 11 12  1  0  0  0  0
 11 13  1  0  0  0  0
 11 14  1  0  0  0  0
 14 15  1  0  0  0  0
 14 16  1  0  0  0  0
 14 20  1  0  0  0  0
 16 17  1  0  0  0  0
 16 18  1  0  0  0  0
 16 19  1  0  0  0  0
 20 21  1  0  0  0  0
 20 22  1  0  0  0  0
 20 23  1  0  0  0  0
 24 25  2  0  0  0  0
 24 26  1  0  0  0  0
 26 27  1  0  0  0  0
 26 28  1  0  0  0  0
 28 29  1  0  0  0  0
 28 30  1  0  0  0  0
 28 31  1  0  0  0  0
M  END
$$$$

  -OEChem-03222214063D

 31 30  0     1  0  0  0  0  0999 V2000
   -3.6162   -3.8240    1.3764 H   0  0  0  0  0  0  0  0  0  0  0  0
   -3.4747   -2.8935    0.8194 C   0  0  0  0  0  0  0  0  0  0  0  0
   -4.2372   -2.1758    1.1317 H   0  0  0  0  0  0  0  0  0  0  0  0
   -3.5934   -3.1008   -0.2468 H   0  0  0  0  0  0  0  0  0  0  0  0
   -2.0924   -2.3286    1.0870 C   0  0  0  0  0  0  0  0  0  0  0  0
   -1.3776   -2.8472    1.9300 O   0  0  0  0  0  0  0  0  0  0  0  0
   -1.6877   -1.1814    0.4375 N   0  0  0  0  0  0  0  0  0  0  0  0
   -2.3729   -0.7199   -0.1576 H   0  0  0  0  0  0  0  0  0  0  0  0
   -0.3506   -0.5689    0.5022 C   0  0  1  0  0  0  0  0  0  0  0  0
    0.2290   -0.9734    1.3373 H   0  0  0  0  0  0  0  0  0  0  0  0
    0.4247   -0.7420   -0.8321 C   0  0  0  0  0  0  0  0  0  0  0  0
   -0.2432   -0.4146   -1.6368 H   0  0  0  0  0  0  0  0  0  0  0  0
    1.2570   -0.0293   -0.8202 H   0  0  0  0  0  0  0  0  0  0  0  0
    1.0444   -2.1170   -1.2191 C   0  0  0  0  0  0  0  0  0  0  0  0
    2.1251   -1.9606   -1.3079 H   0  0  0  0  0  0  0  0  0  0  0  0
    0.8552   -3.2733   -0.2336 C   0  0  0  0  0  0  0  0  0  0  0  0
   -0.1763   -3.6307   -0.2471 H   0  0  0  0  0  0  0  0  0  0  0  0
    1.4997   -4.1115   -0.5159 H   0  0  0  0  0  0  0  0  0  0  0  0
    1.1253   -2.9743    0.7828 H   0  0  0  0  0  0  0  0  0  0  0  0
    0.5239   -2.5586   -2.5935 C   0  0  0  0  0  0  0  0  0  0  0  0
    0.7429   -1.7965   -3.3481 H   0  0  0  0  0  0  0  0  0  0  0  0
    1.0041   -3.4924   -2.9027 H   0  0  0  0  0  0  0  0  0  0  0  0
   -0.5587   -2.7182   -2.5621 H   0  0  0  0  0  0  0  0  0  0  0  0
   -0.5120    0.9527    0.7067 C   0  0  0  0  0  0  0  0  0  0  0  0
   -1.3361    1.5803    0.0495 O   0  0  0  0  0  0  0  0  0  0  0  0
    0.2654    1.6185    1.6365 N   0  0  0  0  0  0  0  0  0  0  0  0
    0.8883    1.0597    2.2130 H   0  0  0  0  0  0  0  0  0  0  0  0
    0.1362    3.0436    1.9150 C   0  0  0  0  0  0  0  0  0  0  0  0
   -0.8624    3.2692    2.3033 H   0  0  0  0  0  0  0  0  0  0  0  0
    0.8756    3.3516    2.6606 H   0  0  0  0  0  0  0  0  0  0  0  0
    0.3013    3.6290    1.0044 H   0  0  0  0  0  0  0  0  0  0  0  0
  1  2  1  0  0  0  0
  2  3  1  0  0  0  0
  2  4  1  0  0  0  0
  2  5  1  0  0  0  0
  5  6  2  0  0  0  0
  5  7  1  0  0  0  0
  7  8  1  0  0  0  0
  7  9  1  0  0  0  0
  9 10  1  0  0  0  0
  9 11  1  0  0  0  0
  9 24  1  0  0  0  0
 11 12  1  0  0  0  0
 11 13  1  0  0  0  0
 11 14  1  0  0  0  0
 14 15  1  0  0  0  0
 14 16  1  0  0  0  0
 14 20  1  0  0  0  0
 16 17  1  0  0  0  0
 16 18  1  0  0  0  0
 16 19  1  0  0  0  0
 20 21  1  0  0  0  0
 20 22  1  0  0  0  0
 20 23  1  0  0  0  0
 24 25  2  0  0  0  0
 24 26  1  0  0  0  0
 26 27  1  0  0  0  0
 26 28  1  0  0  0  0
 28 29  1  0  0  0  0
 28 30  1  0  0  0  0
 28 31  1  0  0  0  0
M  END
$$$$

  -OEChem-03222214063D

 31 30  0     1  0  0  0  0  0999 V2000
   -3.6493   -3.8201    1.3810 H   0  0  0  0  0  0  0  0  0  0  0  0
   -3.5048   -2.8835    0.8355 C   0  0  0  0  0  0  0  0  0  0  0  0
   -4.2612   -2.1650    1.1604 H   0  0  0  0  0  0  0  0  0  0  0  0
   -3.6303   -3.0766   -0.2326 H   0  0  0  0  0  0  0  0  0  0  0  0
   -2.1173   -2.3309    1.1031 C   0  0  0  0  0  0  0  0  0  0  0  0
   -1.4078   -2.8554    1.9466 O   0  0  0  0  0  0  0  0  0  0  0  0
   -1.7021   -1.1895    0.4492 N   0  0  0  0  0  0  0  0  0  0  0  0
   -2.3865   -0.7245   -0.1443 H   0  0  0  0  0  0  0  0  0  0  0  0
   -0.3592   -0.5854    0.4988 C   0  0  1  0  0  0  0  0  0  0  0  0
    0.2239   -0.9965    1.3289 H   0  0  0  0  0  0  0  0  0  0  0  0
    0.4200   -0.7553   -0.8353 C   0  0  0  0  0  0  0  0  0  0  0  0
   -0.2647   -0.4449   -1.6325 H   0  0  0  0  0  0  0  0  0  0  0  0
    1.2441   -0.0332   -0.8402 H   0  0  0  0  0  0  0  0  0  0  0  0
    1.0409   -2.1259   -1.2293 C   0  0  0  0  0  0  0  0  0  0  0  0
    2.1170   -2.0473   -1.0393 H   0  0  0  0  0  0  0  0  0  0  0  0
    0.5683   -3.3576   -0.4578 C   0  0  0  0  0  0  0  0  0  0  0  0
   -0.4927   -3.5464   -0.6385 H   0  0  0  0  0  0  0  0  0  0  0  0
    1.1269   -4.2413   -0.7813 H   0  0  0  0  0  0  0  0  0  0  0  0
    0.7452   -3.2304    0.6130 H   0  0  0  0  0  0  0  0  0  0  0  0
    0.8487   -2.3711   -2.7317 C   0  0  0  0  0  0  0  0  0  0  0  0
    1.2528   -1.5338   -3.3094 H   0  0  0  0  0  0  0  0  0  0  0  0
    1.3701   -3.2825   -3.0407 H   0  0  0  0  0  0  0  0  0  0  0  0
   -0.2138   -2.4808   -2.9718 H   0  0  0  0  0  0  0  0  0  0  0  0
   -0.5124    0.9374    0.7000 C   0  0  0  0  0  0  0  0  0  0  0  0
   -1.3415    1.5655    0.0495 O   0  0  0  0  0  0  0  0  0  0  0  0
    0.2765    1.6031    1.6201 N   0  0  0  0  0  0  0  0  0  0  0  0
    0.9039    1.0444    2.1918 H   0  0  0  0  0  0  0  0  0  0  0  0
    0.1531    3.0291    1.8960 C   0  0  0  0  0  0  0  0  0  0  0  0
   -0.8411    3.2572    2.2944 H   0  0  0  0  0  0  0  0  0  0  0  0
    0.9010    3.3380    2.6326 H   0  0  0  0  0  0  0  0  0  0  0  0
    0.3094    3.6118    0.9819 H   0  0  0  0  0  0  0  0  0  0  0  0
  1  2  1  0  0  0  0
  2  3  1  0  0  0  0
  2  4  1  0  0  0  0
  2  5  1  0  0  0  0
  5  6  2  0  0  0  0
  5  7  1  0  0  0  0
  7  8  1  0  0  0  0
  7  9  1  0  0  0  0
  9 10  1  0  0  0  0
  9 11  1  0  0  0  0
  9 24  1  0  0  0  0
 11 12  1  0  0  0  0
 11 13  1  0  0  0  0
 11 14  1  0  0  0  0
 14 15  1  0  0  0  0
 14 16  1  0  0  0  0
 14 20  1  0  0  0  0
 16 17  1  0  0  0  0
 16 18  1  0  0  0  0
 16 19  1  0  0  0  0
 20 21  1  0  0  0  0
 20 22  1  0  0  0  0
 20 23  1  0  0  0  0
 24 25  2  0  0  0  0
 24 26  1  0  0  0  0
 26 27  1  0  0  0  0
 26 28  1  0  0  0  0
 28 29  1  0  0  0  0
 28 30  1  0  0  0  0
 28 31  1  0  0  0  0
M  END
$$$$

  -OEChem-03222214063D

 31 30  0     1  0  0  0  0  0999 V2000
   -3.6487   -3.8289    1.3828 H   0  0  0  0  0  0  0  0  0  0  0  0
   -3.5075   -2.8920    0.8366 C   0  0  0  0  0  0  0  0  0  0  0  0
   -4.2655   -2.1755    1.1620 H   0  0  0  0  0  0  0  0  0  0  0  0
   -3.6331   -3.0859   -0.2313 H   0  0  0  0  0  0  0  0  0  0  0  0
   -2.1215   -2.3355    1.1020 C   0  0  0  0  0  0  0  0  0  0  0  0
   -1.4124   -2.8530    1.9501 O   0  0  0  0  0  0  0  0  0  0  0  0
   -1.7080   -1.1949    0.4455 N   0  0  0  0  0  0  0  0  0  0  0  0
   -2.3913   -0.7323   -0.1512 H   0  0  0  0  0  0  0  0  0  0  0  0
   -0.3620   -0.5976    0.4887 C   0  0  1  0  0  0  0  0  0  0  0  0
    0.2229   -1.0148    1.3146 H   0  0  0  0  0  0  0  0  0  0  0  0
    0.4214   -0.7598   -0.8444 C   0  0  0  0  0  0  0  0  0  0  0  0
   -0.2651   -0.4557   -1.6425 H   0  0  0  0  0  0  0  0  0  0  0  0
    1.2447   -0.0368   -0.8484 H   0  0  0  0  0  0  0  0  0  0  0  0
    1.0385   -2.1279   -1.2410 C   0  0  0  0  0  0  0  0  0  0  0  0
    2.0448   -2.1600   -0.8092 H   0  0  0  0  0  0  0  0  0  0  0  0
    0.3228   -3.3822   -0.7427 C   0  0  0  0  0  0  0  0  0  0  0  0
   -0.7291   -3.3754   -1.0414 H   0  0  0  0  0  0  0  0  0  0  0  0
    0.7896   -4.2786   -1.1623 H   0  0  0  0  0  0  0  0  0  0  0  0
    0.4012   -3.4535    0.3437 H   0  0  0  0  0  0  0  0  0  0  0  0
    1.1810   -2.1964   -2.7672 C   0  0  0  0  0  0  0  0  0  0  0  0
    1.7324   -1.3268   -3.1387 H   0  0  0  0  0  0  0  0  0  0  0  0
    1.7280   -3.0979   -3.0607 H   0  0  0  0  0  0  0  0  0  0  0  0
    0.1970   -2.2165   -3.2467 H   0  0  0  0  0  0  0  0  0  0  0  0
   -0.5119    0.9250    0.6929 C   0  0  0  0  0  0  0  0  0  0  0  0
   -1.3395    1.5567    0.0441 O   0  0  0  0  0  0  0  0  0  0  0  0
    0.2826    1.5874    1.6103 N   0  0  0  0  0  0  0  0  0  0  0  0
    0.9063    1.0254    2.1828 H   0  0  0  0  0  0  0  0  0  0  0  0
    0.1629    3.0132    1.8883 C   0  0  0  0  0  0  0  0  0  0  0  0
   -0.8295    3.2429    2.2900 H   0  0  0  0  0  0  0  0  0  0  0  0
    0.9140    3.3196    2.6227 H   0  0  0  0  0  0  0  0  0  0  0  0
    0.3167    3.5964    0.9742 H   0  0  0  0  0  0  0  0  0  0  0  0
  1  2  1  0  0  0  0
  2  3  1  0  0  0  0
  2  4  1  0  0  0  0
  2  5  1  0  0  0  0
  5  6  2  0  0  0  0
  5  7  1  0  0  0  0
  7  8  1  0  0  0  0
  7  9  1  0  0  0  0
  9 10  1  0  0  0  0
  9 11  1  0  0  0  0
  9 24  1  0  0  0  0
 11 12  1  0  0  0  0
 11 13  1  0  0  0  0
 11 14  1  0  0  0  0
 14 15  1  0  0  0  0
 14 16  1  0  0  0  0
 14 20  1  0  0  0  0
 16 17  1  0  0  0  0
 16 18  1  0  0  0  0
 16 19  1  0  0  0  0
 20 21  1  0  0  0  0
 20 22  1  0  0  0  0
 20 23  1  0  0  0  0
 24 25  2  0  0  0  0
 24 26  1  0  0  0  0
 26 27  1  0  0  0  0
 26 28  1  0  0  0  0
 28 29  1  0  0  0  0
 28 30  1  0  0  0  0
 28 31  1  0  0  0  0
M  END
$$$$

  -OEChem-03222214063D

 31 30  0     1  0  0  0  0  0999 V2000
   -3.6354   -3.8284    1.3887 H   0  0  0  0  0  0  0  0  0  0  0  0
   -3.4972   -2.8973    0.8320 C   0  0  0  0  0  0  0  0  0  0  0  0
   -4.2467   -2.1738    1.1618 H   0  0  0  0  0  0  0  0  0  0  0  0
   -3.6386   -3.0995   -0.2324 H   0  0  0  0  0  0  0  0  0  0  0  0
   -2.1048   -2.3462    1.0732 C   0  0  0  0  0  0  0  0  0  0  0  0
   -1.3753   -2.8758    1.8968 O   0  0  0  0  0  0  0  0  0  0  0  0
   -1.7035   -1.1985    0.4221 N   0  0  0  0  0  0  0  0  0  0  0  0
   -2.3965   -0.7249   -0.1544 H   0  0  0  0  0  0  0  0  0  0  0  0
   -0.3586   -0.6010    0.4653 C   0  0  1  0  0  0  0  0  0  0  0  0
    0.2277   -1.0239    1.2871 H   0  0  0  0  0  0  0  0  0  0  0  0
    0.4270   -0.7548   -0.8659 C   0  0  0  0  0  0  0  0  0  0  0  0
   -0.2499   -0.4493   -1.6716 H   0  0  0  0  0  0  0  0  0  0  0  0
    1.2541   -0.0361   -0.8571 H   0  0  0  0  0  0  0  0  0  0  0  0
    1.0381   -2.1260   -1.2500 C   0  0  0  0  0  0  0  0  0  0  0  0
    1.9218   -2.2817   -0.6220 H   0  0  0  0  0  0  0  0  0  0  0  0
    0.1363   -3.3469   -1.0579 C   0  0  0  0  0  0  0  0  0  0  0  0
   -0.8656   -3.1571   -1.4542 H   0  0  0  0  0  0  0  0  0  0  0  0
    0.5513   -4.2163   -1.5775 H   0  0  0  0  0  0  0  0  0  0  0  0
    0.0718   -3.6064   -0.0007 H   0  0  0  0  0  0  0  0  0  0  0  0
    1.5013   -2.0654   -2.7115 C   0  0  0  0  0  0  0  0  0  0  0  0
    2.1743   -1.2159   -2.8648 H   0  0  0  0  0  0  0  0  0  0  0  0
    2.0403   -2.9792   -2.9809 H   0  0  0  0  0  0  0  0  0  0  0  0
    0.6443   -1.9567   -3.3840 H   0  0  0  0  0  0  0  0  0  0  0  0
   -0.5088    0.9195    0.6838 C   0  0  0  0  0  0  0  0  0  0  0  0
   -1.3420    1.5563    0.0473 O   0  0  0  0  0  0  0  0  0  0  0  0
    0.2897    1.5725    1.6045 N   0  0  0  0  0  0  0  0  0  0  0  0
    0.9179    1.0045    2.1660 H   0  0  0  0  0  0  0  0  0  0  0  0
    0.1716    2.9948    1.9003 C   0  0  0  0  0  0  0  0  0  0  0  0
   -0.8199    3.2209    2.3063 H   0  0  0  0  0  0  0  0  0  0  0  0
    0.9238    3.2910    2.6379 H   0  0  0  0  0  0  0  0  0  0  0  0
    0.3256    3.5888    0.9933 H   0  0  0  0  0  0  0  0  0  0  0  0
  1  2  1  0  0  0  0
  2  3  1  0  0  0  0
  2  4  1  0  0  0  0
  2  5  1  0  0  0  0
  5  6  2  0  0  0  0
  5  7  1  0  0  0  0
  7  8  1  0  0  0  0
  7  9  1  0  0  0  0
  9 10  1  0  0  0  0
  9 11  1  0  0  0  0
  9 24  1  0  0  0  0
 11 12  1  0  0  0  0
 11 13  1  0  0  0  0
 11 14  1  0  0  0  0
 14 15  1  0  0  0  0
 14 16  1  0  0  0  0
 14 20  1  0  0  0  0
 16 17  1  0  0  0  0
 16 18  1  0  0  0  0
 16 19  1  0  0  0  0
 20 21  1  0  0  0  0
 20 22  1  0  0  0  0
 20 23  1  0  0  0  0
 24 25  2  0  0  0  0
 24 26  1  0  0  0  0
 26 27  1  0  0  0  0
 26 28  1  0  0  0  0
 28 29  1  0  0  0  0
 28 30  1  0  0  0  0
 28 31  1  0  0  0  0
M  END
$$$$

  -OEChem-03222214063D

 31 30  0     1  0  0  0  0  0999 V2000
   -3.6065   -3.8419    1.3481 H   0  0  0  0  0  0  0  0  0  0  0  0
   -3.4785   -2.9006    0.8064 C   0  0  0  0  0  0  0  0  0  0  0  0
   -4.2149   -2.1803    1.1709 H   0  0  0  0  0  0  0  0  0  0  0  0
   -3.6506   -3.0814   -0.2573 H   0  0  0  0  0  0  0  0  0  0  0  0
   -2.0773   -2.3602    1.0198 C   0  0  0  0  0  0  0  0  0  0  0  0
   -1.3183   -2.9228    1.7939 O   0  0  0  0  0  0  0  0  0  0  0  0
   -1.6892   -1.2001    0.3831 N   0  0  0  0  0  0  0  0  0  0  0  0
   -2.3950   -0.7055   -0.1593 H   0  0  0  0  0  0  0  0  0  0  0  0
   -0.3488   -0.5959    0.4372 C   0  0  1  0  0  0  0  0  0  0  0  0
    0.2360   -1.0245    1.2574 H   0  0  0  0  0  0  0  0  0  0  0  0
    0.4399   -0.7418   -0.8897 C   0  0  0  0  0  0  0  0  0  0  0  0
   -0.2183   -0.4309   -1.7087 H   0  0  0  0  0  0  0  0  0  0  0  0
    1.2722   -0.0296   -0.8607 H   0  0  0  0  0  0  0  0  0  0  0  0
    1.0417   -2.1228   -1.2431 C   0  0  0  0  0  0  0  0  0  0  0  0
    1.7539   -2.4018   -0.4591 H   0  0  0  0  0  0  0  0  0  0  0  0
    0.0198   -3.2582   -1.3749 C   0  0  0  0  0  0  0  0  0  0  0  0
   -0.8845   -2.9108   -1.8837 H   0  0  0  0  0  0  0  0  0  0  0  0
    0.4392   -4.0903   -1.9488 H   0  0  0  0  0  0  0  0  0  0  0  0
   -0.2444   -3.6507   -0.3933 H   0  0  0  0  0  0  0  0  0  0  0  0
    1.8126   -1.9925   -2.5638 C   0  0  0  0  0  0  0  0  0  0  0  0
    2.5768   -1.2129   -2.4872 H   0  0  0  0  0  0  0  0  0  0  0  0
    2.3134   -2.9341   -2.8095 H   0  0  0  0  0  0  0  0  0  0  0  0
    1.1335   -1.7358   -3.3832 H   0  0  0  0  0  0  0  0  0  0  0  0
   -0.5035    0.9209    0.6763 C   0  0  0  0  0  0  0  0  0  0  0  0
   -1.3425    1.5612    0.0511 O   0  0  0  0  0  0  0  0  0  0  0  0
    0.2906    1.5663    1.6063 N   0  0  0  0  0  0  0  0  0  0  0  0
    0.9259    0.9957    2.1572 H   0  0  0  0  0  0  0  0  0  0  0  0
    0.1642    2.9843    1.9196 C   0  0  0  0  0  0  0  0  0  0  0  0
   -0.8297    3.1997    2.3257 H   0  0  0  0  0  0  0  0  0  0  0  0
    0.9126    3.2752    2.6628 H   0  0  0  0  0  0  0  0  0  0  0  0
    0.3173    3.5911    1.0209 H   0  0  0  0  0  0  0  0  0  0  0  0
  1  2  1  0  0  0  0
  2  3  1  0  0  0  0
  2  4  1  0  0  0  0
  2  5  1  0  0  0  0
  5  6  2  0  0  0  0
  5  7  1  0  0  0  0
  7  8  1  0  0  0  0
  7  9  1  0  0  0  0
  9 10  1  0  0  0  0
  9 11  1  0  0  0  0
  9 24  1  0  0  0  0
 11 12  1  0  0  0  0
 11 13  1  0  0  0  0
 11 14  1  0  0  0  0
 14 15  1  0  0  0  0
 14 16  1  0  0  0  0
 14 20  1  0  0  0  0
 16 17  1  0  0  0  0
 16 18  1  0  0  0  0
 16 19  1  0  0  0  0
 20 21  1  0  0  0  0
 20 22  1  0  0  0  0
 20 23  1  0  0  0  0
 24 25  2  0  0  0  0
 24 26  1  0  0  0  0
 26 27  1  0  0  0  0
 26 28  1  0  0  0  0
 28 29  1  0  0  0  0
 28 30  1  0  0  0  0
 28 31  1  0  0  0  0
M  END
$$$$

  -OEChem-03222214063D

 31 30  0     1  0  0  0  0  0999 V2000
   -3.5721   -3.8445    1.3482 H   0  0  0  0  0  0  0  0  0  0  0  0
   -3.4583   -2.8984    0.8117 C   0  0  0  0  0  0  0  0  0  0  0  0
   -4.1644   -2.1727    1.2226 H   0  0  0  0  0  0  0  0  0  0  0  0
   -3.6869   -3.0623   -0.2441 H   0  0  0  0  0  0  0  0  0  0  0  0
   -2.0397   -2.3815    0.9580 C   0  0  0  0  0  0  0  0  0  0  0  0
   -1.2346   -2.9936    1.6427 O   0  0  0  0  0  0  0  0  0  0  0  0
   -1.6757   -1.2034    0.3397 N   0  0  0  0  0  0  0  0  0  0  0  0
   -2.4064   -0.6776   -0.1368 H   0  0  0  0  0  0  0  0  0  0  0  0
   -0.3429   -0.5856    0.4016 C   0  0  1  0  0  0  0  0  0  0  0  0
    0.2437   -1.0185    1.2181 H   0  0  0  0  0  0  0  0  0  0  0  0
    0.4469   -0.7200   -0.9229 C   0  0  0  0  0  0  0  0  0  0  0  0
   -0.1957   -0.4063   -1.7529 H   0  0  0  0  0  0  0  0  0  0  0  0
    1.2784   -0.0080   -0.8783 H   0  0  0  0  0  0  0  0  0  0  0  0
    1.0445   -2.1106   -1.2420 C   0  0  0  0  0  0  0  0  0  0  0  0
    1.5422   -2.4992   -0.3470 H   0  0  0  0  0  0  0  0  0  0  0  0
    0.0023   -3.1378   -1.7079 C   0  0  0  0  0  0  0  0  0  0  0  0
   -0.6736   -2.6969   -2.4472 H   0  0  0  0  0  0  0  0  0  0  0  0
    0.4948   -4.0023   -2.1638 H   0  0  0  0  0  0  0  0  0  0  0  0
   -0.5846   -3.5097   -0.8698 H   0  0  0  0  0  0  0  0  0  0  0  0
    2.0978   -1.9530   -2.3474 C   0  0  0  0  0  0  0  0  0  0  0  0
    2.8866   -1.2628   -2.0323 H   0  0  0  0  0  0  0  0  0  0  0  0
    2.5638   -2.9172   -2.5734 H   0  0  0  0  0  0  0  0  0  0  0  0
    1.6400   -1.5645   -3.2628 H   0  0  0  0  0  0  0  0  0  0  0  0
   -0.5097    0.9246    0.6698 C   0  0  0  0  0  0  0  0  0  0  0  0
   -1.3642    1.5660    0.0677 O   0  0  0  0  0  0  0  0  0  0  0  0
    0.2820    1.5589    1.6092 N   0  0  0  0  0  0  0  0  0  0  0  0
    0.9357    0.9866    2.1361 H   0  0  0  0  0  0  0  0  0  0  0  0
    0.1465    2.9696    1.9500 C   0  0  0  0  0  0  0  0  0  0  0  0
   -0.8493    3.1718    2.3582 H   0  0  0  0  0  0  0  0  0  0  0  0
    0.8918    3.2501    2.7005 H   0  0  0  0  0  0  0  0  0  0  0  0
    0.2979    3.5942    1.0634 H   0  0  0  0  0  0  0  0  0  0  0  0
  1  2  1  0  0  0  0
  2  3  1  0  0  0  0
  2  4  1  0  0  0  0
  2  5  1  0  0  0  0
  5  6  2  0  0  0  0
  5  7  1  0  0  0  0
  7  8  1  0  0  0  0
  7  9  1  0  0  0  0
  9 10  1  0  0  0  0
  9 11  1  0  0  0  0
  9 24  1  0  0  0  0
 11 12  1  0  0  0  0
 11 13  1  0  0  0  0
 11 14  1  0  0  0  0
 14 15  1  0  0  0  0
 14 16  1  0  0  0  0
 14 20  1  0  0  0  0
 16 17  1  0  0  0  0
 16 18  1  0  0  0  0
 16 19  1  0  0  0  0
 20 21  1  0  0  0  0
 20 22  1  0  0  0  0
 20 23  1  0  0  0  0
 24 25  2  0  0  0  0
 24 26  1  0  0  0  0
 26 27  1  0  0  0  0
 26 28  1  0  0  0  0
 28 29  1  0  0  0  0
 28 30  1  0  0  0  0
 28 31  1  0  0  0  0
M  END
$$$$

  -OEChem-03222214063D

 31 30  0     1  0  0  0  0  0999 V2000
   -3.4804   -3.8848    1.3103 H   0  0  0  0  0  0  0  0  0  0  0  0
   -3.3953   -2.9290    0.7857 C   0  0  0  0  0  0  0  0  0  0  0  0
   -4.0889   -2.2158    1.2375 H   0  0  0  0  0  0  0  0  0  0  0  0
   -3.6666   -3.0772   -0.2622 H   0  0  0  0  0  0  0  0  0  0  0  0
   -1.9757   -2.4031    0.8825 C   0  0  0  0  0  0  0  0  0  0  0  0
   -1.1277   -3.0429    1.4848 O   0  0  0  0  0  0  0  0  0  0  0  0
   -1.6525   -1.1987    0.2922 N   0  0  0  0  0  0  0  0  0  0  0  0
   -2.4104   -0.6578   -0.1209 H   0  0  0  0  0  0  0  0  0  0  0  0
   -0.3340   -0.5536    0.3622 C   0  0  1  0  0  0  0  0  0  0  0  0
    0.2626   -0.9902    1.1698 H   0  0  0  0  0  0  0  0  0  0  0  0
    0.4396   -0.6807   -0.9686 C   0  0  0  0  0  0  0  0  0  0  0  0
   -0.2066   -0.3819   -1.8010 H   0  0  0  0  0  0  0  0  0  0  0  0
    1.2667    0.0369   -0.9366 H   0  0  0  0  0  0  0  0  0  0  0  0
    1.0281   -2.0860   -1.2343 C   0  0  0  0  0  0  0  0  0  0  0  0
    1.2777   -2.5616   -0.2794 H   0  0  0  0  0  0  0  0  0  0  0  0
    0.0468   -2.9884   -1.9972 C   0  0  0  0  0  0  0  0  0  0  0  0
   -0.2141   -2.5439   -2.9628 H   0  0  0  0  0  0  0  0  0  0  0  0
    0.4983   -3.9687   -2.1782 H   0  0  0  0  0  0  0  0  0  0  0  0
   -0.8722   -3.1444   -1.4318 H   0  0  0  0  0  0  0  0  0  0  0  0
    2.3151   -1.9629   -2.0605 C   0  0  0  0  0  0  0  0  0  0  0  0
    3.0658   -1.3814   -1.5163 H   0  0  0  0  0  0  0  0  0  0  0  0
    2.7348   -2.9531   -2.2643 H   0  0  0  0  0  0  0  0  0  0  0  0
    2.1146   -1.4668   -3.0157 H   0  0  0  0  0  0  0  0  0  0  0  0
   -0.5156    0.9459    0.6722 C   0  0  0  0  0  0  0  0  0  0  0  0
   -1.3899    1.5890    0.1015 O   0  0  0  0  0  0  0  0  0  0  0  0
    0.2765    1.5659    1.6209 N   0  0  0  0  0  0  0  0  0  0  0  0
    0.9539    0.9925    2.1157 H   0  0  0  0  0  0  0  0  0  0  0  0
    0.1293    2.9667    1.9960 C   0  0  0  0  0  0  0  0  0  0  0  0
   -0.8695    3.1511    2.4054 H   0  0  0  0  0  0  0  0  0  0  0  0
    0.8696    3.2341    2.7561 H   0  0  0  0  0  0  0  0  0  0  0  0
    0.2788    3.6146    1.1258 H   0  0  0  0  0  0  0  0  0  0  0  0
  1  2  1  0  0  0  0
  2  3  1  0  0  0  0
  2  4  1  0  0  0  0
  2  5  1  0  0  0  0
  5  6  2  0  0  0  0
  5  7  1  0  0  0  0
  7  8  1  0  0  0  0
  7  9  1  0  0  0  0
  9 10  1  0  0  0  0
  9 11  1  0  0  0  0
  9 24  1  0  0  0  0
 11 12  1  0  0  0  0
 11 13  1  0  0  0  0
 11 14  1  0  0  0  0
 14 15  1  0  0  0  0
 14 16  1  0  0  0  0
 14 20  1  0  0  0  0
 16 17  1  0  0  0  0
 16 18  1  0  0  0  0
 16 19  1  0  0  0  0
 20 21  1  0  0  0  0
 20 22  1  0  0  0  0
 20 23  1  0  0  0  0
 24 25  2  0  0  0  0
 24 26  1  0  0  0  0
 26 27  1  0  0  0  0
 26 28  1  0  0  0  0
 28 29  1  0  0  0  0
 28 30  1  0  0  0  0
 28 31  1  0  0  0  0
M  END
$$$$

  -OEChem-03222214063D

 31 30  0     1  0  0  0  0  0999 V2000
   -3.3957   -3.9335    1.2184 H   0  0  0  0  0  0  0  0  0  0  0  0
   -3.3258   -2.9685    0.7085 C   0  0  0  0  0  0  0  0  0  0  0  0
   -4.0479   -2.2811    1.1556 H   0  0  0  0  0  0  0  0  0  0  0  0
   -3.5714   -3.1096   -0.3468 H   0  0  0  0  0  0  0  0  0  0  0  0
   -1.9230   -2.4068    0.8419 C   0  0  0  0  0  0  0  0  0  0  0  0
   -1.0730   -3.0320    1.4565 O   0  0  0  0  0  0  0  0  0  0  0  0
   -1.6176   -1.1893    0.2702 N   0  0  0  0  0  0  0  0  0  0  0  0
   -2.3791   -0.6641   -0.1561 H   0  0  0  0  0  0  0  0  0  0  0  0
   -0.3114   -0.5208    0.3557 C   0  0  1  0  0  0  0  0  0  0  0  0
    0.2950   -0.9569    1.1564 H   0  0  0  0  0  0  0  0  0  0  0  0
    0.4305   -0.6560   -0.9877 C   0  0  0  0  0  0  0  0  0  0  0  0
   -0.2357   -0.3736   -1.8103 H   0  0  0  0  0  0  0  0  0  0  0  0
    1.2546    0.0657   -0.9904 H   0  0  0  0  0  0  0  0  0  0  0  0
    1.0045   -2.0755   -1.2117 C   0  0  0  0  0  0  0  0  0  0  0  0
    1.0128   -2.6306   -0.2676 H   0  0  0  0  0  0  0  0  0  0  0  0
    0.1572   -2.8467   -2.2324 C   0  0  0  0  0  0  0  0  0  0  0  0
    0.1689   -2.3443   -3.2049 H   0  0  0  0  0  0  0  0  0  0  0  0
    0.5470   -3.8612   -2.3605 H   0  0  0  0  0  0  0  0  0  0  0  0
   -0.8799   -2.9207   -1.8931 H   0  0  0  0  0  0  0  0  0  0  0  0
    2.4476   -1.9948   -1.7247 C   0  0  0  0  0  0  0  0  0  0  0  0
    3.0851   -1.4908   -0.9916 H   0  0  0  0  0  0  0  0  0  0  0  0
    2.8491   -2.9992   -1.8923 H   0  0  0  0  0  0  0  0  0  0  0  0
    2.4932   -1.4400   -2.6674 H   0  0  0  0  0  0  0  0  0  0  0  0
   -0.5044    0.9730    0.6826 C   0  0  0  0  0  0  0  0  0  0  0  0
   -1.3785    1.6161    0.1118 O   0  0  0  0  0  0  0  0  0  0  0  0
    0.2793    1.5891    1.6408 N   0  0  0  0  0  0  0  0  0  0  0  0
    0.9593    1.0163    2.1329 H   0  0  0  0  0  0  0  0  0  0  0  0
    0.1249    2.9872    2.0236 C   0  0  0  0  0  0  0  0  0  0  0  0
   -0.8805    3.1677    2.4182 H   0  0  0  0  0  0  0  0  0  0  0  0
    0.8526    3.2502    2.7975 H   0  0  0  0  0  0  0  0  0  0  0  0
    0.2877    3.6407    1.1600 H   0  0  0  0  0  0  0  0  0  0  0  0
  1  2  1  0  0  0  0
  2  3  1  0  0  0  0
  2  4  1  0  0  0  0
  2  5  1  0  0  0  0
  5  6  2  0  0  0  0
  5  7  1  0  0  0  0
  7  8  1  0  0  0  0
  7  9  1  0  0  0  0
  9 10  1  0  0  0  0
  9 11  1  0  0  0  0
  9 24  1  0  0  0  0
 11 12  1  0  0  0  0
 11 13  1  0  0  0  0
 11 14  1  0  0  0  0
 14 15  1  0  0  0  0
 14 16  1  0  0  0  0
 14 20  1  0  0  0  0
 16 17  1  0  0  0  0
 16 18  1  0  0  0  0
 16 19  1  0  0  0  0
 20 21  1  0  0  0  0
 20 22  1  0  0  0  0
 20 23  1  0  0  0  0
 24 25  2  0  0  0  0
 24 26  1  0  0  0  0
 26 27  1  0  0  0  0
 26 28  1  0  0  0  0
 28 29  1  0  0  0  0
 28 30  1  0  0  0  0
 28 31  1  0  0  0  0
M  END
$$$$

  -OEChem-03222214063D

 31 30  0     1  0  0  0  0  0999 V2000
   -3.3948   -3.9372    1.2028 H   0  0  0  0  0  0  0  0  0  0  0  0
   -3.3204   -2.9709    0.6963 C   0  0  0  0  0  0  0  0  0  0  0  0
   -4.0490   -2.2853    1.1357 H   0  0  0  0  0  0  0  0  0  0  0  0
   -3.5524   -3.1093   -0.3624 H   0  0  0  0  0  0  0  0  0  0  0  0
   -1.9207   -2.4066    0.8488 C   0  0  0  0  0  0  0  0  0  0  0  0
   -1.0839   -3.0196    1.4928 O   0  0  0  0  0  0  0  0  0  0  0  0
   -1.6106   -1.1908    0.2761 N   0  0  0  0  0  0  0  0  0  0  0  0
   -2.3674   -0.6751   -0.1693 H   0  0  0  0  0  0  0  0  0  0  0  0
   -0.3054   -0.5184    0.3595 C   0  0  1  0  0  0  0  0  0  0  0  0
    0.3068   -0.9544    1.1559 H   0  0  0  0  0  0  0  0  0  0  0  0
    0.4278   -0.6527   -0.9885 C   0  0  0  0  0  0  0  0  0  0  0  0
   -0.2598   -0.3819   -1.7974 H   0  0  0  0  0  0  0  0  0  0  0  0
    1.2439    0.0773   -1.0177 H   0  0  0  0  0  0  0  0  0  0  0  0
    1.0032   -2.0716   -1.2155 C   0  0  0  0  0  0  0  0  0  0  0  0
    0.7631   -2.7152   -0.3638 H   0  0  0  0  0  0  0  0  0  0  0  0
    0.3977   -2.7014   -2.4749 C   0  0  0  0  0  0  0  0  0  0  0  0
    0.6372   -2.1043   -3.3606 H   0  0  0  0  0  0  0  0  0  0  0  0
    0.7893   -3.7130   -2.6207 H   0  0  0  0  0  0  0  0  0  0  0  0
   -0.6909   -2.7658   -2.3804 H   0  0  0  0  0  0  0  0  0  0  0  0
    2.5296   -2.0220   -1.3503 C   0  0  0  0  0  0  0  0  0  0  0  0
    2.9776   -1.6001   -0.4452 H   0  0  0  0  0  0  0  0  0  0  0  0
    2.9321   -3.0298   -1.4934 H   0  0  0  0  0  0  0  0  0  0  0  0
    2.8234   -1.4059   -2.2062 H   0  0  0  0  0  0  0  0  0  0  0  0
   -0.5004    0.9760    0.6821 C   0  0  0  0  0  0  0  0  0  0  0  0
   -1.3730    1.6181    0.1079 O   0  0  0  0  0  0  0  0  0  0  0  0
    0.2838    1.5937    1.6386 N   0  0  0  0  0  0  0  0  0  0  0  0
    0.9589    1.0195    2.1356 H   0  0  0  0  0  0  0  0  0  0  0  0
    0.1281    2.9915    2.0211 C   0  0  0  0  0  0  0  0  0  0  0  0
   -0.8772    3.1716    2.4160 H   0  0  0  0  0  0  0  0  0  0  0  0
    0.8558    3.2547    2.7946 H   0  0  0  0  0  0  0  0  0  0  0  0
    0.2902    3.6446    1.1574 H   0  0  0  0  0  0  0  0  0  0  0  0
  1  2  1  0  0  0  0
  2  3  1  0  0  0  0
  2  4  1  0  0  0  0
  2  5  1  0  0  0  0
  5  6  2  0  0  0  0
  5  7  1  0  0  0  0
  7  8  1  0  0  0  0
  7  9  1  0  0  0  0
  9 10  1  0  0  0  0
  9 11  1  0  0  0  0
  9 24  1  0  0  0  0
 11 12  1  0  0  0  0
 11 13  1  0  0  0  0
 11 14  1  0  0  0  0
 14 15  1  0  0  0  0
 14 16  1  0  0  0  0
 14 20  1  0  0  0  0
 16 17  1  0  0  0  0
 16 18  1  0  0  0  0
 16 19  1  0  0  0  0
 20 21  1  0  0  0  0
 20 22  1  0  0  0  0
 20 23  1  0  0  0  0
 24 25  2  0  0  0  0
 24 26  1  0  0  0  0
 26 27  1  0  0  0  0
 26 28  1  0  0  0  0
 28 29  1  0  0  0  0
 28 30  1  0  0  0  0
 28 31  1  0  0  0  0
M  END
$$$$

  -OEChem-03222214063D

 31 30  0     1  0  0  0  0  0999 V2000
   -3.3976   -3.9349    1.2161 H   0  0  0  0  0  0  0  0  0  0  0  0
   -3.3251   -2.9699    0.7069 C   0  0  0  0  0  0  0  0  0  0  0  0
   -4.0542   -2.2844    1.1454 H   0  0  0  0  0  0  0  0  0  0  0  0
   -3.5583   -3.1120   -0.3510 H   0  0  0  0  0  0  0  0  0  0  0  0
   -1.9254   -2.4043    0.8565 C   0  0  0  0  0  0  0  0  0  0  0  0
   -1.0887   -3.0156    1.5023 O   0  0  0  0  0  0  0  0  0  0  0  0
   -1.6138   -1.1905    0.2797 N   0  0  0  0  0  0  0  0  0  0  0  0
   -2.3704   -0.6736   -0.1650 H   0  0  0  0  0  0  0  0  0  0  0  0
   -0.3060   -0.5214    0.3579 C   0  0  1  0  0  0  0  0  0  0  0  0
    0.3070   -0.9588    1.1528 H   0  0  0  0  0  0  0  0  0  0  0  0
    0.4304   -0.6515   -0.9897 C   0  0  0  0  0  0  0  0  0  0  0  0
   -0.2706   -0.3906   -1.7900 H   0  0  0  0  0  0  0  0  0  0  0  0
    1.2422    0.0827   -1.0347 H   0  0  0  0  0  0  0  0  0  0  0  0
    1.0079   -2.0666   -1.2261 C   0  0  0  0  0  0  0  0  0  0  0  0
    0.5350   -2.7791   -0.5445 H   0  0  0  0  0  0  0  0  0  0  0  0
    0.7103   -2.5377   -2.6536 C   0  0  0  0  0  0  0  0  0  0  0  0
    1.1602   -1.8595   -3.3855 H   0  0  0  0  0  0  0  0  0  0  0  0
    1.1144   -3.5419   -2.8147 H   0  0  0  0  0  0  0  0  0  0  0  0
   -0.3700   -2.5718   -2.8262 H   0  0  0  0  0  0  0  0  0  0  0  0
    2.5169   -2.0892   -0.9595 C   0  0  0  0  0  0  0  0  0  0  0  0
    2.7262   -1.7660    0.0649 H   0  0  0  0  0  0  0  0  0  0  0  0
    2.9097   -3.1029   -1.0864 H   0  0  0  0  0  0  0  0  0  0  0  0
    3.0437   -1.4240   -1.6510 H   0  0  0  0  0  0  0  0  0  0  0  0
   -0.4986    0.9741    0.6780 C   0  0  0  0  0  0  0  0  0  0  0  0
   -1.3729    1.6153    0.1052 O   0  0  0  0  0  0  0  0  0  0  0  0
    0.2882    1.5939    1.6311 N   0  0  0  0  0  0  0  0  0  0  0  0
    0.9655    1.0210    2.1268 H   0  0  0  0  0  0  0  0  0  0  0  0
    0.1324    2.9920    2.0128 C   0  0  0  0  0  0  0  0  0  0  0  0
   -0.8715    3.1714    2.4119 H   0  0  0  0  0  0  0  0  0  0  0  0
    0.8631    3.2572    2.7829 H   0  0  0  0  0  0  0  0  0  0  0  0
    0.2900    3.6447    1.1477 H   0  0  0  0  0  0  0  0  0  0  0  0
  1  2  1  0  0  0  0
  2  3  1  0  0  0  0
  2  4  1  0  0  0  0
  2  5  1  0  0  0  0
  5  6  2  0  0  0  0
  5  7  1  0  0  0  0
  7  8  1  0  0  0  0
  7  9  1  0  0  0  0
  9 10  1  0  0  0  0
  9 11  1  0  0  0  0
  9 24  1  0  0  0  0
 11 12  1  0  0  0  0
 11 13  1  0  0  0  0
 11 14  1  0  0  0  0
 14 15  1  0  0  0  0
 14 16  1  0  0  0  0
 14 20  1  0  0  0  0
 16 17  1  0  0  0  0
 16 18  1  0  0  0  0
 16 19  1  0  0  0  0
 20 21  1  0  0  0  0
 20 22  1  0  0  0  0
 20 23  1  0  0  0  0
 24 25  2  0  0  0  0
 24 26  1  0  0  0  0
 26 27  1  0  0  0  0
 26 28  1  0  0  0  0
 28 29  1  0  0  0  0
 28 30  1  0  0  0  0
 28 31  1  0  0  0  0
M  END
$$$$

  -OEChem-03222214063D

 31 30  0     1  0  0  0  0  0999 V2000
   -3.4016   -3.9268    1.2263 H   0  0  0  0  0  0  0  0  0  0  0  0
   -3.3290   -2.9629    0.7149 C   0  0  0  0  0  0  0  0  0  0  0  0
   -4.0521   -2.2737    1.1576 H   0  0  0  0  0  0  0  0  0  0  0  0
   -3.5709   -3.1059   -0.3409 H   0  0  0  0  0  0  0  0  0  0  0  0
   -1.9262   -2.4022    0.8525 C   0  0  0  0  0  0  0  0  0  0  0  0
   -1.0826   -3.0201    1.4831 O   0  0  0  0  0  0  0  0  0  0  0  0
   -1.6165   -1.1884    0.2749 N   0  0  0  0  0  0  0  0  0  0  0  0
   -2.3760   -0.6669   -0.1593 H   0  0  0  0  0  0  0  0  0  0  0  0
   -0.3088   -0.5198    0.3543 C   0  0  1  0  0  0  0  0  0  0  0  0
    0.2983   -0.9558    1.1539 H   0  0  0  0  0  0  0  0  0  0  0  0
    0.4344   -0.6537   -0.9898 C   0  0  0  0  0  0  0  0  0  0  0  0
   -0.2677   -0.4024   -1.7923 H   0  0  0  0  0  0  0  0  0  0  0  0
    1.2469    0.0792   -1.0394 H   0  0  0  0  0  0  0  0  0  0  0  0
    1.0138   -2.0658   -1.2224 C   0  0  0  0  0  0  0  0  0  0  0  0
    0.3645   -2.8115   -0.7551 H   0  0  0  0  0  0  0  0  0  0  0  0
    1.0572   -2.3824   -2.7209 C   0  0  0  0  0  0  0  0  0  0  0  0
    1.6837   -1.6575   -3.2501 H   0  0  0  0  0  0  0  0  0  0  0  0
    1.4674   -3.3836   -2.8862 H   0  0  0  0  0  0  0  0  0  0  0  0
    0.0499   -2.3509   -3.1478 H   0  0  0  0  0  0  0  0  0  0  0  0
    2.4126   -2.1915   -0.6076 C   0  0  0  0  0  0  0  0  0  0  0  0
    2.3780   -1.9914    0.4676 H   0  0  0  0  0  0  0  0  0  0  0  0
    2.8013   -3.2042   -0.7539 H   0  0  0  0  0  0  0  0  0  0  0  0
    3.1059   -1.4837   -1.0725 H   0  0  0  0  0  0  0  0  0  0  0  0
   -0.4999    0.9758    0.6737 C   0  0  0  0  0  0  0  0  0  0  0  0
   -1.3754    1.6171    0.1031 O   0  0  0  0  0  0  0  0  0  0  0  0
    0.2872    1.5943    1.6275 N   0  0  0  0  0  0  0  0  0  0  0  0
    0.9644    1.0206    2.1222 H   0  0  0  0  0  0  0  0  0  0  0  0
    0.1335    2.9925    2.0094 C   0  0  0  0  0  0  0  0  0  0  0  0
   -0.8700    3.1730    2.4090 H   0  0  0  0  0  0  0  0  0  0  0  0
    0.8649    3.2565    2.7792 H   0  0  0  0  0  0  0  0  0  0  0  0
    0.2917    3.6452    1.1444 H   0  0  0  0  0  0  0  0  0  0  0  0
  1  2  1  0  0  0  0
  2  3  1  0  0  0  0
  2  4  1  0  0  0  0
  2  5  1  0  0  0  0
  5  6  2  0  0  0  0
  5  7  1  0  0  0  0
  7  8  1  0  0  0  0
  7  9  1  0  0  0  0
  9 10  1  0  0  0  0
  9 11  1  0  0  0  0
  9 24  1  0  0  0  0
 11 12  1  0  0  0  0
 11 13  1  0  0  0  0
 11 14  1  0  0  0  0
 14 15  1  0  0  0  0
 14 16  1  0  0  0  0
 14 20  1  0  0  0  0
 16 17  1  0  0  0  0
 16 18  1  0  0  0  0
 16 19  1  0  0  0  0
 20 21  1  0  0  0  0
 20 22  1  0  0  0  0
 20 23  1  0  0  0  0
 24 25  2  0  0  0  0
 24 26  1  0  0  0  0
 26 27  1  0  0  0  0
 26 28  1  0  0  0  0
 28 29  1  0  0  0  0
 28 30  1  0  0  0  0
 28 31  1  0  0  0  0
M  END
$$$$

  -OEChem-03222214063D

 31 30  0     1  0  0  0  0  0999 V2000
   -3.4224   -3.8977    1.2532 H   0  0  0  0  0  0  0  0  0  0  0  0
   -3.3443   -2.9375    0.7357 C   0  0  0  0  0  0  0  0  0  0  0  0
   -4.0499   -2.2355    1.1870 H   0  0  0  0  0  0  0  0  0  0  0  0
   -3.6056   -3.0815   -0.3155 H   0  0  0  0  0  0  0  0  0  0  0  0
   -1.9314   -2.3965    0.8473 C   0  0  0  0  0  0  0  0  0  0  0  0
   -1.0830   -3.0276    1.4581 O   0  0  0  0  0  0  0  0  0  0  0  0
   -1.6164   -1.1860    0.2660 N   0  0  0  0  0  0  0  0  0  0  0  0
   -2.3774   -0.6516   -0.1499 H   0  0  0  0  0  0  0  0  0  0  0  0
   -0.3083   -0.5212    0.3574 C   0  0  1  0  0  0  0  0  0  0  0  0
    0.2836   -0.9490    1.1711 H   0  0  0  0  0  0  0  0  0  0  0  0
    0.4456   -0.6675   -0.9798 C   0  0  0  0  0  0  0  0  0  0  0  0
   -0.2443   -0.4152   -1.7927 H   0  0  0  0  0  0  0  0  0  0  0  0
    1.2651    0.0585   -1.0176 H   0  0  0  0  0  0  0  0  0  0  0  0
    1.0263   -2.0782   -1.2135 C   0  0  0  0  0  0  0  0  0  0  0  0
    0.2609   -2.8280   -0.9901 H   0  0  0  0  0  0  0  0  0  0  0  0
    1.4172   -2.2331   -2.6875 C   0  0  0  0  0  0  0  0  0  0  0  0
    2.1837   -1.5017   -2.9628 H   0  0  0  0  0  0  0  0  0  0  0  0
    1.8114   -3.2370   -2.8740 H   0  0  0  0  0  0  0  0  0  0  0  0
    0.5456   -2.0839   -3.3324 H   0  0  0  0  0  0  0  0  0  0  0  0
    2.2498   -2.3457   -0.3261 C   0  0  0  0  0  0  0  0  0  0  0  0
    1.9715   -2.3464    0.7313 H   0  0  0  0  0  0  0  0  0  0  0  0
    2.6797   -3.3248   -0.5595 H   0  0  0  0  0  0  0  0  0  0  0  0
    3.0185   -1.5832   -0.4858 H   0  0  0  0  0  0  0  0  0  0  0  0
   -0.5011    0.9761    0.6674 C   0  0  0  0  0  0  0  0  0  0  0  0
   -1.3737    1.6135    0.0880 O   0  0  0  0  0  0  0  0  0  0  0  0
    0.2747    1.5997    1.6271 N   0  0  0  0  0  0  0  0  0  0  0  0
    0.9486    1.0297    2.1306 H   0  0  0  0  0  0  0  0  0  0  0  0
    0.1123    2.9988    2.0025 C   0  0  0  0  0  0  0  0  0  0  0  0
   -0.8917    3.1741    2.4034 H   0  0  0  0  0  0  0  0  0  0  0  0
    0.8438    3.2718    2.7692 H   0  0  0  0  0  0  0  0  0  0  0  0
    0.2638    3.6485    1.1340 H   0  0  0  0  0  0  0  0  0  0  0  0
  1  2  1  0  0  0  0
  2  3  1  0  0  0  0
  2  4  1  0  0  0  0
  2  5  1  0  0  0  0
  5  6  2  0  0  0  0
  5  7  1  0  0  0  0
  7  8  1  0  0  0  0
  7  9  1  0  0  0  0
  9 10  1  0  0  0  0
  9 11  1  0  0  0  0
  9 24  1  0  0  0  0
 11 12  1  0  0  0  0
 11 13  1  0  0  0  0
 11 14  1  0  0  0  0
 14 15  1  0  0  0  0
 14 16  1  0  0  0  0
 14 20  1  0  0  0  0
 16 17  1  0  0  0  0
 16 18  1  0  0  0  0
 16 19  1  0  0  0  0
 20 21  1  0  0  0  0
 20 22  1  0  0  0  0
 20 23  1  0  0  0  0
 24 25  2  0  0  0  0
 24 26  1  0  0  0  0
 26 27  1  0  0  0  0
 26 28  1  0  0  0  0
 28 29  1  0  0  0  0
 28 30  1  0  0  0  0
 28 31  1  0  0  0  0
M  END
$$$$

  -OEChem-03222214063D

 31 30  0     1  0  0  0  0  0999 V2000
   -3.4962   -3.8987    1.2187 H   0  0  0  0  0  0  0  0  0  0  0  0
   -3.3923   -2.9343    0.7135 C   0  0  0  0  0  0  0  0  0  0  0  0
   -4.1326   -2.2411    1.1200 H   0  0  0  0  0  0  0  0  0  0  0  0
   -3.5809   -3.0745   -0.3536 H   0  0  0  0  0  0  0  0  0  0  0  0
   -1.9956   -2.3810    0.9235 C   0  0  0  0  0  0  0  0  0  0  0  0
   -1.2133   -2.9711    1.6501 O   0  0  0  0  0  0  0  0  0  0  0  0
   -1.6403   -1.1912    0.3236 N   0  0  0  0  0  0  0  0  0  0  0  0
   -2.3683   -0.6915   -0.1837 H   0  0  0  0  0  0  0  0  0  0  0  0
   -0.3237   -0.5386    0.4033 C   0  0  1  0  0  0  0  0  0  0  0  0
    0.2642   -0.9655    1.2212 H   0  0  0  0  0  0  0  0  0  0  0  0
    0.4331   -0.7083   -0.9328 C   0  0  0  0  0  0  0  0  0  0  0  0
   -0.1485   -0.2186   -1.7218 H   0  0  0  0  0  0  0  0  0  0  0  0
    1.3882   -0.1776   -0.8573 H   0  0  0  0  0  0  0  0  0  0  0  0
    0.7117   -2.1633   -1.3680 C   0  0  0  0  0  0  0  0  0  0  0  0
   -0.2342   -2.7014   -1.4894 H   0  0  0  0  0  0  0  0  0  0  0  0
    1.4605   -2.1482   -2.7067 C   0  0  0  0  0  0  0  0  0  0  0  0
    2.4196   -1.6287   -2.6119 H   0  0  0  0  0  0  0  0  0  0  0  0
    1.6514   -3.1702   -3.0491 H   0  0  0  0  0  0  0  0  0  0  0  0
    0.8639   -1.6389   -3.4700 H   0  0  0  0  0  0  0  0  0  0  0  0
    1.5954   -2.9081   -0.3548 C   0  0  0  0  0  0  0  0  0  0  0  0
    1.0997   -3.0050    0.6122 H   0  0  0  0  0  0  0  0  0  0  0  0
    1.8185   -3.9167   -0.7166 H   0  0  0  0  0  0  0  0  0  0  0  0
    2.5407   -2.3774   -0.2045 H   0  0  0  0  0  0  0  0  0  0  0  0
   -0.4925    0.9690    0.6770 C   0  0  0  0  0  0  0  0  0  0  0  0
   -1.3467    1.6096    0.0739 O   0  0  0  0  0  0  0  0  0  0  0  0
    0.2917    1.6022    1.6235 N   0  0  0  0  0  0  0  0  0  0  0  0
    0.9383    1.0287    2.1580 H   0  0  0  0  0  0  0  0  0  0  0  0
    0.1381    3.0078    1.9776 C   0  0  0  0  0  0  0  0  0  0  0  0
   -0.8642    3.1947    2.3771 H   0  0  0  0  0  0  0  0  0  0  0  0
    0.8723    3.2891    2.7387 H   0  0  0  0  0  0  0  0  0  0  0  0
    0.2917    3.6430    1.0989 H   0  0  0  0  0  0  0  0  0  0  0  0
  1  2  1  0  0  0  0
  2  3  1  0  0  0  0
  2  4  1  0  0  0  0
  2  5  1  0  0  0  0
  5  6  2  0  0  0  0
  5  7  1  0  0  0  0
  7  8  1  0  0  0  0
  7  9  1  0  0  0  0
  9 10  1  0  0  0  0
  9 11  1  0  0  0  0
  9 24  1  0  0  0  0
 11 12  1  0  0  0  0
 11 13  1  0  0  0  0
 11 14  1  0  0  0  0
 14 15  1  0  0  0  0
 14 16  1  0  0  0  0
 14 20  1  0  0  0  0
 16 17  1  0  0  0  0
 16 18  1  0  0  0  0
 16 19  1  0  0  0  0
 20 21  1  0  0  0  0
 20 22  1  0  0  0  0
 20 23  1  0  0  0  0
 24 25  2  0  0  0  0
 24 26  1  0  0  0  0
 26 27  1  0  0  0  0
 26 28  1  0  0  0  0
 28 29  1  0  0  0  0
 28 30  1  0  0  0  0
 28 31  1  0  0  0  0
M  END
$$$$

  -OEChem-03222214063D

 31 30  0     1  0  0  0  0  0999 V2000
   -3.5597   -3.8850    1.2336 H   0  0  0  0  0  0  0  0  0  0  0  0
   -3.4260   -2.9392    0.7012 C   0  0  0  0  0  0  0  0  0  0  0  0
   -4.2093   -2.2443    1.0136 H   0  0  0  0  0  0  0  0  0  0  0  0
   -3.5185   -3.1240   -0.3717 H   0  0  0  0  0  0  0  0  0  0  0  0
   -2.0613   -2.3532    1.0104 C   0  0  0  0  0  0  0  0  0  0  0  0
   -1.3674   -2.8615    1.8756 O   0  0  0  0  0  0  0  0  0  0  0  0
   -1.6654   -1.1900    0.3848 N   0  0  0  0  0  0  0  0  0  0  0  0
   -2.3462   -0.7439   -0.2265 H   0  0  0  0  0  0  0  0  0  0  0  0
   -0.3373   -0.5575    0.4589 C   0  0  1  0  0  0  0  0  0  0  0  0
    0.2475   -0.9834    1.2802 H   0  0  0  0  0  0  0  0  0  0  0  0
    0.4175   -0.7322   -0.8822 C   0  0  0  0  0  0  0  0  0  0  0  0
   -0.1470   -0.2193   -1.6690 H   0  0  0  0  0  0  0  0  0  0  0  0
    1.3747   -0.2087   -0.7814 H   0  0  0  0  0  0  0  0  0  0  0  0
    0.7058   -2.1695   -1.3739 C   0  0  0  0  0  0  0  0  0  0  0  0
   -0.2171   -2.6268   -1.7457 H   0  0  0  0  0  0  0  0  0  0  0  0
    1.7559   -2.1007   -2.4930 C   0  0  0  0  0  0  0  0  0  0  0  0
    2.7027   -1.6963   -2.1203 H   0  0  0  0  0  0  0  0  0  0  0  0
    1.9424   -3.0976   -2.9045 H   0  0  0  0  0  0  0  0  0  0  0  0
    1.4016   -1.4592   -3.3060 H   0  0  0  0  0  0  0  0  0  0  0  0
    1.3202   -3.0607   -0.2829 C   0  0  0  0  0  0  0  0  0  0  0  0
    0.6020   -3.2824    0.5026 H   0  0  0  0  0  0  0  0  0  0  0  0
    1.6432   -4.0163   -0.7076 H   0  0  0  0  0  0  0  0  0  0  0  0
    2.1885   -2.5722    0.1705 H   0  0  0  0  0  0  0  0  0  0  0  0
   -0.4887    0.9601    0.6888 C   0  0  0  0  0  0  0  0  0  0  0  0
   -1.3169    1.6004    0.0499 O   0  0  0  0  0  0  0  0  0  0  0  0
    0.2959    1.6066    1.6261 N   0  0  0  0  0  0  0  0  0  0  0  0
    0.9183    1.0355    2.1909 H   0  0  0  0  0  0  0  0  0  0  0  0
    0.1641    3.0248    1.9371 C   0  0  0  0  0  0  0  0  0  0  0  0
   -0.8323    3.2379    2.3384 H   0  0  0  0  0  0  0  0  0  0  0  0
    0.9087    3.3192    2.6830 H   0  0  0  0  0  0  0  0  0  0  0  0
    0.3191    3.6305    1.0379 H   0  0  0  0  0  0  0  0  0  0  0  0
  1  2  1  0  0  0  0
  2  3  1  0  0  0  0
  2  4  1  0  0  0  0
  2  5  1  0  0  0  0
  5  6  2  0  0  0  0
  5  7  1  0  0  0  0
  7  8  1  0  0  0  0
  7  9  1  0  0  0  0
  9 10  1  0  0  0  0
  9 11  1  0  0  0  0
  9 24  1  0  0  0  0
 11 12  1  0  0  0  0
 11 13  1  0  0  0  0
 11 14  1  0  0  0  0
 14 15  1  0  0  0  0
 14 16  1  0  0  0  0
 14 20  1  0  0  0  0
 16 17  1  0  0  0  0
 16 18  1  0  0  0  0
 16 19  1  0  0  0  0
 20 21  1  0  0  0  0
 20 22  1  0  0  0  0
 20 23  1  0  0  0  0
 24 25  2  0  0  0  0
 24 26  1  0  0  0  0
 26 27  1  0  0  0  0
 26 28  1  0  0  0  0
 28 29  1  0  0  0  0
 28 30  1  0  0  0  0
 28 31  1  0  0  0  0
M  END
$$$$

  -OEChem-03222214063D

 31 30  0     1  0  0  0  0  0999 V2000
   -3.5482   -3.9074    1.3209 H   0  0  0  0  0  0  0  0  0  0  0  0
   -3.4309   -2.9652    0.7784 C   0  0  0  0  0  0  0  0  0  0  0  0
   -4.2151   -2.2740    1.0966 H   0  0  0  0  0  0  0  0  0  0  0  0
   -3.5376   -3.1597   -0.2914 H   0  0  0  0  0  0  0  0  0  0  0  0
   -2.0671   -2.3651    1.0622 C   0  0  0  0  0  0  0  0  0  0  0  0
   -1.3535   -2.8572    1.9222 O   0  0  0  0  0  0  0  0  0  0  0  0
   -1.6860   -1.2066    0.4191 N   0  0  0  0  0  0  0  0  0  0  0  0
   -2.3752   -0.7661   -0.1868 H   0  0  0  0  0  0  0  0  0  0  0  0
   -0.3593   -0.5723    0.4790 C   0  0  1  0  0  0  0  0  0  0  0  0
    0.2288   -0.9878    1.3030 H   0  0  0  0  0  0  0  0  0  0  0  0
    0.4128   -0.7271   -0.8577 C   0  0  0  0  0  0  0  0  0  0  0  0
   -0.1444   -0.2013   -1.6413 H   0  0  0  0  0  0  0  0  0  0  0  0
    1.3556   -0.1853   -0.7244 H   0  0  0  0  0  0  0  0  0  0  0  0
    0.7488   -2.1383   -1.4104 C   0  0  0  0  0  0  0  0  0  0  0  0
   -0.0664   -2.4739   -2.0602 H   0  0  0  0  0  0  0  0  0  0  0  0
    2.0502   -2.0392   -2.2229 C   0  0  0  0  0  0  0  0  0  0  0  0
    2.8955   -1.7765   -1.5783 H   0  0  0  0  0  0  0  0  0  0  0  0
    2.2712   -2.9930   -2.7122 H   0  0  0  0  0  0  0  0  0  0  0  0
    1.9543   -1.2746   -3.0004 H   0  0  0  0  0  0  0  0  0  0  0  0
    0.9938   -3.2108   -0.3389 C   0  0  0  0  0  0  0  0  0  0  0  0
    1.5585   -4.0523   -0.7524 H   0  0  0  0  0  0  0  0  0  0  0  0
    0.0491   -3.6153    0.0196 H   0  0  0  0  0  0  0  0  0  0  0  0
    1.5580   -2.8030    0.5053 H   0  0  0  0  0  0  0  0  0  0  0  0
   -0.5262    0.9463    0.6971 C   0  0  0  0  0  0  0  0  0  0  0  0
   -1.3633    1.5747    0.0577 O   0  0  0  0  0  0  0  0  0  0  0  0
    0.2573    1.6067    1.6254 N   0  0  0  0  0  0  0  0  0  0  0  0
    0.8871    1.0447    2.1912 H   0  0  0  0  0  0  0  0  0  0  0  0
    0.1162    3.0260    1.9262 C   0  0  0  0  0  0  0  0  0  0  0  0
   -0.8822    3.2355    2.3245 H   0  0  0  0  0  0  0  0  0  0  0  0
    0.8576    3.3293    2.6717 H   0  0  0  0  0  0  0  0  0  0  0  0
    0.2693    3.6270    1.0235 H   0  0  0  0  0  0  0  0  0  0  0  0
  1  2  1  0  0  0  0
  2  3  1  0  0  0  0
  2  4  1  0  0  0  0
  2  5  1  0  0  0  0
  5  6  2  0  0  0  0
  5  7  1  0  0  0  0
  7  8  1  0  0  0  0
  7  9  1  0  0  0  0
  9 10  1  0  0  0  0
  9 11  1  0  0  0  0
  9 24  1  0  0  0  0
 11 12  1  0  0  0  0
 11 13  1  0  0  0  0
 11 14  1  0  0  0  0
 14 15  1  0  0  0  0
 14 16  1  0  0  0  0
 14 20  1  0  0  0  0
 16 17  1  0  0  0  0
 16 18  1  0  0  0  0
 16 19  1  0  0  0  0
 20 21  1  0  0  0  0
 20 22  1  0  0  0  0
 20 23  1  0  0  0  0
 24 25  2  0  0  0  0
 24 26  1  0  0  0  0
 26 27  1  0  0  0  0
 26 28  1  0  0  0  0
 28 29  1  0  0  0  0
 28 30  1  0  0  0  0
 28 31  1  0  0  0  0
M  END
$$$$

  -OEChem-03222214063D

 31 30  0     1  0  0  0  0  0999 V2000
   -3.6721   -3.7869    1.3940 H   0  0  0  0  0  0  0  0  0  0  0  0
   -3.5234   -2.8572    0.8377 C   0  0  0  0  0  0  0  0  0  0  0  0
   -4.2670   -2.1269    1.1658 H   0  0  0  0  0  0  0  0  0  0  0  0
   -3.6645   -3.0578   -0.2271 H   0  0  0  0  0  0  0  0  0  0  0  0
   -2.1265   -2.3187    1.0827 C   0  0  0  0  0  0  0  0  0  0  0  0
   -1.4045   -2.8551    1.9086 O   0  0  0  0  0  0  0  0  0  0  0  0
   -1.7123   -1.1762    0.4303 N   0  0  0  0  0  0  0  0  0  0  0  0
   -2.3993   -0.7012   -0.1522 H   0  0  0  0  0  0  0  0  0  0  0  0
   -0.3678   -0.5779    0.4838 C   0  0  1  0  0  0  0  0  0  0  0  0
    0.2036   -0.9990    1.3171 H   0  0  0  0  0  0  0  0  0  0  0  0
    0.4332   -0.7469   -0.8374 C   0  0  0  0  0  0  0  0  0  0  0  0
   -0.1092   -0.2120   -1.6252 H   0  0  0  0  0  0  0  0  0  0  0  0
    1.3726   -0.2035   -0.6873 H   0  0  0  0  0  0  0  0  0  0  0  0
    0.7767   -2.1512   -1.4174 C   0  0  0  0  0  0  0  0  0  0  0  0
    0.1427   -2.3293   -2.2926 H   0  0  0  0  0  0  0  0  0  0  0  0
    2.2483   -2.1513   -1.8636 C   0  0  0  0  0  0  0  0  0  0  0  0
    2.9153   -2.0338   -1.0032 H   0  0  0  0  0  0  0  0  0  0  0  0
    2.4975   -3.0890   -2.3704 H   0  0  0  0  0  0  0  0  0  0  0  0
    2.4335   -1.3306   -2.5640 H   0  0  0  0  0  0  0  0  0  0  0  0
    0.6078   -3.3417   -0.4660 C   0  0  0  0  0  0  0  0  0  0  0  0
   -0.4425   -3.6271   -0.4012 H   0  0  0  0  0  0  0  0  0  0  0  0
    1.1492   -4.2167   -0.8387 H   0  0  0  0  0  0  0  0  0  0  0  0
    0.9889   -3.1070    0.5324 H   0  0  0  0  0  0  0  0  0  0  0  0
   -0.5059    0.9455    0.6903 C   0  0  0  0  0  0  0  0  0  0  0  0
   -1.3359    1.5837    0.0509 O   0  0  0  0  0  0  0  0  0  0  0  0
    0.2900    1.5982    1.6135 N   0  0  0  0  0  0  0  0  0  0  0  0
    0.9141    1.0301    2.1795 H   0  0  0  0  0  0  0  0  0  0  0  0
    0.1762    3.0222    1.9024 C   0  0  0  0  0  0  0  0  0  0  0  0
   -0.8152    3.2527    2.3061 H   0  0  0  0  0  0  0  0  0  0  0  0
    0.9286    3.3197    2.6390 H   0  0  0  0  0  0  0  0  0  0  0  0
    0.3325    3.6116    0.9927 H   0  0  0  0  0  0  0  0  0  0  0  0
  1  2  1  0  0  0  0
  2  3  1  0  0  0  0
  2  4  1  0  0  0  0
  2  5  1  0  0  0  0
  5  6  2  0  0  0  0
  5  7  1  0  0  0  0
  7  8  1  0  0  0  0
  7  9  1  0  0  0  0
  9 10  1  0  0  0  0
  9 11  1  0  0  0  0
  9 24  1  0  0  0  0
 11 12  1  0  0  0  0
 11 13  1  0  0  0  0
 11 14  1  0  0  0  0
 14 15  1  0  0  0  0
 14 16  1  0  0  0  0
 14 20  1  0  0  0  0
 16 17  1  0  0  0  0
 16 18  1  0  0  0  0
 16 19  1  0  0  0  0
 20 21  1  0  0  0  0
 20 22  1  0  0  0  0
 20 23  1  0  0  0  0
 24 25  2  0  0  0  0
 24 26  1  0  0  0  0
 26 27  1  0  0  0  0
 26 28  1  0  0  0  0
 28 29  1  0  0  0  0
 28 30  1  0  0  0  0
 28 31  1  0  0  0  0
M  END
$$$$

  -OEChem-03222214063D

 31 30  0     1  0  0  0  0  0999 V2000
   -3.7113   -3.7645    1.4290 H   0  0  0  0  0  0  0  0  0  0  0  0
   -3.5591   -2.8320    0.8783 C   0  0  0  0  0  0  0  0  0  0  0  0
   -4.2896   -2.0956    1.2218 H   0  0  0  0  0  0  0  0  0  0  0  0
   -3.7163   -3.0228   -0.1859 H   0  0  0  0  0  0  0  0  0  0  0  0
   -2.1529   -2.3119    1.1092 C   0  0  0  0  0  0  0  0  0  0  0  0
   -1.4296   -2.8605    1.9255 O   0  0  0  0  0  0  0  0  0  0  0  0
   -1.7305   -1.1752    0.4509 N   0  0  0  0  0  0  0  0  0  0  0  0
   -2.4199   -0.6890   -0.1194 H   0  0  0  0  0  0  0  0  0  0  0  0
   -0.3810   -0.5860    0.4957 C   0  0  1  0  0  0  0  0  0  0  0  0
    0.1855   -1.0078    1.3319 H   0  0  0  0  0  0  0  0  0  0  0  0
    0.4435   -0.7483   -0.8157 C   0  0  0  0  0  0  0  0  0  0  0  0
   -0.1122   -0.2239   -1.6013 H   0  0  0  0  0  0  0  0  0  0  0  0
    1.3703   -0.1823   -0.6711 H   0  0  0  0  0  0  0  0  0  0  0  0
    0.8120   -2.1394   -1.4170 C   0  0  0  0  0  0  0  0  0  0  0  0
    0.4243   -2.1725   -2.4412 H   0  0  0  0  0  0  0  0  0  0  0  0
    2.3422   -2.2655   -1.4886 C   0  0  0  0  0  0  0  0  0  0  0  0
    2.7784   -2.2390   -0.4847 H   0  0  0  0  0  0  0  0  0  0  0  0
    2.6301   -3.2068   -1.9674 H   0  0  0  0  0  0  0  0  0  0  0  0
    2.7670   -1.4458   -2.0766 H   0  0  0  0  0  0  0  0  0  0  0  0
    0.2882   -3.3803   -0.6937 C   0  0  0  0  0  0  0  0  0  0  0  0
   -0.7960   -3.4508   -0.7959 H   0  0  0  0  0  0  0  0  0  0  0  0
    0.7117   -4.2877   -1.1354 H   0  0  0  0  0  0  0  0  0  0  0  0
    0.5652   -3.3584    0.3641 H   0  0  0  0  0  0  0  0  0  0  0  0
   -0.5193    0.9386    0.6967 C   0  0  0  0  0  0  0  0  0  0  0  0
   -1.3518    1.5735    0.0571 O   0  0  0  0  0  0  0  0  0  0  0  0
    0.2791    1.5963    1.6143 N   0  0  0  0  0  0  0  0  0  0  0  0
    0.9052    1.0318    2.1817 H   0  0  0  0  0  0  0  0  0  0  0  0
    0.1711    3.0234    1.8906 C   0  0  0  0  0  0  0  0  0  0  0  0
   -0.8174    3.2614    2.2970 H   0  0  0  0  0  0  0  0  0  0  0  0
    0.9280    3.3257    2.6206 H   0  0  0  0  0  0  0  0  0  0  0  0
    0.3251    3.6039    0.9748 H   0  0  0  0  0  0  0  0  0  0  0  0
  1  2  1  0  0  0  0
  2  3  1  0  0  0  0
  2  4  1  0  0  0  0
  2  5  1  0  0  0  0
  5  6  2  0  0  0  0
  5  7  1  0  0  0  0
  7  8  1  0  0  0  0
  7  9  1  0  0  0  0
  9 10  1  0  0  0  0
  9 11  1  0  0  0  0
  9 24  1  0  0  0  0
 11 12  1  0  0  0  0
 11 13  1  0  0  0  0
 11 14  1  0  0  0  0
 14 15  1  0  0  0  0
 14 16  1  0  0  0  0
 14 20  1  0  0  0  0
 16 17  1  0  0  0  0
 16 18  1  0  0  0  0
 16 19  1  0  0  0  0
 20 21  1  0  0  0  0
 20 22  1  0  0  0  0
 20 23  1  0  0  0  0
 24 25  2  0  0  0  0
 24 26  1  0  0  0  0
 26 27  1  0  0  0  0
 26 28  1  0  0  0  0
 28 29  1  0  0  0  0
 28 30  1  0  0  0  0
 28 31  1  0  0  0  0
M  END
$$$$

  -OEChem-03222214063D

 31 30  0     1  0  0  0  0  0999 V2000
   -3.6965   -3.7683    1.4614 H   0  0  0  0  0  0  0  0  0  0  0  0
   -3.5535   -2.8346    0.9103 C   0  0  0  0  0  0  0  0  0  0  0  0
   -4.2820   -2.1007    1.2633 H   0  0  0  0  0  0  0  0  0  0  0  0
   -3.7229   -3.0243   -0.1523 H   0  0  0  0  0  0  0  0  0  0  0  0
   -2.1465   -2.3104    1.1262 C   0  0  0  0  0  0  0  0  0  0  0  0
   -1.4147   -2.8524    1.9394 O   0  0  0  0  0  0  0  0  0  0  0  0
   -1.7350   -1.1720    0.4636 N   0  0  0  0  0  0  0  0  0  0  0  0
   -2.4293   -0.6890   -0.1034 H   0  0  0  0  0  0  0  0  0  0  0  0
   -0.3862   -0.5821    0.4992 C   0  0  1  0  0  0  0  0  0  0  0  0
    0.1835   -1.0022    1.3342 H   0  0  0  0  0  0  0  0  0  0  0  0
    0.4453   -0.7421   -0.8085 C   0  0  0  0  0  0  0  0  0  0  0  0
   -0.1283   -0.2348   -1.5925 H   0  0  0  0  0  0  0  0  0  0  0  0
    1.3666   -0.1628   -0.6842 H   0  0  0  0  0  0  0  0  0  0  0  0
    0.8210   -2.1309   -1.4057 C   0  0  0  0  0  0  0  0  0  0  0  0
    0.7114   -2.0433   -2.4924 H   0  0  0  0  0  0  0  0  0  0  0  0
    2.3031   -2.4220   -1.1298 C   0  0  0  0  0  0  0  0  0  0  0  0
    2.4867   -2.4833   -0.0522 H   0  0  0  0  0  0  0  0  0  0  0  0
    2.5997   -3.3713   -1.5869 H   0  0  0  0  0  0  0  0  0  0  0  0
    2.9362   -1.6334   -1.5484 H   0  0  0  0  0  0  0  0  0  0  0  0
   -0.0037   -3.3456   -0.9844 C   0  0  0  0  0  0  0  0  0  0  0  0
   -1.0628   -3.1860   -1.1999 H   0  0  0  0  0  0  0  0  0  0  0  0
    0.3171   -4.2295   -1.5445 H   0  0  0  0  0  0  0  0  0  0  0  0
    0.1363   -3.5561    0.0780 H   0  0  0  0  0  0  0  0  0  0  0  0
   -0.5269    0.9419    0.7025 C   0  0  0  0  0  0  0  0  0  0  0  0
   -1.3651    1.5760    0.0699 O   0  0  0  0  0  0  0  0  0  0  0  0
    0.2767    1.5999    1.6153 N   0  0  0  0  0  0  0  0  0  0  0  0
    0.9057    1.0347    2.1787 H   0  0  0  0  0  0  0  0  0  0  0  0
    0.1643    3.0252    1.8994 C   0  0  0  0  0  0  0  0  0  0  0  0
   -0.8249    3.2577    2.3075 H   0  0  0  0  0  0  0  0  0  0  0  0
    0.9207    3.3258    2.6309 H   0  0  0  0  0  0  0  0  0  0  0  0
    0.3160    3.6111    0.9866 H   0  0  0  0  0  0  0  0  0  0  0  0
  1  2  1  0  0  0  0
  2  3  1  0  0  0  0
  2  4  1  0  0  0  0
  2  5  1  0  0  0  0
  5  6  2  0  0  0  0
  5  7  1  0  0  0  0
  7  8  1  0  0  0  0
  7  9  1  0  0  0  0
  9 10  1  0  0  0  0
  9 11  1  0  0  0  0
  9 24  1  0  0  0  0
 11 12  1  0  0  0  0
 11 13  1  0  0  0  0
 11 14  1  0  0  0  0
 14 15  1  0  0  0  0
 14 16  1  0  0  0  0
 14 20  1  0  0  0  0
 16 17  1  0  0  0  0
 16 18  1  0  0  0  0
 16 19  1  0  0  0  0
 20 21  1  0  0  0  0
 20 22  1  0  0  0  0
 20 23  1  0  0  0  0
 24 25  2  0  0  0  0
 24 26  1  0  0  0  0
 26 27  1  0  0  0  0
 26 28  1  0  0  0  0
 28 29  1  0  0  0  0
 28 30  1  0  0  0  0
 28 31  1  0  0  0  0
M  END
$$$$

  -OEChem-03222214063D

 31 30  0     1  0  0  0  0  0999 V2000
   -3.6679   -3.8011    1.4370 H   0  0  0  0  0  0  0  0  0  0  0  0
   -3.5331   -2.8668    0.8848 C   0  0  0  0  0  0  0  0  0  0  0  0
   -4.2585   -2.1344    1.2471 H   0  0  0  0  0  0  0  0  0  0  0  0
   -3.7142   -3.0558   -0.1760 H   0  0  0  0  0  0  0  0  0  0  0  0
   -2.1247   -2.3405    1.0839 C   0  0  0  0  0  0  0  0  0  0  0  0
   -1.3656   -2.9090    1.8535 O   0  0  0  0  0  0  0  0  0  0  0  0
   -1.7336   -1.1815    0.4454 N   0  0  0  0  0  0  0  0  0  0  0  0
   -2.4402   -0.6827   -0.0922 H   0  0  0  0  0  0  0  0  0  0  0  0
   -0.3912   -0.5808    0.4960 C   0  0  1  0  0  0  0  0  0  0  0  0
    0.1784   -1.0128    1.3249 H   0  0  0  0  0  0  0  0  0  0  0  0
    0.4479   -0.7140   -0.8070 C   0  0  0  0  0  0  0  0  0  0  0  0
   -0.1228   -0.2013   -1.5895 H   0  0  0  0  0  0  0  0  0  0  0  0
    1.3711   -0.1400   -0.6733 H   0  0  0  0  0  0  0  0  0  0  0  0
    0.8249   -2.0983   -1.4014 C   0  0  0  0  0  0  0  0  0  0  0  0
    1.0000   -1.9220   -2.4684 H   0  0  0  0  0  0  0  0  0  0  0  0
    2.1603   -2.5733   -0.8166 C   0  0  0  0  0  0  0  0  0  0  0  0
    2.0713   -2.7253    0.2638 H   0  0  0  0  0  0  0  0  0  0  0  0
    2.4630   -3.5193   -1.2764 H   0  0  0  0  0  0  0  0  0  0  0  0
    2.9485   -1.8373   -1.0024 H   0  0  0  0  0  0  0  0  0  0  0  0
   -0.2123   -3.2192   -1.3285 C   0  0  0  0  0  0  0  0  0  0  0  0
   -1.2000   -2.8540   -1.6236 H   0  0  0  0  0  0  0  0  0  0  0  0
   -0.2581   -3.6421   -0.3236 H   0  0  0  0  0  0  0  0  0  0  0  0
    0.0664   -4.0268   -2.0124 H   0  0  0  0  0  0  0  0  0  0  0  0
   -0.5422    0.9365    0.7352 C   0  0  0  0  0  0  0  0  0  0  0  0
   -1.3861    1.5785    0.1183 O   0  0  0  0  0  0  0  0  0  0  0  0
    0.2565    1.5785    1.6635 N   0  0  0  0  0  0  0  0  0  0  0  0
    0.8914    1.0053    2.2120 H   0  0  0  0  0  0  0  0  0  0  0  0
    0.1330    2.9956    1.9812 C   0  0  0  0  0  0  0  0  0  0  0  0
   -0.8617    3.2120    2.3845 H   0  0  0  0  0  0  0  0  0  0  0  0
    0.8797    3.2821    2.7279 H   0  0  0  0  0  0  0  0  0  0  0  0
    0.2908    3.6045    1.0848 H   0  0  0  0  0  0  0  0  0  0  0  0
  1  2  1  0  0  0  0
  2  3  1  0  0  0  0
  2  4  1  0  0  0  0
  2  5  1  0  0  0  0
  5  6  2  0  0  0  0
  5  7  1  0  0  0  0
  7  8  1  0  0  0  0
  7  9  1  0  0  0  0
  9 10  1  0  0  0  0
  9 11  1  0  0  0  0
  9 24  1  0  0  0  0
 11 12  1  0  0  0  0
 11 13  1  0  0  0  0
 11 14  1  0  0  0  0
 14 15  1  0  0  0  0
 14 16  1  0  0  0  0
 14 20  1  0  0  0  0
 16 17  1  0  0  0  0
 16 18  1  0  0  0  0
 16 19  1  0  0  0  0
 20 21  1  0  0  0  0
 20 22  1  0  0  0  0
 20 23  1  0  0  0  0
 24 25  2  0  0  0  0
 24 26  1  0  0  0  0
 26 27  1  0  0  0  0
 26 28  1  0  0  0  0
 28 29  1  0  0  0  0
 28 30  1  0  0  0  0
 28 31  1  0  0  0  0
M  END
$$$$

  -OEChem-03222214063D

 31 30  0     1  0  0  0  0  0999 V2000
   -3.6236   -3.7954    1.4917 H   0  0  0  0  0  0  0  0  0  0  0  0
   -3.5103   -2.8592    0.9381 C   0  0  0  0  0  0  0  0  0  0  0  0
   -4.2186   -2.1275    1.3339 H   0  0  0  0  0  0  0  0  0  0  0  0
   -3.7362   -3.0431   -0.1151 H   0  0  0  0  0  0  0  0  0  0  0  0
   -2.0929   -2.3373    1.0789 C   0  0  0  0  0  0  0  0  0  0  0  0
   -1.2926   -2.9304    1.7858 O   0  0  0  0  0  0  0  0  0  0  0  0
   -1.7252   -1.1762    0.4305 N   0  0  0  0  0  0  0  0  0  0  0  0
   -2.4538   -0.6610   -0.0600 H   0  0  0  0  0  0  0  0  0  0  0  0
   -0.3873   -0.5669    0.4648 C   0  0  1  0  0  0  0  0  0  0  0  0
    0.1898   -0.9882    1.2938 H   0  0  0  0  0  0  0  0  0  0  0  0
    0.4350   -0.7254   -0.8425 C   0  0  0  0  0  0  0  0  0  0  0  0
   -0.1279   -0.2223   -1.6366 H   0  0  0  0  0  0  0  0  0  0  0  0
    1.3718   -0.1706   -0.7232 H   0  0  0  0  0  0  0  0  0  0  0  0
    0.7872   -2.1350   -1.3789 C   0  0  0  0  0  0  0  0  0  0  0  0
    1.2092   -1.9656   -2.3757 H   0  0  0  0  0  0  0  0  0  0  0  0
    1.9004   -2.7681   -0.5375 C   0  0  0  0  0  0  0  0  0  0  0  0
    1.5505   -2.9555    0.4828 H   0  0  0  0  0  0  0  0  0  0  0  0
    2.2132   -3.7207   -0.9763 H   0  0  0  0  0  0  0  0  0  0  0  0
    2.7726   -2.1088   -0.4921 H   0  0  0  0  0  0  0  0  0  0  0  0
   -0.3771   -3.1087   -1.5835 C   0  0  0  0  0  0  0  0  0  0  0  0
   -1.2624   -2.5825   -1.9525 H   0  0  0  0  0  0  0  0  0  0  0  0
   -0.0988   -3.8671   -2.3216 H   0  0  0  0  0  0  0  0  0  0  0  0
   -0.6231   -3.6306   -0.6576 H   0  0  0  0  0  0  0  0  0  0  0  0
   -0.5355    0.9506    0.7003 C   0  0  0  0  0  0  0  0  0  0  0  0
   -1.3928    1.5869    0.0964 O   0  0  0  0  0  0  0  0  0  0  0  0
    0.2729    1.5981    1.6164 N   0  0  0  0  0  0  0  0  0  0  0  0
    0.9262    1.0314    2.1499 H   0  0  0  0  0  0  0  0  0  0  0  0
    0.1571    3.0185    1.9230 C   0  0  0  0  0  0  0  0  0  0  0  0
   -0.8305    3.2413    2.3401 H   0  0  0  0  0  0  0  0  0  0  0  0
    0.9163    3.3105    2.6548 H   0  0  0  0  0  0  0  0  0  0  0  0
    0.3014    3.6189    1.0186 H   0  0  0  0  0  0  0  0  0  0  0  0
  1  2  1  0  0  0  0
  2  3  1  0  0  0  0
  2  4  1  0  0  0  0
  2  5  1  0  0  0  0
  5  6  2  0  0  0  0
  5  7  1  0  0  0  0
  7  8  1  0  0  0  0
  7  9  1  0  0  0  0
  9 10  1  0  0  0  0
  9 11  1  0  0  0  0
  9 24  1  0  0  0  0
 11 12  1  0  0  0  0
 11 13  1  0  0  0  0
 11 14  1  0  0  0  0
 14 15  1  0  0  0  0
 14 16  1  0  0  0  0
 14 20  1  0  0  0  0
 16 17  1  0  0  0  0
 16 18  1  0  0  0  0
 16 19  1  0  0  0  0
 20 21  1  0  0  0  0
 20 22  1  0  0  0  0
 20 23  1  0  0  0  0
 24 25  2  0  0  0  0
 24 26  1  0  0  0  0
 26 27  1  0  0  0  0
 26 28  1  0  0  0  0
 28 29  1  0  0  0  0
 28 30  1  0  0  0  0
 28 31  1  0  0  0  0
M  END
$$$$

  -OEChem-03222214063D

 31 30  0     1  0  0  0  0  0999 V2000
   -3.6130   -3.8090    1.4422 H   0  0  0  0  0  0  0  0  0  0  0  0
   -3.4979   -2.8639    0.9042 C   0  0  0  0  0  0  0  0  0  0  0  0
   -4.2063   -2.1376    1.3101 H   0  0  0  0  0  0  0  0  0  0  0  0
   -3.7223   -3.0311   -0.1521 H   0  0  0  0  0  0  0  0  0  0  0  0
   -2.0806   -2.3450    1.0564 C   0  0  0  0  0  0  0  0  0  0  0  0
   -1.2867   -2.9447    1.7634 O   0  0  0  0  0  0  0  0  0  0  0  0
   -1.7110   -1.1799    0.4170 N   0  0  0  0  0  0  0  0  0  0  0  0
   -2.4392   -0.6662   -0.0760 H   0  0  0  0  0  0  0  0  0  0  0  0
   -0.3772   -0.5622    0.4580 C   0  0  1  0  0  0  0  0  0  0  0  0
    0.2019   -0.9839    1.2855 H   0  0  0  0  0  0  0  0  0  0  0  0
    0.4294   -0.7254   -0.8575 C   0  0  0  0  0  0  0  0  0  0  0  0
   -0.1197   -0.2098   -1.6529 H   0  0  0  0  0  0  0  0  0  0  0  0
    1.3772   -0.1911   -0.7318 H   0  0  0  0  0  0  0  0  0  0  0  0
    0.7678   -2.1426   -1.3787 C   0  0  0  0  0  0  0  0  0  0  0  0
    1.3941   -1.9907   -2.2645 H   0  0  0  0  0  0  0  0  0  0  0  0
    1.6052   -2.9319   -0.3664 C   0  0  0  0  0  0  0  0  0  0  0  0
    1.0311   -3.1447    0.5390 H   0  0  0  0  0  0  0  0  0  0  0  0
    1.9244   -3.8842   -0.8010 H   0  0  0  0  0  0  0  0  0  0  0  0
    2.4984   -2.3656   -0.0859 H   0  0  0  0  0  0  0  0  0  0  0  0
   -0.4416   -2.9606   -1.8481 C   0  0  0  0  0  0  0  0  0  0  0  0
   -1.1618   -2.3225   -2.3691 H   0  0  0  0  0  0  0  0  0  0  0  0
   -0.1134   -3.7424   -2.5398 H   0  0  0  0  0  0  0  0  0  0  0  0
   -0.9405   -3.4514   -1.0117 H   0  0  0  0  0  0  0  0  0  0  0  0
   -0.5287    0.9537    0.6986 C   0  0  0  0  0  0  0  0  0  0  0  0
   -1.3855    1.5904    0.0947 O   0  0  0  0  0  0  0  0  0  0  0  0
    0.2759    1.5997    1.6189 N   0  0  0  0  0  0  0  0  0  0  0  0
    0.9299    1.0326    2.1510 H   0  0  0  0  0  0  0  0  0  0  0  0
    0.1553    3.0184    1.9313 C   0  0  0  0  0  0  0  0  0  0  0  0
   -0.8341    3.2368    2.3469 H   0  0  0  0  0  0  0  0  0  0  0  0
    0.9116    3.3095    2.6666 H   0  0  0  0  0  0  0  0  0  0  0  0
    0.3008    3.6228    1.0296 H   0  0  0  0  0  0  0  0  0  0  0  0
  1  2  1  0  0  0  0
  2  3  1  0  0  0  0
  2  4  1  0  0  0  0
  2  5  1  0  0  0  0
  5  6  2  0  0  0  0
  5  7  1  0  0  0  0
  7  8  1  0  0  0  0
  7  9  1  0  0  0  0
  9 10  1  0  0  0  0
  9 11  1  0  0  0  0
  9 24  1  0  0  0  0
 11 12  1  0  0  0  0
 11 13  1  0  0  0  0
 11 14  1  0  0  0  0
 14 15  1  0  0  0  0
 14 16  1  0  0  0  0
 14 20  1  0  0  0  0
 16 17  1  0  0  0  0
 16 18  1  0  0  0  0
 16 19  1  0  0  0  0
 20 21  1  0  0  0  0
 20 22  1  0  0  0  0
 20 23  1  0  0  0  0
 24 25  2  0  0  0  0
 24 26  1  0  0  0  0
 26 27  1  0  0  0  0
 26 28  1  0  0  0  0
 28 29  1  0  0  0  0
 28 30  1  0  0  0  0
 28 31  1  0  0  0  0
M  END
$$$$

  -OEChem-03222214063D

 31 30  0     1  0  0  0  0  0999 V2000
   -3.5801   -3.8595    1.3706 H   0  0  0  0  0  0  0  0  0  0  0  0
   -3.4678   -2.9023    0.8538 C   0  0  0  0  0  0  0  0  0  0  0  0
   -4.2217   -2.2066    1.2302 H   0  0  0  0  0  0  0  0  0  0  0  0
   -3.6287   -3.0598   -0.2154 H   0  0  0  0  0  0  0  0  0  0  0  0
   -2.0798   -2.3384    1.0928 C   0  0  0  0  0  0  0  0  0  0  0  0
   -1.3452   -2.8655    1.9123 O   0  0  0  0  0  0  0  0  0  0  0  0
   -1.6967   -1.1816    0.4466 N   0  0  0  0  0  0  0  0  0  0  0  0
   -2.3978   -0.7190   -0.1286 H   0  0  0  0  0  0  0  0  0  0  0  0
   -0.3630   -0.5617    0.4850 C   0  0  1  0  0  0  0  0  0  0  0  0
    0.2254   -0.9823    1.3065 H   0  0  0  0  0  0  0  0  0  0  0  0
    0.4154   -0.7263   -0.8491 C   0  0  0  0  0  0  0  0  0  0  0  0
   -0.1298   -0.1885   -1.6328 H   0  0  0  0  0  0  0  0  0  0  0  0
    1.3725   -0.2088   -0.7232 H   0  0  0  0  0  0  0  0  0  0  0  0
    0.7447   -2.1390   -1.3911 C   0  0  0  0  0  0  0  0  0  0  0  0
    1.5354   -2.0059   -2.1374 H   0  0  0  0  0  0  0  0  0  0  0  0
    1.2832   -3.0909   -0.3178 C   0  0  0  0  0  0  0  0  0  0  0  0
    0.4958   -3.4193    0.3593 H   0  0  0  0  0  0  0  0  0  0  0  0
    1.7117   -3.9806   -0.7895 H   0  0  0  0  0  0  0  0  0  0  0  0
    2.0677   -2.6021    0.2679 H   0  0  0  0  0  0  0  0  0  0  0  0
   -0.4446   -2.7856   -2.1146 C   0  0  0  0  0  0  0  0  0  0  0  0
   -0.8572   -2.1018   -2.8626 H   0  0  0  0  0  0  0  0  0  0  0  0
   -0.1194   -3.6963   -2.6270 H   0  0  0  0  0  0  0  0  0  0  0  0
   -1.2380   -3.0576   -1.4163 H   0  0  0  0  0  0  0  0  0  0  0  0
   -0.5149    0.9572    0.7093 C   0  0  0  0  0  0  0  0  0  0  0  0
   -1.3594    1.5913    0.0853 O   0  0  0  0  0  0  0  0  0  0  0  0
    0.2874    1.6121    1.6253 N   0  0  0  0  0  0  0  0  0  0  0  0
    0.9215    1.0458    2.1820 H   0  0  0  0  0  0  0  0  0  0  0  0
    0.1572    3.0316    1.9302 C   0  0  0  0  0  0  0  0  0  0  0  0
   -0.8346    3.2456    2.3419 H   0  0  0  0  0  0  0  0  0  0  0  0
    0.9098    3.3308    2.6658 H   0  0  0  0  0  0  0  0  0  0  0  0
    0.3009    3.6324    1.0260 H   0  0  0  0  0  0  0  0  0  0  0  0
  1  2  1  0  0  0  0
  2  3  1  0  0  0  0
  2  4  1  0  0  0  0
  2  5  1  0  0  0  0
  5  6  2  0  0  0  0
  5  7  1  0  0  0  0
  7  8  1  0  0  0  0
  7  9  1  0  0  0  0
  9 10  1  0  0  0  0
  9 11  1  0  0  0  0
  9 24  1  0  0  0  0
 11 12  1  0  0  0  0
 11 13  1  0  0  0  0
 11 14  1  0  0  0  0
 14 15  1  0  0  0  0
 14 16  1  0  0  0  0
 14 20  1  0  0  0  0
 16 17  1  0  0  0  0
 16 18  1  0  0  0  0
 16 19  1  0  0  0  0
 20 21  1  0  0  0  0
 20 22  1  0  0  0  0
 20 23  1  0  0  0  0
 24 25  2  0  0  0  0
 24 26  1  0  0  0  0
 26 27  1  0  0  0  0
 26 28  1  0  0  0  0
 28 29  1  0  0  0  0
 28 30  1  0  0  0  0
 28 31  1  0  0  0  0
M  END
$$$$

  -OEChem-03222214063D

 31 30  0     1  0  0  0  0  0999 V2000
   -3.5030   -3.9334    1.3791 H   0  0  0  0  0  0  0  0  0  0  0  0
   -3.4090   -2.9866    0.8400 C   0  0  0  0  0  0  0  0  0  0  0  0
   -4.1968   -2.3085    1.1768 H   0  0  0  0  0  0  0  0  0  0  0  0
   -3.5336   -3.1767   -0.2286 H   0  0  0  0  0  0  0  0  0  0  0  0
   -2.0482   -2.3696    1.1017 C   0  0  0  0  0  0  0  0  0  0  0  0
   -1.3089   -2.8625    1.9393 O   0  0  0  0  0  0  0  0  0  0  0  0
   -1.6924   -1.2038    0.4570 N   0  0  0  0  0  0  0  0  0  0  0  0
   -2.3939   -0.7700   -0.1395 H   0  0  0  0  0  0  0  0  0  0  0  0
   -0.3702   -0.5596    0.4981 C   0  0  1  0  0  0  0  0  0  0  0  0
    0.2304   -0.9722    1.3145 H   0  0  0  0  0  0  0  0  0  0  0  0
    0.3966   -0.7029   -0.8446 C   0  0  0  0  0  0  0  0  0  0  0  0
   -0.1555   -0.1539   -1.6156 H   0  0  0  0  0  0  0  0  0  0  0  0
    1.3487   -0.1772   -0.7140 H   0  0  0  0  0  0  0  0  0  0  0  0
    0.7473   -2.1050   -1.4094 C   0  0  0  0  0  0  0  0  0  0  0  0
    1.6788   -1.9928   -1.9746 H   0  0  0  0  0  0  0  0  0  0  0  0
    0.9756   -3.2000   -0.3612 C   0  0  0  0  0  0  0  0  0  0  0  0
    1.5750   -4.0060   -0.7955 H   0  0  0  0  0  0  0  0  0  0  0  0
    0.0341   -3.6382   -0.0298 H   0  0  0  0  0  0  0  0  0  0  0  0
    1.5144   -2.8059    0.5056 H   0  0  0  0  0  0  0  0  0  0  0  0
   -0.3338   -2.5786   -2.3906 C   0  0  0  0  0  0  0  0  0  0  0  0
   -0.4482   -1.8618   -3.2096 H   0  0  0  0  0  0  0  0  0  0  0  0
   -0.0567   -3.5460   -2.8211 H   0  0  0  0  0  0  0  0  0  0  0  0
   -1.2986   -2.6878   -1.8871 H   0  0  0  0  0  0  0  0  0  0  0  0
   -0.5475    0.9562    0.7276 C   0  0  0  0  0  0  0  0  0  0  0  0
   -1.3992    1.5805    0.1036 O   0  0  0  0  0  0  0  0  0  0  0  0
    0.2447    1.6197    1.6463 N   0  0  0  0  0  0  0  0  0  0  0  0
    0.8883    1.0613    2.1998 H   0  0  0  0  0  0  0  0  0  0  0  0
    0.0966    3.0369    1.9538 C   0  0  0  0  0  0  0  0  0  0  0  0
   -0.9000    3.2387    2.3604 H   0  0  0  0  0  0  0  0  0  0  0  0
    0.8415    3.3427    2.6948 H   0  0  0  0  0  0  0  0  0  0  0  0
    0.2390    3.6421    1.0522 H   0  0  0  0  0  0  0  0  0  0  0  0
  1  2  1  0  0  0  0
  2  3  1  0  0  0  0
  2  4  1  0  0  0  0
  2  5  1  0  0  0  0
  5  6  2  0  0  0  0
  5  7  1  0  0  0  0
  7  8  1  0  0  0  0
  7  9  1  0  0  0  0
  9 10  1  0  0  0  0
  9 11  1  0  0  0  0
  9 24  1  0  0  0  0
 11 12  1  0  0  0  0
 11 13  1  0  0  0  0
 11 14  1  0  0  0  0
 14 15  1  0  0  0  0
 14 16  1  0  0  0  0
 14 20  1  0  0  0  0
 16 17  1  0  0  0  0
 16 18  1  0  0  0  0
 16 19  1  0  0  0  0
 20 21  1  0  0  0  0
 20 22  1  0  0  0  0
 20 23  1  0  0  0  0
 24 25  2  0  0  0  0
 24 26  1  0  0  0  0
 26 27  1  0  0  0  0
 26 28  1  0  0  0  0
 28 29  1  0  0  0  0
 28 30  1  0  0  0  0
 28 31  1  0  0  0  0
M  END
$$$$

  -OEChem-03222214063D

 31 30  0     1  0  0  0  0  0999 V2000
   -3.6211   -3.8287    1.4393 H   0  0  0  0  0  0  0  0  0  0  0  0
   -3.4896   -2.9000    0.8772 C   0  0  0  0  0  0  0  0  0  0  0  0
   -4.2481   -2.1821    1.1984 H   0  0  0  0  0  0  0  0  0  0  0  0
   -3.6238   -3.1110   -0.1864 H   0  0  0  0  0  0  0  0  0  0  0  0
   -2.1043   -2.3327    1.1221 C   0  0  0  0  0  0  0  0  0  0  0  0
   -1.3708   -2.8532    1.9482 O   0  0  0  0  0  0  0  0  0  0  0  0
   -1.7127   -1.1856    0.4646 N   0  0  0  0  0  0  0  0  0  0  0  0
   -2.4081   -0.7281   -0.1215 H   0  0  0  0  0  0  0  0  0  0  0  0
   -0.3750   -0.5717    0.5005 C   0  0  1  0  0  0  0  0  0  0  0  0
    0.2115   -0.9865    1.3261 H   0  0  0  0  0  0  0  0  0  0  0  0
    0.4054   -0.7425   -0.8326 C   0  0  0  0  0  0  0  0  0  0  0  0
   -0.1337   -0.1837   -1.6059 H   0  0  0  0  0  0  0  0  0  0  0  0
    1.3622   -0.2270   -0.6965 H   0  0  0  0  0  0  0  0  0  0  0  0
    0.7491   -2.1492   -1.4025 C   0  0  0  0  0  0  0  0  0  0  0  0
    1.7955   -2.1130   -1.7248 H   0  0  0  0  0  0  0  0  0  0  0  0
    0.6138   -3.3370   -0.4449 C   0  0  0  0  0  0  0  0  0  0  0  0
   -0.4239   -3.6644   -0.3625 H   0  0  0  0  0  0  0  0  0  0  0  0
    1.1932   -4.1842   -0.8244 H   0  0  0  0  0  0  0  0  0  0  0  0
    0.9979   -3.0853    0.5479 H   0  0  0  0  0  0  0  0  0  0  0  0
   -0.1105   -2.4377   -2.6413 C   0  0  0  0  0  0  0  0  0  0  0  0
    0.0579   -1.6778   -3.4109 H   0  0  0  0  0  0  0  0  0  0  0  0
    0.1459   -3.4136   -3.0659 H   0  0  0  0  0  0  0  0  0  0  0  0
   -1.1737   -2.4400   -2.3803 H   0  0  0  0  0  0  0  0  0  0  0  0
   -0.5225    0.9506    0.7087 C   0  0  0  0  0  0  0  0  0  0  0  0
   -1.3646    1.5823    0.0789 O   0  0  0  0  0  0  0  0  0  0  0  0
    0.2806    1.6099    1.6211 N   0  0  0  0  0  0  0  0  0  0  0  0
    0.9133    1.0460    2.1817 H   0  0  0  0  0  0  0  0  0  0  0  0
    0.1615    3.0336    1.9108 C   0  0  0  0  0  0  0  0  0  0  0  0
   -0.8282    3.2601    2.3210 H   0  0  0  0  0  0  0  0  0  0  0  0
    0.9172    3.3346    2.6426 H   0  0  0  0  0  0  0  0  0  0  0  0
    0.3093    3.6239    1.0004 H   0  0  0  0  0  0  0  0  0  0  0  0
  1  2  1  0  0  0  0
  2  3  1  0  0  0  0
  2  4  1  0  0  0  0
  2  5  1  0  0  0  0
  5  6  2  0  0  0  0
  5  7  1  0  0  0  0
  7  8  1  0  0  0  0
  7  9  1  0  0  0  0
  9 10  1  0  0  0  0
  9 11  1  0  0  0  0
  9 24  1  0  0  0  0
 11 12  1  0  0  0  0
 11 13  1  0  0  0  0
 11 14  1  0  0  0  0
 14 15  1  0  0  0  0
 14 16  1  0  0  0  0
 14 20  1  0  0  0  0
 16 17  1  0  0  0  0
 16 18  1  0  0  0  0
 16 19  1  0  0  0  0
 20 21  1  0  0  0  0
 20 22  1  0  0  0  0
 20 23  1  0  0  0  0
 24 25  2  0  0  0  0
 24 26  1  0  0  0  0
 26 27  1  0  0  0  0
 26 28  1  0  0  0  0
 28 29  1  0  0  0  0
 28 30  1  0  0  0  0
 28 31  1  0  0  0  0
M  END
$$$$

  -OEChem-03222214063D

 31 30  0     1  0  0  0  0  0999 V2000
   -3.6820   -3.7974    1.5013 H   0  0  0  0  0  0  0  0  0  0  0  0
   -3.5434   -2.8715    0.9361 C   0  0  0  0  0  0  0  0  0  0  0  0
   -4.2835   -2.1398    1.2690 H   0  0  0  0  0  0  0  0  0  0  0  0
   -3.6990   -3.0809   -0.1249 H   0  0  0  0  0  0  0  0  0  0  0  0
   -2.1443   -2.3285    1.1565 C   0  0  0  0  0  0  0  0  0  0  0  0
   -1.4087   -2.8591    1.9737 O   0  0  0  0  0  0  0  0  0  0  0  0
   -1.7419   -1.1917    0.4864 N   0  0  0  0  0  0  0  0  0  0  0  0
   -2.4396   -0.7248   -0.0898 H   0  0  0  0  0  0  0  0  0  0  0  0
   -0.3966   -0.5919    0.5046 C   0  0  1  0  0  0  0  0  0  0  0  0
    0.1884   -1.0068    1.3315 H   0  0  0  0  0  0  0  0  0  0  0  0
    0.3973   -0.7642   -0.8233 C   0  0  0  0  0  0  0  0  0  0  0  0
   -0.1599   -0.2140   -1.5901 H   0  0  0  0  0  0  0  0  0  0  0  0
    1.3462   -0.2318   -0.6964 H   0  0  0  0  0  0  0  0  0  0  0  0
    0.7552   -2.1622   -1.4125 C   0  0  0  0  0  0  0  0  0  0  0  0
    1.8490   -2.2116   -1.4504 H   0  0  0  0  0  0  0  0  0  0  0  0
    0.3002   -3.3985   -0.6380 C   0  0  0  0  0  0  0  0  0  0  0  0
   -0.7806   -3.5341   -0.7142 H   0  0  0  0  0  0  0  0  0  0  0  0
    0.7753   -4.2933   -1.0516 H   0  0  0  0  0  0  0  0  0  0  0  0
    0.5937   -3.3226    0.4124 H   0  0  0  0  0  0  0  0  0  0  0  0
    0.2375   -2.2758   -2.8531 C   0  0  0  0  0  0  0  0  0  0  0  0
    0.6369   -1.4633   -3.4682 H   0  0  0  0  0  0  0  0  0  0  0  0
    0.5505   -3.2252   -3.2989 H   0  0  0  0  0  0  0  0  0  0  0  0
   -0.8558   -2.2255   -2.8749 H   0  0  0  0  0  0  0  0  0  0  0  0
   -0.5361    0.9332    0.7012 C   0  0  0  0  0  0  0  0  0  0  0  0
   -1.3836    1.5628    0.0764 O   0  0  0  0  0  0  0  0  0  0  0  0
    0.2773    1.5972    1.6010 N   0  0  0  0  0  0  0  0  0  0  0  0
    0.9176    1.0367    2.1563 H   0  0  0  0  0  0  0  0  0  0  0  0
    0.1666    3.0241    1.8784 C   0  0  0  0  0  0  0  0  0  0  0  0
   -0.8185    3.2583    2.2955 H   0  0  0  0  0  0  0  0  0  0  0  0
    0.9301    3.3289    2.6006 H   0  0  0  0  0  0  0  0  0  0  0  0
    0.3084    3.6053    0.9610 H   0  0  0  0  0  0  0  0  0  0  0  0
  1  2  1  0  0  0  0
  2  3  1  0  0  0  0
  2  4  1  0  0  0  0
  2  5  1  0  0  0  0
  5  6  2  0  0  0  0
  5  7  1  0  0  0  0
  7  8  1  0  0  0  0
  7  9  1  0  0  0  0
  9 10  1  0  0  0  0
  9 11  1  0  0  0  0
  9 24  1  0  0  0  0
 11 12  1  0  0  0  0
 11 13  1  0  0  0  0
 11 14  1  0  0  0  0
 14 15  1  0  0  0  0
 14 16  1  0  0  0  0
 14 20  1  0  0  0  0
 16 17  1  0  0  0  0
 16 18  1  0  0  0  0
 16 19  1  0  0  0  0
 20 21  1  0  0  0  0
 20 22  1  0  0  0  0
 20 23  1  0  0  0  0
 24 25  2  0  0  0  0
 24 26  1  0  0  0  0
 26 27  1  0  0  0  0
 26 28  1  0  0  0  0
 28 29  1  0  0  0  0
 28 30  1  0  0  0  0
 28 31  1  0  0  0  0
M  END
$$$$

  -OEChem-03222214063D

 31 30  0     1  0  0  0  0  0999 V2000
   -3.6942   -3.8030    1.5109 H   0  0  0  0  0  0  0  0  0  0  0  0
   -3.5645   -2.8660    0.9621 C   0  0  0  0  0  0  0  0  0  0  0  0
   -4.2991   -2.1414    1.3216 H   0  0  0  0  0  0  0  0  0  0  0  0
   -3.7377   -3.0541   -0.1001 H   0  0  0  0  0  0  0  0  0  0  0  0
   -2.1616   -2.3279    1.1705 C   0  0  0  0  0  0  0  0  0  0  0  0
   -1.4240   -2.8555    1.9880 O   0  0  0  0  0  0  0  0  0  0  0  0
   -1.7587   -1.1950    0.4935 N   0  0  0  0  0  0  0  0  0  0  0  0
   -2.4575   -0.7254   -0.0792 H   0  0  0  0  0  0  0  0  0  0  0  0
   -0.4085   -0.6061    0.4989 C   0  0  1  0  0  0  0  0  0  0  0  0
    0.1778   -1.0228    1.3239 H   0  0  0  0  0  0  0  0  0  0  0  0
    0.3880   -0.7783   -0.8290 C   0  0  0  0  0  0  0  0  0  0  0  0
   -0.1907   -0.2429   -1.5903 H   0  0  0  0  0  0  0  0  0  0  0  0
    1.3318   -0.2331   -0.7193 H   0  0  0  0  0  0  0  0  0  0  0  0
    0.7458   -2.1711   -1.4283 C   0  0  0  0  0  0  0  0  0  0  0  0
    1.8054   -2.3384   -1.2066 H   0  0  0  0  0  0  0  0  0  0  0  0
    0.0128   -3.3978   -0.8895 C   0  0  0  0  0  0  0  0  0  0  0  0
   -1.0616   -3.3245   -1.0750 H   0  0  0  0  0  0  0  0  0  0  0  0
    0.3778   -4.3029   -1.3847 H   0  0  0  0  0  0  0  0  0  0  0  0
    0.2031   -3.5115    0.1797 H   0  0  0  0  0  0  0  0  0  0  0  0
    0.5935   -2.1326   -2.9554 C   0  0  0  0  0  0  0  0  0  0  0  0
    1.1749   -1.3061   -3.3760 H   0  0  0  0  0  0  0  0  0  0  0  0
    0.9550   -3.0647   -3.4010 H   0  0  0  0  0  0  0  0  0  0  0  0
   -0.4564   -1.9989   -3.2349 H   0  0  0  0  0  0  0  0  0  0  0  0
   -0.5398    0.9200    0.6942 C   0  0  0  0  0  0  0  0  0  0  0  0
   -1.3863    1.5532    0.0715 O   0  0  0  0  0  0  0  0  0  0  0  0
    0.2839    1.5819    1.5862 N   0  0  0  0  0  0  0  0  0  0  0  0
    0.9225    1.0194    2.1415 H   0  0  0  0  0  0  0  0  0  0  0  0
    0.1828    3.0101    1.8591 C   0  0  0  0  0  0  0  0  0  0  0  0
   -0.7973    3.2499    2.2842 H   0  0  0  0  0  0  0  0  0  0  0  0
    0.9544    3.3142    2.5728 H   0  0  0  0  0  0  0  0  0  0  0  0
    0.3189    3.5865    0.9380 H   0  0  0  0  0  0  0  0  0  0  0  0
  1  2  1  0  0  0  0
  2  3  1  0  0  0  0
  2  4  1  0  0  0  0
  2  5  1  0  0  0  0
  5  6  2  0  0  0  0
  5  7  1  0  0  0  0
  7  8  1  0  0  0  0
  7  9  1  0  0  0  0
  9 10  1  0  0  0  0
  9 11  1  0  0  0  0
  9 24  1  0  0  0  0
 11 12  1  0  0  0  0
 11 13  1  0  0  0  0
 11 14  1  0  0  0  0
 14 15  1  0  0  0  0
 14 16  1  0  0  0  0
 14 20  1  0  0  0  0
 16 17  1  0  0  0  0
 16 18  1  0  0  0  0
 16 19  1  0  0  0  0
 20 21  1  0  0  0  0
 20 22  1  0  0  0  0
 20 23  1  0  0  0  0
 24 25  2  0  0  0  0
 24 26  1  0  0  0  0
 26 27  1  0  0  0  0
 26 28  1  0  0  0  0
 28 29  1  0  0  0  0
 28 30  1  0  0  0  0
 28 31  1  0  0  0  0
M  END
$$$$

  -OEChem-03222214063D

 31 30  0     1  0  0  0  0  0999 V2000
   -3.6850   -3.8382    1.4696 H   0  0  0  0  0  0  0  0  0  0  0  0
   -3.5598   -2.8991    0.9234 C   0  0  0  0  0  0  0  0  0  0  0  0
   -4.2934   -2.1770    1.2896 H   0  0  0  0  0  0  0  0  0  0  0  0
   -3.7390   -3.0836   -0.1385 H   0  0  0  0  0  0  0  0  0  0  0  0
   -2.1566   -2.3591    1.1261 C   0  0  0  0  0  0  0  0  0  0  0  0
   -1.4031   -2.9048    1.9172 O   0  0  0  0  0  0  0  0  0  0  0  0
   -1.7648   -1.2114    0.4678 N   0  0  0  0  0  0  0  0  0  0  0  0
   -2.4693   -0.7308   -0.0886 H   0  0  0  0  0  0  0  0  0  0  0  0
   -0.4175   -0.6178    0.4845 C   0  0  1  0  0  0  0  0  0  0  0  0
    0.1678   -1.0457    1.3048 H   0  0  0  0  0  0  0  0  0  0  0  0
    0.3884   -0.7671   -0.8391 C   0  0  0  0  0  0  0  0  0  0  0  0
   -0.1953   -0.2353   -1.5993 H   0  0  0  0  0  0  0  0  0  0  0  0
    1.3279   -0.2161   -0.7216 H   0  0  0  0  0  0  0  0  0  0  0  0
    0.7524   -2.1511   -1.4480 C   0  0  0  0  0  0  0  0  0  0  0  0
    1.7110   -2.4456   -1.0073 H   0  0  0  0  0  0  0  0  0  0  0  0
   -0.2006   -3.3199   -1.1973 C   0  0  0  0  0  0  0  0  0  0  0  0
   -1.2269   -3.0517   -1.4636 H   0  0  0  0  0  0  0  0  0  0  0  0
   -0.1534   -3.6277   -0.1519 H   0  0  0  0  0  0  0  0  0  0  0  0
    0.0917   -4.1851   -1.8004 H   0  0  0  0  0  0  0  0  0  0  0  0
    0.9637   -1.9924   -2.9600 C   0  0  0  0  0  0  0  0  0  0  0  0
    1.6829   -1.1927   -3.1636 H   0  0  0  0  0  0  0  0  0  0  0  0
    1.3538   -2.9192   -3.3923 H   0  0  0  0  0  0  0  0  0  0  0  0
    0.0196   -1.7479   -3.4575 H   0  0  0  0  0  0  0  0  0  0  0  0
   -0.5533    0.9042    0.7075 C   0  0  0  0  0  0  0  0  0  0  0  0
   -1.4017    1.5457    0.0963 O   0  0  0  0  0  0  0  0  0  0  0  0
    0.2677    1.5529    1.6116 N   0  0  0  0  0  0  0  0  0  0  0  0
    0.9097    0.9829    2.1550 H   0  0  0  0  0  0  0  0  0  0  0  0
    0.1637    2.9761    1.9094 C   0  0  0  0  0  0  0  0  0  0  0  0
   -0.8202    3.2090    2.3298 H   0  0  0  0  0  0  0  0  0  0  0  0
    0.9284    3.2672    2.6361 H   0  0  0  0  0  0  0  0  0  0  0  0
    0.3084    3.5693    1.0004 H   0  0  0  0  0  0  0  0  0  0  0  0
  1  2  1  0  0  0  0
  2  3  1  0  0  0  0
  2  4  1  0  0  0  0
  2  5  1  0  0  0  0
  5  6  2  0  0  0  0
  5  7  1  0  0  0  0
  7  8  1  0  0  0  0
  7  9  1  0  0  0  0
  9 10  1  0  0  0  0
  9 11  1  0  0  0  0
  9 24  1  0  0  0  0
 11 12  1  0  0  0  0
 11 13  1  0  0  0  0
 11 14  1  0  0  0  0
 14 15  1  0  0  0  0
 14 16  1  0  0  0  0
 14 20  1  0  0  0  0
 16 17  1  0  0  0  0
 16 18  1  0  0  0  0
 16 19  1  0  0  0  0
 20 21  1  0  0  0  0
 20 22  1  0  0  0  0
 20 23  1  0  0  0  0
 24 25  2  0  0  0  0
 24 26  1  0  0  0  0
 26 27  1  0  0  0  0
 26 28  1  0  0  0  0
 28 29  1  0  0  0  0
 28 30  1  0  0  0  0
 28 31  1  0  0  0  0
M  END
$$$$

  -OEChem-03222214063D

 31 30  0     1  0  0  0  0  0999 V2000
   -3.6870   -3.7901    1.5134 H   0  0  0  0  0  0  0  0  0  0  0  0
   -3.5615   -2.8592    0.9535 C   0  0  0  0  0  0  0  0  0  0  0  0
   -4.2654   -2.1176    1.3388 H   0  0  0  0  0  0  0  0  0  0  0  0
   -3.7825   -3.0493   -0.0996 H   0  0  0  0  0  0  0  0  0  0  0  0
   -2.1404   -2.3490    1.0995 C   0  0  0  0  0  0  0  0  0  0  0  0
   -1.3568   -2.9296    1.8348 O   0  0  0  0  0  0  0  0  0  0  0  0
   -1.7556   -1.2012    0.4376 N   0  0  0  0  0  0  0  0  0  0  0  0
   -2.4752   -0.6914   -0.0719 H   0  0  0  0  0  0  0  0  0  0  0  0
   -0.4062   -0.6143    0.4453 C   0  0  1  0  0  0  0  0  0  0  0  0
    0.1790   -1.0427    1.2650 H   0  0  0  0  0  0  0  0  0  0  0  0
    0.3983   -0.7772   -0.8749 C   0  0  0  0  0  0  0  0  0  0  0  0
   -0.1715   -0.2510   -1.6493 H   0  0  0  0  0  0  0  0  0  0  0  0
    1.3450   -0.2393   -0.7545 H   0  0  0  0  0  0  0  0  0  0  0  0
    0.7408   -2.1783   -1.4478 C   0  0  0  0  0  0  0  0  0  0  0  0
    1.5425   -2.5969   -0.8298 H   0  0  0  0  0  0  0  0  0  0  0  0
   -0.3854   -3.2164   -1.4695 C   0  0  0  0  0  0  0  0  0  0  0  0
   -1.3251   -2.7654   -1.8017 H   0  0  0  0  0  0  0  0  0  0  0  0
   -0.1395   -4.0355   -2.1523 H   0  0  0  0  0  0  0  0  0  0  0  0
   -0.5158   -3.6573   -0.4810 H   0  0  0  0  0  0  0  0  0  0  0  0
    1.2881   -2.0005   -2.8708 C   0  0  0  0  0  0  0  0  0  0  0  0
    2.1190   -1.2880   -2.8752 H   0  0  0  0  0  0  0  0  0  0  0  0
    1.6568   -2.9541   -3.2619 H   0  0  0  0  0  0  0  0  0  0  0  0
    0.5066   -1.6288   -3.5414 H   0  0  0  0  0  0  0  0  0  0  0  0
   -0.5327    0.9071    0.6708 C   0  0  0  0  0  0  0  0  0  0  0  0
   -1.3893    1.5505    0.0733 O   0  0  0  0  0  0  0  0  0  0  0  0
    0.2979    1.5509    1.5694 N   0  0  0  0  0  0  0  0  0  0  0  0
    0.9461    0.9783    2.1029 H   0  0  0  0  0  0  0  0  0  0  0  0
    0.1962    2.9725    1.8749 C   0  0  0  0  0  0  0  0  0  0  0  0
   -0.7842    3.2026    2.3051 H   0  0  0  0  0  0  0  0  0  0  0  0
    0.9673    3.2605    2.5959 H   0  0  0  0  0  0  0  0  0  0  0  0
    0.3322    3.5702    0.9673 H   0  0  0  0  0  0  0  0  0  0  0  0
  1  2  1  0  0  0  0
  2  3  1  0  0  0  0
  2  4  1  0  0  0  0
  2  5  1  0  0  0  0
  5  6  2  0  0  0  0
  5  7  1  0  0  0  0
  7  8  1  0  0  0  0
  7  9  1  0  0  0  0
  9 10  1  0  0  0  0
  9 11  1  0  0  0  0
  9 24  1  0  0  0  0
 11 12  1  0  0  0  0
 11 13  1  0  0  0  0
 11 14  1  0  0  0  0
 14 15  1  0  0  0  0
 14 16  1  0  0  0  0
 14 20  1  0  0  0  0
 16 17  1  0  0  0  0
 16 18  1  0  0  0  0
 16 19  1  0  0  0  0
 20 21  1  0  0  0  0
 20 22  1  0  0  0  0
 20 23  1  0  0  0  0
 24 25  2  0  0  0  0
 24 26  1  0  0  0  0
 26 27  1  0  0  0  0
 26 28  1  0  0  0  0
 28 29  1  0  0  0  0
 28 30  1  0  0  0  0
 28 31  1  0  0  0  0
M  END
$$$$

  -OEChem-03222214063D

 31 30  0     1  0  0  0  0  0999 V2000
   -3.6470   -3.8091    1.4573 H   0  0  0  0  0  0  0  0  0  0  0  0
   -3.5328   -2.8680    0.9120 C   0  0  0  0  0  0  0  0  0  0  0  0
   -4.2229   -2.1316    1.3304 H   0  0  0  0  0  0  0  0  0  0  0  0
   -3.7833   -3.0371   -0.1380 H   0  0  0  0  0  0  0  0  0  0  0  0
   -2.1062   -2.3658    1.0292 C   0  0  0  0  0  0  0  0  0  0  0  0
   -1.2962   -2.9825    1.7039 O   0  0  0  0  0  0  0  0  0  0  0  0
   -1.7371   -1.2018    0.3871 N   0  0  0  0  0  0  0  0  0  0  0  0
   -2.4687   -0.6728   -0.0843 H   0  0  0  0  0  0  0  0  0  0  0  0
   -0.3942   -0.6033    0.4115 C   0  0  1  0  0  0  0  0  0  0  0  0
    0.1883   -1.0376    1.2304 H   0  0  0  0  0  0  0  0  0  0  0  0
    0.4141   -0.7589   -0.9032 C   0  0  0  0  0  0  0  0  0  0  0  0
   -0.1339   -0.2301   -1.6913 H   0  0  0  0  0  0  0  0  0  0  0  0
    1.3640   -0.2316   -0.7646 H   0  0  0  0  0  0  0  0  0  0  0  0
    0.7416   -2.1759   -1.4374 C   0  0  0  0  0  0  0  0  0  0  0  0
    1.3417   -2.6970   -0.6837 H   0  0  0  0  0  0  0  0  0  0  0  0
   -0.4743   -3.0569   -1.7579 C   0  0  0  0  0  0  0  0  0  0  0  0
   -1.2874   -2.4588   -2.1805 H   0  0  0  0  0  0  0  0  0  0  0  0
   -0.2088   -3.8341   -2.4811 H   0  0  0  0  0  0  0  0  0  0  0  0
   -0.8274   -3.5682   -0.8626 H   0  0  0  0  0  0  0  0  0  0  0  0
    1.5955   -2.0280   -2.7046 C   0  0  0  0  0  0  0  0  0  0  0  0
    2.4901   -1.4323   -2.4980 H   0  0  0  0  0  0  0  0  0  0  0  0
    1.9191   -3.0095   -3.0654 H   0  0  0  0  0  0  0  0  0  0  0  0
    1.0253   -1.5360   -3.4992 H   0  0  0  0  0  0  0  0  0  0  0  0
   -0.5279    0.9132    0.6623 C   0  0  0  0  0  0  0  0  0  0  0  0
   -1.3902    1.5608    0.0780 O   0  0  0  0  0  0  0  0  0  0  0  0
    0.2963    1.5455    1.5750 N   0  0  0  0  0  0  0  0  0  0  0  0
    0.9540    0.9690    2.0922 H   0  0  0  0  0  0  0  0  0  0  0  0
    0.1880    2.9612    1.9050 C   0  0  0  0  0  0  0  0  0  0  0  0
   -0.7952    3.1807    2.3341 H   0  0  0  0  0  0  0  0  0  0  0  0
    0.9542    3.2388    2.6352 H   0  0  0  0  0  0  0  0  0  0  0  0
    0.3269    3.5755    1.0091 H   0  0  0  0  0  0  0  0  0  0  0  0
  1  2  1  0  0  0  0
  2  3  1  0  0  0  0
  2  4  1  0  0  0  0
  2  5  1  0  0  0  0
  5  6  2  0  0  0  0
  5  7  1  0  0  0  0
  7  8  1  0  0  0  0
  7  9  1  0  0  0  0
  9 10  1  0  0  0  0
  9 11  1  0  0  0  0
  9 24  1  0  0  0  0
 11 12  1  0  0  0  0
 11 13  1  0  0  0  0
 11 14  1  0  0  0  0
 14 15  1  0  0  0  0
 14 16  1  0  0  0  0
 14 20  1  0  0  0  0
 16 17  1  0  0  0  0
 16 18  1  0  0  0  0
 16 19  1  0  0  0  0
 20 21  1  0  0  0  0
 20 22  1  0  0  0  0
 20 23  1  0  0  0  0
 24 25  2  0  0  0  0
 24 26  1  0  0  0  0
 26 27  1  0  0  0  0
 26 28  1  0  0  0  0
 28 29  1  0  0  0  0
 28 30  1  0  0  0  0
 28 31  1  0  0  0  0
M  END
$$$$

  -OEChem-03222214063D

 31 30  0     1  0  0  0  0  0999 V2000
   -3.5893   -3.8371    1.4143 H   0  0  0  0  0  0  0  0  0  0  0  0
   -3.4938   -2.8830    0.8885 C   0  0  0  0  0  0  0  0  0  0  0  0
   -4.1642   -2.1557    1.3526 H   0  0  0  0  0  0  0  0  0  0  0  0
   -3.7872   -3.0252   -0.1543 H   0  0  0  0  0  0  0  0  0  0  0  0
   -2.0619   -2.3872    0.9595 C   0  0  0  0  0  0  0  0  0  0  0  0
   -1.2218   -3.0347    1.5648 O   0  0  0  0  0  0  0  0  0  0  0  0
   -1.7184   -1.2028    0.3399 N   0  0  0  0  0  0  0  0  0  0  0  0
   -2.4682   -0.6549   -0.0791 H   0  0  0  0  0  0  0  0  0  0  0  0
   -0.3844   -0.5876    0.3784 C   0  0  1  0  0  0  0  0  0  0  0  0
    0.1997   -1.0285    1.1926 H   0  0  0  0  0  0  0  0  0  0  0  0
    0.4246   -0.7314   -0.9339 C   0  0  0  0  0  0  0  0  0  0  0  0
   -0.1078   -0.2017   -1.7317 H   0  0  0  0  0  0  0  0  0  0  0  0
    1.3751   -0.2085   -0.7822 H   0  0  0  0  0  0  0  0  0  0  0  0
    0.7397   -2.1635   -1.4304 C   0  0  0  0  0  0  0  0  0  0  0  0
    1.0998   -2.7592   -0.5843 H   0  0  0  0  0  0  0  0  0  0  0  0
   -0.4625   -2.8870   -2.0596 C   0  0  0  0  0  0  0  0  0  0  0  0
   -0.9854   -2.2277   -2.7592 H   0  0  0  0  0  0  0  0  0  0  0  0
   -0.1287   -3.7742   -2.6066 H   0  0  0  0  0  0  0  0  0  0  0  0
   -1.1678   -3.2265   -1.3032 H   0  0  0  0  0  0  0  0  0  0  0  0
    1.8603   -2.0871   -2.4766 C   0  0  0  0  0  0  0  0  0  0  0  0
    2.7544   -1.6227   -2.0494 H   0  0  0  0  0  0  0  0  0  0  0  0
    2.1329   -3.0897   -2.8211 H   0  0  0  0  0  0  0  0  0  0  0  0
    1.5399   -1.4972   -3.3413 H   0  0  0  0  0  0  0  0  0  0  0  0
   -0.5303    0.9214    0.6614 C   0  0  0  0  0  0  0  0  0  0  0  0
   -1.4037    1.5716    0.0970 O   0  0  0  0  0  0  0  0  0  0  0  0
    0.2885    1.5418    1.5870 N   0  0  0  0  0  0  0  0  0  0  0  0
    0.9601    0.9631    2.0837 H   0  0  0  0  0  0  0  0  0  0  0  0
    0.1701    2.9502    1.9435 C   0  0  0  0  0  0  0  0  0  0  0  0
   -0.8172    3.1566    2.3699 H   0  0  0  0  0  0  0  0  0  0  0  0
    0.9294    3.2178    2.6845 H   0  0  0  0  0  0  0  0  0  0  0  0
    0.3121    3.5817    1.0602 H   0  0  0  0  0  0  0  0  0  0  0  0
  1  2  1  0  0  0  0
  2  3  1  0  0  0  0
  2  4  1  0  0  0  0
  2  5  1  0  0  0  0
  5  6  2  0  0  0  0
  5  7  1  0  0  0  0
  7  8  1  0  0  0  0
  7  9  1  0  0  0  0
  9 10  1  0  0  0  0
  9 11  1  0  0  0  0
  9 24  1  0  0  0  0
 11 12  1  0  0  0  0
 11 13  1  0  0  0  0
 11 14  1  0  0  0  0
 14 15  1  0  0  0  0
 14 16  1  0  0  0  0
 14 20  1  0  0  0  0
 16 17  1  0  0  0  0
 16 18  1  0  0  0  0
 16 19  1  0  0  0  0
 20 21  1  0  0  0  0
 20 22  1  0  0  0  0
 20 23  1  0  0  0  0
 24 25  2  0  0  0  0
 24 26  1  0  0  0  0
 26 27  1  0  0  0  0
 26 28  1  0  0  0  0
 28 29  1  0  0  0  0
 28 30  1  0  0  0  0
 28 31  1  0  0  0  0
M  END
$$$$

  -OEChem-03222214063D

 31 30  0     1  0  0  0  0  0999 V2000
   -3.4899   -3.8908    1.3211 H   0  0  0  0  0  0  0  0  0  0  0  0
   -3.4114   -2.9329    0.7991 C   0  0  0  0  0  0  0  0  0  0  0  0
   -4.1005   -2.2219    1.2611 H   0  0  0  0  0  0  0  0  0  0  0  0
   -3.6938   -3.0769   -0.2465 H   0  0  0  0  0  0  0  0  0  0  0  0
   -1.9914   -2.4064    0.8831 C   0  0  0  0  0  0  0  0  0  0  0  0
   -1.1366   -3.0500    1.4714 O   0  0  0  0  0  0  0  0  0  0  0  0
   -1.6775   -1.1975    0.2967 N   0  0  0  0  0  0  0  0  0  0  0  0
   -2.4412   -0.6572   -0.1063 H   0  0  0  0  0  0  0  0  0  0  0  0
   -0.3603   -0.5488    0.3533 C   0  0  1  0  0  0  0  0  0  0  0  0
    0.2344   -0.9945    1.1575 H   0  0  0  0  0  0  0  0  0  0  0  0
    0.4257   -0.6865   -0.9692 C   0  0  0  0  0  0  0  0  0  0  0  0
   -0.1179   -0.1726   -1.7695 H   0  0  0  0  0  0  0  0  0  0  0  0
    1.3760   -0.1578   -0.8390 H   0  0  0  0  0  0  0  0  0  0  0  0
    0.7187   -2.1419   -1.4050 C   0  0  0  0  0  0  0  0  0  0  0  0
    0.8263   -2.7703   -0.5141 H   0  0  0  0  0  0  0  0  0  0  0  0
   -0.3933   -2.7205   -2.2948 C   0  0  0  0  0  0  0  0  0  0  0  0
   -0.5055   -2.1239   -3.2055 H   0  0  0  0  0  0  0  0  0  0  0  0
   -0.1492   -3.7481   -2.5818 H   0  0  0  0  0  0  0  0  0  0  0  0
   -1.3534   -2.7387   -1.7777 H   0  0  0  0  0  0  0  0  0  0  0  0
    2.0374   -2.1925   -2.1875 C   0  0  0  0  0  0  0  0  0  0  0  0
    2.8678   -1.8526   -1.5609 H   0  0  0  0  0  0  0  0  0  0  0  0
    2.2520   -3.2166   -2.5089 H   0  0  0  0  0  0  0  0  0  0  0  0
    1.9851   -1.5531   -3.0747 H   0  0  0  0  0  0  0  0  0  0  0  0
   -0.5257    0.9496    0.6734 C   0  0  0  0  0  0  0  0  0  0  0  0
   -1.4063    1.6003    0.1215 O   0  0  0  0  0  0  0  0  0  0  0  0
    0.2849    1.5592    1.6129 N   0  0  0  0  0  0  0  0  0  0  0  0
    0.9645    0.9783    2.0959 H   0  0  0  0  0  0  0  0  0  0  0  0
    0.1531    2.9594    1.9958 C   0  0  0  0  0  0  0  0  0  0  0  0
   -0.8391    3.1496    2.4184 H   0  0  0  0  0  0  0  0  0  0  0  0
    0.9045    3.2179    2.7479 H   0  0  0  0  0  0  0  0  0  0  0  0
    0.2974    3.6094    1.1263 H   0  0  0  0  0  0  0  0  0  0  0  0
  1  2  1  0  0  0  0
  2  3  1  0  0  0  0
  2  4  1  0  0  0  0
  2  5  1  0  0  0  0
  5  6  2  0  0  0  0
  5  7  1  0  0  0  0
  7  8  1  0  0  0  0
  7  9  1  0  0  0  0
  9 10  1  0  0  0  0
  9 11  1  0  0  0  0
  9 24  1  0  0  0  0
 11 12  1  0  0  0  0
 11 13  1  0  0  0  0
 11 14  1  0  0  0  0
 14 15  1  0  0  0  0
 14 16  1  0  0  0  0
 14 20  1  0  0  0  0
 16 17  1  0  0  0  0
 16 18  1  0  0  0  0
 16 19  1  0  0  0  0
 20 21  1  0  0  0  0
 20 22  1  0  0  0  0
 20 23  1  0  0  0  0
 24 25  2  0  0  0  0
 24 26  1  0  0  0  0
 26 27  1  0  0  0  0
 26 28  1  0  0  0  0
 28 29  1  0  0  0  0
 28 30  1  0  0  0  0
 28 31  1  0  0  0  0
M  END
$$$$

  -OEChem-03222214063D

 31 30  0     1  0  0  0  0  0999 V2000
   -3.4265   -3.9376    1.2177 H   0  0  0  0  0  0  0  0  0  0  0  0
   -3.3513   -2.9721    0.7097 C   0  0  0  0  0  0  0  0  0  0  0  0
   -4.0827   -2.2867    1.1443 H   0  0  0  0  0  0  0  0  0  0  0  0
   -3.5784   -3.1130   -0.3497 H   0  0  0  0  0  0  0  0  0  0  0  0
   -1.9529   -2.4064    0.8674 C   0  0  0  0  0  0  0  0  0  0  0  0
   -1.1181   -3.0194    1.5140 O   0  0  0  0  0  0  0  0  0  0  0  0
   -1.6387   -1.1939    0.2891 N   0  0  0  0  0  0  0  0  0  0  0  0
   -2.3924   -0.6806   -0.1643 H   0  0  0  0  0  0  0  0  0  0  0  0
   -0.3293   -0.5275    0.3614 C   0  0  1  0  0  0  0  0  0  0  0  0
    0.2742   -0.9717    1.1597 H   0  0  0  0  0  0  0  0  0  0  0  0
    0.4285   -0.6694   -0.9745 C   0  0  0  0  0  0  0  0  0  0  0  0
   -0.1342   -0.1631   -1.7668 H   0  0  0  0  0  0  0  0  0  0  0  0
    1.3806   -0.1372   -0.8755 H   0  0  0  0  0  0  0  0  0  0  0  0
    0.7000   -2.1387   -1.3784 C   0  0  0  0  0  0  0  0  0  0  0  0
    0.5592   -2.7970   -0.5161 H   0  0  0  0  0  0  0  0  0  0  0  0
   -0.2415   -2.5774   -2.5080 C   0  0  0  0  0  0  0  0  0  0  0  0
   -0.0850   -1.9670   -3.4031 H   0  0  0  0  0  0  0  0  0  0  0  0
   -0.0621   -3.6256   -2.7664 H   0  0  0  0  0  0  0  0  0  0  0  0
   -1.2856   -2.4767   -2.1975 H   0  0  0  0  0  0  0  0  0  0  0  0
    2.1487   -2.2994   -1.8547 C   0  0  0  0  0  0  0  0  0  0  0  0
    2.8449   -2.0364   -1.0522 H   0  0  0  0  0  0  0  0  0  0  0  0
    2.3410   -3.3368   -2.1456 H   0  0  0  0  0  0  0  0  0  0  0  0
    2.3473   -1.6534   -2.7159 H   0  0  0  0  0  0  0  0  0  0  0  0
   -0.5062    0.9700    0.6803 C   0  0  0  0  0  0  0  0  0  0  0  0
   -1.3794    1.6178    0.1135 O   0  0  0  0  0  0  0  0  0  0  0  0
    0.2914    1.5840    1.6283 N   0  0  0  0  0  0  0  0  0  0  0  0
    0.9653    1.0054    2.1219 H   0  0  0  0  0  0  0  0  0  0  0  0
    0.1454    2.9823    2.0135 C   0  0  0  0  0  0  0  0  0  0  0  0
   -0.8562    3.1673    2.4156 H   0  0  0  0  0  0  0  0  0  0  0  0
    0.8796    3.2408    2.7825 H   0  0  0  0  0  0  0  0  0  0  0  0
    0.3053    3.6358    1.1495 H   0  0  0  0  0  0  0  0  0  0  0  0
  1  2  1  0  0  0  0
  2  3  1  0  0  0  0
  2  4  1  0  0  0  0
  2  5  1  0  0  0  0
  5  6  2  0  0  0  0
  5  7  1  0  0  0  0
  7  8  1  0  0  0  0
  7  9  1  0  0  0  0
  9 10  1  0  0  0  0
  9 11  1  0  0  0  0
  9 24  1  0  0  0  0
 11 12  1  0  0  0  0
 11 13  1  0  0  0  0
 11 14  1  0  0  0  0
 14 15  1  0  0  0  0
 14 16  1  0  0  0  0
 14 20  1  0  0  0  0
 16 17  1  0  0  0  0
 16 18  1  0  0  0  0
 16 19  1  0  0  0  0
 20 21  1  0  0  0  0
 20 22  1  0  0  0  0
 20 23  1  0  0  0  0
 24 25  2  0  0  0  0
 24 26  1  0  0  0  0
 26 27  1  0  0  0  0
 26 28  1  0  0  0  0
 28 29  1  0  0  0  0
 28 30  1  0  0  0  0
 28 31  1  0  0  0  0
M  END
$$$$

  -OEChem-03222214063D

 31 30  0     1  0  0  0  0  0999 V2000
   -3.4400   -3.9309    1.2291 H   0  0  0  0  0  0  0  0  0  0  0  0
   -3.3589   -2.9676    0.7179 C   0  0  0  0  0  0  0  0  0  0  0  0
   -4.0898   -2.2781    1.1471 H   0  0  0  0  0  0  0  0  0  0  0  0
   -3.5819   -3.1118   -0.3420 H   0  0  0  0  0  0  0  0  0  0  0  0
   -1.9593   -2.4058    0.8793 C   0  0  0  0  0  0  0  0  0  0  0  0
   -1.1312   -3.0148    1.5384 O   0  0  0  0  0  0  0  0  0  0  0  0
   -1.6385   -1.1973    0.2961 N   0  0  0  0  0  0  0  0  0  0  0  0
   -2.3894   -0.6853   -0.1634 H   0  0  0  0  0  0  0  0  0  0  0  0
   -0.3268   -0.5333    0.3669 C   0  0  1  0  0  0  0  0  0  0  0  0
    0.2765   -0.9774    1.1652 H   0  0  0  0  0  0  0  0  0  0  0  0
    0.4307   -0.6733   -0.9698 C   0  0  0  0  0  0  0  0  0  0  0  0
   -0.1504   -0.1711   -1.7513 H   0  0  0  0  0  0  0  0  0  0  0  0
    1.3778   -0.1294   -0.8884 H   0  0  0  0  0  0  0  0  0  0  0  0
    0.7070   -2.1395   -1.3881 C   0  0  0  0  0  0  0  0  0  0  0  0
    0.3068   -2.8305   -0.6421 H   0  0  0  0  0  0  0  0  0  0  0  0
    0.0492   -2.4499   -2.7376 C   0  0  0  0  0  0  0  0  0  0  0  0
    0.4487   -1.8004   -3.5230 H   0  0  0  0  0  0  0  0  0  0  0  0
    0.2327   -3.4910   -3.0207 H   0  0  0  0  0  0  0  0  0  0  0  0
   -1.0327   -2.2974   -2.6747 H   0  0  0  0  0  0  0  0  0  0  0  0
    2.2157   -2.3931   -1.4890 C   0  0  0  0  0  0  0  0  0  0  0  0
    2.6973   -2.2060   -0.5241 H   0  0  0  0  0  0  0  0  0  0  0  0
    2.4088   -3.4328   -1.7716 H   0  0  0  0  0  0  0  0  0  0  0  0
    2.6700   -1.7388   -2.2400 H   0  0  0  0  0  0  0  0  0  0  0  0
   -0.5029    0.9658    0.6785 C   0  0  0  0  0  0  0  0  0  0  0  0
   -1.3758    1.6111    0.1084 O   0  0  0  0  0  0  0  0  0  0  0  0
    0.2935    1.5845    1.6246 N   0  0  0  0  0  0  0  0  0  0  0  0
    0.9605    1.0069    2.1285 H   0  0  0  0  0  0  0  0  0  0  0  0
    0.1440    2.9843    2.0033 C   0  0  0  0  0  0  0  0  0  0  0  0
   -0.8562    3.1664    2.4102 H   0  0  0  0  0  0  0  0  0  0  0  0
    0.8821    3.2510    2.7660 H   0  0  0  0  0  0  0  0  0  0  0  0
    0.2947    3.6339    1.1346 H   0  0  0  0  0  0  0  0  0  0  0  0
  1  2  1  0  0  0  0
  2  3  1  0  0  0  0
  2  4  1  0  0  0  0
  2  5  1  0  0  0  0
  5  6  2  0  0  0  0
  5  7  1  0  0  0  0
  7  8  1  0  0  0  0
  7  9  1  0  0  0  0
  9 10  1  0  0  0  0
  9 11  1  0  0  0  0
  9 24  1  0  0  0  0
 11 12  1  0  0  0  0
 11 13  1  0  0  0  0
 11 14  1  0  0  0  0
 14 15  1  0  0  0  0
 14 16  1  0  0  0  0
 14 20  1  0  0  0  0
 16 17  1  0  0  0  0
 16 18  1  0  0  0  0
 16 19  1  0  0  0  0
 20 21  1  0  0  0  0
 20 22  1  0  0  0  0
 20 23  1  0  0  0  0
 24 25  2  0  0  0  0
 24 26  1  0  0  0  0
 26 27  1  0  0  0  0
 26 28  1  0  0  0  0
 28 29  1  0  0  0  0
 28 30  1  0  0  0  0
 28 31  1  0  0  0  0
M  END
$$$$

  -OEChem-03222214063D

 31 30  0     1  0  0  0  0  0999 V2000
   -3.4544   -3.9172    1.2654 H   0  0  0  0  0  0  0  0  0  0  0  0
   -3.3737   -2.9578    0.7468 C   0  0  0  0  0  0  0  0  0  0  0  0
   -4.0906   -2.2589    1.1845 H   0  0  0  0  0  0  0  0  0  0  0  0
   -3.6168   -3.1063   -0.3081 H   0  0  0  0  0  0  0  0  0  0  0  0
   -1.9662   -2.4081    0.8805 C   0  0  0  0  0  0  0  0  0  0  0  0
   -1.1281   -3.0269    1.5175 O   0  0  0  0  0  0  0  0  0  0  0  0
   -1.6468   -1.2004    0.2947 N   0  0  0  0  0  0  0  0  0  0  0  0
   -2.4031   -0.6785   -0.1445 H   0  0  0  0  0  0  0  0  0  0  0  0
   -0.3332   -0.5392    0.3601 C   0  0  1  0  0  0  0  0  0  0  0  0
    0.2694   -0.9822    1.1597 H   0  0  0  0  0  0  0  0  0  0  0  0
    0.4335   -0.6758   -0.9726 C   0  0  0  0  0  0  0  0  0  0  0  0
   -0.1642   -0.1842   -1.7482 H   0  0  0  0  0  0  0  0  0  0  0  0
    1.3747   -0.1201   -0.9057 H   0  0  0  0  0  0  0  0  0  0  0  0
    0.7205   -2.1354   -1.4027 C   0  0  0  0  0  0  0  0  0  0  0  0
    0.0844   -2.8280   -0.8474 H   0  0  0  0  0  0  0  0  0  0  0  0
    0.4110   -2.3300   -2.8911 C   0  0  0  0  0  0  0  0  0  0  0  0
    1.0257   -1.6622   -3.5029 H   0  0  0  0  0  0  0  0  0  0  0  0
    0.6150   -3.3628   -3.1903 H   0  0  0  0  0  0  0  0  0  0  0  0
   -0.6436   -2.1172   -3.0926 H   0  0  0  0  0  0  0  0  0  0  0  0
    2.1787   -2.5049   -1.1109 C   0  0  0  0  0  0  0  0  0  0  0  0
    2.3929   -2.3876   -0.0440 H   0  0  0  0  0  0  0  0  0  0  0  0
    2.3691   -3.5469   -1.3865 H   0  0  0  0  0  0  0  0  0  0  0  0
    2.8627   -1.8656   -1.6780 H   0  0  0  0  0  0  0  0  0  0  0  0
   -0.5086    0.9600    0.6716 C   0  0  0  0  0  0  0  0  0  0  0  0
   -1.3845    1.6053    0.1059 O   0  0  0  0  0  0  0  0  0  0  0  0
    0.2913    1.5780    1.6149 N   0  0  0  0  0  0  0  0  0  0  0  0
    0.9653    1.0014    2.1106 H   0  0  0  0  0  0  0  0  0  0  0  0
    0.1458    2.9780    1.9934 C   0  0  0  0  0  0  0  0  0  0  0  0
   -0.8507    3.1610    2.4088 H   0  0  0  0  0  0  0  0  0  0  0  0
    0.8904    3.2450    2.7495 H   0  0  0  0  0  0  0  0  0  0  0  0
    0.2900    3.6267    1.1229 H   0  0  0  0  0  0  0  0  0  0  0  0
  1  2  1  0  0  0  0
  2  3  1  0  0  0  0
  2  4  1  0  0  0  0
  2  5  1  0  0  0  0
  5  6  2  0  0  0  0
  5  7  1  0  0  0  0
  7  8  1  0  0  0  0
  7  9  1  0  0  0  0
  9 10  1  0  0  0  0
  9 11  1  0  0  0  0
  9 24  1  0  0  0  0
 11 12  1  0  0  0  0
 11 13  1  0  0  0  0
 11 14  1  0  0  0  0
 14 15  1  0  0  0  0
 14 16  1  0  0  0  0
 14 20  1  0  0  0  0
 16 17  1  0  0  0  0
 16 18  1  0  0  0  0
 16 19  1  0  0  0  0
 20 21  1  0  0  0  0
 20 22  1  0  0  0  0
 20 23  1  0  0  0  0
 24 25  2  0  0  0  0
 24 26  1  0  0  0  0
 26 27  1  0  0  0  0
 26 28  1  0  0  0  0
 28 29  1  0  0  0  0
 28 30  1  0  0  0  0
 28 31  1  0  0  0  0
M  END
$$$$

  -OEChem-03222214063D

 31 30  0     1  0  0  0  0  0999 V2000
   -3.4469   -3.9109    1.2780 H   0  0  0  0  0  0  0  0  0  0  0  0
   -3.3709   -2.9523    0.7574 C   0  0  0  0  0  0  0  0  0  0  0  0
   -4.0785   -2.2507    1.2055 H   0  0  0  0  0  0  0  0  0  0  0  0
   -3.6310   -3.1009   -0.2934 H   0  0  0  0  0  0  0  0  0  0  0  0
   -1.9597   -2.4073    0.8688 C   0  0  0  0  0  0  0  0  0  0  0  0
   -1.1097   -3.0357    1.4803 O   0  0  0  0  0  0  0  0  0  0  0  0
   -1.6472   -1.1972    0.2841 N   0  0  0  0  0  0  0  0  0  0  0  0
   -2.4093   -0.6678   -0.1360 H   0  0  0  0  0  0  0  0  0  0  0  0
   -0.3347   -0.5352    0.3509 C   0  0  1  0  0  0  0  0  0  0  0  0
    0.2640   -0.9757    1.1545 H   0  0  0  0  0  0  0  0  0  0  0  0
    0.4379   -0.6749   -0.9781 C   0  0  0  0  0  0  0  0  0  0  0  0
   -0.1637   -0.1935   -1.7570 H   0  0  0  0  0  0  0  0  0  0  0  0
    1.3798   -0.1197   -0.9159 H   0  0  0  0  0  0  0  0  0  0  0  0
    0.7270   -2.1334   -1.4015 C   0  0  0  0  0  0  0  0  0  0  0  0
   -0.0830   -2.7887   -1.0724 H   0  0  0  0  0  0  0  0  0  0  0  0
    0.7874   -2.2414   -2.9287 C   0  0  0  0  0  0  0  0  0  0  0  0
    1.5766   -1.5969   -3.3289 H   0  0  0  0  0  0  0  0  0  0  0  0
    0.9948   -3.2734   -3.2287 H   0  0  0  0  0  0  0  0  0  0  0  0
   -0.1673   -1.9417   -3.3724 H   0  0  0  0  0  0  0  0  0  0  0  0
    2.0306   -2.6334   -0.7706 C   0  0  0  0  0  0  0  0  0  0  0  0
    1.9664   -2.5888    0.3210 H   0  0  0  0  0  0  0  0  0  0  0  0
    2.2175   -3.6724   -1.0595 H   0  0  0  0  0  0  0  0  0  0  0  0
    2.8794   -2.0242   -1.0972 H   0  0  0  0  0  0  0  0  0  0  0  0
   -0.5109    0.9630    0.6660 C   0  0  0  0  0  0  0  0  0  0  0  0
   -1.3916    1.6072    0.1067 O   0  0  0  0  0  0  0  0  0  0  0  0
    0.2892    1.5789    1.6106 N   0  0  0  0  0  0  0  0  0  0  0  0
    0.9687    1.0026    2.0990 H   0  0  0  0  0  0  0  0  0  0  0  0
    0.1454    2.9783    1.9925 C   0  0  0  0  0  0  0  0  0  0  0  0
   -0.8507    3.1618    2.4086 H   0  0  0  0  0  0  0  0  0  0  0  0
    0.8905    3.2417    2.7494 H   0  0  0  0  0  0  0  0  0  0  0  0
    0.2906    3.6295    1.1241 H   0  0  0  0  0  0  0  0  0  0  0  0
  1  2  1  0  0  0  0
  2  3  1  0  0  0  0
  2  4  1  0  0  0  0
  2  5  1  0  0  0  0
  5  6  2  0  0  0  0
  5  7  1  0  0  0  0
  7  8  1  0  0  0  0
  7  9  1  0  0  0  0
  9 10  1  0  0  0  0
  9 11  1  0  0  0  0
  9 24  1  0  0  0  0
 11 12  1  0  0  0  0
 11 13  1  0  0  0  0
 11 14  1  0  0  0  0
 14 15  1  0  0  0  0
 14 16  1  0  0  0  0
 14 20  1  0  0  0  0
 16 17  1  0  0  0  0
 16 18  1  0  0  0  0
 16 19  1  0  0  0  0
 20 21  1  0  0  0  0
 20 22  1  0  0  0  0
 20 23  1  0  0  0  0
 24 25  2  0  0  0  0
 24 26  1  0  0  0  0
 26 27  1  0  0  0  0
 26 28  1  0  0  0  0
 28 29  1  0  0  0  0
 28 30  1  0  0  0  0
 28 31  1  0  0  0  0
M  END
$$$$

  -OEChem-03222214063D

 31 30  0     1  0  0  0  0  0999 V2000
   -3.4522   -3.9030    1.2662 H   0  0  0  0  0  0  0  0  0  0  0  0
   -3.3716   -2.9434    0.7481 C   0  0  0  0  0  0  0  0  0  0  0  0
   -4.0817   -2.2420    1.1925 H   0  0  0  0  0  0  0  0  0  0  0  0
   -3.6244   -3.0897   -0.3049 H   0  0  0  0  0  0  0  0  0  0  0  0
   -1.9606   -2.4003    0.8712 C   0  0  0  0  0  0  0  0  0  0  0  0
   -1.1185   -3.0277    1.4938 O   0  0  0  0  0  0  0  0  0  0  0  0
   -1.6416   -1.1930    0.2849 N   0  0  0  0  0  0  0  0  0  0  0  0
   -2.3998   -0.6643   -0.1429 H   0  0  0  0  0  0  0  0  0  0  0  0
   -0.3301   -0.5315    0.3600 C   0  0  1  0  0  0  0  0  0  0  0  0
    0.2616   -0.9656    1.1717 H   0  0  0  0  0  0  0  0  0  0  0  0
    0.4403   -0.6837   -0.9688 C   0  0  0  0  0  0  0  0  0  0  0  0
   -0.1530   -0.2044   -1.7552 H   0  0  0  0  0  0  0  0  0  0  0  0
    1.3881   -0.1391   -0.9020 H   0  0  0  0  0  0  0  0  0  0  0  0
    0.7246   -2.1433   -1.3853 C   0  0  0  0  0  0  0  0  0  0  0  0
   -0.1857   -2.7417   -1.2865 H   0  0  0  0  0  0  0  0  0  0  0  0
    1.1457   -2.1857   -2.8582 C   0  0  0  0  0  0  0  0  0  0  0  0
    2.0550   -1.5974   -3.0167 H   0  0  0  0  0  0  0  0  0  0  0  0
    1.3400   -3.2172   -3.1684 H   0  0  0  0  0  0  0  0  0  0  0  0
    0.3532   -1.7809   -3.4953 H   0  0  0  0  0  0  0  0  0  0  0  0
    1.8210   -2.7693   -0.5140 C   0  0  0  0  0  0  0  0  0  0  0  0
    1.5086   -2.8089    0.5332 H   0  0  0  0  0  0  0  0  0  0  0  0
    2.0280   -3.7925   -0.8426 H   0  0  0  0  0  0  0  0  0  0  0  0
    2.7470   -2.1896   -0.5803 H   0  0  0  0  0  0  0  0  0  0  0  0
   -0.5062    0.9684    0.6671 C   0  0  0  0  0  0  0  0  0  0  0  0
   -1.3816    1.6110    0.0978 O   0  0  0  0  0  0  0  0  0  0  0  0
    0.2866    1.5880    1.6154 N   0  0  0  0  0  0  0  0  0  0  0  0
    0.9593    1.0127    2.1144 H   0  0  0  0  0  0  0  0  0  0  0  0
    0.1397    2.9888    1.9906 C   0  0  0  0  0  0  0  0  0  0  0  0
   -0.8587    3.1724    2.4011 H   0  0  0  0  0  0  0  0  0  0  0  0
    0.8809    3.2565    2.7498 H   0  0  0  0  0  0  0  0  0  0  0  0
    0.2881    3.6366    1.1202 H   0  0  0  0  0  0  0  0  0  0  0  0
  1  2  1  0  0  0  0
  2  3  1  0  0  0  0
  2  4  1  0  0  0  0
  2  5  1  0  0  0  0
  5  6  2  0  0  0  0
  5  7  1  0  0  0  0
  7  8  1  0  0  0  0
  7  9  1  0  0  0  0
  9 10  1  0  0  0  0
  9 11  1  0  0  0  0
  9 24  1  0  0  0  0
 11 12  1  0  0  0  0
 11 13  1  0  0  0  0
 11 14  1  0  0  0  0
 14 15  1  0  0  0  0
 14 16  1  0  0  0  0
 14 20  1  0  0  0  0
 16 17  1  0  0  0  0
 16 18  1  0  0  0  0
 16 19  1  0  0  0  0
 20 21  1  0  0  0  0
 20 22  1  0  0  0  0
 20 23  1  0  0  0  0
 24 25  2  0  0  0  0
 24 26  1  0  0  0  0
 26 27  1  0  0  0  0
 26 28  1  0  0  0  0
 28 29  1  0  0  0  0
 28 30  1  0  0  0  0
 28 31  1  0  0  0  0
M  END
$$$$

  -OEChem-03222214063D

 31 30  0     1  0  0  0  0  0999 V2000
   -3.5489   -3.9032    1.2517 H   0  0  0  0  0  0  0  0  0  0  0  0
   -3.4331   -2.9492    0.7298 C   0  0  0  0  0  0  0  0  0  0  0  0
   -4.2017   -2.2580    1.0836 H   0  0  0  0  0  0  0  0  0  0  0  0
   -3.5680   -3.1165   -0.3414 H   0  0  0  0  0  0  0  0  0  0  0  0
   -2.0557   -2.3711    0.9946 C   0  0  0  0  0  0  0  0  0  0  0  0
   -1.3201   -2.9077    1.8070 O   0  0  0  0  0  0  0  0  0  0  0  0
   -1.6839   -1.1954    0.3761 N   0  0  0  0  0  0  0  0  0  0  0  0
   -2.3888   -0.7326   -0.1942 H   0  0  0  0  0  0  0  0  0  0  0  0
   -0.3569   -0.5576    0.4247 C   0  0  1  0  0  0  0  0  0  0  0  0
    0.2326   -0.9951    1.2367 H   0  0  0  0  0  0  0  0  0  0  0  0
    0.4091   -0.7309   -0.9130 C   0  0  0  0  0  0  0  0  0  0  0  0
   -0.0254   -0.0393   -1.6438 H   0  0  0  0  0  0  0  0  0  0  0  0
    1.4466   -0.4194   -0.7527 H   0  0  0  0  0  0  0  0  0  0  0  0
    0.4017   -2.1335   -1.5596 C   0  0  0  0  0  0  0  0  0  0  0  0
   -0.6261   -2.4465   -1.7700 H   0  0  0  0  0  0  0  0  0  0  0  0
    1.2045   -2.0855   -2.8671 C   0  0  0  0  0  0  0  0  0  0  0  0
    2.2410   -1.7862   -2.6807 H   0  0  0  0  0  0  0  0  0  0  0  0
    1.2083   -3.0680   -3.3495 H   0  0  0  0  0  0  0  0  0  0  0  0
    0.7566   -1.3676   -3.5613 H   0  0  0  0  0  0  0  0  0  0  0  0
    1.0922   -3.1727   -0.6630 C   0  0  0  0  0  0  0  0  0  0  0  0
    0.5980   -3.2612    0.3023 H   0  0  0  0  0  0  0  0  0  0  0  0
    1.0739   -4.1572   -1.1408 H   0  0  0  0  0  0  0  0  0  0  0  0
    2.1352   -2.8937   -0.4828 H   0  0  0  0  0  0  0  0  0  0  0  0
   -0.5011    0.9565    0.6819 C   0  0  0  0  0  0  0  0  0  0  0  0
   -1.3535    1.6037    0.0831 O   0  0  0  0  0  0  0  0  0  0  0  0
    0.3088    1.5895    1.6068 N   0  0  0  0  0  0  0  0  0  0  0  0
    0.9487    1.0108    2.1435 H   0  0  0  0  0  0  0  0  0  0  0  0
    0.1803    3.0009    1.9481 C   0  0  0  0  0  0  0  0  0  0  0  0
   -0.8092    3.2036    2.3710 H   0  0  0  0  0  0  0  0  0  0  0  0
    0.9369    3.2818    2.6870 H   0  0  0  0  0  0  0  0  0  0  0  0
    0.3186    3.6249    1.0589 H   0  0  0  0  0  0  0  0  0  0  0  0
  1  2  1  0  0  0  0
  2  3  1  0  0  0  0
  2  4  1  0  0  0  0
  2  5  1  0  0  0  0
  5  6  2  0  0  0  0
  5  7  1  0  0  0  0
  7  8  1  0  0  0  0
  7  9  1  0  0  0  0
  9 10  1  0  0  0  0
  9 11  1  0  0  0  0
  9 24  1  0  0  0  0
 11 12  1  0  0  0  0
 11 13  1  0  0  0  0
 11 14  1  0  0  0  0
 14 15  1  0  0  0  0
 14 16  1  0  0  0  0
 14 20  1  0  0  0  0
 16 17  1  0  0  0  0
 16 18  1  0  0  0  0
 16 19  1  0  0  0  0
 20 21  1  0  0  0  0
 20 22  1  0  0  0  0
 20 23  1  0  0  0  0
 24 25  2  0  0  0  0
 24 26  1  0  0  0  0
 26 27  1  0  0  0  0
 26 28  1  0  0  0  0
 28 29  1  0  0  0  0
 28 30  1  0  0  0  0
 28 31  1  0  0  0  0
M  END
$$$$

  -OEChem-03222214063D

 31 30  0     1  0  0  0  0  0999 V2000
   -3.6123   -3.8389    1.4014 H   0  0  0  0  0  0  0  0  0  0  0  0
   -3.4770   -2.9241    0.8178 C   0  0  0  0  0  0  0  0  0  0  0  0
   -4.2412   -2.2010    1.1128 H   0  0  0  0  0  0  0  0  0  0  0  0
   -3.5985   -3.1614   -0.2417 H   0  0  0  0  0  0  0  0  0  0  0  0
   -2.0962   -2.3469    1.0640 C   0  0  0  0  0  0  0  0  0  0  0  0
   -1.3613   -2.8606    1.8931 O   0  0  0  0  0  0  0  0  0  0  0  0
   -1.7148   -1.1913    0.4155 N   0  0  0  0  0  0  0  0  0  0  0  0
   -2.4137   -0.7346   -0.1670 H   0  0  0  0  0  0  0  0  0  0  0  0
   -0.3779   -0.5758    0.4484 C   0  0  1  0  0  0  0  0  0  0  0  0
    0.2093   -1.0075    1.2652 H   0  0  0  0  0  0  0  0  0  0  0  0
    0.3964   -0.7542   -0.8852 C   0  0  0  0  0  0  0  0  0  0  0  0
   -0.0108   -0.0455   -1.6152 H   0  0  0  0  0  0  0  0  0  0  0  0
    1.4305   -0.4512   -0.6891 H   0  0  0  0  0  0  0  0  0  0  0  0
    0.4165   -2.1350   -1.5854 C   0  0  0  0  0  0  0  0  0  0  0  0
   -0.5493   -2.3229   -2.0664 H   0  0  0  0  0  0  0  0  0  0  0  0
    1.5308   -2.1101   -2.6435 C   0  0  0  0  0  0  0  0  0  0  0  0
    2.5134   -1.9880   -2.1759 H   0  0  0  0  0  0  0  0  0  0  0  0
    1.5340   -3.0407   -3.2198 H   0  0  0  0  0  0  0  0  0  0  0  0
    1.3727   -1.2815   -3.3410 H   0  0  0  0  0  0  0  0  0  0  0  0
    0.7517   -3.3001   -0.6400 C   0  0  0  0  0  0  0  0  0  0  0  0
   -0.1400   -3.6545   -0.1275 H   0  0  0  0  0  0  0  0  0  0  0  0
    1.1520   -4.1527   -1.1977 H   0  0  0  0  0  0  0  0  0  0  0  0
    1.4952   -2.9969    0.1038 H   0  0  0  0  0  0  0  0  0  0  0  0
   -0.5076    0.9451    0.6746 C   0  0  0  0  0  0  0  0  0  0  0  0
   -1.3517    1.5911    0.0625 O   0  0  0  0  0  0  0  0  0  0  0  0
    0.3106    1.5859    1.5865 N   0  0  0  0  0  0  0  0  0  0  0  0
    0.9400    1.0090    2.1374 H   0  0  0  0  0  0  0  0  0  0  0  0
    0.2021    3.0056    1.8982 C   0  0  0  0  0  0  0  0  0  0  0  0
   -0.7817    3.2304    2.3231 H   0  0  0  0  0  0  0  0  0  0  0  0
    0.9676    3.2924    2.6256 H   0  0  0  0  0  0  0  0  0  0  0  0
    0.3423    3.6083    0.9947 H   0  0  0  0  0  0  0  0  0  0  0  0
  1  2  1  0  0  0  0
  2  3  1  0  0  0  0
  2  4  1  0  0  0  0
  2  5  1  0  0  0  0
  5  6  2  0  0  0  0
  5  7  1  0  0  0  0
  7  8  1  0  0  0  0
  7  9  1  0  0  0  0
  9 10  1  0  0  0  0
  9 11  1  0  0  0  0
  9 24  1  0  0  0  0
 11 12  1  0  0  0  0
 11 13  1  0  0  0  0
 11 14  1  0  0  0  0
 14 15  1  0  0  0  0
 14 16  1  0  0  0  0
 14 20  1  0  0  0  0
 16 17  1  0  0  0  0
 16 18  1  0  0  0  0
 16 19  1  0  0  0  0
 20 21  1  0  0  0  0
 20 22  1  0  0  0  0
 20 23  1  0  0  0  0
 24 25  2  0  0  0  0
 24 26  1  0  0  0  0
 26 27  1  0  0  0  0
 26 28  1  0  0  0  0
 28 29  1  0  0  0  0
 28 30  1  0  0  0  0
 28 31  1  0  0  0  0
M  END
$$$$

  -OEChem-03222214063D

 31 30  0     1  0  0  0  0  0999 V2000
   -3.6263   -3.8466    1.4730 H   0  0  0  0  0  0  0  0  0  0  0  0
   -3.5065   -2.9155    0.9122 C   0  0  0  0  0  0  0  0  0  0  0  0
   -4.2423   -2.1910    1.2696 H   0  0  0  0  0  0  0  0  0  0  0  0
   -3.6874   -3.1165   -0.1465 H   0  0  0  0  0  0  0  0  0  0  0  0
   -2.1049   -2.3674    1.1026 C   0  0  0  0  0  0  0  0  0  0  0  0
   -1.3331   -2.9234    1.8686 O   0  0  0  0  0  0  0  0  0  0  0  0
   -1.7337   -1.2066    0.4566 N   0  0  0  0  0  0  0  0  0  0  0  0
   -2.4530   -0.7227   -0.0774 H   0  0  0  0  0  0  0  0  0  0  0  0
   -0.3948   -0.5942    0.4665 C   0  0  1  0  0  0  0  0  0  0  0  0
    0.2019   -1.0304    1.2741 H   0  0  0  0  0  0  0  0  0  0  0  0
    0.3815   -0.7441   -0.8728 C   0  0  0  0  0  0  0  0  0  0  0  0
   -0.0239   -0.0163   -1.5848 H   0  0  0  0  0  0  0  0  0  0  0  0
    1.4077   -0.4294   -0.6548 H   0  0  0  0  0  0  0  0  0  0  0  0
    0.4395   -2.0953   -1.6386 C   0  0  0  0  0  0  0  0  0  0  0  0
   -0.3940   -2.1442   -2.3473 H   0  0  0  0  0  0  0  0  0  0  0  0
    1.7719   -2.1478   -2.4052 C   0  0  0  0  0  0  0  0  0  0  0  0
    2.6205   -2.1866   -1.7142 H   0  0  0  0  0  0  0  0  0  0  0  0
    1.8094   -3.0311   -3.0507 H   0  0  0  0  0  0  0  0  0  0  0  0
    1.8796   -1.2624   -3.0397 H   0  0  0  0  0  0  0  0  0  0  0  0
    0.4087   -3.3533   -0.7580 C   0  0  0  0  0  0  0  0  0  0  0  0
    0.8892   -4.1980   -1.2616 H   0  0  0  0  0  0  0  0  0  0  0  0
   -0.6201   -3.6547   -0.5611 H   0  0  0  0  0  0  0  0  0  0  0  0
    0.9282   -3.1819    0.1900 H   0  0  0  0  0  0  0  0  0  0  0  0
   -0.5291    0.9239    0.7101 C   0  0  0  0  0  0  0  0  0  0  0  0
   -1.3961    1.5688    0.1294 O   0  0  0  0  0  0  0  0  0  0  0  0
    0.3034    1.5615    1.6114 N   0  0  0  0  0  0  0  0  0  0  0  0
    0.9619    0.9869    2.1299 H   0  0  0  0  0  0  0  0  0  0  0  0
    0.1977    2.9790    1.9344 C   0  0  0  0  0  0  0  0  0  0  0  0
   -0.7820    3.2008    2.3705 H   0  0  0  0  0  0  0  0  0  0  0  0
    0.9700    3.2607    2.6565 H   0  0  0  0  0  0  0  0  0  0  0  0
    0.3292    3.5882    1.0338 H   0  0  0  0  0  0  0  0  0  0  0  0
  1  2  1  0  0  0  0
  2  3  1  0  0  0  0
  2  4  1  0  0  0  0
  2  5  1  0  0  0  0
  5  6  2  0  0  0  0
  5  7  1  0  0  0  0
  7  8  1  0  0  0  0
  7  9  1  0  0  0  0
  9 10  1  0  0  0  0
  9 11  1  0  0  0  0
  9 24  1  0  0  0  0
 11 12  1  0  0  0  0
 11 13  1  0  0  0  0
 11 14  1  0  0  0  0
 14 15  1  0  0  0  0
 14 16  1  0  0  0  0
 14 20  1  0  0  0  0
 16 17  1  0  0  0  0
 16 18  1  0  0  0  0
 16 19  1  0  0  0  0
 20 21  1  0  0  0  0
 20 22  1  0  0  0  0
 20 23  1  0  0  0  0
 24 25  2  0  0  0  0
 24 26  1  0  0  0  0
 26 27  1  0  0  0  0
 26 28  1  0  0  0  0
 28 29  1  0  0  0  0
 28 30  1  0  0  0  0
 28 31  1  0  0  0  0
M  END
$$$$

  -OEChem-03222214063D

 31 30  0     1  0  0  0  0  0999 V2000
   -3.6990   -3.7900    1.5314 H   0  0  0  0  0  0  0  0  0  0  0  0
   -3.5705   -2.8573    0.9751 C   0  0  0  0  0  0  0  0  0  0  0  0
   -4.2815   -2.1192    1.3543 H   0  0  0  0  0  0  0  0  0  0  0  0
   -3.7794   -3.0462   -0.0806 H   0  0  0  0  0  0  0  0  0  0  0  0
   -2.1528   -2.3421    1.1378 C   0  0  0  0  0  0  0  0  0  0  0  0
   -1.3831   -2.9107    1.8961 O   0  0  0  0  0  0  0  0  0  0  0  0
   -1.7641   -1.1957    0.4747 N   0  0  0  0  0  0  0  0  0  0  0  0
   -2.4800   -0.7012   -0.0544 H   0  0  0  0  0  0  0  0  0  0  0  0
   -0.4170   -0.6008    0.4759 C   0  0  1  0  0  0  0  0  0  0  0  0
    0.1665   -1.0301    1.2965 H   0  0  0  0  0  0  0  0  0  0  0  0
    0.3951   -0.7609   -0.8461 C   0  0  0  0  0  0  0  0  0  0  0  0
   -0.0044   -0.0362   -1.5647 H   0  0  0  0  0  0  0  0  0  0  0  0
    1.4095   -0.4247   -0.6062 H   0  0  0  0  0  0  0  0  0  0  0  0
    0.4974   -2.0995   -1.6402 C   0  0  0  0  0  0  0  0  0  0  0  0
   -0.1138   -2.0130   -2.5452 H   0  0  0  0  0  0  0  0  0  0  0  0
    1.9655   -2.3099   -2.0479 C   0  0  0  0  0  0  0  0  0  0  0  0
    2.5964   -2.4584   -1.1653 H   0  0  0  0  0  0  0  0  0  0  0  0
    2.0646   -3.1862   -2.6965 H   0  0  0  0  0  0  0  0  0  0  0  0
    2.3359   -1.4400   -2.5996 H   0  0  0  0  0  0  0  0  0  0  0  0
    0.0732   -3.3772   -0.9099 C   0  0  0  0  0  0  0  0  0  0  0  0
    0.4313   -4.2648   -1.4408 H   0  0  0  0  0  0  0  0  0  0  0  0
   -1.0142   -3.4513   -0.8753 H   0  0  0  0  0  0  0  0  0  0  0  0
    0.4829   -3.4003    0.1044 H   0  0  0  0  0  0  0  0  0  0  0  0
   -0.5462    0.9218    0.6979 C   0  0  0  0  0  0  0  0  0  0  0  0
   -1.4094    1.5624    0.1068 O   0  0  0  0  0  0  0  0  0  0  0  0
    0.2875    1.5684    1.5916 N   0  0  0  0  0  0  0  0  0  0  0  0
    0.9375    0.9974    2.1244 H   0  0  0  0  0  0  0  0  0  0  0  0
    0.1845    2.9900    1.8967 C   0  0  0  0  0  0  0  0  0  0  0  0
   -0.7941    3.2183    2.3318 H   0  0  0  0  0  0  0  0  0  0  0  0
    0.9587    3.2798    2.6136 H   0  0  0  0  0  0  0  0  0  0  0  0
    0.3147    3.5875    0.9883 H   0  0  0  0  0  0  0  0  0  0  0  0
  1  2  1  0  0  0  0
  2  3  1  0  0  0  0
  2  4  1  0  0  0  0
  2  5  1  0  0  0  0
  5  6  2  0  0  0  0
  5  7  1  0  0  0  0
  7  8  1  0  0  0  0
  7  9  1  0  0  0  0
  9 10  1  0  0  0  0
  9 11  1  0  0  0  0
  9 24  1  0  0  0  0
 11 12  1  0  0  0  0
 11 13  1  0  0  0  0
 11 14  1  0  0  0  0
 14 15  1  0  0  0  0
 14 16  1  0  0  0  0
 14 20  1  0  0  0  0
 16 17  1  0  0  0  0
 16 18  1  0  0  0  0
 16 19  1  0  0  0  0
 20 21  1  0  0  0  0
 20 22  1  0  0  0  0
 20 23  1  0  0  0  0
 24 25  2  0  0  0  0
 24 26  1  0  0  0  0
 26 27  1  0  0  0  0
 26 28  1  0  0  0  0
 28 29  1  0  0  0  0
 28 30  1  0  0  0  0
 28 31  1  0  0  0  0
M  END
$$$$

  -OEChem-03222214063D

 31 30  0     1  0  0  0  0  0999 V2000
   -3.7303   -3.7607    1.5225 H   0  0  0  0  0  0  0  0  0  0  0  0
   -3.6069   -2.8038    1.0076 C   0  0  0  0  0  0  0  0  0  0  0  0
   -4.3021   -2.0784    1.4371 H   0  0  0  0  0  0  0  0  0  0  0  0
   -3.8425   -2.9418   -0.0504 H   0  0  0  0  0  0  0  0  0  0  0  0
   -2.1812   -2.3078    1.1606 C   0  0  0  0  0  0  0  0  0  0  0  0
   -1.4175   -2.8801    1.9222 O   0  0  0  0  0  0  0  0  0  0  0  0
   -1.7792   -1.1710    0.4881 N   0  0  0  0  0  0  0  0  0  0  0  0
   -2.4896   -0.6670   -0.0394 H   0  0  0  0  0  0  0  0  0  0  0  0
   -0.4235   -0.5968    0.4857 C   0  0  1  0  0  0  0  0  0  0  0  0
    0.1477   -1.0246    1.3157 H   0  0  0  0  0  0  0  0  0  0  0  0
    0.4112   -0.7741   -0.8222 C   0  0  0  0  0  0  0  0  0  0  0  0
    0.0021   -0.0600   -1.5460 H   0  0  0  0  0  0  0  0  0  0  0  0
    1.4210   -0.4197   -0.5892 H   0  0  0  0  0  0  0  0  0  0  0  0
    0.5276   -2.1114   -1.6215 C   0  0  0  0  0  0  0  0  0  0  0  0
    0.2042   -1.9058   -2.6479 H   0  0  0  0  0  0  0  0  0  0  0  0
    2.0040   -2.5347   -1.6759 C   0  0  0  0  0  0  0  0  0  0  0  0
    2.3804   -2.7486   -0.6702 H   0  0  0  0  0  0  0  0  0  0  0  0
    2.1259   -3.4325   -2.2902 H   0  0  0  0  0  0  0  0  0  0  0  0
    2.6148   -1.7404   -2.1168 H   0  0  0  0  0  0  0  0  0  0  0  0
   -0.2748   -3.3205   -1.1412 C   0  0  0  0  0  0  0  0  0  0  0  0
   -1.3465   -3.1298   -1.2281 H   0  0  0  0  0  0  0  0  0  0  0  0
   -0.0521   -4.1941   -1.7616 H   0  0  0  0  0  0  0  0  0  0  0  0
   -0.0173   -3.5686   -0.1085 H   0  0  0  0  0  0  0  0  0  0  0  0
   -0.5385    0.9284    0.6975 C   0  0  0  0  0  0  0  0  0  0  0  0
   -1.3934    1.5732    0.0988 O   0  0  0  0  0  0  0  0  0  0  0  0
    0.2998    1.5741    1.5875 N   0  0  0  0  0  0  0  0  0  0  0  0
    0.9429    1.0011    2.1266 H   0  0  0  0  0  0  0  0  0  0  0  0
    0.2080    2.9988    1.8816 C   0  0  0  0  0  0  0  0  0  0  0  0
   -0.7679    3.2380    2.3169 H   0  0  0  0  0  0  0  0  0  0  0  0
    0.9862    3.2889    2.5942 H   0  0  0  0  0  0  0  0  0  0  0  0
    0.3404    3.5876    0.9677 H   0  0  0  0  0  0  0  0  0  0  0  0
  1  2  1  0  0  0  0
  2  3  1  0  0  0  0
  2  4  1  0  0  0  0
  2  5  1  0  0  0  0
  5  6  2  0  0  0  0
  5  7  1  0  0  0  0
  7  8  1  0  0  0  0
  7  9  1  0  0  0  0
  9 10  1  0  0  0  0
  9 11  1  0  0  0  0
  9 24  1  0  0  0  0
 11 12  1  0  0  0  0
 11 13  1  0  0  0  0
 11 14  1  0  0  0  0
 14 15  1  0  0  0  0
 14 16  1  0  0  0  0
 14 20  1  0  0  0  0
 16 17  1  0  0  0  0
 16 18  1  0  0  0  0
 16 19  1  0  0  0  0
 20 21  1  0  0  0  0
 20 22  1  0  0  0  0
 20 23  1  0  0  0  0
 24 25  2  0  0  0  0
 24 26  1  0  0  0  0
 26 27  1  0  0  0  0
 26 28  1  0  0  0  0
 28 29  1  0  0  0  0
 28 30  1  0  0  0  0
 28 31  1  0  0  0  0
M  END
$$$$

  -OEChem-03222214063D

 31 30  0     1  0  0  0  0  0999 V2000
   -3.7053   -3.7607    1.5778 H   0  0  0  0  0  0  0  0  0  0  0  0
   -3.5914   -2.8104    1.0487 C   0  0  0  0  0  0  0  0  0  0  0  0
   -4.2740   -2.0780    1.4864 H   0  0  0  0  0  0  0  0  0  0  0  0
   -3.8527   -2.9593   -0.0017 H   0  0  0  0  0  0  0  0  0  0  0  0
   -2.1613   -2.3176    1.1624 C   0  0  0  0  0  0  0  0  0  0  0  0
   -1.3691   -2.9089    1.8798 O   0  0  0  0  0  0  0  0  0  0  0  0
   -1.7803   -1.1719    0.4936 N   0  0  0  0  0  0  0  0  0  0  0  0
   -2.5060   -0.6558   -0.0007 H   0  0  0  0  0  0  0  0  0  0  0  0
   -0.4295   -0.5893    0.4837 C   0  0  1  0  0  0  0  0  0  0  0  0
    0.1459   -1.0158    1.3113 H   0  0  0  0  0  0  0  0  0  0  0  0
    0.4080   -0.7648   -0.8206 C   0  0  0  0  0  0  0  0  0  0  0  0
   -0.0281   -0.0675   -1.5452 H   0  0  0  0  0  0  0  0  0  0  0  0
    1.4153   -0.3908   -0.6100 H   0  0  0  0  0  0  0  0  0  0  0  0
    0.5309   -2.1058   -1.6077 C   0  0  0  0  0  0  0  0  0  0  0  0
    0.5069   -1.8350   -2.6692 H   0  0  0  0  0  0  0  0  0  0  0  0
    1.9099   -2.7274   -1.3488 C   0  0  0  0  0  0  0  0  0  0  0  0
    2.0194   -2.9846   -0.2904 H   0  0  0  0  0  0  0  0  0  0  0  0
    2.0374   -3.6381   -1.9425 H   0  0  0  0  0  0  0  0  0  0  0  0
    2.7070   -2.0298   -1.6244 H   0  0  0  0  0  0  0  0  0  0  0  0
   -0.5433   -3.1785   -1.4264 C   0  0  0  0  0  0  0  0  0  0  0  0
   -1.5409   -2.7594   -1.5808 H   0  0  0  0  0  0  0  0  0  0  0  0
   -0.4016   -3.9747   -2.1637 H   0  0  0  0  0  0  0  0  0  0  0  0
   -0.4754   -3.6310   -0.4352 H   0  0  0  0  0  0  0  0  0  0  0  0
   -0.5492    0.9334    0.7081 C   0  0  0  0  0  0  0  0  0  0  0  0
   -1.4152    1.5769    0.1245 O   0  0  0  0  0  0  0  0  0  0  0  0
    0.2939    1.5772    1.5952 N   0  0  0  0  0  0  0  0  0  0  0  0
    0.9492    1.0045    2.1198 H   0  0  0  0  0  0  0  0  0  0  0  0
    0.2017    3.0004    1.8971 C   0  0  0  0  0  0  0  0  0  0  0  0
   -0.7728    3.2363    2.3370 H   0  0  0  0  0  0  0  0  0  0  0  0
    0.9817    3.2870    2.6088 H   0  0  0  0  0  0  0  0  0  0  0  0
    0.3310    3.5945    0.9863 H   0  0  0  0  0  0  0  0  0  0  0  0
  1  2  1  0  0  0  0
  2  3  1  0  0  0  0
  2  4  1  0  0  0  0
  2  5  1  0  0  0  0
  5  6  2  0  0  0  0
  5  7  1  0  0  0  0
  7  8  1  0  0  0  0
  7  9  1  0  0  0  0
  9 10  1  0  0  0  0
  9 11  1  0  0  0  0
  9 24  1  0  0  0  0
 11 12  1  0  0  0  0
 11 13  1  0  0  0  0
 11 14  1  0  0  0  0
 14 15  1  0  0  0  0
 14 16  1  0  0  0  0
 14 20  1  0  0  0  0
 16 17  1  0  0  0  0
 16 18  1  0  0  0  0
 16 19  1  0  0  0  0
 20 21  1  0  0  0  0
 20 22  1  0  0  0  0
 20 23  1  0  0  0  0
 24 25  2  0  0  0  0
 24 26  1  0  0  0  0
 26 27  1  0  0  0  0
 26 28  1  0  0  0  0
 28 29  1  0  0  0  0
 28 30  1  0  0  0  0
 28 31  1  0  0  0  0
M  END
$$$$

  -OEChem-03222214063D

 31 30  0     1  0  0  0  0  0999 V2000
   -3.6777   -3.7543    1.6141 H   0  0  0  0  0  0  0  0  0  0  0  0
   -3.5699   -2.8184    1.0588 C   0  0  0  0  0  0  0  0  0  0  0  0
   -4.2392   -2.0712    1.4923 H   0  0  0  0  0  0  0  0  0  0  0  0
   -3.8535   -2.9923    0.0179 H   0  0  0  0  0  0  0  0  0  0  0  0
   -2.1350   -2.3313    1.1290 C   0  0  0  0  0  0  0  0  0  0  0  0
   -1.3122   -2.9522    1.7842 O   0  0  0  0  0  0  0  0  0  0  0  0
   -1.7756   -1.1732    0.4699 N   0  0  0  0  0  0  0  0  0  0  0  0
   -2.5172   -0.6399    0.0191 H   0  0  0  0  0  0  0  0  0  0  0  0
   -0.4313   -0.5777    0.4635 C   0  0  1  0  0  0  0  0  0  0  0  0
    0.1459   -1.0044    1.2898 H   0  0  0  0  0  0  0  0  0  0  0  0
    0.4081   -0.7539   -0.8360 C   0  0  0  0  0  0  0  0  0  0  0  0
   -0.0276   -0.0660   -1.5695 H   0  0  0  0  0  0  0  0  0  0  0  0
    1.4192   -0.3860   -0.6325 H   0  0  0  0  0  0  0  0  0  0  0  0
    0.5200   -2.1104   -1.5872 C   0  0  0  0  0  0  0  0  0  0  0  0
    0.7813   -1.8451   -2.6177 H   0  0  0  0  0  0  0  0  0  0  0  0
    1.7065   -2.9135   -1.0435 C   0  0  0  0  0  0  0  0  0  0  0  0
    1.5391   -3.1744    0.0066 H   0  0  0  0  0  0  0  0  0  0  0  0
    1.8351   -3.8381   -1.6149 H   0  0  0  0  0  0  0  0  0  0  0  0
    2.6327   -2.3353   -1.1173 H   0  0  0  0  0  0  0  0  0  0  0  0
   -0.7256   -2.9924   -1.7010 C   0  0  0  0  0  0  0  0  0  0  0  0
   -1.6109   -2.3880   -1.9178 H   0  0  0  0  0  0  0  0  0  0  0  0
   -0.5973   -3.7087   -2.5184 H   0  0  0  0  0  0  0  0  0  0  0  0
   -0.8839   -3.5668   -0.7868 H   0  0  0  0  0  0  0  0  0  0  0  0
   -0.5568    0.9414    0.7040 C   0  0  0  0  0  0  0  0  0  0  0  0
   -1.4330    1.5846    0.1359 O   0  0  0  0  0  0  0  0  0  0  0  0
    0.2858    1.5804    1.5951 N   0  0  0  0  0  0  0  0  0  0  0  0
    0.9563    1.0084    2.1010 H   0  0  0  0  0  0  0  0  0  0  0  0
    0.1858    2.9992    1.9143 C   0  0  0  0  0  0  0  0  0  0  0  0
   -0.7898    3.2249    2.3576 H   0  0  0  0  0  0  0  0  0  0  0  0
    0.9644    3.2818    2.6293 H   0  0  0  0  0  0  0  0  0  0  0  0
    0.3111    3.6047    1.0104 H   0  0  0  0  0  0  0  0  0  0  0  0
  1  2  1  0  0  0  0
  2  3  1  0  0  0  0
  2  4  1  0  0  0  0
  2  5  1  0  0  0  0
  5  6  2  0  0  0  0
  5  7  1  0  0  0  0
  7  8  1  0  0  0  0
  7  9  1  0  0  0  0
  9 10  1  0  0  0  0
  9 11  1  0  0  0  0
  9 24  1  0  0  0  0
 11 12  1  0  0  0  0
 11 13  1  0  0  0  0
 11 14  1  0  0  0  0
 14 15  1  0  0  0  0
 14 16  1  0  0  0  0
 14 20  1  0  0  0  0
 16 17  1  0  0  0  0
 16 18  1  0  0  0  0
 16 19  1  0  0  0  0
 20 21  1  0  0  0  0
 20 22  1  0  0  0  0
 20 23  1  0  0  0  0
 24 25  2  0  0  0  0
 24 26  1  0  0  0  0
 26 27  1  0  0  0  0
 26 28  1  0  0  0  0
 28 29  1  0  0  0  0
 28 30  1  0  0  0  0
 28 31  1  0  0  0  0
M  END
$$$$

  -OEChem-03222214063D

 31 30  0     1  0  0  0  0  0999 V2000
   -3.6367   -3.7871    1.5703 H   0  0  0  0  0  0  0  0  0  0  0  0
   -3.5397   -2.8401    1.0323 C   0  0  0  0  0  0  0  0  0  0  0  0
   -4.2032   -2.1037    1.4919 H   0  0  0  0  0  0  0  0  0  0  0  0
   -3.8403   -2.9929   -0.0069 H   0  0  0  0  0  0  0  0  0  0  0  0
   -2.1051   -2.3506    1.0888 C   0  0  0  0  0  0  0  0  0  0  0  0
   -1.2701   -2.9845    1.7148 O   0  0  0  0  0  0  0  0  0  0  0  0
   -1.7607   -1.1795    0.4452 N   0  0  0  0  0  0  0  0  0  0  0  0
   -2.5120   -0.6406    0.0178 H   0  0  0  0  0  0  0  0  0  0  0  0
   -0.4235   -0.5689    0.4455 C   0  0  1  0  0  0  0  0  0  0  0  0
    0.1591   -1.0001    1.2658 H   0  0  0  0  0  0  0  0  0  0  0  0
    0.4036   -0.7383   -0.8598 C   0  0  0  0  0  0  0  0  0  0  0  0
   -0.0208   -0.0458   -1.5955 H   0  0  0  0  0  0  0  0  0  0  0  0
    1.4229   -0.3931   -0.6578 H   0  0  0  0  0  0  0  0  0  0  0  0
    0.4903   -2.1075   -1.5801 C   0  0  0  0  0  0  0  0  0  0  0  0
    0.9867   -1.8962   -2.5335 H   0  0  0  0  0  0  0  0  0  0  0  0
    1.4155   -3.0608   -0.8172 C   0  0  0  0  0  0  0  0  0  0  0  0
    0.9976   -3.2978    0.1659 H   0  0  0  0  0  0  0  0  0  0  0  0
    1.5417   -3.9946   -1.3738 H   0  0  0  0  0  0  0  0  0  0  0  0
    2.4022   -2.6094   -0.6759 H   0  0  0  0  0  0  0  0  0  0  0  0
   -0.8353   -2.7822   -1.9519 C   0  0  0  0  0  0  0  0  0  0  0  0
   -1.5825   -2.0357   -2.2376 H   0  0  0  0  0  0  0  0  0  0  0  0
   -0.6817   -3.4542   -2.8019 H   0  0  0  0  0  0  0  0  0  0  0  0
   -1.2207   -3.3834   -1.1270 H   0  0  0  0  0  0  0  0  0  0  0  0
   -0.5560    0.9455    0.7056 C   0  0  0  0  0  0  0  0  0  0  0  0
   -1.4382    1.5902    0.1487 O   0  0  0  0  0  0  0  0  0  0  0  0
    0.2851    1.5774    1.6030 N   0  0  0  0  0  0  0  0  0  0  0  0
    0.9607    1.0029    2.0990 H   0  0  0  0  0  0  0  0  0  0  0  0
    0.1820    2.9927    1.9362 C   0  0  0  0  0  0  0  0  0  0  0  0
   -0.7950    3.2117    2.3798 H   0  0  0  0  0  0  0  0  0  0  0  0
    0.9589    3.2695    2.6554 H   0  0  0  0  0  0  0  0  0  0  0  0
    0.3078    3.6075    1.0386 H   0  0  0  0  0  0  0  0  0  0  0  0
  1  2  1  0  0  0  0
  2  3  1  0  0  0  0
  2  4  1  0  0  0  0
  2  5  1  0  0  0  0
  5  6  2  0  0  0  0
  5  7  1  0  0  0  0
  7  8  1  0  0  0  0
  7  9  1  0  0  0  0
  9 10  1  0  0  0  0
  9 11  1  0  0  0  0
  9 24  1  0  0  0  0
 11 12  1  0  0  0  0
 11 13  1  0  0  0  0
 11 14  1  0  0  0  0
 14 15  1  0  0  0  0
 14 16  1  0  0  0  0
 14 20  1  0  0  0  0
 16 17  1  0  0  0  0
 16 18  1  0  0  0  0
 16 19  1  0  0  0  0
 20 21  1  0  0  0  0
 20 22  1  0  0  0  0
 20 23  1  0  0  0  0
 24 25  2  0  0  0  0
 24 26  1  0  0  0  0
 26 27  1  0  0  0  0
 26 28  1  0  0  0  0
 28 29  1  0  0  0  0
 28 30  1  0  0  0  0
 28 31  1  0  0  0  0
M  END
$$$$

  -OEChem-03222214063D

 31 30  0     1  0  0  0  0  0999 V2000
   -3.6138   -3.8354    1.4783 H   0  0  0  0  0  0  0  0  0  0  0  0
   -3.5170   -2.8710    0.9721 C   0  0  0  0  0  0  0  0  0  0  0  0
   -4.2213   -2.1651    1.4187 H   0  0  0  0  0  0  0  0  0  0  0  0
   -3.7644   -3.0023   -0.0840 H   0  0  0  0  0  0  0  0  0  0  0  0
   -2.1003   -2.3470    1.1136 C   0  0  0  0  0  0  0  0  0  0  0  0
   -1.3146   -2.9187    1.8521 O   0  0  0  0  0  0  0  0  0  0  0  0
   -1.7384   -1.1839    0.4653 N   0  0  0  0  0  0  0  0  0  0  0  0
   -2.4670   -0.6902   -0.0467 H   0  0  0  0  0  0  0  0  0  0  0  0
   -0.4018   -0.5704    0.4671 C   0  0  1  0  0  0  0  0  0  0  0  0
    0.1891   -1.0006    1.2818 H   0  0  0  0  0  0  0  0  0  0  0  0
    0.3971   -0.7372   -0.8574 C   0  0  0  0  0  0  0  0  0  0  0  0
   -0.0117   -0.0257   -1.5837 H   0  0  0  0  0  0  0  0  0  0  0  0
    1.4261   -0.4214   -0.6560 H   0  0  0  0  0  0  0  0  0  0  0  0
    0.4627   -2.1025   -1.5850 C   0  0  0  0  0  0  0  0  0  0  0  0
    1.1387   -1.9515   -2.4337 H   0  0  0  0  0  0  0  0  0  0  0  0
    1.0850   -3.1941   -0.7086 C   0  0  0  0  0  0  0  0  0  0  0  0
    0.4327   -3.4555    0.1250 H   0  0  0  0  0  0  0  0  0  0  0  0
    1.2596   -4.0976   -1.3008 H   0  0  0  0  0  0  0  0  0  0  0  0
    2.0449   -2.8577   -0.3049 H   0  0  0  0  0  0  0  0  0  0  0  0
   -0.8722   -2.5702   -2.1812 C   0  0  0  0  0  0  0  0  0  0  0  0
   -1.3998   -1.7327   -2.6476 H   0  0  0  0  0  0  0  0  0  0  0  0
   -0.6895   -3.3298   -2.9474 H   0  0  0  0  0  0  0  0  0  0  0  0
   -1.5175   -3.0157   -1.4229 H   0  0  0  0  0  0  0  0  0  0  0  0
   -0.5380    0.9468    0.7117 C   0  0  0  0  0  0  0  0  0  0  0  0
   -1.4093    1.5877    0.1334 O   0  0  0  0  0  0  0  0  0  0  0  0
    0.2968    1.5893    1.6075 N   0  0  0  0  0  0  0  0  0  0  0  0
    0.9550    1.0174    2.1294 H   0  0  0  0  0  0  0  0  0  0  0  0
    0.1819    3.0061    1.9310 C   0  0  0  0  0  0  0  0  0  0  0  0
   -0.7982    3.2203    2.3700 H   0  0  0  0  0  0  0  0  0  0  0  0
    0.9544    3.2940    2.6506 H   0  0  0  0  0  0  0  0  0  0  0  0
    0.3056    3.6162    1.0299 H   0  0  0  0  0  0  0  0  0  0  0  0
  1  2  1  0  0  0  0
  2  3  1  0  0  0  0
  2  4  1  0  0  0  0
  2  5  1  0  0  0  0
  5  6  2  0  0  0  0
  5  7  1  0  0  0  0
  7  8  1  0  0  0  0
  7  9  1  0  0  0  0
  9 10  1  0  0  0  0
  9 11  1  0  0  0  0
  9 24  1  0  0  0  0
 11 12  1  0  0  0  0
 11 13  1  0  0  0  0
 11 14  1  0  0  0  0
 14 15  1  0  0  0  0
 14 16  1  0  0  0  0
 14 20  1  0  0  0  0
 16 17  1  0  0  0  0
 16 18  1  0  0  0  0
 16 19  1  0  0  0  0
 20 21  1  0  0  0  0
 20 22  1  0  0  0  0
 20 23  1  0  0  0  0
 24 25  2  0  0  0  0
 24 26  1  0  0  0  0
 26 27  1  0  0  0  0
 26 28  1  0  0  0  0
 28 29  1  0  0  0  0
 28 30  1  0  0  0  0
 28 31  1  0  0  0  0
M  END
$$$$

  -OEChem-03222214063D

 31 30  0     1  0  0  0  0  0999 V2000
   -3.5954   -3.8422    1.5051 H   0  0  0  0  0  0  0  0  0  0  0  0
   -3.4896   -2.9059    0.9501 C   0  0  0  0  0  0  0  0  0  0  0  0
   -4.2255   -2.1895    1.3232 H   0  0  0  0  0  0  0  0  0  0  0  0
   -3.6836   -3.1004   -0.1074 H   0  0  0  0  0  0  0  0  0  0  0  0
   -2.0898   -2.3482    1.1266 C   0  0  0  0  0  0  0  0  0  0  0  0
   -1.3133   -2.8887    1.8989 O   0  0  0  0  0  0  0  0  0  0  0  0
   -1.7334   -1.1855    0.4754 N   0  0  0  0  0  0  0  0  0  0  0  0
   -2.4569   -0.7133   -0.0631 H   0  0  0  0  0  0  0  0  0  0  0  0
   -0.3992   -0.5667    0.4742 C   0  0  1  0  0  0  0  0  0  0  0  0
    0.1994   -0.9961    1.2837 H   0  0  0  0  0  0  0  0  0  0  0  0
    0.3825   -0.7300   -0.8606 C   0  0  0  0  0  0  0  0  0  0  0  0
   -0.0150   -0.0041   -1.5788 H   0  0  0  0  0  0  0  0  0  0  0  0
    1.4157   -0.4305   -0.6561 H   0  0  0  0  0  0  0  0  0  0  0  0
    0.4415   -2.0938   -1.5940 C   0  0  0  0  0  0  0  0  0  0  0  0
    1.2792   -2.0218   -2.2963 H   0  0  0  0  0  0  0  0  0  0  0  0
    0.7265   -3.2855   -0.6734 C   0  0  0  0  0  0  0  0  0  0  0  0
   -0.1878   -3.6713   -0.2228 H   0  0  0  0  0  0  0  0  0  0  0  0
    1.1760   -4.0991   -1.2508 H   0  0  0  0  0  0  0  0  0  0  0  0
    1.4238   -3.0037    0.1215 H   0  0  0  0  0  0  0  0  0  0  0  0
   -0.8185   -2.3645   -2.4289 C   0  0  0  0  0  0  0  0  0  0  0  0
   -1.0123   -1.5307   -3.1105 H   0  0  0  0  0  0  0  0  0  0  0  0
   -0.6829   -3.2704   -3.0278 H   0  0  0  0  0  0  0  0  0  0  0  0
   -1.6965   -2.5052   -1.7952 H   0  0  0  0  0  0  0  0  0  0  0  0
   -0.5373    0.9510    0.7159 C   0  0  0  0  0  0  0  0  0  0  0  0
   -1.4065    1.5921    0.1344 O   0  0  0  0  0  0  0  0  0  0  0  0
    0.2993    1.5941    1.6095 N   0  0  0  0  0  0  0  0  0  0  0  0
    0.9574    1.0218    2.1310 H   0  0  0  0  0  0  0  0  0  0  0  0
    0.1888    3.0114    1.9316 C   0  0  0  0  0  0  0  0  0  0  0  0
   -0.7909    3.2295    2.3693 H   0  0  0  0  0  0  0  0  0  0  0  0
    0.9613    3.2962    2.6522 H   0  0  0  0  0  0  0  0  0  0  0  0
    0.3164    3.6206    1.0305 H   0  0  0  0  0  0  0  0  0  0  0  0
  1  2  1  0  0  0  0
  2  3  1  0  0  0  0
  2  4  1  0  0  0  0
  2  5  1  0  0  0  0
  5  6  2  0  0  0  0
  5  7  1  0  0  0  0
  7  8  1  0  0  0  0
  7  9  1  0  0  0  0
  9 10  1  0  0  0  0
  9 11  1  0  0  0  0
  9 24  1  0  0  0  0
 11 12  1  0  0  0  0
 11 13  1  0  0  0  0
 11 14  1  0  0  0  0
 14 15  1  0  0  0  0
 14 16  1  0  0  0  0
 14 20  1  0  0  0  0
 16 17  1  0  0  0  0
 16 18  1  0  0  0  0
 16 19  1  0  0  0  0
 20 21  1  0  0  0  0
 20 22  1  0  0  0  0
 20 23  1  0  0  0  0
 24 25  2  0  0  0  0
 24 26  1  0  0  0  0
 26 27  1  0  0  0  0
 26 28  1  0  0  0  0
 28 29  1  0  0  0  0
 28 30  1  0  0  0  0
 28 31  1  0  0  0  0
M  END
$$$$

  -OEChem-03222214063D

 31 30  0     1  0  0  0  0  0999 V2000
   -3.5503   -3.8870    1.5479 H   0  0  0  0  0  0  0  0  0  0  0  0
   -3.4543   -2.9579    0.9794 C   0  0  0  0  0  0  0  0  0  0  0  0
   -4.1969   -2.2434    1.3427 H   0  0  0  0  0  0  0  0  0  0  0  0
   -3.6464   -3.1687   -0.0753 H   0  0  0  0  0  0  0  0  0  0  0  0
   -2.0596   -2.3852    1.1453 C   0  0  0  0  0  0  0  0  0  0  0  0
   -1.2604   -2.9333    1.8887 O   0  0  0  0  0  0  0  0  0  0  0  0
   -1.7240   -1.2141    0.4987 N   0  0  0  0  0  0  0  0  0  0  0  0
   -2.4622   -0.7417   -0.0194 H   0  0  0  0  0  0  0  0  0  0  0  0
   -0.3972   -0.5774    0.4843 C   0  0  1  0  0  0  0  0  0  0  0  0
    0.2203   -1.0058    1.2801 H   0  0  0  0  0  0  0  0  0  0  0  0
    0.3638   -0.7090   -0.8667 C   0  0  0  0  0  0  0  0  0  0  0  0
   -0.0420    0.0372   -1.5590 H   0  0  0  0  0  0  0  0  0  0  0  0
    1.3963   -0.4064   -0.6628 H   0  0  0  0  0  0  0  0  0  0  0  0
    0.4414   -2.0537   -1.6403 C   0  0  0  0  0  0  0  0  0  0  0  0
    1.3932   -2.0491   -2.1828 H   0  0  0  0  0  0  0  0  0  0  0  0
    0.4076   -3.3257   -0.7863 C   0  0  0  0  0  0  0  0  0  0  0  0
    0.9111   -4.1385   -1.3184 H   0  0  0  0  0  0  0  0  0  0  0  0
   -0.6148   -3.6522   -0.5911 H   0  0  0  0  0  0  0  0  0  0  0  0
    0.9265   -3.1701    0.1643 H   0  0  0  0  0  0  0  0  0  0  0  0
   -0.6866   -2.1353   -2.6792 C   0  0  0  0  0  0  0  0  0  0  0  0
   -0.6207   -1.3006   -3.3841 H   0  0  0  0  0  0  0  0  0  0  0  0
   -0.6131   -3.0675   -3.2482 H   0  0  0  0  0  0  0  0  0  0  0  0
   -1.6662   -2.1019   -2.1930 H   0  0  0  0  0  0  0  0  0  0  0  0
   -0.5562    0.9364    0.7394 C   0  0  0  0  0  0  0  0  0  0  0  0
   -1.4460    1.5668    0.1777 O   0  0  0  0  0  0  0  0  0  0  0  0
    0.2814    1.5865    1.6268 N   0  0  0  0  0  0  0  0  0  0  0  0
    0.9619    1.0231    2.1289 H   0  0  0  0  0  0  0  0  0  0  0  0
    0.1488    2.9987    1.9629 C   0  0  0  0  0  0  0  0  0  0  0  0
   -0.8301    3.1955    2.4126 H   0  0  0  0  0  0  0  0  0  0  0  0
    0.9234    3.2914    2.6781 H   0  0  0  0  0  0  0  0  0  0  0  0
    0.2556    3.6176    1.0658 H   0  0  0  0  0  0  0  0  0  0  0  0
  1  2  1  0  0  0  0
  2  3  1  0  0  0  0
  2  4  1  0  0  0  0
  2  5  1  0  0  0  0
  5  6  2  0  0  0  0
  5  7  1  0  0  0  0
  7  8  1  0  0  0  0
  7  9  1  0  0  0  0
  9 10  1  0  0  0  0
  9 11  1  0  0  0  0
  9 24  1  0  0  0  0
 11 12  1  0  0  0  0
 11 13  1  0  0  0  0
 11 14  1  0  0  0  0
 14 15  1  0  0  0  0
 14 16  1  0  0  0  0
 14 20  1  0  0  0  0
 16 17  1  0  0  0  0
 16 18  1  0  0  0  0
 16 19  1  0  0  0  0
 20 21  1  0  0  0  0
 20 22  1  0  0  0  0
 20 23  1  0  0  0  0
 24 25  2  0  0  0  0
 24 26  1  0  0  0  0
 26 27  1  0  0  0  0
 26 28  1  0  0  0  0
 28 29  1  0  0  0  0
 28 30  1  0  0  0  0
 28 31  1  0  0  0  0
M  END
$$$$

  -OEChem-03222214063D

 31 30  0     1  0  0  0  0  0999 V2000
   -3.6800   -3.7957    1.5826 H   0  0  0  0  0  0  0  0  0  0  0  0
   -3.5589   -2.8665    1.0188 C   0  0  0  0  0  0  0  0  0  0  0  0
   -4.2739   -2.1303    1.3939 H   0  0  0  0  0  0  0  0  0  0  0  0
   -3.7693   -3.0650   -0.0349 H   0  0  0  0  0  0  0  0  0  0  0  0
   -2.1445   -2.3399    1.1745 C   0  0  0  0  0  0  0  0  0  0  0  0
   -1.3697   -2.8967    1.9367 O   0  0  0  0  0  0  0  0  0  0  0  0
   -1.7661   -1.1952    0.5030 N   0  0  0  0  0  0  0  0  0  0  0  0
   -2.4865   -0.7106   -0.0292 H   0  0  0  0  0  0  0  0  0  0  0  0
   -0.4224   -0.5921    0.4929 C   0  0  1  0  0  0  0  0  0  0  0  0
    0.1679   -1.0136    1.3128 H   0  0  0  0  0  0  0  0  0  0  0  0
    0.3801   -0.7604   -0.8335 C   0  0  0  0  0  0  0  0  0  0  0  0
    0.0044   -0.0106   -1.5390 H   0  0  0  0  0  0  0  0  0  0  0  0
    1.4081   -0.4640   -0.6001 H   0  0  0  0  0  0  0  0  0  0  0  0
    0.4795   -2.1074   -1.6112 C   0  0  0  0  0  0  0  0  0  0  0  0
    1.5310   -2.2301   -1.8927 H   0  0  0  0  0  0  0  0  0  0  0  0
    0.0643   -3.3825   -0.8759 C   0  0  0  0  0  0  0  0  0  0  0  0
   -1.0215   -3.4875   -0.8418 H   0  0  0  0  0  0  0  0  0  0  0  0
    0.4604   -4.2573   -1.4007 H   0  0  0  0  0  0  0  0  0  0  0  0
    0.4707   -3.3892    0.1394 H   0  0  0  0  0  0  0  0  0  0  0  0
   -0.3418   -2.0244   -2.9065 C   0  0  0  0  0  0  0  0  0  0  0  0
    0.0162   -1.2042   -3.5368 H   0  0  0  0  0  0  0  0  0  0  0  0
   -0.2519   -2.9540   -3.4773 H   0  0  0  0  0  0  0  0  0  0  0  0
   -1.3997   -1.8548   -2.6813 H   0  0  0  0  0  0  0  0  0  0  0  0
   -0.5582    0.9312    0.7068 C   0  0  0  0  0  0  0  0  0  0  0  0
   -1.4295    1.5631    0.1181 O   0  0  0  0  0  0  0  0  0  0  0  0
    0.2767    1.5890    1.5913 N   0  0  0  0  0  0  0  0  0  0  0  0
    0.9380    1.0266    2.1196 H   0  0  0  0  0  0  0  0  0  0  0  0
    0.1693    3.0130    1.8852 C   0  0  0  0  0  0  0  0  0  0  0  0
   -0.8074    3.2412    2.3245 H   0  0  0  0  0  0  0  0  0  0  0  0
    0.9467    3.3122    2.5948 H   0  0  0  0  0  0  0  0  0  0  0  0
    0.2914    3.6033    0.9710 H   0  0  0  0  0  0  0  0  0  0  0  0
  1  2  1  0  0  0  0
  2  3  1  0  0  0  0
  2  4  1  0  0  0  0
  2  5  1  0  0  0  0
  5  6  2  0  0  0  0
  5  7  1  0  0  0  0
  7  8  1  0  0  0  0
  7  9  1  0  0  0  0
  9 10  1  0  0  0  0
  9 11  1  0  0  0  0
  9 24  1  0  0  0  0
 11 12  1  0  0  0  0
 11 13  1  0  0  0  0
 11 14  1  0  0  0  0
 14 15  1  0  0  0  0
 14 16  1  0  0  0  0
 14 20  1  0  0  0  0
 16 17  1  0  0  0  0
 16 18  1  0  0  0  0
 16 19  1  0  0  0  0
 20 21  1  0  0  0  0
 20 22  1  0  0  0  0
 20 23  1  0  0  0  0
 24 25  2  0  0  0  0
 24 26  1  0  0  0  0
 26 27  1  0  0  0  0
 26 28  1  0  0  0  0
 28 29  1  0  0  0  0
 28 30  1  0  0  0  0
 28 31  1  0  0  0  0
M  END
$$$$

  -OEChem-03222214063D

 31 30  0     1  0  0  0  0  0999 V2000
   -3.6831   -3.8127    1.5878 H   0  0  0  0  0  0  0  0  0  0  0  0
   -3.5832   -2.8534    1.0723 C   0  0  0  0  0  0  0  0  0  0  0  0
   -4.2839   -2.1401    1.5129 H   0  0  0  0  0  0  0  0  0  0  0  0
   -3.8316   -2.9940    0.0176 H   0  0  0  0  0  0  0  0  0  0  0  0
   -2.1645   -2.3333    1.2064 C   0  0  0  0  0  0  0  0  0  0  0  0
   -1.3837   -2.8870    1.9646 O   0  0  0  0  0  0  0  0  0  0  0  0
   -1.7904   -1.1927    0.5248 N   0  0  0  0  0  0  0  0  0  0  0  0
   -2.5145   -0.7086   -0.0026 H   0  0  0  0  0  0  0  0  0  0  0  0
   -0.4427   -0.6006    0.4913 C   0  0  1  0  0  0  0  0  0  0  0  0
    0.1531   -1.0220    1.3070 H   0  0  0  0  0  0  0  0  0  0  0  0
    0.3573   -0.7740   -0.8387 C   0  0  0  0  0  0  0  0  0  0  0  0
   -0.0511   -0.0337   -1.5362 H   0  0  0  0  0  0  0  0  0  0  0  0
    1.3830   -0.4538   -0.6271 H   0  0  0  0  0  0  0  0  0  0  0  0
    0.4636   -2.1157   -1.6317 C   0  0  0  0  0  0  0  0  0  0  0  0
    1.5281   -2.3728   -1.6589 H   0  0  0  0  0  0  0  0  0  0  0  0
   -0.2540   -3.3478   -1.0837 C   0  0  0  0  0  0  0  0  0  0  0  0
   -1.3385   -3.2331   -1.1472 H   0  0  0  0  0  0  0  0  0  0  0  0
    0.0209   -4.2309   -1.6686 H   0  0  0  0  0  0  0  0  0  0  0  0
    0.0464   -3.5323   -0.0496 H   0  0  0  0  0  0  0  0  0  0  0  0
    0.0028   -1.9072   -3.0822 C   0  0  0  0  0  0  0  0  0  0  0  0
    0.5814   -1.1088   -3.5574 H   0  0  0  0  0  0  0  0  0  0  0  0
    0.1452   -2.8223   -3.6657 H   0  0  0  0  0  0  0  0  0  0  0  0
   -1.0576   -1.6369   -3.1139 H   0  0  0  0  0  0  0  0  0  0  0  0
   -0.5677    0.9239    0.7040 C   0  0  0  0  0  0  0  0  0  0  0  0
   -1.4413    1.5605    0.1239 O   0  0  0  0  0  0  0  0  0  0  0  0
    0.2850    1.5780    1.5742 N   0  0  0  0  0  0  0  0  0  0  0  0
    0.9467    1.0116    2.0976 H   0  0  0  0  0  0  0  0  0  0  0  0
    0.1913    3.0030    1.8665 C   0  0  0  0  0  0  0  0  0  0  0  0
   -0.7808    3.2402    2.3112 H   0  0  0  0  0  0  0  0  0  0  0  0
    0.9753    3.2969    2.5712 H   0  0  0  0  0  0  0  0  0  0  0  0
    0.3131    3.5905    0.9503 H   0  0  0  0  0  0  0  0  0  0  0  0
  1  2  1  0  0  0  0
  2  3  1  0  0  0  0
  2  4  1  0  0  0  0
  2  5  1  0  0  0  0
  5  6  2  0  0  0  0
  5  7  1  0  0  0  0
  7  8  1  0  0  0  0
  7  9  1  0  0  0  0
  9 10  1  0  0  0  0
  9 11  1  0  0  0  0
  9 24  1  0  0  0  0
 11 12  1  0  0  0  0
 11 13  1  0  0  0  0
 11 14  1  0  0  0  0
 14 15  1  0  0  0  0
 14 16  1  0  0  0  0
 14 20  1  0  0  0  0
 16 17  1  0  0  0  0
 16 18  1  0  0  0  0
 16 19  1  0  0  0  0
 20 21  1  0  0  0  0
 20 22  1  0  0  0  0
 20 23  1  0  0  0  0
 24 25  2  0  0  0  0
 24 26  1  0  0  0  0
 26 27  1  0  0  0  0
 26 28  1  0  0  0  0
 28 29  1  0  0  0  0
 28 30  1  0  0  0  0
 28 31  1  0  0  0  0
M  END
$$$$

  -OEChem-03222214063D

 31 30  0     1  0  0  0  0  0999 V2000
   -3.6679   -3.8225    1.6536 H   0  0  0  0  0  0  0  0  0  0  0  0
   -3.5752   -2.8775    1.1112 C   0  0  0  0  0  0  0  0  0  0  0  0
   -4.2640   -2.1503    1.5478 H   0  0  0  0  0  0  0  0  0  0  0  0
   -3.8457   -3.0440    0.0658 H   0  0  0  0  0  0  0  0  0  0  0  0
   -2.1518   -2.3609    1.2025 C   0  0  0  0  0  0  0  0  0  0  0  0
   -1.3418   -2.9333    1.9151 O   0  0  0  0  0  0  0  0  0  0  0  0
   -1.7997   -1.2081    0.5295 N   0  0  0  0  0  0  0  0  0  0  0  0
   -2.5407   -0.7088    0.0409 H   0  0  0  0  0  0  0  0  0  0  0  0
   -0.4543   -0.6130    0.4754 C   0  0  1  0  0  0  0  0  0  0  0  0
    0.1559   -1.0422    1.2764 H   0  0  0  0  0  0  0  0  0  0  0  0
    0.3330   -0.7678   -0.8642 C   0  0  0  0  0  0  0  0  0  0  0  0
   -0.1183   -0.0389   -1.5471 H   0  0  0  0  0  0  0  0  0  0  0  0
    1.3556   -0.4221   -0.6803 H   0  0  0  0  0  0  0  0  0  0  0  0
    0.4406   -2.0969   -1.6761 C   0  0  0  0  0  0  0  0  0  0  0  0
    1.4419   -2.4946   -1.4776 H   0  0  0  0  0  0  0  0  0  0  0  0
   -0.5226   -3.2399   -1.3579 C   0  0  0  0  0  0  0  0  0  0  0  0
   -1.5617   -2.9218   -1.4768 H   0  0  0  0  0  0  0  0  0  0  0  0
   -0.3485   -4.0801   -2.0371 H   0  0  0  0  0  0  0  0  0  0  0  0
   -0.3535   -3.6057   -0.3438 H   0  0  0  0  0  0  0  0  0  0  0  0
    0.3584   -1.7910   -3.1790 C   0  0  0  0  0  0  0  0  0  0  0  0
    1.0916   -1.0260   -3.4539 H   0  0  0  0  0  0  0  0  0  0  0  0
    0.5695   -2.6901   -3.7664 H   0  0  0  0  0  0  0  0  0  0  0  0
   -0.6403   -1.4297   -3.4452 H   0  0  0  0  0  0  0  0  0  0  0  0
   -0.5787    0.9076    0.7147 C   0  0  0  0  0  0  0  0  0  0  0  0
   -1.4687    1.5496    0.1664 O   0  0  0  0  0  0  0  0  0  0  0  0
    0.2910    1.5510    1.5759 N   0  0  0  0  0  0  0  0  0  0  0  0
    0.9698    0.9794    2.0710 H   0  0  0  0  0  0  0  0  0  0  0  0
    0.2010    2.9712    1.8914 C   0  0  0  0  0  0  0  0  0  0  0  0
   -0.7652    3.2012    2.3528 H   0  0  0  0  0  0  0  0  0  0  0  0
    0.9942    3.2543    2.5900 H   0  0  0  0  0  0  0  0  0  0  0  0
    0.3105    3.5728    0.9829 H   0  0  0  0  0  0  0  0  0  0  0  0
  1  2  1  0  0  0  0
  2  3  1  0  0  0  0
  2  4  1  0  0  0  0
  2  5  1  0  0  0  0
  5  6  2  0  0  0  0
  5  7  1  0  0  0  0
  7  8  1  0  0  0  0
  7  9  1  0  0  0  0
  9 10  1  0  0  0  0
  9 11  1  0  0  0  0
  9 24  1  0  0  0  0
 11 12  1  0  0  0  0
 11 13  1  0  0  0  0
 11 14  1  0  0  0  0
 14 15  1  0  0  0  0
 14 16  1  0  0  0  0
 14 20  1  0  0  0  0
 16 17  1  0  0  0  0
 16 18  1  0  0  0  0
 16 19  1  0  0  0  0
 20 21  1  0  0  0  0
 20 22  1  0  0  0  0
 20 23  1  0  0  0  0
 24 25  2  0  0  0  0
 24 26  1  0  0  0  0
 26 27  1  0  0  0  0
 26 28  1  0  0  0  0
 28 29  1  0  0  0  0
 28 30  1  0  0  0  0
 28 31  1  0  0  0  0
M  END
$$$$

  -OEChem-03222214063D

 31 30  0     1  0  0  0  0  0999 V2000
   -3.6959   -3.7855    1.6480 H   0  0  0  0  0  0  0  0  0  0  0  0
   -3.5985   -2.8419    1.1039 C   0  0  0  0  0  0  0  0  0  0  0  0
   -4.2672   -2.1039    1.5535 H   0  0  0  0  0  0  0  0  0  0  0  0
   -3.8918   -3.0037    0.0639 H   0  0  0  0  0  0  0  0  0  0  0  0
   -2.1655   -2.3481    1.1662 C   0  0  0  0  0  0  0  0  0  0  0  0
   -1.3421   -2.9513    1.8371 O   0  0  0  0  0  0  0  0  0  0  0  0
   -1.8105   -1.1963    0.4939 N   0  0  0  0  0  0  0  0  0  0  0  0
   -2.5545   -0.6748    0.0337 H   0  0  0  0  0  0  0  0  0  0  0  0
   -0.4621   -0.6100    0.4457 C   0  0  1  0  0  0  0  0  0  0  0  0
    0.1378   -1.0396    1.2543 H   0  0  0  0  0  0  0  0  0  0  0  0
    0.3388   -0.7829   -0.8815 C   0  0  0  0  0  0  0  0  0  0  0  0
   -0.1091   -0.0687   -1.5820 H   0  0  0  0  0  0  0  0  0  0  0  0
    1.3618   -0.4385   -0.6963 H   0  0  0  0  0  0  0  0  0  0  0  0
    0.4393   -2.1251   -1.6664 C   0  0  0  0  0  0  0  0  0  0  0  0
    1.3030   -2.6602   -1.2572 H   0  0  0  0  0  0  0  0  0  0  0  0
   -0.7319   -3.1080   -1.5938 C   0  0  0  0  0  0  0  0  0  0  0  0
   -1.6822   -2.5980   -1.7767 H   0  0  0  0  0  0  0  0  0  0  0  0
   -0.6183   -3.8932   -2.3476 H   0  0  0  0  0  0  0  0  0  0  0  0
   -0.7528   -3.6029   -0.6221 H   0  0  0  0  0  0  0  0  0  0  0  0
    0.7411   -1.8180   -3.1404 C   0  0  0  0  0  0  0  0  0  0  0  0
    1.6045   -1.1502   -3.2233 H   0  0  0  0  0  0  0  0  0  0  0  0
    0.9703   -2.7391   -3.6856 H   0  0  0  0  0  0  0  0  0  0  0  0
   -0.1190   -1.3376   -3.6182 H   0  0  0  0  0  0  0  0  0  0  0  0
   -0.5747    0.9112    0.6847 C   0  0  0  0  0  0  0  0  0  0  0  0
   -1.4606    1.5591    0.1369 O   0  0  0  0  0  0  0  0  0  0  0  0
    0.2971    1.5472    1.5493 N   0  0  0  0  0  0  0  0  0  0  0  0
    0.9747    0.9712    2.0409 H   0  0  0  0  0  0  0  0  0  0  0  0
    0.2228    2.9693    1.8603 C   0  0  0  0  0  0  0  0  0  0  0  0
   -0.7411    3.2119    2.3197 H   0  0  0  0  0  0  0  0  0  0  0  0
    1.0181    3.2451    2.5595 H   0  0  0  0  0  0  0  0  0  0  0  0
    0.3406    3.5667    0.9501 H   0  0  0  0  0  0  0  0  0  0  0  0
  1  2  1  0  0  0  0
  2  3  1  0  0  0  0
  2  4  1  0  0  0  0
  2  5  1  0  0  0  0
  5  6  2  0  0  0  0
  5  7  1  0  0  0  0
  7  8  1  0  0  0  0
  7  9  1  0  0  0  0
  9 10  1  0  0  0  0
  9 11  1  0  0  0  0
  9 24  1  0  0  0  0
 11 12  1  0  0  0  0
 11 13  1  0  0  0  0
 11 14  1  0  0  0  0
 14 15  1  0  0  0  0
 14 16  1  0  0  0  0
 14 20  1  0  0  0  0
 16 17  1  0  0  0  0
 16 18  1  0  0  0  0
 16 19  1  0  0  0  0
 20 21  1  0  0  0  0
 20 22  1  0  0  0  0
 20 23  1  0  0  0  0
 24 25  2  0  0  0  0
 24 26  1  0  0  0  0
 26 27  1  0  0  0  0
 26 28  1  0  0  0  0
 28 29  1  0  0  0  0
 28 30  1  0  0  0  0
 28 31  1  0  0  0  0
M  END
$$$$

  -OEChem-03222214063D

 31 30  0     1  0  0  0  0  0999 V2000
   -3.6831   -3.7819    1.6192 H   0  0  0  0  0  0  0  0  0  0  0  0
   -3.5861   -2.8399    1.0724 C   0  0  0  0  0  0  0  0  0  0  0  0
   -4.2322   -2.0928    1.5398 H   0  0  0  0  0  0  0  0  0  0  0  0
   -3.9093   -2.9968    0.0404 H   0  0  0  0  0  0  0  0  0  0  0  0
   -2.1449   -2.3667    1.0966 C   0  0  0  0  0  0  0  0  0  0  0  0
   -1.3029   -3.0081    1.7058 O   0  0  0  0  0  0  0  0  0  0  0  0
   -1.7983   -1.2016    0.4429 N   0  0  0  0  0  0  0  0  0  0  0  0
   -2.5501   -0.6560    0.0250 H   0  0  0  0  0  0  0  0  0  0  0  0
   -0.4528   -0.6099    0.4115 C   0  0  1  0  0  0  0  0  0  0  0  0
    0.1409   -1.0480    1.2200 H   0  0  0  0  0  0  0  0  0  0  0  0
    0.3561   -0.7752   -0.9081 C   0  0  0  0  0  0  0  0  0  0  0  0
   -0.0751   -0.0613   -1.6195 H   0  0  0  0  0  0  0  0  0  0  0  0
    1.3804   -0.4442   -0.7076 H   0  0  0  0  0  0  0  0  0  0  0  0
    0.4414   -2.1276   -1.6686 C   0  0  0  0  0  0  0  0  0  0  0  0
    1.1180   -2.7771   -1.1025 H   0  0  0  0  0  0  0  0  0  0  0  0
   -0.8629   -2.9121   -1.8603 C   0  0  0  0  0  0  0  0  0  0  0  0
   -1.6923   -2.2369   -2.0908 H   0  0  0  0  0  0  0  0  0  0  0  0
   -0.7651   -3.6253   -2.6846 H   0  0  0  0  0  0  0  0  0  0  0  0
   -1.0968   -3.4929   -0.9676 H   0  0  0  0  0  0  0  0  0  0  0  0
    1.0780   -1.8704   -3.0421 C   0  0  0  0  0  0  0  0  0  0  0  0
    2.0307   -1.3433   -2.9306 H   0  0  0  0  0  0  0  0  0  0  0  0
    1.2724   -2.8159   -3.5580 H   0  0  0  0  0  0  0  0  0  0  0  0
    0.4149   -1.2636   -3.6672 H   0  0  0  0  0  0  0  0  0  0  0  0
   -0.5666    0.9065    0.6730 C   0  0  0  0  0  0  0  0  0  0  0  0
   -1.4548    1.5592    0.1351 O   0  0  0  0  0  0  0  0  0  0  0  0
    0.2998    1.5314    1.5511 N   0  0  0  0  0  0  0  0  0  0  0  0
    0.9817    0.9517    2.0321 H   0  0  0  0  0  0  0  0  0  0  0  0
    0.2177    2.9480    1.8849 C   0  0  0  0  0  0  0  0  0  0  0  0
   -0.7486    3.1776    2.3460 H   0  0  0  0  0  0  0  0  0  0  0  0
    1.0103    3.2170    2.5899 H   0  0  0  0  0  0  0  0  0  0  0  0
    0.3338    3.5607    0.9846 H   0  0  0  0  0  0  0  0  0  0  0  0
  1  2  1  0  0  0  0
  2  3  1  0  0  0  0
  2  4  1  0  0  0  0
  2  5  1  0  0  0  0
  5  6  2  0  0  0  0
  5  7  1  0  0  0  0
  7  8  1  0  0  0  0
  7  9  1  0  0  0  0
  9 10  1  0  0  0  0
  9 11  1  0  0  0  0
  9 24  1  0  0  0  0
 11 12  1  0  0  0  0
 11 13  1  0  0  0  0
 11 14  1  0  0  0  0
 14 15  1  0  0  0  0
 14 16  1  0  0  0  0
 14 20  1  0  0  0  0
 16 17  1  0  0  0  0
 16 18  1  0  0  0  0
 16 19  1  0  0  0  0
 20 21  1  0  0  0  0
 20 22  1  0  0  0  0
 20 23  1  0  0  0  0
 24 25  2  0  0  0  0
 24 26  1  0  0  0  0
 26 27  1  0  0  0  0
 26 28  1  0  0  0  0
 28 29  1  0  0  0  0
 28 30  1  0  0  0  0
 28 31  1  0  0  0  0
M  END
$$$$

  -OEChem-03222214063D

 31 30  0     1  0  0  0  0  0999 V2000
   -3.6356   -3.8104    1.5205 H   0  0  0  0  0  0  0  0  0  0  0  0
   -3.5506   -2.8487    1.0067 C   0  0  0  0  0  0  0  0  0  0  0  0
   -4.1847   -2.1195    1.5164 H   0  0  0  0  0  0  0  0  0  0  0  0
   -3.8979   -2.9671   -0.0226 H   0  0  0  0  0  0  0  0  0  0  0  0
   -2.1087   -2.3769    1.0150 C   0  0  0  0  0  0  0  0  0  0  0  0
   -1.2543   -3.0386    1.5837 O   0  0  0  0  0  0  0  0  0  0  0  0
   -1.7732   -1.1971    0.3820 N   0  0  0  0  0  0  0  0  0  0  0  0
   -2.5314   -0.6384   -0.0058 H   0  0  0  0  0  0  0  0  0  0  0  0
   -0.4332   -0.5941    0.3766 C   0  0  1  0  0  0  0  0  0  0  0  0
    0.1538   -1.0379    1.1871 H   0  0  0  0  0  0  0  0  0  0  0  0
    0.3816   -0.7586   -0.9350 C   0  0  0  0  0  0  0  0  0  0  0  0
   -0.0235   -0.0462   -1.6627 H   0  0  0  0  0  0  0  0  0  0  0  0
    1.4084   -0.4451   -0.7186 H   0  0  0  0  0  0  0  0  0  0  0  0
    0.4398   -2.1337   -1.6494 C   0  0  0  0  0  0  0  0  0  0  0  0
    0.8868   -2.8583   -0.9603 H   0  0  0  0  0  0  0  0  0  0  0  0
   -0.9148   -2.6980   -2.1085 C   0  0  0  0  0  0  0  0  0  0  0  0
   -1.5783   -1.8920   -2.4372 H   0  0  0  0  0  0  0  0  0  0  0  0
   -0.7815   -3.3934   -2.9431 H   0  0  0  0  0  0  0  0  0  0  0  0
   -1.3967   -3.2578   -1.3072 H   0  0  0  0  0  0  0  0  0  0  0  0
    1.3641   -2.0052   -2.8686 C   0  0  0  0  0  0  0  0  0  0  0  0
    2.3491   -1.6351   -2.5674 H   0  0  0  0  0  0  0  0  0  0  0  0
    1.5018   -2.9788   -3.3495 H   0  0  0  0  0  0  0  0  0  0  0  0
    0.9407   -1.3115   -3.6021 H   0  0  0  0  0  0  0  0  0  0  0  0
   -0.5539    0.9174    0.6597 C   0  0  0  0  0  0  0  0  0  0  0  0
   -1.4432    1.5732    0.1277 O   0  0  0  0  0  0  0  0  0  0  0  0
    0.3003    1.5319    1.5567 N   0  0  0  0  0  0  0  0  0  0  0  0
    0.9841    0.9485    2.0305 H   0  0  0  0  0  0  0  0  0  0  0  0
    0.2032    2.9406    1.9184 C   0  0  0  0  0  0  0  0  0  0  0  0
   -0.7704    3.1540    2.3719 H   0  0  0  0  0  0  0  0  0  0  0  0
    0.9849    3.2006    2.6387 H   0  0  0  0  0  0  0  0  0  0  0  0
    0.3259    3.5727    1.0326 H   0  0  0  0  0  0  0  0  0  0  0  0
  1  2  1  0  0  0  0
  2  3  1  0  0  0  0
  2  4  1  0  0  0  0
  2  5  1  0  0  0  0
  5  6  2  0  0  0  0
  5  7  1  0  0  0  0
  7  8  1  0  0  0  0
  7  9  1  0  0  0  0
  9 10  1  0  0  0  0
  9 11  1  0  0  0  0
  9 24  1  0  0  0  0
 11 12  1  0  0  0  0
 11 13  1  0  0  0  0
 11 14  1  0  0  0  0
 14 15  1  0  0  0  0
 14 16  1  0  0  0  0
 14 20  1  0  0  0  0
 16 17  1  0  0  0  0
 16 18  1  0  0  0  0
 16 19  1  0  0  0  0
 20 21  1  0  0  0  0
 20 22  1  0  0  0  0
 20 23  1  0  0  0  0
 24 25  2  0  0  0  0
 24 26  1  0  0  0  0
 26 27  1  0  0  0  0
 26 28  1  0  0  0  0
 28 29  1  0  0  0  0
 28 30  1  0  0  0  0
 28 31  1  0  0  0  0
M  END
$$$$

  -OEChem-03222214063D

 31 30  0     1  0  0  0  0  0999 V2000
   -3.5760   -3.8355    1.4695 H   0  0  0  0  0  0  0  0  0  0  0  0
   -3.4994   -2.8833    0.9371 C   0  0  0  0  0  0  0  0  0  0  0  0
   -4.1421   -2.1504    1.4308 H   0  0  0  0  0  0  0  0  0  0  0  0
   -3.8427   -3.0258   -0.0904 H   0  0  0  0  0  0  0  0  0  0  0  0
   -2.0627   -2.3964    0.9403 C   0  0  0  0  0  0  0  0  0  0  0  0
   -1.1948   -3.0641    1.4807 O   0  0  0  0  0  0  0  0  0  0  0  0
   -1.7484   -1.1957    0.3362 N   0  0  0  0  0  0  0  0  0  0  0  0
   -2.5175   -0.6358   -0.0283 H   0  0  0  0  0  0  0  0  0  0  0  0
   -0.4197   -0.5707    0.3510 C   0  0  1  0  0  0  0  0  0  0  0  0
    0.1682   -1.0220    1.1567 H   0  0  0  0  0  0  0  0  0  0  0  0
    0.3935   -0.7254   -0.9586 C   0  0  0  0  0  0  0  0  0  0  0  0
    0.0004   -0.0158   -1.6952 H   0  0  0  0  0  0  0  0  0  0  0  0
    1.4201   -0.4172   -0.7350 H   0  0  0  0  0  0  0  0  0  0  0  0
    0.4322   -2.1205   -1.6312 C   0  0  0  0  0  0  0  0  0  0  0  0
    0.6300   -2.8746   -0.8613 H   0  0  0  0  0  0  0  0  0  0  0  0
   -0.8646   -2.5021   -2.3678 C   0  0  0  0  0  0  0  0  0  0  0  0
   -1.1814   -1.6905   -3.0302 H   0  0  0  0  0  0  0  0  0  0  0  0
   -0.7043   -3.3986   -2.9747 H   0  0  0  0  0  0  0  0  0  0  0  0
   -1.6771   -2.7250   -1.6784 H   0  0  0  0  0  0  0  0  0  0  0  0
    1.5877   -2.1515   -2.6407 C   0  0  0  0  0  0  0  0  0  0  0  0
    2.5387   -1.9374   -2.1431 H   0  0  0  0  0  0  0  0  0  0  0  0
    1.6647   -3.1397   -3.1050 H   0  0  0  0  0  0  0  0  0  0  0  0
    1.4313   -1.4079   -3.4289 H   0  0  0  0  0  0  0  0  0  0  0  0
   -0.5527    0.9322    0.6671 C   0  0  0  0  0  0  0  0  0  0  0  0
   -1.4454    1.5918    0.1461 O   0  0  0  0  0  0  0  0  0  0  0  0
    0.2941    1.5335    1.5799 N   0  0  0  0  0  0  0  0  0  0  0  0
    0.9821    0.9456    2.0421 H   0  0  0  0  0  0  0  0  0  0  0  0
    0.1908    2.9356    1.9648 C   0  0  0  0  0  0  0  0  0  0  0  0
   -0.7868    3.1393    2.4142 H   0  0  0  0  0  0  0  0  0  0  0  0
    0.9661    3.1849    2.6957 H   0  0  0  0  0  0  0  0  0  0  0  0
    0.3191    3.5827    1.0907 H   0  0  0  0  0  0  0  0  0  0  0  0
  1  2  1  0  0  0  0
  2  3  1  0  0  0  0
  2  4  1  0  0  0  0
  2  5  1  0  0  0  0
  5  6  2  0  0  0  0
  5  7  1  0  0  0  0
  7  8  1  0  0  0  0
  7  9  1  0  0  0  0
  9 10  1  0  0  0  0
  9 11  1  0  0  0  0
  9 24  1  0  0  0  0
 11 12  1  0  0  0  0
 11 13  1  0  0  0  0
 11 14  1  0  0  0  0
 14 15  1  0  0  0  0
 14 16  1  0  0  0  0
 14 20  1  0  0  0  0
 16 17  1  0  0  0  0
 16 18  1  0  0  0  0
 16 19  1  0  0  0  0
 20 21  1  0  0  0  0
 20 22  1  0  0  0  0
 20 23  1  0  0  0  0
 24 25  2  0  0  0  0
 24 26  1  0  0  0  0
 26 27  1  0  0  0  0
 26 28  1  0  0  0  0
 28 29  1  0  0  0  0
 28 30  1  0  0  0  0
 28 31  1  0  0  0  0
M  END
$$$$

  -OEChem-03222214063D

 31 30  0     1  0  0  0  0  0999 V2000
   -3.5020   -3.8960    1.3355 H   0  0  0  0  0  0  0  0  0  0  0  0
   -3.4247   -2.9422    0.8064 C   0  0  0  0  0  0  0  0  0  0  0  0
   -4.1204   -2.2312    1.2586 H   0  0  0  0  0  0  0  0  0  0  0  0
   -3.7008   -3.0968   -0.2395 H   0  0  0  0  0  0  0  0  0  0  0  0
   -2.0076   -2.4078    0.8941 C   0  0  0  0  0  0  0  0  0  0  0  0
   -1.1514   -3.0466    1.4856 O   0  0  0  0  0  0  0  0  0  0  0  0
   -1.6993   -1.1961    0.3105 N   0  0  0  0  0  0  0  0  0  0  0  0
   -2.4653   -0.6630   -0.0974 H   0  0  0  0  0  0  0  0  0  0  0  0
   -0.3828   -0.5432    0.3496 C   0  0  1  0  0  0  0  0  0  0  0  0
    0.2116   -0.9945    1.1507 H   0  0  0  0  0  0  0  0  0  0  0  0
    0.4104   -0.6926   -0.9706 C   0  0  0  0  0  0  0  0  0  0  0  0
    0.0110    0.0083   -1.7118 H   0  0  0  0  0  0  0  0  0  0  0  0
    1.4410   -0.3843   -0.7657 H   0  0  0  0  0  0  0  0  0  0  0  0
    0.4141   -2.1110   -1.5899 C   0  0  0  0  0  0  0  0  0  0  0  0
    0.3602   -2.8569   -0.7900 H   0  0  0  0  0  0  0  0  0  0  0  0
   -0.7577   -2.3220   -2.5636 C   0  0  0  0  0  0  0  0  0  0  0  0
   -0.7017   -1.6100   -3.3932 H   0  0  0  0  0  0  0  0  0  0  0  0
   -0.7274   -3.3356   -2.9751 H   0  0  0  0  0  0  0  0  0  0  0  0
   -1.7205   -2.1916   -2.0660 H   0  0  0  0  0  0  0  0  0  0  0  0
    1.7239   -2.3351   -2.3567 C   0  0  0  0  0  0  0  0  0  0  0  0
    2.5808   -2.2557   -1.6805 H   0  0  0  0  0  0  0  0  0  0  0  0
    1.7376   -3.3330   -2.8060 H   0  0  0  0  0  0  0  0  0  0  0  0
    1.8381   -1.5929   -3.1535 H   0  0  0  0  0  0  0  0  0  0  0  0
   -0.5355    0.9547    0.6773 C   0  0  0  0  0  0  0  0  0  0  0  0
   -1.4242    1.6103    0.1447 O   0  0  0  0  0  0  0  0  0  0  0  0
    0.2940    1.5570    1.6050 N   0  0  0  0  0  0  0  0  0  0  0  0
    0.9801    0.9713    2.0727 H   0  0  0  0  0  0  0  0  0  0  0  0
    0.1740    2.9554    1.9981 C   0  0  0  0  0  0  0  0  0  0  0  0
   -0.8102    3.1472    2.4384 H   0  0  0  0  0  0  0  0  0  0  0  0
    0.9392    3.2064    2.7389 H   0  0  0  0  0  0  0  0  0  0  0  0
    0.3059    3.6104    1.1304 H   0  0  0  0  0  0  0  0  0  0  0  0
  1  2  1  0  0  0  0
  2  3  1  0  0  0  0
  2  4  1  0  0  0  0
  2  5  1  0  0  0  0
  5  6  2  0  0  0  0
  5  7  1  0  0  0  0
  7  8  1  0  0  0  0
  7  9  1  0  0  0  0
  9 10  1  0  0  0  0
  9 11  1  0  0  0  0
  9 24  1  0  0  0  0
 11 12  1  0  0  0  0
 11 13  1  0  0  0  0
 11 14  1  0  0  0  0
 14 15  1  0  0  0  0
 14 16  1  0  0  0  0
 14 20  1  0  0  0  0
 16 17  1  0  0  0  0
 16 18  1  0  0  0  0
 16 19  1  0  0  0  0
 20 21  1  0  0  0  0
 20 22  1  0  0  0  0
 20 23  1  0  0  0  0
 24 25  2  0  0  0  0
 24 26  1  0  0  0  0
 26 27  1  0  0  0  0
 26 28  1  0  0  0  0
 28 29  1  0  0  0  0
 28 30  1  0  0  0  0
 28 31  1  0  0  0  0
M  END
$$$$

  -OEChem-03222214063D

 31 30  0     1  0  0  0  0  0999 V2000
   -3.4840   -3.9169    1.2786 H   0  0  0  0  0  0  0  0  0  0  0  0
   -3.4018   -2.9585    0.7582 C   0  0  0  0  0  0  0  0  0  0  0  0
   -4.1189   -2.2581    1.1932 H   0  0  0  0  0  0  0  0  0  0  0  0
   -3.6432   -3.1085   -0.2968 H   0  0  0  0  0  0  0  0  0  0  0  0
   -1.9943   -2.4090    0.8926 C   0  0  0  0  0  0  0  0  0  0  0  0
   -1.1552   -3.0308    1.5254 O   0  0  0  0  0  0  0  0  0  0  0  0
   -1.6758   -1.2010    0.3070 N   0  0  0  0  0  0  0  0  0  0  0  0
   -2.4323   -0.6812   -0.1341 H   0  0  0  0  0  0  0  0  0  0  0  0
   -0.3605   -0.5416    0.3610 C   0  0  1  0  0  0  0  0  0  0  0  0
    0.2346   -0.9909    1.1627 H   0  0  0  0  0  0  0  0  0  0  0  0
    0.4215   -0.6921   -0.9643 C   0  0  0  0  0  0  0  0  0  0  0  0
    0.0143    0.0102   -1.7003 H   0  0  0  0  0  0  0  0  0  0  0  0
    1.4538   -0.3800   -0.7738 H   0  0  0  0  0  0  0  0  0  0  0  0
    0.4107   -2.1174   -1.5719 C   0  0  0  0  0  0  0  0  0  0  0  0
    0.1045   -2.8518   -0.8224 H   0  0  0  0  0  0  0  0  0  0  0  0
   -0.5343   -2.1894   -2.7787 C   0  0  0  0  0  0  0  0  0  0  0  0
   -0.2083   -1.5064   -3.5698 H   0  0  0  0  0  0  0  0  0  0  0  0
   -0.5558   -3.2056   -3.1844 H   0  0  0  0  0  0  0  0  0  0  0  0
   -1.5519   -1.9175   -2.4827 H   0  0  0  0  0  0  0  0  0  0  0  0
    1.8210   -2.4993   -2.0385 C   0  0  0  0  0  0  0  0  0  0  0  0
    2.5140   -2.5052   -1.1913 H   0  0  0  0  0  0  0  0  0  0  0  0
    1.8177   -3.4997   -2.4828 H   0  0  0  0  0  0  0  0  0  0  0  0
    2.1886   -1.7883   -2.7856 H   0  0  0  0  0  0  0  0  0  0  0  0
   -0.5211    0.9586    0.6762 C   0  0  0  0  0  0  0  0  0  0  0  0
   -1.4004    1.6097    0.1228 O   0  0  0  0  0  0  0  0  0  0  0  0
    0.2935    1.5698    1.6115 N   0  0  0  0  0  0  0  0  0  0  0  0
    0.9687    0.9875    2.0989 H   0  0  0  0  0  0  0  0  0  0  0  0
    0.1611    2.9697    1.9960 C   0  0  0  0  0  0  0  0  0  0  0  0
   -0.8289    3.1581    2.4247 H   0  0  0  0  0  0  0  0  0  0  0  0
    0.9169    3.2291    2.7436 H   0  0  0  0  0  0  0  0  0  0  0  0
    0.2984    3.6208    1.1263 H   0  0  0  0  0  0  0  0  0  0  0  0
  1  2  1  0  0  0  0
  2  3  1  0  0  0  0
  2  4  1  0  0  0  0
  2  5  1  0  0  0  0
  5  6  2  0  0  0  0
  5  7  1  0  0  0  0
  7  8  1  0  0  0  0
  7  9  1  0  0  0  0
  9 10  1  0  0  0  0
  9 11  1  0  0  0  0
  9 24  1  0  0  0  0
 11 12  1  0  0  0  0
 11 13  1  0  0  0  0
 11 14  1  0  0  0  0
 14 15  1  0  0  0  0
 14 16  1  0  0  0  0
 14 20  1  0  0  0  0
 16 17  1  0  0  0  0
 16 18  1  0  0  0  0
 16 19  1  0  0  0  0
 20 21  1  0  0  0  0
 20 22  1  0  0  0  0
 20 23  1  0  0  0  0
 24 25  2  0  0  0  0
 24 26  1  0  0  0  0
 26 27  1  0  0  0  0
 26 28  1  0  0  0  0
 28 29  1  0  0  0  0
 28 30  1  0  0  0  0
 28 31  1  0  0  0  0
M  END
$$$$

  -OEChem-03222214063D

 31 30  0     1  0  0  0  0  0999 V2000
   -3.5045   -3.9030    1.3177 H   0  0  0  0  0  0  0  0  0  0  0  0
   -3.4210   -2.9485    0.7903 C   0  0  0  0  0  0  0  0  0  0  0  0
   -4.1242   -2.2387    1.2327 H   0  0  0  0  0  0  0  0  0  0  0  0
   -3.6807   -3.1024   -0.2599 H   0  0  0  0  0  0  0  0  0  0  0  0
   -2.0062   -2.4118    0.8987 C   0  0  0  0  0  0  0  0  0  0  0  0
   -1.1604   -3.0423    1.5139 O   0  0  0  0  0  0  0  0  0  0  0  0
   -1.6872   -1.2050    0.3098 N   0  0  0  0  0  0  0  0  0  0  0  0
   -2.4467   -0.6774   -0.1170 H   0  0  0  0  0  0  0  0  0  0  0  0
   -0.3695   -0.5494    0.3587 C   0  0  1  0  0  0  0  0  0  0  0  0
    0.2240   -0.9985    1.1615 H   0  0  0  0  0  0  0  0  0  0  0  0
    0.4192   -0.6975   -0.9642 C   0  0  0  0  0  0  0  0  0  0  0  0
   -0.0080    0.0027   -1.6909 H   0  0  0  0  0  0  0  0  0  0  0  0
    1.4475   -0.3661   -0.7855 H   0  0  0  0  0  0  0  0  0  0  0  0
    0.4238   -2.1172   -1.5914 C   0  0  0  0  0  0  0  0  0  0  0  0
   -0.1422   -2.8187   -0.9758 H   0  0  0  0  0  0  0  0  0  0  0  0
   -0.1962   -2.0936   -2.9937 C   0  0  0  0  0  0  0  0  0  0  0  0
    0.3686   -1.4305   -3.6570 H   0  0  0  0  0  0  0  0  0  0  0  0
   -0.1982   -3.0988   -3.4263 H   0  0  0  0  0  0  0  0  0  0  0  0
   -1.2308   -1.7399   -2.9446 H   0  0  0  0  0  0  0  0  0  0  0  0
    1.8589   -2.6496   -1.6843 C   0  0  0  0  0  0  0  0  0  0  0  0
    2.3078   -2.7051   -0.6875 H   0  0  0  0  0  0  0  0  0  0  0  0
    1.8655   -3.6545   -2.1181 H   0  0  0  0  0  0  0  0  0  0  0  0
    2.4759   -1.9970   -2.3106 H   0  0  0  0  0  0  0  0  0  0  0  0
   -0.5284    0.9512    0.6730 C   0  0  0  0  0  0  0  0  0  0  0  0
   -1.4116    1.6011    0.1244 O   0  0  0  0  0  0  0  0  0  0  0  0
    0.2891    1.5628    1.6055 N   0  0  0  0  0  0  0  0  0  0  0  0
    0.9683    0.9817    2.0889 H   0  0  0  0  0  0  0  0  0  0  0  0
    0.1624    2.9646    1.9848 C   0  0  0  0  0  0  0  0  0  0  0  0
   -0.8246    3.1571    2.4183 H   0  0  0  0  0  0  0  0  0  0  0  0
    0.9233    3.2255    2.7268 H   0  0  0  0  0  0  0  0  0  0  0  0
    0.2962    3.6115    1.1114 H   0  0  0  0  0  0  0  0  0  0  0  0
  1  2  1  0  0  0  0
  2  3  1  0  0  0  0
  2  4  1  0  0  0  0
  2  5  1  0  0  0  0
  5  6  2  0  0  0  0
  5  7  1  0  0  0  0
  7  8  1  0  0  0  0
  7  9  1  0  0  0  0
  9 10  1  0  0  0  0
  9 11  1  0  0  0  0
  9 24  1  0  0  0  0
 11 12  1  0  0  0  0
 11 13  1  0  0  0  0
 11 14  1  0  0  0  0
 14 15  1  0  0  0  0
 14 16  1  0  0  0  0
 14 20  1  0  0  0  0
 16 17  1  0  0  0  0
 16 18  1  0  0  0  0
 16 19  1  0  0  0  0
 20 21  1  0  0  0  0
 20 22  1  0  0  0  0
 20 23  1  0  0  0  0
 24 25  2  0  0  0  0
 24 26  1  0  0  0  0
 26 27  1  0  0  0  0
 26 28  1  0  0  0  0
 28 29  1  0  0  0  0
 28 30  1  0  0  0  0
 28 31  1  0  0  0  0
M  END
$$$$

  -OEChem-03222214063D

 31 30  0     1  0  0  0  0  0999 V2000
   -3.5011   -3.8976    1.3460 H   0  0  0  0  0  0  0  0  0  0  0  0
   -3.4254   -2.9450    0.8143 C   0  0  0  0  0  0  0  0  0  0  0  0
   -4.1164   -2.2316    1.2696 H   0  0  0  0  0  0  0  0  0  0  0  0
   -3.7080   -3.1004   -0.2296 H   0  0  0  0  0  0  0  0  0  0  0  0
   -2.0063   -2.4142    0.8918 C   0  0  0  0  0  0  0  0  0  0  0  0
   -1.1466   -3.0552    1.4759 O   0  0  0  0  0  0  0  0  0  0  0  0
   -1.6962   -1.2045    0.3038 N   0  0  0  0  0  0  0  0  0  0  0  0
   -2.4634   -0.6679   -0.0976 H   0  0  0  0  0  0  0  0  0  0  0  0
   -0.3784   -0.5493    0.3465 C   0  0  1  0  0  0  0  0  0  0  0  0
    0.2154   -0.9981    1.1491 H   0  0  0  0  0  0  0  0  0  0  0  0
    0.4187   -0.6961   -0.9721 C   0  0  0  0  0  0  0  0  0  0  0  0
   -0.0313   -0.0065   -1.6950 H   0  0  0  0  0  0  0  0  0  0  0  0
    1.4439   -0.3479   -0.8091 H   0  0  0  0  0  0  0  0  0  0  0  0
    0.4370   -2.1115   -1.6067 C   0  0  0  0  0  0  0  0  0  0  0  0
   -0.3543   -2.7361   -1.1892 H   0  0  0  0  0  0  0  0  0  0  0  0
    0.1883   -2.0310   -3.1172 C   0  0  0  0  0  0  0  0  0  0  0  0
    0.9562   -1.4202   -3.6024 H   0  0  0  0  0  0  0  0  0  0  0  0
    0.2086   -3.0317   -3.5599 H   0  0  0  0  0  0  0  0  0  0  0  0
   -0.7916   -1.5872   -3.3196 H   0  0  0  0  0  0  0  0  0  0  0  0
    1.7728   -2.8058   -1.3216 C   0  0  0  0  0  0  0  0  0  0  0  0
    1.9338   -2.8862   -0.2418 H   0  0  0  0  0  0  0  0  0  0  0  0
    1.7744   -3.8152   -1.7443 H   0  0  0  0  0  0  0  0  0  0  0  0
    2.6046   -2.2450   -1.7596 H   0  0  0  0  0  0  0  0  0  0  0  0
   -0.5356    0.9503    0.6675 C   0  0  0  0  0  0  0  0  0  0  0  0
   -1.4249    1.6013    0.1304 O   0  0  0  0  0  0  0  0  0  0  0  0
    0.2878    1.5589    1.5967 N   0  0  0  0  0  0  0  0  0  0  0  0
    0.9759    0.9781    2.0676 H   0  0  0  0  0  0  0  0  0  0  0  0
    0.1657    2.9601    1.9802 C   0  0  0  0  0  0  0  0  0  0  0  0
   -0.8189    3.1538    2.4186 H   0  0  0  0  0  0  0  0  0  0  0  0
    0.9302    3.2175    2.7196 H   0  0  0  0  0  0  0  0  0  0  0  0
    0.2972    3.6091    1.1080 H   0  0  0  0  0  0  0  0  0  0  0  0
  1  2  1  0  0  0  0
  2  3  1  0  0  0  0
  2  4  1  0  0  0  0
  2  5  1  0  0  0  0
  5  6  2  0  0  0  0
  5  7  1  0  0  0  0
  7  8  1  0  0  0  0
  7  9  1  0  0  0  0
  9 10  1  0  0  0  0
  9 11  1  0  0  0  0
  9 24  1  0  0  0  0
 11 12  1  0  0  0  0
 11 13  1  0  0  0  0
 11 14  1  0  0  0  0
 14 15  1  0  0  0  0
 14 16  1  0  0  0  0
 14 20  1  0  0  0  0
 16 17  1  0  0  0  0
 16 18  1  0  0  0  0
 16 19  1  0  0  0  0
 20 21  1  0  0  0  0
 20 22  1  0  0  0  0
 20 23  1  0  0  0  0
 24 25  2  0  0  0  0
 24 26  1  0  0  0  0
 26 27  1  0  0  0  0
 26 28  1  0  0  0  0
 28 29  1  0  0  0  0
 28 30  1  0  0  0  0
 28 31  1  0  0  0  0
M  END
$$$$

  -OEChem-03222214063D

 31 30  0     1  0  0  0  0  0999 V2000
   -3.4885   -3.8984    1.3380 H   0  0  0  0  0  0  0  0  0  0  0  0
   -3.4156   -2.9443    0.8084 C   0  0  0  0  0  0  0  0  0  0  0  0
   -4.1052   -2.2323    1.2683 H   0  0  0  0  0  0  0  0  0  0  0  0
   -3.7023   -3.0976   -0.2347 H   0  0  0  0  0  0  0  0  0  0  0  0
   -1.9968   -2.4125    0.8816 C   0  0  0  0  0  0  0  0  0  0  0  0
   -1.1346   -3.0551    1.4598 O   0  0  0  0  0  0  0  0  0  0  0  0
   -1.6909   -1.2008    0.2960 N   0  0  0  0  0  0  0  0  0  0  0  0
   -2.4604   -0.6633   -0.0997 H   0  0  0  0  0  0  0  0  0  0  0  0
   -0.3747   -0.5434    0.3406 C   0  0  1  0  0  0  0  0  0  0  0  0
    0.2181   -0.9912    1.1447 H   0  0  0  0  0  0  0  0  0  0  0  0
    0.4239   -0.6940   -0.9762 C   0  0  0  0  0  0  0  0  0  0  0  0
   -0.0324   -0.0138   -1.7040 H   0  0  0  0  0  0  0  0  0  0  0  0
    1.4508   -0.3469   -0.8205 H   0  0  0  0  0  0  0  0  0  0  0  0
    0.4396   -2.1110   -1.5991 C   0  0  0  0  0  0  0  0  0  0  0  0
   -0.5008   -2.6290   -1.3987 H   0  0  0  0  0  0  0  0  0  0  0  0
    0.5667   -2.0210   -3.1238 C   0  0  0  0  0  0  0  0  0  0  0  0
    1.4871   -1.4988   -3.4034 H   0  0  0  0  0  0  0  0  0  0  0  0
    0.5880   -3.0231   -3.5632 H   0  0  0  0  0  0  0  0  0  0  0  0
   -0.2848   -1.4799   -3.5483 H   0  0  0  0  0  0  0  0  0  0  0  0
    1.5805   -2.9444   -1.0068 C   0  0  0  0  0  0  0  0  0  0  0  0
    1.4659   -3.0290    0.0784 H   0  0  0  0  0  0  0  0  0  0  0  0
    1.5736   -3.9530   -1.4311 H   0  0  0  0  0  0  0  0  0  0  0  0
    2.5500   -2.4843   -1.2213 H   0  0  0  0  0  0  0  0  0  0  0  0
   -0.5330    0.9550    0.6644 C   0  0  0  0  0  0  0  0  0  0  0  0
   -1.4229    1.6061    0.1282 O   0  0  0  0  0  0  0  0  0  0  0  0
    0.2897    1.5623    1.5951 N   0  0  0  0  0  0  0  0  0  0  0  0
    0.9798    0.9817    2.0633 H   0  0  0  0  0  0  0  0  0  0  0  0
    0.1653    2.9622    1.9816 C   0  0  0  0  0  0  0  0  0  0  0  0
   -0.8196    3.1532    2.4206 H   0  0  0  0  0  0  0  0  0  0  0  0
    0.9295    3.2193    2.7213 H   0  0  0  0  0  0  0  0  0  0  0  0
    0.2955    3.6129    1.1105 H   0  0  0  0  0  0  0  0  0  0  0  0
  1  2  1  0  0  0  0
  2  3  1  0  0  0  0
  2  4  1  0  0  0  0
  2  5  1  0  0  0  0
  5  6  2  0  0  0  0
  5  7  1  0  0  0  0
  7  8  1  0  0  0  0
  7  9  1  0  0  0  0
  9 10  1  0  0  0  0
  9 11  1  0  0  0  0
  9 24  1  0  0  0  0
 11 12  1  0  0  0  0
 11 13  1  0  0  0  0
 11 14  1  0  0  0  0
 14 15  1  0  0  0  0
 14 16  1  0  0  0  0
 14 20  1  0  0  0  0
 16 17  1  0  0  0  0
 16 18  1  0  0  0  0
 16 19  1  0  0  0  0
 20 21  1  0  0  0  0
 20 22  1  0  0  0  0
 20 23  1  0  0  0  0
 24 25  2  0  0  0  0
 24 26  1  0  0  0  0
 26 27  1  0  0  0  0
 26 28  1  0  0  0  0
 28 29  1  0  0  0  0
 28 30  1  0  0  0  0
 28 31  1  0  0  0  0
M  END
$$$$

  -OEChem-03222214063D

 31 30  0     1  0  0  0  0  0999 V2000
   -3.5056   -3.9040    1.2850 H   0  0  0  0  0  0  0  0  0  0  0  0
   -3.4152   -2.9464    0.7646 C   0  0  0  0  0  0  0  0  0  0  0  0
   -4.1370   -2.2444    1.1891 H   0  0  0  0  0  0  0  0  0  0  0  0
   -3.6426   -3.0976   -0.2934 H   0  0  0  0  0  0  0  0  0  0  0  0
   -2.0092   -2.3989    0.9181 C   0  0  0  0  0  0  0  0  0  0  0  0
   -1.1907   -3.0081    1.5874 O   0  0  0  0  0  0  0  0  0  0  0  0
   -1.6783   -1.1993    0.3227 N   0  0  0  0  0  0  0  0  0  0  0  0
   -2.4262   -0.6865   -0.1406 H   0  0  0  0  0  0  0  0  0  0  0  0
   -0.3602   -0.5464    0.3730 C   0  0  1  0  0  0  0  0  0  0  0  0
    0.2311   -0.9889    1.1809 H   0  0  0  0  0  0  0  0  0  0  0  0
    0.4229   -0.7082   -0.9528 C   0  0  0  0  0  0  0  0  0  0  0  0
   -0.0277   -0.0276   -1.6841 H   0  0  0  0  0  0  0  0  0  0  0  0
    1.4558   -0.3776   -0.8006 H   0  0  0  0  0  0  0  0  0  0  0  0
    0.4232   -2.1229   -1.5740 C   0  0  0  0  0  0  0  0  0  0  0  0
   -0.5893   -2.5363   -1.5774 H   0  0  0  0  0  0  0  0  0  0  0  0
    0.9004   -2.0462   -3.0287 C   0  0  0  0  0  0  0  0  0  0  0  0
    1.9116   -1.6306   -3.0829 H   0  0  0  0  0  0  0  0  0  0  0  0
    0.9092   -3.0436   -3.4792 H   0  0  0  0  0  0  0  0  0  0  0  0
    0.2312   -1.4114   -3.6181 H   0  0  0  0  0  0  0  0  0  0  0  0
    1.3485   -3.0633   -0.7904 C   0  0  0  0  0  0  0  0  0  0  0  0
    1.0433   -3.1305    0.2564 H   0  0  0  0  0  0  0  0  0  0  0  0
    1.3165   -4.0699   -1.2188 H   0  0  0  0  0  0  0  0  0  0  0  0
    2.3820   -2.7047   -0.8239 H   0  0  0  0  0  0  0  0  0  0  0  0
   -0.5163    0.9575    0.6726 C   0  0  0  0  0  0  0  0  0  0  0  0
   -1.3901    1.6067    0.1082 O   0  0  0  0  0  0  0  0  0  0  0  0
    0.2974    1.5761    1.6036 N   0  0  0  0  0  0  0  0  0  0  0  0
    0.9641    0.9957    2.1048 H   0  0  0  0  0  0  0  0  0  0  0  0
    0.1671    2.9805    1.9719 C   0  0  0  0  0  0  0  0  0  0  0  0
   -0.8218    3.1741    2.4005 H   0  0  0  0  0  0  0  0  0  0  0  0
    0.9246    3.2487    2.7145 H   0  0  0  0  0  0  0  0  0  0  0  0
    0.3028    3.6211    1.0941 H   0  0  0  0  0  0  0  0  0  0  0  0
  1  2  1  0  0  0  0
  2  3  1  0  0  0  0
  2  4  1  0  0  0  0
  2  5  1  0  0  0  0
  5  6  2  0  0  0  0
  5  7  1  0  0  0  0
  7  8  1  0  0  0  0
  7  9  1  0  0  0  0
  9 10  1  0  0  0  0
  9 11  1  0  0  0  0
  9 24  1  0  0  0  0
 11 12  1  0  0  0  0
 11 13  1  0  0  0  0
 11 14  1  0  0  0  0
 14 15  1  0  0  0  0
 14 16  1  0  0  0  0
 14 20  1  0  0  0  0
 16 17  1  0  0  0  0
 16 18  1  0  0  0  0
 16 19  1  0  0  0  0
 20 21  1  0  0  0  0
 20 22  1  0  0  0  0
 20 23  1  0  0  0  0
 24 25  2  0  0  0  0
 24 26  1  0  0  0  0
 26 27  1  0  0  0  0
 26 28  1  0  0  0  0
 28 29  1  0  0  0  0
 28 30  1  0  0  0  0
 28 31  1  0  0  0  0
M  END
$$$$

  -OEChem-03222214063D

 31 30  0     1  0  0  0  0  0999 V2000
   -3.6076   -3.8613    1.4008 H   0  0  0  0  0  0  0  0  0  0  0  0
   -3.4864   -2.9336    0.8345 C   0  0  0  0  0  0  0  0  0  0  0  0
   -4.2420   -2.2168    1.1655 H   0  0  0  0  0  0  0  0  0  0  0  0
   -3.6360   -3.1470   -0.2266 H   0  0  0  0  0  0  0  0  0  0  0  0
   -2.0987   -2.3630    1.0566 C   0  0  0  0  0  0  0  0  0  0  0  0
   -1.3427   -2.8947    1.8547 O   0  0  0  0  0  0  0  0  0  0  0  0
   -1.7323   -1.1974    0.4169 N   0  0  0  0  0  0  0  0  0  0  0  0
   -2.4464   -0.7306   -0.1386 H   0  0  0  0  0  0  0  0  0  0  0  0
   -0.3963   -0.5776    0.4261 C   0  0  1  0  0  0  0  0  0  0  0  0
    0.1976   -1.0163    1.2345 H   0  0  0  0  0  0  0  0  0  0  0  0
    0.3812   -0.7534   -0.9110 C   0  0  0  0  0  0  0  0  0  0  0  0
    0.1443    0.1019   -1.5540 H   0  0  0  0  0  0  0  0  0  0  0  0
    1.4505   -0.6904   -0.6834 H   0  0  0  0  0  0  0  0  0  0  0  0
    0.1264   -2.0132   -1.7707 C   0  0  0  0  0  0  0  0  0  0  0  0
   -0.9283   -2.0682   -2.0593 H   0  0  0  0  0  0  0  0  0  0  0  0
    1.0087   -1.9295   -3.0257 C   0  0  0  0  0  0  0  0  0  0  0  0
    2.0696   -1.8877   -2.7578 H   0  0  0  0  0  0  0  0  0  0  0  0
    0.8465   -2.8011   -3.6676 H   0  0  0  0  0  0  0  0  0  0  0  0
    0.7625   -1.0336   -3.6044 H   0  0  0  0  0  0  0  0  0  0  0  0
    0.5468   -3.3065   -1.0539 C   0  0  0  0  0  0  0  0  0  0  0  0
   -0.0785   -3.5110   -0.1896 H   0  0  0  0  0  0  0  0  0  0  0  0
    0.4589   -4.1620   -1.7308 H   0  0  0  0  0  0  0  0  0  0  0  0
    1.5855   -3.2394   -0.7149 H   0  0  0  0  0  0  0  0  0  0  0  0
   -0.5272    0.9396    0.6766 C   0  0  0  0  0  0  0  0  0  0  0  0
   -1.3925    1.5881    0.0980 O   0  0  0  0  0  0  0  0  0  0  0  0
    0.3097    1.5721    1.5774 N   0  0  0  0  0  0  0  0  0  0  0  0
    0.9608    0.9921    2.0990 H   0  0  0  0  0  0  0  0  0  0  0  0
    0.2045    2.9873    1.9100 C   0  0  0  0  0  0  0  0  0  0  0  0
   -0.7702    3.2038    2.3596 H   0  0  0  0  0  0  0  0  0  0  0  0
    0.9851    3.2665    2.6241 H   0  0  0  0  0  0  0  0  0  0  0  0
    0.3235    3.6024    1.0117 H   0  0  0  0  0  0  0  0  0  0  0  0
  1  2  1  0  0  0  0
  2  3  1  0  0  0  0
  2  4  1  0  0  0  0
  2  5  1  0  0  0  0
  5  6  2  0  0  0  0
  5  7  1  0  0  0  0
  7  8  1  0  0  0  0
  7  9  1  0  0  0  0
  9 10  1  0  0  0  0
  9 11  1  0  0  0  0
  9 24  1  0  0  0  0
 11 12  1  0  0  0  0
 11 13  1  0  0  0  0
 11 14  1  0  0  0  0
 14 15  1  0  0  0  0
 14 16  1  0  0  0  0
 14 20  1  0  0  0  0
 16 17  1  0  0  0  0
 16 18  1  0  0  0  0
 16 19  1  0  0  0  0
 20 21  1  0  0  0  0
 20 22  1  0  0  0  0
 20 23  1  0  0  0  0
 24 25  2  0  0  0  0
 24 26  1  0  0  0  0
 26 27  1  0  0  0  0
 26 28  1  0  0  0  0
 28 29  1  0  0  0  0
 28 30  1  0  0  0  0
 28 31  1  0  0  0  0
M  END
$$$$

  -OEChem-03222214063D

 31 30  0     1  0  0  0  0  0999 V2000
   -3.6478   -3.8060    1.5231 H   0  0  0  0  0  0  0  0  0  0  0  0
   -3.5337   -2.8791    0.9541 C   0  0  0  0  0  0  0  0  0  0  0  0
   -4.2391   -2.1394    1.3402 H   0  0  0  0  0  0  0  0  0  0  0  0
   -3.7639   -3.0794   -0.0951 H   0  0  0  0  0  0  0  0  0  0  0  0
   -2.1146   -2.3583    1.0813 C   0  0  0  0  0  0  0  0  0  0  0  0
   -1.3125   -2.9450    1.7913 O   0  0  0  0  0  0  0  0  0  0  0  0
   -1.7541   -1.1966    0.4300 N   0  0  0  0  0  0  0  0  0  0  0  0
   -2.4889   -0.6900   -0.0604 H   0  0  0  0  0  0  0  0  0  0  0  0
   -0.4131   -0.5895    0.4222 C   0  0  1  0  0  0  0  0  0  0  0  0
    0.1795   -1.0250    1.2330 H   0  0  0  0  0  0  0  0  0  0  0  0
    0.3750   -0.7664   -0.9088 C   0  0  0  0  0  0  0  0  0  0  0  0
    0.1653    0.0973   -1.5501 H   0  0  0  0  0  0  0  0  0  0  0  0
    1.4371   -0.7129   -0.6467 H   0  0  0  0  0  0  0  0  0  0  0  0
    0.1546   -2.0124   -1.8047 C   0  0  0  0  0  0  0  0  0  0  0  0
   -0.7961   -1.9186   -2.3403 H   0  0  0  0  0  0  0  0  0  0  0  0
    1.3141   -2.0717   -2.8131 C   0  0  0  0  0  0  0  0  0  0  0  0
    2.2693   -2.2351   -2.3029 H   0  0  0  0  0  0  0  0  0  0  0  0
    1.1592   -2.8849   -3.5294 H   0  0  0  0  0  0  0  0  0  0  0  0
    1.3766   -1.1350   -3.3759 H   0  0  0  0  0  0  0  0  0  0  0  0
    0.1771   -3.3490   -1.0436 C   0  0  0  0  0  0  0  0  0  0  0  0
   -0.8314   -3.6383   -0.7480 H   0  0  0  0  0  0  0  0  0  0  0  0
    0.5611   -4.1579   -1.6731 H   0  0  0  0  0  0  0  0  0  0  0  0
    0.8100   -3.2809   -0.1531 H   0  0  0  0  0  0  0  0  0  0  0  0
   -0.5369    0.9288    0.6695 C   0  0  0  0  0  0  0  0  0  0  0  0
   -1.4132    1.5763    0.1062 O   0  0  0  0  0  0  0  0  0  0  0  0
    0.3106    1.5622    1.5596 N   0  0  0  0  0  0  0  0  0  0  0  0
    0.9791    0.9858    2.0630 H   0  0  0  0  0  0  0  0  0  0  0  0
    0.2142    2.9794    1.8865 C   0  0  0  0  0  0  0  0  0  0  0  0
   -0.7588    3.2029    2.3366 H   0  0  0  0  0  0  0  0  0  0  0  0
    0.9976    3.2573    2.5983 H   0  0  0  0  0  0  0  0  0  0  0  0
    0.3348    3.5897    0.9852 H   0  0  0  0  0  0  0  0  0  0  0  0
  1  2  1  0  0  0  0
  2  3  1  0  0  0  0
  2  4  1  0  0  0  0
  2  5  1  0  0  0  0
  5  6  2  0  0  0  0
  5  7  1  0  0  0  0
  7  8  1  0  0  0  0
  7  9  1  0  0  0  0
  9 10  1  0  0  0  0
  9 11  1  0  0  0  0
  9 24  1  0  0  0  0
 11 12  1  0  0  0  0
 11 13  1  0  0  0  0
 11 14  1  0  0  0  0
 14 15  1  0  0  0  0
 14 16  1  0  0  0  0
 14 20  1  0  0  0  0
 16 17  1  0  0  0  0
 16 18  1  0  0  0  0
 16 19  1  0  0  0  0
 20 21  1  0  0  0  0
 20 22  1  0  0  0  0
 20 23  1  0  0  0  0
 24 25  2  0  0  0  0
 24 26  1  0  0  0  0
 26 27  1  0  0  0  0
 26 28  1  0  0  0  0
 28 29  1  0  0  0  0
 28 30  1  0  0  0  0
 28 31  1  0  0  0  0
M  END
$$$$

  -OEChem-03222214063D

 31 30  0     1  0  0  0  0  0999 V2000
   -3.6872   -3.8000    1.5761 H   0  0  0  0  0  0  0  0  0  0  0  0
   -3.5796   -2.8592    1.0291 C   0  0  0  0  0  0  0  0  0  0  0  0
   -4.2634   -2.1220    1.4566 H   0  0  0  0  0  0  0  0  0  0  0  0
   -3.8452   -3.0291   -0.0170 H   0  0  0  0  0  0  0  0  0  0  0  0
   -2.1508   -2.3580    1.1263 C   0  0  0  0  0  0  0  0  0  0  0  0
   -1.3438   -2.9544    1.8221 O   0  0  0  0  0  0  0  0  0  0  0  0
   -1.7862   -1.2024    0.4649 N   0  0  0  0  0  0  0  0  0  0  0  0
   -2.5227   -0.6871   -0.0139 H   0  0  0  0  0  0  0  0  0  0  0  0
   -0.4404   -0.6056    0.4433 C   0  0  1  0  0  0  0  0  0  0  0  0
    0.1492   -1.0383    1.2580 H   0  0  0  0  0  0  0  0  0  0  0  0
    0.3684   -0.7707   -0.8820 C   0  0  0  0  0  0  0  0  0  0  0  0
    0.1775    0.1058   -1.5119 H   0  0  0  0  0  0  0  0  0  0  0  0
    1.4207   -0.7112   -0.5838 H   0  0  0  0  0  0  0  0  0  0  0  0
    0.2037   -1.9913   -1.8338 C   0  0  0  0  0  0  0  0  0  0  0  0
   -0.5686   -1.7631   -2.5764 H   0  0  0  0  0  0  0  0  0  0  0  0
    1.5501   -2.2196   -2.5418 C   0  0  0  0  0  0  0  0  0  0  0  0
    2.3199   -2.5313   -1.8282 H   0  0  0  0  0  0  0  0  0  0  0  0
    1.4547   -2.9940   -3.3095 H   0  0  0  0  0  0  0  0  0  0  0  0
    1.8820   -1.2989   -3.0320 H   0  0  0  0  0  0  0  0  0  0  0  0
   -0.1438   -3.3286   -1.1659 C   0  0  0  0  0  0  0  0  0  0  0  0
    0.1490   -4.1723   -1.7989 H   0  0  0  0  0  0  0  0  0  0  0  0
   -1.2208   -3.4113   -1.0173 H   0  0  0  0  0  0  0  0  0  0  0  0
    0.3724   -3.4297   -0.2063 H   0  0  0  0  0  0  0  0  0  0  0  0
   -0.5660    0.9142    0.6843 C   0  0  0  0  0  0  0  0  0  0  0  0
   -1.4467    1.5573    0.1225 O   0  0  0  0  0  0  0  0  0  0  0  0
    0.2853    1.5543    1.5660 N   0  0  0  0  0  0  0  0  0  0  0  0
    0.9572    0.9820    2.0694 H   0  0  0  0  0  0  0  0  0  0  0  0
    0.1872    2.9731    1.8857 C   0  0  0  0  0  0  0  0  0  0  0  0
   -0.7847    3.1974    2.3376 H   0  0  0  0  0  0  0  0  0  0  0  0
    0.9721    3.2566    2.5935 H   0  0  0  0  0  0  0  0  0  0  0  0
    0.3034    3.5789    0.9808 H   0  0  0  0  0  0  0  0  0  0  0  0
  1  2  1  0  0  0  0
  2  3  1  0  0  0  0
  2  4  1  0  0  0  0
  2  5  1  0  0  0  0
  5  6  2  0  0  0  0
  5  7  1  0  0  0  0
  7  8  1  0  0  0  0
  7  9  1  0  0  0  0
  9 10  1  0  0  0  0
  9 11  1  0  0  0  0
  9 24  1  0  0  0  0
 11 12  1  0  0  0  0
 11 13  1  0  0  0  0
 11 14  1  0  0  0  0
 14 15  1  0  0  0  0
 14 16  1  0  0  0  0
 14 20  1  0  0  0  0
 16 17  1  0  0  0  0
 16 18  1  0  0  0  0
 16 19  1  0  0  0  0
 20 21  1  0  0  0  0
 20 22  1  0  0  0  0
 20 23  1  0  0  0  0
 24 25  2  0  0  0  0
 24 26  1  0  0  0  0
 26 27  1  0  0  0  0
 26 28  1  0  0  0  0
 28 29  1  0  0  0  0
 28 30  1  0  0  0  0
 28 31  1  0  0  0  0
M  END
$$$$

  -OEChem-03222214063D

 31 30  0     1  0  0  0  0  0999 V2000
   -3.7297   -3.7672    1.5973 H   0  0  0  0  0  0  0  0  0  0  0  0
   -3.6219   -2.8099    1.0797 C   0  0  0  0  0  0  0  0  0  0  0  0
   -4.2829   -2.0778    1.5499 H   0  0  0  0  0  0  0  0  0  0  0  0
   -3.9171   -2.9399    0.0358 H   0  0  0  0  0  0  0  0  0  0  0  0
   -2.1837   -2.3330    1.1568 C   0  0  0  0  0  0  0  0  0  0  0  0
   -1.3788   -2.9409    1.8451 O   0  0  0  0  0  0  0  0  0  0  0  0
   -1.8103   -1.1819    0.4911 N   0  0  0  0  0  0  0  0  0  0  0  0
   -2.5434   -0.6573    0.0171 H   0  0  0  0  0  0  0  0  0  0  0  0
   -0.4564   -0.6059    0.4585 C   0  0  1  0  0  0  0  0  0  0  0  0
    0.1258   -1.0431    1.2759 H   0  0  0  0  0  0  0  0  0  0  0  0
    0.3686   -0.7802   -0.8587 C   0  0  0  0  0  0  0  0  0  0  0  0
    0.1760    0.0983   -1.4849 H   0  0  0  0  0  0  0  0  0  0  0  0
    1.4162   -0.7030   -0.5493 H   0  0  0  0  0  0  0  0  0  0  0  0
    0.2352   -1.9884   -1.8409 C   0  0  0  0  0  0  0  0  0  0  0  0
   -0.2832   -1.6379   -2.7401 H   0  0  0  0  0  0  0  0  0  0  0  0
    1.6482   -2.4521   -2.2333 C   0  0  0  0  0  0  0  0  0  0  0  0
    2.1797   -2.8550   -1.3648 H   0  0  0  0  0  0  0  0  0  0  0  0
    1.6004   -3.2302   -3.0018 H   0  0  0  0  0  0  0  0  0  0  0  0
    2.2255   -1.6149   -2.6384 H   0  0  0  0  0  0  0  0  0  0  0  0
   -0.4986   -3.2391   -1.3491 C   0  0  0  0  0  0  0  0  0  0  0  0
   -1.5740   -3.0588   -1.3018 H   0  0  0  0  0  0  0  0  0  0  0  0
   -0.3484   -4.0715   -2.0436 H   0  0  0  0  0  0  0  0  0  0  0  0
   -0.1242   -3.5461   -0.3687 H   0  0  0  0  0  0  0  0  0  0  0  0
   -0.5645    0.9156    0.7013 C   0  0  0  0  0  0  0  0  0  0  0  0
   -1.4407    1.5686    0.1439 O   0  0  0  0  0  0  0  0  0  0  0  0
    0.2996    1.5474    1.5769 N   0  0  0  0  0  0  0  0  0  0  0  0
    0.9696    0.9689    2.0758 H   0  0  0  0  0  0  0  0  0  0  0  0
    0.2191    2.9679    1.8954 C   0  0  0  0  0  0  0  0  0  0  0  0
   -0.7485    3.2044    2.3506 H   0  0  0  0  0  0  0  0  0  0  0  0
    1.0098    3.2428    2.6003 H   0  0  0  0  0  0  0  0  0  0  0  0
    0.3398    3.5713    0.9894 H   0  0  0  0  0  0  0  0  0  0  0  0
  1  2  1  0  0  0  0
  2  3  1  0  0  0  0
  2  4  1  0  0  0  0
  2  5  1  0  0  0  0
  5  6  2  0  0  0  0
  5  7  1  0  0  0  0
  7  8  1  0  0  0  0
  7  9  1  0  0  0  0
  9 10  1  0  0  0  0
  9 11  1  0  0  0  0
  9 24  1  0  0  0  0
 11 12  1  0  0  0  0
 11 13  1  0  0  0  0
 11 14  1  0  0  0  0
 14 15  1  0  0  0  0
 14 16  1  0  0  0  0
 14 20  1  0  0  0  0
 16 17  1  0  0  0  0
 16 18  1  0  0  0  0
 16 19  1  0  0  0  0
 20 21  1  0  0  0  0
 20 22  1  0  0  0  0
 20 23  1  0  0  0  0
 24 25  2  0  0  0  0
 24 26  1  0  0  0  0
 26 27  1  0  0  0  0
 26 28  1  0  0  0  0
 28 29  1  0  0  0  0
 28 30  1  0  0  0  0
 28 31  1  0  0  0  0
M  END
$$$$

  -OEChem-03222214063D

 31 30  0     1  0  0  0  0  0999 V2000
   -3.7143   -3.7468    1.6736 H   0  0  0  0  0  0  0  0  0  0  0  0
   -3.6142   -2.7948    1.1452 C   0  0  0  0  0  0  0  0  0  0  0  0
   -4.2628   -2.0563    1.6223 H   0  0  0  0  0  0  0  0  0  0  0  0
   -3.9313   -2.9331    0.1089 H   0  0  0  0  0  0  0  0  0  0  0  0
   -2.1735   -2.3217    1.1866 C   0  0  0  0  0  0  0  0  0  0  0  0
   -1.3479   -2.9421    1.8387 O   0  0  0  0  0  0  0  0  0  0  0  0
   -1.8155   -1.1688    0.5162 N   0  0  0  0  0  0  0  0  0  0  0  0
   -2.5603   -0.6353    0.0712 H   0  0  0  0  0  0  0  0  0  0  0  0
   -0.4635   -0.5929    0.4610 C   0  0  1  0  0  0  0  0  0  0  0  0
    0.1245   -1.0255    1.2768 H   0  0  0  0  0  0  0  0  0  0  0  0
    0.3624   -0.7799   -0.8546 C   0  0  0  0  0  0  0  0  0  0  0  0
    0.1300    0.0846   -1.4870 H   0  0  0  0  0  0  0  0  0  0  0  0
    1.4129   -0.6628   -0.5687 H   0  0  0  0  0  0  0  0  0  0  0  0
    0.2436   -1.9969   -1.8316 C   0  0  0  0  0  0  0  0  0  0  0  0
    0.0207   -1.5848   -2.8222 H   0  0  0  0  0  0  0  0  0  0  0  0
    1.6067   -2.6999   -1.9252 C   0  0  0  0  0  0  0  0  0  0  0  0
    1.8847   -3.1282   -0.9566 H   0  0  0  0  0  0  0  0  0  0  0  0
    1.5747   -3.5064   -2.6646 H   0  0  0  0  0  0  0  0  0  0  0  0
    2.3844   -1.9933   -2.2316 H   0  0  0  0  0  0  0  0  0  0  0  0
   -0.8123   -3.0731   -1.5700 C   0  0  0  0  0  0  0  0  0  0  0  0
   -1.8167   -2.6435   -1.5855 H   0  0  0  0  0  0  0  0  0  0  0  0
   -0.7746   -3.8352   -2.3545 H   0  0  0  0  0  0  0  0  0  0  0  0
   -0.6292   -3.5707   -0.6147 H   0  0  0  0  0  0  0  0  0  0  0  0
   -0.5676    0.9280    0.7076 C   0  0  0  0  0  0  0  0  0  0  0  0
   -1.4552    1.5811    0.1688 O   0  0  0  0  0  0  0  0  0  0  0  0
    0.3118    1.5577    1.5691 N   0  0  0  0  0  0  0  0  0  0  0  0
    0.9896    0.9774    2.0550 H   0  0  0  0  0  0  0  0  0  0  0  0
    0.2360    2.9766    1.8947 C   0  0  0  0  0  0  0  0  0  0  0  0
   -0.7270    3.2124    2.3596 H   0  0  0  0  0  0  0  0  0  0  0  0
    1.0332    3.2470    2.5938 H   0  0  0  0  0  0  0  0  0  0  0  0
    0.3493    3.5839    0.9905 H   0  0  0  0  0  0  0  0  0  0  0  0
  1  2  1  0  0  0  0
  2  3  1  0  0  0  0
  2  4  1  0  0  0  0
  2  5  1  0  0  0  0
  5  6  2  0  0  0  0
  5  7  1  0  0  0  0
  7  8  1  0  0  0  0
  7  9  1  0  0  0  0
  9 10  1  0  0  0  0
  9 11  1  0  0  0  0
  9 24  1  0  0  0  0
 11 12  1  0  0  0  0
 11 13  1  0  0  0  0
 11 14  1  0  0  0  0
 14 15  1  0  0  0  0
 14 16  1  0  0  0  0
 14 20  1  0  0  0  0
 16 17  1  0  0  0  0
 16 18  1  0  0  0  0
 16 19  1  0  0  0  0
 20 21  1  0  0  0  0
 20 22  1  0  0  0  0
 20 23  1  0  0  0  0
 24 25  2  0  0  0  0
 24 26  1  0  0  0  0
 26 27  1  0  0  0  0
 26 28  1  0  0  0  0
 28 29  1  0  0  0  0
 28 30  1  0  0  0  0
 28 31  1  0  0  0  0
M  END
$$$$

  -OEChem-03222214063D

 31 30  0     1  0  0  0  0  0999 V2000
   -3.6878   -3.7432    1.7184 H   0  0  0  0  0  0  0  0  0  0  0  0
   -3.5964   -2.8067    1.1610 C   0  0  0  0  0  0  0  0  0  0  0  0
   -4.2376   -2.0548    1.6273 H   0  0  0  0  0  0  0  0  0  0  0  0
   -3.9299   -2.9745    0.1340 H   0  0  0  0  0  0  0  0  0  0  0  0
   -2.1548   -2.3337    1.1657 C   0  0  0  0  0  0  0  0  0  0  0  0
   -1.3053   -2.9775    1.7618 O   0  0  0  0  0  0  0  0  0  0  0  0
   -1.8162   -1.1694    0.5057 N   0  0  0  0  0  0  0  0  0  0  0  0
   -2.5731   -0.6221    0.0996 H   0  0  0  0  0  0  0  0  0  0  0  0
   -0.4702   -0.5809    0.4546 C   0  0  1  0  0  0  0  0  0  0  0  0
    0.1171   -1.0136    1.2708 H   0  0  0  0  0  0  0  0  0  0  0  0
    0.3648   -0.7692   -0.8520 C   0  0  0  0  0  0  0  0  0  0  0  0
    0.1044    0.0805   -1.4933 H   0  0  0  0  0  0  0  0  0  0  0  0
    1.4170   -0.6281   -0.5839 H   0  0  0  0  0  0  0  0  0  0  0  0
    0.2497   -1.9992   -1.8064 C   0  0  0  0  0  0  0  0  0  0  0  0
    0.3395   -1.5913   -2.8195 H   0  0  0  0  0  0  0  0  0  0  0  0
    1.4619   -2.9185   -1.6111 C   0  0  0  0  0  0  0  0  0  0  0  0
    1.4682   -3.3282   -0.5958 H   0  0  0  0  0  0  0  0  0  0  0  0
    1.4300   -3.7507   -2.3214 H   0  0  0  0  0  0  0  0  0  0  0  0
    2.3950   -2.3698   -1.7730 H   0  0  0  0  0  0  0  0  0  0  0  0
   -1.0332   -2.8338   -1.8204 C   0  0  0  0  0  0  0  0  0  0  0  0
   -1.9151   -2.1909   -1.8886 H   0  0  0  0  0  0  0  0  0  0  0  0
   -1.0346   -3.4941   -2.6932 H   0  0  0  0  0  0  0  0  0  0  0  0
   -1.0984   -3.4653   -0.9322 H   0  0  0  0  0  0  0  0  0  0  0  0
   -0.5790    0.9366    0.7163 C   0  0  0  0  0  0  0  0  0  0  0  0
   -1.4750    1.5890    0.1912 O   0  0  0  0  0  0  0  0  0  0  0  0
    0.2997    1.5622    1.5815 N   0  0  0  0  0  0  0  0  0  0  0  0
    0.9896    0.9831    2.0516 H   0  0  0  0  0  0  0  0  0  0  0  0
    0.2224    2.9791    1.9146 C   0  0  0  0  0  0  0  0  0  0  0  0
   -0.7396    3.2105    2.3837 H   0  0  0  0  0  0  0  0  0  0  0  0
    1.0213    3.2477    2.6125 H   0  0  0  0  0  0  0  0  0  0  0  0
    0.3318    3.5909    1.0129 H   0  0  0  0  0  0  0  0  0  0  0  0
  1  2  1  0  0  0  0
  2  3  1  0  0  0  0
  2  4  1  0  0  0  0
  2  5  1  0  0  0  0
  5  6  2  0  0  0  0
  5  7  1  0  0  0  0
  7  8  1  0  0  0  0
  7  9  1  0  0  0  0
  9 10  1  0  0  0  0
  9 11  1  0  0  0  0
  9 24  1  0  0  0  0
 11 12  1  0  0  0  0
 11 13  1  0  0  0  0
 11 14  1  0  0  0  0
 14 15  1  0  0  0  0
 14 16  1  0  0  0  0
 14 20  1  0  0  0  0
 16 17  1  0  0  0  0
 16 18  1  0  0  0  0
 16 19  1  0  0  0  0
 20 21  1  0  0  0  0
 20 22  1  0  0  0  0
 20 23  1  0  0  0  0
 24 25  2  0  0  0  0
 24 26  1  0  0  0  0
 26 27  1  0  0  0  0
 26 28  1  0  0  0  0
 28 29  1  0  0  0  0
 28 30  1  0  0  0  0
 28 31  1  0  0  0  0
M  END
$$$$

  -OEChem-03222214063D

 31 30  0     1  0  0  0  0  0999 V2000
   -3.6704   -3.7802    1.6111 H   0  0  0  0  0  0  0  0  0  0  0  0
   -3.5859   -2.8200    1.0947 C   0  0  0  0  0  0  0  0  0  0  0  0
   -4.2135   -2.0873    1.6074 H   0  0  0  0  0  0  0  0  0  0  0  0
   -3.9415   -2.9399    0.0685 H   0  0  0  0  0  0  0  0  0  0  0  0
   -2.1425   -2.3533    1.0913 C   0  0  0  0  0  0  0  0  0  0  0  0
   -1.2862   -3.0200    1.6513 O   0  0  0  0  0  0  0  0  0  0  0  0
   -1.8093   -1.1726    0.4585 N   0  0  0  0  0  0  0  0  0  0  0  0
   -2.5695   -0.6114    0.0782 H   0  0  0  0  0  0  0  0  0  0  0  0
   -0.4686   -0.5719    0.4433 C   0  0  1  0  0  0  0  0  0  0  0  0
    0.1061   -1.0133    1.2636 H   0  0  0  0  0  0  0  0  0  0  0  0
    0.3827   -0.7519   -0.8496 C   0  0  0  0  0  0  0  0  0  0  0  0
    0.1325    0.0961   -1.4971 H   0  0  0  0  0  0  0  0  0  0  0  0
    1.4352   -0.6264   -0.5755 H   0  0  0  0  0  0  0  0  0  0  0  0
    0.2530   -1.9921   -1.7784 C   0  0  0  0  0  0  0  0  0  0  0  0
    0.6271   -1.6516   -2.7502 H   0  0  0  0  0  0  0  0  0  0  0  0
    1.2163   -3.0953   -1.3285 C   0  0  0  0  0  0  0  0  0  0  0  0
    0.9419   -3.4563   -0.3319 H   0  0  0  0  0  0  0  0  0  0  0  0
    1.1824   -3.9388   -2.0249 H   0  0  0  0  0  0  0  0  0  0  0  0
    2.2444   -2.7218   -1.2939 H   0  0  0  0  0  0  0  0  0  0  0  0
   -1.1440   -2.5515   -2.0685 C   0  0  0  0  0  0  0  0  0  0  0  0
   -1.8685   -1.7402   -2.1875 H   0  0  0  0  0  0  0  0  0  0  0  0
   -1.4738   -3.2249   -1.2754 H   0  0  0  0  0  0  0  0  0  0  0  0
   -1.1243   -3.1277   -2.9987 H   0  0  0  0  0  0  0  0  0  0  0  0
   -0.5856    0.9395    0.7304 C   0  0  0  0  0  0  0  0  0  0  0  0
   -1.4761    1.5975    0.2031 O   0  0  0  0  0  0  0  0  0  0  0  0
    0.2761    1.5522    1.6215 N   0  0  0  0  0  0  0  0  0  0  0  0
    0.9640    0.9680    2.0886 H   0  0  0  0  0  0  0  0  0  0  0  0
    0.1915    2.9637    1.9757 C   0  0  0  0  0  0  0  0  0  0  0  0
   -0.7781    3.1872    2.4329 H   0  0  0  0  0  0  0  0  0  0  0  0
    0.9788    3.2218    2.6905 H   0  0  0  0  0  0  0  0  0  0  0  0
    0.3145    3.5898    1.0856 H   0  0  0  0  0  0  0  0  0  0  0  0
  1  2  1  0  0  0  0
  2  3  1  0  0  0  0
  2  4  1  0  0  0  0
  2  5  1  0  0  0  0
  5  6  2  0  0  0  0
  5  7  1  0  0  0  0
  7  8  1  0  0  0  0
  7  9  1  0  0  0  0
  9 10  1  0  0  0  0
  9 11  1  0  0  0  0
  9 24  1  0  0  0  0
 11 12  1  0  0  0  0
 11 13  1  0  0  0  0
 11 14  1  0  0  0  0
 14 15  1  0  0  0  0
 14 16  1  0  0  0  0
 14 20  1  0  0  0  0
 16 17  1  0  0  0  0
 16 18  1  0  0  0  0
 16 19  1  0  0  0  0
 20 21  1  0  0  0  0
 20 22  1  0  0  0  0
 20 23  1  0  0  0  0
 24 25  2  0  0  0  0
 24 26  1  0  0  0  0
 26 27  1  0  0  0  0
 26 28  1  0  0  0  0
 28 29  1  0  0  0  0
 28 30  1  0  0  0  0
 28 31  1  0  0  0  0
M  END
$$$$

  -OEChem-03222214063D

 31 30  0     1  0  0  0  0  0999 V2000
   -3.5967   -3.8373    1.5686 H   0  0  0  0  0  0  0  0  0  0  0  0
   -3.5283   -2.8612    1.0803 C   0  0  0  0  0  0  0  0  0  0  0  0
   -4.1807   -2.1581    1.6036 H   0  0  0  0  0  0  0  0  0  0  0  0
   -3.8669   -2.9613    0.0464 H   0  0  0  0  0  0  0  0  0  0  0  0
   -2.0970   -2.3596    1.1126 C   0  0  0  0  0  0  0  0  0  0  0  0
   -1.2513   -2.9810    1.7362 O   0  0  0  0  0  0  0  0  0  0  0  0
   -1.7748   -1.1791    0.4740 N   0  0  0  0  0  0  0  0  0  0  0  0
   -2.5356   -0.6513    0.0499 H   0  0  0  0  0  0  0  0  0  0  0  0
   -0.4408   -0.5637    0.4411 C   0  0  1  0  0  0  0  0  0  0  0  0
    0.1572   -1.0010    1.2472 H   0  0  0  0  0  0  0  0  0  0  0  0
    0.3672   -0.7380   -0.8797 C   0  0  0  0  0  0  0  0  0  0  0  0
    0.1190    0.1144   -1.5221 H   0  0  0  0  0  0  0  0  0  0  0  0
    1.4295   -0.6395   -0.6336 H   0  0  0  0  0  0  0  0  0  0  0  0
    0.1905   -1.9856   -1.7839 C   0  0  0  0  0  0  0  0  0  0  0  0
    0.7468   -1.7529   -2.6985 H   0  0  0  0  0  0  0  0  0  0  0  0
    0.8712   -3.2143   -1.1730 C   0  0  0  0  0  0  0  0  0  0  0  0
    0.3833   -3.5063   -0.2401 H   0  0  0  0  0  0  0  0  0  0  0  0
    0.8217   -4.0591   -1.8668 H   0  0  0  0  0  0  0  0  0  0  0  0
    1.9242   -3.0045   -0.9620 H   0  0  0  0  0  0  0  0  0  0  0  0
   -1.2391   -2.2989   -2.2452 C   0  0  0  0  0  0  0  0  0  0  0  0
   -1.7945   -1.3749   -2.4333 H   0  0  0  0  0  0  0  0  0  0  0  0
   -1.2089   -2.8758   -3.1748 H   0  0  0  0  0  0  0  0  0  0  0  0
   -1.7763   -2.8965   -1.5066 H   0  0  0  0  0  0  0  0  0  0  0  0
   -0.5669    0.9478    0.7235 C   0  0  0  0  0  0  0  0  0  0  0  0
   -1.4641    1.5985    0.1984 O   0  0  0  0  0  0  0  0  0  0  0  0
    0.3006    1.5699    1.6021 N   0  0  0  0  0  0  0  0  0  0  0  0
    0.9908    0.9899    2.0708 H   0  0  0  0  0  0  0  0  0  0  0  0
    0.2033    2.9796    1.9598 C   0  0  0  0  0  0  0  0  0  0  0  0
   -0.7690    3.1933    2.4160 H   0  0  0  0  0  0  0  0  0  0  0  0
    0.9869    3.2423    2.6769 H   0  0  0  0  0  0  0  0  0  0  0  0
    0.3224    3.6093    1.0719 H   0  0  0  0  0  0  0  0  0  0  0  0
  1  2  1  0  0  0  0
  2  3  1  0  0  0  0
  2  4  1  0  0  0  0
  2  5  1  0  0  0  0
  5  6  2  0  0  0  0
  5  7  1  0  0  0  0
  7  8  1  0  0  0  0
  7  9  1  0  0  0  0
  9 10  1  0  0  0  0
  9 11  1  0  0  0  0
  9 24  1  0  0  0  0
 11 12  1  0  0  0  0
 11 13  1  0  0  0  0
 11 14  1  0  0  0  0
 14 15  1  0  0  0  0
 14 16  1  0  0  0  0
 14 20  1  0  0  0  0
 16 17  1  0  0  0  0
 16 18  1  0  0  0  0
 16 19  1  0  0  0  0
 20 21  1  0  0  0  0
 20 22  1  0  0  0  0
 20 23  1  0  0  0  0
 24 25  2  0  0  0  0
 24 26  1  0  0  0  0
 26 27  1  0  0  0  0
 26 28  1  0  0  0  0
 28 29  1  0  0  0  0
 28 30  1  0  0  0  0
 28 31  1  0  0  0  0
M  END
$$$$

  -OEChem-03222214063D

 31 30  0     1  0  0  0  0  0999 V2000
   -3.5963   -3.8183    1.6325 H   0  0  0  0  0  0  0  0  0  0  0  0
   -3.5016   -2.9000    1.0462 C   0  0  0  0  0  0  0  0  0  0  0  0
   -4.2099   -2.1621    1.4304 H   0  0  0  0  0  0  0  0  0  0  0  0
   -3.7452   -3.1211    0.0045 H   0  0  0  0  0  0  0  0  0  0  0  0
   -2.0870   -2.3603    1.1451 C   0  0  0  0  0  0  0  0  0  0  0  0
   -1.2652   -2.9362    1.8411 O   0  0  0  0  0  0  0  0  0  0  0  0
   -1.7584   -1.1863    0.4988 N   0  0  0  0  0  0  0  0  0  0  0  0
   -2.5070   -0.6923    0.0168 H   0  0  0  0  0  0  0  0  0  0  0  0
   -0.4251   -0.5680    0.4605 C   0  0  1  0  0  0  0  0  0  0  0  0
    0.1843   -1.0033    1.2589 H   0  0  0  0  0  0  0  0  0  0  0  0
    0.3574   -0.7312   -0.8782 C   0  0  0  0  0  0  0  0  0  0  0  0
    0.1289    0.1363   -1.5078 H   0  0  0  0  0  0  0  0  0  0  0  0
    1.4227   -0.6629   -0.6351 H   0  0  0  0  0  0  0  0  0  0  0  0
    0.1642   -1.9679   -1.7923 C   0  0  0  0  0  0  0  0  0  0  0  0
    0.8859   -1.8408   -2.6065 H   0  0  0  0  0  0  0  0  0  0  0  0
    0.5149   -3.2881   -1.0984 C   0  0  0  0  0  0  0  0  0  0  0  0
   -0.2704   -3.6005   -0.4110 H   0  0  0  0  0  0  0  0  0  0  0  0
    0.6399   -4.0792   -1.8441 H   0  0  0  0  0  0  0  0  0  0  0  0
    1.4509   -3.1918   -0.5396 H   0  0  0  0  0  0  0  0  0  0  0  0
   -1.2203   -2.0470   -2.4527 C   0  0  0  0  0  0  0  0  0  0  0  0
   -1.5156   -1.0683   -2.8431 H   0  0  0  0  0  0  0  0  0  0  0  0
   -1.1925   -2.7545   -3.2872 H   0  0  0  0  0  0  0  0  0  0  0  0
   -1.9846   -2.3897   -1.7529 H   0  0  0  0  0  0  0  0  0  0  0  0
   -0.5577    0.9456    0.7310 C   0  0  0  0  0  0  0  0  0  0  0  0
   -1.4487    1.5918    0.1898 O   0  0  0  0  0  0  0  0  0  0  0  0
    0.3070    1.5789    1.6049 N   0  0  0  0  0  0  0  0  0  0  0  0
    0.9885    1.0032    2.0913 H   0  0  0  0  0  0  0  0  0  0  0  0
    0.2051    2.9923    1.9468 C   0  0  0  0  0  0  0  0  0  0  0  0
   -0.7637    3.2057    2.4104 H   0  0  0  0  0  0  0  0  0  0  0  0
    0.9947    3.2688    2.6521 H   0  0  0  0  0  0  0  0  0  0  0  0
    0.3112    3.6116    1.0499 H   0  0  0  0  0  0  0  0  0  0  0  0
  1  2  1  0  0  0  0
  2  3  1  0  0  0  0
  2  4  1  0  0  0  0
  2  5  1  0  0  0  0
  5  6  2  0  0  0  0
  5  7  1  0  0  0  0
  7  8  1  0  0  0  0
  7  9  1  0  0  0  0
  9 10  1  0  0  0  0
  9 11  1  0  0  0  0
  9 24  1  0  0  0  0
 11 12  1  0  0  0  0
 11 13  1  0  0  0  0
 11 14  1  0  0  0  0
 14 15  1  0  0  0  0
 14 16  1  0  0  0  0
 14 20  1  0  0  0  0
 16 17  1  0  0  0  0
 16 18  1  0  0  0  0
 16 19  1  0  0  0  0
 20 21  1  0  0  0  0
 20 22  1  0  0  0  0
 20 23  1  0  0  0  0
 24 25  2  0  0  0  0
 24 26  1  0  0  0  0
 26 27  1  0  0  0  0
 26 28  1  0  0  0  0
 28 29  1  0  0  0  0
 28 30  1  0  0  0  0
 28 31  1  0  0  0  0
M  END
$$$$

  -OEChem-03222214063D

 31 30  0     1  0  0  0  0  0999 V2000
   -3.5901   -3.8355    1.6104 H   0  0  0  0  0  0  0  0  0  0  0  0
   -3.4980   -2.9094    1.0359 C   0  0  0  0  0  0  0  0  0  0  0  0
   -4.2100   -2.1791    1.4277 H   0  0  0  0  0  0  0  0  0  0  0  0
   -3.7380   -3.1183   -0.0095 H   0  0  0  0  0  0  0  0  0  0  0  0
   -2.0858   -2.3656    1.1428 C   0  0  0  0  0  0  0  0  0  0  0  0
   -1.2579   -2.9508    1.8239 O   0  0  0  0  0  0  0  0  0  0  0  0
   -1.7571   -1.1922    0.4961 N   0  0  0  0  0  0  0  0  0  0  0  0
   -2.5083   -0.6933    0.0233 H   0  0  0  0  0  0  0  0  0  0  0  0
   -0.4247   -0.5698    0.4594 C   0  0  1  0  0  0  0  0  0  0  0  0
    0.1863   -1.0034    1.2575 H   0  0  0  0  0  0  0  0  0  0  0  0
    0.3551   -0.7265   -0.8819 C   0  0  0  0  0  0  0  0  0  0  0  0
    0.1496    0.1523   -1.5038 H   0  0  0  0  0  0  0  0  0  0  0  0
    1.4185   -0.6782   -0.6264 H   0  0  0  0  0  0  0  0  0  0  0  0
    0.1659   -1.9601   -1.8029 C   0  0  0  0  0  0  0  0  0  0  0  0
    1.0239   -1.9641   -2.4837 H   0  0  0  0  0  0  0  0  0  0  0  0
    0.1614   -3.3115   -1.0782 C   0  0  0  0  0  0  0  0  0  0  0  0
   -0.8438   -3.5998   -0.7680 H   0  0  0  0  0  0  0  0  0  0  0  0
    0.5300   -4.0914   -1.7514 H   0  0  0  0  0  0  0  0  0  0  0  0
    0.8134   -3.2824   -0.1997 H   0  0  0  0  0  0  0  0  0  0  0  0
   -1.0971   -1.8310   -2.6671 C   0  0  0  0  0  0  0  0  0  0  0  0
   -1.0728   -0.9008   -3.2431 H   0  0  0  0  0  0  0  0  0  0  0  0
   -1.1579   -2.6666   -3.3714 H   0  0  0  0  0  0  0  0  0  0  0  0
   -2.0017   -1.8337   -2.0539 H   0  0  0  0  0  0  0  0  0  0  0  0
   -0.5630    0.9438    0.7278 C   0  0  0  0  0  0  0  0  0  0  0  0
   -1.4597    1.5860    0.1912 O   0  0  0  0  0  0  0  0  0  0  0  0
    0.2989    1.5789    1.6028 N   0  0  0  0  0  0  0  0  0  0  0  0
    0.9864    1.0058    2.0837 H   0  0  0  0  0  0  0  0  0  0  0  0
    0.1973    2.9927    1.9428 C   0  0  0  0  0  0  0  0  0  0  0  0
   -0.7734    3.2080    2.4016 H   0  0  0  0  0  0  0  0  0  0  0  0
    0.9839    3.2681    2.6519 H   0  0  0  0  0  0  0  0  0  0  0  0
    0.3090    3.6114    1.0462 H   0  0  0  0  0  0  0  0  0  0  0  0
  1  2  1  0  0  0  0
  2  3  1  0  0  0  0
  2  4  1  0  0  0  0
  2  5  1  0  0  0  0
  5  6  2  0  0  0  0
  5  7  1  0  0  0  0
  7  8  1  0  0  0  0
  7  9  1  0  0  0  0
  9 10  1  0  0  0  0
  9 11  1  0  0  0  0
  9 24  1  0  0  0  0
 11 12  1  0  0  0  0
 11 13  1  0  0  0  0
 11 14  1  0  0  0  0
 14 15  1  0  0  0  0
 14 16  1  0  0  0  0
 14 20  1  0  0  0  0
 16 17  1  0  0  0  0
 16 18  1  0  0  0  0
 16 19  1  0  0  0  0
 20 21  1  0  0  0  0
 20 22  1  0  0  0  0
 20 23  1  0  0  0  0
 24 25  2  0  0  0  0
 24 26  1  0  0  0  0
 26 27  1  0  0  0  0
 26 28  1  0  0  0  0
 28 29  1  0  0  0  0
 28 30  1  0  0  0  0
 28 31  1  0  0  0  0
M  END
$$$$

  -OEChem-03222214063D

 31 30  0     1  0  0  0  0  0999 V2000
   -3.5987   -3.8682    1.6005 H   0  0  0  0  0  0  0  0  0  0  0  0
   -3.5176   -2.9178    1.0658 C   0  0  0  0  0  0  0  0  0  0  0  0
   -4.2177   -2.2038    1.5060 H   0  0  0  0  0  0  0  0  0  0  0  0
   -3.7831   -3.0796    0.0183 H   0  0  0  0  0  0  0  0  0  0  0  0
   -2.1021   -2.3815    1.1637 C   0  0  0  0  0  0  0  0  0  0  0  0
   -1.2761   -2.9648    1.8484 O   0  0  0  0  0  0  0  0  0  0  0  0
   -1.7710   -1.2132    0.5080 N   0  0  0  0  0  0  0  0  0  0  0  0
   -2.5216   -0.7167    0.0314 H   0  0  0  0  0  0  0  0  0  0  0  0
   -0.4398   -0.5868    0.4762 C   0  0  1  0  0  0  0  0  0  0  0  0
    0.1673   -1.0114    1.2821 H   0  0  0  0  0  0  0  0  0  0  0  0
    0.3580   -0.7289   -0.8587 C   0  0  0  0  0  0  0  0  0  0  0  0
    0.1737    0.1653   -1.4650 H   0  0  0  0  0  0  0  0  0  0  0  0
    1.4147   -0.6854   -0.5754 H   0  0  0  0  0  0  0  0  0  0  0  0
    0.2113   -1.9470   -1.8150 C   0  0  0  0  0  0  0  0  0  0  0  0
    1.1753   -2.0684   -2.3209 H   0  0  0  0  0  0  0  0  0  0  0  0
   -0.1412   -3.2938   -1.1761 C   0  0  0  0  0  0  0  0  0  0  0  0
    0.1792   -4.1078   -1.8336 H   0  0  0  0  0  0  0  0  0  0  0  0
   -1.2171   -3.4019   -1.0295 H   0  0  0  0  0  0  0  0  0  0  0  0
    0.3750   -3.4115   -0.2186 H   0  0  0  0  0  0  0  0  0  0  0  0
   -0.8451   -1.6389   -2.8864 C   0  0  0  0  0  0  0  0  0  0  0  0
   -0.5583   -0.7561   -3.4664 H   0  0  0  0  0  0  0  0  0  0  0  0
   -0.9445   -2.4816   -3.5780 H   0  0  0  0  0  0  0  0  0  0  0  0
   -1.8198   -1.4493   -2.4257 H   0  0  0  0  0  0  0  0  0  0  0  0
   -0.5967    0.9279    0.7307 C   0  0  0  0  0  0  0  0  0  0  0  0
   -1.4927    1.5571    0.1775 O   0  0  0  0  0  0  0  0  0  0  0  0
    0.2500    1.5803    1.6079 N   0  0  0  0  0  0  0  0  0  0  0  0
    0.9378    1.0194    2.1028 H   0  0  0  0  0  0  0  0  0  0  0  0
    0.1422    3.0007    1.9173 C   0  0  0  0  0  0  0  0  0  0  0  0
   -0.8330    3.2237    2.3627 H   0  0  0  0  0  0  0  0  0  0  0  0
    0.9220    3.2932    2.6270 H   0  0  0  0  0  0  0  0  0  0  0  0
    0.2603    3.6003    1.0086 H   0  0  0  0  0  0  0  0  0  0  0  0
  1  2  1  0  0  0  0
  2  3  1  0  0  0  0
  2  4  1  0  0  0  0
  2  5  1  0  0  0  0
  5  6  2  0  0  0  0
  5  7  1  0  0  0  0
  7  8  1  0  0  0  0
  7  9  1  0  0  0  0
  9 10  1  0  0  0  0
  9 11  1  0  0  0  0
  9 24  1  0  0  0  0
 11 12  1  0  0  0  0
 11 13  1  0  0  0  0
 11 14  1  0  0  0  0
 14 15  1  0  0  0  0
 14 16  1  0  0  0  0
 14 20  1  0  0  0  0
 16 17  1  0  0  0  0
 16 18  1  0  0  0  0
 16 19  1  0  0  0  0
 20 21  1  0  0  0  0
 20 22  1  0  0  0  0
 20 23  1  0  0  0  0
 24 25  2  0  0  0  0
 24 26  1  0  0  0  0
 26 27  1  0  0  0  0
 26 28  1  0  0  0  0
 28 29  1  0  0  0  0
 28 30  1  0  0  0  0
 28 31  1  0  0  0  0
M  END
$$$$

  -OEChem-03222214063D

 31 30  0     1  0  0  0  0  0999 V2000
   -3.6502   -3.8305    1.6470 H   0  0  0  0  0  0  0  0  0  0  0  0
   -3.5695   -2.8676    1.1350 C   0  0  0  0  0  0  0  0  0  0  0  0
   -4.2403   -2.1531    1.6179 H   0  0  0  0  0  0  0  0  0  0  0  0
   -3.8742   -2.9969    0.0939 H   0  0  0  0  0  0  0  0  0  0  0  0
   -2.1415   -2.3594    1.1979 C   0  0  0  0  0  0  0  0  0  0  0  0
   -1.3156   -2.9499    1.8765 O   0  0  0  0  0  0  0  0  0  0  0  0
   -1.8012   -1.2005    0.5288 N   0  0  0  0  0  0  0  0  0  0  0  0
   -2.5512   -0.6919    0.0640 H   0  0  0  0  0  0  0  0  0  0  0  0
   -0.4603   -0.5966    0.4758 C   0  0  1  0  0  0  0  0  0  0  0  0
    0.1438   -1.0225    1.2832 H   0  0  0  0  0  0  0  0  0  0  0  0
    0.3436   -0.7543   -0.8566 C   0  0  0  0  0  0  0  0  0  0  0  0
    0.1672    0.1466   -1.4552 H   0  0  0  0  0  0  0  0  0  0  0  0
    1.3983   -0.7117   -0.5664 H   0  0  0  0  0  0  0  0  0  0  0  0
    0.2115   -1.9667   -1.8320 C   0  0  0  0  0  0  0  0  0  0  0  0
    1.2301   -2.2515   -2.1174 H   0  0  0  0  0  0  0  0  0  0  0  0
   -0.4779   -3.2363   -1.3298 C   0  0  0  0  0  0  0  0  0  0  0  0
   -1.5606   -3.1064   -1.2700 H   0  0  0  0  0  0  0  0  0  0  0  0
   -0.2847   -4.0608   -2.0229 H   0  0  0  0  0  0  0  0  0  0  0  0
   -0.0802   -3.5239   -0.3531 H   0  0  0  0  0  0  0  0  0  0  0  0
   -0.5219   -1.5234   -3.1072 C   0  0  0  0  0  0  0  0  0  0  0  0
    0.0178   -0.7076   -3.5982 H   0  0  0  0  0  0  0  0  0  0  0  0
   -0.5960   -2.3540   -3.8164 H   0  0  0  0  0  0  0  0  0  0  0  0
   -1.5332   -1.1783   -2.8685 H   0  0  0  0  0  0  0  0  0  0  0  0
   -0.5968    0.9218    0.7224 C   0  0  0  0  0  0  0  0  0  0  0  0
   -1.4936    1.5578    0.1782 O   0  0  0  0  0  0  0  0  0  0  0  0
    0.2682    1.5690    1.5854 N   0  0  0  0  0  0  0  0  0  0  0  0
    0.9563    1.0027    2.0734 H   0  0  0  0  0  0  0  0  0  0  0  0
    0.1708    2.9885    1.9009 C   0  0  0  0  0  0  0  0  0  0  0  0
   -0.7997    3.2144    2.3548 H   0  0  0  0  0  0  0  0  0  0  0  0
    0.9572    3.2738    2.6061 H   0  0  0  0  0  0  0  0  0  0  0  0
    0.2854    3.5912    0.9939 H   0  0  0  0  0  0  0  0  0  0  0  0
  1  2  1  0  0  0  0
  2  3  1  0  0  0  0
  2  4  1  0  0  0  0
  2  5  1  0  0  0  0
  5  6  2  0  0  0  0
  5  7  1  0  0  0  0
  7  8  1  0  0  0  0
  7  9  1  0  0  0  0
  9 10  1  0  0  0  0
  9 11  1  0  0  0  0
  9 24  1  0  0  0  0
 11 12  1  0  0  0  0
 11 13  1  0  0  0  0
 11 14  1  0  0  0  0
 14 15  1  0  0  0  0
 14 16  1  0  0  0  0
 14 20  1  0  0  0  0
 16 17  1  0  0  0  0
 16 18  1  0  0  0  0
 16 19  1  0  0  0  0
 20 21  1  0  0  0  0
 20 22  1  0  0  0  0
 20 23  1  0  0  0  0
 24 25  2  0  0  0  0
 24 26  1  0  0  0  0
 26 27  1  0  0  0  0
 26 28  1  0  0  0  0
 28 29  1  0  0  0  0
 28 30  1  0  0  0  0
 28 31  1  0  0  0  0
M  END
$$$$

  -OEChem-03222214063D

 31 30  0     1  0  0  0  0  0999 V2000
   -3.6556   -3.7976    1.7407 H   0  0  0  0  0  0  0  0  0  0  0  0
   -3.5805   -2.8445    1.2097 C   0  0  0  0  0  0  0  0  0  0  0  0
   -4.2307   -2.1151    1.6989 H   0  0  0  0  0  0  0  0  0  0  0  0
   -3.9157   -2.9887    0.1798 H   0  0  0  0  0  0  0  0  0  0  0  0
   -2.1464   -2.3496    1.2231 C   0  0  0  0  0  0  0  0  0  0  0  0
   -1.3009   -2.9523    1.8664 O   0  0  0  0  0  0  0  0  0  0  0  0
   -1.8183   -1.1914    0.5469 N   0  0  0  0  0  0  0  0  0  0  0  0
   -2.5785   -0.6718    0.1113 H   0  0  0  0  0  0  0  0  0  0  0  0
   -0.4755   -0.5970    0.4600 C   0  0  1  0  0  0  0  0  0  0  0  0
    0.1405   -1.0238    1.2578 H   0  0  0  0  0  0  0  0  0  0  0  0
    0.3142   -0.7659   -0.8809 C   0  0  0  0  0  0  0  0  0  0  0  0
    0.0936    0.1266   -1.4771 H   0  0  0  0  0  0  0  0  0  0  0  0
    1.3750   -0.6914   -0.6203 H   0  0  0  0  0  0  0  0  0  0  0  0
    0.1797   -1.9799   -1.8601 C   0  0  0  0  0  0  0  0  0  0  0  0
    1.1724   -2.4401   -1.9149 H   0  0  0  0  0  0  0  0  0  0  0  0
   -0.7873   -3.1152   -1.5202 C   0  0  0  0  0  0  0  0  0  0  0  0
   -1.8226   -2.7652   -1.5144 H   0  0  0  0  0  0  0  0  0  0  0  0
   -0.7093   -3.9106   -2.2680 H   0  0  0  0  0  0  0  0  0  0  0  0
   -0.5315   -3.5530   -0.5530 H   0  0  0  0  0  0  0  0  0  0  0  0
   -0.1679   -1.4738   -3.2690 C   0  0  0  0  0  0  0  0  0  0  0  0
    0.5743   -0.7438   -3.6077 H   0  0  0  0  0  0  0  0  0  0  0  0
   -0.1779   -2.3016   -3.9850 H   0  0  0  0  0  0  0  0  0  0  0  0
   -1.1541   -0.9982   -3.2741 H   0  0  0  0  0  0  0  0  0  0  0  0
   -0.5991    0.9217    0.7131 C   0  0  0  0  0  0  0  0  0  0  0  0
   -1.5105    1.5611    0.1980 O   0  0  0  0  0  0  0  0  0  0  0  0
    0.2898    1.5644    1.5549 N   0  0  0  0  0  0  0  0  0  0  0  0
    0.9912    0.9957    2.0210 H   0  0  0  0  0  0  0  0  0  0  0  0
    0.1976    2.9813    1.8842 C   0  0  0  0  0  0  0  0  0  0  0  0
   -0.7616    3.2016    2.3642 H   0  0  0  0  0  0  0  0  0  0  0  0
    1.0010    3.2627    2.5714 H   0  0  0  0  0  0  0  0  0  0  0  0
    0.2878    3.5913    0.9793 H   0  0  0  0  0  0  0  0  0  0  0  0
  1  2  1  0  0  0  0
  2  3  1  0  0  0  0
  2  4  1  0  0  0  0
  2  5  1  0  0  0  0
  5  6  2  0  0  0  0
  5  7  1  0  0  0  0
  7  8  1  0  0  0  0
  7  9  1  0  0  0  0
  9 10  1  0  0  0  0
  9 11  1  0  0  0  0
  9 24  1  0  0  0  0
 11 12  1  0  0  0  0
 11 13  1  0  0  0  0
 11 14  1  0  0  0  0
 14 15  1  0  0  0  0
 14 16  1  0  0  0  0
 14 20  1  0  0  0  0
 16 17  1  0  0  0  0
 16 18  1  0  0  0  0
 16 19  1  0  0  0  0
 20 21  1  0  0  0  0
 20 22  1  0  0  0  0
 20 23  1  0  0  0  0
 24 25  2  0  0  0  0
 24 26  1  0  0  0  0
 26 27  1  0  0  0  0
 26 28  1  0  0  0  0
 28 29  1  0  0  0  0
 28 30  1  0  0  0  0
 28 31  1  0  0  0  0
M  END
$$$$

  -OEChem-03222214063D

 31 30  0     1  0  0  0  0  0999 V2000
   -3.6583   -3.7806    1.7823 H   0  0  0  0  0  0  0  0  0  0  0  0
   -3.5861   -2.8453    1.2203 C   0  0  0  0  0  0  0  0  0  0  0  0
   -4.2279   -2.0985    1.6941 H   0  0  0  0  0  0  0  0  0  0  0  0
   -3.9338   -3.0208    0.1994 H   0  0  0  0  0  0  0  0  0  0  0  0
   -2.1503   -2.3562    1.2011 C   0  0  0  0  0  0  0  0  0  0  0  0
   -1.2856   -2.9824    1.7941 O   0  0  0  0  0  0  0  0  0  0  0  0
   -1.8362   -1.1891    0.5345 N   0  0  0  0  0  0  0  0  0  0  0  0
   -2.6062   -0.6569    0.1327 H   0  0  0  0  0  0  0  0  0  0  0  0
   -0.4960   -0.5919    0.4379 C   0  0  1  0  0  0  0  0  0  0  0  0
    0.1237   -1.0246    1.2297 H   0  0  0  0  0  0  0  0  0  0  0  0
    0.2919   -0.7622   -0.9027 C   0  0  0  0  0  0  0  0  0  0  0  0
    0.0269    0.1152   -1.5035 H   0  0  0  0  0  0  0  0  0  0  0  0
    1.3553   -0.6548   -0.6646 H   0  0  0  0  0  0  0  0  0  0  0  0
    0.1608   -1.9791   -1.8766 C   0  0  0  0  0  0  0  0  0  0  0  0
    1.0524   -2.5943   -1.7137 H   0  0  0  0  0  0  0  0  0  0  0  0
   -1.0244   -2.9372   -1.7356 C   0  0  0  0  0  0  0  0  0  0  0  0
   -1.9740   -2.3964   -1.7729 H   0  0  0  0  0  0  0  0  0  0  0  0
   -1.0213   -3.6663   -2.5518 H   0  0  0  0  0  0  0  0  0  0  0  0
   -0.9476   -3.5009   -0.8042 H   0  0  0  0  0  0  0  0  0  0  0  0
    0.2097   -1.4790   -3.3285 C   0  0  0  0  0  0  0  0  0  0  0  0
    1.0905   -0.8486   -3.4865 H   0  0  0  0  0  0  0  0  0  0  0  0
    0.2674   -2.3218   -4.0245 H   0  0  0  0  0  0  0  0  0  0  0  0
   -0.6858   -0.8948   -3.5645 H   0  0  0  0  0  0  0  0  0  0  0  0
   -0.6094    0.9242    0.7092 C   0  0  0  0  0  0  0  0  0  0  0  0
   -1.5257    1.5728    0.2150 O   0  0  0  0  0  0  0  0  0  0  0  0
    0.2943    1.5527    1.5462 N   0  0  0  0  0  0  0  0  0  0  0  0
    1.0039    0.9762    1.9894 H   0  0  0  0  0  0  0  0  0  0  0  0
    0.2244    2.9691    1.8834 C   0  0  0  0  0  0  0  0  0  0  0  0
   -0.7312    3.2031    2.3645 H   0  0  0  0  0  0  0  0  0  0  0  0
    1.0320    3.2334    2.5727 H   0  0  0  0  0  0  0  0  0  0  0  0
    0.3253    3.5825    0.9820 H   0  0  0  0  0  0  0  0  0  0  0  0
  1  2  1  0  0  0  0
  2  3  1  0  0  0  0
  2  4  1  0  0  0  0
  2  5  1  0  0  0  0
  5  6  2  0  0  0  0
  5  7  1  0  0  0  0
  7  8  1  0  0  0  0
  7  9  1  0  0  0  0
  9 10  1  0  0  0  0
  9 11  1  0  0  0  0
  9 24  1  0  0  0  0
 11 12  1  0  0  0  0
 11 13  1  0  0  0  0
 11 14  1  0  0  0  0
 14 15  1  0  0  0  0
 14 16  1  0  0  0  0
 14 20  1  0  0  0  0
 16 17  1  0  0  0  0
 16 18  1  0  0  0  0
 16 19  1  0  0  0  0
 20 21  1  0  0  0  0
 20 22  1  0  0  0  0
 20 23  1  0  0  0  0
 24 25  2  0  0  0  0
 24 26  1  0  0  0  0
 26 27  1  0  0  0  0
 26 28  1  0  0  0  0
 28 29  1  0  0  0  0
 28 30  1  0  0  0  0
 28 31  1  0  0  0  0
M  END
$$$$

  -OEChem-03222214063D

 31 30  0     1  0  0  0  0  0999 V2000
   -3.6821   -3.7836    1.6941 H   0  0  0  0  0  0  0  0  0  0  0  0
   -3.6062   -2.8317    1.1610 C   0  0  0  0  0  0  0  0  0  0  0  0
   -4.2257   -2.0906    1.6721 H   0  0  0  0  0  0  0  0  0  0  0  0
   -3.9779   -2.9673    0.1424 H   0  0  0  0  0  0  0  0  0  0  0  0
   -2.1633   -2.3649    1.1268 C   0  0  0  0  0  0  0  0  0  0  0  0
   -1.2952   -3.0264    1.6747 O   0  0  0  0  0  0  0  0  0  0  0  0
   -1.8429   -1.1885    0.4798 N   0  0  0  0  0  0  0  0  0  0  0  0
   -2.6110   -0.6301    0.1111 H   0  0  0  0  0  0  0  0  0  0  0  0
   -0.5000   -0.5957    0.4114 C   0  0  1  0  0  0  0  0  0  0  0  0
    0.1038   -1.0384    1.2099 H   0  0  0  0  0  0  0  0  0  0  0  0
    0.3083   -0.7644   -0.9144 C   0  0  0  0  0  0  0  0  0  0  0  0
    0.0473    0.1081   -1.5245 H   0  0  0  0  0  0  0  0  0  0  0  0
    1.3692   -0.6606   -0.6644 H   0  0  0  0  0  0  0  0  0  0  0  0
    0.1722   -1.9827   -1.8794 C   0  0  0  0  0  0  0  0  0  0  0  0
    0.8875   -2.7356   -1.5309 H   0  0  0  0  0  0  0  0  0  0  0  0
   -1.1769   -2.7053   -1.9747 C   0  0  0  0  0  0  0  0  0  0  0  0
   -1.9981   -1.9875   -2.0614 H   0  0  0  0  0  0  0  0  0  0  0  0
   -1.3318   -3.3462   -1.1059 H   0  0  0  0  0  0  0  0  0  0  0  0
   -1.2006   -3.3552   -2.8550 H   0  0  0  0  0  0  0  0  0  0  0  0
    0.6070   -1.5506   -3.2878 C   0  0  0  0  0  0  0  0  0  0  0  0
    1.5912   -1.0726   -3.2546 H   0  0  0  0  0  0  0  0  0  0  0  0
    0.6728   -2.4176   -3.9528 H   0  0  0  0  0  0  0  0  0  0  0  0
   -0.1108   -0.8418   -3.7130 H   0  0  0  0  0  0  0  0  0  0  0  0
   -0.6087    0.9168    0.7014 C   0  0  0  0  0  0  0  0  0  0  0  0
   -1.5203    1.5739    0.2099 O   0  0  0  0  0  0  0  0  0  0  0  0
    0.2851    1.5309    1.5594 N   0  0  0  0  0  0  0  0  0  0  0  0
    0.9894    0.9474    2.0023 H   0  0  0  0  0  0  0  0  0  0  0  0
    0.2093    2.9417    1.9184 C   0  0  0  0  0  0  0  0  0  0  0  0
   -0.7460    3.1630    2.4057 H   0  0  0  0  0  0  0  0  0  0  0  0
    1.0179    3.2003    2.6089 H   0  0  0  0  0  0  0  0  0  0  0  0
    0.3034    3.5693    1.0259 H   0  0  0  0  0  0  0  0  0  0  0  0
  1  2  1  0  0  0  0
  2  3  1  0  0  0  0
  2  4  1  0  0  0  0
  2  5  1  0  0  0  0
  5  6  2  0  0  0  0
  5  7  1  0  0  0  0
  7  8  1  0  0  0  0
  7  9  1  0  0  0  0
  9 10  1  0  0  0  0
  9 11  1  0  0  0  0
  9 24  1  0  0  0  0
 11 12  1  0  0  0  0
 11 13  1  0  0  0  0
 11 14  1  0  0  0  0
 14 15  1  0  0  0  0
 14 16  1  0  0  0  0
 14 20  1  0  0  0  0
 16 17  1  0  0  0  0
 16 18  1  0  0  0  0
 16 19  1  0  0  0  0
 20 21  1  0  0  0  0
 20 22  1  0  0  0  0
 20 23  1  0  0  0  0
 24 25  2  0  0  0  0
 24 26  1  0  0  0  0
 26 27  1  0  0  0  0
 26 28  1  0  0  0  0
 28 29  1  0  0  0  0
 28 30  1  0  0  0  0
 28 31  1  0  0  0  0
M  END
$$$$

  -OEChem-03222214063D

 31 30  0     1  0  0  0  0  0999 V2000
   -3.6230   -3.8147    1.6428 H   0  0  0  0  0  0  0  0  0  0  0  0
   -3.5649   -2.8469    1.1369 C   0  0  0  0  0  0  0  0  0  0  0  0
   -4.1655   -2.1217    1.6913 H   0  0  0  0  0  0  0  0  0  0  0  0
   -3.9720   -2.9519    0.1284 H   0  0  0  0  0  0  0  0  0  0  0  0
   -2.1233   -2.3797    1.0672 C   0  0  0  0  0  0  0  0  0  0  0  0
   -1.2390   -3.0561    1.5690 O   0  0  0  0  0  0  0  0  0  0  0  0
   -1.8217   -1.1894    0.4364 N   0  0  0  0  0  0  0  0  0  0  0  0
   -2.5996   -0.6229    0.1018 H   0  0  0  0  0  0  0  0  0  0  0  0
   -0.4846   -0.5840    0.3747 C   0  0  1  0  0  0  0  0  0  0  0  0
    0.1218   -1.0327    1.1680 H   0  0  0  0  0  0  0  0  0  0  0  0
    0.3166   -0.7513   -0.9512 C   0  0  0  0  0  0  0  0  0  0  0  0
    0.0607    0.1137   -1.5737 H   0  0  0  0  0  0  0  0  0  0  0  0
    1.3790   -0.6578   -0.7042 H   0  0  0  0  0  0  0  0  0  0  0  0
    0.1511   -1.9874   -1.8808 C   0  0  0  0  0  0  0  0  0  0  0  0
    0.6611   -2.8279   -1.3971 H   0  0  0  0  0  0  0  0  0  0  0  0
   -1.2803   -2.4556   -2.1837 C   0  0  0  0  0  0  0  0  0  0  0  0
   -1.9475   -1.5981   -2.3140 H   0  0  0  0  0  0  0  0  0  0  0  0
   -1.3047   -3.0501   -3.1023 H   0  0  0  0  0  0  0  0  0  0  0  0
   -1.6583   -3.0954   -1.3858 H   0  0  0  0  0  0  0  0  0  0  0  0
    0.8735   -1.6994   -3.2049 C   0  0  0  0  0  0  0  0  0  0  0  0
    1.9074   -1.3921   -3.0194 H   0  0  0  0  0  0  0  0  0  0  0  0
    0.8942   -2.5955   -3.8331 H   0  0  0  0  0  0  0  0  0  0  0  0
    0.3659   -0.9010   -3.7557 H   0  0  0  0  0  0  0  0  0  0  0  0
   -0.5921    0.9233    0.6859 C   0  0  0  0  0  0  0  0  0  0  0  0
   -1.5062    1.5860    0.2075 O   0  0  0  0  0  0  0  0  0  0  0  0
    0.3050    1.5252    1.5493 N   0  0  0  0  0  0  0  0  0  0  0  0
    1.0144    0.9367    1.9769 H   0  0  0  0  0  0  0  0  0  0  0  0
    0.2355    2.9319    1.9249 C   0  0  0  0  0  0  0  0  0  0  0  0
   -0.7223    3.1538    2.4073 H   0  0  0  0  0  0  0  0  0  0  0  0
    1.0399    3.1764    2.6253 H   0  0  0  0  0  0  0  0  0  0  0  0
    0.3415    3.5693    1.0408 H   0  0  0  0  0  0  0  0  0  0  0  0
  1  2  1  0  0  0  0
  2  3  1  0  0  0  0
  2  4  1  0  0  0  0
  2  5  1  0  0  0  0
  5  6  2  0  0  0  0
  5  7  1  0  0  0  0
  7  8  1  0  0  0  0
  7  9  1  0  0  0  0
  9 10  1  0  0  0  0
  9 11  1  0  0  0  0
  9 24  1  0  0  0  0
 11 12  1  0  0  0  0
 11 13  1  0  0  0  0
 11 14  1  0  0  0  0
 14 15  1  0  0  0  0
 14 16  1  0  0  0  0
 14 20  1  0  0  0  0
 16 17  1  0  0  0  0
 16 18  1  0  0  0  0
 16 19  1  0  0  0  0
 20 21  1  0  0  0  0
 20 22  1  0  0  0  0
 20 23  1  0  0  0  0
 24 25  2  0  0  0  0
 24 26  1  0  0  0  0
 26 27  1  0  0  0  0
 26 28  1  0  0  0  0
 28 29  1  0  0  0  0
 28 30  1  0  0  0  0
 28 31  1  0  0  0  0
M  END
$$$$

  -OEChem-03222214063D

 31 30  0     1  0  0  0  0  0999 V2000
   -3.5921   -3.7991    1.6129 H   0  0  0  0  0  0  0  0  0  0  0  0
   -3.5267   -2.8648    1.0483 C   0  0  0  0  0  0  0  0  0  0  0  0
   -4.1483   -2.1124    1.5398 H   0  0  0  0  0  0  0  0  0  0  0  0
   -3.9051   -3.0360    0.0377 H   0  0  0  0  0  0  0  0  0  0  0  0
   -2.0869   -2.3899    0.9889 C   0  0  0  0  0  0  0  0  0  0  0  0
   -1.2016   -3.0688    1.4853 O   0  0  0  0  0  0  0  0  0  0  0  0
   -1.7887   -1.1881    0.3786 N   0  0  0  0  0  0  0  0  0  0  0  0
   -2.5674   -0.6218    0.0459 H   0  0  0  0  0  0  0  0  0  0  0  0
   -0.4571   -0.5699    0.3482 C   0  0  1  0  0  0  0  0  0  0  0  0
    0.1421   -1.0233    1.1444 H   0  0  0  0  0  0  0  0  0  0  0  0
    0.3475   -0.7373   -0.9710 C   0  0  0  0  0  0  0  0  0  0  0  0
    0.1165    0.1238   -1.6082 H   0  0  0  0  0  0  0  0  0  0  0  0
    1.4091   -0.6646   -0.7129 H   0  0  0  0  0  0  0  0  0  0  0  0
    0.1461   -1.9952   -1.8570 C   0  0  0  0  0  0  0  0  0  0  0  0
    0.4128   -2.8768   -1.2638 H   0  0  0  0  0  0  0  0  0  0  0  0
   -1.2820   -2.2036   -2.3928 C   0  0  0  0  0  0  0  0  0  0  0  0
   -1.7401   -1.2435   -2.6505 H   0  0  0  0  0  0  0  0  0  0  0  0
   -1.2685   -2.8288   -3.2909 H   0  0  0  0  0  0  0  0  0  0  0  0
   -1.9106   -2.7150   -1.6634 H   0  0  0  0  0  0  0  0  0  0  0  0
    1.1161   -1.9102   -3.0439 C   0  0  0  0  0  0  0  0  0  0  0  0
    2.1453   -1.7916   -2.6910 H   0  0  0  0  0  0  0  0  0  0  0  0
    1.0680   -2.8239   -3.6445 H   0  0  0  0  0  0  0  0  0  0  0  0
    0.8675   -1.0587   -3.6855 H   0  0  0  0  0  0  0  0  0  0  0  0
   -0.5729    0.9326    0.6751 C   0  0  0  0  0  0  0  0  0  0  0  0
   -1.4832    1.5966    0.1914 O   0  0  0  0  0  0  0  0  0  0  0  0
    0.3079    1.5276    1.5594 N   0  0  0  0  0  0  0  0  0  0  0  0
    1.0147    0.9375    1.9890 H   0  0  0  0  0  0  0  0  0  0  0  0
    0.2182    2.9266    1.9585 C   0  0  0  0  0  0  0  0  0  0  0  0
   -0.7474    3.1288    2.4340 H   0  0  0  0  0  0  0  0  0  0  0  0
    1.0118    3.1682    2.6721 H   0  0  0  0  0  0  0  0  0  0  0  0
    0.3262    3.5806    1.0868 H   0  0  0  0  0  0  0  0  0  0  0  0
  1  2  1  0  0  0  0
  2  3  1  0  0  0  0
  2  4  1  0  0  0  0
  2  5  1  0  0  0  0
  5  6  2  0  0  0  0
  5  7  1  0  0  0  0
  7  8  1  0  0  0  0
  7  9  1  0  0  0  0
  9 10  1  0  0  0  0
  9 11  1  0  0  0  0
  9 24  1  0  0  0  0
 11 12  1  0  0  0  0
 11 13  1  0  0  0  0
 11 14  1  0  0  0  0
 14 15  1  0  0  0  0
 14 16  1  0  0  0  0
 14 20  1  0  0  0  0
 16 17  1  0  0  0  0
 16 18  1  0  0  0  0
 16 19  1  0  0  0  0
 20 21  1  0  0  0  0
 20 22  1  0  0  0  0
 20 23  1  0  0  0  0
 24 25  2  0  0  0  0
 24 26  1  0  0  0  0
 26 27  1  0  0  0  0
 26 28  1  0  0  0  0
 28 29  1  0  0  0  0
 28 30  1  0  0  0  0
 28 31  1  0  0  0  0
M  END
$$$$

  -OEChem-03222214063D

 31 30  0     1  0  0  0  0  0999 V2000
   -3.5477   -3.8450    1.4816 H   0  0  0  0  0  0  0  0  0  0  0  0
   -3.4802   -2.9019    0.9322 C   0  0  0  0  0  0  0  0  0  0  0  0
   -4.1324   -2.1676    1.4113 H   0  0  0  0  0  0  0  0  0  0  0  0
   -3.8189   -3.0664   -0.0935 H   0  0  0  0  0  0  0  0  0  0  0  0
   -2.0489   -2.3997    0.9294 C   0  0  0  0  0  0  0  0  0  0  0  0
   -1.1677   -3.0681    1.4471 O   0  0  0  0  0  0  0  0  0  0  0  0
   -1.7538   -1.1868    0.3417 N   0  0  0  0  0  0  0  0  0  0  0  0
   -2.5327   -0.6328   -0.0104 H   0  0  0  0  0  0  0  0  0  0  0  0
   -0.4314   -0.5491    0.3388 C   0  0  1  0  0  0  0  0  0  0  0  0
    0.1645   -1.0058    1.1356 H   0  0  0  0  0  0  0  0  0  0  0  0
    0.3722   -0.7141   -0.9783 C   0  0  0  0  0  0  0  0  0  0  0  0
    0.1558    0.1419   -1.6272 H   0  0  0  0  0  0  0  0  0  0  0  0
    1.4333   -0.6516   -0.7150 H   0  0  0  0  0  0  0  0  0  0  0  0
    0.1401   -1.9943   -1.8210 C   0  0  0  0  0  0  0  0  0  0  0  0
    0.1557   -2.8631   -1.1538 H   0  0  0  0  0  0  0  0  0  0  0  0
   -1.1872   -1.9949   -2.6036 C   0  0  0  0  0  0  0  0  0  0  0  0
   -1.2905   -1.0704   -3.1804 H   0  0  0  0  0  0  0  0  0  0  0  0
   -1.2141   -2.8391   -3.2996 H   0  0  0  0  0  0  0  0  0  0  0  0
   -2.0529   -2.0917   -1.9485 H   0  0  0  0  0  0  0  0  0  0  0  0
    1.2919   -2.1428   -2.8243 C   0  0  0  0  0  0  0  0  0  0  0  0
    2.2516   -2.2033   -2.3016 H   0  0  0  0  0  0  0  0  0  0  0  0
    1.1709   -3.0565   -3.4145 H   0  0  0  0  0  0  0  0  0  0  0  0
    1.3205   -1.2882   -3.5080 H   0  0  0  0  0  0  0  0  0  0  0  0
   -0.5607    0.9484    0.6813 C   0  0  0  0  0  0  0  0  0  0  0  0
   -1.4675    1.6115    0.1901 O   0  0  0  0  0  0  0  0  0  0  0  0
    0.3039    1.5401    1.5837 N   0  0  0  0  0  0  0  0  0  0  0  0
    1.0052    0.9491    2.0212 H   0  0  0  0  0  0  0  0  0  0  0  0
    0.1998    2.9347    1.9952 C   0  0  0  0  0  0  0  0  0  0  0  0
   -0.7659    3.1217    2.4767 H   0  0  0  0  0  0  0  0  0  0  0  0
    0.9942    3.1796    2.7067 H   0  0  0  0  0  0  0  0  0  0  0  0
    0.2959    3.5974    1.1287 H   0  0  0  0  0  0  0  0  0  0  0  0
  1  2  1  0  0  0  0
  2  3  1  0  0  0  0
  2  4  1  0  0  0  0
  2  5  1  0  0  0  0
  5  6  2  0  0  0  0
  5  7  1  0  0  0  0
  7  8  1  0  0  0  0
  7  9  1  0  0  0  0
  9 10  1  0  0  0  0
  9 11  1  0  0  0  0
  9 24  1  0  0  0  0
 11 12  1  0  0  0  0
 11 13  1  0  0  0  0
 11 14  1  0  0  0  0
 14 15  1  0  0  0  0
 14 16  1  0  0  0  0
 14 20  1  0  0  0  0
 16 17  1  0  0  0  0
 16 18  1  0  0  0  0
 16 19  1  0  0  0  0
 20 21  1  0  0  0  0
 20 22  1  0  0  0  0
 20 23  1  0  0  0  0
 24 25  2  0  0  0  0
 24 26  1  0  0  0  0
 26 27  1  0  0  0  0
 26 28  1  0  0  0  0
 28 29  1  0  0  0  0
 28 30  1  0  0  0  0
 28 31  1  0  0  0  0
M  END
$$$$

  -OEChem-03222214063D

 31 30  0     1  0  0  0  0  0999 V2000
   -3.5123   -3.8959    1.3641 H   0  0  0  0  0  0  0  0  0  0  0  0
   -3.4390   -2.9432    0.8321 C   0  0  0  0  0  0  0  0  0  0  0  0
   -4.1263   -2.2292    1.2923 H   0  0  0  0  0  0  0  0  0  0  0  0
   -3.7290   -3.0982   -0.2099 H   0  0  0  0  0  0  0  0  0  0  0  0
   -2.0192   -2.4139    0.8997 C   0  0  0  0  0  0  0  0  0  0  0  0
   -1.1534   -3.0610    1.4677 O   0  0  0  0  0  0  0  0  0  0  0  0
   -1.7172   -1.1996    0.3187 N   0  0  0  0  0  0  0  0  0  0  0  0
   -2.4883   -0.6640   -0.0760 H   0  0  0  0  0  0  0  0  0  0  0  0
   -0.4000   -0.5446    0.3451 C   0  0  1  0  0  0  0  0  0  0  0  0
    0.1937   -0.9991    1.1449 H   0  0  0  0  0  0  0  0  0  0  0  0
    0.4002   -0.7009   -0.9739 C   0  0  0  0  0  0  0  0  0  0  0  0
    0.1921    0.1545   -1.6267 H   0  0  0  0  0  0  0  0  0  0  0  0
    1.4622   -0.6457   -0.7141 H   0  0  0  0  0  0  0  0  0  0  0  0
    0.1360   -1.9954   -1.7807 C   0  0  0  0  0  0  0  0  0  0  0  0
   -0.1006   -2.8186   -1.0994 H   0  0  0  0  0  0  0  0  0  0  0  0
   -1.0101   -1.8092   -2.7878 C   0  0  0  0  0  0  0  0  0  0  0  0
   -0.7640   -1.0277   -3.5137 H   0  0  0  0  0  0  0  0  0  0  0  0
   -1.1910   -2.7418   -3.3314 H   0  0  0  0  0  0  0  0  0  0  0  0
   -1.9367   -1.5271   -2.2817 H   0  0  0  0  0  0  0  0  0  0  0  0
    1.4006   -2.3833   -2.5571 C   0  0  0  0  0  0  0  0  0  0  0  0
    2.2273   -2.5792   -1.8671 H   0  0  0  0  0  0  0  0  0  0  0  0
    1.2253   -3.2907   -3.1434 H   0  0  0  0  0  0  0  0  0  0  0  0
    1.6978   -1.5798   -3.2387 H   0  0  0  0  0  0  0  0  0  0  0  0
   -0.5488    0.9522    0.6809 C   0  0  0  0  0  0  0  0  0  0  0  0
   -1.4447    1.6087    0.1619 O   0  0  0  0  0  0  0  0  0  0  0  0
    0.2910    1.5523    1.6009 N   0  0  0  0  0  0  0  0  0  0  0  0
    0.9850    0.9668    2.0570 H   0  0  0  0  0  0  0  0  0  0  0  0
    0.1781    2.9511    1.9952 C   0  0  0  0  0  0  0  0  0  0  0  0
   -0.7994    3.1438    2.4498 H   0  0  0  0  0  0  0  0  0  0  0  0
    0.9543    3.2020    2.7244 H   0  0  0  0  0  0  0  0  0  0  0  0
    0.2977    3.6048    1.1248 H   0  0  0  0  0  0  0  0  0  0  0  0
  1  2  1  0  0  0  0
  2  3  1  0  0  0  0
  2  4  1  0  0  0  0
  2  5  1  0  0  0  0
  5  6  2  0  0  0  0
  5  7  1  0  0  0  0
  7  8  1  0  0  0  0
  7  9  1  0  0  0  0
  9 10  1  0  0  0  0
  9 11  1  0  0  0  0
  9 24  1  0  0  0  0
 11 12  1  0  0  0  0
 11 13  1  0  0  0  0
 11 14  1  0  0  0  0
 14 15  1  0  0  0  0
 14 16  1  0  0  0  0
 14 20  1  0  0  0  0
 16 17  1  0  0  0  0
 16 18  1  0  0  0  0
 16 19  1  0  0  0  0
 20 21  1  0  0  0  0
 20 22  1  0  0  0  0
 20 23  1  0  0  0  0
 24 25  2  0  0  0  0
 24 26  1  0  0  0  0
 26 27  1  0  0  0  0
 26 28  1  0  0  0  0
 28 29  1  0  0  0  0
 28 30  1  0  0  0  0
 28 31  1  0  0  0  0
M  END
$$$$

  -OEChem-03222214063D

 31 30  0     1  0  0  0  0  0999 V2000
   -3.5244   -3.8933    1.3663 H   0  0  0  0  0  0  0  0  0  0  0  0
   -3.4468   -2.9414    0.8337 C   0  0  0  0  0  0  0  0  0  0  0  0
   -4.1341   -2.2254    1.2907 H   0  0  0  0  0  0  0  0  0  0  0  0
   -3.7330   -3.0970   -0.2092 H   0  0  0  0  0  0  0  0  0  0  0  0
   -2.0260   -2.4152    0.9058 C   0  0  0  0  0  0  0  0  0  0  0  0
   -1.1644   -3.0609    1.4819 O   0  0  0  0  0  0  0  0  0  0  0  0
   -1.7168   -1.2053    0.3187 N   0  0  0  0  0  0  0  0  0  0  0  0
   -2.4845   -0.6696   -0.0824 H   0  0  0  0  0  0  0  0  0  0  0  0
   -0.3975   -0.5519    0.3504 C   0  0  1  0  0  0  0  0  0  0  0  0
    0.1932   -1.0036    1.1538 H   0  0  0  0  0  0  0  0  0  0  0  0
    0.4042   -0.7088   -0.9677 C   0  0  0  0  0  0  0  0  0  0  0  0
    0.1960    0.1509   -1.6148 H   0  0  0  0  0  0  0  0  0  0  0  0
    1.4660   -0.6466   -0.7078 H   0  0  0  0  0  0  0  0  0  0  0  0
    0.1420   -2.0042   -1.7806 C   0  0  0  0  0  0  0  0  0  0  0  0
   -0.3432   -2.7652   -1.1652 H   0  0  0  0  0  0  0  0  0  0  0  0
   -0.7236   -1.7061   -3.0116 C   0  0  0  0  0  0  0  0  0  0  0  0
   -0.2238   -0.9963   -3.6786 H   0  0  0  0  0  0  0  0  0  0  0  0
   -0.9214   -2.6265   -3.5699 H   0  0  0  0  0  0  0  0  0  0  0  0
   -1.6828   -1.2784   -2.7044 H   0  0  0  0  0  0  0  0  0  0  0  0
    1.4745   -2.5942   -2.2604 C   0  0  0  0  0  0  0  0  0  0  0  0
    2.1026   -2.8614   -1.4046 H   0  0  0  0  0  0  0  0  0  0  0  0
    1.3009   -3.4995   -2.8506 H   0  0  0  0  0  0  0  0  0  0  0  0
    2.0171   -1.8733   -2.8806 H   0  0  0  0  0  0  0  0  0  0  0  0
   -0.5483    0.9473    0.6758 C   0  0  0  0  0  0  0  0  0  0  0  0
   -1.4405    1.6013    0.1470 O   0  0  0  0  0  0  0  0  0  0  0  0
    0.2854    1.5523    1.5983 N   0  0  0  0  0  0  0  0  0  0  0  0
    0.9757    0.9692    2.0630 H   0  0  0  0  0  0  0  0  0  0  0  0
    0.1707    2.9536    1.9829 C   0  0  0  0  0  0  0  0  0  0  0  0
   -0.8089    3.1492    2.4313 H   0  0  0  0  0  0  0  0  0  0  0  0
    0.9435    3.2091    2.7142 H   0  0  0  0  0  0  0  0  0  0  0  0
    0.2945    3.6017    1.1089 H   0  0  0  0  0  0  0  0  0  0  0  0
  1  2  1  0  0  0  0
  2  3  1  0  0  0  0
  2  4  1  0  0  0  0
  2  5  1  0  0  0  0
  5  6  2  0  0  0  0
  5  7  1  0  0  0  0
  7  8  1  0  0  0  0
  7  9  1  0  0  0  0
  9 10  1  0  0  0  0
  9 11  1  0  0  0  0
  9 24  1  0  0  0  0
 11 12  1  0  0  0  0
 11 13  1  0  0  0  0
 11 14  1  0  0  0  0
 14 15  1  0  0  0  0
 14 16  1  0  0  0  0
 14 20  1  0  0  0  0
 16 17  1  0  0  0  0
 16 18  1  0  0  0  0
 16 19  1  0  0  0  0
 20 21  1  0  0  0  0
 20 22  1  0  0  0  0
 20 23  1  0  0  0  0
 24 25  2  0  0  0  0
 24 26  1  0  0  0  0
 26 27  1  0  0  0  0
 26 28  1  0  0  0  0
 28 29  1  0  0  0  0
 28 30  1  0  0  0  0
 28 31  1  0  0  0  0
M  END
$$$$

  -OEChem-03222214063D

 31 30  0     1  0  0  0  0  0999 V2000
   -3.5316   -3.8856    1.3985 H   0  0  0  0  0  0  0  0  0  0  0  0
   -3.4597   -2.9354    0.8620 C   0  0  0  0  0  0  0  0  0  0  0  0
   -4.1367   -2.2157    1.3285 H   0  0  0  0  0  0  0  0  0  0  0  0
   -3.7642   -3.0920   -0.1756 H   0  0  0  0  0  0  0  0  0  0  0  0
   -2.0358   -2.4145    0.9096 C   0  0  0  0  0  0  0  0  0  0  0  0
   -1.1657   -3.0666    1.4652 O   0  0  0  0  0  0  0  0  0  0  0  0
   -1.7325   -1.2032    0.3217 N   0  0  0  0  0  0  0  0  0  0  0  0
   -2.5051   -0.6620   -0.0626 H   0  0  0  0  0  0  0  0  0  0  0  0
   -0.4119   -0.5525    0.3427 C   0  0  1  0  0  0  0  0  0  0  0  0
    0.1801   -1.0049    1.1448 H   0  0  0  0  0  0  0  0  0  0  0  0
    0.3957   -0.7101   -0.9729 C   0  0  0  0  0  0  0  0  0  0  0  0
    0.1607    0.1475   -1.6130 H   0  0  0  0  0  0  0  0  0  0  0  0
    1.4587   -0.6207   -0.7259 H   0  0  0  0  0  0  0  0  0  0  0  0
    0.1538   -2.0028   -1.8026 C   0  0  0  0  0  0  0  0  0  0  0  0
   -0.5752   -2.6572   -1.3230 H   0  0  0  0  0  0  0  0  0  0  0  0
   -0.3635   -1.6599   -3.2052 C   0  0  0  0  0  0  0  0  0  0  0  0
    0.3576   -1.0371   -3.7440 H   0  0  0  0  0  0  0  0  0  0  0  0
   -0.5328   -2.5740   -3.7829 H   0  0  0  0  0  0  0  0  0  0  0  0
   -1.3117   -1.1171   -3.1367 H   0  0  0  0  0  0  0  0  0  0  0  0
    1.4589   -2.7976   -1.9266 C   0  0  0  0  0  0  0  0  0  0  0  0
    1.8282   -3.0757   -0.9345 H   0  0  0  0  0  0  0  0  0  0  0  0
    1.2929   -3.7152   -2.4994 H   0  0  0  0  0  0  0  0  0  0  0  0
    2.2278   -2.2061   -2.4336 H   0  0  0  0  0  0  0  0  0  0  0  0
   -0.5577    0.9463    0.6734 C   0  0  0  0  0  0  0  0  0  0  0  0
   -1.4566    1.6021    0.1585 O   0  0  0  0  0  0  0  0  0  0  0  0
    0.2853    1.5478    1.5897 N   0  0  0  0  0  0  0  0  0  0  0  0
    0.9832    0.9638    2.0419 H   0  0  0  0  0  0  0  0  0  0  0  0
    0.1750    2.9477    1.9807 C   0  0  0  0  0  0  0  0  0  0  0  0
   -0.8020    3.1435    2.4352 H   0  0  0  0  0  0  0  0  0  0  0  0
    0.9519    3.1991    2.7091 H   0  0  0  0  0  0  0  0  0  0  0  0
    0.2956    3.5991    1.1087 H   0  0  0  0  0  0  0  0  0  0  0  0
  1  2  1  0  0  0  0
  2  3  1  0  0  0  0
  2  4  1  0  0  0  0
  2  5  1  0  0  0  0
  5  6  2  0  0  0  0
  5  7  1  0  0  0  0
  7  8  1  0  0  0  0
  7  9  1  0  0  0  0
  9 10  1  0  0  0  0
  9 11  1  0  0  0  0
  9 24  1  0  0  0  0
 11 12  1  0  0  0  0
 11 13  1  0  0  0  0
 11 14  1  0  0  0  0
 14 15  1  0  0  0  0
 14 16  1  0  0  0  0
 14 20  1  0  0  0  0
 16 17  1  0  0  0  0
 16 18  1  0  0  0  0
 16 19  1  0  0  0  0
 20 21  1  0  0  0  0
 20 22  1  0  0  0  0
 20 23  1  0  0  0  0
 24 25  2  0  0  0  0
 24 26  1  0  0  0  0
 26 27  1  0  0  0  0
 26 28  1  0  0  0  0
 28 29  1  0  0  0  0
 28 30  1  0  0  0  0
 28 31  1  0  0  0  0
M  END
$$$$

  -OEChem-03222214063D

 31 30  0     1  0  0  0  0  0999 V2000
   -3.5173   -3.8881    1.4072 H   0  0  0  0  0  0  0  0  0  0  0  0
   -3.4541   -2.9375    0.8702 C   0  0  0  0  0  0  0  0  0  0  0  0
   -4.1256   -2.2191    1.3466 H   0  0  0  0  0  0  0  0  0  0  0  0
   -3.7732   -3.0944   -0.1629 H   0  0  0  0  0  0  0  0  0  0  0  0
   -2.0300   -2.4149    0.8978 C   0  0  0  0  0  0  0  0  0  0  0  0
   -1.1502   -3.0719    1.4321 O   0  0  0  0  0  0  0  0  0  0  0  0
   -1.7370   -1.1991    0.3138 N   0  0  0  0  0  0  0  0  0  0  0  0
   -2.5159   -0.6534   -0.0510 H   0  0  0  0  0  0  0  0  0  0  0  0
   -0.4179   -0.5460    0.3301 C   0  0  1  0  0  0  0  0  0  0  0  0
    0.1752   -0.9988    1.1313 H   0  0  0  0  0  0  0  0  0  0  0  0
    0.3950   -0.7048   -0.9823 C   0  0  0  0  0  0  0  0  0  0  0  0
    0.1321    0.1448   -1.6228 H   0  0  0  0  0  0  0  0  0  0  0  0
    1.4597   -0.5950   -0.7520 H   0  0  0  0  0  0  0  0  0  0  0  0
    0.1644   -1.9980   -1.8122 C   0  0  0  0  0  0  0  0  0  0  0  0
   -0.7591   -2.4997   -1.5189 H   0  0  0  0  0  0  0  0  0  0  0  0
    0.0224   -1.6674   -3.3027 C   0  0  0  0  0  0  0  0  0  0  0  0
    0.9195   -1.1611   -3.6733 H   0  0  0  0  0  0  0  0  0  0  0  0
   -0.1248   -2.5833   -3.8835 H   0  0  0  0  0  0  0  0  0  0  0  0
   -0.8409   -1.0151   -3.4677 H   0  0  0  0  0  0  0  0  0  0  0  0
    1.3168   -2.9824   -1.5881 C   0  0  0  0  0  0  0  0  0  0  0  0
    1.3973   -3.2335   -0.5254 H   0  0  0  0  0  0  0  0  0  0  0  0
    1.1417   -3.9071   -2.1467 H   0  0  0  0  0  0  0  0  0  0  0  0
    2.2670   -2.5516   -1.9194 H   0  0  0  0  0  0  0  0  0  0  0  0
   -0.5622    0.9508    0.6696 C   0  0  0  0  0  0  0  0  0  0  0  0
   -1.4667    1.6078    0.1665 O   0  0  0  0  0  0  0  0  0  0  0  0
    0.2864    1.5478    1.5836 N   0  0  0  0  0  0  0  0  0  0  0  0
    0.9910    0.9630    2.0242 H   0  0  0  0  0  0  0  0  0  0  0  0
    0.1784    2.9457    1.9823 C   0  0  0  0  0  0  0  0  0  0  0  0
   -0.7959    3.1387    2.4432 H   0  0  0  0  0  0  0  0  0  0  0  0
    0.9593    3.1935    2.7075 H   0  0  0  0  0  0  0  0  0  0  0  0
    0.2938    3.6014    1.1129 H   0  0  0  0  0  0  0  0  0  0  0  0
  1  2  1  0  0  0  0
  2  3  1  0  0  0  0
  2  4  1  0  0  0  0
  2  5  1  0  0  0  0
  5  6  2  0  0  0  0
  5  7  1  0  0  0  0
  7  8  1  0  0  0  0
  7  9  1  0  0  0  0
  9 10  1  0  0  0  0
  9 11  1  0  0  0  0
  9 24  1  0  0  0  0
 11 12  1  0  0  0  0
 11 13  1  0  0  0  0
 11 14  1  0  0  0  0
 14 15  1  0  0  0  0
 14 16  1  0  0  0  0
 14 20  1  0  0  0  0
 16 17  1  0  0  0  0
 16 18  1  0  0  0  0
 16 19  1  0  0  0  0
 20 21  1  0  0  0  0
 20 22  1  0  0  0  0
 20 23  1  0  0  0  0
 24 25  2  0  0  0  0
 24 26  1  0  0  0  0
 26 27  1  0  0  0  0
 26 28  1  0  0  0  0
 28 29  1  0  0  0  0
 28 30  1  0  0  0  0
 28 31  1  0  0  0  0
M  END
$$$$

  -OEChem-03222214063D

 31 30  0     1  0  0  0  0  0999 V2000
   -3.5091   -3.9007    1.3678 H   0  0  0  0  0  0  0  0  0  0  0  0
   -3.4394   -2.9485    0.8348 C   0  0  0  0  0  0  0  0  0  0  0  0
   -4.1347   -2.2388    1.2893 H   0  0  0  0  0  0  0  0  0  0  0  0
   -3.7208   -3.1074   -0.2089 H   0  0  0  0  0  0  0  0  0  0  0  0
   -2.0240   -2.4089    0.9116 C   0  0  0  0  0  0  0  0  0  0  0  0
   -1.1617   -3.0442    1.4974 O   0  0  0  0  0  0  0  0  0  0  0  0
   -1.7246   -1.1971    0.3234 N   0  0  0  0  0  0  0  0  0  0  0  0
   -2.4964   -0.6656   -0.0756 H   0  0  0  0  0  0  0  0  0  0  0  0
   -0.4065   -0.5434    0.3422 C   0  0  1  0  0  0  0  0  0  0  0  0
    0.1873   -0.9929    1.1444 H   0  0  0  0  0  0  0  0  0  0  0  0
    0.3987   -0.7078   -0.9745 C   0  0  0  0  0  0  0  0  0  0  0  0
    0.1251    0.1348   -1.6190 H   0  0  0  0  0  0  0  0  0  0  0  0
    1.4666   -0.6007   -0.7577 H   0  0  0  0  0  0  0  0  0  0  0  0
    0.1570   -2.0014   -1.7935 C   0  0  0  0  0  0  0  0  0  0  0  0
   -0.8772   -2.3391   -1.6926 H   0  0  0  0  0  0  0  0  0  0  0  0
    0.3773   -1.7326   -3.2866 C   0  0  0  0  0  0  0  0  0  0  0  0
    1.3959   -1.3746   -3.4674 H   0  0  0  0  0  0  0  0  0  0  0  0
    0.2234   -2.6491   -3.8648 H   0  0  0  0  0  0  0  0  0  0  0  0
   -0.3277   -0.9776   -3.6486 H   0  0  0  0  0  0  0  0  0  0  0  0
    1.0849   -3.1211   -1.3103 C   0  0  0  0  0  0  0  0  0  0  0  0
    0.9268   -3.3165   -0.2457 H   0  0  0  0  0  0  0  0  0  0  0  0
    0.8851   -4.0449   -1.8619 H   0  0  0  0  0  0  0  0  0  0  0  0
    2.1338   -2.8473   -1.4608 H   0  0  0  0  0  0  0  0  0  0  0  0
   -0.5521    0.9554    0.6723 C   0  0  0  0  0  0  0  0  0  0  0  0
   -1.4479    1.6120    0.1532 O   0  0  0  0  0  0  0  0  0  0  0  0
    0.2925    1.5573    1.5866 N   0  0  0  0  0  0  0  0  0  0  0  0
    0.9854    0.9713    2.0440 H   0  0  0  0  0  0  0  0  0  0  0  0
    0.1847    2.9580    1.9751 C   0  0  0  0  0  0  0  0  0  0  0  0
   -0.7913    3.1561    2.4306 H   0  0  0  0  0  0  0  0  0  0  0  0
    0.9631    3.2096    2.7017 H   0  0  0  0  0  0  0  0  0  0  0  0
    0.3048    3.6078    1.1018 H   0  0  0  0  0  0  0  0  0  0  0  0
  1  2  1  0  0  0  0
  2  3  1  0  0  0  0
  2  4  1  0  0  0  0
  2  5  1  0  0  0  0
  5  6  2  0  0  0  0
  5  7  1  0  0  0  0
  7  8  1  0  0  0  0
  7  9  1  0  0  0  0
  9 10  1  0  0  0  0
  9 11  1  0  0  0  0
  9 24  1  0  0  0  0
 11 12  1  0  0  0  0
 11 13  1  0  0  0  0
 11 14  1  0  0  0  0
 14 15  1  0  0  0  0
 14 16  1  0  0  0  0
 14 20  1  0  0  0  0
 16 17  1  0  0  0  0
 16 18  1  0  0  0  0
 16 19  1  0  0  0  0
 20 21  1  0  0  0  0
 20 22  1  0  0  0  0
 20 23  1  0  0  0  0
 24 25  2  0  0  0  0
 24 26  1  0  0  0  0
 26 27  1  0  0  0  0
 26 28  1  0  0  0  0
 28 29  1  0  0  0  0
 28 30  1  0  0  0  0
 28 31  1  0  0  0  0
M  END
$$$$

  -OEChem-03222214063D

 31 30  0     1  0  0  0  0  0999 V2000
   -3.5389   -3.9053    1.3211 H   0  0  0  0  0  0  0  0  0  0  0  0
   -3.4439   -2.9533    0.7914 C   0  0  0  0  0  0  0  0  0  0  0  0
   -4.1824   -2.2531    1.1892 H   0  0  0  0  0  0  0  0  0  0  0  0
   -3.6440   -3.1205   -0.2697 H   0  0  0  0  0  0  0  0  0  0  0  0
   -2.0469   -2.3903    0.9723 C   0  0  0  0  0  0  0  0  0  0  0  0
   -1.2478   -2.9690    1.6908 O   0  0  0  0  0  0  0  0  0  0  0  0
   -1.7114   -1.1981    0.3644 N   0  0  0  0  0  0  0  0  0  0  0  0
   -2.4508   -0.7055   -0.1329 H   0  0  0  0  0  0  0  0  0  0  0  0
   -0.3865   -0.5554    0.3847 C   0  0  1  0  0  0  0  0  0  0  0  0
    0.2085   -1.0005    1.1886 H   0  0  0  0  0  0  0  0  0  0  0  0
    0.3998   -0.7249   -0.9454 C   0  0  0  0  0  0  0  0  0  0  0  0
    0.1379    0.1209   -1.5912 H   0  0  0  0  0  0  0  0  0  0  0  0
    1.4710   -0.6416   -0.7342 H   0  0  0  0  0  0  0  0  0  0  0  0
    0.1354   -2.0075   -1.7676 C   0  0  0  0  0  0  0  0  0  0  0  0
   -0.9395   -2.1952   -1.8460 H   0  0  0  0  0  0  0  0  0  0  0  0
    0.6901   -1.8323   -3.1868 C   0  0  0  0  0  0  0  0  0  0  0  0
    1.7646   -1.6245   -3.1612 H   0  0  0  0  0  0  0  0  0  0  0  0
    0.5254   -2.7405   -3.7750 H   0  0  0  0  0  0  0  0  0  0  0  0
    0.1875   -1.0026   -3.6937 H   0  0  0  0  0  0  0  0  0  0  0  0
    0.8252   -3.2197   -1.1276 C   0  0  0  0  0  0  0  0  0  0  0  0
    0.4979   -3.3604   -0.0967 H   0  0  0  0  0  0  0  0  0  0  0  0
    0.5890   -4.1300   -1.6871 H   0  0  0  0  0  0  0  0  0  0  0  0
    1.9118   -3.0876   -1.1233 H   0  0  0  0  0  0  0  0  0  0  0  0
   -0.5293    0.9521    0.6786 C   0  0  0  0  0  0  0  0  0  0  0  0
   -1.4081    1.6042    0.1252 O   0  0  0  0  0  0  0  0  0  0  0  0
    0.3058    1.5710    1.5905 N   0  0  0  0  0  0  0  0  0  0  0  0
    0.9764    0.9887    2.0841 H   0  0  0  0  0  0  0  0  0  0  0  0
    0.1892    2.9777    1.9550 C   0  0  0  0  0  0  0  0  0  0  0  0
   -0.7906    3.1779    2.4012 H   0  0  0  0  0  0  0  0  0  0  0  0
    0.9619    3.2454    2.6819 H   0  0  0  0  0  0  0  0  0  0  0  0
    0.3110    3.6139    1.0720 H   0  0  0  0  0  0  0  0  0  0  0  0
  1  2  1  0  0  0  0
  2  3  1  0  0  0  0
  2  4  1  0  0  0  0
  2  5  1  0  0  0  0
  5  6  2  0  0  0  0
  5  7  1  0  0  0  0
  7  8  1  0  0  0  0
  7  9  1  0  0  0  0
  9 10  1  0  0  0  0
  9 11  1  0  0  0  0
  9 24  1  0  0  0  0
 11 12  1  0  0  0  0
 11 13  1  0  0  0  0
 11 14  1  0  0  0  0
 14 15  1  0  0  0  0
 14 16  1  0  0  0  0
 14 20  1  0  0  0  0
 16 17  1  0  0  0  0
 16 18  1  0  0  0  0
 16 19  1  0  0  0  0
 20 21  1  0  0  0  0
 20 22  1  0  0  0  0
 20 23  1  0  0  0  0
 24 25  2  0  0  0  0
 24 26  1  0  0  0  0
 26 27  1  0  0  0  0
 26 28  1  0  0  0  0
 28 29  1  0  0  0  0
 28 30  1  0  0  0  0
 28 31  1  0  0  0  0
M  END
$$$$

  -OEChem-03222214063D

 31 30  0     1  0  0  0  0  0999 V2000
   -3.6089   -3.8018    1.6069 H   0  0  0  0  0  0  0  0  0  0  0  0
   -3.5146   -2.8849    1.0184 C   0  0  0  0  0  0  0  0  0  0  0  0
   -4.1841   -2.1286    1.4351 H   0  0  0  0  0  0  0  0  0  0  0  0
   -3.8097   -3.0961   -0.0123 H   0  0  0  0  0  0  0  0  0  0  0  0
   -2.0827   -2.3850    1.0547 C   0  0  0  0  0  0  0  0  0  0  0  0
   -1.2366   -3.0061    1.6793 O   0  0  0  0  0  0  0  0  0  0  0  0
   -1.7537   -1.2090    0.4124 N   0  0  0  0  0  0  0  0  0  0  0  0
   -2.5128   -0.6766   -0.0093 H   0  0  0  0  0  0  0  0  0  0  0  0
   -0.4175   -0.5927    0.3881 C   0  0  1  0  0  0  0  0  0  0  0  0
    0.1862   -1.0260    1.1919 H   0  0  0  0  0  0  0  0  0  0  0  0
    0.3686   -0.7594   -0.9473 C   0  0  0  0  0  0  0  0  0  0  0  0
    0.3684    0.2053   -1.4672 H   0  0  0  0  0  0  0  0  0  0  0  0
    1.4106   -0.9702   -0.6848 H   0  0  0  0  0  0  0  0  0  0  0  0
   -0.0934   -1.8066   -1.9907 C   0  0  0  0  0  0  0  0  0  0  0  0
   -1.1094   -1.5751   -2.3273 H   0  0  0  0  0  0  0  0  0  0  0  0
    0.8669   -1.7305   -3.1886 C   0  0  0  0  0  0  0  0  0  0  0  0
    1.8861   -1.9948   -2.8884 H   0  0  0  0  0  0  0  0  0  0  0  0
    0.5491   -2.4160   -3.9806 H   0  0  0  0  0  0  0  0  0  0  0  0
    0.8792   -0.7184   -3.6052 H   0  0  0  0  0  0  0  0  0  0  0  0
   -0.0375   -3.2542   -1.4726 C   0  0  0  0  0  0  0  0  0  0  0  0
   -0.9545   -3.5188   -0.9489 H   0  0  0  0  0  0  0  0  0  0  0  0
    0.0656   -3.9616   -2.3015 H   0  0  0  0  0  0  0  0  0  0  0  0
    0.8113   -3.3926   -0.7956 H   0  0  0  0  0  0  0  0  0  0  0  0
   -0.5590    0.9197    0.6633 C   0  0  0  0  0  0  0  0  0  0  0  0
   -1.4578    1.5611    0.1292 O   0  0  0  0  0  0  0  0  0  0  0  0
    0.2949    1.5521    1.5482 N   0  0  0  0  0  0  0  0  0  0  0  0
    0.9847    0.9793    2.0265 H   0  0  0  0  0  0  0  0  0  0  0  0
    0.1823    2.9623    1.8999 C   0  0  0  0  0  0  0  0  0  0  0  0
   -0.7883    3.1652    2.3647 H   0  0  0  0  0  0  0  0  0  0  0  0
    0.9695    3.2396    2.6076 H   0  0  0  0  0  0  0  0  0  0  0  0
    0.2839    3.5889    1.0075 H   0  0  0  0  0  0  0  0  0  0  0  0
  1  2  1  0  0  0  0
  2  3  1  0  0  0  0
  2  4  1  0  0  0  0
  2  5  1  0  0  0  0
  5  6  2  0  0  0  0
  5  7  1  0  0  0  0
  7  8  1  0  0  0  0
  7  9  1  0  0  0  0
  9 10  1  0  0  0  0
  9 11  1  0  0  0  0
  9 24  1  0  0  0  0
 11 12  1  0  0  0  0
 11 13  1  0  0  0  0
 11 14  1  0  0  0  0
 14 15  1  0  0  0  0
 14 16  1  0  0  0  0
 14 20  1  0  0  0  0
 16 17  1  0  0  0  0
 16 18  1  0  0  0  0
 16 19  1  0  0  0  0
 20 21  1  0  0  0  0
 20 22  1  0  0  0  0
 20 23  1  0  0  0  0
 24 25  2  0  0  0  0
 24 26  1  0  0  0  0
 26 27  1  0  0  0  0
 26 28  1  0  0  0  0
 28 29  1  0  0  0  0
 28 30  1  0  0  0  0
 28 31  1  0  0  0  0
M  END
$$$$

  -OEChem-03222214063D

 31 30  0     1  0  0  0  0  0999 V2000
   -3.6338   -3.8050    1.6174 H   0  0  0  0  0  0  0  0  0  0  0  0
   -3.5502   -2.8541    1.0836 C   0  0  0  0  0  0  0  0  0  0  0  0
   -4.1983   -2.1193    1.5673 H   0  0  0  0  0  0  0  0  0  0  0  0
   -3.8811   -2.9993    0.0524 H   0  0  0  0  0  0  0  0  0  0  0  0
   -2.1131   -2.3684    1.1029 C   0  0  0  0  0  0  0  0  0  0  0  0
   -1.2664   -2.9974    1.7183 O   0  0  0  0  0  0  0  0  0  0  0  0
   -1.7793   -1.2005    0.4470 N   0  0  0  0  0  0  0  0  0  0  0  0
   -2.5374   -0.6611    0.0323 H   0  0  0  0  0  0  0  0  0  0  0  0
   -0.4370   -0.6001    0.4045 C   0  0  1  0  0  0  0  0  0  0  0  0
    0.1662   -1.0310    1.2101 H   0  0  0  0  0  0  0  0  0  0  0  0
    0.3528   -0.7704   -0.9311 C   0  0  0  0  0  0  0  0  0  0  0  0
    0.3857    0.1973   -1.4447 H   0  0  0  0  0  0  0  0  0  0  0  0
    1.3831   -1.0003   -0.6398 H   0  0  0  0  0  0  0  0  0  0  0  0
   -0.0764   -1.8029   -2.0089 C   0  0  0  0  0  0  0  0  0  0  0  0
   -0.9533   -1.4249   -2.5457 H   0  0  0  0  0  0  0  0  0  0  0  0
    1.0993   -1.9642   -2.9873 C   0  0  0  0  0  0  0  0  0  0  0  0
    1.9660   -2.4105   -2.4884 H   0  0  0  0  0  0  0  0  0  0  0  0
    0.8146   -2.6047   -3.8282 H   0  0  0  0  0  0  0  0  0  0  0  0
    1.3944   -0.9905   -3.3911 H   0  0  0  0  0  0  0  0  0  0  0  0
   -0.3832   -3.2130   -1.4776 C   0  0  0  0  0  0  0  0  0  0  0  0
   -1.4355   -3.2991   -1.2050 H   0  0  0  0  0  0  0  0  0  0  0  0
   -0.1969   -3.9731   -2.2429 H   0  0  0  0  0  0  0  0  0  0  0  0
    0.2399   -3.4447   -0.6079 H   0  0  0  0  0  0  0  0  0  0  0  0
   -0.5687    0.9151    0.6701 C   0  0  0  0  0  0  0  0  0  0  0  0
   -1.4677    1.5579    0.1380 O   0  0  0  0  0  0  0  0  0  0  0  0
    0.2960    1.5494    1.5429 N   0  0  0  0  0  0  0  0  0  0  0  0
    0.9919    0.9780    2.0139 H   0  0  0  0  0  0  0  0  0  0  0  0
    0.1984    2.9641    1.8803 C   0  0  0  0  0  0  0  0  0  0  0  0
   -0.7688    3.1815    2.3454 H   0  0  0  0  0  0  0  0  0  0  0  0
    0.9903    3.2405    2.5830 H   0  0  0  0  0  0  0  0  0  0  0  0
    0.3041    3.5804    0.9813 H   0  0  0  0  0  0  0  0  0  0  0  0
  1  2  1  0  0  0  0
  2  3  1  0  0  0  0
  2  4  1  0  0  0  0
  2  5  1  0  0  0  0
  5  6  2  0  0  0  0
  5  7  1  0  0  0  0
  7  8  1  0  0  0  0
  7  9  1  0  0  0  0
  9 10  1  0  0  0  0
  9 11  1  0  0  0  0
  9 24  1  0  0  0  0
 11 12  1  0  0  0  0
 11 13  1  0  0  0  0
 11 14  1  0  0  0  0
 14 15  1  0  0  0  0
 14 16  1  0  0  0  0
 14 20  1  0  0  0  0
 16 17  1  0  0  0  0
 16 18  1  0  0  0  0
 16 19  1  0  0  0  0
 20 21  1  0  0  0  0
 20 22  1  0  0  0  0
 20 23  1  0  0  0  0
 24 25  2  0  0  0  0
 24 26  1  0  0  0  0
 26 27  1  0  0  0  0
 26 28  1  0  0  0  0
 28 29  1  0  0  0  0
 28 30  1  0  0  0  0
 28 31  1  0  0  0  0
M  END
$$$$

  -OEChem-03222214063D

 31 30  0     1  0  0  0  0  0999 V2000
   -3.6927   -3.7656    1.6770 H   0  0  0  0  0  0  0  0  0  0  0  0
   -3.5994   -2.8215    1.1330 C   0  0  0  0  0  0  0  0  0  0  0  0
   -4.2309   -2.0718    1.6157 H   0  0  0  0  0  0  0  0  0  0  0  0
   -3.9432   -2.9713    0.1067 H   0  0  0  0  0  0  0  0  0  0  0  0
   -2.1548   -2.3580    1.1334 C   0  0  0  0  0  0  0  0  0  0  0  0
   -1.3104   -2.9990    1.7397 O   0  0  0  0  0  0  0  0  0  0  0  0
   -1.8133   -1.1920    0.4771 N   0  0  0  0  0  0  0  0  0  0  0  0
   -2.5682   -0.6461    0.0652 H   0  0  0  0  0  0  0  0  0  0  0  0
   -0.4654   -0.6067    0.4241 C   0  0  1  0  0  0  0  0  0  0  0  0
    0.1323   -1.0427    1.2311 H   0  0  0  0  0  0  0  0  0  0  0  0
    0.3408   -0.7744   -0.9058 C   0  0  0  0  0  0  0  0  0  0  0  0
    0.3930    0.1991   -1.4063 H   0  0  0  0  0  0  0  0  0  0  0  0
    1.3622   -1.0029   -0.5837 H   0  0  0  0  0  0  0  0  0  0  0  0
   -0.0372   -1.7878   -2.0296 C   0  0  0  0  0  0  0  0  0  0  0  0
   -0.6998   -1.2866   -2.7434 H   0  0  0  0  0  0  0  0  0  0  0  0
    1.2628   -2.2045   -2.7389 C   0  0  0  0  0  0  0  0  0  0  0  0
    1.9069   -2.7817   -2.0672 H   0  0  0  0  0  0  0  0  0  0  0  0
    1.0428   -2.8169   -3.6193 H   0  0  0  0  0  0  0  0  0  0  0  0
    1.8134   -1.3196   -3.0738 H   0  0  0  0  0  0  0  0  0  0  0  0
   -0.7066   -3.0997   -1.5970 C   0  0  0  0  0  0  0  0  0  0  0  0
   -1.7716   -2.9468   -1.4153 H   0  0  0  0  0  0  0  0  0  0  0  0
   -0.6303   -3.8546   -2.3859 H   0  0  0  0  0  0  0  0  0  0  0  0
   -0.2290   -3.4991   -0.6971 H   0  0  0  0  0  0  0  0  0  0  0  0
   -0.5843    0.9088    0.6947 C   0  0  0  0  0  0  0  0  0  0  0  0
   -1.4802    1.5605    0.1681 O   0  0  0  0  0  0  0  0  0  0  0  0
    0.2919    1.5349    1.5621 N   0  0  0  0  0  0  0  0  0  0  0  0
    0.9820    0.9562    2.0328 H   0  0  0  0  0  0  0  0  0  0  0  0
    0.2089    2.9503    1.9005 C   0  0  0  0  0  0  0  0  0  0  0  0
   -0.7519    3.1754    2.3750 H   0  0  0  0  0  0  0  0  0  0  0  0
    1.0097    3.2200    2.5955 H   0  0  0  0  0  0  0  0  0  0  0  0
    0.3109    3.5663    1.0009 H   0  0  0  0  0  0  0  0  0  0  0  0
  1  2  1  0  0  0  0
  2  3  1  0  0  0  0
  2  4  1  0  0  0  0
  2  5  1  0  0  0  0
  5  6  2  0  0  0  0
  5  7  1  0  0  0  0
  7  8  1  0  0  0  0
  7  9  1  0  0  0  0
  9 10  1  0  0  0  0
  9 11  1  0  0  0  0
  9 24  1  0  0  0  0
 11 12  1  0  0  0  0
 11 13  1  0  0  0  0
 11 14  1  0  0  0  0
 14 15  1  0  0  0  0
 14 16  1  0  0  0  0
 14 20  1  0  0  0  0
 16 17  1  0  0  0  0
 16 18  1  0  0  0  0
 16 19  1  0  0  0  0
 20 21  1  0  0  0  0
 20 22  1  0  0  0  0
 20 23  1  0  0  0  0
 24 25  2  0  0  0  0
 24 26  1  0  0  0  0
 26 27  1  0  0  0  0
 26 28  1  0  0  0  0
 28 29  1  0  0  0  0
 28 30  1  0  0  0  0
 28 31  1  0  0  0  0
M  END
$$$$

  -OEChem-03222214063D

 31 30  0     1  0  0  0  0  0999 V2000
   -3.6762   -3.7438    1.7735 H   0  0  0  0  0  0  0  0  0  0  0  0
   -3.5942   -2.8033    1.2218 C   0  0  0  0  0  0  0  0  0  0  0  0
   -4.2134   -2.0499    1.7145 H   0  0  0  0  0  0  0  0  0  0  0  0
   -3.9624   -2.9589    0.2050 H   0  0  0  0  0  0  0  0  0  0  0  0
   -2.1490   -2.3426    1.1853 C   0  0  0  0  0  0  0  0  0  0  0  0
   -1.2886   -2.9906    1.7608 O   0  0  0  0  0  0  0  0  0  0  0  0
   -1.8218   -1.1764    0.5224 N   0  0  0  0  0  0  0  0  0  0  0  0
   -2.5859   -0.6258    0.1342 H   0  0  0  0  0  0  0  0  0  0  0  0
   -0.4748   -0.5960    0.4324 C   0  0  1  0  0  0  0  0  0  0  0  0
    0.1347   -1.0309    1.2311 H   0  0  0  0  0  0  0  0  0  0  0  0
    0.3209   -0.7744   -0.9054 C   0  0  0  0  0  0  0  0  0  0  0  0
    0.3507    0.1986   -1.4090 H   0  0  0  0  0  0  0  0  0  0  0  0
    1.3505   -0.9731   -0.5895 H   0  0  0  0  0  0  0  0  0  0  0  0
   -0.0372   -1.7914   -2.0409 C   0  0  0  0  0  0  0  0  0  0  0  0
   -0.4433   -1.2181   -2.8814 H   0  0  0  0  0  0  0  0  0  0  0  0
    1.2578   -2.4846   -2.4965 C   0  0  0  0  0  0  0  0  0  0  0  0
    1.6694   -3.1053   -1.6937 H   0  0  0  0  0  0  0  0  0  0  0  0
    1.0695   -3.1222   -3.3662 H   0  0  0  0  0  0  0  0  0  0  0  0
    2.0081   -1.7403   -2.7819 H   0  0  0  0  0  0  0  0  0  0  0  0
   -1.0349   -2.9170   -1.7434 C   0  0  0  0  0  0  0  0  0  0  0  0
   -2.0427   -2.5175   -1.6109 H   0  0  0  0  0  0  0  0  0  0  0  0
   -1.0800   -3.6186   -2.5823 H   0  0  0  0  0  0  0  0  0  0  0  0
   -0.7324   -3.4763   -0.8538 H   0  0  0  0  0  0  0  0  0  0  0  0
   -0.5832    0.9192    0.7088 C   0  0  0  0  0  0  0  0  0  0  0  0
   -1.4920    1.5731    0.2081 O   0  0  0  0  0  0  0  0  0  0  0  0
    0.3178    1.5425    1.5525 N   0  0  0  0  0  0  0  0  0  0  0  0
    1.0203    0.9621    2.0018 H   0  0  0  0  0  0  0  0  0  0  0  0
    0.2436    2.9564    1.8989 C   0  0  0  0  0  0  0  0  0  0  0  0
   -0.7166    3.1851    2.3734 H   0  0  0  0  0  0  0  0  0  0  0  0
    1.0447    3.2170    2.5972 H   0  0  0  0  0  0  0  0  0  0  0  0
    0.3510    3.5762    1.0024 H   0  0  0  0  0  0  0  0  0  0  0  0
  1  2  1  0  0  0  0
  2  3  1  0  0  0  0
  2  4  1  0  0  0  0
  2  5  1  0  0  0  0
  5  6  2  0  0  0  0
  5  7  1  0  0  0  0
  7  8  1  0  0  0  0
  7  9  1  0  0  0  0
  9 10  1  0  0  0  0
  9 11  1  0  0  0  0
  9 24  1  0  0  0  0
 11 12  1  0  0  0  0
 11 13  1  0  0  0  0
 11 14  1  0  0  0  0
 14 15  1  0  0  0  0
 14 16  1  0  0  0  0
 14 20  1  0  0  0  0
 16 17  1  0  0  0  0
 16 18  1  0  0  0  0
 16 19  1  0  0  0  0
 20 21  1  0  0  0  0
 20 22  1  0  0  0  0
 20 23  1  0  0  0  0
 24 25  2  0  0  0  0
 24 26  1  0  0  0  0
 26 27  1  0  0  0  0
 26 28  1  0  0  0  0
 28 29  1  0  0  0  0
 28 30  1  0  0  0  0
 28 31  1  0  0  0  0
M  END
$$$$

  -OEChem-03222214063D

 31 30  0     1  0  0  0  0  0999 V2000
   -3.6519   -3.7461    1.8186 H   0  0  0  0  0  0  0  0  0  0  0  0
   -3.5809   -2.8182    1.2440 C   0  0  0  0  0  0  0  0  0  0  0  0
   -4.2014   -2.0579    1.7244 H   0  0  0  0  0  0  0  0  0  0  0  0
   -3.9557   -3.0002    0.2338 H   0  0  0  0  0  0  0  0  0  0  0  0
   -2.1393   -2.3494    1.1838 C   0  0  0  0  0  0  0  0  0  0  0  0
   -1.2618   -3.0116    1.7157 O   0  0  0  0  0  0  0  0  0  0  0  0
   -1.8297   -1.1730    0.5308 N   0  0  0  0  0  0  0  0  0  0  0  0
   -2.6034   -0.6138    0.1752 H   0  0  0  0  0  0  0  0  0  0  0  0
   -0.4873   -0.5836    0.4372 C   0  0  1  0  0  0  0  0  0  0  0  0
    0.1221   -1.0201    1.2351 H   0  0  0  0  0  0  0  0  0  0  0  0
    0.3192   -0.7653   -0.8928 C   0  0  0  0  0  0  0  0  0  0  0  0
    0.3040    0.2044   -1.4031 H   0  0  0  0  0  0  0  0  0  0  0  0
    1.3603   -0.9167   -0.5895 H   0  0  0  0  0  0  0  0  0  0  0  0
   -0.0183   -1.7934   -2.0259 C   0  0  0  0  0  0  0  0  0  0  0  0
   -0.1112   -1.2109   -2.9492 H   0  0  0  0  0  0  0  0  0  0  0  0
    1.1719   -2.7459   -2.2127 C   0  0  0  0  0  0  0  0  0  0  0  0
    1.3293   -3.3426   -1.3083 H   0  0  0  0  0  0  0  0  0  0  0  0
    0.9937   -3.4266   -3.0512 H   0  0  0  0  0  0  0  0  0  0  0  0
    2.0863   -2.1825   -2.4238 H   0  0  0  0  0  0  0  0  0  0  0  0
   -1.2924   -2.6398   -1.9411 C   0  0  0  0  0  0  0  0  0  0  0  0
   -2.1778   -2.0039   -1.8570 H   0  0  0  0  0  0  0  0  0  0  0  0
   -1.4052   -3.2367   -2.8515 H   0  0  0  0  0  0  0  0  0  0  0  0
   -1.2446   -3.3309   -1.0962 H   0  0  0  0  0  0  0  0  0  0  0  0
   -0.5948    0.9283    0.7299 C   0  0  0  0  0  0  0  0  0  0  0  0
   -1.5113    1.5843    0.2464 O   0  0  0  0  0  0  0  0  0  0  0  0
    0.3120    1.5450    1.5721 N   0  0  0  0  0  0  0  0  0  0  0  0
    1.0242    0.9632    2.0043 H   0  0  0  0  0  0  0  0  0  0  0  0
    0.2431    2.9573    1.9256 C   0  0  0  0  0  0  0  0  0  0  0  0
   -0.7074    3.1827    2.4206 H   0  0  0  0  0  0  0  0  0  0  0  0
    1.0582    3.2167    2.6079 H   0  0  0  0  0  0  0  0  0  0  0  0
    0.3308    3.5806    1.0295 H   0  0  0  0  0  0  0  0  0  0  0  0
  1  2  1  0  0  0  0
  2  3  1  0  0  0  0
  2  4  1  0  0  0  0
  2  5  1  0  0  0  0
  5  6  2  0  0  0  0
  5  7  1  0  0  0  0
  7  8  1  0  0  0  0
  7  9  1  0  0  0  0
  9 10  1  0  0  0  0
  9 11  1  0  0  0  0
  9 24  1  0  0  0  0
 11 12  1  0  0  0  0
 11 13  1  0  0  0  0
 11 14  1  0  0  0  0
 14 15  1  0  0  0  0
 14 16  1  0  0  0  0
 14 20  1  0  0  0  0
 16 17  1  0  0  0  0
 16 18  1  0  0  0  0
 16 19  1  0  0  0  0
 20 21  1  0  0  0  0
 20 22  1  0  0  0  0
 20 23  1  0  0  0  0
 24 25  2  0  0  0  0
 24 26  1  0  0  0  0
 26 27  1  0  0  0  0
 26 28  1  0  0  0  0
 28 29  1  0  0  0  0
 28 30  1  0  0  0  0
 28 31  1  0  0  0  0
M  END
$$$$

  -OEChem-03222214063D

 31 30  0     1  0  0  0  0  0999 V2000
   -3.6506   -3.7813    1.7009 H   0  0  0  0  0  0  0  0  0  0  0  0
   -3.5835   -2.8244    1.1757 C   0  0  0  0  0  0  0  0  0  0  0  0
   -4.1967   -2.0892    1.7023 H   0  0  0  0  0  0  0  0  0  0  0  0
   -3.9696   -2.9519    0.1614 H   0  0  0  0  0  0  0  0  0  0  0  0
   -2.1414   -2.3554    1.1257 C   0  0  0  0  0  0  0  0  0  0  0  0
   -1.2637   -3.0313    1.6399 O   0  0  0  0  0  0  0  0  0  0  0  0
   -1.8316   -1.1679    0.4934 N   0  0  0  0  0  0  0  0  0  0  0  0
   -2.6042   -0.6028    0.1448 H   0  0  0  0  0  0  0  0  0  0  0  0
   -0.4919   -0.5698    0.4368 C   0  0  1  0  0  0  0  0  0  0  0  0
    0.0992   -1.0111    1.2456 H   0  0  0  0  0  0  0  0  0  0  0  0
    0.3412   -0.7594   -0.8720 C   0  0  0  0  0  0  0  0  0  0  0  0
    0.3062    0.2026   -1.3958 H   0  0  0  0  0  0  0  0  0  0  0  0
    1.3850   -0.8927   -0.5697 H   0  0  0  0  0  0  0  0  0  0  0  0
    0.0056   -1.8040   -1.9836 C   0  0  0  0  0  0  0  0  0  0  0  0
    0.2336   -1.2960   -2.9275 H   0  0  0  0  0  0  0  0  0  0  0  0
    0.9809   -2.9846   -1.9046 C   0  0  0  0  0  0  0  0  0  0  0  0
    0.8547   -3.5177   -0.9565 H   0  0  0  0  0  0  0  0  0  0  0  0
    0.8001   -3.6863   -2.7250 H   0  0  0  0  0  0  0  0  0  0  0  0
    2.0166   -2.6378   -1.9760 H   0  0  0  0  0  0  0  0  0  0  0  0
   -1.4326   -2.3072   -2.1479 C   0  0  0  0  0  0  0  0  0  0  0  0
   -2.1413   -1.4748   -2.1054 H   0  0  0  0  0  0  0  0  0  0  0  0
   -1.6817   -3.0453   -1.3828 H   0  0  0  0  0  0  0  0  0  0  0  0
   -1.5454   -2.7937   -3.1216 H   0  0  0  0  0  0  0  0  0  0  0  0
   -0.6021    0.9384    0.7442 C   0  0  0  0  0  0  0  0  0  0  0  0
   -1.5101    1.6002    0.2530 O   0  0  0  0  0  0  0  0  0  0  0  0
    0.2888    1.5435    1.6116 N   0  0  0  0  0  0  0  0  0  0  0  0
    0.9959    0.9567    2.0453 H   0  0  0  0  0  0  0  0  0  0  0  0
    0.2193    2.9529    1.9776 C   0  0  0  0  0  0  0  0  0  0  0  0
   -0.7420    3.1801    2.4504 H   0  0  0  0  0  0  0  0  0  0  0  0
    1.0182    3.1997    2.6835 H   0  0  0  0  0  0  0  0  0  0  0  0
    0.3341    3.5851    1.0909 H   0  0  0  0  0  0  0  0  0  0  0  0
  1  2  1  0  0  0  0
  2  3  1  0  0  0  0
  2  4  1  0  0  0  0
  2  5  1  0  0  0  0
  5  6  2  0  0  0  0
  5  7  1  0  0  0  0
  7  8  1  0  0  0  0
  7  9  1  0  0  0  0
  9 10  1  0  0  0  0
  9 11  1  0  0  0  0
  9 24  1  0  0  0  0
 11 12  1  0  0  0  0
 11 13  1  0  0  0  0
 11 14  1  0  0  0  0
 14 15  1  0  0  0  0
 14 16  1  0  0  0  0
 14 20  1  0  0  0  0
 16 17  1  0  0  0  0
 16 18  1  0  0  0  0
 16 19  1  0  0  0  0
 20 21  1  0  0  0  0
 20 22  1  0  0  0  0
 20 23  1  0  0  0  0
 24 25  2  0  0  0  0
 24 26  1  0  0  0  0
 26 27  1  0  0  0  0
 26 28  1  0  0  0  0
 28 29  1  0  0  0  0
 28 30  1  0  0  0  0
 28 31  1  0  0  0  0
M  END
$$$$

  -OEChem-03222214063D

 31 30  0     1  0  0  0  0  0999 V2000
   -3.5562   -3.8364    1.6842 H   0  0  0  0  0  0  0  0  0  0  0  0
   -3.5117   -2.8674    1.1793 C   0  0  0  0  0  0  0  0  0  0  0  0
   -4.1250   -2.1526    1.7330 H   0  0  0  0  0  0  0  0  0  0  0  0
   -3.9151   -2.9779    0.1700 H   0  0  0  0  0  0  0  0  0  0  0  0
   -2.0775   -2.3770    1.1143 C   0  0  0  0  0  0  0  0  0  0  0  0
   -1.1855   -3.0366    1.6246 O   0  0  0  0  0  0  0  0  0  0  0  0
   -1.7948   -1.1791    0.4896 N   0  0  0  0  0  0  0  0  0  0  0  0
   -2.5803   -0.6292    0.1462 H   0  0  0  0  0  0  0  0  0  0  0  0
   -0.4670   -0.5563    0.4217 C   0  0  1  0  0  0  0  0  0  0  0  0
    0.1462   -0.9953    1.2150 H   0  0  0  0  0  0  0  0  0  0  0  0
    0.3308   -0.7350   -0.9069 C   0  0  0  0  0  0  0  0  0  0  0  0
    0.2782    0.2236   -1.4353 H   0  0  0  0  0  0  0  0  0  0  0  0
    1.3839   -0.8755   -0.6432 H   0  0  0  0  0  0  0  0  0  0  0  0
   -0.0578   -1.7925   -1.9794 C   0  0  0  0  0  0  0  0  0  0  0  0
    0.3789   -1.4144   -2.9104 H   0  0  0  0  0  0  0  0  0  0  0  0
    0.6507   -3.1232   -1.7071 C   0  0  0  0  0  0  0  0  0  0  0  0
    0.3037   -3.5542   -0.7627 H   0  0  0  0  0  0  0  0  0  0  0  0
    0.4439   -3.8360   -2.5113 H   0  0  0  0  0  0  0  0  0  0  0  0
    1.7340   -2.9800   -1.6472 H   0  0  0  0  0  0  0  0  0  0  0  0
   -1.5452   -1.9944   -2.2970 C   0  0  0  0  0  0  0  0  0  0  0  0
   -2.0782   -1.0391   -2.2668 H   0  0  0  0  0  0  0  0  0  0  0  0
   -1.6550   -2.4147   -3.3014 H   0  0  0  0  0  0  0  0  0  0  0  0
   -2.0107   -2.6925   -1.5980 H   0  0  0  0  0  0  0  0  0  0  0  0
   -0.5910    0.9478    0.7420 C   0  0  0  0  0  0  0  0  0  0  0  0
   -1.5124    1.6024    0.2664 O   0  0  0  0  0  0  0  0  0  0  0  0
    0.3044    1.5568    1.6020 N   0  0  0  0  0  0  0  0  0  0  0  0
    1.0236    0.9747    2.0220 H   0  0  0  0  0  0  0  0  0  0  0  0
    0.2200    2.9608    1.9846 C   0  0  0  0  0  0  0  0  0  0  0  0
   -0.7446    3.1722    2.4580 H   0  0  0  0  0  0  0  0  0  0  0  0
    1.0148    3.2069    2.6953 H   0  0  0  0  0  0  0  0  0  0  0  0
    0.3305    3.6045    1.1057 H   0  0  0  0  0  0  0  0  0  0  0  0
  1  2  1  0  0  0  0
  2  3  1  0  0  0  0
  2  4  1  0  0  0  0
  2  5  1  0  0  0  0
  5  6  2  0  0  0  0
  5  7  1  0  0  0  0
  7  8  1  0  0  0  0
  7  9  1  0  0  0  0
  9 10  1  0  0  0  0
  9 11  1  0  0  0  0
  9 24  1  0  0  0  0
 11 12  1  0  0  0  0
 11 13  1  0  0  0  0
 11 14  1  0  0  0  0
 14 15  1  0  0  0  0
 14 16  1  0  0  0  0
 14 20  1  0  0  0  0
 16 17  1  0  0  0  0
 16 18  1  0  0  0  0
 16 19  1  0  0  0  0
 20 21  1  0  0  0  0
 20 22  1  0  0  0  0
 20 23  1  0  0  0  0
 24 25  2  0  0  0  0
 24 26  1  0  0  0  0
 26 27  1  0  0  0  0
 26 28  1  0  0  0  0
 28 29  1  0  0  0  0
 28 30  1  0  0  0  0
 28 31  1  0  0  0  0
M  END
$$$$

  -OEChem-03222214063D

 31 30  0     1  0  0  0  0  0999 V2000
   -3.5565   -3.8049    1.7337 H   0  0  0  0  0  0  0  0  0  0  0  0
   -3.4800   -2.9074    1.1137 C   0  0  0  0  0  0  0  0  0  0  0  0
   -4.1605   -2.1487    1.5077 H   0  0  0  0  0  0  0  0  0  0  0  0
   -3.7760   -3.1578    0.0923 H   0  0  0  0  0  0  0  0  0  0  0  0
   -2.0564   -2.3838    1.1259 C   0  0  0  0  0  0  0  0  0  0  0  0
   -1.1860   -3.0046    1.7160 O   0  0  0  0  0  0  0  0  0  0  0  0
   -1.7634   -1.1907    0.4978 N   0  0  0  0  0  0  0  0  0  0  0  0
   -2.5385   -0.6685    0.0935 H   0  0  0  0  0  0  0  0  0  0  0  0
   -0.4369   -0.5636    0.4354 C   0  0  1  0  0  0  0  0  0  0  0  0
    0.1859   -1.0017    1.2217 H   0  0  0  0  0  0  0  0  0  0  0  0
    0.3371   -0.7247   -0.9099 C   0  0  0  0  0  0  0  0  0  0  0  0
    0.3050    0.2407   -1.4274 H   0  0  0  0  0  0  0  0  0  0  0  0
    1.3886   -0.9025   -0.6627 H   0  0  0  0  0  0  0  0  0  0  0  0
   -0.0883   -1.7691   -1.9755 C   0  0  0  0  0  0  0  0  0  0  0  0
    0.5182   -1.5345   -2.8574 H   0  0  0  0  0  0  0  0  0  0  0  0
    0.2960   -3.1951   -1.5668 C   0  0  0  0  0  0  0  0  0  0  0  0
   -0.2957   -3.5340   -0.7145 H   0  0  0  0  0  0  0  0  0  0  0  0
    0.1237   -3.8847   -2.3988 H   0  0  0  0  0  0  0  0  0  0  0  0
    1.3546   -3.2438   -1.2943 H   0  0  0  0  0  0  0  0  0  0  0  0
   -1.5485   -1.6846   -2.4444 C   0  0  0  0  0  0  0  0  0  0  0  0
   -1.8718   -0.6406   -2.5053 H   0  0  0  0  0  0  0  0  0  0  0  0
   -1.6436   -2.1318   -3.4387 H   0  0  0  0  0  0  0  0  0  0  0  0
   -2.2204   -2.2268   -1.7757 H   0  0  0  0  0  0  0  0  0  0  0  0
   -0.5743    0.9416    0.7464 C   0  0  0  0  0  0  0  0  0  0  0  0
   -1.4894    1.5891    0.2488 O   0  0  0  0  0  0  0  0  0  0  0  0
    0.3088    1.5637    1.6098 N   0  0  0  0  0  0  0  0  0  0  0  0
    1.0158    0.9864    2.0561 H   0  0  0  0  0  0  0  0  0  0  0  0
    0.2079    2.9696    1.9811 C   0  0  0  0  0  0  0  0  0  0  0  0
   -0.7522    3.1692    2.4684 H   0  0  0  0  0  0  0  0  0  0  0  0
    1.0105    3.2359    2.6756 H   0  0  0  0  0  0  0  0  0  0  0  0
    0.2930    3.6066    1.0945 H   0  0  0  0  0  0  0  0  0  0  0  0
  1  2  1  0  0  0  0
  2  3  1  0  0  0  0
  2  4  1  0  0  0  0
  2  5  1  0  0  0  0
  5  6  2  0  0  0  0
  5  7  1  0  0  0  0
  7  8  1  0  0  0  0
  7  9  1  0  0  0  0
  9 10  1  0  0  0  0
  9 11  1  0  0  0  0
  9 24  1  0  0  0  0
 11 12  1  0  0  0  0
 11 13  1  0  0  0  0
 11 14  1  0  0  0  0
 14 15  1  0  0  0  0
 14 16  1  0  0  0  0
 14 20  1  0  0  0  0
 16 17  1  0  0  0  0
 16 18  1  0  0  0  0
 16 19  1  0  0  0  0
 20 21  1  0  0  0  0
 20 22  1  0  0  0  0
 20 23  1  0  0  0  0
 24 25  2  0  0  0  0
 24 26  1  0  0  0  0
 26 27  1  0  0  0  0
 26 28  1  0  0  0  0
 28 29  1  0  0  0  0
 28 30  1  0  0  0  0
 28 31  1  0  0  0  0
M  END
$$$$

  -OEChem-03222214063D

 31 30  0     1  0  0  0  0  0999 V2000
   -3.5432   -3.8323    1.7093 H   0  0  0  0  0  0  0  0  0  0  0  0
   -3.4748   -2.9164    1.1158 C   0  0  0  0  0  0  0  0  0  0  0  0
   -4.1565   -2.1731    1.5359 H   0  0  0  0  0  0  0  0  0  0  0  0
   -3.7752   -3.1382    0.0889 H   0  0  0  0  0  0  0  0  0  0  0  0
   -2.0536   -2.3863    1.1351 C   0  0  0  0  0  0  0  0  0  0  0  0
   -1.1809   -3.0062    1.7231 O   0  0  0  0  0  0  0  0  0  0  0  0
   -1.7597   -1.1974    0.5000 N   0  0  0  0  0  0  0  0  0  0  0  0
   -2.5346   -0.6774    0.0925 H   0  0  0  0  0  0  0  0  0  0  0  0
   -0.4328   -0.5689    0.4366 C   0  0  1  0  0  0  0  0  0  0  0  0
    0.1934   -1.0032    1.2223 H   0  0  0  0  0  0  0  0  0  0  0  0
    0.3361   -0.7184   -0.9133 C   0  0  0  0  0  0  0  0  0  0  0  0
    0.3324    0.2531   -1.4205 H   0  0  0  0  0  0  0  0  0  0  0  0
    1.3810   -0.9248   -0.6601 H   0  0  0  0  0  0  0  0  0  0  0  0
   -0.0900   -1.7530   -1.9862 C   0  0  0  0  0  0  0  0  0  0  0  0
    0.6643   -1.6759   -2.7766 H   0  0  0  0  0  0  0  0  0  0  0  0
   -0.0556   -3.2056   -1.4957 C   0  0  0  0  0  0  0  0  0  0  0  0
   -0.9736   -3.4763   -0.9735 H   0  0  0  0  0  0  0  0  0  0  0  0
    0.0495   -3.8827   -2.3491 H   0  0  0  0  0  0  0  0  0  0  0  0
    0.7928   -3.3662   -0.8233 H   0  0  0  0  0  0  0  0  0  0  0  0
   -1.4415   -1.4257   -2.6386 C   0  0  0  0  0  0  0  0  0  0  0  0
   -1.4736   -0.3748   -2.9423 H   0  0  0  0  0  0  0  0  0  0  0  0
   -1.5835   -2.0444   -3.5300 H   0  0  0  0  0  0  0  0  0  0  0  0
   -2.2766   -1.6168   -1.9615 H   0  0  0  0  0  0  0  0  0  0  0  0
   -0.5776    0.9374    0.7389 C   0  0  0  0  0  0  0  0  0  0  0  0
   -1.4955    1.5796    0.2397 O   0  0  0  0  0  0  0  0  0  0  0  0
    0.3022    1.5649    1.6017 N   0  0  0  0  0  0  0  0  0  0  0  0
    1.0160    0.9923    2.0434 H   0  0  0  0  0  0  0  0  0  0  0  0
    0.1943    2.9699    1.9749 C   0  0  0  0  0  0  0  0  0  0  0  0
   -0.7702    3.1667    2.4549 H   0  0  0  0  0  0  0  0  0  0  0  0
    0.9904    3.2368    2.6768 H   0  0  0  0  0  0  0  0  0  0  0  0
    0.2849    3.6090    1.0903 H   0  0  0  0  0  0  0  0  0  0  0  0
  1  2  1  0  0  0  0
  2  3  1  0  0  0  0
  2  4  1  0  0  0  0
  2  5  1  0  0  0  0
  5  6  2  0  0  0  0
  5  7  1  0  0  0  0
  7  8  1  0  0  0  0
  7  9  1  0  0  0  0
  9 10  1  0  0  0  0
  9 11  1  0  0  0  0
  9 24  1  0  0  0  0
 11 12  1  0  0  0  0
 11 13  1  0  0  0  0
 11 14  1  0  0  0  0
 14 15  1  0  0  0  0
 14 16  1  0  0  0  0
 14 20  1  0  0  0  0
 16 17  1  0  0  0  0
 16 18  1  0  0  0  0
 16 19  1  0  0  0  0
 20 21  1  0  0  0  0
 20 22  1  0  0  0  0
 20 23  1  0  0  0  0
 24 25  2  0  0  0  0
 24 26  1  0  0  0  0
 26 27  1  0  0  0  0
 26 28  1  0  0  0  0
 28 29  1  0  0  0  0
 28 30  1  0  0  0  0
 28 31  1  0  0  0  0
M  END
$$$$

  -OEChem-03222214063D

 31 30  0     1  0  0  0  0  0999 V2000
   -3.5628   -3.8576    1.6580 H   0  0  0  0  0  0  0  0  0  0  0  0
   -3.5008   -2.9000    1.1334 C   0  0  0  0  0  0  0  0  0  0  0  0
   -4.1545   -2.1814    1.6333 H   0  0  0  0  0  0  0  0  0  0  0  0
   -3.8425   -3.0393    0.1049 H   0  0  0  0  0  0  0  0  0  0  0  0
   -2.0715   -2.3909    1.1399 C   0  0  0  0  0  0  0  0  0  0  0  0
   -1.2055   -3.0159    1.7323 O   0  0  0  0  0  0  0  0  0  0  0  0
   -1.7650   -1.2094    0.4953 N   0  0  0  0  0  0  0  0  0  0  0  0
   -2.5361   -0.6803    0.0919 H   0  0  0  0  0  0  0  0  0  0  0  0
   -0.4337   -0.5863    0.4415 C   0  0  1  0  0  0  0  0  0  0  0  0
    0.1850   -1.0157    1.2359 H   0  0  0  0  0  0  0  0  0  0  0  0
    0.3500   -0.7271   -0.9028 C   0  0  0  0  0  0  0  0  0  0  0  0
    0.3895    0.2522   -1.3932 H   0  0  0  0  0  0  0  0  0  0  0  0
    1.3819   -0.9645   -0.6246 H   0  0  0  0  0  0  0  0  0  0  0  0
   -0.0553   -1.7490   -1.9984 C   0  0  0  0  0  0  0  0  0  0  0  0
    0.8040   -1.8352   -2.6722 H   0  0  0  0  0  0  0  0  0  0  0  0
   -0.3844   -3.1629   -1.5043 C   0  0  0  0  0  0  0  0  0  0  0  0
   -1.4360   -3.2607   -1.2295 H   0  0  0  0  0  0  0  0  0  0  0  0
   -0.1886   -3.8862   -2.3018 H   0  0  0  0  0  0  0  0  0  0  0  0
    0.2402   -3.4261   -0.6449 H   0  0  0  0  0  0  0  0  0  0  0  0
   -1.2358   -1.2127   -2.8206 C   0  0  0  0  0  0  0  0  0  0  0  0
   -0.9839   -0.2454   -3.2661 H   0  0  0  0  0  0  0  0  0  0  0  0
   -1.4803   -1.9075   -3.6301 H   0  0  0  0  0  0  0  0  0  0  0  0
   -2.1241   -1.0830   -2.1960 H   0  0  0  0  0  0  0  0  0  0  0  0
   -0.5885    0.9228    0.7283 C   0  0  0  0  0  0  0  0  0  0  0  0
   -1.5023    1.5571    0.2114 O   0  0  0  0  0  0  0  0  0  0  0  0
    0.2765    1.5629    1.5969 N   0  0  0  0  0  0  0  0  0  0  0  0
    0.9878    0.9989    2.0534 H   0  0  0  0  0  0  0  0  0  0  0  0
    0.1664    2.9751    1.9413 C   0  0  0  0  0  0  0  0  0  0  0  0
   -0.8030    3.1821    2.4069 H   0  0  0  0  0  0  0  0  0  0  0  0
    0.9553    3.2549    2.6462 H   0  0  0  0  0  0  0  0  0  0  0  0
    0.2677    3.5966    1.0453 H   0  0  0  0  0  0  0  0  0  0  0  0
  1  2  1  0  0  0  0
  2  3  1  0  0  0  0
  2  4  1  0  0  0  0
  2  5  1  0  0  0  0
  5  6  2  0  0  0  0
  5  7  1  0  0  0  0
  7  8  1  0  0  0  0
  7  9  1  0  0  0  0
  9 10  1  0  0  0  0
  9 11  1  0  0  0  0
  9 24  1  0  0  0  0
 11 12  1  0  0  0  0
 11 13  1  0  0  0  0
 11 14  1  0  0  0  0
 14 15  1  0  0  0  0
 14 16  1  0  0  0  0
 14 20  1  0  0  0  0
 16 17  1  0  0  0  0
 16 18  1  0  0  0  0
 16 19  1  0  0  0  0
 20 21  1  0  0  0  0
 20 22  1  0  0  0  0
 20 23  1  0  0  0  0
 24 25  2  0  0  0  0
 24 26  1  0  0  0  0
 26 27  1  0  0  0  0
 26 28  1  0  0  0  0
 28 29  1  0  0  0  0
 28 30  1  0  0  0  0
 28 31  1  0  0  0  0
M  END
$$$$

  -OEChem-03222214063D

 31 30  0     1  0  0  0  0  0999 V2000
   -3.5309   -3.8846    1.7126 H   0  0  0  0  0  0  0  0  0  0  0  0
   -3.4864   -2.9216    1.1964 C   0  0  0  0  0  0  0  0  0  0  0  0
   -4.1263   -2.2093    1.7228 H   0  0  0  0  0  0  0  0  0  0  0  0
   -3.8585   -3.0508    0.1772 H   0  0  0  0  0  0  0  0  0  0  0  0
   -2.0583   -2.4101    1.1667 C   0  0  0  0  0  0  0  0  0  0  0  0
   -1.1778   -3.0312    1.7416 O   0  0  0  0  0  0  0  0  0  0  0  0
   -1.7705   -1.2251    0.5189 N   0  0  0  0  0  0  0  0  0  0  0  0
   -2.5513   -0.6984    0.1311 H   0  0  0  0  0  0  0  0  0  0  0  0
   -0.4432   -0.5969    0.4431 C   0  0  1  0  0  0  0  0  0  0  0  0
    0.1894   -1.0229    1.2286 H   0  0  0  0  0  0  0  0  0  0  0  0
    0.3324   -0.7175   -0.9100 C   0  0  0  0  0  0  0  0  0  0  0  0
    0.3854    0.2741   -1.3735 H   0  0  0  0  0  0  0  0  0  0  0  0
    1.3613   -0.9630   -0.6276 H   0  0  0  0  0  0  0  0  0  0  0  0
   -0.0447   -1.7218   -2.0392 C   0  0  0  0  0  0  0  0  0  0  0  0
    0.8830   -1.9631   -2.5695 H   0  0  0  0  0  0  0  0  0  0  0  0
   -0.6927   -3.0494   -1.6320 C   0  0  0  0  0  0  0  0  0  0  0  0
   -0.5933   -3.7722   -2.4475 H   0  0  0  0  0  0  0  0  0  0  0  0
   -1.7597   -2.9334   -1.4303 H   0  0  0  0  0  0  0  0  0  0  0  0
   -0.1930   -3.4644   -0.7520 H   0  0  0  0  0  0  0  0  0  0  0  0
   -0.9892   -1.0288   -3.0319 C   0  0  0  0  0  0  0  0  0  0  0  0
   -0.5098   -0.1468   -3.4680 H   0  0  0  0  0  0  0  0  0  0  0  0
   -1.2534   -1.7090   -3.8478 H   0  0  0  0  0  0  0  0  0  0  0  0
   -1.9093   -0.7106   -2.5310 H   0  0  0  0  0  0  0  0  0  0  0  0
   -0.6095    0.9094    0.7382 C   0  0  0  0  0  0  0  0  0  0  0  0
   -1.5387    1.5360    0.2396 O   0  0  0  0  0  0  0  0  0  0  0  0
    0.2629    1.5553    1.5947 N   0  0  0  0  0  0  0  0  0  0  0  0
    0.9849    0.9967    2.0408 H   0  0  0  0  0  0  0  0  0  0  0  0
    0.1334    2.9613    1.9569 C   0  0  0  0  0  0  0  0  0  0  0  0
   -0.8331    3.1457    2.4374 H   0  0  0  0  0  0  0  0  0  0  0  0
    0.9267    3.2469    2.6543 H   0  0  0  0  0  0  0  0  0  0  0  0
    0.2114    3.5945    1.0669 H   0  0  0  0  0  0  0  0  0  0  0  0
  1  2  1  0  0  0  0
  2  3  1  0  0  0  0
  2  4  1  0  0  0  0
  2  5  1  0  0  0  0
  5  6  2  0  0  0  0
  5  7  1  0  0  0  0
  7  8  1  0  0  0  0
  7  9  1  0  0  0  0
  9 10  1  0  0  0  0
  9 11  1  0  0  0  0
  9 24  1  0  0  0  0
 11 12  1  0  0  0  0
 11 13  1  0  0  0  0
 11 14  1  0  0  0  0
 14 15  1  0  0  0  0
 14 16  1  0  0  0  0
 14 20  1  0  0  0  0
 16 17  1  0  0  0  0
 16 18  1  0  0  0  0
 16 19  1  0  0  0  0
 20 21  1  0  0  0  0
 20 22  1  0  0  0  0
 20 23  1  0  0  0  0
 24 25  2  0  0  0  0
 24 26  1  0  0  0  0
 26 27  1  0  0  0  0
 26 28  1  0  0  0  0
 28 29  1  0  0  0  0
 28 30  1  0  0  0  0
 28 31  1  0  0  0  0
M  END
$$$$

  -OEChem-03222214063D

 31 30  0     1  0  0  0  0  0999 V2000
   -3.5923   -3.8112    1.8071 H   0  0  0  0  0  0  0  0  0  0  0  0
   -3.5361   -2.8692    1.2542 C   0  0  0  0  0  0  0  0  0  0  0  0
   -4.1654   -2.1289    1.7542 H   0  0  0  0  0  0  0  0  0  0  0  0
   -3.9125   -3.0324    0.2416 H   0  0  0  0  0  0  0  0  0  0  0  0
   -2.1012   -2.3788    1.2011 C   0  0  0  0  0  0  0  0  0  0  0  0
   -1.2206   -3.0116    1.7630 O   0  0  0  0  0  0  0  0  0  0  0  0
   -1.8059   -1.2024    0.5415 N   0  0  0  0  0  0  0  0  0  0  0  0
   -2.5851   -0.6664    0.1633 H   0  0  0  0  0  0  0  0  0  0  0  0
   -0.4725   -0.5924    0.4429 C   0  0  1  0  0  0  0  0  0  0  0  0
    0.1562   -1.0174    1.2322 H   0  0  0  0  0  0  0  0  0  0  0  0
    0.3086   -0.7416   -0.9066 C   0  0  0  0  0  0  0  0  0  0  0  0
    0.3670    0.2488   -1.3720 H   0  0  0  0  0  0  0  0  0  0  0  0
    1.3358   -0.9816   -0.6131 H   0  0  0  0  0  0  0  0  0  0  0  0
   -0.0485   -1.7558   -2.0426 C   0  0  0  0  0  0  0  0  0  0  0  0
    0.8957   -2.2007   -2.3757 H   0  0  0  0  0  0  0  0  0  0  0  0
   -1.0005   -2.9164   -1.7381 C   0  0  0  0  0  0  0  0  0  0  0  0
   -2.0266   -2.5682   -1.5969 H   0  0  0  0  0  0  0  0  0  0  0  0
   -1.0047   -3.6218   -2.5749 H   0  0  0  0  0  0  0  0  0  0  0  0
   -0.6643   -3.4595   -0.8511 H   0  0  0  0  0  0  0  0  0  0  0  0
   -0.6449   -0.9856   -3.2311 C   0  0  0  0  0  0  0  0  0  0  0  0
    0.0621   -0.2349   -3.5981 H   0  0  0  0  0  0  0  0  0  0  0  0
   -0.8717   -1.6668   -4.0573 H   0  0  0  0  0  0  0  0  0  0  0  0
   -1.5687   -0.4782   -2.9340 H   0  0  0  0  0  0  0  0  0  0  0  0
   -0.6149    0.9184    0.7289 C   0  0  0  0  0  0  0  0  0  0  0  0
   -1.5402    1.5546    0.2352 O   0  0  0  0  0  0  0  0  0  0  0  0
    0.2782    1.5582    1.5686 N   0  0  0  0  0  0  0  0  0  0  0  0
    1.0002    0.9929    2.0064 H   0  0  0  0  0  0  0  0  0  0  0  0
    0.1830    2.9717    1.9113 C   0  0  0  0  0  0  0  0  0  0  0  0
   -0.7787    3.1865    2.3888 H   0  0  0  0  0  0  0  0  0  0  0  0
    0.9826    3.2473    2.6054 H   0  0  0  0  0  0  0  0  0  0  0  0
    0.2768    3.5902    1.0126 H   0  0  0  0  0  0  0  0  0  0  0  0
  1  2  1  0  0  0  0
  2  3  1  0  0  0  0
  2  4  1  0  0  0  0
  2  5  1  0  0  0  0
  5  6  2  0  0  0  0
  5  7  1  0  0  0  0
  7  8  1  0  0  0  0
  7  9  1  0  0  0  0
  9 10  1  0  0  0  0
  9 11  1  0  0  0  0
  9 24  1  0  0  0  0
 11 12  1  0  0  0  0
 11 13  1  0  0  0  0
 11 14  1  0  0  0  0
 14 15  1  0  0  0  0
 14 16  1  0  0  0  0
 14 20  1  0  0  0  0
 16 17  1  0  0  0  0
 16 18  1  0  0  0  0
 16 19  1  0  0  0  0
 20 21  1  0  0  0  0
 20 22  1  0  0  0  0
 20 23  1  0  0  0  0
 24 25  2  0  0  0  0
 24 26  1  0  0  0  0
 26 27  1  0  0  0  0
 26 28  1  0  0  0  0
 28 29  1  0  0  0  0
 28 30  1  0  0  0  0
 28 31  1  0  0  0  0
M  END
$$$$

  -OEChem-03222214063D

 31 30  0     1  0  0  0  0  0999 V2000
   -3.5901   -3.7877    1.8688 H   0  0  0  0  0  0  0  0  0  0  0  0
   -3.5385   -2.8603    1.2916 C   0  0  0  0  0  0  0  0  0  0  0  0
   -4.1565   -2.1048    1.7831 H   0  0  0  0  0  0  0  0  0  0  0  0
   -3.9311   -3.0468    0.2892 H   0  0  0  0  0  0  0  0  0  0  0  0
   -2.1028   -2.3783    1.2027 C   0  0  0  0  0  0  0  0  0  0  0  0
   -1.2082   -3.0294    1.7198 O   0  0  0  0  0  0  0  0  0  0  0  0
   -1.8193   -1.1964    0.5484 N   0  0  0  0  0  0  0  0  0  0  0  0
   -2.6063   -0.6481    0.2049 H   0  0  0  0  0  0  0  0  0  0  0  0
   -0.4873   -0.5887    0.4281 C   0  0  1  0  0  0  0  0  0  0  0  0
    0.1502   -1.0191    1.2073 H   0  0  0  0  0  0  0  0  0  0  0  0
    0.2840   -0.7401   -0.9282 C   0  0  0  0  0  0  0  0  0  0  0  0
    0.2995    0.2524   -1.3922 H   0  0  0  0  0  0  0  0  0  0  0  0
    1.3238   -0.9469   -0.6550 H   0  0  0  0  0  0  0  0  0  0  0  0
   -0.0723   -1.7547   -2.0693 C   0  0  0  0  0  0  0  0  0  0  0  0
    0.8066   -2.3963   -2.1966 H   0  0  0  0  0  0  0  0  0  0  0  0
   -1.2626   -2.7043   -1.9026 C   0  0  0  0  0  0  0  0  0  0  0  0
   -2.2000   -2.1511   -1.7973 H   0  0  0  0  0  0  0  0  0  0  0  0
   -1.3538   -3.3504   -2.7814 H   0  0  0  0  0  0  0  0  0  0  0  0
   -1.1106   -3.3547   -1.0384 H   0  0  0  0  0  0  0  0  0  0  0  0
   -0.2751   -0.9892   -3.3869 C   0  0  0  0  0  0  0  0  0  0  0  0
    0.6090   -0.3880   -3.6217 H   0  0  0  0  0  0  0  0  0  0  0  0
   -0.4392   -1.6841   -4.2166 H   0  0  0  0  0  0  0  0  0  0  0  0
   -1.1417   -0.3235   -3.3145 H   0  0  0  0  0  0  0  0  0  0  0  0
   -0.6218    0.9198    0.7312 C   0  0  0  0  0  0  0  0  0  0  0  0
   -1.5619    1.5586    0.2701 O   0  0  0  0  0  0  0  0  0  0  0  0
    0.2879    1.5527    1.5584 N   0  0  0  0  0  0  0  0  0  0  0  0
    1.0193    0.9844    1.9763 H   0  0  0  0  0  0  0  0  0  0  0  0
    0.1921    2.9607    1.9240 C   0  0  0  0  0  0  0  0  0  0  0  0
   -0.7512    3.1590    2.4436 H   0  0  0  0  0  0  0  0  0  0  0  0
    1.0173    3.2360    2.5877 H   0  0  0  0  0  0  0  0  0  0  0  0
    0.2424    3.5922    1.0308 H   0  0  0  0  0  0  0  0  0  0  0  0
  1  2  1  0  0  0  0
  2  3  1  0  0  0  0
  2  4  1  0  0  0  0
  2  5  1  0  0  0  0
  5  6  2  0  0  0  0
  5  7  1  0  0  0  0
  7  8  1  0  0  0  0
  7  9  1  0  0  0  0
  9 10  1  0  0  0  0
  9 11  1  0  0  0  0
  9 24  1  0  0  0  0
 11 12  1  0  0  0  0
 11 13  1  0  0  0  0
 11 14  1  0  0  0  0
 14 15  1  0  0  0  0
 14 16  1  0  0  0  0
 14 20  1  0  0  0  0
 16 17  1  0  0  0  0
 16 18  1  0  0  0  0
 16 19  1  0  0  0  0
 20 21  1  0  0  0  0
 20 22  1  0  0  0  0
 20 23  1  0  0  0  0
 24 25  2  0  0  0  0
 24 26  1  0  0  0  0
 26 27  1  0  0  0  0
 26 28  1  0  0  0  0
 28 29  1  0  0  0  0
 28 30  1  0  0  0  0
 28 31  1  0  0  0  0
M  END
$$$$

  -OEChem-03222214063D

 31 30  0     1  0  0  0  0  0999 V2000
   -3.5558   -3.8239    1.8290 H   0  0  0  0  0  0  0  0  0  0  0  0
   -3.5226   -2.8768    1.2833 C   0  0  0  0  0  0  0  0  0  0  0  0
   -4.1205   -2.1383    1.8228 H   0  0  0  0  0  0  0  0  0  0  0  0
   -3.9510   -3.0271    0.2894 H   0  0  0  0  0  0  0  0  0  0  0  0
   -2.0898   -2.3938    1.1601 C   0  0  0  0  0  0  0  0  0  0  0  0
   -1.1792   -3.0624    1.6239 O   0  0  0  0  0  0  0  0  0  0  0  0
   -1.8265   -1.1965    0.5255 N   0  0  0  0  0  0  0  0  0  0  0  0
   -2.6238   -0.6360    0.2282 H   0  0  0  0  0  0  0  0  0  0  0  0
   -0.4997   -0.5795    0.3992 C   0  0  1  0  0  0  0  0  0  0  0  0
    0.1446   -1.0203    1.1666 H   0  0  0  0  0  0  0  0  0  0  0  0
    0.2647   -0.7226   -0.9603 C   0  0  0  0  0  0  0  0  0  0  0  0
    0.2213    0.2671   -1.4284 H   0  0  0  0  0  0  0  0  0  0  0  0
    1.3184   -0.8875   -0.7126 H   0  0  0  0  0  0  0  0  0  0  0  0
   -0.0955   -1.7381   -2.0962 C   0  0  0  0  0  0  0  0  0  0  0  0
    0.6455   -2.5423   -2.0313 H   0  0  0  0  0  0  0  0  0  0  0  0
   -1.4584   -2.4395   -2.0851 C   0  0  0  0  0  0  0  0  0  0  0  0
   -2.2719   -1.7132   -2.0002 H   0  0  0  0  0  0  0  0  0  0  0  0
   -1.6043   -3.0025   -3.0124 H   0  0  0  0  0  0  0  0  0  0  0  0
   -1.5112   -3.1587   -1.2659 H   0  0  0  0  0  0  0  0  0  0  0  0
    0.0881   -1.0566   -3.4614 C   0  0  0  0  0  0  0  0  0  0  0  0
    1.0861   -0.6132   -3.5362 H   0  0  0  0  0  0  0  0  0  0  0  0
   -0.0213   -1.7829   -4.2729 H   0  0  0  0  0  0  0  0  0  0  0  0
   -0.6569   -0.2663   -3.6006 H   0  0  0  0  0  0  0  0  0  0  0  0
   -0.6276    0.9228    0.7330 C   0  0  0  0  0  0  0  0  0  0  0  0
   -1.5780    1.5695    0.3056 O   0  0  0  0  0  0  0  0  0  0  0  0
    0.2963    1.5373    1.5582 N   0  0  0  0  0  0  0  0  0  0  0  0
    1.0363    0.9602    1.9480 H   0  0  0  0  0  0  0  0  0  0  0  0
    0.2030    2.9342    1.9638 C   0  0  0  0  0  0  0  0  0  0  0  0
   -0.7299    3.1136    2.5084 H   0  0  0  0  0  0  0  0  0  0  0  0
    1.0408    3.1948    2.6176 H   0  0  0  0  0  0  0  0  0  0  0  0
    0.2318    3.5900    1.0873 H   0  0  0  0  0  0  0  0  0  0  0  0
  1  2  1  0  0  0  0
  2  3  1  0  0  0  0
  2  4  1  0  0  0  0
  2  5  1  0  0  0  0
  5  6  2  0  0  0  0
  5  7  1  0  0  0  0
  7  8  1  0  0  0  0
  7  9  1  0  0  0  0
  9 10  1  0  0  0  0
  9 11  1  0  0  0  0
  9 24  1  0  0  0  0
 11 12  1  0  0  0  0
 11 13  1  0  0  0  0
 11 14  1  0  0  0  0
 14 15  1  0  0  0  0
 14 16  1  0  0  0  0
 14 20  1  0  0  0  0
 16 17  1  0  0  0  0
 16 18  1  0  0  0  0
 16 19  1  0  0  0  0
 20 21  1  0  0  0  0
 20 22  1  0  0  0  0
 20 23  1  0  0  0  0
 24 25  2  0  0  0  0
 24 26  1  0  0  0  0
 26 27  1  0  0  0  0
 26 28  1  0  0  0  0
 28 29  1  0  0  0  0
 28 30  1  0  0  0  0
 28 31  1  0  0  0  0
M  END
$$$$

  -OEChem-03222214063D

 31 30  0     1  0  0  0  0  0999 V2000
   -3.5618   -3.8296    1.7488 H   0  0  0  0  0  0  0  0  0  0  0  0
   -3.5284   -2.8641    1.2364 C   0  0  0  0  0  0  0  0  0  0  0  0
   -4.1074   -2.1386    1.8127 H   0  0  0  0  0  0  0  0  0  0  0  0
   -3.9775   -2.9750    0.2466 H   0  0  0  0  0  0  0  0  0  0  0  0
   -2.0931   -2.3915    1.1038 C   0  0  0  0  0  0  0  0  0  0  0  0
   -1.1835   -3.0726    1.5509 O   0  0  0  0  0  0  0  0  0  0  0  0
   -1.8268   -1.1882    0.4822 N   0  0  0  0  0  0  0  0  0  0  0  0
   -2.6218   -0.6191    0.1961 H   0  0  0  0  0  0  0  0  0  0  0  0
   -0.4983   -0.5729    0.3742 C   0  0  1  0  0  0  0  0  0  0  0  0
    0.1363   -1.0219    1.1452 H   0  0  0  0  0  0  0  0  0  0  0  0
    0.2731   -0.7255   -0.9769 C   0  0  0  0  0  0  0  0  0  0  0  0
    0.2205    0.2557   -1.4623 H   0  0  0  0  0  0  0  0  0  0  0  0
    1.3278   -0.8875   -0.7315 H   0  0  0  0  0  0  0  0  0  0  0  0
   -0.1063   -1.7512   -2.0900 C   0  0  0  0  0  0  0  0  0  0  0  0
    0.4321   -2.6764   -1.8569 H   0  0  0  0  0  0  0  0  0  0  0  0
   -1.5789   -2.1542   -2.2497 C   0  0  0  0  0  0  0  0  0  0  0  0
   -2.2278   -1.2746   -2.1950 H   0  0  0  0  0  0  0  0  0  0  0  0
   -1.7409   -2.6370   -3.2185 H   0  0  0  0  0  0  0  0  0  0  0  0
   -1.8702   -2.8761   -1.4852 H   0  0  0  0  0  0  0  0  0  0  0  0
    0.4201   -1.2376   -3.4384 C   0  0  0  0  0  0  0  0  0  0  0  0
    1.4820   -0.9829   -3.3625 H   0  0  0  0  0  0  0  0  0  0  0  0
    0.3101   -2.0048   -4.2113 H   0  0  0  0  0  0  0  0  0  0  0  0
   -0.1315   -0.3459   -3.7539 H   0  0  0  0  0  0  0  0  0  0  0  0
   -0.6155    0.9273    0.7182 C   0  0  0  0  0  0  0  0  0  0  0  0
   -1.5575    1.5842    0.2882 O   0  0  0  0  0  0  0  0  0  0  0  0
    0.3067    1.5279    1.5553 N   0  0  0  0  0  0  0  0  0  0  0  0
    1.0444    0.9444    1.9396 H   0  0  0  0  0  0  0  0  0  0  0  0
    0.2315    2.9272    1.9564 C   0  0  0  0  0  0  0  0  0  0  0  0
   -0.7106    3.1272    2.4778 H   0  0  0  0  0  0  0  0  0  0  0  0
    1.0581    3.1725    2.6301 H   0  0  0  0  0  0  0  0  0  0  0  0
    0.2949    3.5798    1.0794 H   0  0  0  0  0  0  0  0  0  0  0  0
  1  2  1  0  0  0  0
  2  3  1  0  0  0  0
  2  4  1  0  0  0  0
  2  5  1  0  0  0  0
  5  6  2  0  0  0  0
  5  7  1  0  0  0  0
  7  8  1  0  0  0  0
  7  9  1  0  0  0  0
  9 10  1  0  0  0  0
  9 11  1  0  0  0  0
  9 24  1  0  0  0  0
 11 12  1  0  0  0  0
 11 13  1  0  0  0  0
 11 14  1  0  0  0  0
 14 15  1  0  0  0  0
 14 16  1  0  0  0  0
 14 20  1  0  0  0  0
 16 17  1  0  0  0  0
 16 18  1  0  0  0  0
 16 19  1  0  0  0  0
 20 21  1  0  0  0  0
 20 22  1  0  0  0  0
 20 23  1  0  0  0  0
 24 25  2  0  0  0  0
 24 26  1  0  0  0  0
 26 27  1  0  0  0  0
 26 28  1  0  0  0  0
 28 29  1  0  0  0  0
 28 30  1  0  0  0  0
 28 31  1  0  0  0  0
M  END
$$$$

  -OEChem-03222214063D

 31 30  0     1  0  0  0  0  0999 V2000
   -3.5470   -3.8210    1.6828 H   0  0  0  0  0  0  0  0  0  0  0  0
   -3.5086   -2.8701    1.1438 C   0  0  0  0  0  0  0  0  0  0  0  0
   -4.1040   -2.1329    1.6876 H   0  0  0  0  0  0  0  0  0  0  0  0
   -3.9368   -3.0114    0.1486 H   0  0  0  0  0  0  0  0  0  0  0  0
   -2.0736   -2.3920    1.0277 C   0  0  0  0  0  0  0  0  0  0  0  0
   -1.1661   -3.0766    1.4740 O   0  0  0  0  0  0  0  0  0  0  0  0
   -1.8044   -1.1810    0.4228 N   0  0  0  0  0  0  0  0  0  0  0  0
   -2.5977   -0.6103    0.1350 H   0  0  0  0  0  0  0  0  0  0  0  0
   -0.4775   -0.5587    0.3464 C   0  0  1  0  0  0  0  0  0  0  0  0
    0.1455   -1.0119    1.1242 H   0  0  0  0  0  0  0  0  0  0  0  0
    0.3016   -0.7204   -0.9946 C   0  0  0  0  0  0  0  0  0  0  0  0
    0.2660    0.2519   -1.4991 H   0  0  0  0  0  0  0  0  0  0  0  0
    1.3510   -0.9010   -0.7404 H   0  0  0  0  0  0  0  0  0  0  0  0
   -0.1091   -1.7650   -2.0717 C   0  0  0  0  0  0  0  0  0  0  0  0
    0.1937   -2.7503   -1.7007 H   0  0  0  0  0  0  0  0  0  0  0  0
   -1.6058   -1.8621   -2.4139 C   0  0  0  0  0  0  0  0  0  0  0  0
   -2.0665   -0.8692   -2.4059 H   0  0  0  0  0  0  0  0  0  0  0  0
   -1.7451   -2.2956   -3.4092 H   0  0  0  0  0  0  0  0  0  0  0  0
   -2.1308   -2.5116   -1.7114 H   0  0  0  0  0  0  0  0  0  0  0  0
    0.6855   -1.4832   -3.3546 C   0  0  0  0  0  0  0  0  0  0  0  0
    1.7580   -1.4405   -3.1397 H   0  0  0  0  0  0  0  0  0  0  0  0
    0.5188   -2.2764   -4.0903 H   0  0  0  0  0  0  0  0  0  0  0  0
    0.3801   -0.5295   -3.7971 H   0  0  0  0  0  0  0  0  0  0  0  0
   -0.5951    0.9383    0.6999 C   0  0  0  0  0  0  0  0  0  0  0  0
   -1.5312    1.5990    0.2629 O   0  0  0  0  0  0  0  0  0  0  0  0
    0.3137    1.5304    1.5577 N   0  0  0  0  0  0  0  0  0  0  0  0
    1.0409    0.9412    1.9535 H   0  0  0  0  0  0  0  0  0  0  0  0
    0.2220    2.9215    1.9834 C   0  0  0  0  0  0  0  0  0  0  0  0
   -0.7107    3.0942    2.5304 H   0  0  0  0  0  0  0  0  0  0  0  0
    1.0600    3.1723    2.6407 H   0  0  0  0  0  0  0  0  0  0  0  0
    0.2513    3.5899    1.1164 H   0  0  0  0  0  0  0  0  0  0  0  0
  1  2  1  0  0  0  0
  2  3  1  0  0  0  0
  2  4  1  0  0  0  0
  2  5  1  0  0  0  0
  5  6  2  0  0  0  0
  5  7  1  0  0  0  0
  7  8  1  0  0  0  0
  7  9  1  0  0  0  0
  9 10  1  0  0  0  0
  9 11  1  0  0  0  0
  9 24  1  0  0  0  0
 11 12  1  0  0  0  0
 11 13  1  0  0  0  0
 11 14  1  0  0  0  0
 14 15  1  0  0  0  0
 14 16  1  0  0  0  0
 14 20  1  0  0  0  0
 16 17  1  0  0  0  0
 16 18  1  0  0  0  0
 16 19  1  0  0  0  0
 20 21  1  0  0  0  0
 20 22  1  0  0  0  0
 20 23  1  0  0  0  0
 24 25  2  0  0  0  0
 24 26  1  0  0  0  0
 26 27  1  0  0  0  0
 26 28  1  0  0  0  0
 28 29  1  0  0  0  0
 28 30  1  0  0  0  0
 28 31  1  0  0  0  0
M  END
$$$$

  -OEChem-03222214063D

 31 30  0     1  0  0  0  0  0999 V2000
   -3.5313   -3.8381    1.5683 H   0  0  0  0  0  0  0  0  0  0  0  0
   -3.4827   -2.8912    1.0231 C   0  0  0  0  0  0  0  0  0  0  0  0
   -4.1102   -2.1576    1.5350 H   0  0  0  0  0  0  0  0  0  0  0  0
   -3.8661   -3.0463    0.0117 H   0  0  0  0  0  0  0  0  0  0  0  0
   -2.0500   -2.3962    0.9629 C   0  0  0  0  0  0  0  0  0  0  0  0
   -1.1508   -3.0739    1.4354 O   0  0  0  0  0  0  0  0  0  0  0  0
   -1.7726   -1.1803    0.3732 N   0  0  0  0  0  0  0  0  0  0  0  0
   -2.5615   -0.6180    0.0586 H   0  0  0  0  0  0  0  0  0  0  0  0
   -0.4494   -0.5468    0.3335 C   0  0  1  0  0  0  0  0  0  0  0  0
    0.1620   -1.0012    1.1197 H   0  0  0  0  0  0  0  0  0  0  0  0
    0.3372   -0.7149   -0.9978 C   0  0  0  0  0  0  0  0  0  0  0  0
    0.3254    0.2482   -1.5204 H   0  0  0  0  0  0  0  0  0  0  0  0
    1.3802   -0.9154   -0.7319 H   0  0  0  0  0  0  0  0  0  0  0  0
   -0.1107   -1.7805   -2.0332 C   0  0  0  0  0  0  0  0  0  0  0  0
   -0.0552   -2.7660   -1.5578 H   0  0  0  0  0  0  0  0  0  0  0  0
   -1.5400   -1.5963   -2.5792 C   0  0  0  0  0  0  0  0  0  0  0  0
   -1.7607   -0.5339   -2.7233 H   0  0  0  0  0  0  0  0  0  0  0  0
   -1.6503   -2.1030   -3.5430 H   0  0  0  0  0  0  0  0  0  0  0  0
   -2.2870   -2.0264   -1.9102 H   0  0  0  0  0  0  0  0  0  0  0  0
    0.8778   -1.7648   -3.2071 C   0  0  0  0  0  0  0  0  0  0  0  0
    1.8995   -1.9294   -2.8507 H   0  0  0  0  0  0  0  0  0  0  0  0
    0.6370   -2.5585   -3.9214 H   0  0  0  0  0  0  0  0  0  0  0  0
    0.8412   -0.8035   -3.7297 H   0  0  0  0  0  0  0  0  0  0  0  0
   -0.5751    0.9484    0.6902 C   0  0  0  0  0  0  0  0  0  0  0  0
   -1.5009    1.6097    0.2332 O   0  0  0  0  0  0  0  0  0  0  0  0
    0.3127    1.5384    1.5712 N   0  0  0  0  0  0  0  0  0  0  0  0
    1.0308    0.9484    1.9819 H   0  0  0  0  0  0  0  0  0  0  0  0
    0.2084    2.9269    2.0029 C   0  0  0  0  0  0  0  0  0  0  0  0
   -0.7404    3.0959    2.5229 H   0  0  0  0  0  0  0  0  0  0  0  0
    1.0265    3.1733    2.6865 H   0  0  0  0  0  0  0  0  0  0  0  0
    0.2638    3.6007    1.1415 H   0  0  0  0  0  0  0  0  0  0  0  0
  1  2  1  0  0  0  0
  2  3  1  0  0  0  0
  2  4  1  0  0  0  0
  2  5  1  0  0  0  0
  5  6  2  0  0  0  0
  5  7  1  0  0  0  0
  7  8  1  0  0  0  0
  7  9  1  0  0  0  0
  9 10  1  0  0  0  0
  9 11  1  0  0  0  0
  9 24  1  0  0  0  0
 11 12  1  0  0  0  0
 11 13  1  0  0  0  0
 11 14  1  0  0  0  0
 14 15  1  0  0  0  0
 14 16  1  0  0  0  0
 14 20  1  0  0  0  0
 16 17  1  0  0  0  0
 16 18  1  0  0  0  0
 16 19  1  0  0  0  0
 20 21  1  0  0  0  0
 20 22  1  0  0  0  0
 20 23  1  0  0  0  0
 24 25  2  0  0  0  0
 24 26  1  0  0  0  0
 26 27  1  0  0  0  0
 26 28  1  0  0  0  0
 28 29  1  0  0  0  0
 28 30  1  0  0  0  0
 28 31  1  0  0  0  0
M  END
$$$$

  -OEChem-03222214063D

 31 30  0     1  0  0  0  0  0999 V2000
   -3.5134   -3.8813    1.4538 H   0  0  0  0  0  0  0  0  0  0  0  0
   -3.4571   -2.9282    0.9205 C   0  0  0  0  0  0  0  0  0  0  0  0
   -4.1161   -2.2094    1.4134 H   0  0  0  0  0  0  0  0  0  0  0  0
   -3.7960   -3.0786   -0.1072 H   0  0  0  0  0  0  0  0  0  0  0  0
   -2.0311   -2.4111    0.9232 C   0  0  0  0  0  0  0  0  0  0  0  0
   -1.1427   -3.0751    1.4337 O   0  0  0  0  0  0  0  0  0  0  0  0
   -1.7461   -1.1929    0.3426 N   0  0  0  0  0  0  0  0  0  0  0  0
   -2.5297   -0.6419   -0.0032 H   0  0  0  0  0  0  0  0  0  0  0  0
   -0.4264   -0.5462    0.3354 C   0  0  1  0  0  0  0  0  0  0  0  0
    0.1763   -1.0001    1.1286 H   0  0  0  0  0  0  0  0  0  0  0  0
    0.3708   -0.7058   -0.9891 C   0  0  0  0  0  0  0  0  0  0  0  0
    0.3806    0.2536   -1.5182 H   0  0  0  0  0  0  0  0  0  0  0  0
    1.4079   -0.9219   -0.7123 H   0  0  0  0  0  0  0  0  0  0  0  0
   -0.1064   -1.7821   -1.9947 C   0  0  0  0  0  0  0  0  0  0  0  0
   -0.3033   -2.7136   -1.4531 H   0  0  0  0  0  0  0  0  0  0  0  0
   -1.3763   -1.3671   -2.7610 C   0  0  0  0  0  0  0  0  0  0  0  0
   -1.2111   -0.4220   -3.2878 H   0  0  0  0  0  0  0  0  0  0  0  0
   -1.6365   -2.1318   -3.4992 H   0  0  0  0  0  0  0  0  0  0  0  0
   -2.2347   -1.2417   -2.1001 H   0  0  0  0  0  0  0  0  0  0  0  0
    1.0081   -2.0513   -3.0137 C   0  0  0  0  0  0  0  0  0  0  0  0
    1.9142   -2.3990   -2.5077 H   0  0  0  0  0  0  0  0  0  0  0  0
    0.6976   -2.8245   -3.7233 H   0  0  0  0  0  0  0  0  0  0  0  0
    1.2484   -1.1416   -3.5733 H   0  0  0  0  0  0  0  0  0  0  0  0
   -0.5669    0.9477    0.6890 C   0  0  0  0  0  0  0  0  0  0  0  0
   -1.4804    1.6065    0.2048 O   0  0  0  0  0  0  0  0  0  0  0  0
    0.2975    1.5416    1.5901 N   0  0  0  0  0  0  0  0  0  0  0  0
    1.0091    0.9556    2.0173 H   0  0  0  0  0  0  0  0  0  0  0  0
    0.1856    2.9340    2.0064 C   0  0  0  0  0  0  0  0  0  0  0  0
   -0.7818    3.1138    2.4870 H   0  0  0  0  0  0  0  0  0  0  0  0
    0.9775    3.1804    2.7202 H   0  0  0  0  0  0  0  0  0  0  0  0
    0.2797    3.6005    1.1425 H   0  0  0  0  0  0  0  0  0  0  0  0
  1  2  1  0  0  0  0
  2  3  1  0  0  0  0
  2  4  1  0  0  0  0
  2  5  1  0  0  0  0
  5  6  2  0  0  0  0
  5  7  1  0  0  0  0
  7  8  1  0  0  0  0
  7  9  1  0  0  0  0
  9 10  1  0  0  0  0
  9 11  1  0  0  0  0
  9 24  1  0  0  0  0
 11 12  1  0  0  0  0
 11 13  1  0  0  0  0
 11 14  1  0  0  0  0
 14 15  1  0  0  0  0
 14 16  1  0  0  0  0
 14 20  1  0  0  0  0
 16 17  1  0  0  0  0
 16 18  1  0  0  0  0
 16 19  1  0  0  0  0
 20 21  1  0  0  0  0
 20 22  1  0  0  0  0
 20 23  1  0  0  0  0
 24 25  2  0  0  0  0
 24 26  1  0  0  0  0
 26 27  1  0  0  0  0
 26 28  1  0  0  0  0
 28 29  1  0  0  0  0
 28 30  1  0  0  0  0
 28 31  1  0  0  0  0
M  END
$$$$

  -OEChem-03222214063D

 31 30  0     1  0  0  0  0  0999 V2000
   -3.5164   -3.8928    1.4059 H   0  0  0  0  0  0  0  0  0  0  0  0
   -3.4497   -2.9405    0.8724 C   0  0  0  0  0  0  0  0  0  0  0  0
   -4.1225   -2.2227    1.3477 H   0  0  0  0  0  0  0  0  0  0  0  0
   -3.7638   -3.0934   -0.1629 H   0  0  0  0  0  0  0  0  0  0  0  0
   -2.0254   -2.4193    0.9083 C   0  0  0  0  0  0  0  0  0  0  0  0
   -1.1484   -3.0754    1.4481 O   0  0  0  0  0  0  0  0  0  0  0  0
   -1.7284   -1.2058    0.3233 N   0  0  0  0  0  0  0  0  0  0  0  0
   -2.5048   -0.6609   -0.0480 H   0  0  0  0  0  0  0  0  0  0  0  0
   -0.4083   -0.5543    0.3400 C   0  0  1  0  0  0  0  0  0  0  0  0
    0.1861   -1.0030    1.1427 H   0  0  0  0  0  0  0  0  0  0  0  0
    0.3956   -0.7132   -0.9799 C   0  0  0  0  0  0  0  0  0  0  0  0
    0.4257    0.2446   -1.5112 H   0  0  0  0  0  0  0  0  0  0  0  0
    1.4279   -0.9401   -0.6938 H   0  0  0  0  0  0  0  0  0  0  0  0
   -0.1023   -1.7983   -1.9663 C   0  0  0  0  0  0  0  0  0  0  0  0
   -0.5355   -2.6444   -1.4250 H   0  0  0  0  0  0  0  0  0  0  0  0
   -1.1312   -1.2120   -2.9437 C   0  0  0  0  0  0  0  0  0  0  0  0
   -0.6894   -0.4060   -3.5381 H   0  0  0  0  0  0  0  0  0  0  0  0
   -1.4923   -1.9879   -3.6257 H   0  0  0  0  0  0  0  0  0  0  0  0
   -1.9901   -0.8076   -2.4004 H   0  0  0  0  0  0  0  0  0  0  0  0
    1.0824   -2.3325   -2.7815 C   0  0  0  0  0  0  0  0  0  0  0  0
    1.8203   -2.7992   -2.1216 H   0  0  0  0  0  0  0  0  0  0  0  0
    0.7429   -3.0864   -3.4986 H   0  0  0  0  0  0  0  0  0  0  0  0
    1.5706   -1.5226   -3.3332 H   0  0  0  0  0  0  0  0  0  0  0  0
   -0.5615    0.9423    0.6770 C   0  0  0  0  0  0  0  0  0  0  0  0
   -1.4652    1.5946    0.1659 O   0  0  0  0  0  0  0  0  0  0  0  0
    0.2808    1.5461    1.5922 N   0  0  0  0  0  0  0  0  0  0  0  0
    0.9839    0.9651    2.0401 H   0  0  0  0  0  0  0  0  0  0  0  0
    0.1642    2.9447    1.9862 C   0  0  0  0  0  0  0  0  0  0  0  0
   -0.8126    3.1345    2.4432 H   0  0  0  0  0  0  0  0  0  0  0  0
    0.9415    3.1988    2.7131 H   0  0  0  0  0  0  0  0  0  0  0  0
    0.2786    3.5987    1.1153 H   0  0  0  0  0  0  0  0  0  0  0  0
  1  2  1  0  0  0  0
  2  3  1  0  0  0  0
  2  4  1  0  0  0  0
  2  5  1  0  0  0  0
  5  6  2  0  0  0  0
  5  7  1  0  0  0  0
  7  8  1  0  0  0  0
  7  9  1  0  0  0  0
  9 10  1  0  0  0  0
  9 11  1  0  0  0  0
  9 24  1  0  0  0  0
 11 12  1  0  0  0  0
 11 13  1  0  0  0  0
 11 14  1  0  0  0  0
 14 15  1  0  0  0  0
 14 16  1  0  0  0  0
 14 20  1  0  0  0  0
 16 17  1  0  0  0  0
 16 18  1  0  0  0  0
 16 19  1  0  0  0  0
 20 21  1  0  0  0  0
 20 22  1  0  0  0  0
 20 23  1  0  0  0  0
 24 25  2  0  0  0  0
 24 26  1  0  0  0  0
 26 27  1  0  0  0  0
 26 28  1  0  0  0  0
 28 29  1  0  0  0  0
 28 30  1  0  0  0  0
 28 31  1  0  0  0  0
M  END
$$$$

  -OEChem-03222214063D

 31 30  0     1  0  0  0  0  0999 V2000
   -3.5259   -3.8810    1.4299 H   0  0  0  0  0  0  0  0  0  0  0  0
   -3.4627   -2.9269    0.8994 C   0  0  0  0  0  0  0  0  0  0  0  0
   -4.1250   -2.2079    1.3876 H   0  0  0  0  0  0  0  0  0  0  0  0
   -3.7925   -3.0743   -0.1318 H   0  0  0  0  0  0  0  0  0  0  0  0
   -2.0358   -2.4128    0.9166 C   0  0  0  0  0  0  0  0  0  0  0  0
   -1.1559   -3.0725    1.4472 O   0  0  0  0  0  0  0  0  0  0  0  0
   -1.7397   -1.2011    0.3270 N   0  0  0  0  0  0  0  0  0  0  0  0
   -2.5168   -0.6533   -0.0384 H   0  0  0  0  0  0  0  0  0  0  0  0
   -0.4176   -0.5545    0.3362 C   0  0  1  0  0  0  0  0  0  0  0  0
    0.1765   -1.0024    1.1397 H   0  0  0  0  0  0  0  0  0  0  0  0
    0.3884   -0.7198   -0.9827 C   0  0  0  0  0  0  0  0  0  0  0  0
    0.4156    0.2408   -1.5089 H   0  0  0  0  0  0  0  0  0  0  0  0
    1.4227   -0.9333   -0.6936 H   0  0  0  0  0  0  0  0  0  0  0  0
   -0.0960   -1.8074   -1.9817 C   0  0  0  0  0  0  0  0  0  0  0  0
   -0.7619   -2.5297   -1.5051 H   0  0  0  0  0  0  0  0  0  0  0  0
   -0.8115   -1.1588   -3.1738 C   0  0  0  0  0  0  0  0  0  0  0  0
   -0.1393   -0.4846   -3.7144 H   0  0  0  0  0  0  0  0  0  0  0  0
   -1.1657   -1.9262   -3.8691 H   0  0  0  0  0  0  0  0  0  0  0  0
   -1.6761   -0.5837   -2.8274 H   0  0  0  0  0  0  0  0  0  0  0  0
    1.1081   -2.5950   -2.5139 C   0  0  0  0  0  0  0  0  0  0  0  0
    1.6213   -3.1050   -1.6924 H   0  0  0  0  0  0  0  0  0  0  0  0
    0.7808   -3.3522   -3.2332 H   0  0  0  0  0  0  0  0  0  0  0  0
    1.8203   -1.9281   -3.0105 H   0  0  0  0  0  0  0  0  0  0  0  0
   -0.5652    0.9434    0.6713 C   0  0  0  0  0  0  0  0  0  0  0  0
   -1.4701    1.5968    0.1638 O   0  0  0  0  0  0  0  0  0  0  0  0
    0.2826    1.5470    1.5818 N   0  0  0  0  0  0  0  0  0  0  0  0
    0.9836    0.9644    2.0308 H   0  0  0  0  0  0  0  0  0  0  0  0
    0.1577    2.9414    1.9885 C   0  0  0  0  0  0  0  0  0  0  0  0
   -0.8180    3.1194    2.4529 H   0  0  0  0  0  0  0  0  0  0  0  0
    0.9371    3.1955    2.7133 H   0  0  0  0  0  0  0  0  0  0  0  0
    0.2623    3.6040    1.1229 H   0  0  0  0  0  0  0  0  0  0  0  0
  1  2  1  0  0  0  0
  2  3  1  0  0  0  0
  2  4  1  0  0  0  0
  2  5  1  0  0  0  0
  5  6  2  0  0  0  0
  5  7  1  0  0  0  0
  7  8  1  0  0  0  0
  7  9  1  0  0  0  0
  9 10  1  0  0  0  0
  9 11  1  0  0  0  0
  9 24  1  0  0  0  0
 11 12  1  0  0  0  0
 11 13  1  0  0  0  0
 11 14  1  0  0  0  0
 14 15  1  0  0  0  0
 14 16  1  0  0  0  0
 14 20  1  0  0  0  0
 16 17  1  0  0  0  0
 16 18  1  0  0  0  0
 16 19  1  0  0  0  0
 20 21  1  0  0  0  0
 20 22  1  0  0  0  0
 20 23  1  0  0  0  0
 24 25  2  0  0  0  0
 24 26  1  0  0  0  0
 26 27  1  0  0  0  0
 26 28  1  0  0  0  0
 28 29  1  0  0  0  0
 28 30  1  0  0  0  0
 28 31  1  0  0  0  0
M  END
$$$$

  -OEChem-03222214063D

 31 30  0     1  0  0  0  0  0999 V2000
   -3.5241   -3.8787    1.4542 H   0  0  0  0  0  0  0  0  0  0  0  0
   -3.4689   -2.9254    0.9214 C   0  0  0  0  0  0  0  0  0  0  0  0
   -4.1239   -2.2058    1.4184 H   0  0  0  0  0  0  0  0  0  0  0  0
   -3.8140   -3.0746   -0.1045 H   0  0  0  0  0  0  0  0  0  0  0  0
   -2.0417   -2.4118    0.9168 C   0  0  0  0  0  0  0  0  0  0  0  0
   -1.1534   -3.0760    1.4275 O   0  0  0  0  0  0  0  0  0  0  0  0
   -1.7548   -1.1967    0.3293 N   0  0  0  0  0  0  0  0  0  0  0  0
   -2.5380   -0.6425   -0.0133 H   0  0  0  0  0  0  0  0  0  0  0  0
   -0.4330   -0.5504    0.3275 C   0  0  1  0  0  0  0  0  0  0  0  0
    0.1629   -0.9995    1.1285 H   0  0  0  0  0  0  0  0  0  0  0  0
    0.3786   -0.7155   -0.9890 C   0  0  0  0  0  0  0  0  0  0  0  0
    0.3763    0.2482   -1.5103 H   0  0  0  0  0  0  0  0  0  0  0  0
    1.4212   -0.8993   -0.7097 H   0  0  0  0  0  0  0  0  0  0  0  0
   -0.0847   -1.8038   -2.0019 C   0  0  0  0  0  0  0  0  0  0  0  0
   -0.9623   -2.3463   -1.6477 H   0  0  0  0  0  0  0  0  0  0  0  0
   -0.4433   -1.1655   -3.3497 C   0  0  0  0  0  0  0  0  0  0  0  0
    0.4204   -0.6438   -3.7745 H   0  0  0  0  0  0  0  0  0  0  0  0
   -0.7697   -1.9316   -4.0599 H   0  0  0  0  0  0  0  0  0  0  0  0
   -1.2584   -0.4459   -3.2229 H   0  0  0  0  0  0  0  0  0  0  0  0
    1.0283   -2.8373   -2.2101 C   0  0  0  0  0  0  0  0  0  0  0  0
    1.2783   -3.3203   -1.2600 H   0  0  0  0  0  0  0  0  0  0  0  0
    0.7025   -3.6113   -2.9121 H   0  0  0  0  0  0  0  0  0  0  0  0
    1.9301   -2.3626   -2.6100 H   0  0  0  0  0  0  0  0  0  0  0  0
   -0.5773    0.9457    0.6715 C   0  0  0  0  0  0  0  0  0  0  0  0
   -1.4899    1.6005    0.1801 O   0  0  0  0  0  0  0  0  0  0  0  0
    0.2805    1.5441    1.5758 N   0  0  0  0  0  0  0  0  0  0  0  0
    0.9904    0.9602    2.0090 H   0  0  0  0  0  0  0  0  0  0  0  0
    0.1633    2.9371    1.9891 C   0  0  0  0  0  0  0  0  0  0  0  0
   -0.8071    3.1157    2.4639 H   0  0  0  0  0  0  0  0  0  0  0  0
    0.9508    3.1857    2.7070 H   0  0  0  0  0  0  0  0  0  0  0  0
    0.2610    3.6030    1.1252 H   0  0  0  0  0  0  0  0  0  0  0  0
  1  2  1  0  0  0  0
  2  3  1  0  0  0  0
  2  4  1  0  0  0  0
  2  5  1  0  0  0  0
  5  6  2  0  0  0  0
  5  7  1  0  0  0  0
  7  8  1  0  0  0  0
  7  9  1  0  0  0  0
  9 10  1  0  0  0  0
  9 11  1  0  0  0  0
  9 24  1  0  0  0  0
 11 12  1  0  0  0  0
 11 13  1  0  0  0  0
 11 14  1  0  0  0  0
 14 15  1  0  0  0  0
 14 16  1  0  0  0  0
 14 20  1  0  0  0  0
 16 17  1  0  0  0  0
 16 18  1  0  0  0  0
 16 19  1  0  0  0  0
 20 21  1  0  0  0  0
 20 22  1  0  0  0  0
 20 23  1  0  0  0  0
 24 25  2  0  0  0  0
 24 26  1  0  0  0  0
 26 27  1  0  0  0  0
 26 28  1  0  0  0  0
 28 29  1  0  0  0  0
 28 30  1  0  0  0  0
 28 31  1  0  0  0  0
M  END
$$$$

  -OEChem-03222214063D

 31 30  0     1  0  0  0  0  0999 V2000
   -3.5055   -3.8862    1.4341 H   0  0  0  0  0  0  0  0  0  0  0  0
   -3.4528   -2.9297    0.9067 C   0  0  0  0  0  0  0  0  0  0  0  0
   -4.1092   -2.2146    1.4082 H   0  0  0  0  0  0  0  0  0  0  0  0
   -3.7985   -3.0736   -0.1198 H   0  0  0  0  0  0  0  0  0  0  0  0
   -2.0272   -2.4111    0.9039 C   0  0  0  0  0  0  0  0  0  0  0  0
   -1.1363   -3.0736    1.4123 O   0  0  0  0  0  0  0  0  0  0  0  0
   -1.7465   -1.1919    0.3223 N   0  0  0  0  0  0  0  0  0  0  0  0
   -2.5328   -0.6401   -0.0171 H   0  0  0  0  0  0  0  0  0  0  0  0
   -0.4277   -0.5402    0.3196 C   0  0  1  0  0  0  0  0  0  0  0  0
    0.1702   -0.9903    1.1187 H   0  0  0  0  0  0  0  0  0  0  0  0
    0.3838   -0.7075   -0.9971 C   0  0  0  0  0  0  0  0  0  0  0  0
    0.3460    0.2535   -1.5219 H   0  0  0  0  0  0  0  0  0  0  0  0
    1.4358   -0.8674   -0.7381 H   0  0  0  0  0  0  0  0  0  0  0  0
   -0.0776   -1.8003   -2.0032 C   0  0  0  0  0  0  0  0  0  0  0  0
   -1.1025   -2.1187   -1.8062 H   0  0  0  0  0  0  0  0  0  0  0  0
   -0.0777   -1.2506   -3.4345 C   0  0  0  0  0  0  0  0  0  0  0  0
    0.9222   -0.9053   -3.7155 H   0  0  0  0  0  0  0  0  0  0  0  0
   -0.3885   -2.0270   -4.1404 H   0  0  0  0  0  0  0  0  0  0  0  0
   -0.7750   -0.4111   -3.5207 H   0  0  0  0  0  0  0  0  0  0  0  0
    0.8229   -3.0353   -1.8975 C   0  0  0  0  0  0  0  0  0  0  0  0
    0.8029   -3.4312   -0.8770 H   0  0  0  0  0  0  0  0  0  0  0  0
    0.4747   -3.8195   -2.5767 H   0  0  0  0  0  0  0  0  0  0  0  0
    1.8569   -2.7864   -2.1562 H   0  0  0  0  0  0  0  0  0  0  0  0
   -0.5748    0.9541    0.6716 C   0  0  0  0  0  0  0  0  0  0  0  0
   -1.4909    1.6086    0.1863 O   0  0  0  0  0  0  0  0  0  0  0  0
    0.2845    1.5508    1.5758 N   0  0  0  0  0  0  0  0  0  0  0  0
    0.9943    0.9658    2.0078 H   0  0  0  0  0  0  0  0  0  0  0  0
    0.1639    2.9410    1.9968 C   0  0  0  0  0  0  0  0  0  0  0  0
   -0.8050    3.1137    2.4770 H   0  0  0  0  0  0  0  0  0  0  0  0
    0.9533    3.1890    2.7126 H   0  0  0  0  0  0  0  0  0  0  0  0
    0.2556    3.6109    1.1355 H   0  0  0  0  0  0  0  0  0  0  0  0
  1  2  1  0  0  0  0
  2  3  1  0  0  0  0
  2  4  1  0  0  0  0
  2  5  1  0  0  0  0
  5  6  2  0  0  0  0
  5  7  1  0  0  0  0
  7  8  1  0  0  0  0
  7  9  1  0  0  0  0
  9 10  1  0  0  0  0
  9 11  1  0  0  0  0
  9 24  1  0  0  0  0
 11 12  1  0  0  0  0
 11 13  1  0  0  0  0
 11 14  1  0  0  0  0
 14 15  1  0  0  0  0
 14 16  1  0  0  0  0
 14 20  1  0  0  0  0
 16 17  1  0  0  0  0
 16 18  1  0  0  0  0
 16 19  1  0  0  0  0
 20 21  1  0  0  0  0
 20 22  1  0  0  0  0
 20 23  1  0  0  0  0
 24 25  2  0  0  0  0
 24 26  1  0  0  0  0
 26 27  1  0  0  0  0
 26 28  1  0  0  0  0
 28 29  1  0  0  0  0
 28 30  1  0  0  0  0
 28 31  1  0  0  0  0
M  END
$$$$

  -OEChem-03222214063D

 31 30  0     1  0  0  0  0  0999 V2000
   -3.5178   -3.8936    1.4052 H   0  0  0  0  0  0  0  0  0  0  0  0
   -3.4478   -2.9433    0.8687 C   0  0  0  0  0  0  0  0  0  0  0  0
   -4.1388   -2.2298    1.3239 H   0  0  0  0  0  0  0  0  0  0  0  0
   -3.7349   -3.1049   -0.1731 H   0  0  0  0  0  0  0  0  0  0  0  0
   -2.0306   -2.4067    0.9370 C   0  0  0  0  0  0  0  0  0  0  0  0
   -1.1694   -3.0367    1.5303 O   0  0  0  0  0  0  0  0  0  0  0  0
   -1.7322   -1.1972    0.3443 N   0  0  0  0  0  0  0  0  0  0  0  0
   -2.5045   -0.6678   -0.0564 H   0  0  0  0  0  0  0  0  0  0  0  0
   -0.4110   -0.5486    0.3443 C   0  0  1  0  0  0  0  0  0  0  0  0
    0.1888   -0.9953    1.1437 H   0  0  0  0  0  0  0  0  0  0  0  0
    0.3902   -0.7157   -0.9797 C   0  0  0  0  0  0  0  0  0  0  0  0
    0.3479    0.2436   -1.5074 H   0  0  0  0  0  0  0  0  0  0  0  0
    1.4439   -0.8847   -0.7351 H   0  0  0  0  0  0  0  0  0  0  0  0
   -0.0894   -1.8014   -1.9778 C   0  0  0  0  0  0  0  0  0  0  0  0
   -1.1761   -1.9118   -1.9387 H   0  0  0  0  0  0  0  0  0  0  0  0
    0.2488   -1.3853   -3.4146 C   0  0  0  0  0  0  0  0  0  0  0  0
    1.3264   -1.2299   -3.5281 H   0  0  0  0  0  0  0  0  0  0  0  0
   -0.0663   -2.1607   -4.1200 H   0  0  0  0  0  0  0  0  0  0  0  0
   -0.2674   -0.4560   -3.6757 H   0  0  0  0  0  0  0  0  0  0  0  0
    0.5585   -3.1531   -1.6569 C   0  0  0  0  0  0  0  0  0  0  0  0
    0.3336   -3.4546   -0.6305 H   0  0  0  0  0  0  0  0  0  0  0  0
    0.1792   -3.9260   -2.3322 H   0  0  0  0  0  0  0  0  0  0  0  0
    1.6458   -3.0974   -1.7691 H   0  0  0  0  0  0  0  0  0  0  0  0
   -0.5592    0.9503    0.6762 C   0  0  0  0  0  0  0  0  0  0  0  0
   -1.4631    1.6031    0.1662 O   0  0  0  0  0  0  0  0  0  0  0  0
    0.2927    1.5579    1.5801 N   0  0  0  0  0  0  0  0  0  0  0  0
    0.9926    0.9764    2.0323 H   0  0  0  0  0  0  0  0  0  0  0  0
    0.1736    2.9560    1.9751 C   0  0  0  0  0  0  0  0  0  0  0  0
   -0.7987    3.1403    2.4441 H   0  0  0  0  0  0  0  0  0  0  0  0
    0.9583    3.2150    2.6924 H   0  0  0  0  0  0  0  0  0  0  0  0
    0.2741    3.6101    1.1026 H   0  0  0  0  0  0  0  0  0  0  0  0
  1  2  1  0  0  0  0
  2  3  1  0  0  0  0
  2  4  1  0  0  0  0
  2  5  1  0  0  0  0
  5  6  2  0  0  0  0
  5  7  1  0  0  0  0
  7  8  1  0  0  0  0
  7  9  1  0  0  0  0
  9 10  1  0  0  0  0
  9 11  1  0  0  0  0
  9 24  1  0  0  0  0
 11 12  1  0  0  0  0
 11 13  1  0  0  0  0
 11 14  1  0  0  0  0
 14 15  1  0  0  0  0
 14 16  1  0  0  0  0
 14 20  1  0  0  0  0
 16 17  1  0  0  0  0
 16 18  1  0  0  0  0
 16 19  1  0  0  0  0
 20 21  1  0  0  0  0
 20 22  1  0  0  0  0
 20 23  1  0  0  0  0
 24 25  2  0  0  0  0
 24 26  1  0  0  0  0
 26 27  1  0  0  0  0
 26 28  1  0  0  0  0
 28 29  1  0  0  0  0
 28 30  1  0  0  0  0
 28 31  1  0  0  0  0
M  END
$$$$

  -OEChem-03222214063D

 31 30  0     1  0  0  0  0  0999 V2000
   -3.5599   -3.8821    1.4163 H   0  0  0  0  0  0  0  0  0  0  0  0
   -3.4676   -2.9412    0.8667 C   0  0  0  0  0  0  0  0  0  0  0  0
   -4.1918   -2.2269    1.2657 H   0  0  0  0  0  0  0  0  0  0  0  0
   -3.6898   -3.1260   -0.1871 H   0  0  0  0  0  0  0  0  0  0  0  0
   -2.0626   -2.3881    1.0092 C   0  0  0  0  0  0  0  0  0  0  0  0
   -1.2459   -2.9735    1.7032 O   0  0  0  0  0  0  0  0  0  0  0  0
   -1.7319   -1.2011    0.3893 N   0  0  0  0  0  0  0  0  0  0  0  0
   -2.4789   -0.6983   -0.0864 H   0  0  0  0  0  0  0  0  0  0  0  0
   -0.4016   -0.5699    0.3867 C   0  0  1  0  0  0  0  0  0  0  0  0
    0.1988   -1.0098    1.1897 H   0  0  0  0  0  0  0  0  0  0  0  0
    0.3851   -0.7372   -0.9482 C   0  0  0  0  0  0  0  0  0  0  0  0
    0.3629    0.2240   -1.4739 H   0  0  0  0  0  0  0  0  0  0  0  0
    1.4346   -0.9348   -0.7067 H   0  0  0  0  0  0  0  0  0  0  0  0
   -0.1090   -1.8023   -1.9560 C   0  0  0  0  0  0  0  0  0  0  0  0
   -1.1950   -1.7361   -2.0756 H   0  0  0  0  0  0  0  0  0  0  0  0
    0.5456   -1.5494   -3.3210 C   0  0  0  0  0  0  0  0  0  0  0  0
    1.6370   -1.5858   -3.2417 H   0  0  0  0  0  0  0  0  0  0  0  0
    0.2239   -2.3045   -4.0452 H   0  0  0  0  0  0  0  0  0  0  0  0
    0.2580   -0.5662   -3.7062 H   0  0  0  0  0  0  0  0  0  0  0  0
    0.2833   -3.2207   -1.5160 C   0  0  0  0  0  0  0  0  0  0  0  0
   -0.1299   -3.4648   -0.5383 H   0  0  0  0  0  0  0  0  0  0  0  0
   -0.0915   -3.9569   -2.2338 H   0  0  0  0  0  0  0  0  0  0  0  0
    1.3720   -3.3181   -1.4565 H   0  0  0  0  0  0  0  0  0  0  0  0
   -0.5475    0.9385    0.6784 C   0  0  0  0  0  0  0  0  0  0  0  0
   -1.4340    1.5864    0.1322 O   0  0  0  0  0  0  0  0  0  0  0  0
    0.2970    1.5630    1.5778 N   0  0  0  0  0  0  0  0  0  0  0  0
    0.9814    0.9862    2.0588 H   0  0  0  0  0  0  0  0  0  0  0  0
    0.1842    2.9713    1.9364 C   0  0  0  0  0  0  0  0  0  0  0  0
   -0.7900    3.1737    2.3938 H   0  0  0  0  0  0  0  0  0  0  0  0
    0.9659    3.2427    2.6524 H   0  0  0  0  0  0  0  0  0  0  0  0
    0.2952    3.6026    1.0485 H   0  0  0  0  0  0  0  0  0  0  0  0
  1  2  1  0  0  0  0
  2  3  1  0  0  0  0
  2  4  1  0  0  0  0
  2  5  1  0  0  0  0
  5  6  2  0  0  0  0
  5  7  1  0  0  0  0
  7  8  1  0  0  0  0
  7  9  1  0  0  0  0
  9 10  1  0  0  0  0
  9 11  1  0  0  0  0
  9 24  1  0  0  0  0
 11 12  1  0  0  0  0
 11 13  1  0  0  0  0
 11 14  1  0  0  0  0
 14 15  1  0  0  0  0
 14 16  1  0  0  0  0
 14 20  1  0  0  0  0
 16 17  1  0  0  0  0
 16 18  1  0  0  0  0
 16 19  1  0  0  0  0
 20 21  1  0  0  0  0
 20 22  1  0  0  0  0
 20 23  1  0  0  0  0
 24 25  2  0  0  0  0
 24 26  1  0  0  0  0
 26 27  1  0  0  0  0
 26 28  1  0  0  0  0
 28 29  1  0  0  0  0
 28 30  1  0  0  0  0
 28 31  1  0  0  0  0
M  END
$$$$

  -OEChem-03222214063D

 31 30  0     1  0  0  0  0  0999 V2000
   -3.5526   -3.8304    1.6371 H   0  0  0  0  0  0  0  0  0  0  0  0
   -3.4914   -2.8817    1.0968 C   0  0  0  0  0  0  0  0  0  0  0  0
   -4.1138   -2.1438    1.6084 H   0  0  0  0  0  0  0  0  0  0  0  0
   -3.8710   -3.0285    0.0828 H   0  0  0  0  0  0  0  0  0  0  0  0
   -2.0535   -2.4007    1.0468 C   0  0  0  0  0  0  0  0  0  0  0  0
   -1.1724   -3.0563    1.5806 O   0  0  0  0  0  0  0  0  0  0  0  0
   -1.7521   -1.2140    0.4100 N   0  0  0  0  0  0  0  0  0  0  0  0
   -2.5284   -0.6577    0.0553 H   0  0  0  0  0  0  0  0  0  0  0  0
   -0.4189   -0.5962    0.3689 C   0  0  1  0  0  0  0  0  0  0  0  0
    0.1987   -1.0232    1.1658 H   0  0  0  0  0  0  0  0  0  0  0  0
    0.3578   -0.7504   -0.9734 C   0  0  0  0  0  0  0  0  0  0  0  0
    0.6202    0.2473   -1.3432 H   0  0  0  0  0  0  0  0  0  0  0  0
    1.3033   -1.2486   -0.7340 H   0  0  0  0  0  0  0  0  0  0  0  0
   -0.2869   -1.5183   -2.1559 C   0  0  0  0  0  0  0  0  0  0  0  0
   -1.2110   -1.0153   -2.4605 H   0  0  0  0  0  0  0  0  0  0  0  0
    0.7090   -1.4948   -3.3261 C   0  0  0  0  0  0  0  0  0  0  0  0
    1.6303   -2.0249   -3.0636 H   0  0  0  0  0  0  0  0  0  0  0  0
    0.2736   -1.9704   -4.2106 H   0  0  0  0  0  0  0  0  0  0  0  0
    0.9648   -0.4640   -3.5906 H   0  0  0  0  0  0  0  0  0  0  0  0
   -0.5845   -2.9989   -1.8549 C   0  0  0  0  0  0  0  0  0  0  0  0
   -1.5784   -3.1152   -1.4220 H   0  0  0  0  0  0  0  0  0  0  0  0
   -0.5689   -3.5969   -2.7714 H   0  0  0  0  0  0  0  0  0  0  0  0
    0.1570   -3.4119   -1.1638 H   0  0  0  0  0  0  0  0  0  0  0  0
   -0.5755    0.9103    0.6664 C   0  0  0  0  0  0  0  0  0  0  0  0
   -1.4929    1.5456    0.1573 O   0  0  0  0  0  0  0  0  0  0  0  0
    0.2836    1.5430    1.5457 N   0  0  0  0  0  0  0  0  0  0  0  0
    0.9980    0.9772    1.9952 H   0  0  0  0  0  0  0  0  0  0  0  0
    0.1617    2.9486    1.9121 C   0  0  0  0  0  0  0  0  0  0  0  0
   -0.8105    3.1406    2.3780 H   0  0  0  0  0  0  0  0  0  0  0  0
    0.9463    3.2233    2.6234 H   0  0  0  0  0  0  0  0  0  0  0  0
    0.2605    3.5850    1.0265 H   0  0  0  0  0  0  0  0  0  0  0  0
  1  2  1  0  0  0  0
  2  3  1  0  0  0  0
  2  4  1  0  0  0  0
  2  5  1  0  0  0  0
  5  6  2  0  0  0  0
  5  7  1  0  0  0  0
  7  8  1  0  0  0  0
  7  9  1  0  0  0  0
  9 10  1  0  0  0  0
  9 11  1  0  0  0  0
  9 24  1  0  0  0  0
 11 12  1  0  0  0  0
 11 13  1  0  0  0  0
 11 14  1  0  0  0  0
 14 15  1  0  0  0  0
 14 16  1  0  0  0  0
 14 20  1  0  0  0  0
 16 17  1  0  0  0  0
 16 18  1  0  0  0  0
 16 19  1  0  0  0  0
 20 21  1  0  0  0  0
 20 22  1  0  0  0  0
 20 23  1  0  0  0  0
 24 25  2  0  0  0  0
 24 26  1  0  0  0  0
 26 27  1  0  0  0  0
 26 28  1  0  0  0  0
 28 29  1  0  0  0  0
 28 30  1  0  0  0  0
 28 31  1  0  0  0  0
M  END
$$$$

  -OEChem-03222214063D

 31 30  0     1  0  0  0  0  0999 V2000
   -3.5638   -3.8547    1.6598 H   0  0  0  0  0  0  0  0  0  0  0  0
   -3.5128   -2.8801    1.1662 C   0  0  0  0  0  0  0  0  0  0  0  0
   -4.1138   -2.1652    1.7333 H   0  0  0  0  0  0  0  0  0  0  0  0
   -3.9253   -2.9742    0.1588 H   0  0  0  0  0  0  0  0  0  0  0  0
   -2.0742   -2.4039    1.0952 C   0  0  0  0  0  0  0  0  0  0  0  0
   -1.1884   -3.0625    1.6176 O   0  0  0  0  0  0  0  0  0  0  0  0
   -1.7787   -1.2163    0.4565 N   0  0  0  0  0  0  0  0  0  0  0  0
   -2.5583   -0.6582    0.1119 H   0  0  0  0  0  0  0  0  0  0  0  0
   -0.4442   -0.6058    0.3895 C   0  0  1  0  0  0  0  0  0  0  0  0
    0.1820   -1.0362    1.1779 H   0  0  0  0  0  0  0  0  0  0  0  0
    0.3263   -0.7470   -0.9613 C   0  0  0  0  0  0  0  0  0  0  0  0
    0.6100    0.2509   -1.3148 H   0  0  0  0  0  0  0  0  0  0  0  0
    1.2606   -1.2579   -0.7061 H   0  0  0  0  0  0  0  0  0  0  0  0
   -0.2777   -1.4952   -2.1842 C   0  0  0  0  0  0  0  0  0  0  0  0
   -1.0334   -0.8580   -2.6557 H   0  0  0  0  0  0  0  0  0  0  0  0
    0.8694   -1.7565   -3.1751 C   0  0  0  0  0  0  0  0  0  0  0  0
    1.6025   -2.4511   -2.7517 H   0  0  0  0  0  0  0  0  0  0  0  0
    0.4838   -2.1836   -4.1063 H   0  0  0  0  0  0  0  0  0  0  0  0
    1.3801   -0.8203   -3.4216 H   0  0  0  0  0  0  0  0  0  0  0  0
   -0.9002   -2.8722   -1.8930 C   0  0  0  0  0  0  0  0  0  0  0  0
   -0.9165   -3.4938   -2.7938 H   0  0  0  0  0  0  0  0  0  0  0  0
   -1.9370   -2.7679   -1.5687 H   0  0  0  0  0  0  0  0  0  0  0  0
   -0.3282   -3.4007   -1.1238 H   0  0  0  0  0  0  0  0  0  0  0  0
   -0.5926    0.8999    0.6960 C   0  0  0  0  0  0  0  0  0  0  0  0
   -1.5145    1.5403    0.2017 O   0  0  0  0  0  0  0  0  0  0  0  0
    0.2845    1.5291    1.5602 N   0  0  0  0  0  0  0  0  0  0  0  0
    1.0042    0.9606    1.9977 H   0  0  0  0  0  0  0  0  0  0  0  0
    0.1760    2.9360    1.9260 C   0  0  0  0  0  0  0  0  0  0  0  0
   -0.7914    3.1358    2.3989 H   0  0  0  0  0  0  0  0  0  0  0  0
    0.9677    3.2055    2.6315 H   0  0  0  0  0  0  0  0  0  0  0  0
    0.2728    3.5705    1.0388 H   0  0  0  0  0  0  0  0  0  0  0  0
  1  2  1  0  0  0  0
  2  3  1  0  0  0  0
  2  4  1  0  0  0  0
  2  5  1  0  0  0  0
  5  6  2  0  0  0  0
  5  7  1  0  0  0  0
  7  8  1  0  0  0  0
  7  9  1  0  0  0  0
  9 10  1  0  0  0  0
  9 11  1  0  0  0  0
  9 24  1  0  0  0  0
 11 12  1  0  0  0  0
 11 13  1  0  0  0  0
 11 14  1  0  0  0  0
 14 15  1  0  0  0  0
 14 16  1  0  0  0  0
 14 20  1  0  0  0  0
 16 17  1  0  0  0  0
 16 18  1  0  0  0  0
 16 19  1  0  0  0  0
 20 21  1  0  0  0  0
 20 22  1  0  0  0  0
 20 23  1  0  0  0  0
 24 25  2  0  0  0  0
 24 26  1  0  0  0  0
 26 27  1  0  0  0  0
 26 28  1  0  0  0  0
 28 29  1  0  0  0  0
 28 30  1  0  0  0  0
 28 31  1  0  0  0  0
M  END
$$$$

  -OEChem-03222214063D

 31 30  0     1  0  0  0  0  0999 V2000
   -3.5934   -3.7681    1.8354 H   0  0  0  0  0  0  0  0  0  0  0  0
   -3.5361   -2.8480    1.2470 C   0  0  0  0  0  0  0  0  0  0  0  0
   -4.1482   -2.0824    1.7298 H   0  0  0  0  0  0  0  0  0  0  0  0
   -3.9308   -3.0441    0.2472 H   0  0  0  0  0  0  0  0  0  0  0  0
   -2.0969   -2.3772    1.1521 C   0  0  0  0  0  0  0  0  0  0  0  0
   -1.2053   -3.0403    1.6586 O   0  0  0  0  0  0  0  0  0  0  0  0
   -1.8046   -1.1944    0.5030 N   0  0  0  0  0  0  0  0  0  0  0  0
   -2.5860   -0.6331    0.1678 H   0  0  0  0  0  0  0  0  0  0  0  0
   -0.4669   -0.5975    0.4023 C   0  0  1  0  0  0  0  0  0  0  0  0
    0.1642   -1.0268    1.1873 H   0  0  0  0  0  0  0  0  0  0  0  0
    0.2990   -0.7537   -0.9523 C   0  0  0  0  0  0  0  0  0  0  0  0
    0.6001    0.2390   -1.3052 H   0  0  0  0  0  0  0  0  0  0  0  0
    1.2262   -1.2660   -0.6747 H   0  0  0  0  0  0  0  0  0  0  0  0
   -0.2692   -1.5026   -2.2002 C   0  0  0  0  0  0  0  0  0  0  0  0
   -0.7934   -0.7734   -2.8274 H   0  0  0  0  0  0  0  0  0  0  0  0
    0.9227   -2.0856   -2.9790 C   0  0  0  0  0  0  0  0  0  0  0  0
    1.4181   -2.8741   -2.4027 H   0  0  0  0  0  0  0  0  0  0  0  0
    0.5909   -2.5095   -3.9321 H   0  0  0  0  0  0  0  0  0  0  0  0
    1.6547   -1.3013   -3.1965 H   0  0  0  0  0  0  0  0  0  0  0  0
   -1.2193   -2.6866   -1.9609 C   0  0  0  0  0  0  0  0  0  0  0  0
   -2.2180   -2.3354   -1.6928 H   0  0  0  0  0  0  0  0  0  0  0  0
   -1.3309   -3.2827   -2.8722 H   0  0  0  0  0  0  0  0  0  0  0  0
   -0.8318   -3.3397   -1.1731 H   0  0  0  0  0  0  0  0  0  0  0  0
   -0.5940    0.9108    0.7068 C   0  0  0  0  0  0  0  0  0  0  0  0
   -1.5216    1.5581    0.2325 O   0  0  0  0  0  0  0  0  0  0  0  0
    0.3094    1.5345    1.5478 N   0  0  0  0  0  0  0  0  0  0  0  0
    1.0367    0.9614    1.9661 H   0  0  0  0  0  0  0  0  0  0  0  0
    0.2225    2.9430    1.9131 C   0  0  0  0  0  0  0  0  0  0  0  0
   -0.7312    3.1529    2.4085 H   0  0  0  0  0  0  0  0  0  0  0  0
    1.0332    3.2064    2.5991 H   0  0  0  0  0  0  0  0  0  0  0  0
    0.3041    3.5749    1.0226 H   0  0  0  0  0  0  0  0  0  0  0  0
  1  2  1  0  0  0  0
  2  3  1  0  0  0  0
  2  4  1  0  0  0  0
  2  5  1  0  0  0  0
  5  6  2  0  0  0  0
  5  7  1  0  0  0  0
  7  8  1  0  0  0  0
  7  9  1  0  0  0  0
  9 10  1  0  0  0  0
  9 11  1  0  0  0  0
  9 24  1  0  0  0  0
 11 12  1  0  0  0  0
 11 13  1  0  0  0  0
 11 14  1  0  0  0  0
 14 15  1  0  0  0  0
 14 16  1  0  0  0  0
 14 20  1  0  0  0  0
 16 17  1  0  0  0  0
 16 18  1  0  0  0  0
 16 19  1  0  0  0  0
 20 21  1  0  0  0  0
 20 22  1  0  0  0  0
 20 23  1  0  0  0  0
 24 25  2  0  0  0  0
 24 26  1  0  0  0  0
 26 27  1  0  0  0  0
 26 28  1  0  0  0  0
 28 29  1  0  0  0  0
 28 30  1  0  0  0  0
 28 31  1  0  0  0  0
M  END
$$$$

  -OEChem-03222214063D

 31 30  0     1  0  0  0  0  0999 V2000
   -3.5844   -3.7683    1.8732 H   0  0  0  0  0  0  0  0  0  0  0  0
   -3.5340   -2.8430    1.2925 C   0  0  0  0  0  0  0  0  0  0  0  0
   -4.1338   -2.0798    1.7940 H   0  0  0  0  0  0  0  0  0  0  0  0
   -3.9474   -3.0272    0.2981 H   0  0  0  0  0  0  0  0  0  0  0  0
   -2.0953   -2.3771    1.1746 C   0  0  0  0  0  0  0  0  0  0  0  0
   -1.1955   -3.0504    1.6525 O   0  0  0  0  0  0  0  0  0  0  0  0
   -1.8126   -1.1906    0.5289 N   0  0  0  0  0  0  0  0  0  0  0  0
   -2.5994   -0.6235    0.2169 H   0  0  0  0  0  0  0  0  0  0  0  0
   -0.4774   -0.5925    0.4130 C   0  0  1  0  0  0  0  0  0  0  0  0
    0.1567   -1.0225    1.1952 H   0  0  0  0  0  0  0  0  0  0  0  0
    0.2932   -0.7501   -0.9412 C   0  0  0  0  0  0  0  0  0  0  0  0
    0.5781    0.2482   -1.2917 H   0  0  0  0  0  0  0  0  0  0  0  0
    1.2317   -1.2372   -0.6562 H   0  0  0  0  0  0  0  0  0  0  0  0
   -0.2453   -1.5024   -2.2065 C   0  0  0  0  0  0  0  0  0  0  0  0
   -0.4882   -0.7383   -2.9529 H   0  0  0  0  0  0  0  0  0  0  0  0
    0.8785   -2.3890   -2.7681 C   0  0  0  0  0  0  0  0  0  0  0  0
    1.1256   -3.1923   -2.0662 H   0  0  0  0  0  0  0  0  0  0  0  0
    0.5762   -2.8399   -3.7186 H   0  0  0  0  0  0  0  0  0  0  0  0
    1.7793   -1.7943   -2.9493 H   0  0  0  0  0  0  0  0  0  0  0  0
   -1.4841   -2.3989   -2.0828 C   0  0  0  0  0  0  0  0  0  0  0  0
   -2.3707   -1.8055   -1.8451 H   0  0  0  0  0  0  0  0  0  0  0  0
   -1.6826   -2.9036   -3.0335 H   0  0  0  0  0  0  0  0  0  0  0  0
   -1.3327   -3.1673   -1.3195 H   0  0  0  0  0  0  0  0  0  0  0  0
   -0.6034    0.9138    0.7283 C   0  0  0  0  0  0  0  0  0  0  0  0
   -1.5406    1.5618    0.2742 O   0  0  0  0  0  0  0  0  0  0  0  0
    0.3107    1.5333    1.5607 N   0  0  0  0  0  0  0  0  0  0  0  0
    1.0419    0.9573    1.9681 H   0  0  0  0  0  0  0  0  0  0  0  0
    0.2242    2.9377    1.9417 C   0  0  0  0  0  0  0  0  0  0  0  0
   -0.7140    3.1347    2.4711 H   0  0  0  0  0  0  0  0  0  0  0  0
    1.0558    3.2018    2.6020 H   0  0  0  0  0  0  0  0  0  0  0  0
    0.2700    3.5788    1.0551 H   0  0  0  0  0  0  0  0  0  0  0  0
  1  2  1  0  0  0  0
  2  3  1  0  0  0  0
  2  4  1  0  0  0  0
  2  5  1  0  0  0  0
  5  6  2  0  0  0  0
  5  7  1  0  0  0  0
  7  8  1  0  0  0  0
  7  9  1  0  0  0  0
  9 10  1  0  0  0  0
  9 11  1  0  0  0  0
  9 24  1  0  0  0  0
 11 12  1  0  0  0  0
 11 13  1  0  0  0  0
 11 14  1  0  0  0  0
 14 15  1  0  0  0  0
 14 16  1  0  0  0  0
 14 20  1  0  0  0  0
 16 17  1  0  0  0  0
 16 18  1  0  0  0  0
 16 19  1  0  0  0  0
 20 21  1  0  0  0  0
 20 22  1  0  0  0  0
 20 23  1  0  0  0  0
 24 25  2  0  0  0  0
 24 26  1  0  0  0  0
 26 27  1  0  0  0  0
 26 28  1  0  0  0  0
 28 29  1  0  0  0  0
 28 30  1  0  0  0  0
 28 31  1  0  0  0  0
M  END
$$$$

  -OEChem-03222214063D

 31 30  0     1  0  0  0  0  0999 V2000
   -3.5434   -3.8203    1.8311 H   0  0  0  0  0  0  0  0  0  0  0  0
   -3.5082   -2.8716    1.2882 C   0  0  0  0  0  0  0  0  0  0  0  0
   -4.1028   -2.1327    1.8308 H   0  0  0  0  0  0  0  0  0  0  0  0
   -3.9388   -3.0176    0.2947 H   0  0  0  0  0  0  0  0  0  0  0  0
   -2.0741   -2.3931    1.1651 C   0  0  0  0  0  0  0  0  0  0  0  0
   -1.1655   -3.0648    1.6282 O   0  0  0  0  0  0  0  0  0  0  0  0
   -1.8062   -1.1969    0.5316 N   0  0  0  0  0  0  0  0  0  0  0  0
   -2.5993   -0.6344    0.2276 H   0  0  0  0  0  0  0  0  0  0  0  0
   -0.4772   -0.5849    0.4225 C   0  0  1  0  0  0  0  0  0  0  0  0
    0.1574   -1.0166    1.2035 H   0  0  0  0  0  0  0  0  0  0  0  0
    0.2983   -0.7418   -0.9282 C   0  0  0  0  0  0  0  0  0  0  0  0
    0.5385    0.2658   -1.2861 H   0  0  0  0  0  0  0  0  0  0  0  0
    1.2609   -1.1871   -0.6561 H   0  0  0  0  0  0  0  0  0  0  0  0
   -0.2373   -1.5060   -2.1872 C   0  0  0  0  0  0  0  0  0  0  0  0
   -0.1769   -0.7899   -3.0143 H   0  0  0  0  0  0  0  0  0  0  0  0
    0.7131   -2.6606   -2.5351 C   0  0  0  0  0  0  0  0  0  0  0  0
    0.7195   -3.4056   -1.7327 H   0  0  0  0  0  0  0  0  0  0  0  0
    0.3994   -3.1512   -3.4617 H   0  0  0  0  0  0  0  0  0  0  0  0
    1.7332   -2.2898   -2.6767 H   0  0  0  0  0  0  0  0  0  0  0  0
   -1.6781   -2.0294   -2.2143 C   0  0  0  0  0  0  0  0  0  0  0  0
   -2.3851   -1.2277   -1.9822 H   0  0  0  0  0  0  0  0  0  0  0  0
   -1.9202   -2.4033   -3.2140 H   0  0  0  0  0  0  0  0  0  0  0  0
   -1.8082   -2.8556   -1.5107 H   0  0  0  0  0  0  0  0  0  0  0  0
   -0.6097    0.9175    0.7518 C   0  0  0  0  0  0  0  0  0  0  0  0
   -1.5494    1.5649    0.3026 O   0  0  0  0  0  0  0  0  0  0  0  0
    0.3018    1.5340    1.5893 N   0  0  0  0  0  0  0  0  0  0  0  0
    1.0397    0.9596    1.9867 H   0  0  0  0  0  0  0  0  0  0  0  0
    0.2150    2.9374    1.9737 C   0  0  0  0  0  0  0  0  0  0  0  0
   -0.7310    3.1367    2.4878 H   0  0  0  0  0  0  0  0  0  0  0  0
    1.0363    3.1957    2.6490 H   0  0  0  0  0  0  0  0  0  0  0  0
    0.2789    3.5809    1.0901 H   0  0  0  0  0  0  0  0  0  0  0  0
  1  2  1  0  0  0  0
  2  3  1  0  0  0  0
  2  4  1  0  0  0  0
  2  5  1  0  0  0  0
  5  6  2  0  0  0  0
  5  7  1  0  0  0  0
  7  8  1  0  0  0  0
  7  9  1  0  0  0  0
  9 10  1  0  0  0  0
  9 11  1  0  0  0  0
  9 24  1  0  0  0  0
 11 12  1  0  0  0  0
 11 13  1  0  0  0  0
 11 14  1  0  0  0  0
 14 15  1  0  0  0  0
 14 16  1  0  0  0  0
 14 20  1  0  0  0  0
 16 17  1  0  0  0  0
 16 18  1  0  0  0  0
 16 19  1  0  0  0  0
 20 21  1  0  0  0  0
 20 22  1  0  0  0  0
 20 23  1  0  0  0  0
 24 25  2  0  0  0  0
 24 26  1  0  0  0  0
 26 27  1  0  0  0  0
 26 28  1  0  0  0  0
 28 29  1  0  0  0  0
 28 30  1  0  0  0  0
 28 31  1  0  0  0  0
M  END
$$$$

  -OEChem-03222214063D

 31 30  0     1  0  0  0  0  0999 V2000
   -3.5068   -3.8383    1.7862 H   0  0  0  0  0  0  0  0  0  0  0  0
   -3.4758   -2.8880    1.2459 C   0  0  0  0  0  0  0  0  0  0  0  0
   -4.0777   -2.1546    1.7880 H   0  0  0  0  0  0  0  0  0  0  0  0
   -3.9016   -3.0344    0.2505 H   0  0  0  0  0  0  0  0  0  0  0  0
   -2.0444   -2.3988    1.1303 C   0  0  0  0  0  0  0  0  0  0  0  0
   -1.1327   -3.0678    1.5912 O   0  0  0  0  0  0  0  0  0  0  0  0
   -1.7835   -1.1948    0.5094 N   0  0  0  0  0  0  0  0  0  0  0  0
   -2.5798   -0.6375    0.2046 H   0  0  0  0  0  0  0  0  0  0  0  0
   -0.4602   -0.5686    0.4167 C   0  0  1  0  0  0  0  0  0  0  0  0
    0.1736   -1.0013    1.1975 H   0  0  0  0  0  0  0  0  0  0  0  0
    0.3107   -0.7360   -0.9316 C   0  0  0  0  0  0  0  0  0  0  0  0
    0.5150    0.2722   -1.3091 H   0  0  0  0  0  0  0  0  0  0  0  0
    1.2894   -1.1581   -0.6817 H   0  0  0  0  0  0  0  0  0  0  0  0
   -0.2580   -1.5212   -2.1565 C   0  0  0  0  0  0  0  0  0  0  0  0
    0.0677   -0.9461   -3.0305 H   0  0  0  0  0  0  0  0  0  0  0  0
    0.4316   -2.8839   -2.2866 C   0  0  0  0  0  0  0  0  0  0  0  0
    0.2096   -3.5058   -1.4133 H   0  0  0  0  0  0  0  0  0  0  0  0
    0.0823   -3.4058   -3.1830 H   0  0  0  0  0  0  0  0  0  0  0  0
    1.5166   -2.7634   -2.3635 H   0  0  0  0  0  0  0  0  0  0  0  0
   -1.7766   -1.6553   -2.3283 C   0  0  0  0  0  0  0  0  0  0  0  0
   -2.2749   -0.7076   -2.1014 H   0  0  0  0  0  0  0  0  0  0  0  0
   -2.0093   -1.9198   -3.3646 H   0  0  0  0  0  0  0  0  0  0  0  0
   -2.1805   -2.4447   -1.6896 H   0  0  0  0  0  0  0  0  0  0  0  0
   -0.5983    0.9311    0.7547 C   0  0  0  0  0  0  0  0  0  0  0  0
   -1.5380    1.5769    0.3033 O   0  0  0  0  0  0  0  0  0  0  0  0
    0.3047    1.5465    1.6023 N   0  0  0  0  0  0  0  0  0  0  0  0
    1.0409    0.9723    2.0035 H   0  0  0  0  0  0  0  0  0  0  0  0
    0.2051    2.9459    1.9987 C   0  0  0  0  0  0  0  0  0  0  0  0
   -0.7421    3.1318    2.5160 H   0  0  0  0  0  0  0  0  0  0  0  0
    1.0250    3.2066    2.6749 H   0  0  0  0  0  0  0  0  0  0  0  0
    0.2612    3.5973    1.1202 H   0  0  0  0  0  0  0  0  0  0  0  0
  1  2  1  0  0  0  0
  2  3  1  0  0  0  0
  2  4  1  0  0  0  0
  2  5  1  0  0  0  0
  5  6  2  0  0  0  0
  5  7  1  0  0  0  0
  7  8  1  0  0  0  0
  7  9  1  0  0  0  0
  9 10  1  0  0  0  0
  9 11  1  0  0  0  0
  9 24  1  0  0  0  0
 11 12  1  0  0  0  0
 11 13  1  0  0  0  0
 11 14  1  0  0  0  0
 14 15  1  0  0  0  0
 14 16  1  0  0  0  0
 14 20  1  0  0  0  0
 16 17  1  0  0  0  0
 16 18  1  0  0  0  0
 16 19  1  0  0  0  0
 20 21  1  0  0  0  0
 20 22  1  0  0  0  0
 20 23  1  0  0  0  0
 24 25  2  0  0  0  0
 24 26  1  0  0  0  0
 26 27  1  0  0  0  0
 26 28  1  0  0  0  0
 28 29  1  0  0  0  0
 28 30  1  0  0  0  0
 28 31  1  0  0  0  0
M  END
$$$$

  -OEChem-03222214063D

 31 30  0     1  0  0  0  0  0999 V2000
   -3.4828   -3.8409    1.7469 H   0  0  0  0  0  0  0  0  0  0  0  0
   -3.4416   -2.9168    1.1638 C   0  0  0  0  0  0  0  0  0  0  0  0
   -4.0847   -2.1719    1.6387 H   0  0  0  0  0  0  0  0  0  0  0  0
   -3.8120   -3.1187    0.1560 H   0  0  0  0  0  0  0  0  0  0  0  0
   -2.0156   -2.4037    1.0977 C   0  0  0  0  0  0  0  0  0  0  0  0
   -1.1090   -3.0576    1.5894 O   0  0  0  0  0  0  0  0  0  0  0  0
   -1.7542   -1.1960    0.4853 N   0  0  0  0  0  0  0  0  0  0  0  0
   -2.5491   -0.6522    0.1539 H   0  0  0  0  0  0  0  0  0  0  0  0
   -0.4350   -0.5577    0.4081 C   0  0  1  0  0  0  0  0  0  0  0  0
    0.2013   -0.9916    1.1861 H   0  0  0  0  0  0  0  0  0  0  0  0
    0.3239   -0.7207   -0.9447 C   0  0  0  0  0  0  0  0  0  0  0  0
    0.5231    0.2849   -1.3314 H   0  0  0  0  0  0  0  0  0  0  0  0
    1.3036   -1.1535   -0.7183 H   0  0  0  0  0  0  0  0  0  0  0  0
   -0.2894   -1.5107   -2.1356 C   0  0  0  0  0  0  0  0  0  0  0  0
    0.2242   -1.1185   -3.0204 H   0  0  0  0  0  0  0  0  0  0  0  0
    0.0915   -2.9934   -2.0694 C   0  0  0  0  0  0  0  0  0  0  0  0
   -0.3414   -3.4613   -1.1801 H   0  0  0  0  0  0  0  0  0  0  0  0
   -0.2778   -3.5207   -2.9545 H   0  0  0  0  0  0  0  0  0  0  0  0
    1.1787   -3.1113   -2.0296 H   0  0  0  0  0  0  0  0  0  0  0  0
   -1.7842   -1.3092   -2.4253 C   0  0  0  0  0  0  0  0  0  0  0  0
   -2.0781   -0.2745   -2.2223 H   0  0  0  0  0  0  0  0  0  0  0  0
   -1.9885   -1.5222   -3.4791 H   0  0  0  0  0  0  0  0  0  0  0  0
   -2.4038   -1.9838   -1.8292 H   0  0  0  0  0  0  0  0  0  0  0  0
   -0.5826    0.9400    0.7492 C   0  0  0  0  0  0  0  0  0  0  0  0
   -1.5208    1.5833    0.2911 O   0  0  0  0  0  0  0  0  0  0  0  0
    0.3101    1.5562    1.6068 N   0  0  0  0  0  0  0  0  0  0  0  0
    1.0369    0.9804    2.0225 H   0  0  0  0  0  0  0  0  0  0  0  0
    0.1883    2.9481    2.0230 C   0  0  0  0  0  0  0  0  0  0  0  0
   -0.7579    3.1087    2.5505 H   0  0  0  0  0  0  0  0  0  0  0  0
    1.0090    3.2150    2.6957 H   0  0  0  0  0  0  0  0  0  0  0  0
    0.2246    3.6128    1.1535 H   0  0  0  0  0  0  0  0  0  0  0  0
  1  2  1  0  0  0  0
  2  3  1  0  0  0  0
  2  4  1  0  0  0  0
  2  5  1  0  0  0  0
  5  6  2  0  0  0  0
  5  7  1  0  0  0  0
  7  8  1  0  0  0  0
  7  9  1  0  0  0  0
  9 10  1  0  0  0  0
  9 11  1  0  0  0  0
  9 24  1  0  0  0  0
 11 12  1  0  0  0  0
 11 13  1  0  0  0  0
 11 14  1  0  0  0  0
 14 15  1  0  0  0  0
 14 16  1  0  0  0  0
 14 20  1  0  0  0  0
 16 17  1  0  0  0  0
 16 18  1  0  0  0  0
 16 19  1  0  0  0  0
 20 21  1  0  0  0  0
 20 22  1  0  0  0  0
 20 23  1  0  0  0  0
 24 25  2  0  0  0  0
 24 26  1  0  0  0  0
 26 27  1  0  0  0  0
 26 28  1  0  0  0  0
 28 29  1  0  0  0  0
 28 30  1  0  0  0  0
 28 31  1  0  0  0  0
M  END
$$$$

  -OEChem-03222214063D

 31 30  0     1  0  0  0  0  0999 V2000
   -3.4882   -3.8670    1.7071 H   0  0  0  0  0  0  0  0  0  0  0  0
   -3.4383   -2.9398    1.1293 C   0  0  0  0  0  0  0  0  0  0  0  0
   -4.1039   -2.2038    1.5865 H   0  0  0  0  0  0  0  0  0  0  0  0
   -3.7741   -3.1415    0.1092 H   0  0  0  0  0  0  0  0  0  0  0  0
   -2.0167   -2.4111    1.1096 C   0  0  0  0  0  0  0  0  0  0  0  0
   -1.1221   -3.0472    1.6449 O   0  0  0  0  0  0  0  0  0  0  0  0
   -1.7442   -1.2100    0.4889 N   0  0  0  0  0  0  0  0  0  0  0  0
   -2.5313   -0.6793    0.1201 H   0  0  0  0  0  0  0  0  0  0  0  0
   -0.4231   -0.5720    0.4206 C   0  0  1  0  0  0  0  0  0  0  0  0
    0.2154   -1.0021    1.1990 H   0  0  0  0  0  0  0  0  0  0  0  0
    0.3317   -0.7135   -0.9379 C   0  0  0  0  0  0  0  0  0  0  0  0
    0.5585    0.2921   -1.3097 H   0  0  0  0  0  0  0  0  0  0  0  0
    1.2980   -1.1791   -0.7197 H   0  0  0  0  0  0  0  0  0  0  0  0
   -0.2930   -1.4827   -2.1320 C   0  0  0  0  0  0  0  0  0  0  0  0
    0.3625   -1.2674   -2.9827 H   0  0  0  0  0  0  0  0  0  0  0  0
   -0.2531   -3.0042   -1.9444 C   0  0  0  0  0  0  0  0  0  0  0  0
   -0.9451   -3.3281   -1.1658 H   0  0  0  0  0  0  0  0  0  0  0  0
   -0.5328   -3.5045   -2.8766 H   0  0  0  0  0  0  0  0  0  0  0  0
    0.7547   -3.3303   -1.6697 H   0  0  0  0  0  0  0  0  0  0  0  0
   -1.6910   -0.9975   -2.5448 C   0  0  0  0  0  0  0  0  0  0  0  0
   -1.7508    0.0938   -2.4820 H   0  0  0  0  0  0  0  0  0  0  0  0
   -1.8949   -1.2933   -3.5785 H   0  0  0  0  0  0  0  0  0  0  0  0
   -2.4736   -1.4300   -1.9178 H   0  0  0  0  0  0  0  0  0  0  0  0
   -0.5832    0.9278    0.7477 C   0  0  0  0  0  0  0  0  0  0  0  0
   -1.5119    1.5671    0.2649 O   0  0  0  0  0  0  0  0  0  0  0  0
    0.2967    1.5537    1.6116 N   0  0  0  0  0  0  0  0  0  0  0  0
    1.0184    0.9832    2.0432 H   0  0  0  0  0  0  0  0  0  0  0  0
    0.1804    2.9546    1.9976 C   0  0  0  0  0  0  0  0  0  0  0  0
   -0.7798    3.1385    2.4911 H   0  0  0  0  0  0  0  0  0  0  0  0
    0.9827    3.2234    2.6916 H   0  0  0  0  0  0  0  0  0  0  0  0
    0.2540    3.6019    1.1173 H   0  0  0  0  0  0  0  0  0  0  0  0
  1  2  1  0  0  0  0
  2  3  1  0  0  0  0
  2  4  1  0  0  0  0
  2  5  1  0  0  0  0
  5  6  2  0  0  0  0
  5  7  1  0  0  0  0
  7  8  1  0  0  0  0
  7  9  1  0  0  0  0
  9 10  1  0  0  0  0
  9 11  1  0  0  0  0
  9 24  1  0  0  0  0
 11 12  1  0  0  0  0
 11 13  1  0  0  0  0
 11 14  1  0  0  0  0
 14 15  1  0  0  0  0
 14 16  1  0  0  0  0
 14 20  1  0  0  0  0
 16 17  1  0  0  0  0
 16 18  1  0  0  0  0
 16 19  1  0  0  0  0
 20 21  1  0  0  0  0
 20 22  1  0  0  0  0
 20 23  1  0  0  0  0
 24 25  2  0  0  0  0
 24 26  1  0  0  0  0
 26 27  1  0  0  0  0
 26 28  1  0  0  0  0
 28 29  1  0  0  0  0
 28 30  1  0  0  0  0
 28 31  1  0  0  0  0
M  END
$$$$

  -OEChem-03222214063D

 31 30  0     1  0  0  0  0  0999 V2000
   -3.4822   -3.8862    1.6773 H   0  0  0  0  0  0  0  0  0  0  0  0
   -3.4444   -2.9280    1.1517 C   0  0  0  0  0  0  0  0  0  0  0  0
   -4.0794   -2.2116    1.6782 H   0  0  0  0  0  0  0  0  0  0  0  0
   -3.8266   -3.0671    0.1376 H   0  0  0  0  0  0  0  0  0  0  0  0
   -2.0175   -2.4157    1.1007 C   0  0  0  0  0  0  0  0  0  0  0  0
   -1.1184   -3.0630    1.6145 O   0  0  0  0  0  0  0  0  0  0  0  0
   -1.7456   -1.2163    0.4753 N   0  0  0  0  0  0  0  0  0  0  0  0
   -2.5352   -0.6722    0.1317 H   0  0  0  0  0  0  0  0  0  0  0  0
   -0.4226   -0.5807    0.4123 C   0  0  1  0  0  0  0  0  0  0  0  0
    0.2135   -1.0087    1.1936 H   0  0  0  0  0  0  0  0  0  0  0  0
    0.3389   -0.7116   -0.9435 C   0  0  0  0  0  0  0  0  0  0  0  0
    0.5985    0.2908   -1.3018 H   0  0  0  0  0  0  0  0  0  0  0  0
    1.2888   -1.2062   -0.7168 H   0  0  0  0  0  0  0  0  0  0  0  0
   -0.2773   -1.4697   -2.1472 C   0  0  0  0  0  0  0  0  0  0  0  0
    0.4889   -1.4521   -2.9299 H   0  0  0  0  0  0  0  0  0  0  0  0
   -0.5884   -2.9481   -1.8773 C   0  0  0  0  0  0  0  0  0  0  0  0
   -1.5748   -3.0768   -1.4286 H   0  0  0  0  0  0  0  0  0  0  0  0
   -0.5807   -3.5053   -2.8191 H   0  0  0  0  0  0  0  0  0  0  0  0
    0.1631   -3.3862   -1.2129 H   0  0  0  0  0  0  0  0  0  0  0  0
   -1.5101   -0.7490   -2.7111 C   0  0  0  0  0  0  0  0  0  0  0  0
   -1.2734    0.2979   -2.9247 H   0  0  0  0  0  0  0  0  0  0  0  0
   -1.8292   -1.2253   -3.6433 H   0  0  0  0  0  0  0  0  0  0  0  0
   -2.3483   -0.7760   -2.0111 H   0  0  0  0  0  0  0  0  0  0  0  0
   -0.5895    0.9195    0.7346 C   0  0  0  0  0  0  0  0  0  0  0  0
   -1.5212    1.5532    0.2500 O   0  0  0  0  0  0  0  0  0  0  0  0
    0.2826    1.5505    1.6026 N   0  0  0  0  0  0  0  0  0  0  0  0
    1.0092    0.9855    2.0331 H   0  0  0  0  0  0  0  0  0  0  0  0
    0.1554    2.9505    1.9884 C   0  0  0  0  0  0  0  0  0  0  0  0
   -0.8139    3.1301    2.4651 H   0  0  0  0  0  0  0  0  0  0  0  0
    0.9443    3.2209    2.6967 H   0  0  0  0  0  0  0  0  0  0  0  0
    0.2422    3.5991    1.1105 H   0  0  0  0  0  0  0  0  0  0  0  0
  1  2  1  0  0  0  0
  2  3  1  0  0  0  0
  2  4  1  0  0  0  0
  2  5  1  0  0  0  0
  5  6  2  0  0  0  0
  5  7  1  0  0  0  0
  7  8  1  0  0  0  0
  7  9  1  0  0  0  0
  9 10  1  0  0  0  0
  9 11  1  0  0  0  0
  9 24  1  0  0  0  0
 11 12  1  0  0  0  0
 11 13  1  0  0  0  0
 11 14  1  0  0  0  0
 14 15  1  0  0  0  0
 14 16  1  0  0  0  0
 14 20  1  0  0  0  0
 16 17  1  0  0  0  0
 16 18  1  0  0  0  0
 16 19  1  0  0  0  0
 20 21  1  0  0  0  0
 20 22  1  0  0  0  0
 20 23  1  0  0  0  0
 24 25  2  0  0  0  0
 24 26  1  0  0  0  0
 26 27  1  0  0  0  0
 26 28  1  0  0  0  0
 28 29  1  0  0  0  0
 28 30  1  0  0  0  0
 28 31  1  0  0  0  0
M  END
$$$$

  -OEChem-03222214063D

 31 30  0     1  0  0  0  0  0999 V2000
   -3.5087   -3.8782    1.6948 H   0  0  0  0  0  0  0  0  0  0  0  0
   -3.4687   -2.9166    1.1758 C   0  0  0  0  0  0  0  0  0  0  0  0
   -4.0935   -2.1994    1.7134 H   0  0  0  0  0  0  0  0  0  0  0  0
   -3.8620   -3.0456    0.1647 H   0  0  0  0  0  0  0  0  0  0  0  0
   -2.0385   -2.4144    1.1153 C   0  0  0  0  0  0  0  0  0  0  0  0
   -1.1432   -3.0616    1.6358 O   0  0  0  0  0  0  0  0  0  0  0  0
   -1.7600   -1.2200    0.4823 N   0  0  0  0  0  0  0  0  0  0  0  0
   -2.5463   -0.6743    0.1338 H   0  0  0  0  0  0  0  0  0  0  0  0
   -0.4345   -0.5901    0.4174 C   0  0  1  0  0  0  0  0  0  0  0  0
    0.1978   -1.0142    1.2044 H   0  0  0  0  0  0  0  0  0  0  0  0
    0.3394   -0.7152   -0.9333 C   0  0  0  0  0  0  0  0  0  0  0  0
    0.6369    0.2840   -1.2709 H   0  0  0  0  0  0  0  0  0  0  0  0
    1.2710   -1.2353   -0.6874 H   0  0  0  0  0  0  0  0  0  0  0  0
   -0.2432   -1.4639   -2.1635 C   0  0  0  0  0  0  0  0  0  0  0  0
    0.5919   -1.6310   -2.8524 H   0  0  0  0  0  0  0  0  0  0  0  0
   -0.8910   -2.8296   -1.8964 C   0  0  0  0  0  0  0  0  0  0  0  0
   -1.9350   -2.7320   -1.5904 H   0  0  0  0  0  0  0  0  0  0  0  0
   -0.8749   -3.4290   -2.8119 H   0  0  0  0  0  0  0  0  0  0  0  0
   -0.3365   -3.3720   -1.1244 H   0  0  0  0  0  0  0  0  0  0  0  0
   -1.2664   -0.5651   -2.8706 C   0  0  0  0  0  0  0  0  0  0  0  0
   -0.8038    0.3803   -3.1708 H   0  0  0  0  0  0  0  0  0  0  0  0
   -1.6499   -1.0582   -3.7693 H   0  0  0  0  0  0  0  0  0  0  0  0
   -2.1100   -0.3409   -2.2105 H   0  0  0  0  0  0  0  0  0  0  0  0
   -0.6037    0.9119    0.7304 C   0  0  0  0  0  0  0  0  0  0  0  0
   -1.5327    1.5429    0.2372 O   0  0  0  0  0  0  0  0  0  0  0  0
    0.2658    1.5484    1.5968 N   0  0  0  0  0  0  0  0  0  0  0  0
    0.9963    0.9885    2.0272 H   0  0  0  0  0  0  0  0  0  0  0  0
    0.1460    2.9546    1.9609 C   0  0  0  0  0  0  0  0  0  0  0  0
   -0.8276    3.1500    2.4228 H   0  0  0  0  0  0  0  0  0  0  0  0
    0.9281    3.2280    2.6755 H   0  0  0  0  0  0  0  0  0  0  0  0
    0.2497    3.5892    1.0745 H   0  0  0  0  0  0  0  0  0  0  0  0
  1  2  1  0  0  0  0
  2  3  1  0  0  0  0
  2  4  1  0  0  0  0
  2  5  1  0  0  0  0
  5  6  2  0  0  0  0
  5  7  1  0  0  0  0
  7  8  1  0  0  0  0
  7  9  1  0  0  0  0
  9 10  1  0  0  0  0
  9 11  1  0  0  0  0
  9 24  1  0  0  0  0
 11 12  1  0  0  0  0
 11 13  1  0  0  0  0
 11 14  1  0  0  0  0
 14 15  1  0  0  0  0
 14 16  1  0  0  0  0
 14 20  1  0  0  0  0
 16 17  1  0  0  0  0
 16 18  1  0  0  0  0
 16 19  1  0  0  0  0
 20 21  1  0  0  0  0
 20 22  1  0  0  0  0
 20 23  1  0  0  0  0
 24 25  2  0  0  0  0
 24 26  1  0  0  0  0
 26 27  1  0  0  0  0
 26 28  1  0  0  0  0
 28 29  1  0  0  0  0
 28 30  1  0  0  0  0
 28 31  1  0  0  0  0
M  END
$$$$

  -OEChem-03222214063D

 31 30  0     1  0  0  0  0  0999 V2000
   -3.5173   -3.8324    1.8205 H   0  0  0  0  0  0  0  0  0  0  0  0
   -3.4756   -2.9051    1.2426 C   0  0  0  0  0  0  0  0  0  0  0  0
   -4.1004   -2.1559    1.7344 H   0  0  0  0  0  0  0  0  0  0  0  0
   -3.8673   -3.0960    0.2407 H   0  0  0  0  0  0  0  0  0  0  0  0
   -2.0449   -2.4090    1.1531 C   0  0  0  0  0  0  0  0  0  0  0  0
   -1.1420   -3.0595    1.6558 O   0  0  0  0  0  0  0  0  0  0  0  0
   -1.7733   -1.2178    0.5113 N   0  0  0  0  0  0  0  0  0  0  0  0
   -2.5636   -0.6710    0.1734 H   0  0  0  0  0  0  0  0  0  0  0  0
   -0.4477   -0.5942    0.4191 C   0  0  1  0  0  0  0  0  0  0  0  0
    0.1934   -1.0144    1.2010 H   0  0  0  0  0  0  0  0  0  0  0  0
    0.3179   -0.7214   -0.9382 C   0  0  0  0  0  0  0  0  0  0  0  0
    0.6411    0.2753   -1.2590 H   0  0  0  0  0  0  0  0  0  0  0  0
    1.2384   -1.2570   -0.6839 H   0  0  0  0  0  0  0  0  0  0  0  0
   -0.2406   -1.4656   -2.1899 C   0  0  0  0  0  0  0  0  0  0  0  0
    0.6244   -1.8364   -2.7505 H   0  0  0  0  0  0  0  0  0  0  0  0
   -1.1865   -2.6552   -1.9773 C   0  0  0  0  0  0  0  0  0  0  0  0
   -2.1959   -2.3302   -1.7126 H   0  0  0  0  0  0  0  0  0  0  0  0
   -1.2627   -3.2350   -2.9024 H   0  0  0  0  0  0  0  0  0  0  0  0
   -0.7968   -3.3170   -1.1981 H   0  0  0  0  0  0  0  0  0  0  0  0
   -0.9762   -0.4472   -3.0726 C   0  0  0  0  0  0  0  0  0  0  0  0
   -0.2996    0.3565   -3.3793 H   0  0  0  0  0  0  0  0  0  0  0  0
   -1.3607   -0.9289   -3.9771 H   0  0  0  0  0  0  0  0  0  0  0  0
   -1.8170   -0.0034   -2.5293 H   0  0  0  0  0  0  0  0  0  0  0  0
   -0.6121    0.9090    0.7313 C   0  0  0  0  0  0  0  0  0  0  0  0
   -1.5517    1.5371    0.2546 O   0  0  0  0  0  0  0  0  0  0  0  0
    0.2715    1.5505    1.5800 N   0  0  0  0  0  0  0  0  0  0  0  0
    1.0077    0.9927    2.0035 H   0  0  0  0  0  0  0  0  0  0  0  0
    0.1494    2.9556    1.9487 C   0  0  0  0  0  0  0  0  0  0  0  0
   -0.8091    3.1397    2.4450 H   0  0  0  0  0  0  0  0  0  0  0  0
    0.9537    3.2381    2.6346 H   0  0  0  0  0  0  0  0  0  0  0  0
    0.2144    3.5915    1.0595 H   0  0  0  0  0  0  0  0  0  0  0  0
  1  2  1  0  0  0  0
  2  3  1  0  0  0  0
  2  4  1  0  0  0  0
  2  5  1  0  0  0  0
  5  6  2  0  0  0  0
  5  7  1  0  0  0  0
  7  8  1  0  0  0  0
  7  9  1  0  0  0  0
  9 10  1  0  0  0  0
  9 11  1  0  0  0  0
  9 24  1  0  0  0  0
 11 12  1  0  0  0  0
 11 13  1  0  0  0  0
 11 14  1  0  0  0  0
 14 15  1  0  0  0  0
 14 16  1  0  0  0  0
 14 20  1  0  0  0  0
 16 17  1  0  0  0  0
 16 18  1  0  0  0  0
 16 19  1  0  0  0  0
 20 21  1  0  0  0  0
 20 22  1  0  0  0  0
 20 23  1  0  0  0  0
 24 25  2  0  0  0  0
 24 26  1  0  0  0  0
 26 27  1  0  0  0  0
 26 28  1  0  0  0  0
 28 29  1  0  0  0  0
 28 30  1  0  0  0  0
 28 31  1  0  0  0  0
M  END
$$$$

  -OEChem-03222214063D

 31 30  0     1  0  0  0  0  0999 V2000
   -3.5082   -3.8349    1.8514 H   0  0  0  0  0  0  0  0  0  0  0  0
   -3.4760   -2.8998    1.2853 C   0  0  0  0  0  0  0  0  0  0  0  0
   -4.0898   -2.1558    1.7986 H   0  0  0  0  0  0  0  0  0  0  0  0
   -3.8872   -3.0768    0.2885 H   0  0  0  0  0  0  0  0  0  0  0  0
   -2.0467   -2.4037    1.1742 C   0  0  0  0  0  0  0  0  0  0  0  0
   -1.1346   -3.0584    1.6544 O   0  0  0  0  0  0  0  0  0  0  0  0
   -1.7861   -1.2113    0.5305 N   0  0  0  0  0  0  0  0  0  0  0  0
   -2.5829   -0.6606    0.2146 H   0  0  0  0  0  0  0  0  0  0  0  0
   -0.4619   -0.5896    0.4121 C   0  0  1  0  0  0  0  0  0  0  0  0
    0.1885   -1.0104    1.1858 H   0  0  0  0  0  0  0  0  0  0  0  0
    0.2939   -0.7190   -0.9526 C   0  0  0  0  0  0  0  0  0  0  0  0
    0.6156    0.2808   -1.2648 H   0  0  0  0  0  0  0  0  0  0  0  0
    1.2179   -1.2494   -0.6998 H   0  0  0  0  0  0  0  0  0  0  0  0
   -0.2537   -1.4645   -2.2157 C   0  0  0  0  0  0  0  0  0  0  0  0
    0.5772   -2.0504   -2.6233 H   0  0  0  0  0  0  0  0  0  0  0  0
   -1.4437   -2.4217   -2.0764 C   0  0  0  0  0  0  0  0  0  0  0  0
   -2.3646   -1.8841   -1.8340 H   0  0  0  0  0  0  0  0  0  0  0  0
   -1.6090   -2.9500   -3.0205 H   0  0  0  0  0  0  0  0  0  0  0  0
   -1.2388   -3.1739   -1.3100 H   0  0  0  0  0  0  0  0  0  0  0  0
   -0.6460   -0.4166   -3.2684 C   0  0  0  0  0  0  0  0  0  0  0  0
    0.2149    0.2057   -3.5322 H   0  0  0  0  0  0  0  0  0  0  0  0
   -1.0024   -0.9019   -4.1824 H   0  0  0  0  0  0  0  0  0  0  0  0
   -1.4409    0.2323   -2.8857 H   0  0  0  0  0  0  0  0  0  0  0  0
   -0.6195    0.9128    0.7320 C   0  0  0  0  0  0  0  0  0  0  0  0
   -1.5690    1.5428    0.2782 O   0  0  0  0  0  0  0  0  0  0  0  0
    0.2823    1.5502    1.5643 N   0  0  0  0  0  0  0  0  0  0  0  0
    1.0210    0.9872    1.9762 H   0  0  0  0  0  0  0  0  0  0  0  0
    0.1577    2.9480    1.9586 C   0  0  0  0  0  0  0  0  0  0  0  0
   -0.7829    3.1119    2.4948 H   0  0  0  0  0  0  0  0  0  0  0  0
    0.9849    3.2301    2.6168 H   0  0  0  0  0  0  0  0  0  0  0  0
    0.1800    3.5986    1.0781 H   0  0  0  0  0  0  0  0  0  0  0  0
  1  2  1  0  0  0  0
  2  3  1  0  0  0  0
  2  4  1  0  0  0  0
  2  5  1  0  0  0  0
  5  6  2  0  0  0  0
  5  7  1  0  0  0  0
  7  8  1  0  0  0  0
  7  9  1  0  0  0  0
  9 10  1  0  0  0  0
  9 11  1  0  0  0  0
  9 24  1  0  0  0  0
 11 12  1  0  0  0  0
 11 13  1  0  0  0  0
 11 14  1  0  0  0  0
 14 15  1  0  0  0  0
 14 16  1  0  0  0  0
 14 20  1  0  0  0  0
 16 17  1  0  0  0  0
 16 18  1  0  0  0  0
 16 19  1  0  0  0  0
 20 21  1  0  0  0  0
 20 22  1  0  0  0  0
 20 23  1  0  0  0  0
 24 25  2  0  0  0  0
 24 26  1  0  0  0  0
 26 27  1  0  0  0  0
 26 28  1  0  0  0  0
 28 29  1  0  0  0  0
 28 30  1  0  0  0  0
 28 31  1  0  0  0  0
M  END
$$$$

  -OEChem-03222214063D

 31 30  0     1  0  0  0  0  0999 V2000
   -3.4956   -3.8507    1.8523 H   0  0  0  0  0  0  0  0  0  0  0  0
   -3.4744   -2.9020    1.3089 C   0  0  0  0  0  0  0  0  0  0  0  0
   -4.0664   -2.1673    1.8600 H   0  0  0  0  0  0  0  0  0  0  0  0
   -3.9180   -3.0503    0.3215 H   0  0  0  0  0  0  0  0  0  0  0  0
   -2.0456   -2.4134    1.1653 C   0  0  0  0  0  0  0  0  0  0  0  0
   -1.1249   -3.0794    1.6122 O   0  0  0  0  0  0  0  0  0  0  0  0
   -1.7962   -1.2129    0.5326 N   0  0  0  0  0  0  0  0  0  0  0  0
   -2.5984   -0.6556    0.2426 H   0  0  0  0  0  0  0  0  0  0  0  0
   -0.4746   -0.5889    0.4014 C   0  0  1  0  0  0  0  0  0  0  0  0
    0.1837   -1.0173    1.1642 H   0  0  0  0  0  0  0  0  0  0  0  0
    0.2720   -0.7113   -0.9700 C   0  0  0  0  0  0  0  0  0  0  0  0
    0.5540    0.3015   -1.2787 H   0  0  0  0  0  0  0  0  0  0  0  0
    1.2174   -1.2110   -0.7352 H   0  0  0  0  0  0  0  0  0  0  0  0
   -0.2791   -1.4528   -2.2372 C   0  0  0  0  0  0  0  0  0  0  0  0
    0.4405   -2.2446   -2.4730 H   0  0  0  0  0  0  0  0  0  0  0  0
   -1.6536   -2.1314   -2.1897 C   0  0  0  0  0  0  0  0  0  0  0  0
   -2.4414   -1.4091   -1.9556 H   0  0  0  0  0  0  0  0  0  0  0  0
   -1.8871   -2.5794   -3.1606 H   0  0  0  0  0  0  0  0  0  0  0  0
   -1.6564   -2.9385   -1.4534 H   0  0  0  0  0  0  0  0  0  0  0  0
   -0.2900   -0.4742   -3.4226 C   0  0  0  0  0  0  0  0  0  0  0  0
    0.7079   -0.0539   -3.5829 H   0  0  0  0  0  0  0  0  0  0  0  0
   -0.5921   -0.9841   -4.3428 H   0  0  0  0  0  0  0  0  0  0  0  0
   -0.9891    0.3474   -3.2350 H   0  0  0  0  0  0  0  0  0  0  0  0
   -0.6283    0.9092    0.7422 C   0  0  0  0  0  0  0  0  0  0  0  0
   -1.5858    1.5429    0.3110 O   0  0  0  0  0  0  0  0  0  0  0  0
    0.2851    1.5384    1.5680 N   0  0  0  0  0  0  0  0  0  0  0  0
    1.0376    0.9753    1.9542 H   0  0  0  0  0  0  0  0  0  0  0  0
    0.1777    2.9386    1.9598 C   0  0  0  0  0  0  0  0  0  0  0  0
   -0.7627    3.1174    2.4917 H   0  0  0  0  0  0  0  0  0  0  0  0
    1.0059    3.2110    2.6210 H   0  0  0  0  0  0  0  0  0  0  0  0
    0.2123    3.5866    1.0777 H   0  0  0  0  0  0  0  0  0  0  0  0
  1  2  1  0  0  0  0
  2  3  1  0  0  0  0
  2  4  1  0  0  0  0
  2  5  1  0  0  0  0
  5  6  2  0  0  0  0
  5  7  1  0  0  0  0
  7  8  1  0  0  0  0
  7  9  1  0  0  0  0
  9 10  1  0  0  0  0
  9 11  1  0  0  0  0
  9 24  1  0  0  0  0
 11 12  1  0  0  0  0
 11 13  1  0  0  0  0
 11 14  1  0  0  0  0
 14 15  1  0  0  0  0
 14 16  1  0  0  0  0
 14 20  1  0  0  0  0
 16 17  1  0  0  0  0
 16 18  1  0  0  0  0
 16 19  1  0  0  0  0
 20 21  1  0  0  0  0
 20 22  1  0  0  0  0
 20 23  1  0  0  0  0
 24 25  2  0  0  0  0
 24 26  1  0  0  0  0
 26 27  1  0  0  0  0
 26 28  1  0  0  0  0
 28 29  1  0  0  0  0
 28 30  1  0  0  0  0
 28 31  1  0  0  0  0
M  END
$$$$

  -OEChem-03222214063D

 31 30  0     1  0  0  0  0  0999 V2000
   -3.4842   -3.8577    1.7974 H   0  0  0  0  0  0  0  0  0  0  0  0
   -3.4699   -2.8943    1.2803 C   0  0  0  0  0  0  0  0  0  0  0  0
   -4.0465   -2.1726    1.8640 H   0  0  0  0  0  0  0  0  0  0  0  0
   -3.9353   -3.0140    0.2991 H   0  0  0  0  0  0  0  0  0  0  0  0
   -2.0419   -2.4077    1.1206 C   0  0  0  0  0  0  0  0  0  0  0  0
   -1.1173   -3.0825    1.5459 O   0  0  0  0  0  0  0  0  0  0  0  0
   -1.7974   -1.1984    0.5028 N   0  0  0  0  0  0  0  0  0  0  0  0
   -2.6015   -0.6339    0.2329 H   0  0  0  0  0  0  0  0  0  0  0  0
   -0.4760   -0.5734    0.3753 C   0  0  1  0  0  0  0  0  0  0  0  0
    0.1814   -1.0117    1.1332 H   0  0  0  0  0  0  0  0  0  0  0  0
    0.2664   -0.7035   -0.9968 C   0  0  0  0  0  0  0  0  0  0  0  0
    0.5024    0.3165   -1.3202 H   0  0  0  0  0  0  0  0  0  0  0  0
    1.2318   -1.1716   -0.7784 H   0  0  0  0  0  0  0  0  0  0  0  0
   -0.3009   -1.4523   -2.2501 C   0  0  0  0  0  0  0  0  0  0  0  0
    0.2336   -2.4069   -2.3075 H   0  0  0  0  0  0  0  0  0  0  0  0
   -1.7921   -1.8118   -2.3033 C   0  0  0  0  0  0  0  0  0  0  0  0
   -2.4088   -0.9390   -2.0678 H   0  0  0  0  0  0  0  0  0  0  0  0
   -2.0656   -2.1598   -3.3041 H   0  0  0  0  0  0  0  0  0  0  0  0
   -2.0196   -2.6250   -1.6107 H   0  0  0  0  0  0  0  0  0  0  0  0
    0.0517   -0.6545   -3.5150 C   0  0  0  0  0  0  0  0  0  0  0  0
    1.1259   -0.4471   -3.5497 H   0  0  0  0  0  0  0  0  0  0  0  0
   -0.2122   -1.2203   -4.4141 H   0  0  0  0  0  0  0  0  0  0  0  0
   -0.4894    0.2972   -3.5328 H   0  0  0  0  0  0  0  0  0  0  0  0
   -0.6188    0.9216    0.7349 C   0  0  0  0  0  0  0  0  0  0  0  0
   -1.5794    1.5630    0.3225 O   0  0  0  0  0  0  0  0  0  0  0  0
    0.3019    1.5363    1.5639 N   0  0  0  0  0  0  0  0  0  0  0  0
    1.0514    0.9636    1.9419 H   0  0  0  0  0  0  0  0  0  0  0  0
    0.1898    2.9252    1.9928 C   0  0  0  0  0  0  0  0  0  0  0  0
   -0.7354    3.0782    2.5581 H   0  0  0  0  0  0  0  0  0  0  0  0
    1.0352    3.1927    2.6339 H   0  0  0  0  0  0  0  0  0  0  0  0
    0.1881    3.5953    1.1266 H   0  0  0  0  0  0  0  0  0  0  0  0
  1  2  1  0  0  0  0
  2  3  1  0  0  0  0
  2  4  1  0  0  0  0
  2  5  1  0  0  0  0
  5  6  2  0  0  0  0
  5  7  1  0  0  0  0
  7  8  1  0  0  0  0
  7  9  1  0  0  0  0
  9 10  1  0  0  0  0
  9 11  1  0  0  0  0
  9 24  1  0  0  0  0
 11 12  1  0  0  0  0
 11 13  1  0  0  0  0
 11 14  1  0  0  0  0
 14 15  1  0  0  0  0
 14 16  1  0  0  0  0
 14 20  1  0  0  0  0
 16 17  1  0  0  0  0
 16 18  1  0  0  0  0
 16 19  1  0  0  0  0
 20 21  1  0  0  0  0
 20 22  1  0  0  0  0
 20 23  1  0  0  0  0
 24 25  2  0  0  0  0
 24 26  1  0  0  0  0
 26 27  1  0  0  0  0
 26 28  1  0  0  0  0
 28 29  1  0  0  0  0
 28 30  1  0  0  0  0
 28 31  1  0  0  0  0
M  END
$$$$

  -OEChem-03222214063D

 31 30  0     1  0  0  0  0  0999 V2000
   -3.4850   -3.8527    1.7210 H   0  0  0  0  0  0  0  0  0  0  0  0
   -3.4620   -2.8947    1.1944 C   0  0  0  0  0  0  0  0  0  0  0  0
   -4.0532   -2.1688    1.7578 H   0  0  0  0  0  0  0  0  0  0  0  0
   -3.9056   -3.0257    0.2046 H   0  0  0  0  0  0  0  0  0  0  0  0
   -2.0324   -2.4054    1.0599 C   0  0  0  0  0  0  0  0  0  0  0  0
   -1.1122   -3.0827    1.4908 O   0  0  0  0  0  0  0  0  0  0  0  0
   -1.7829   -1.1900    0.4576 N   0  0  0  0  0  0  0  0  0  0  0  0
   -2.5852   -0.6255    0.1828 H   0  0  0  0  0  0  0  0  0  0  0  0
   -0.4627   -0.5598    0.3526 C   0  0  1  0  0  0  0  0  0  0  0  0
    0.1876   -1.0048    1.1129 H   0  0  0  0  0  0  0  0  0  0  0  0
    0.2816   -0.6982   -1.0138 C   0  0  0  0  0  0  0  0  0  0  0  0
    0.4977    0.3199   -1.3569 H   0  0  0  0  0  0  0  0  0  0  0  0
    1.2528   -1.1569   -0.8009 H   0  0  0  0  0  0  0  0  0  0  0  0
   -0.3108   -1.4583   -2.2417 C   0  0  0  0  0  0  0  0  0  0  0  0
   -0.0013   -2.5048   -2.1441 H   0  0  0  0  0  0  0  0  0  0  0  0
   -1.8386   -1.4839   -2.4126 C   0  0  0  0  0  0  0  0  0  0  0  0
   -2.2675   -0.5024   -2.1865 H   0  0  0  0  0  0  0  0  0  0  0  0
   -2.1053   -1.7433   -3.4419 H   0  0  0  0  0  0  0  0  0  0  0  0
   -2.2930   -2.2398   -1.7686 H   0  0  0  0  0  0  0  0  0  0  0  0
    0.3289   -0.9044   -3.5230 C   0  0  0  0  0  0  0  0  0  0  0  0
    1.4202   -0.9110   -3.4390 H   0  0  0  0  0  0  0  0  0  0  0  0
    0.0514   -1.5171   -4.3865 H   0  0  0  0  0  0  0  0  0  0  0  0
   -0.0012    0.1233   -3.7061 H   0  0  0  0  0  0  0  0  0  0  0  0
   -0.6021    0.9322    0.7222 C   0  0  0  0  0  0  0  0  0  0  0  0
   -1.5583    1.5798    0.3093 O   0  0  0  0  0  0  0  0  0  0  0  0
    0.3133    1.5344    1.5658 N   0  0  0  0  0  0  0  0  0  0  0  0
    1.0561    0.9543    1.9454 H   0  0  0  0  0  0  0  0  0  0  0  0
    0.1967    2.9157    2.0166 C   0  0  0  0  0  0  0  0  0  0  0  0
   -0.7254    3.0544    2.5908 H   0  0  0  0  0  0  0  0  0  0  0  0
    1.0455    3.1778    2.6555 H   0  0  0  0  0  0  0  0  0  0  0  0
    0.1854    3.5988    1.1607 H   0  0  0  0  0  0  0  0  0  0  0  0
  1  2  1  0  0  0  0
  2  3  1  0  0  0  0
  2  4  1  0  0  0  0
  2  5  1  0  0  0  0
  5  6  2  0  0  0  0
  5  7  1  0  0  0  0
  7  8  1  0  0  0  0
  7  9  1  0  0  0  0
  9 10  1  0  0  0  0
  9 11  1  0  0  0  0
  9 24  1  0  0  0  0
 11 12  1  0  0  0  0
 11 13  1  0  0  0  0
 11 14  1  0  0  0  0
 14 15  1  0  0  0  0
 14 16  1  0  0  0  0
 14 20  1  0  0  0  0
 16 17  1  0  0  0  0
 16 18  1  0  0  0  0
 16 19  1  0  0  0  0
 20 21  1  0  0  0  0
 20 22  1  0  0  0  0
 20 23  1  0  0  0  0
 24 25  2  0  0  0  0
 24 26  1  0  0  0  0
 26 27  1  0  0  0  0
 26 28  1  0  0  0  0
 28 29  1  0  0  0  0
 28 30  1  0  0  0  0
 28 31  1  0  0  0  0
M  END
$$$$

  -OEChem-03222214063D

 31 30  0     1  0  0  0  0  0999 V2000
   -3.4900   -3.8515    1.6313 H   0  0  0  0  0  0  0  0  0  0  0  0
   -3.4529   -2.9081    1.0796 C   0  0  0  0  0  0  0  0  0  0  0  0
   -4.0755   -2.1736    1.5959 H   0  0  0  0  0  0  0  0  0  0  0  0
   -3.8502   -3.0709    0.0750 H   0  0  0  0  0  0  0  0  0  0  0  0
   -2.0236   -2.4073    0.9954 C   0  0  0  0  0  0  0  0  0  0  0  0
   -1.1130   -3.0811    1.4511 O   0  0  0  0  0  0  0  0  0  0  0  0
   -1.7622   -1.1887    0.4055 N   0  0  0  0  0  0  0  0  0  0  0  0
   -2.5584   -0.6285    0.1051 H   0  0  0  0  0  0  0  0  0  0  0  0
   -0.4421   -0.5525    0.3397 C   0  0  1  0  0  0  0  0  0  0  0  0
    0.1935   -1.0001    1.1107 H   0  0  0  0  0  0  0  0  0  0  0  0
    0.3131   -0.7007   -1.0153 C   0  0  0  0  0  0  0  0  0  0  0  0
    0.5400    0.3082   -1.3781 H   0  0  0  0  0  0  0  0  0  0  0  0
    1.2759   -1.1734   -0.7947 H   0  0  0  0  0  0  0  0  0  0  0  0
   -0.3124   -1.4742   -2.2106 C   0  0  0  0  0  0  0  0  0  0  0  0
   -0.2498   -2.5436   -1.9819 H   0  0  0  0  0  0  0  0  0  0  0  0
   -1.7893   -1.1657   -2.5194 C   0  0  0  0  0  0  0  0  0  0  0  0
   -2.0056   -0.1080   -2.3376 H   0  0  0  0  0  0  0  0  0  0  0  0
   -2.0181   -1.3861   -3.5667 H   0  0  0  0  0  0  0  0  0  0  0  0
   -2.4591   -1.7799   -1.9140 H   0  0  0  0  0  0  0  0  0  0  0  0
    0.5358   -1.2112   -3.4624 C   0  0  0  0  0  0  0  0  0  0  0  0
    1.5867   -1.4494   -3.2701 H   0  0  0  0  0  0  0  0  0  0  0  0
    0.1935   -1.8340   -4.2947 H   0  0  0  0  0  0  0  0  0  0  0  0
    0.4656   -0.1608   -3.7628 H   0  0  0  0  0  0  0  0  0  0  0  0
   -0.5840    0.9389    0.7087 C   0  0  0  0  0  0  0  0  0  0  0  0
   -1.5254    1.5916    0.2709 O   0  0  0  0  0  0  0  0  0  0  0  0
    0.3118    1.5356    1.5769 N   0  0  0  0  0  0  0  0  0  0  0  0
    1.0449    0.9529    1.9712 H   0  0  0  0  0  0  0  0  0  0  0  0
    0.1975    2.9203    2.0175 C   0  0  0  0  0  0  0  0  0  0  0  0
   -0.7461    3.0759    2.5509 H   0  0  0  0  0  0  0  0  0  0  0  0
    1.0217    3.1717    2.6919 H   0  0  0  0  0  0  0  0  0  0  0  0
    0.2340    3.5997    1.1595 H   0  0  0  0  0  0  0  0  0  0  0  0
  1  2  1  0  0  0  0
  2  3  1  0  0  0  0
  2  4  1  0  0  0  0
  2  5  1  0  0  0  0
  5  6  2  0  0  0  0
  5  7  1  0  0  0  0
  7  8  1  0  0  0  0
  7  9  1  0  0  0  0
  9 10  1  0  0  0  0
  9 11  1  0  0  0  0
  9 24  1  0  0  0  0
 11 12  1  0  0  0  0
 11 13  1  0  0  0  0
 11 14  1  0  0  0  0
 14 15  1  0  0  0  0
 14 16  1  0  0  0  0
 14 20  1  0  0  0  0
 16 17  1  0  0  0  0
 16 18  1  0  0  0  0
 16 19  1  0  0  0  0
 20 21  1  0  0  0  0
 20 22  1  0  0  0  0
 20 23  1  0  0  0  0
 24 25  2  0  0  0  0
 24 26  1  0  0  0  0
 26 27  1  0  0  0  0
 26 28  1  0  0  0  0
 28 29  1  0  0  0  0
 28 30  1  0  0  0  0
 28 31  1  0  0  0  0
M  END
$$$$

  -OEChem-03222214063D

 31 30  0     1  0  0  0  0  0999 V2000
   -3.4940   -3.8802    1.5160 H   0  0  0  0  0  0  0  0  0  0  0  0
   -3.4454   -2.9300    0.9767 C   0  0  0  0  0  0  0  0  0  0  0  0
   -4.0952   -2.2075    1.4766 H   0  0  0  0  0  0  0  0  0  0  0  0
   -3.8017   -3.0853   -0.0444 H   0  0  0  0  0  0  0  0  0  0  0  0
   -2.0188   -2.4149    0.9525 C   0  0  0  0  0  0  0  0  0  0  0  0
   -1.1215   -3.0796    1.4465 O   0  0  0  0  0  0  0  0  0  0  0  0
   -1.7435   -1.1971    0.3676 N   0  0  0  0  0  0  0  0  0  0  0  0
   -2.5314   -0.6440    0.0350 H   0  0  0  0  0  0  0  0  0  0  0  0
   -0.4238   -0.5551    0.3390 C   0  0  1  0  0  0  0  0  0  0  0  0
    0.1968   -1.0017    1.1226 H   0  0  0  0  0  0  0  0  0  0  0  0
    0.3466   -0.7061   -1.0035 C   0  0  0  0  0  0  0  0  0  0  0  0
    0.5976    0.2925   -1.3783 H   0  0  0  0  0  0  0  0  0  0  0  0
    1.2960   -1.1987   -0.7691 H   0  0  0  0  0  0  0  0  0  0  0  0
   -0.3074   -1.4884   -2.1713 C   0  0  0  0  0  0  0  0  0  0  0  0
   -0.4899   -2.5171   -1.8420 H   0  0  0  0  0  0  0  0  0  0  0  0
   -1.6432   -0.8938   -2.6591 C   0  0  0  0  0  0  0  0  0  0  0  0
   -1.5661    0.1948   -2.7457 H   0  0  0  0  0  0  0  0  0  0  0  0
   -1.9026   -1.2990   -3.6420 H   0  0  0  0  0  0  0  0  0  0  0  0
   -2.4696   -1.1330   -1.9889 H   0  0  0  0  0  0  0  0  0  0  0  0
    0.6772   -1.5316   -3.3472 C   0  0  0  0  0  0  0  0  0  0  0  0
    1.6280   -1.9753   -3.0356 H   0  0  0  0  0  0  0  0  0  0  0  0
    0.2716   -2.1379   -4.1631 H   0  0  0  0  0  0  0  0  0  0  0  0
    0.8703   -0.5228   -3.7263 H   0  0  0  0  0  0  0  0  0  0  0  0
   -0.5729    0.9373    0.6979 C   0  0  0  0  0  0  0  0  0  0  0  0
   -1.4957    1.5919    0.2251 O   0  0  0  0  0  0  0  0  0  0  0  0
    0.2994    1.5352    1.5885 N   0  0  0  0  0  0  0  0  0  0  0  0
    1.0204    0.9528    2.0048 H   0  0  0  0  0  0  0  0  0  0  0  0
    0.1888    2.9276    2.0047 C   0  0  0  0  0  0  0  0  0  0  0  0
   -0.7747    3.1059    2.4937 H   0  0  0  0  0  0  0  0  0  0  0  0
    0.9864    3.1756    2.7114 H   0  0  0  0  0  0  0  0  0  0  0  0
    0.2743    3.5935    1.1396 H   0  0  0  0  0  0  0  0  0  0  0  0
  1  2  1  0  0  0  0
  2  3  1  0  0  0  0
  2  4  1  0  0  0  0
  2  5  1  0  0  0  0
  5  6  2  0  0  0  0
  5  7  1  0  0  0  0
  7  8  1  0  0  0  0
  7  9  1  0  0  0  0
  9 10  1  0  0  0  0
  9 11  1  0  0  0  0
  9 24  1  0  0  0  0
 11 12  1  0  0  0  0
 11 13  1  0  0  0  0
 11 14  1  0  0  0  0
 14 15  1  0  0  0  0
 14 16  1  0  0  0  0
 14 20  1  0  0  0  0
 16 17  1  0  0  0  0
 16 18  1  0  0  0  0
 16 19  1  0  0  0  0
 20 21  1  0  0  0  0
 20 22  1  0  0  0  0
 20 23  1  0  0  0  0
 24 25  2  0  0  0  0
 24 26  1  0  0  0  0
 26 27  1  0  0  0  0
 26 28  1  0  0  0  0
 28 29  1  0  0  0  0
 28 30  1  0  0  0  0
 28 31  1  0  0  0  0
M  END
$$$$

  -OEChem-03222214063D

 31 30  0     1  0  0  0  0  0999 V2000
   -3.4923   -3.8979    1.4325 H   0  0  0  0  0  0  0  0  0  0  0  0
   -3.4361   -2.9436    0.9014 C   0  0  0  0  0  0  0  0  0  0  0  0
   -4.0981   -2.2270    1.3936 H   0  0  0  0  0  0  0  0  0  0  0  0
   -3.7713   -3.0925   -0.1279 H   0  0  0  0  0  0  0  0  0  0  0  0
   -2.0112   -2.4236    0.9107 C   0  0  0  0  0  0  0  0  0  0  0  0
   -1.1242   -3.0830    1.4297 O   0  0  0  0  0  0  0  0  0  0  0  0
   -1.7243   -1.2075    0.3274 N   0  0  0  0  0  0  0  0  0  0  0  0
   -2.5056   -0.6580   -0.0264 H   0  0  0  0  0  0  0  0  0  0  0  0
   -0.4042   -0.5583    0.3341 C   0  0  1  0  0  0  0  0  0  0  0  0
    0.2012   -1.0007    1.1319 H   0  0  0  0  0  0  0  0  0  0  0  0
    0.3866   -0.7121   -0.9956 C   0  0  0  0  0  0  0  0  0  0  0  0
    0.6603    0.2766   -1.3806 H   0  0  0  0  0  0  0  0  0  0  0  0
    1.3238   -1.2200   -0.7455 H   0  0  0  0  0  0  0  0  0  0  0  0
   -0.2948   -1.5066   -2.1347 C   0  0  0  0  0  0  0  0  0  0  0  0
   -0.7144   -2.4372   -1.7390 H   0  0  0  0  0  0  0  0  0  0  0  0
   -1.4068   -0.6842   -2.8064 C   0  0  0  0  0  0  0  0  0  0  0  0
   -0.9982    0.2380   -3.2318 H   0  0  0  0  0  0  0  0  0  0  0  0
   -1.8700   -1.2619   -3.6122 H   0  0  0  0  0  0  0  0  0  0  0  0
   -2.1887   -0.4118   -2.0939 H   0  0  0  0  0  0  0  0  0  0  0  0
    0.7496   -1.8761   -3.1949 C   0  0  0  0  0  0  0  0  0  0  0  0
    1.5374   -2.4963   -2.7559 H   0  0  0  0  0  0  0  0  0  0  0  0
    0.2840   -2.4422   -4.0078 H   0  0  0  0  0  0  0  0  0  0  0  0
    1.2088   -0.9759   -3.6161 H   0  0  0  0  0  0  0  0  0  0  0  0
   -0.5670    0.9358    0.6806 C   0  0  0  0  0  0  0  0  0  0  0  0
   -1.4796    1.5838    0.1799 O   0  0  0  0  0  0  0  0  0  0  0  0
    0.2771    1.5423    1.5927 N   0  0  0  0  0  0  0  0  0  0  0  0
    0.9918    0.9665    2.0289 H   0  0  0  0  0  0  0  0  0  0  0  0
    0.1505    2.9371    1.9967 C   0  0  0  0  0  0  0  0  0  0  0  0
   -0.8261    3.1152    2.4589 H   0  0  0  0  0  0  0  0  0  0  0  0
    0.9283    3.1926    2.7225 H   0  0  0  0  0  0  0  0  0  0  0  0
    0.2567    3.5980    1.1300 H   0  0  0  0  0  0  0  0  0  0  0  0
  1  2  1  0  0  0  0
  2  3  1  0  0  0  0
  2  4  1  0  0  0  0
  2  5  1  0  0  0  0
  5  6  2  0  0  0  0
  5  7  1  0  0  0  0
  7  8  1  0  0  0  0
  7  9  1  0  0  0  0
  9 10  1  0  0  0  0
  9 11  1  0  0  0  0
  9 24  1  0  0  0  0
 11 12  1  0  0  0  0
 11 13  1  0  0  0  0
 11 14  1  0  0  0  0
 14 15  1  0  0  0  0
 14 16  1  0  0  0  0
 14 20  1  0  0  0  0
 16 17  1  0  0  0  0
 16 18  1  0  0  0  0
 16 19  1  0  0  0  0
 20 21  1  0  0  0  0
 20 22  1  0  0  0  0
 20 23  1  0  0  0  0
 24 25  2  0  0  0  0
 24 26  1  0  0  0  0
 26 27  1  0  0  0  0
 26 28  1  0  0  0  0
 28 29  1  0  0  0  0
 28 30  1  0  0  0  0
 28 31  1  0  0  0  0
M  END
$$$$

  -OEChem-03222214063D

 31 30  0     1  0  0  0  0  0999 V2000
   -3.5106   -3.8905    1.4441 H   0  0  0  0  0  0  0  0  0  0  0  0
   -3.4485   -2.9406    0.9056 C   0  0  0  0  0  0  0  0  0  0  0  0
   -4.1101   -2.2178    1.3891 H   0  0  0  0  0  0  0  0  0  0  0  0
   -3.7798   -3.0965   -0.1240 H   0  0  0  0  0  0  0  0  0  0  0  0
   -2.0216   -2.4255    0.9169 C   0  0  0  0  0  0  0  0  0  0  0  0
   -1.1395   -3.0824    1.4472 O   0  0  0  0  0  0  0  0  0  0  0  0
   -1.7283   -1.2143    0.3263 N   0  0  0  0  0  0  0  0  0  0  0  0
   -2.5059   -0.6661   -0.0379 H   0  0  0  0  0  0  0  0  0  0  0  0
   -0.4066   -0.5681    0.3369 C   0  0  1  0  0  0  0  0  0  0  0  0
    0.1940   -1.0065    1.1406 H   0  0  0  0  0  0  0  0  0  0  0  0
    0.3910   -0.7242   -0.9884 C   0  0  0  0  0  0  0  0  0  0  0  0
    0.6848    0.2601   -1.3699 H   0  0  0  0  0  0  0  0  0  0  0  0
    1.3205   -1.2386   -0.7237 H   0  0  0  0  0  0  0  0  0  0  0  0
   -0.2909   -1.5230   -2.1281 C   0  0  0  0  0  0  0  0  0  0  0  0
   -0.9220   -2.3244   -1.7347 H   0  0  0  0  0  0  0  0  0  0  0  0
   -1.1185   -0.5794   -3.0106 C   0  0  0  0  0  0  0  0  0  0  0  0
   -0.4851    0.1900   -3.4637 H   0  0  0  0  0  0  0  0  0  0  0  0
   -1.6105   -1.1398   -3.8116 H   0  0  0  0  0  0  0  0  0  0  0  0
   -1.8912   -0.0835   -2.4149 H   0  0  0  0  0  0  0  0  0  0  0  0
    0.7824   -2.1800   -3.0056 C   0  0  0  0  0  0  0  0  0  0  0  0
    1.3709   -2.8927   -2.4192 H   0  0  0  0  0  0  0  0  0  0  0  0
    0.3177   -2.7237   -3.8342 H   0  0  0  0  0  0  0  0  0  0  0  0
    1.4597   -1.4263   -3.4202 H   0  0  0  0  0  0  0  0  0  0  0  0
   -0.5713    0.9281    0.6716 C   0  0  0  0  0  0  0  0  0  0  0  0
   -1.4784    1.5737    0.1579 O   0  0  0  0  0  0  0  0  0  0  0  0
    0.2669    1.5402    1.5853 N   0  0  0  0  0  0  0  0  0  0  0  0
    0.9776    0.9672    2.0315 H   0  0  0  0  0  0  0  0  0  0  0  0
    0.1433    2.9404    1.9714 C   0  0  0  0  0  0  0  0  0  0  0  0
   -0.8344    3.1275    2.4279 H   0  0  0  0  0  0  0  0  0  0  0  0
    0.9196    3.2030    2.6965 H   0  0  0  0  0  0  0  0  0  0  0  0
    0.2543    3.5899    1.0967 H   0  0  0  0  0  0  0  0  0  0  0  0
  1  2  1  0  0  0  0
  2  3  1  0  0  0  0
  2  4  1  0  0  0  0
  2  5  1  0  0  0  0
  5  6  2  0  0  0  0
  5  7  1  0  0  0  0
  7  8  1  0  0  0  0
  7  9  1  0  0  0  0
  9 10  1  0  0  0  0
  9 11  1  0  0  0  0
  9 24  1  0  0  0  0
 11 12  1  0  0  0  0
 11 13  1  0  0  0  0
 11 14  1  0  0  0  0
 14 15  1  0  0  0  0
 14 16  1  0  0  0  0
 14 20  1  0  0  0  0
 16 17  1  0  0  0  0
 16 18  1  0  0  0  0
 16 19  1  0  0  0  0
 20 21  1  0  0  0  0
 20 22  1  0  0  0  0
 20 23  1  0  0  0  0
 24 25  2  0  0  0  0
 24 26  1  0  0  0  0
 26 27  1  0  0  0  0
 26 28  1  0  0  0  0
 28 29  1  0  0  0  0
 28 30  1  0  0  0  0
 28 31  1  0  0  0  0
M  END
$$$$

  -OEChem-03222214063D

 31 30  0     1  0  0  0  0  0999 V2000
   -3.5175   -3.8808    1.4763 H   0  0  0  0  0  0  0  0  0  0  0  0
   -3.4597   -2.9287    0.9413 C   0  0  0  0  0  0  0  0  0  0  0  0
   -4.1105   -2.2053    1.4387 H   0  0  0  0  0  0  0  0  0  0  0  0
   -3.8086   -3.0781   -0.0834 H   0  0  0  0  0  0  0  0  0  0  0  0
   -2.0306   -2.4199    0.9313 C   0  0  0  0  0  0  0  0  0  0  0  0
   -1.1433   -3.0813    1.4470 O   0  0  0  0  0  0  0  0  0  0  0  0
   -1.7412   -1.2097    0.3365 N   0  0  0  0  0  0  0  0  0  0  0  0
   -2.5218   -0.6577   -0.0153 H   0  0  0  0  0  0  0  0  0  0  0  0
   -0.4183   -0.5669    0.3331 C   0  0  1  0  0  0  0  0  0  0  0  0
    0.1855   -1.0039    1.1355 H   0  0  0  0  0  0  0  0  0  0  0  0
    0.3804   -0.7255   -0.9929 C   0  0  0  0  0  0  0  0  0  0  0  0
    0.6702    0.2626   -1.3675 H   0  0  0  0  0  0  0  0  0  0  0  0
    1.3156   -1.2267   -0.7228 H   0  0  0  0  0  0  0  0  0  0  0  0
   -0.2844   -1.5268   -2.1488 C   0  0  0  0  0  0  0  0  0  0  0  0
   -1.1163   -2.1431   -1.8023 H   0  0  0  0  0  0  0  0  0  0  0  0
   -0.7845   -0.5653   -3.2341 C   0  0  0  0  0  0  0  0  0  0  0  0
    0.0437    0.0109   -3.6591 H   0  0  0  0  0  0  0  0  0  0  0  0
   -1.2708   -1.1212   -4.0418 H   0  0  0  0  0  0  0  0  0  0  0  0
   -1.5133    0.1336   -2.8111 H   0  0  0  0  0  0  0  0  0  0  0  0
    0.7411   -2.4774   -2.7805 C   0  0  0  0  0  0  0  0  0  0  0  0
    1.0840   -3.2100   -2.0429 H   0  0  0  0  0  0  0  0  0  0  0  0
    0.2927   -3.0215   -3.6177 H   0  0  0  0  0  0  0  0  0  0  0  0
    1.6088   -1.9223   -3.1515 H   0  0  0  0  0  0  0  0  0  0  0  0
   -0.5792    0.9297    0.6686 C   0  0  0  0  0  0  0  0  0  0  0  0
   -1.4902    1.5762    0.1630 O   0  0  0  0  0  0  0  0  0  0  0  0
    0.2685    1.5413    1.5739 N   0  0  0  0  0  0  0  0  0  0  0  0
    0.9755    0.9645    2.0207 H   0  0  0  0  0  0  0  0  0  0  0  0
    0.1385    2.9364    1.9761 C   0  0  0  0  0  0  0  0  0  0  0  0
   -0.8359    3.1113    2.4444 H   0  0  0  0  0  0  0  0  0  0  0  0
    0.9200    3.1968    2.6965 H   0  0  0  0  0  0  0  0  0  0  0  0
    0.2360    3.5958    1.1072 H   0  0  0  0  0  0  0  0  0  0  0  0
  1  2  1  0  0  0  0
  2  3  1  0  0  0  0
  2  4  1  0  0  0  0
  2  5  1  0  0  0  0
  5  6  2  0  0  0  0
  5  7  1  0  0  0  0
  7  8  1  0  0  0  0
  7  9  1  0  0  0  0
  9 10  1  0  0  0  0
  9 11  1  0  0  0  0
  9 24  1  0  0  0  0
 11 12  1  0  0  0  0
 11 13  1  0  0  0  0
 11 14  1  0  0  0  0
 14 15  1  0  0  0  0
 14 16  1  0  0  0  0
 14 20  1  0  0  0  0
 16 17  1  0  0  0  0
 16 18  1  0  0  0  0
 16 19  1  0  0  0  0
 20 21  1  0  0  0  0
 20 22  1  0  0  0  0
 20 23  1  0  0  0  0
 24 25  2  0  0  0  0
 24 26  1  0  0  0  0
 26 27  1  0  0  0  0
 26 28  1  0  0  0  0
 28 29  1  0  0  0  0
 28 30  1  0  0  0  0
 28 31  1  0  0  0  0
M  END
$$$$

  -OEChem-03222214063D

 31 30  0     1  0  0  0  0  0999 V2000
   -3.5073   -3.8885    1.4814 H   0  0  0  0  0  0  0  0  0  0  0  0
   -3.4547   -2.9406    0.9385 C   0  0  0  0  0  0  0  0  0  0  0  0
   -4.1131   -2.2183    1.4272 H   0  0  0  0  0  0  0  0  0  0  0  0
   -3.7980   -3.1017   -0.0863 H   0  0  0  0  0  0  0  0  0  0  0  0
   -2.0297   -2.4205    0.9303 C   0  0  0  0  0  0  0  0  0  0  0  0
   -1.1366   -3.0799    1.4389 O   0  0  0  0  0  0  0  0  0  0  0  0
   -1.7501   -1.2049    0.3415 N   0  0  0  0  0  0  0  0  0  0  0  0
   -2.5359   -0.6531    0.0010 H   0  0  0  0  0  0  0  0  0  0  0  0
   -0.4296   -0.5582    0.3319 C   0  0  1  0  0  0  0  0  0  0  0  0
    0.1767   -0.9978    1.1306 H   0  0  0  0  0  0  0  0  0  0  0  0
    0.3714   -0.7152   -0.9936 C   0  0  0  0  0  0  0  0  0  0  0  0
    0.6312    0.2826   -1.3639 H   0  0  0  0  0  0  0  0  0  0  0  0
    1.3242   -1.1872   -0.7323 H   0  0  0  0  0  0  0  0  0  0  0  0
   -0.2787   -1.5201   -2.1588 C   0  0  0  0  0  0  0  0  0  0  0  0
   -1.2725   -1.8885   -1.9011 H   0  0  0  0  0  0  0  0  0  0  0  0
   -0.4331   -0.6284   -3.3969 C   0  0  0  0  0  0  0  0  0  0  0  0
    0.5411   -0.2617   -3.7362 H   0  0  0  0  0  0  0  0  0  0  0  0
   -0.8969   -1.1877   -4.2153 H   0  0  0  0  0  0  0  0  0  0  0  0
   -1.0691    0.2323   -3.1657 H   0  0  0  0  0  0  0  0  0  0  0  0
    0.5822   -2.7397   -2.5084 C   0  0  0  0  0  0  0  0  0  0  0  0
    0.6765   -3.3975   -1.6382 H   0  0  0  0  0  0  0  0  0  0  0  0
    0.1228   -3.3108   -3.3213 H   0  0  0  0  0  0  0  0  0  0  0  0
    1.5838   -2.4308   -2.8242 H   0  0  0  0  0  0  0  0  0  0  0  0
   -0.5886    0.9362    0.6788 C   0  0  0  0  0  0  0  0  0  0  0  0
   -1.5037    1.5852    0.1841 O   0  0  0  0  0  0  0  0  0  0  0  0
    0.2663    1.5428    1.5806 N   0  0  0  0  0  0  0  0  0  0  0  0
    0.9850    0.9669    2.0099 H   0  0  0  0  0  0  0  0  0  0  0  0
    0.1522    2.9412    1.9759 C   0  0  0  0  0  0  0  0  0  0  0  0
   -0.8195    3.1293    2.4445 H   0  0  0  0  0  0  0  0  0  0  0  0
    0.9377    3.1963    2.6938 H   0  0  0  0  0  0  0  0  0  0  0  0
    0.2558    3.5951    1.1036 H   0  0  0  0  0  0  0  0  0  0  0  0
  1  2  1  0  0  0  0
  2  3  1  0  0  0  0
  2  4  1  0  0  0  0
  2  5  1  0  0  0  0
  5  6  2  0  0  0  0
  5  7  1  0  0  0  0
  7  8  1  0  0  0  0
  7  9  1  0  0  0  0
  9 10  1  0  0  0  0
  9 11  1  0  0  0  0
  9 24  1  0  0  0  0
 11 12  1  0  0  0  0
 11 13  1  0  0  0  0
 11 14  1  0  0  0  0
 14 15  1  0  0  0  0
 14 16  1  0  0  0  0
 14 20  1  0  0  0  0
 16 17  1  0  0  0  0
 16 18  1  0  0  0  0
 16 19  1  0  0  0  0
 20 21  1  0  0  0  0
 20 22  1  0  0  0  0
 20 23  1  0  0  0  0
 24 25  2  0  0  0  0
 24 26  1  0  0  0  0
 26 27  1  0  0  0  0
 26 28  1  0  0  0  0
 28 29  1  0  0  0  0
 28 30  1  0  0  0  0
 28 31  1  0  0  0  0
M  END
$$$$

  -OEChem-03222214063D

 31 30  0     1  0  0  0  0  0999 V2000
   -3.4861   -3.8922    1.4541 H   0  0  0  0  0  0  0  0  0  0  0  0
   -3.4362   -2.9384    0.9216 C   0  0  0  0  0  0  0  0  0  0  0  0
   -4.0937   -2.2223    1.4202 H   0  0  0  0  0  0  0  0  0  0  0  0
   -3.7820   -3.0880   -0.1040 H   0  0  0  0  0  0  0  0  0  0  0  0
   -2.0120   -2.4164    0.9143 C   0  0  0  0  0  0  0  0  0  0  0  0
   -1.1180   -3.0746    1.4229 O   0  0  0  0  0  0  0  0  0  0  0  0
   -1.7347   -1.1988    0.3289 N   0  0  0  0  0  0  0  0  0  0  0  0
   -2.5219   -0.6479   -0.0096 H   0  0  0  0  0  0  0  0  0  0  0  0
   -0.4159   -0.5475    0.3237 C   0  0  1  0  0  0  0  0  0  0  0  0
    0.1896   -0.9874    1.1228 H   0  0  0  0  0  0  0  0  0  0  0  0
    0.3863   -0.7083   -1.0007 C   0  0  0  0  0  0  0  0  0  0  0  0
    0.6139    0.2948   -1.3781 H   0  0  0  0  0  0  0  0  0  0  0  0
    1.3533   -1.1604   -0.7565 H   0  0  0  0  0  0  0  0  0  0  0  0
   -0.2705   -1.5188   -2.1541 C   0  0  0  0  0  0  0  0  0  0  0  0
   -1.3490   -1.6083   -2.0108 H   0  0  0  0  0  0  0  0  0  0  0  0
   -0.0939   -0.7864   -3.4893 C   0  0  0  0  0  0  0  0  0  0  0  0
    0.9681   -0.6481   -3.7154 H   0  0  0  0  0  0  0  0  0  0  0  0
   -0.5502   -1.3603   -4.3019 H   0  0  0  0  0  0  0  0  0  0  0  0
   -0.5747    0.1965   -3.4523 H   0  0  0  0  0  0  0  0  0  0  0  0
    0.3182   -2.9319   -2.2243 C   0  0  0  0  0  0  0  0  0  0  0  0
    0.1755   -3.4496   -1.2703 H   0  0  0  0  0  0  0  0  0  0  0  0
   -0.1776   -3.5127   -3.0081 H   0  0  0  0  0  0  0  0  0  0  0  0
    1.3896   -2.8960   -2.4448 H   0  0  0  0  0  0  0  0  0  0  0  0
   -0.5781    0.9460    0.6730 C   0  0  0  0  0  0  0  0  0  0  0  0
   -1.4963    1.5928    0.1813 O   0  0  0  0  0  0  0  0  0  0  0  0
    0.2740    1.5520    1.5777 N   0  0  0  0  0  0  0  0  0  0  0  0
    0.9893    0.9746    2.0106 H   0  0  0  0  0  0  0  0  0  0  0  0
    0.1433    2.9434    1.9915 C   0  0  0  0  0  0  0  0  0  0  0  0
   -0.8295    3.1123    2.4653 H   0  0  0  0  0  0  0  0  0  0  0  0
    0.9274    3.1995    2.7104 H   0  0  0  0  0  0  0  0  0  0  0  0
    0.2357    3.6099    1.1274 H   0  0  0  0  0  0  0  0  0  0  0  0
  1  2  1  0  0  0  0
  2  3  1  0  0  0  0
  2  4  1  0  0  0  0
  2  5  1  0  0  0  0
  5  6  2  0  0  0  0
  5  7  1  0  0  0  0
  7  8  1  0  0  0  0
  7  9  1  0  0  0  0
  9 10  1  0  0  0  0
  9 11  1  0  0  0  0
  9 24  1  0  0  0  0
 11 12  1  0  0  0  0
 11 13  1  0  0  0  0
 11 14  1  0  0  0  0
 14 15  1  0  0  0  0
 14 16  1  0  0  0  0
 14 20  1  0  0  0  0
 16 17  1  0  0  0  0
 16 18  1  0  0  0  0
 16 19  1  0  0  0  0
 20 21  1  0  0  0  0
 20 22  1  0  0  0  0
 20 23  1  0  0  0  0
 24 25  2  0  0  0  0
 24 26  1  0  0  0  0
 26 27  1  0  0  0  0
 26 28  1  0  0  0  0
 28 29  1  0  0  0  0
 28 30  1  0  0  0  0
 28 31  1  0  0  0  0
M  END
$$$$

  -OEChem-03222214063D

 31 30  0     1  0  0  0  0  0999 V2000
   -3.5042   -3.8894    1.4469 H   0  0  0  0  0  0  0  0  0  0  0  0
   -3.4385   -2.9423    0.9039 C   0  0  0  0  0  0  0  0  0  0  0  0
   -4.1201   -2.2235    1.3652 H   0  0  0  0  0  0  0  0  0  0  0  0
   -3.7413   -3.1084   -0.1327 H   0  0  0  0  0  0  0  0  0  0  0  0
   -2.0182   -2.4118    0.9477 C   0  0  0  0  0  0  0  0  0  0  0  0
   -1.1472   -3.0488    1.5194 O   0  0  0  0  0  0  0  0  0  0  0  0
   -1.7224   -1.2056    0.3482 N   0  0  0  0  0  0  0  0  0  0  0  0
   -2.4974   -0.6684   -0.0370 H   0  0  0  0  0  0  0  0  0  0  0  0
   -0.3996   -0.5608    0.3470 C   0  0  1  0  0  0  0  0  0  0  0  0
    0.2063   -0.9961    1.1482 H   0  0  0  0  0  0  0  0  0  0  0  0
    0.3950   -0.7201   -0.9830 C   0  0  0  0  0  0  0  0  0  0  0  0
    0.6221    0.2822   -1.3633 H   0  0  0  0  0  0  0  0  0  0  0  0
    1.3600   -1.1835   -0.7532 H   0  0  0  0  0  0  0  0  0  0  0  0
   -0.2809   -1.5194   -2.1268 C   0  0  0  0  0  0  0  0  0  0  0  0
   -1.3648   -1.3755   -2.1017 H   0  0  0  0  0  0  0  0  0  0  0  0
    0.1962   -0.9945   -3.4865 C   0  0  0  0  0  0  0  0  0  0  0  0
    1.2839   -1.0821   -3.5739 H   0  0  0  0  0  0  0  0  0  0  0  0
   -0.2651   -1.5650   -4.2986 H   0  0  0  0  0  0  0  0  0  0  0  0
   -0.0807    0.0574   -3.6092 H   0  0  0  0  0  0  0  0  0  0  0  0
    0.0308   -3.0170   -2.0142 C   0  0  0  0  0  0  0  0  0  0  0  0
   -0.2919   -3.4095   -1.0470 H   0  0  0  0  0  0  0  0  0  0  0  0
   -0.4904   -3.5729   -2.7996 H   0  0  0  0  0  0  0  0  0  0  0  0
    1.1056   -3.1968   -2.1168 H   0  0  0  0  0  0  0  0  0  0  0  0
   -0.5650    0.9380    0.6736 C   0  0  0  0  0  0  0  0  0  0  0  0
   -1.4718    1.5814    0.1565 O   0  0  0  0  0  0  0  0  0  0  0  0
    0.2776    1.5558    1.5794 N   0  0  0  0  0  0  0  0  0  0  0  0
    0.9813    0.9818    2.0352 H   0  0  0  0  0  0  0  0  0  0  0  0
    0.1500    2.9555    1.9658 C   0  0  0  0  0  0  0  0  0  0  0  0
   -0.8261    3.1385    2.4272 H   0  0  0  0  0  0  0  0  0  0  0  0
    0.9288    3.2213    2.6871 H   0  0  0  0  0  0  0  0  0  0  0  0
    0.2537    3.6051    1.0903 H   0  0  0  0  0  0  0  0  0  0  0  0
  1  2  1  0  0  0  0
  2  3  1  0  0  0  0
  2  4  1  0  0  0  0
  2  5  1  0  0  0  0
  5  6  2  0  0  0  0
  5  7  1  0  0  0  0
  7  8  1  0  0  0  0
  7  9  1  0  0  0  0
  9 10  1  0  0  0  0
  9 11  1  0  0  0  0
  9 24  1  0  0  0  0
 11 12  1  0  0  0  0
 11 13  1  0  0  0  0
 11 14  1  0  0  0  0
 14 15  1  0  0  0  0
 14 16  1  0  0  0  0
 14 20  1  0  0  0  0
 16 17  1  0  0  0  0
 16 18  1  0  0  0  0
 16 19  1  0  0  0  0
 20 21  1  0  0  0  0
 20 22  1  0  0  0  0
 20 23  1  0  0  0  0
 24 25  2  0  0  0  0
 24 26  1  0  0  0  0
 26 27  1  0  0  0  0
 26 28  1  0  0  0  0
 28 29  1  0  0  0  0
 28 30  1  0  0  0  0
 28 31  1  0  0  0  0
M  END
$$$$

  -OEChem-03222214063D

 31 30  0     1  0  0  0  0  0999 V2000
   -3.5611   -3.8492    1.5377 H   0  0  0  0  0  0  0  0  0  0  0  0
   -3.4806   -2.9138    0.9769 C   0  0  0  0  0  0  0  0  0  0  0  0
   -4.1557   -2.1780    1.4204 H   0  0  0  0  0  0  0  0  0  0  0  0
   -3.7798   -3.0965   -0.0581 H   0  0  0  0  0  0  0  0  0  0  0  0
   -2.0541   -2.3999    1.0193 C   0  0  0  0  0  0  0  0  0  0  0  0
   -1.1964   -3.0301    1.6181 O   0  0  0  0  0  0  0  0  0  0  0  0
   -1.7366   -1.2133    0.3915 N   0  0  0  0  0  0  0  0  0  0  0  0
   -2.5014   -0.6758   -0.0133 H   0  0  0  0  0  0  0  0  0  0  0  0
   -0.4037   -0.5894    0.3745 C   0  0  1  0  0  0  0  0  0  0  0  0
    0.2056   -1.0182    1.1768 H   0  0  0  0  0  0  0  0  0  0  0  0
    0.3816   -0.7440   -0.9635 C   0  0  0  0  0  0  0  0  0  0  0  0
    0.6295    0.2561   -1.3365 H   0  0  0  0  0  0  0  0  0  0  0  0
    1.3356   -1.2306   -0.7360 H   0  0  0  0  0  0  0  0  0  0  0  0
   -0.2902   -1.5188   -2.1235 C   0  0  0  0  0  0  0  0  0  0  0  0
   -1.3283   -1.1905   -2.2398 H   0  0  0  0  0  0  0  0  0  0  0  0
    0.4713   -1.2235   -3.4236 C   0  0  0  0  0  0  0  0  0  0  0  0
    1.5208   -1.5228   -3.3359 H   0  0  0  0  0  0  0  0  0  0  0  0
    0.0233   -1.7665   -4.2618 H   0  0  0  0  0  0  0  0  0  0  0  0
    0.4331   -0.1541   -3.6544 H   0  0  0  0  0  0  0  0  0  0  0  0
   -0.2385   -3.0423   -1.9196 C   0  0  0  0  0  0  0  0  0  0  0  0
   -0.7934   -3.3514   -1.0362 H   0  0  0  0  0  0  0  0  0  0  0  0
   -0.6766   -3.5544   -2.7819 H   0  0  0  0  0  0  0  0  0  0  0  0
    0.7962   -3.3807   -1.8059 H   0  0  0  0  0  0  0  0  0  0  0  0
   -0.5658    0.9173    0.6692 C   0  0  0  0  0  0  0  0  0  0  0  0
   -1.4694    1.5541    0.1378 O   0  0  0  0  0  0  0  0  0  0  0  0
    0.2781    1.5504    1.5633 N   0  0  0  0  0  0  0  0  0  0  0  0
    0.9781    0.9823    2.0321 H   0  0  0  0  0  0  0  0  0  0  0  0
    0.1539    2.9575    1.9234 C   0  0  0  0  0  0  0  0  0  0  0  0
   -0.8213    3.1515    2.3820 H   0  0  0  0  0  0  0  0  0  0  0  0
    0.9341    3.2350    2.6387 H   0  0  0  0  0  0  0  0  0  0  0  0
    0.2582    3.5907    1.0362 H   0  0  0  0  0  0  0  0  0  0  0  0
  1  2  1  0  0  0  0
  2  3  1  0  0  0  0
  2  4  1  0  0  0  0
  2  5  1  0  0  0  0
  5  6  2  0  0  0  0
  5  7  1  0  0  0  0
  7  8  1  0  0  0  0
  7  9  1  0  0  0  0
  9 10  1  0  0  0  0
  9 11  1  0  0  0  0
  9 24  1  0  0  0  0
 11 12  1  0  0  0  0
 11 13  1  0  0  0  0
 11 14  1  0  0  0  0
 14 15  1  0  0  0  0
 14 16  1  0  0  0  0
 14 20  1  0  0  0  0
 16 17  1  0  0  0  0
 16 18  1  0  0  0  0
 16 19  1  0  0  0  0
 20 21  1  0  0  0  0
 20 22  1  0  0  0  0
 20 23  1  0  0  0  0
 24 25  2  0  0  0  0
 24 26  1  0  0  0  0
 26 27  1  0  0  0  0
 26 28  1  0  0  0  0
 28 29  1  0  0  0  0
 28 30  1  0  0  0  0
 28 31  1  0  0  0  0
M  END
$$$$

  -OEChem-03222214063D

 31 30  0     1  0  0  0  0  0999 V2000
   -3.4960   -3.8698    1.6428 H   0  0  0  0  0  0  0  0  0  0  0  0
   -3.4558   -2.9112    1.1182 C   0  0  0  0  0  0  0  0  0  0  0  0
   -4.0689   -2.1868    1.6597 H   0  0  0  0  0  0  0  0  0  0  0  0
   -3.8625   -3.0428    0.1128 H   0  0  0  0  0  0  0  0  0  0  0  0
   -2.0232   -2.4187    1.0377 C   0  0  0  0  0  0  0  0  0  0  0  0
   -1.1225   -3.0788    1.5318 O   0  0  0  0  0  0  0  0  0  0  0  0
   -1.7468   -1.2205    0.4118 N   0  0  0  0  0  0  0  0  0  0  0  0
   -2.5351   -0.6634    0.0860 H   0  0  0  0  0  0  0  0  0  0  0  0
   -0.4212   -0.5919    0.3586 C   0  0  1  0  0  0  0  0  0  0  0  0
    0.2128   -1.0152    1.1446 H   0  0  0  0  0  0  0  0  0  0  0  0
    0.3384   -0.7305   -0.9922 C   0  0  0  0  0  0  0  0  0  0  0  0
    0.8414    0.2181   -1.2106 H   0  0  0  0  0  0  0  0  0  0  0  0
    1.1301   -1.4683   -0.8241 H   0  0  0  0  0  0  0  0  0  0  0  0
   -0.4250   -1.1741   -2.2688 C   0  0  0  0  0  0  0  0  0  0  0  0
   -1.2081   -0.4429   -2.4971 H   0  0  0  0  0  0  0  0  0  0  0  0
    0.5869   -1.2104   -3.4249 C   0  0  0  0  0  0  0  0  0  0  0  0
    1.3618   -1.9616   -3.2408 H   0  0  0  0  0  0  0  0  0  0  0  0
    0.0851   -1.4516   -4.3674 H   0  0  0  0  0  0  0  0  0  0  0  0
    1.0692   -0.2348   -3.5419 H   0  0  0  0  0  0  0  0  0  0  0  0
   -1.0483   -2.5810   -2.1884 C   0  0  0  0  0  0  0  0  0  0  0  0
   -2.0365   -2.5464   -1.7271 H   0  0  0  0  0  0  0  0  0  0  0  0
   -1.1833   -3.0065   -3.1878 H   0  0  0  0  0  0  0  0  0  0  0  0
   -0.4073   -3.2557   -1.6119 H   0  0  0  0  0  0  0  0  0  0  0  0
   -0.5862    0.9089    0.6775 C   0  0  0  0  0  0  0  0  0  0  0  0
   -1.5125    1.5441    0.1848 O   0  0  0  0  0  0  0  0  0  0  0  0
    0.2808    1.5378    1.5520 N   0  0  0  0  0  0  0  0  0  0  0  0
    1.0071    0.9727    1.9828 H   0  0  0  0  0  0  0  0  0  0  0  0
    0.1628    2.9415    1.9267 C   0  0  0  0  0  0  0  0  0  0  0  0
   -0.8142    3.1367    2.3812 H   0  0  0  0  0  0  0  0  0  0  0  0
    0.9393    3.2058    2.6509 H   0  0  0  0  0  0  0  0  0  0  0  0
    0.2774    3.5831    1.0468 H   0  0  0  0  0  0  0  0  0  0  0  0
  1  2  1  0  0  0  0
  2  3  1  0  0  0  0
  2  4  1  0  0  0  0
  2  5  1  0  0  0  0
  5  6  2  0  0  0  0
  5  7  1  0  0  0  0
  7  8  1  0  0  0  0
  7  9  1  0  0  0  0
  9 10  1  0  0  0  0
  9 11  1  0  0  0  0
  9 24  1  0  0  0  0
 11 12  1  0  0  0  0
 11 13  1  0  0  0  0
 11 14  1  0  0  0  0
 14 15  1  0  0  0  0
 14 16  1  0  0  0  0
 14 20  1  0  0  0  0
 16 17  1  0  0  0  0
 16 18  1  0  0  0  0
 16 19  1  0  0  0  0
 20 21  1  0  0  0  0
 20 22  1  0  0  0  0
 20 23  1  0  0  0  0
 24 25  2  0  0  0  0
 24 26  1  0  0  0  0
 26 27  1  0  0  0  0
 26 28  1  0  0  0  0
 28 29  1  0  0  0  0
 28 30  1  0  0  0  0
 28 31  1  0  0  0  0
M  END
$$$$

  -OEChem-03222214063D

 31 30  0     1  0  0  0  0  0999 V2000
   -3.5085   -3.8258    1.7692 H   0  0  0  0  0  0  0  0  0  0  0  0
   -3.4667   -2.8963    1.1946 C   0  0  0  0  0  0  0  0  0  0  0  0
   -4.0820   -2.1450    1.6955 H   0  0  0  0  0  0  0  0  0  0  0  0
   -3.8695   -3.0808    0.1958 H   0  0  0  0  0  0  0  0  0  0  0  0
   -2.0340   -2.4079    1.0925 C   0  0  0  0  0  0  0  0  0  0  0  0
   -1.1278   -3.0704    1.5731 O   0  0  0  0  0  0  0  0  0  0  0  0
   -1.7636   -1.2116    0.4611 N   0  0  0  0  0  0  0  0  0  0  0  0
   -2.5554   -0.6522    0.1475 H   0  0  0  0  0  0  0  0  0  0  0  0
   -0.4369   -0.5924    0.3696 C   0  0  1  0  0  0  0  0  0  0  0  0
    0.2109   -1.0171    1.1437 H   0  0  0  0  0  0  0  0  0  0  0  0
    0.3068   -0.7285   -0.9939 C   0  0  0  0  0  0  0  0  0  0  0  0
    0.8304    0.2101   -1.2074 H   0  0  0  0  0  0  0  0  0  0  0  0
    1.0837   -1.4793   -0.8135 H   0  0  0  0  0  0  0  0  0  0  0  0
   -0.4233   -1.1646   -2.2990 C   0  0  0  0  0  0  0  0  0  0  0  0
   -1.0056   -0.3176   -2.6775 H   0  0  0  0  0  0  0  0  0  0  0  0
    0.6576   -1.5454   -3.3246 C   0  0  0  0  0  0  0  0  0  0  0  0
    1.2133   -2.4300   -2.9969 H   0  0  0  0  0  0  0  0  0  0  0  0
    0.2061   -1.7608   -4.2982 H   0  0  0  0  0  0  0  0  0  0  0  0
    1.3644   -0.7204   -3.4571 H   0  0  0  0  0  0  0  0  0  0  0  0
   -1.3500   -2.3895   -2.1945 C   0  0  0  0  0  0  0  0  0  0  0  0
   -2.3293   -2.1050   -1.8038 H   0  0  0  0  0  0  0  0  0  0  0  0
   -1.5230   -2.8329   -3.1802 H   0  0  0  0  0  0  0  0  0  0  0  0
   -0.9073   -3.1540   -1.5480 H   0  0  0  0  0  0  0  0  0  0  0  0
   -0.5895    0.9084    0.6952 C   0  0  0  0  0  0  0  0  0  0  0  0
   -1.5316    1.5451    0.2353 O   0  0  0  0  0  0  0  0  0  0  0  0
    0.3030    1.5349    1.5457 N   0  0  0  0  0  0  0  0  0  0  0  0
    1.0354    0.9661    1.9609 H   0  0  0  0  0  0  0  0  0  0  0  0
    0.1805    2.9308    1.9475 C   0  0  0  0  0  0  0  0  0  0  0  0
   -0.7677    3.0978    2.4692 H   0  0  0  0  0  0  0  0  0  0  0  0
    0.9986    3.2032    2.6212 H   0  0  0  0  0  0  0  0  0  0  0  0
    0.2215    3.5861    1.0711 H   0  0  0  0  0  0  0  0  0  0  0  0
  1  2  1  0  0  0  0
  2  3  1  0  0  0  0
  2  4  1  0  0  0  0
  2  5  1  0  0  0  0
  5  6  2  0  0  0  0
  5  7  1  0  0  0  0
  7  8  1  0  0  0  0
  7  9  1  0  0  0  0
  9 10  1  0  0  0  0
  9 11  1  0  0  0  0
  9 24  1  0  0  0  0
 11 12  1  0  0  0  0
 11 13  1  0  0  0  0
 11 14  1  0  0  0  0
 14 15  1  0  0  0  0
 14 16  1  0  0  0  0
 14 20  1  0  0  0  0
 16 17  1  0  0  0  0
 16 18  1  0  0  0  0
 16 19  1  0  0  0  0
 20 21  1  0  0  0  0
 20 22  1  0  0  0  0
 20 23  1  0  0  0  0
 24 25  2  0  0  0  0
 24 26  1  0  0  0  0
 26 27  1  0  0  0  0
 26 28  1  0  0  0  0
 28 29  1  0  0  0  0
 28 30  1  0  0  0  0
 28 31  1  0  0  0  0
M  END
$$$$

  -OEChem-03222214063D

 31 30  0     1  0  0  0  0  0999 V2000
   -3.5001   -3.8280    1.8303 H   0  0  0  0  0  0  0  0  0  0  0  0
   -3.4685   -2.8930    1.2639 C   0  0  0  0  0  0  0  0  0  0  0  0
   -4.0688   -2.1443    1.7867 H   0  0  0  0  0  0  0  0  0  0  0  0
   -3.8949   -3.0657    0.2728 H   0  0  0  0  0  0  0  0  0  0  0  0
   -2.0368   -2.4096    1.1328 C   0  0  0  0  0  0  0  0  0  0  0  0
   -1.1227   -3.0784    1.5890 O   0  0  0  0  0  0  0  0  0  0  0  0
   -1.7763   -1.2123    0.4999 N   0  0  0  0  0  0  0  0  0  0  0  0
   -2.5727   -0.6499    0.2040 H   0  0  0  0  0  0  0  0  0  0  0  0
   -0.4508   -0.5958    0.3861 C   0  0  1  0  0  0  0  0  0  0  0  0
    0.2043   -1.0213    1.1534 H   0  0  0  0  0  0  0  0  0  0  0  0
    0.2870   -0.7260   -0.9835 C   0  0  0  0  0  0  0  0  0  0  0  0
    0.8224    0.2078   -1.1878 H   0  0  0  0  0  0  0  0  0  0  0  0
    1.0588   -1.4785   -0.7898 H   0  0  0  0  0  0  0  0  0  0  0  0
   -0.4095   -1.1560   -2.3160 C   0  0  0  0  0  0  0  0  0  0  0  0
   -0.7408   -0.2455   -2.8270 H   0  0  0  0  0  0  0  0  0  0  0  0
    0.6358   -1.8732   -3.1871 C   0  0  0  0  0  0  0  0  0  0  0  0
    0.9298   -2.8274   -2.7374 H   0  0  0  0  0  0  0  0  0  0  0  0
    0.2350   -2.0702   -4.1864 H   0  0  0  0  0  0  0  0  0  0  0  0
    1.5296   -1.2512   -3.2987 H   0  0  0  0  0  0  0  0  0  0  0  0
   -1.6159   -2.1051   -2.2417 C   0  0  0  0  0  0  0  0  0  0  0  0
   -2.4990   -1.5820   -1.8664 H   0  0  0  0  0  0  0  0  0  0  0  0
   -1.8701   -2.4809   -3.2377 H   0  0  0  0  0  0  0  0  0  0  0  0
   -1.3942   -2.9635   -1.6003 H   0  0  0  0  0  0  0  0  0  0  0  0
   -0.5979    0.9039    0.7186 C   0  0  0  0  0  0  0  0  0  0  0  0
   -1.5468    1.5422    0.2754 O   0  0  0  0  0  0  0  0  0  0  0  0
    0.3090    1.5287    1.5551 N   0  0  0  0  0  0  0  0  0  0  0  0
    1.0484    0.9594    1.9572 H   0  0  0  0  0  0  0  0  0  0  0  0
    0.1940    2.9246    1.9589 C   0  0  0  0  0  0  0  0  0  0  0  0
   -0.7432    3.0907    2.5005 H   0  0  0  0  0  0  0  0  0  0  0  0
    1.0259    3.1986    2.6146 H   0  0  0  0  0  0  0  0  0  0  0  0
    0.2156    3.5798    1.0817 H   0  0  0  0  0  0  0  0  0  0  0  0
  1  2  1  0  0  0  0
  2  3  1  0  0  0  0
  2  4  1  0  0  0  0
  2  5  1  0  0  0  0
  5  6  2  0  0  0  0
  5  7  1  0  0  0  0
  7  8  1  0  0  0  0
  7  9  1  0  0  0  0
  9 10  1  0  0  0  0
  9 11  1  0  0  0  0
  9 24  1  0  0  0  0
 11 12  1  0  0  0  0
 11 13  1  0  0  0  0
 11 14  1  0  0  0  0
 14 15  1  0  0  0  0
 14 16  1  0  0  0  0
 14 20  1  0  0  0  0
 16 17  1  0  0  0  0
 16 18  1  0  0  0  0
 16 19  1  0  0  0  0
 20 21  1  0  0  0  0
 20 22  1  0  0  0  0
 20 23  1  0  0  0  0
 24 25  2  0  0  0  0
 24 26  1  0  0  0  0
 26 27  1  0  0  0  0
 26 28  1  0  0  0  0
 28 29  1  0  0  0  0
 28 30  1  0  0  0  0
 28 31  1  0  0  0  0
M  END
$$$$

  -OEChem-03222214063D

 31 30  0     1  0  0  0  0  0999 V2000
   -3.4896   -3.8525    1.8309 H   0  0  0  0  0  0  0  0  0  0  0  0
   -3.4614   -2.9103    1.2765 C   0  0  0  0  0  0  0  0  0  0  0  0
   -4.0659   -2.1706    1.8070 H   0  0  0  0  0  0  0  0  0  0  0  0
   -3.8854   -3.0729    0.2826 H   0  0  0  0  0  0  0  0  0  0  0  0
   -2.0319   -2.4182    1.1539 C   0  0  0  0  0  0  0  0  0  0  0  0
   -1.1156   -3.0837    1.6105 O   0  0  0  0  0  0  0  0  0  0  0  0
   -1.7759   -1.2189    0.5234 N   0  0  0  0  0  0  0  0  0  0  0  0
   -2.5744   -0.6592    0.2285 H   0  0  0  0  0  0  0  0  0  0  0  0
   -0.4524   -0.5984    0.4069 C   0  0  1  0  0  0  0  0  0  0  0  0
    0.2038   -1.0231    1.1738 H   0  0  0  0  0  0  0  0  0  0  0  0
    0.2876   -0.7268   -0.9631 C   0  0  0  0  0  0  0  0  0  0  0  0
    0.8141    0.2130   -1.1630 H   0  0  0  0  0  0  0  0  0  0  0  0
    1.0716   -1.4651   -0.7643 H   0  0  0  0  0  0  0  0  0  0  0  0
   -0.3924   -1.1582   -2.3079 C   0  0  0  0  0  0  0  0  0  0  0  0
   -0.4398   -0.2594   -2.9321 H   0  0  0  0  0  0  0  0  0  0  0  0
    0.5030   -2.1846   -3.0196 C   0  0  0  0  0  0  0  0  0  0  0  0
    0.5546   -3.1156   -2.4456 H   0  0  0  0  0  0  0  0  0  0  0  0
    0.1109   -2.4126   -4.0159 H   0  0  0  0  0  0  0  0  0  0  0  0
    1.5173   -1.7898   -3.1372 H   0  0  0  0  0  0  0  0  0  0  0  0
   -1.8147   -1.7337   -2.2892 C   0  0  0  0  0  0  0  0  0  0  0  0
   -2.5235   -0.9977   -1.8994 H   0  0  0  0  0  0  0  0  0  0  0  0
   -2.1338   -1.9845   -3.3056 H   0  0  0  0  0  0  0  0  0  0  0  0
   -1.8590   -2.6466   -1.6883 H   0  0  0  0  0  0  0  0  0  0  0  0
   -0.6028    0.9005    0.7432 C   0  0  0  0  0  0  0  0  0  0  0  0
   -1.5518    1.5380    0.2989 O   0  0  0  0  0  0  0  0  0  0  0  0
    0.3042    1.5273    1.5782 N   0  0  0  0  0  0  0  0  0  0  0  0
    1.0472    0.9605    1.9772 H   0  0  0  0  0  0  0  0  0  0  0  0
    0.1976    2.9279    1.9681 C   0  0  0  0  0  0  0  0  0  0  0  0
   -0.7475    3.1104    2.4904 H   0  0  0  0  0  0  0  0  0  0  0  0
    1.0198    3.1979    2.6377 H   0  0  0  0  0  0  0  0  0  0  0  0
    0.2435    3.5746    1.0856 H   0  0  0  0  0  0  0  0  0  0  0  0
  1  2  1  0  0  0  0
  2  3  1  0  0  0  0
  2  4  1  0  0  0  0
  2  5  1  0  0  0  0
  5  6  2  0  0  0  0
  5  7  1  0  0  0  0
  7  8  1  0  0  0  0
  7  9  1  0  0  0  0
  9 10  1  0  0  0  0
  9 11  1  0  0  0  0
  9 24  1  0  0  0  0
 11 12  1  0  0  0  0
 11 13  1  0  0  0  0
 11 14  1  0  0  0  0
 14 15  1  0  0  0  0
 14 16  1  0  0  0  0
 14 20  1  0  0  0  0
 16 17  1  0  0  0  0
 16 18  1  0  0  0  0
 16 19  1  0  0  0  0
 20 21  1  0  0  0  0
 20 22  1  0  0  0  0
 20 23  1  0  0  0  0
 24 25  2  0  0  0  0
 24 26  1  0  0  0  0
 26 27  1  0  0  0  0
 26 28  1  0  0  0  0
 28 29  1  0  0  0  0
 28 30  1  0  0  0  0
 28 31  1  0  0  0  0
M  END
$$$$

  -OEChem-03222214063D

 31 30  0     1  0  0  0  0  0999 V2000
   -3.4647   -3.8626    1.8204 H   0  0  0  0  0  0  0  0  0  0  0  0
   -3.4385   -2.9270    1.2547 C   0  0  0  0  0  0  0  0  0  0  0  0
   -4.0504   -2.1849    1.7730 H   0  0  0  0  0  0  0  0  0  0  0  0
   -3.8559   -3.1039    0.2606 H   0  0  0  0  0  0  0  0  0  0  0  0
   -2.0110   -2.4283    1.1346 C   0  0  0  0  0  0  0  0  0  0  0  0
   -1.0930   -3.0910    1.5919 O   0  0  0  0  0  0  0  0  0  0  0  0
   -1.7595   -1.2233    0.5132 N   0  0  0  0  0  0  0  0  0  0  0  0
   -2.5600   -0.6685    0.2145 H   0  0  0  0  0  0  0  0  0  0  0  0
   -0.4401   -0.5912    0.4111 C   0  0  1  0  0  0  0  0  0  0  0  0
    0.2142   -1.0158    1.1796 H   0  0  0  0  0  0  0  0  0  0  0  0
    0.3015   -0.7270   -0.9556 C   0  0  0  0  0  0  0  0  0  0  0  0
    0.7924    0.2298   -1.1667 H   0  0  0  0  0  0  0  0  0  0  0  0
    1.1148   -1.4351   -0.7654 H   0  0  0  0  0  0  0  0  0  0  0  0
   -0.3922   -1.1732   -2.2873 C   0  0  0  0  0  0  0  0  0  0  0  0
   -0.1605   -0.3828   -3.0098 H   0  0  0  0  0  0  0  0  0  0  0  0
    0.2605   -2.4544   -2.8235 C   0  0  0  0  0  0  0  0  0  0  0  0
    0.0915   -3.2870   -2.1328 H   0  0  0  0  0  0  0  0  0  0  0  0
   -0.1601   -2.7206   -3.7983 H   0  0  0  0  0  0  0  0  0  0  0  0
    1.3392   -2.3144   -2.9454 H   0  0  0  0  0  0  0  0  0  0  0  0
   -1.9186   -1.3180   -2.3395 C   0  0  0  0  0  0  0  0  0  0  0  0
   -2.4040   -0.4306   -1.9220 H   0  0  0  0  0  0  0  0  0  0  0  0
   -2.2467   -1.4196   -3.3786 H   0  0  0  0  0  0  0  0  0  0  0  0
   -2.2496   -2.2090   -1.7989 H   0  0  0  0  0  0  0  0  0  0  0  0
   -0.5993    0.9053    0.7534 C   0  0  0  0  0  0  0  0  0  0  0  0
   -1.5490    1.5402    0.3071 O   0  0  0  0  0  0  0  0  0  0  0  0
    0.2989    1.5314    1.5981 N   0  0  0  0  0  0  0  0  0  0  0  0
    1.0412    0.9656    1.9997 H   0  0  0  0  0  0  0  0  0  0  0  0
    0.1801    2.9279    1.9987 C   0  0  0  0  0  0  0  0  0  0  0  0
   -0.7626    3.0953    2.5301 H   0  0  0  0  0  0  0  0  0  0  0  0
    1.0053    3.2020    2.6628 H   0  0  0  0  0  0  0  0  0  0  0  0
    0.2114    3.5820    1.1210 H   0  0  0  0  0  0  0  0  0  0  0  0
  1  2  1  0  0  0  0
  2  3  1  0  0  0  0
  2  4  1  0  0  0  0
  2  5  1  0  0  0  0
  5  6  2  0  0  0  0
  5  7  1  0  0  0  0
  7  8  1  0  0  0  0
  7  9  1  0  0  0  0
  9 10  1  0  0  0  0
  9 11  1  0  0  0  0
  9 24  1  0  0  0  0
 11 12  1  0  0  0  0
 11 13  1  0  0  0  0
 11 14  1  0  0  0  0
 14 15  1  0  0  0  0
 14 16  1  0  0  0  0
 14 20  1  0  0  0  0
 16 17  1  0  0  0  0
 16 18  1  0  0  0  0
 16 19  1  0  0  0  0
 20 21  1  0  0  0  0
 20 22  1  0  0  0  0
 20 23  1  0  0  0  0
 24 25  2  0  0  0  0
 24 26  1  0  0  0  0
 26 27  1  0  0  0  0
 26 28  1  0  0  0  0
 28 29  1  0  0  0  0
 28 30  1  0  0  0  0
 28 31  1  0  0  0  0
M  END
$$$$

  -OEChem-03222214063D

 31 30  0     1  0  0  0  0  0999 V2000
   -3.4267   -3.8870    1.7426 H   0  0  0  0  0  0  0  0  0  0  0  0
   -3.4028   -2.9534    1.1738 C   0  0  0  0  0  0  0  0  0  0  0  0
   -4.0433   -2.2216    1.6718 H   0  0  0  0  0  0  0  0  0  0  0  0
   -3.7889   -3.1419    0.1693 H   0  0  0  0  0  0  0  0  0  0  0  0
   -1.9825   -2.4276    1.0900 C   0  0  0  0  0  0  0  0  0  0  0  0
   -1.0614   -3.0807    1.5547 O   0  0  0  0  0  0  0  0  0  0  0  0
   -1.7395   -1.2134    0.4837 N   0  0  0  0  0  0  0  0  0  0  0  0
   -2.5432   -0.6709    0.1720 H   0  0  0  0  0  0  0  0  0  0  0  0
   -0.4270   -0.5636    0.4016 C   0  0  1  0  0  0  0  0  0  0  0  0
    0.2255   -0.9898    1.1706 H   0  0  0  0  0  0  0  0  0  0  0  0
    0.3094   -0.7132   -0.9631 C   0  0  0  0  0  0  0  0  0  0  0  0
    0.7658    0.2546   -1.1982 H   0  0  0  0  0  0  0  0  0  0  0  0
    1.1456   -1.3977   -0.7878 H   0  0  0  0  0  0  0  0  0  0  0  0
   -0.4217   -1.1836   -2.2598 C   0  0  0  0  0  0  0  0  0  0  0  0
    0.0250   -0.5848   -3.0612 H   0  0  0  0  0  0  0  0  0  0  0  0
   -0.0653   -2.6370   -2.5920 C   0  0  0  0  0  0  0  0  0  0  0  0
   -0.4307   -3.3065   -1.8067 H   0  0  0  0  0  0  0  0  0  0  0  0
   -0.5196   -2.9339   -3.5425 H   0  0  0  0  0  0  0  0  0  0  0  0
    1.0187   -2.7598   -2.6794 H   0  0  0  0  0  0  0  0  0  0  0  0
   -1.9323   -0.9374   -2.3871 C   0  0  0  0  0  0  0  0  0  0  0  0
   -2.1967    0.0479   -1.9913 H   0  0  0  0  0  0  0  0  0  0  0  0
   -2.2235   -0.9677   -3.4416 H   0  0  0  0  0  0  0  0  0  0  0  0
   -2.5091   -1.7061   -1.8662 H   0  0  0  0  0  0  0  0  0  0  0  0
   -0.5875    0.9304    0.7540 C   0  0  0  0  0  0  0  0  0  0  0  0
   -1.5372    1.5689    0.3136 O   0  0  0  0  0  0  0  0  0  0  0  0
    0.3060    1.5476    1.6103 N   0  0  0  0  0  0  0  0  0  0  0  0
    1.0429    0.9754    2.0127 H   0  0  0  0  0  0  0  0  0  0  0  0
    0.1751    2.9340    2.0414 C   0  0  0  0  0  0  0  0  0  0  0  0
   -0.7696    3.0818    2.5752 H   0  0  0  0  0  0  0  0  0  0  0  0
    0.9969    3.2002    2.7131 H   0  0  0  0  0  0  0  0  0  0  0  0
    0.2021    3.6082    1.1789 H   0  0  0  0  0  0  0  0  0  0  0  0
  1  2  1  0  0  0  0
  2  3  1  0  0  0  0
  2  4  1  0  0  0  0
  2  5  1  0  0  0  0
  5  6  2  0  0  0  0
  5  7  1  0  0  0  0
  7  8  1  0  0  0  0
  7  9  1  0  0  0  0
  9 10  1  0  0  0  0
  9 11  1  0  0  0  0
  9 24  1  0  0  0  0
 11 12  1  0  0  0  0
 11 13  1  0  0  0  0
 11 14  1  0  0  0  0
 14 15  1  0  0  0  0
 14 16  1  0  0  0  0
 14 20  1  0  0  0  0
 16 17  1  0  0  0  0
 16 18  1  0  0  0  0
 16 19  1  0  0  0  0
 20 21  1  0  0  0  0
 20 22  1  0  0  0  0
 20 23  1  0  0  0  0
 24 25  2  0  0  0  0
 24 26  1  0  0  0  0
 26 27  1  0  0  0  0
 26 28  1  0  0  0  0
 28 29  1  0  0  0  0
 28 30  1  0  0  0  0
 28 31  1  0  0  0  0
M  END
$$$$

  -OEChem-03222214063D

 31 30  0     1  0  0  0  0  0999 V2000
   -3.4227   -3.9081    1.6485 H   0  0  0  0  0  0  0  0  0  0  0  0
   -3.3942   -2.9633    1.0987 C   0  0  0  0  0  0  0  0  0  0  0  0
   -4.0487   -2.2451    1.5984 H   0  0  0  0  0  0  0  0  0  0  0  0
   -3.7597   -3.1345    0.0834 H   0  0  0  0  0  0  0  0  0  0  0  0
   -1.9763   -2.4273    1.0522 C   0  0  0  0  0  0  0  0  0  0  0  0
   -1.0609   -3.0773    1.5326 O   0  0  0  0  0  0  0  0  0  0  0  0
   -1.7292   -1.2087    0.4571 N   0  0  0  0  0  0  0  0  0  0  0  0
   -2.5304   -0.6695    0.1336 H   0  0  0  0  0  0  0  0  0  0  0  0
   -0.4187   -0.5514    0.3941 C   0  0  1  0  0  0  0  0  0  0  0  0
    0.2296   -0.9814    1.1644 H   0  0  0  0  0  0  0  0  0  0  0  0
    0.3201   -0.6995   -0.9679 C   0  0  0  0  0  0  0  0  0  0  0  0
    0.7708    0.2691   -1.2110 H   0  0  0  0  0  0  0  0  0  0  0  0
    1.1563   -1.3874   -0.8058 H   0  0  0  0  0  0  0  0  0  0  0  0
   -0.4372   -1.1730   -2.2412 C   0  0  0  0  0  0  0  0  0  0  0  0
    0.1565   -0.7904   -3.0788 H   0  0  0  0  0  0  0  0  0  0  0  0
   -0.4032   -2.6996   -2.3792 C   0  0  0  0  0  0  0  0  0  0  0  0
   -0.9418   -3.1746   -1.5544 H   0  0  0  0  0  0  0  0  0  0  0  0
   -0.8701   -3.0063   -3.3203 H   0  0  0  0  0  0  0  0  0  0  0  0
    0.6288   -3.0639   -2.3753 H   0  0  0  0  0  0  0  0  0  0  0  0
   -1.8500   -0.6084   -2.4565 C   0  0  0  0  0  0  0  0  0  0  0  0
   -1.8914    0.4447   -2.1629 H   0  0  0  0  0  0  0  0  0  0  0  0
   -2.1166   -0.6767   -3.5157 H   0  0  0  0  0  0  0  0  0  0  0  0
   -2.6013   -1.1669   -1.8937 H   0  0  0  0  0  0  0  0  0  0  0  0
   -0.5825    0.9406    0.7533 C   0  0  0  0  0  0  0  0  0  0  0  0
   -1.5313    1.5813    0.3142 O   0  0  0  0  0  0  0  0  0  0  0  0
    0.3034    1.5511    1.6220 N   0  0  0  0  0  0  0  0  0  0  0  0
    1.0376    0.9764    2.0261 H   0  0  0  0  0  0  0  0  0  0  0  0
    0.1749    2.9379    2.0522 C   0  0  0  0  0  0  0  0  0  0  0  0
   -0.7790    3.0924    2.5672 H   0  0  0  0  0  0  0  0  0  0  0  0
    0.9854    3.1971    2.7399 H   0  0  0  0  0  0  0  0  0  0  0  0
    0.2242    3.6118    1.1905 H   0  0  0  0  0  0  0  0  0  0  0  0
  1  2  1  0  0  0  0
  2  3  1  0  0  0  0
  2  4  1  0  0  0  0
  2  5  1  0  0  0  0
  5  6  2  0  0  0  0
  5  7  1  0  0  0  0
  7  8  1  0  0  0  0
  7  9  1  0  0  0  0
  9 10  1  0  0  0  0
  9 11  1  0  0  0  0
  9 24  1  0  0  0  0
 11 12  1  0  0  0  0
 11 13  1  0  0  0  0
 11 14  1  0  0  0  0
 14 15  1  0  0  0  0
 14 16  1  0  0  0  0
 14 20  1  0  0  0  0
 16 17  1  0  0  0  0
 16 18  1  0  0  0  0
 16 19  1  0  0  0  0
 20 21  1  0  0  0  0
 20 22  1  0  0  0  0
 20 23  1  0  0  0  0
 24 25  2  0  0  0  0
 24 26  1  0  0  0  0
 26 27  1  0  0  0  0
 26 28  1  0  0  0  0
 28 29  1  0  0  0  0
 28 30  1  0  0  0  0
 28 31  1  0  0  0  0
M  END
$$$$

  -OEChem-03222214063D

 31 30  0     1  0  0  0  0  0999 V2000
   -3.4308   -3.9119    1.6408 H   0  0  0  0  0  0  0  0  0  0  0  0
   -3.4044   -2.9516    1.1182 C   0  0  0  0  0  0  0  0  0  0  0  0
   -4.0352   -2.2399    1.6562 H   0  0  0  0  0  0  0  0  0  0  0  0
   -3.7999   -3.0887    0.1089 H   0  0  0  0  0  0  0  0  0  0  0  0
   -1.9810   -2.4321    1.0502 C   0  0  0  0  0  0  0  0  0  0  0  0
   -1.0686   -3.0862    1.5306 O   0  0  0  0  0  0  0  0  0  0  0  0
   -1.7268   -1.2190    0.4458 N   0  0  0  0  0  0  0  0  0  0  0  0
   -2.5254   -0.6712    0.1302 H   0  0  0  0  0  0  0  0  0  0  0  0
   -0.4117   -0.5684    0.3886 C   0  0  1  0  0  0  0  0  0  0  0  0
    0.2339   -0.9964    1.1625 H   0  0  0  0  0  0  0  0  0  0  0  0
    0.3349   -0.6996   -0.9717 C   0  0  0  0  0  0  0  0  0  0  0  0
    0.8084    0.2618   -1.1993 H   0  0  0  0  0  0  0  0  0  0  0  0
    1.1526   -1.4106   -0.8159 H   0  0  0  0  0  0  0  0  0  0  0  0
   -0.4186   -1.1524   -2.2507 C   0  0  0  0  0  0  0  0  0  0  0  0
    0.2831   -0.9814   -3.0743 H   0  0  0  0  0  0  0  0  0  0  0  0
   -0.7309   -2.6551   -2.2721 C   0  0  0  0  0  0  0  0  0  0  0  0
   -1.5444   -2.9064   -1.5898 H   0  0  0  0  0  0  0  0  0  0  0  0
   -1.0315   -2.9591   -3.2794 H   0  0  0  0  0  0  0  0  0  0  0  0
    0.1528   -3.2351   -1.9890 H   0  0  0  0  0  0  0  0  0  0  0  0
   -1.6657   -0.3141   -2.5673 C   0  0  0  0  0  0  0  0  0  0  0  0
   -1.4336    0.7532   -2.4962 H   0  0  0  0  0  0  0  0  0  0  0  0
   -2.0056   -0.5233   -3.5863 H   0  0  0  0  0  0  0  0  0  0  0  0
   -2.4909   -0.5363   -1.8876 H   0  0  0  0  0  0  0  0  0  0  0  0
   -0.5846    0.9254    0.7368 C   0  0  0  0  0  0  0  0  0  0  0  0
   -1.5336    1.5586    0.2868 O   0  0  0  0  0  0  0  0  0  0  0  0
    0.2897    1.5456    1.6107 N   0  0  0  0  0  0  0  0  0  0  0  0
    1.0254    0.9780    2.0220 H   0  0  0  0  0  0  0  0  0  0  0  0
    0.1414    2.9297    2.0436 C   0  0  0  0  0  0  0  0  0  0  0  0
   -0.8180    3.0717    2.5522 H   0  0  0  0  0  0  0  0  0  0  0  0
    0.9437    3.1968    2.7382 H   0  0  0  0  0  0  0  0  0  0  0  0
    0.1889    3.6068    1.1843 H   0  0  0  0  0  0  0  0  0  0  0  0
  1  2  1  0  0  0  0
  2  3  1  0  0  0  0
  2  4  1  0  0  0  0
  2  5  1  0  0  0  0
  5  6  2  0  0  0  0
  5  7  1  0  0  0  0
  7  8  1  0  0  0  0
  7  9  1  0  0  0  0
  9 10  1  0  0  0  0
  9 11  1  0  0  0  0
  9 24  1  0  0  0  0
 11 12  1  0  0  0  0
 11 13  1  0  0  0  0
 11 14  1  0  0  0  0
 14 15  1  0  0  0  0
 14 16  1  0  0  0  0
 14 20  1  0  0  0  0
 16 17  1  0  0  0  0
 16 18  1  0  0  0  0
 16 19  1  0  0  0  0
 20 21  1  0  0  0  0
 20 22  1  0  0  0  0
 20 23  1  0  0  0  0
 24 25  2  0  0  0  0
 24 26  1  0  0  0  0
 26 27  1  0  0  0  0
 26 28  1  0  0  0  0
 28 29  1  0  0  0  0
 28 30  1  0  0  0  0
 28 31  1  0  0  0  0
M  END
$$$$

  -OEChem-03222214063D

 31 30  0     1  0  0  0  0  0999 V2000
   -3.4366   -3.9028    1.6480 H   0  0  0  0  0  0  0  0  0  0  0  0
   -3.4139   -2.9398    1.1303 C   0  0  0  0  0  0  0  0  0  0  0  0
   -4.0329   -2.2283    1.6820 H   0  0  0  0  0  0  0  0  0  0  0  0
   -3.8260   -3.0694    0.1267 H   0  0  0  0  0  0  0  0  0  0  0  0
   -1.9890   -2.4268    1.0433 C   0  0  0  0  0  0  0  0  0  0  0  0
   -1.0740   -3.0837    1.5150 O   0  0  0  0  0  0  0  0  0  0  0  0
   -1.7361   -1.2137    0.4371 N   0  0  0  0  0  0  0  0  0  0  0  0
   -2.5356   -0.6624    0.1295 H   0  0  0  0  0  0  0  0  0  0  0  0
   -0.4201   -0.5654    0.3790 C   0  0  1  0  0  0  0  0  0  0  0  0
    0.2220   -0.9927    1.1559 H   0  0  0  0  0  0  0  0  0  0  0  0
    0.3371   -0.6928   -0.9760 C   0  0  0  0  0  0  0  0  0  0  0  0
    0.8361    0.2582   -1.1928 H   0  0  0  0  0  0  0  0  0  0  0  0
    1.1352   -1.4239   -0.8108 H   0  0  0  0  0  0  0  0  0  0  0  0
   -0.3970   -1.1445   -2.2663 C   0  0  0  0  0  0  0  0  0  0  0  0
    0.3673   -1.1863   -3.0498 H   0  0  0  0  0  0  0  0  0  0  0  0
   -1.0361   -2.5399   -2.1989 C   0  0  0  0  0  0  0  0  0  0  0  0
   -2.0328   -2.5092   -1.7538 H   0  0  0  0  0  0  0  0  0  0  0  0
   -1.1407   -2.9464   -3.2095 H   0  0  0  0  0  0  0  0  0  0  0  0
   -0.4083   -3.2228   -1.6180 H   0  0  0  0  0  0  0  0  0  0  0  0
   -1.4442   -0.1098   -2.6974 C   0  0  0  0  0  0  0  0  0  0  0  0
   -0.9863    0.8799   -2.7894 H   0  0  0  0  0  0  0  0  0  0  0  0
   -1.8683   -0.3837   -3.6683 H   0  0  0  0  0  0  0  0  0  0  0  0
   -2.2599   -0.0456   -1.9719 H   0  0  0  0  0  0  0  0  0  0  0  0
   -0.5917    0.9287    0.7265 C   0  0  0  0  0  0  0  0  0  0  0  0
   -1.5439    1.5614    0.2826 O   0  0  0  0  0  0  0  0  0  0  0  0
    0.2838    1.5480    1.5999 N   0  0  0  0  0  0  0  0  0  0  0  0
    1.0244    0.9819    2.0042 H   0  0  0  0  0  0  0  0  0  0  0  0
    0.1362    2.9318    2.0340 C   0  0  0  0  0  0  0  0  0  0  0  0
   -0.8230    3.0738    2.5429 H   0  0  0  0  0  0  0  0  0  0  0  0
    0.9387    3.1979    2.7288 H   0  0  0  0  0  0  0  0  0  0  0  0
    0.1836    3.6098    1.1754 H   0  0  0  0  0  0  0  0  0  0  0  0
  1  2  1  0  0  0  0
  2  3  1  0  0  0  0
  2  4  1  0  0  0  0
  2  5  1  0  0  0  0
  5  6  2  0  0  0  0
  5  7  1  0  0  0  0
  7  8  1  0  0  0  0
  7  9  1  0  0  0  0
  9 10  1  0  0  0  0
  9 11  1  0  0  0  0
  9 24  1  0  0  0  0
 11 12  1  0  0  0  0
 11 13  1  0  0  0  0
 11 14  1  0  0  0  0
 14 15  1  0  0  0  0
 14 16  1  0  0  0  0
 14 20  1  0  0  0  0
 16 17  1  0  0  0  0
 16 18  1  0  0  0  0
 16 19  1  0  0  0  0
 20 21  1  0  0  0  0
 20 22  1  0  0  0  0
 20 23  1  0  0  0  0
 24 25  2  0  0  0  0
 24 26  1  0  0  0  0
 26 27  1  0  0  0  0
 26 28  1  0  0  0  0
 28 29  1  0  0  0  0
 28 30  1  0  0  0  0
 28 31  1  0  0  0  0
M  END
$$$$

  -OEChem-03222214063D

 31 30  0     1  0  0  0  0  0999 V2000
   -3.4479   -3.8742    1.7413 H   0  0  0  0  0  0  0  0  0  0  0  0
   -3.4217   -2.9396    1.1740 C   0  0  0  0  0  0  0  0  0  0  0  0
   -4.0506   -2.2030    1.6797 H   0  0  0  0  0  0  0  0  0  0  0  0
   -3.8196   -3.1232    0.1732 H   0  0  0  0  0  0  0  0  0  0  0  0
   -1.9976   -2.4261    1.0776 C   0  0  0  0  0  0  0  0  0  0  0  0
   -1.0797   -3.0810    1.5464 O   0  0  0  0  0  0  0  0  0  0  0  0
   -1.7479   -1.2160    0.4645 N   0  0  0  0  0  0  0  0  0  0  0  0
   -2.5487   -0.6674    0.1554 H   0  0  0  0  0  0  0  0  0  0  0  0
   -0.4325   -0.5715    0.3855 C   0  0  1  0  0  0  0  0  0  0  0  0
    0.2171   -0.9954    1.1583 H   0  0  0  0  0  0  0  0  0  0  0  0
    0.3220   -0.6900   -0.9737 C   0  0  0  0  0  0  0  0  0  0  0  0
    0.8491    0.2498   -1.1715 H   0  0  0  0  0  0  0  0  0  0  0  0
    1.1010   -1.4400   -0.8021 H   0  0  0  0  0  0  0  0  0  0  0  0
   -0.3806   -1.1342   -2.2888 C   0  0  0  0  0  0  0  0  0  0  0  0
    0.4158   -1.3845   -2.9979 H   0  0  0  0  0  0  0  0  0  0  0  0
   -1.3160   -2.3501   -2.2096 C   0  0  0  0  0  0  0  0  0  0  0  0
   -2.3058   -2.0800   -1.8334 H   0  0  0  0  0  0  0  0  0  0  0  0
   -1.4515   -2.7752   -3.2087 H   0  0  0  0  0  0  0  0  0  0  0  0
   -0.8832   -3.1231   -1.5671 H   0  0  0  0  0  0  0  0  0  0  0  0
   -1.1731    0.0461   -2.8652 C   0  0  0  0  0  0  0  0  0  0  0  0
   -0.5192    0.9104   -3.0177 H   0  0  0  0  0  0  0  0  0  0  0  0
   -1.6115   -0.2242   -3.8309 H   0  0  0  0  0  0  0  0  0  0  0  0
   -1.9810    0.3388   -2.1875 H   0  0  0  0  0  0  0  0  0  0  0  0
   -0.6039    0.9229    0.7314 C   0  0  0  0  0  0  0  0  0  0  0  0
   -1.5608    1.5536    0.2946 O   0  0  0  0  0  0  0  0  0  0  0  0
    0.2812    1.5465    1.5917 N   0  0  0  0  0  0  0  0  0  0  0  0
    1.0257    0.9822    1.9912 H   0  0  0  0  0  0  0  0  0  0  0  0
    0.1403    2.9333    2.0178 C   0  0  0  0  0  0  0  0  0  0  0  0
   -0.8103    3.0785    2.5418 H   0  0  0  0  0  0  0  0  0  0  0  0
    0.9544    3.2050    2.6964 H   0  0  0  0  0  0  0  0  0  0  0  0
    0.1726    3.6043    1.1531 H   0  0  0  0  0  0  0  0  0  0  0  0
  1  2  1  0  0  0  0
  2  3  1  0  0  0  0
  2  4  1  0  0  0  0
  2  5  1  0  0  0  0
  5  6  2  0  0  0  0
  5  7  1  0  0  0  0
  7  8  1  0  0  0  0
  7  9  1  0  0  0  0
  9 10  1  0  0  0  0
  9 11  1  0  0  0  0
  9 24  1  0  0  0  0
 11 12  1  0  0  0  0
 11 13  1  0  0  0  0
 11 14  1  0  0  0  0
 14 15  1  0  0  0  0
 14 16  1  0  0  0  0
 14 20  1  0  0  0  0
 16 17  1  0  0  0  0
 16 18  1  0  0  0  0
 16 19  1  0  0  0  0
 20 21  1  0  0  0  0
 20 22  1  0  0  0  0
 20 23  1  0  0  0  0
 24 25  2  0  0  0  0
 24 26  1  0  0  0  0
 26 27  1  0  0  0  0
 26 28  1  0  0  0  0
 28 29  1  0  0  0  0
 28 30  1  0  0  0  0
 28 31  1  0  0  0  0
M  END
$$$$

  -OEChem-03222214063D

 31 30  0     1  0  0  0  0  0999 V2000
   -3.4439   -3.8838    1.7780 H   0  0  0  0  0  0  0  0  0  0  0  0
   -3.4222   -2.9440    1.2193 C   0  0  0  0  0  0  0  0  0  0  0  0
   -4.0484   -2.2126    1.7359 H   0  0  0  0  0  0  0  0  0  0  0  0
   -3.8265   -3.1186    0.2193 H   0  0  0  0  0  0  0  0  0  0  0  0
   -1.9993   -2.4281    1.1176 C   0  0  0  0  0  0  0  0  0  0  0  0
   -1.0779   -3.0821    1.5808 O   0  0  0  0  0  0  0  0  0  0  0  0
   -1.7541   -1.2219    0.4954 N   0  0  0  0  0  0  0  0  0  0  0  0
   -2.5574   -0.6745    0.1902 H   0  0  0  0  0  0  0  0  0  0  0  0
   -0.4391   -0.5810    0.3918 C   0  0  1  0  0  0  0  0  0  0  0  0
    0.2205   -1.0012    1.1582 H   0  0  0  0  0  0  0  0  0  0  0  0
    0.3037   -0.6916   -0.9765 C   0  0  0  0  0  0  0  0  0  0  0  0
    0.8559    0.2375   -1.1564 H   0  0  0  0  0  0  0  0  0  0  0  0
    1.0669   -1.4578   -0.8051 H   0  0  0  0  0  0  0  0  0  0  0  0
   -0.3820   -1.1262   -2.3101 C   0  0  0  0  0  0  0  0  0  0  0  0
    0.3918   -1.5978   -2.9259 H   0  0  0  0  0  0  0  0  0  0  0  0
   -1.5680   -2.0989   -2.2507 C   0  0  0  0  0  0  0  0  0  0  0  0
   -2.4749   -1.6098   -1.8846 H   0  0  0  0  0  0  0  0  0  0  0  0
   -1.7827   -2.4816   -3.2534 H   0  0  0  0  0  0  0  0  0  0  0  0
   -1.3275   -2.9528   -1.6106 H   0  0  0  0  0  0  0  0  0  0  0  0
   -0.8651    0.1339   -3.0422 C   0  0  0  0  0  0  0  0  0  0  0  0
   -0.0289    0.8135   -3.2330 H   0  0  0  0  0  0  0  0  0  0  0  0
   -1.3133   -0.1294   -4.0055 H   0  0  0  0  0  0  0  0  0  0  0  0
   -1.6135    0.6639   -2.4440 H   0  0  0  0  0  0  0  0  0  0  0  0
   -0.6107    0.9141    0.7343 C   0  0  0  0  0  0  0  0  0  0  0  0
   -1.5705    1.5410    0.2981 O   0  0  0  0  0  0  0  0  0  0  0  0
    0.2843    1.5455    1.5787 N   0  0  0  0  0  0  0  0  0  0  0  0
    1.0311    0.9838    1.9777 H   0  0  0  0  0  0  0  0  0  0  0  0
    0.1453    2.9345    1.9987 C   0  0  0  0  0  0  0  0  0  0  0  0
   -0.7998    3.0809    2.5321 H   0  0  0  0  0  0  0  0  0  0  0  0
    0.9662    3.2111    2.6673 H   0  0  0  0  0  0  0  0  0  0  0  0
    0.1673    3.6017    1.1306 H   0  0  0  0  0  0  0  0  0  0  0  0
  1  2  1  0  0  0  0
  2  3  1  0  0  0  0
  2  4  1  0  0  0  0
  2  5  1  0  0  0  0
  5  6  2  0  0  0  0
  5  7  1  0  0  0  0
  7  8  1  0  0  0  0
  7  9  1  0  0  0  0
  9 10  1  0  0  0  0
  9 11  1  0  0  0  0
  9 24  1  0  0  0  0
 11 12  1  0  0  0  0
 11 13  1  0  0  0  0
 11 14  1  0  0  0  0
 14 15  1  0  0  0  0
 14 16  1  0  0  0  0
 14 20  1  0  0  0  0
 16 17  1  0  0  0  0
 16 18  1  0  0  0  0
 16 19  1  0  0  0  0
 20 21  1  0  0  0  0
 20 22  1  0  0  0  0
 20 23  1  0  0  0  0
 24 25  2  0  0  0  0
 24 26  1  0  0  0  0
 26 27  1  0  0  0  0
 26 28  1  0  0  0  0
 28 29  1  0  0  0  0
 28 30  1  0  0  0  0
 28 31  1  0  0  0  0
M  END
$$$$

  -OEChem-03222214063D

 31 30  0     1  0  0  0  0  0999 V2000
   -3.4396   -3.8956    1.8016 H   0  0  0  0  0  0  0  0  0  0  0  0
   -3.4243   -2.9495    1.2533 C   0  0  0  0  0  0  0  0  0  0  0  0
   -4.0377   -2.2214    1.7892 H   0  0  0  0  0  0  0  0  0  0  0  0
   -3.8474   -3.1110    0.2589 H   0  0  0  0  0  0  0  0  0  0  0  0
   -2.0015   -2.4382    1.1320 C   0  0  0  0  0  0  0  0  0  0  0  0
   -1.0763   -3.0938    1.5850 O   0  0  0  0  0  0  0  0  0  0  0  0
   -1.7611   -1.2324    0.5074 N   0  0  0  0  0  0  0  0  0  0  0  0
   -2.5663   -0.6823    0.2124 H   0  0  0  0  0  0  0  0  0  0  0  0
   -0.4457   -0.5944    0.3930 C   0  0  1  0  0  0  0  0  0  0  0  0
    0.2204   -1.0151    1.1533 H   0  0  0  0  0  0  0  0  0  0  0  0
    0.2891   -0.6939   -0.9810 C   0  0  0  0  0  0  0  0  0  0  0  0
    0.8485    0.2341   -1.1432 H   0  0  0  0  0  0  0  0  0  0  0  0
    1.0500   -1.4640   -0.8166 H   0  0  0  0  0  0  0  0  0  0  0  0
   -0.3918   -1.1141   -2.3266 C   0  0  0  0  0  0  0  0  0  0  0  0
    0.2927   -1.8059   -2.8297 H   0  0  0  0  0  0  0  0  0  0  0  0
   -1.7688   -1.7907   -2.3009 C   0  0  0  0  0  0  0  0  0  0  0  0
   -2.5383   -1.1124   -1.9206 H   0  0  0  0  0  0  0  0  0  0  0  0
   -2.0578   -2.0883   -3.3138 H   0  0  0  0  0  0  0  0  0  0  0  0
   -1.7385   -2.6958   -1.6880 H   0  0  0  0  0  0  0  0  0  0  0  0
   -0.5243    0.1354   -3.2109 C   0  0  0  0  0  0  0  0  0  0  0  0
    0.4566    0.5866   -3.3906 H   0  0  0  0  0  0  0  0  0  0  0  0
   -0.9583   -0.1227   -4.1821 H   0  0  0  0  0  0  0  0  0  0  0  0
   -1.1669    0.8797   -2.7290 H   0  0  0  0  0  0  0  0  0  0  0  0
   -0.6196    0.8998    0.7379 C   0  0  0  0  0  0  0  0  0  0  0  0
   -1.5789    1.5255    0.2988 O   0  0  0  0  0  0  0  0  0  0  0  0
    0.2780    1.5354    1.5763 N   0  0  0  0  0  0  0  0  0  0  0  0
    1.0303    0.9780    1.9712 H   0  0  0  0  0  0  0  0  0  0  0  0
    0.1499    2.9321    1.9734 C   0  0  0  0  0  0  0  0  0  0  0  0
   -0.7981    3.0970    2.4960 H   0  0  0  0  0  0  0  0  0  0  0  0
    0.9677    3.2108    2.6449 H   0  0  0  0  0  0  0  0  0  0  0  0
    0.1862    3.5846    1.0947 H   0  0  0  0  0  0  0  0  0  0  0  0
  1  2  1  0  0  0  0
  2  3  1  0  0  0  0
  2  4  1  0  0  0  0
  2  5  1  0  0  0  0
  5  6  2  0  0  0  0
  5  7  1  0  0  0  0
  7  8  1  0  0  0  0
  7  9  1  0  0  0  0
  9 10  1  0  0  0  0
  9 11  1  0  0  0  0
  9 24  1  0  0  0  0
 11 12  1  0  0  0  0
 11 13  1  0  0  0  0
 11 14  1  0  0  0  0
 14 15  1  0  0  0  0
 14 16  1  0  0  0  0
 14 20  1  0  0  0  0
 16 17  1  0  0  0  0
 16 18  1  0  0  0  0
 16 19  1  0  0  0  0
 20 21  1  0  0  0  0
 20 22  1  0  0  0  0
 20 23  1  0  0  0  0
 24 25  2  0  0  0  0
 24 26  1  0  0  0  0
 26 27  1  0  0  0  0
 26 28  1  0  0  0  0
 28 29  1  0  0  0  0
 28 30  1  0  0  0  0
 28 31  1  0  0  0  0
M  END
$$$$

  -OEChem-03222214063D

 31 30  0     1  0  0  0  0  0999 V2000
   -3.4289   -3.8997    1.7820 H   0  0  0  0  0  0  0  0  0  0  0  0
   -3.4194   -2.9429    1.2526 C   0  0  0  0  0  0  0  0  0  0  0  0
   -4.0176   -2.2224    1.8158 H   0  0  0  0  0  0  0  0  0  0  0  0
   -3.8639   -3.0822    0.2644 H   0  0  0  0  0  0  0  0  0  0  0  0
   -1.9966   -2.4365    1.1118 C   0  0  0  0  0  0  0  0  0  0  0  0
   -1.0670   -3.0986    1.5459 O   0  0  0  0  0  0  0  0  0  0  0  0
   -1.7612   -1.2257    0.4953 N   0  0  0  0  0  0  0  0  0  0  0  0
   -2.5690   -0.6692    0.2196 H   0  0  0  0  0  0  0  0  0  0  0  0
   -0.4460   -0.5875    0.3764 C   0  0  1  0  0  0  0  0  0  0  0  0
    0.2238   -1.0135    1.1305 H   0  0  0  0  0  0  0  0  0  0  0  0
    0.2806   -0.6875   -1.0023 C   0  0  0  0  0  0  0  0  0  0  0  0
    0.8122    0.2567   -1.1651 H   0  0  0  0  0  0  0  0  0  0  0  0
    1.0646   -1.4364   -0.8492 H   0  0  0  0  0  0  0  0  0  0  0  0
   -0.4122   -1.1069   -2.3445 C   0  0  0  0  0  0  0  0  0  0  0  0
    0.1088   -2.0001   -2.7063 H   0  0  0  0  0  0  0  0  0  0  0  0
   -1.9084   -1.4506   -2.3498 C   0  0  0  0  0  0  0  0  0  0  0  0
   -2.4999   -0.6220   -1.9480 H   0  0  0  0  0  0  0  0  0  0  0  0
   -2.2495   -1.6446   -3.3715 H   0  0  0  0  0  0  0  0  0  0  0  0
   -2.0980   -2.3573   -1.7696 H   0  0  0  0  0  0  0  0  0  0  0  0
   -0.1911    0.0059   -3.3805 C   0  0  0  0  0  0  0  0  0  0  0  0
    0.8773    0.2096   -3.5032 H   0  0  0  0  0  0  0  0  0  0  0  0
   -0.5912   -0.2883   -4.3560 H   0  0  0  0  0  0  0  0  0  0  0  0
   -0.6893    0.9283   -3.0636 H   0  0  0  0  0  0  0  0  0  0  0  0
   -0.6161    0.9041    0.7348 C   0  0  0  0  0  0  0  0  0  0  0  0
   -1.5809    1.5324    0.3116 O   0  0  0  0  0  0  0  0  0  0  0  0
    0.2885    1.5315    1.5717 N   0  0  0  0  0  0  0  0  0  0  0  0
    1.0407    0.9684    1.9582 H   0  0  0  0  0  0  0  0  0  0  0  0
    0.1534    2.9184    1.9995 C   0  0  0  0  0  0  0  0  0  0  0  0
   -0.7766    3.0573    2.5608 H   0  0  0  0  0  0  0  0  0  0  0  0
    0.9919    3.1986    2.6441 H   0  0  0  0  0  0  0  0  0  0  0  0
    0.1456    3.5878    1.1328 H   0  0  0  0  0  0  0  0  0  0  0  0
  1  2  1  0  0  0  0
  2  3  1  0  0  0  0
  2  4  1  0  0  0  0
  2  5  1  0  0  0  0
  5  6  2  0  0  0  0
  5  7  1  0  0  0  0
  7  8  1  0  0  0  0
  7  9  1  0  0  0  0
  9 10  1  0  0  0  0
  9 11  1  0  0  0  0
  9 24  1  0  0  0  0
 11 12  1  0  0  0  0
 11 13  1  0  0  0  0
 11 14  1  0  0  0  0
 14 15  1  0  0  0  0
 14 16  1  0  0  0  0
 14 20  1  0  0  0  0
 16 17  1  0  0  0  0
 16 18  1  0  0  0  0
 16 19  1  0  0  0  0
 20 21  1  0  0  0  0
 20 22  1  0  0  0  0
 20 23  1  0  0  0  0
 24 25  2  0  0  0  0
 24 26  1  0  0  0  0
 26 27  1  0  0  0  0
 26 28  1  0  0  0  0
 28 29  1  0  0  0  0
 28 30  1  0  0  0  0
 28 31  1  0  0  0  0
M  END
$$$$

  -OEChem-03222214063D

 31 30  0     1  0  0  0  0  0999 V2000
   -3.4245   -3.8963    1.7255 H   0  0  0  0  0  0  0  0  0  0  0  0
   -3.4144   -2.9382    1.1985 C   0  0  0  0  0  0  0  0  0  0  0  0
   -4.0131   -2.2193    1.7631 H   0  0  0  0  0  0  0  0  0  0  0  0
   -3.8579   -3.0749    0.2094 H   0  0  0  0  0  0  0  0  0  0  0  0
   -1.9910   -2.4319    1.0617 C   0  0  0  0  0  0  0  0  0  0  0  0
   -1.0616   -3.0995    1.4880 O   0  0  0  0  0  0  0  0  0  0  0  0
   -1.7558   -1.2124    0.4629 N   0  0  0  0  0  0  0  0  0  0  0  0
   -2.5639   -0.6545    0.1914 H   0  0  0  0  0  0  0  0  0  0  0  0
   -0.4420   -0.5694    0.3576 C   0  0  1  0  0  0  0  0  0  0  0  0
    0.2249   -1.0049    1.1087 H   0  0  0  0  0  0  0  0  0  0  0  0
    0.2811   -0.6767   -1.0207 C   0  0  0  0  0  0  0  0  0  0  0  0
    0.7756    0.2848   -1.1979 H   0  0  0  0  0  0  0  0  0  0  0  0
    1.0895   -1.4014   -0.8780 H   0  0  0  0  0  0  0  0  0  0  0  0
   -0.4319   -1.1039   -2.3469 C   0  0  0  0  0  0  0  0  0  0  0  0
   -0.1296   -2.1374   -2.5493 H   0  0  0  0  0  0  0  0  0  0  0  0
   -1.9680   -1.0976   -2.4000 C   0  0  0  0  0  0  0  0  0  0  0  0
   -2.3653   -0.1651   -1.9867 H   0  0  0  0  0  0  0  0  0  0  0  0
   -2.3151   -1.1859   -3.4342 H   0  0  0  0  0  0  0  0  0  0  0  0
   -2.3807   -1.9487   -1.8530 H   0  0  0  0  0  0  0  0  0  0  0  0
    0.0986   -0.2362   -3.4980 C   0  0  0  0  0  0  0  0  0  0  0  0
    1.1921   -0.2715   -3.5313 H   0  0  0  0  0  0  0  0  0  0  0  0
   -0.2807   -0.5971   -4.4593 H   0  0  0  0  0  0  0  0  0  0  0  0
   -0.2145    0.8052   -3.3699 H   0  0  0  0  0  0  0  0  0  0  0  0
   -0.6050    0.9190    0.7336 C   0  0  0  0  0  0  0  0  0  0  0  0
   -1.5711    1.5549    0.3255 O   0  0  0  0  0  0  0  0  0  0  0  0
    0.3014    1.5314    1.5797 N   0  0  0  0  0  0  0  0  0  0  0  0
    1.0545    0.9617    1.9546 H   0  0  0  0  0  0  0  0  0  0  0  0
    0.1676    2.9104    2.0334 C   0  0  0  0  0  0  0  0  0  0  0  0
   -0.7563    3.0367    2.6076 H   0  0  0  0  0  0  0  0  0  0  0  0
    1.0128    3.1820    2.6732 H   0  0  0  0  0  0  0  0  0  0  0  0
    0.1480    3.5951    1.1790 H   0  0  0  0  0  0  0  0  0  0  0  0
  1  2  1  0  0  0  0
  2  3  1  0  0  0  0
  2  4  1  0  0  0  0
  2  5  1  0  0  0  0
  5  6  2  0  0  0  0
  5  7  1  0  0  0  0
  7  8  1  0  0  0  0
  7  9  1  0  0  0  0
  9 10  1  0  0  0  0
  9 11  1  0  0  0  0
  9 24  1  0  0  0  0
 11 12  1  0  0  0  0
 11 13  1  0  0  0  0
 11 14  1  0  0  0  0
 14 15  1  0  0  0  0
 14 16  1  0  0  0  0
 14 20  1  0  0  0  0
 16 17  1  0  0  0  0
 16 18  1  0  0  0  0
 16 19  1  0  0  0  0
 20 21  1  0  0  0  0
 20 22  1  0  0  0  0
 20 23  1  0  0  0  0
 24 25  2  0  0  0  0
 24 26  1  0  0  0  0
 26 27  1  0  0  0  0
 26 28  1  0  0  0  0
 28 29  1  0  0  0  0
 28 30  1  0  0  0  0
 28 31  1  0  0  0  0
M  END
$$$$

  -OEChem-03222214063D

 31 30  0     1  0  0  0  0  0999 V2000
   -3.4324   -3.8923    1.6283 H   0  0  0  0  0  0  0  0  0  0  0  0
   -3.4112   -2.9391    1.0927 C   0  0  0  0  0  0  0  0  0  0  0  0
   -4.0378   -2.2208    1.6270 H   0  0  0  0  0  0  0  0  0  0  0  0
   -3.8155   -3.0895    0.0888 H   0  0  0  0  0  0  0  0  0  0  0  0
   -1.9884   -2.4205    1.0040 C   0  0  0  0  0  0  0  0  0  0  0  0
   -1.0665   -3.0878    1.4466 O   0  0  0  0  0  0  0  0  0  0  0  0
   -1.7440   -1.1955    0.4206 N   0  0  0  0  0  0  0  0  0  0  0  0
   -2.5479   -0.6384    0.1358 H   0  0  0  0  0  0  0  0  0  0  0  0
   -0.4298   -0.5486    0.3440 C   0  0  1  0  0  0  0  0  0  0  0  0
    0.2262   -0.9910    1.1007 H   0  0  0  0  0  0  0  0  0  0  0  0
    0.2980   -0.6736   -1.0272 C   0  0  0  0  0  0  0  0  0  0  0  0
    0.7735    0.2927   -1.2286 H   0  0  0  0  0  0  0  0  0  0  0  0
    1.1145   -1.3891   -0.8839 H   0  0  0  0  0  0  0  0  0  0  0  0
   -0.4424   -1.1153   -2.3271 C   0  0  0  0  0  0  0  0  0  0  0  0
   -0.3871   -2.2086   -2.3716 H   0  0  0  0  0  0  0  0  0  0  0  0
   -1.9340   -0.7568   -2.4535 C   0  0  0  0  0  0  0  0  0  0  0  0
   -2.1196    0.2549   -2.0801 H   0  0  0  0  0  0  0  0  0  0  0  0
   -2.2496   -0.7960   -3.5006 H   0  0  0  0  0  0  0  0  0  0  0  0
   -2.5605   -1.4662   -1.9087 H   0  0  0  0  0  0  0  0  0  0  0  0
    0.3170   -0.5626   -3.5414 C   0  0  0  0  0  0  0  0  0  0  0  0
    1.3755   -0.8365   -3.4874 H   0  0  0  0  0  0  0  0  0  0  0  0
   -0.0927   -0.9735   -4.4695 H   0  0  0  0  0  0  0  0  0  0  0  0
    0.2397    0.5288   -3.5809 H   0  0  0  0  0  0  0  0  0  0  0  0
   -0.5863    0.9384    0.7276 C   0  0  0  0  0  0  0  0  0  0  0  0
   -1.5446    1.5834    0.3159 O   0  0  0  0  0  0  0  0  0  0  0  0
    0.3123    1.5376    1.5912 N   0  0  0  0  0  0  0  0  0  0  0  0
    1.0590    0.9609    1.9686 H   0  0  0  0  0  0  0  0  0  0  0  0
    0.1822    2.9148    2.0513 C   0  0  0  0  0  0  0  0  0  0  0  0
   -0.7594    3.0500    2.5939 H   0  0  0  0  0  0  0  0  0  0  0  0
    1.0078    3.1695    2.7227 H   0  0  0  0  0  0  0  0  0  0  0  0
    0.2019    3.6058    1.2020 H   0  0  0  0  0  0  0  0  0  0  0  0
  1  2  1  0  0  0  0
  2  3  1  0  0  0  0
  2  4  1  0  0  0  0
  2  5  1  0  0  0  0
  5  6  2  0  0  0  0
  5  7  1  0  0  0  0
  7  8  1  0  0  0  0
  7  9  1  0  0  0  0
  9 10  1  0  0  0  0
  9 11  1  0  0  0  0
  9 24  1  0  0  0  0
 11 12  1  0  0  0  0
 11 13  1  0  0  0  0
 11 14  1  0  0  0  0
 14 15  1  0  0  0  0
 14 16  1  0  0  0  0
 14 20  1  0  0  0  0
 16 17  1  0  0  0  0
 16 18  1  0  0  0  0
 16 19  1  0  0  0  0
 20 21  1  0  0  0  0
 20 22  1  0  0  0  0
 20 23  1  0  0  0  0
 24 25  2  0  0  0  0
 24 26  1  0  0  0  0
 26 27  1  0  0  0  0
 26 28  1  0  0  0  0
 28 29  1  0  0  0  0
 28 30  1  0  0  0  0
 28 31  1  0  0  0  0
M  END
$$$$

  -OEChem-03222214063D

 31 30  0     1  0  0  0  0  0999 V2000
   -3.4494   -3.8948    1.5353 H   0  0  0  0  0  0  0  0  0  0  0  0
   -3.4162   -2.9388    1.0052 C   0  0  0  0  0  0  0  0  0  0  0  0
   -4.0524   -2.2228    1.5310 H   0  0  0  0  0  0  0  0  0  0  0  0
   -3.8007   -3.0829   -0.0073 H   0  0  0  0  0  0  0  0  0  0  0  0
   -1.9911   -2.4222    0.9477 C   0  0  0  0  0  0  0  0  0  0  0  0
   -1.0800   -3.0907    1.4103 O   0  0  0  0  0  0  0  0  0  0  0  0
   -1.7327   -1.1966    0.3720 N   0  0  0  0  0  0  0  0  0  0  0  0
   -2.5301   -0.6375    0.0736 H   0  0  0  0  0  0  0  0  0  0  0  0
   -0.4176   -0.5465    0.3335 C   0  0  1  0  0  0  0  0  0  0  0  0
    0.2210   -0.9910    1.1038 H   0  0  0  0  0  0  0  0  0  0  0  0
    0.3277   -0.6832   -1.0235 C   0  0  0  0  0  0  0  0  0  0  0  0
    0.8094    0.2766   -1.2410 H   0  0  0  0  0  0  0  0  0  0  0  0
    1.1344   -1.4073   -0.8696 H   0  0  0  0  0  0  0  0  0  0  0  0
   -0.4344   -1.1337   -2.3003 C   0  0  0  0  0  0  0  0  0  0  0  0
   -0.6233   -2.2095   -2.2150 H   0  0  0  0  0  0  0  0  0  0  0  0
   -1.7944   -0.4520   -2.5423 C   0  0  0  0  0  0  0  0  0  0  0  0
   -1.7244    0.6216   -2.3417 H   0  0  0  0  0  0  0  0  0  0  0  0
   -2.1055   -0.5850   -3.5831 H   0  0  0  0  0  0  0  0  0  0  0  0
   -2.5827   -0.8792   -1.9210 H   0  0  0  0  0  0  0  0  0  0  0  0
    0.4706   -0.9068   -3.5183 C   0  0  0  0  0  0  0  0  0  0  0  0
    1.4351   -1.4044   -3.3762 H   0  0  0  0  0  0  0  0  0  0  0  0
    0.0065   -1.3149   -4.4216 H   0  0  0  0  0  0  0  0  0  0  0  0
    0.6493    0.1622   -3.6726 H   0  0  0  0  0  0  0  0  0  0  0  0
   -0.5764    0.9413    0.7112 C   0  0  0  0  0  0  0  0  0  0  0  0
   -1.5215    1.5902    0.2763 O   0  0  0  0  0  0  0  0  0  0  0  0
    0.3022    1.5361    1.5982 N   0  0  0  0  0  0  0  0  0  0  0  0
    1.0392    0.9572    1.9906 H   0  0  0  0  0  0  0  0  0  0  0  0
    0.1786    2.9188    2.0431 C   0  0  0  0  0  0  0  0  0  0  0  0
   -0.7781    3.0738    2.5525 H   0  0  0  0  0  0  0  0  0  0  0  0
    0.9854    3.1650    2.7400 H   0  0  0  0  0  0  0  0  0  0  0  0
    0.2387    3.6022    1.1897 H   0  0  0  0  0  0  0  0  0  0  0  0
  1  2  1  0  0  0  0
  2  3  1  0  0  0  0
  2  4  1  0  0  0  0
  2  5  1  0  0  0  0
  5  6  2  0  0  0  0
  5  7  1  0  0  0  0
  7  8  1  0  0  0  0
  7  9  1  0  0  0  0
  9 10  1  0  0  0  0
  9 11  1  0  0  0  0
  9 24  1  0  0  0  0
 11 12  1  0  0  0  0
 11 13  1  0  0  0  0
 11 14  1  0  0  0  0
 14 15  1  0  0  0  0
 14 16  1  0  0  0  0
 14 20  1  0  0  0  0
 16 17  1  0  0  0  0
 16 18  1  0  0  0  0
 16 19  1  0  0  0  0
 20 21  1  0  0  0  0
 20 22  1  0  0  0  0
 20 23  1  0  0  0  0
 24 25  2  0  0  0  0
 24 26  1  0  0  0  0
 26 27  1  0  0  0  0
 26 28  1  0  0  0  0
 28 29  1  0  0  0  0
 28 30  1  0  0  0  0
 28 31  1  0  0  0  0
M  END
$$$$

  -OEChem-03222214063D

 31 30  0     1  0  0  0  0  0999 V2000
   -3.4597   -3.9048    1.4408 H   0  0  0  0  0  0  0  0  0  0  0  0
   -3.4150   -2.9449    0.9188 C   0  0  0  0  0  0  0  0  0  0  0  0
   -4.0692   -2.2351    1.4308 H   0  0  0  0  0  0  0  0  0  0  0  0
   -3.7692   -3.0837   -0.1055 H   0  0  0  0  0  0  0  0  0  0  0  0
   -1.9911   -2.4217    0.9055 C   0  0  0  0  0  0  0  0  0  0  0  0
   -1.0925   -3.0835    1.4010 O   0  0  0  0  0  0  0  0  0  0  0  0
   -1.7179   -1.2000    0.3279 N   0  0  0  0  0  0  0  0  0  0  0  0
   -2.5072   -0.6449    0.0017 H   0  0  0  0  0  0  0  0  0  0  0  0
   -0.4011   -0.5466    0.3260 C   0  0  1  0  0  0  0  0  0  0  0  0
    0.2188   -0.9864    1.1141 H   0  0  0  0  0  0  0  0  0  0  0  0
    0.3675   -0.6957   -1.0144 C   0  0  0  0  0  0  0  0  0  0  0  0
    0.8661    0.2514   -1.2486 H   0  0  0  0  0  0  0  0  0  0  0  0
    1.1585   -1.4335   -0.8434 H   0  0  0  0  0  0  0  0  0  0  0  0
   -0.4220   -1.1572   -2.2636 C   0  0  0  0  0  0  0  0  0  0  0  0
   -0.8455   -2.1478   -2.0663 H   0  0  0  0  0  0  0  0  0  0  0  0
   -1.5693   -0.2040   -2.6435 C   0  0  0  0  0  0  0  0  0  0  0  0
   -1.1911    0.8164   -2.7624 H   0  0  0  0  0  0  0  0  0  0  0  0
   -2.0218   -0.5170   -3.5895 H   0  0  0  0  0  0  0  0  0  0  0  0
   -2.3587   -0.1898   -1.8905 H   0  0  0  0  0  0  0  0  0  0  0  0
    0.5413   -1.2783   -3.4505 C   0  0  0  0  0  0  0  0  0  0  0  0
    1.3488   -1.9793   -3.2175 H   0  0  0  0  0  0  0  0  0  0  0  0
    0.0133   -1.6481   -4.3350 H   0  0  0  0  0  0  0  0  0  0  0  0
    0.9826   -0.3058   -3.6911 H   0  0  0  0  0  0  0  0  0  0  0  0
   -0.5653    0.9447    0.6856 C   0  0  0  0  0  0  0  0  0  0  0  0
   -1.4949    1.5931    0.2180 O   0  0  0  0  0  0  0  0  0  0  0  0
    0.2885    1.5433    1.5938 N   0  0  0  0  0  0  0  0  0  0  0  0
    1.0107    0.9648    2.0133 H   0  0  0  0  0  0  0  0  0  0  0  0
    0.1514    2.9275    2.0299 C   0  0  0  0  0  0  0  0  0  0  0  0
   -0.8204    3.0834    2.5099 H   0  0  0  0  0  0  0  0  0  0  0  0
    0.9369    3.1764    2.7499 H   0  0  0  0  0  0  0  0  0  0  0  0
    0.2364    3.6088    1.1767 H   0  0  0  0  0  0  0  0  0  0  0  0
  1  2  1  0  0  0  0
  2  3  1  0  0  0  0
  2  4  1  0  0  0  0
  2  5  1  0  0  0  0
  5  6  2  0  0  0  0
  5  7  1  0  0  0  0
  7  8  1  0  0  0  0
  7  9  1  0  0  0  0
  9 10  1  0  0  0  0
  9 11  1  0  0  0  0
  9 24  1  0  0  0  0
 11 12  1  0  0  0  0
 11 13  1  0  0  0  0
 11 14  1  0  0  0  0
 14 15  1  0  0  0  0
 14 16  1  0  0  0  0
 14 20  1  0  0  0  0
 16 17  1  0  0  0  0
 16 18  1  0  0  0  0
 16 19  1  0  0  0  0
 20 21  1  0  0  0  0
 20 22  1  0  0  0  0
 20 23  1  0  0  0  0
 24 25  2  0  0  0  0
 24 26  1  0  0  0  0
 26 27  1  0  0  0  0
 26 28  1  0  0  0  0
 28 29  1  0  0  0  0
 28 30  1  0  0  0  0
 28 31  1  0  0  0  0
M  END
$$$$

  -OEChem-03222214063D

 31 30  0     1  0  0  0  0  0999 V2000
   -3.4719   -3.8972    1.4109 H   0  0  0  0  0  0  0  0  0  0  0  0
   -3.4220   -2.9370    0.8898 C   0  0  0  0  0  0  0  0  0  0  0  0
   -4.0787   -2.2266    1.3976 H   0  0  0  0  0  0  0  0  0  0  0  0
   -3.7695   -3.0738   -0.1369 H   0  0  0  0  0  0  0  0  0  0  0  0
   -1.9971   -2.4165    0.8871 C   0  0  0  0  0  0  0  0  0  0  0  0
   -1.1046   -3.0762    1.3962 O   0  0  0  0  0  0  0  0  0  0  0  0
   -1.7168   -1.1979    0.3063 N   0  0  0  0  0  0  0  0  0  0  0  0
   -2.5023   -0.6457   -0.0337 H   0  0  0  0  0  0  0  0  0  0  0  0
   -0.3999   -0.5429    0.3174 C   0  0  1  0  0  0  0  0  0  0  0  0
    0.2084   -0.9784    1.1169 H   0  0  0  0  0  0  0  0  0  0  0  0
    0.3855   -0.7075   -1.0114 C   0  0  0  0  0  0  0  0  0  0  0  0
    0.9003    0.2275   -1.2584 H   0  0  0  0  0  0  0  0  0  0  0  0
    1.1643   -1.4528   -0.8177 H   0  0  0  0  0  0  0  0  0  0  0  0
   -0.4165   -1.1887   -2.2445 C   0  0  0  0  0  0  0  0  0  0  0  0
   -1.0398   -2.0498   -1.9839 H   0  0  0  0  0  0  0  0  0  0  0  0
   -1.2949   -0.0631   -2.8073 C   0  0  0  0  0  0  0  0  0  0  0  0
   -0.6897    0.8156   -3.0520 H   0  0  0  0  0  0  0  0  0  0  0  0
   -1.8064   -0.3967   -3.7154 H   0  0  0  0  0  0  0  0  0  0  0  0
   -2.0566    0.2333   -2.0812 H   0  0  0  0  0  0  0  0  0  0  0  0
    0.5612   -1.6359   -3.3384 C   0  0  0  0  0  0  0  0  0  0  0  0
    1.1850   -2.4610   -2.9805 H   0  0  0  0  0  0  0  0  0  0  0  0
    0.0140   -1.9814   -4.2211 H   0  0  0  0  0  0  0  0  0  0  0  0
    1.2142   -0.8090   -3.6358 H   0  0  0  0  0  0  0  0  0  0  0  0
   -0.5625    0.9515    0.6661 C   0  0  0  0  0  0  0  0  0  0  0  0
   -1.4899    1.5988    0.1930 O   0  0  0  0  0  0  0  0  0  0  0  0
    0.2833    1.5524    1.5804 N   0  0  0  0  0  0  0  0  0  0  0  0
    0.9997    0.9739    2.0100 H   0  0  0  0  0  0  0  0  0  0  0  0
    0.1376    2.9355    2.0175 C   0  0  0  0  0  0  0  0  0  0  0  0
   -0.8353    3.0856    2.4972 H   0  0  0  0  0  0  0  0  0  0  0  0
    0.9212    3.1889    2.7379 H   0  0  0  0  0  0  0  0  0  0  0  0
    0.2192    3.6173    1.1644 H   0  0  0  0  0  0  0  0  0  0  0  0
  1  2  1  0  0  0  0
  2  3  1  0  0  0  0
  2  4  1  0  0  0  0
  2  5  1  0  0  0  0
  5  6  2  0  0  0  0
  5  7  1  0  0  0  0
  7  8  1  0  0  0  0
  7  9  1  0  0  0  0
  9 10  1  0  0  0  0
  9 11  1  0  0  0  0
  9 24  1  0  0  0  0
 11 12  1  0  0  0  0
 11 13  1  0  0  0  0
 11 14  1  0  0  0  0
 14 15  1  0  0  0  0
 14 16  1  0  0  0  0
 14 20  1  0  0  0  0
 16 17  1  0  0  0  0
 16 18  1  0  0  0  0
 16 19  1  0  0  0  0
 20 21  1  0  0  0  0
 20 22  1  0  0  0  0
 20 23  1  0  0  0  0
 24 25  2  0  0  0  0
 24 26  1  0  0  0  0
 26 27  1  0  0  0  0
 26 28  1  0  0  0  0
 28 29  1  0  0  0  0
 28 30  1  0  0  0  0
 28 31  1  0  0  0  0
M  END
$$$$

  -OEChem-03222214063D

 31 30  0     1  0  0  0  0  0999 V2000
   -3.4902   -3.8883    1.4508 H   0  0  0  0  0  0  0  0  0  0  0  0
   -3.4367   -2.9328    0.9214 C   0  0  0  0  0  0  0  0  0  0  0  0
   -4.0871   -2.2139    1.4256 H   0  0  0  0  0  0  0  0  0  0  0  0
   -3.7891   -3.0768   -0.1027 H   0  0  0  0  0  0  0  0  0  0  0  0
   -2.0091   -2.4199    0.9085 C   0  0  0  0  0  0  0  0  0  0  0  0
   -1.1174   -3.0800    1.4183 O   0  0  0  0  0  0  0  0  0  0  0  0
   -1.7256   -1.2069    0.3176 N   0  0  0  0  0  0  0  0  0  0  0  0
   -2.5097   -0.6529   -0.0233 H   0  0  0  0  0  0  0  0  0  0  0  0
   -0.4061   -0.5581    0.3200 C   0  0  1  0  0  0  0  0  0  0  0  0
    0.2032   -0.9887    1.1216 H   0  0  0  0  0  0  0  0  0  0  0  0
    0.3827   -0.7185   -1.0083 C   0  0  0  0  0  0  0  0  0  0  0  0
    0.9152    0.2091   -1.2455 H   0  0  0  0  0  0  0  0  0  0  0  0
    1.1525   -1.4700   -0.8042 H   0  0  0  0  0  0  0  0  0  0  0  0
   -0.4116   -1.1950   -2.2530 C   0  0  0  0  0  0  0  0  0  0  0  0
   -1.2193   -1.8797   -1.9820 H   0  0  0  0  0  0  0  0  0  0  0  0
   -0.9797    0.0094   -3.0141 C   0  0  0  0  0  0  0  0  0  0  0  0
   -0.1797    0.6868   -3.3291 H   0  0  0  0  0  0  0  0  0  0  0  0
   -1.5230   -0.3232   -3.9039 H   0  0  0  0  0  0  0  0  0  0  0  0
   -1.6752    0.5658   -2.3790 H   0  0  0  0  0  0  0  0  0  0  0  0
    0.5287   -1.9548   -3.1981 C   0  0  0  0  0  0  0  0  0  0  0  0
    0.9219   -2.8506   -2.7070 H   0  0  0  0  0  0  0  0  0  0  0  0
   -0.0076   -2.2695   -4.0988 H   0  0  0  0  0  0  0  0  0  0  0  0
    1.3711   -1.3231   -3.4978 H   0  0  0  0  0  0  0  0  0  0  0  0
   -0.5720    0.9378    0.6587 C   0  0  0  0  0  0  0  0  0  0  0  0
   -1.4985    1.5800    0.1765 O   0  0  0  0  0  0  0  0  0  0  0  0
    0.2735    1.5465    1.5680 N   0  0  0  0  0  0  0  0  0  0  0  0
    0.9880    0.9709    2.0044 H   0  0  0  0  0  0  0  0  0  0  0  0
    0.1276    2.9330    1.9935 C   0  0  0  0  0  0  0  0  0  0  0  0
   -0.8461    3.0873    2.4705 H   0  0  0  0  0  0  0  0  0  0  0  0
    0.9101    3.1919    2.7133 H   0  0  0  0  0  0  0  0  0  0  0  0
    0.2111    3.6078    1.1350 H   0  0  0  0  0  0  0  0  0  0  0  0
  1  2  1  0  0  0  0
  2  3  1  0  0  0  0
  2  4  1  0  0  0  0
  2  5  1  0  0  0  0
  5  6  2  0  0  0  0
  5  7  1  0  0  0  0
  7  8  1  0  0  0  0
  7  9  1  0  0  0  0
  9 10  1  0  0  0  0
  9 11  1  0  0  0  0
  9 24  1  0  0  0  0
 11 12  1  0  0  0  0
 11 13  1  0  0  0  0
 11 14  1  0  0  0  0
 14 15  1  0  0  0  0
 14 16  1  0  0  0  0
 14 20  1  0  0  0  0
 16 17  1  0  0  0  0
 16 18  1  0  0  0  0
 16 19  1  0  0  0  0
 20 21  1  0  0  0  0
 20 22  1  0  0  0  0
 20 23  1  0  0  0  0
 24 25  2  0  0  0  0
 24 26  1  0  0  0  0
 26 27  1  0  0  0  0
 26 28  1  0  0  0  0
 28 29  1  0  0  0  0
 28 30  1  0  0  0  0
 28 31  1  0  0  0  0
M  END
$$$$

  -OEChem-03222214063D

 31 30  0     1  0  0  0  0  0999 V2000
   -3.4970   -3.8976    1.4847 H   0  0  0  0  0  0  0  0  0  0  0  0
   -3.4430   -2.9521    0.9378 C   0  0  0  0  0  0  0  0  0  0  0  0
   -4.1059   -2.2289    1.4186 H   0  0  0  0  0  0  0  0  0  0  0  0
   -3.7790   -3.1186   -0.0884 H   0  0  0  0  0  0  0  0  0  0  0  0
   -2.0186   -2.4305    0.9361 C   0  0  0  0  0  0  0  0  0  0  0  0
   -1.1295   -3.0836    1.4596 O   0  0  0  0  0  0  0  0  0  0  0  0
   -1.7333   -1.2215    0.3376 N   0  0  0  0  0  0  0  0  0  0  0  0
   -2.5156   -0.6711   -0.0131 H   0  0  0  0  0  0  0  0  0  0  0  0
   -0.4119   -0.5766    0.3351 C   0  0  1  0  0  0  0  0  0  0  0  0
    0.2004   -1.0050    1.1356 H   0  0  0  0  0  0  0  0  0  0  0  0
    0.3764   -0.7223   -0.9961 C   0  0  0  0  0  0  0  0  0  0  0  0
    0.9110    0.2088   -1.2146 H   0  0  0  0  0  0  0  0  0  0  0  0
    1.1511   -1.4700   -0.7966 H   0  0  0  0  0  0  0  0  0  0  0  0
   -0.4084   -1.1836   -2.2577 C   0  0  0  0  0  0  0  0  0  0  0  0
   -1.3744   -1.6264   -2.0080 H   0  0  0  0  0  0  0  0  0  0  0  0
   -0.6407    0.0114   -3.1904 C   0  0  0  0  0  0  0  0  0  0  0  0
    0.3105    0.4407   -3.5214 H   0  0  0  0  0  0  0  0  0  0  0  0
   -1.2072   -0.2982   -4.0741 H   0  0  0  0  0  0  0  0  0  0  0  0
   -1.2114    0.7885   -2.6721 H   0  0  0  0  0  0  0  0  0  0  0  0
    0.3941   -2.2477   -3.0175 C   0  0  0  0  0  0  0  0  0  0  0  0
    0.5357   -3.1351   -2.3922 H   0  0  0  0  0  0  0  0  0  0  0  0
   -0.1377   -2.5513   -3.9247 H   0  0  0  0  0  0  0  0  0  0  0  0
    1.3776   -1.8614   -3.3037 H   0  0  0  0  0  0  0  0  0  0  0  0
   -0.5842    0.9200    0.6661 C   0  0  0  0  0  0  0  0  0  0  0  0
   -1.4997    1.5595    0.1595 O   0  0  0  0  0  0  0  0  0  0  0  0
    0.2568    1.5394    1.5723 N   0  0  0  0  0  0  0  0  0  0  0  0
    0.9774    0.9727    2.0104 H   0  0  0  0  0  0  0  0  0  0  0  0
    0.1321    2.9411    1.9525 C   0  0  0  0  0  0  0  0  0  0  0  0
   -0.8446    3.1291    2.4109 H   0  0  0  0  0  0  0  0  0  0  0  0
    0.9100    3.2074    2.6746 H   0  0  0  0  0  0  0  0  0  0  0  0
    0.2401    3.5868    1.0745 H   0  0  0  0  0  0  0  0  0  0  0  0
  1  2  1  0  0  0  0
  2  3  1  0  0  0  0
  2  4  1  0  0  0  0
  2  5  1  0  0  0  0
  5  6  2  0  0  0  0
  5  7  1  0  0  0  0
  7  8  1  0  0  0  0
  7  9  1  0  0  0  0
  9 10  1  0  0  0  0
  9 11  1  0  0  0  0
  9 24  1  0  0  0  0
 11 12  1  0  0  0  0
 11 13  1  0  0  0  0
 11 14  1  0  0  0  0
 14 15  1  0  0  0  0
 14 16  1  0  0  0  0
 14 20  1  0  0  0  0
 16 17  1  0  0  0  0
 16 18  1  0  0  0  0
 16 19  1  0  0  0  0
 20 21  1  0  0  0  0
 20 22  1  0  0  0  0
 20 23  1  0  0  0  0
 24 25  2  0  0  0  0
 24 26  1  0  0  0  0
 26 27  1  0  0  0  0
 26 28  1  0  0  0  0
 28 29  1  0  0  0  0
 28 30  1  0  0  0  0
 28 31  1  0  0  0  0
M  END
$$$$

  -OEChem-03222214063D

 31 30  0     1  0  0  0  0  0999 V2000
   -3.4831   -3.9002    1.4738 H   0  0  0  0  0  0  0  0  0  0  0  0
   -3.4295   -2.9528    0.9301 C   0  0  0  0  0  0  0  0  0  0  0  0
   -4.0932   -2.2315    1.4130 H   0  0  0  0  0  0  0  0  0  0  0  0
   -3.7656   -3.1161   -0.0967 H   0  0  0  0  0  0  0  0  0  0  0  0
   -2.0056   -2.4298    0.9304 C   0  0  0  0  0  0  0  0  0  0  0  0
   -1.1152   -3.0835    1.4509 O   0  0  0  0  0  0  0  0  0  0  0  0
   -1.7226   -1.2187    0.3354 N   0  0  0  0  0  0  0  0  0  0  0  0
   -2.5063   -0.6684   -0.0121 H   0  0  0  0  0  0  0  0  0  0  0  0
   -0.4030   -0.5704    0.3355 C   0  0  1  0  0  0  0  0  0  0  0  0
    0.2101   -0.9990    1.1351 H   0  0  0  0  0  0  0  0  0  0  0  0
    0.3850   -0.7158   -0.9964 C   0  0  0  0  0  0  0  0  0  0  0  0
    0.8965    0.2289   -1.2123 H   0  0  0  0  0  0  0  0  0  0  0  0
    1.1803   -1.4443   -0.8065 H   0  0  0  0  0  0  0  0  0  0  0  0
   -0.4007   -1.1788   -2.2591 C   0  0  0  0  0  0  0  0  0  0  0  0
   -1.4616   -1.3229   -2.0478 H   0  0  0  0  0  0  0  0  0  0  0  0
   -0.3119   -0.1087   -3.3532 C   0  0  0  0  0  0  0  0  0  0  0  0
    0.7288    0.0618   -3.6468 H   0  0  0  0  0  0  0  0  0  0  0  0
   -0.8751   -0.4201   -4.2383 H   0  0  0  0  0  0  0  0  0  0  0  0
   -0.7328    0.8358   -2.9931 H   0  0  0  0  0  0  0  0  0  0  0  0
    0.1527   -2.5082   -2.7853 C   0  0  0  0  0  0  0  0  0  0  0  0
    0.0654   -3.2844   -2.0181 H   0  0  0  0  0  0  0  0  0  0  0  0
   -0.4089   -2.8325   -3.6670 H   0  0  0  0  0  0  0  0  0  0  0  0
    1.2068   -2.4073   -3.0629 H   0  0  0  0  0  0  0  0  0  0  0  0
   -0.5809    0.9248    0.6702 C   0  0  0  0  0  0  0  0  0  0  0  0
   -1.4941    1.5630    0.1578 O   0  0  0  0  0  0  0  0  0  0  0  0
    0.2563    1.5457    1.5788 N   0  0  0  0  0  0  0  0  0  0  0  0
    0.9747    0.9797    2.0213 H   0  0  0  0  0  0  0  0  0  0  0  0
    0.1262    2.9464    1.9609 C   0  0  0  0  0  0  0  0  0  0  0  0
   -0.8523    3.1309    2.4165 H   0  0  0  0  0  0  0  0  0  0  0  0
    0.9009    3.2141    2.6858 H   0  0  0  0  0  0  0  0  0  0  0  0
    0.2351    3.5934    1.0841 H   0  0  0  0  0  0  0  0  0  0  0  0
  1  2  1  0  0  0  0
  2  3  1  0  0  0  0
  2  4  1  0  0  0  0
  2  5  1  0  0  0  0
  5  6  2  0  0  0  0
  5  7  1  0  0  0  0
  7  8  1  0  0  0  0
  7  9  1  0  0  0  0
  9 10  1  0  0  0  0
  9 11  1  0  0  0  0
  9 24  1  0  0  0  0
 11 12  1  0  0  0  0
 11 13  1  0  0  0  0
 11 14  1  0  0  0  0
 14 15  1  0  0  0  0
 14 16  1  0  0  0  0
 14 20  1  0  0  0  0
 16 17  1  0  0  0  0
 16 18  1  0  0  0  0
 16 19  1  0  0  0  0
 20 21  1  0  0  0  0
 20 22  1  0  0  0  0
 20 23  1  0  0  0  0
 24 25  2  0  0  0  0
 24 26  1  0  0  0  0
 26 27  1  0  0  0  0
 26 28  1  0  0  0  0
 28 29  1  0  0  0  0
 28 30  1  0  0  0  0
 28 31  1  0  0  0  0
M  END
$$$$

  -OEChem-03222214063D

 31 30  0     1  0  0  0  0  0999 V2000
   -3.4703   -3.8999    1.4430 H   0  0  0  0  0  0  0  0  0  0  0  0
   -3.4138   -2.9497    0.9046 C   0  0  0  0  0  0  0  0  0  0  0  0
   -4.0772   -2.2296    1.3897 H   0  0  0  0  0  0  0  0  0  0  0  0
   -3.7474   -3.1064   -0.1240 H   0  0  0  0  0  0  0  0  0  0  0  0
   -1.9893   -2.4283    0.9120 C   0  0  0  0  0  0  0  0  0  0  0  0
   -1.1019   -3.0827    1.4364 O   0  0  0  0  0  0  0  0  0  0  0  0
   -1.7037   -1.2156    0.3218 N   0  0  0  0  0  0  0  0  0  0  0  0
   -2.4863   -0.6656   -0.0289 H   0  0  0  0  0  0  0  0  0  0  0  0
   -0.3850   -0.5634    0.3333 C   0  0  1  0  0  0  0  0  0  0  0  0
    0.2248   -0.9929    1.1351 H   0  0  0  0  0  0  0  0  0  0  0  0
    0.4053   -0.7131   -0.9963 C   0  0  0  0  0  0  0  0  0  0  0  0
    0.8912    0.2433   -1.2186 H   0  0  0  0  0  0  0  0  0  0  0  0
    1.2171   -1.4268   -0.8207 H   0  0  0  0  0  0  0  0  0  0  0  0
   -0.3950   -1.1800   -2.2436 C   0  0  0  0  0  0  0  0  0  0  0  0
   -1.4668   -1.0271   -2.0937 H   0  0  0  0  0  0  0  0  0  0  0  0
   -0.0240   -0.3291   -3.4632 C   0  0  0  0  0  0  0  0  0  0  0  0
    1.0447   -0.4157   -3.6838 H   0  0  0  0  0  0  0  0  0  0  0  0
   -0.5883   -0.6571   -4.3417 H   0  0  0  0  0  0  0  0  0  0  0  0
   -0.2596    0.7241   -3.2793 H   0  0  0  0  0  0  0  0  0  0  0  0
   -0.1519   -2.6670   -2.5263 C   0  0  0  0  0  0  0  0  0  0  0  0
   -0.4249   -3.2700   -1.6545 H   0  0  0  0  0  0  0  0  0  0  0  0
   -0.7577   -2.9964   -3.3759 H   0  0  0  0  0  0  0  0  0  0  0  0
    0.9017   -2.8500   -2.7599 H   0  0  0  0  0  0  0  0  0  0  0  0
   -0.5681    0.9310    0.6692 C   0  0  0  0  0  0  0  0  0  0  0  0
   -1.4810    1.5667    0.1533 O   0  0  0  0  0  0  0  0  0  0  0  0
    0.2608    1.5526    1.5851 N   0  0  0  0  0  0  0  0  0  0  0  0
    0.9780    0.9877    2.0311 H   0  0  0  0  0  0  0  0  0  0  0  0
    0.1201    2.9508    1.9727 C   0  0  0  0  0  0  0  0  0  0  0  0
   -0.8614    3.1269    2.4251 H   0  0  0  0  0  0  0  0  0  0  0  0
    0.8900    3.2205    2.7018 H   0  0  0  0  0  0  0  0  0  0  0  0
    0.2281    3.6024    1.0993 H   0  0  0  0  0  0  0  0  0  0  0  0
  1  2  1  0  0  0  0
  2  3  1  0  0  0  0
  2  4  1  0  0  0  0
  2  5  1  0  0  0  0
  5  6  2  0  0  0  0
  5  7  1  0  0  0  0
  7  8  1  0  0  0  0
  7  9  1  0  0  0  0
  9 10  1  0  0  0  0
  9 11  1  0  0  0  0
  9 24  1  0  0  0  0
 11 12  1  0  0  0  0
 11 13  1  0  0  0  0
 11 14  1  0  0  0  0
 14 15  1  0  0  0  0
 14 16  1  0  0  0  0
 14 20  1  0  0  0  0
 16 17  1  0  0  0  0
 16 18  1  0  0  0  0
 16 19  1  0  0  0  0
 20 21  1  0  0  0  0
 20 22  1  0  0  0  0
 20 23  1  0  0  0  0
 24 25  2  0  0  0  0
 24 26  1  0  0  0  0
 26 27  1  0  0  0  0
 26 28  1  0  0  0  0
 28 29  1  0  0  0  0
 28 30  1  0  0  0  0
 28 31  1  0  0  0  0
M  END
$$$$

  -OEChem-03222214063D

 31 30  0     1  0  0  0  0  0999 V2000
   -3.4933   -3.8832    1.4761 H   0  0  0  0  0  0  0  0  0  0  0  0
   -3.4295   -2.9369    0.9316 C   0  0  0  0  0  0  0  0  0  0  0  0
   -4.0900   -2.2100    1.4103 H   0  0  0  0  0  0  0  0  0  0  0  0
   -3.7608   -3.0990   -0.0969 H   0  0  0  0  0  0  0  0  0  0  0  0
   -2.0022   -2.4238    0.9399 C   0  0  0  0  0  0  0  0  0  0  0  0
   -1.1223   -3.0755    1.4804 O   0  0  0  0  0  0  0  0  0  0  0  0
   -1.7055   -1.2204    0.3355 N   0  0  0  0  0  0  0  0  0  0  0  0
   -2.4824   -0.6708   -0.0280 H   0  0  0  0  0  0  0  0  0  0  0  0
   -0.3820   -0.5773    0.3445 C   0  0  1  0  0  0  0  0  0  0  0  0
    0.2270   -1.0034    1.1483 H   0  0  0  0  0  0  0  0  0  0  0  0
    0.4068   -0.7255   -0.9866 C   0  0  0  0  0  0  0  0  0  0  0  0
    0.8911    0.2314   -1.2106 H   0  0  0  0  0  0  0  0  0  0  0  0
    1.2157   -1.4447   -0.8212 H   0  0  0  0  0  0  0  0  0  0  0  0
   -0.4017   -1.1824   -2.2270 C   0  0  0  0  0  0  0  0  0  0  0  0
   -1.4254   -0.7997   -2.1644 H   0  0  0  0  0  0  0  0  0  0  0  0
    0.2225   -0.5968   -3.4991 C   0  0  0  0  0  0  0  0  0  0  0  0
    1.2624   -0.9218   -3.6046 H   0  0  0  0  0  0  0  0  0  0  0  0
   -0.3353   -0.9226   -4.3826 H   0  0  0  0  0  0  0  0  0  0  0  0
    0.1999    0.4971   -3.4664 H   0  0  0  0  0  0  0  0  0  0  0  0
   -0.4353   -2.7129   -2.3466 C   0  0  0  0  0  0  0  0  0  0  0  0
   -0.8660   -3.1678   -1.4522 H   0  0  0  0  0  0  0  0  0  0  0  0
   -1.0421   -3.0121   -3.2067 H   0  0  0  0  0  0  0  0  0  0  0  0
    0.5753   -3.1112   -2.4804 H   0  0  0  0  0  0  0  0  0  0  0  0
   -0.5628    0.9217    0.6626 C   0  0  0  0  0  0  0  0  0  0  0  0
   -1.4711    1.5549    0.1354 O   0  0  0  0  0  0  0  0  0  0  0  0
    0.2641    1.5501    1.5757 N   0  0  0  0  0  0  0  0  0  0  0  0
    0.9758    0.9868    2.0324 H   0  0  0  0  0  0  0  0  0  0  0  0
    0.1220    2.9506    1.9540 C   0  0  0  0  0  0  0  0  0  0  0  0
   -0.8596    3.1280    2.4057 H   0  0  0  0  0  0  0  0  0  0  0  0
    0.8923    3.2254    2.6810 H   0  0  0  0  0  0  0  0  0  0  0  0
    0.2291    3.5971    1.0765 H   0  0  0  0  0  0  0  0  0  0  0  0
  1  2  1  0  0  0  0
  2  3  1  0  0  0  0
  2  4  1  0  0  0  0
  2  5  1  0  0  0  0
  5  6  2  0  0  0  0
  5  7  1  0  0  0  0
  7  8  1  0  0  0  0
  7  9  1  0  0  0  0
  9 10  1  0  0  0  0
  9 11  1  0  0  0  0
  9 24  1  0  0  0  0
 11 12  1  0  0  0  0
 11 13  1  0  0  0  0
 11 14  1  0  0  0  0
 14 15  1  0  0  0  0
 14 16  1  0  0  0  0
 14 20  1  0  0  0  0
 16 17  1  0  0  0  0
 16 18  1  0  0  0  0
 16 19  1  0  0  0  0
 20 21  1  0  0  0  0
 20 22  1  0  0  0  0
 20 23  1  0  0  0  0
 24 25  2  0  0  0  0
 24 26  1  0  0  0  0
 26 27  1  0  0  0  0
 26 28  1  0  0  0  0
 28 29  1  0  0  0  0
 28 30  1  0  0  0  0
 28 31  1  0  0  0  0
M  END
$$$$

  -OEChem-03222214063D

 31 30  0     1  0  0  0  0  0999 V2000
   -3.5157   -3.8651    1.5769 H   0  0  0  0  0  0  0  0  0  0  0  0
   -3.4559   -2.9183    1.0329 C   0  0  0  0  0  0  0  0  0  0  0  0
   -4.0968   -2.1854    1.5289 H   0  0  0  0  0  0  0  0  0  0  0  0
   -3.8139   -3.0749    0.0125 H   0  0  0  0  0  0  0  0  0  0  0  0
   -2.0236   -2.4192    1.0072 C   0  0  0  0  0  0  0  0  0  0  0  0
   -1.1391   -3.0731    1.5374 O   0  0  0  0  0  0  0  0  0  0  0  0
   -1.7284   -1.2253    0.3819 N   0  0  0  0  0  0  0  0  0  0  0  0
   -2.5068   -0.6725    0.0263 H   0  0  0  0  0  0  0  0  0  0  0  0
   -0.4002   -0.5961    0.3599 C   0  0  1  0  0  0  0  0  0  0  0  0
    0.2199   -1.0185    1.1572 H   0  0  0  0  0  0  0  0  0  0  0  0
    0.3747   -0.7369   -0.9812 C   0  0  0  0  0  0  0  0  0  0  0  0
    0.8682    0.2168   -1.1990 H   0  0  0  0  0  0  0  0  0  0  0  0
    1.1748   -1.4667   -0.8209 H   0  0  0  0  0  0  0  0  0  0  0  0
   -0.4152   -1.1790   -2.2390 C   0  0  0  0  0  0  0  0  0  0  0  0
   -1.3486   -0.6098   -2.3066 H   0  0  0  0  0  0  0  0  0  0  0  0
    0.4395   -0.8833   -3.4800 C   0  0  0  0  0  0  0  0  0  0  0  0
    1.3851   -1.4338   -3.4406 H   0  0  0  0  0  0  0  0  0  0  0  0
   -0.0938   -1.1716   -4.3914 H   0  0  0  0  0  0  0  0  0  0  0  0
    0.6622    0.1863   -3.5445 H   0  0  0  0  0  0  0  0  0  0  0  0
   -0.7200   -2.6882   -2.2652 C   0  0  0  0  0  0  0  0  0  0  0  0
   -1.4518   -2.9671   -1.5088 H   0  0  0  0  0  0  0  0  0  0  0  0
   -1.1332   -2.9757   -3.2372 H   0  0  0  0  0  0  0  0  0  0  0  0
    0.1921   -3.2684   -2.0935 H   0  0  0  0  0  0  0  0  0  0  0  0
   -0.5741    0.9067    0.6654 C   0  0  0  0  0  0  0  0  0  0  0  0
   -1.4874    1.5381    0.1444 O   0  0  0  0  0  0  0  0  0  0  0  0
    0.2689    1.5424    1.5586 N   0  0  0  0  0  0  0  0  0  0  0  0
    0.9867    0.9822    2.0096 H   0  0  0  0  0  0  0  0  0  0  0  0
    0.1365    2.9474    1.9236 C   0  0  0  0  0  0  0  0  0  0  0  0
   -0.8415    3.1340    2.3797 H   0  0  0  0  0  0  0  0  0  0  0  0
    0.9125    3.2261    2.6429 H   0  0  0  0  0  0  0  0  0  0  0  0
    0.2409    3.5842    1.0389 H   0  0  0  0  0  0  0  0  0  0  0  0
  1  2  1  0  0  0  0
  2  3  1  0  0  0  0
  2  4  1  0  0  0  0
  2  5  1  0  0  0  0
  5  6  2  0  0  0  0
  5  7  1  0  0  0  0
  7  8  1  0  0  0  0
  7  9  1  0  0  0  0
  9 10  1  0  0  0  0
  9 11  1  0  0  0  0
  9 24  1  0  0  0  0
 11 12  1  0  0  0  0
 11 13  1  0  0  0  0
 11 14  1  0  0  0  0
 14 15  1  0  0  0  0
 14 16  1  0  0  0  0
 14 20  1  0  0  0  0
 16 17  1  0  0  0  0
 16 18  1  0  0  0  0
 16 19  1  0  0  0  0
 20 21  1  0  0  0  0
 20 22  1  0  0  0  0
 20 23  1  0  0  0  0
 24 25  2  0  0  0  0
 24 26  1  0  0  0  0
 26 27  1  0  0  0  0
 26 28  1  0  0  0  0
 28 29  1  0  0  0  0
 28 30  1  0  0  0  0
 28 31  1  0  0  0  0
M  END
$$$$

  -OEChem-03222214063D

 31 30  0     1  0  0  0  0  0999 V2000
   -3.4476   -3.8822    1.6604 H   0  0  0  0  0  0  0  0  0  0  0  0
   -3.4075   -2.9603    1.0737 C   0  0  0  0  0  0  0  0  0  0  0  0
   -4.0602   -2.2182    1.5397 H   0  0  0  0  0  0  0  0  0  0  0  0
   -3.7668   -3.1689    0.0631 H   0  0  0  0  0  0  0  0  0  0  0  0
   -1.9847   -2.4372    1.0174 C   0  0  0  0  0  0  0  0  0  0  0  0
   -1.0749   -3.0888    1.5059 O   0  0  0  0  0  0  0  0  0  0  0  0
   -1.7258   -1.2278    0.4074 N   0  0  0  0  0  0  0  0  0  0  0  0
   -2.5212   -0.6820    0.0801 H   0  0  0  0  0  0  0  0  0  0  0  0
   -0.4101   -0.5827    0.3521 C   0  0  1  0  0  0  0  0  0  0  0  0
    0.2372   -1.0092    1.1252 H   0  0  0  0  0  0  0  0  0  0  0  0
    0.3298   -0.7057   -1.0067 C   0  0  0  0  0  0  0  0  0  0  0  0
    1.0319    0.1307   -1.0938 H   0  0  0  0  0  0  0  0  0  0  0  0
    0.9341   -1.6171   -0.9434 H   0  0  0  0  0  0  0  0  0  0  0  0
   -0.4883   -0.8012   -2.3240 C   0  0  0  0  0  0  0  0  0  0  0  0
   -1.0820    0.1115   -2.4447 H   0  0  0  0  0  0  0  0  0  0  0  0
    0.5139   -0.9067   -3.4839 C   0  0  0  0  0  0  0  0  0  0  0  0
    1.0977   -1.8300   -3.4106 H   0  0  0  0  0  0  0  0  0  0  0  0
   -0.0087   -0.9006   -4.4456 H   0  0  0  0  0  0  0  0  0  0  0  0
    1.2039   -0.0572   -3.4718 H   0  0  0  0  0  0  0  0  0  0  0  0
   -1.4193   -2.0242   -2.4333 C   0  0  0  0  0  0  0  0  0  0  0  0
   -2.3700   -1.8405   -1.9284 H   0  0  0  0  0  0  0  0  0  0  0  0
   -1.6554   -2.2404   -3.4799 H   0  0  0  0  0  0  0  0  0  0  0  0
   -0.9467   -2.9104   -1.9977 H   0  0  0  0  0  0  0  0  0  0  0  0
   -0.5804    0.9128    0.6905 C   0  0  0  0  0  0  0  0  0  0  0  0
   -1.5148    1.5486    0.2143 O   0  0  0  0  0  0  0  0  0  0  0  0
    0.2906    1.5377    1.5642 N   0  0  0  0  0  0  0  0  0  0  0  0
    1.0236    0.9727    1.9837 H   0  0  0  0  0  0  0  0  0  0  0  0
    0.1652    2.9361    1.9561 C   0  0  0  0  0  0  0  0  0  0  0  0
   -0.8007    3.1136    2.4405 H   0  0  0  0  0  0  0  0  0  0  0  0
    0.9592    3.2041    2.6596 H   0  0  0  0  0  0  0  0  0  0  0  0
    0.2454    3.5878    1.0797 H   0  0  0  0  0  0  0  0  0  0  0  0
  1  2  1  0  0  0  0
  2  3  1  0  0  0  0
  2  4  1  0  0  0  0
  2  5  1  0  0  0  0
  5  6  2  0  0  0  0
  5  7  1  0  0  0  0
  7  8  1  0  0  0  0
  7  9  1  0  0  0  0
  9 10  1  0  0  0  0
  9 11  1  0  0  0  0
  9 24  1  0  0  0  0
 11 12  1  0  0  0  0
 11 13  1  0  0  0  0
 11 14  1  0  0  0  0
 14 15  1  0  0  0  0
 14 16  1  0  0  0  0
 14 20  1  0  0  0  0
 16 17  1  0  0  0  0
 16 18  1  0  0  0  0
 16 19  1  0  0  0  0
 20 21  1  0  0  0  0
 20 22  1  0  0  0  0
 20 23  1  0  0  0  0
 24 25  2  0  0  0  0
 24 26  1  0  0  0  0
 26 27  1  0  0  0  0
 26 28  1  0  0  0  0
 28 29  1  0  0  0  0
 28 30  1  0  0  0  0
 28 31  1  0  0  0  0
M  END
$$$$

  -OEChem-03222214063D

 31 30  0     1  0  0  0  0  0999 V2000
   -3.4375   -3.8904    1.7120 H   0  0  0  0  0  0  0  0  0  0  0  0
   -3.4128   -2.9476    1.1587 C   0  0  0  0  0  0  0  0  0  0  0  0
   -4.0363   -2.2169    1.6794 H   0  0  0  0  0  0  0  0  0  0  0  0
   -3.8176   -3.1148    0.1578 H   0  0  0  0  0  0  0  0  0  0  0  0
   -1.9883   -2.4365    1.0605 C   0  0  0  0  0  0  0  0  0  0  0  0
   -1.0695   -3.0949    1.5224 O   0  0  0  0  0  0  0  0  0  0  0  0
   -1.7386   -1.2280    0.4461 N   0  0  0  0  0  0  0  0  0  0  0  0
   -2.5400   -0.6756    0.1448 H   0  0  0  0  0  0  0  0  0  0  0  0
   -0.4223   -0.5881    0.3581 C   0  0  1  0  0  0  0  0  0  0  0  0
    0.2384   -1.0153    1.1197 H   0  0  0  0  0  0  0  0  0  0  0  0
    0.3048   -0.7006   -1.0114 C   0  0  0  0  0  0  0  0  0  0  0  0
    1.0245    0.1212   -1.0949 H   0  0  0  0  0  0  0  0  0  0  0  0
    0.8924   -1.6222   -0.9395 H   0  0  0  0  0  0  0  0  0  0  0  0
   -0.4809   -0.7897   -2.3540 C   0  0  0  0  0  0  0  0  0  0  0  0
   -0.8479    0.2112   -2.6063 H   0  0  0  0  0  0  0  0  0  0  0  0
    0.5048   -1.2585   -3.4366 C   0  0  0  0  0  0  0  0  0  0  0  0
    0.8412   -2.2822   -3.2416 H   0  0  0  0  0  0  0  0  0  0  0  0
    0.0334   -1.2303   -4.4242 H   0  0  0  0  0  0  0  0  0  0  0  0
    1.3816   -0.6038   -3.4630 H   0  0  0  0  0  0  0  0  0  0  0  0
   -1.6709   -1.7634   -2.4070 C   0  0  0  0  0  0  0  0  0  0  0  0
   -2.5478   -1.3328   -1.9176 H   0  0  0  0  0  0  0  0  0  0  0  0
   -1.9568   -1.9693   -3.4434 H   0  0  0  0  0  0  0  0  0  0  0  0
   -1.4145   -2.7130   -1.9271 H   0  0  0  0  0  0  0  0  0  0  0  0
   -0.5878    0.9058    0.7038 C   0  0  0  0  0  0  0  0  0  0  0  0
   -1.5390    1.5387    0.2576 O   0  0  0  0  0  0  0  0  0  0  0  0
    0.3028    1.5299    1.5579 N   0  0  0  0  0  0  0  0  0  0  0  0
    1.0420    0.9627    1.9634 H   0  0  0  0  0  0  0  0  0  0  0  0
    0.1678    2.9189    1.9787 C   0  0  0  0  0  0  0  0  0  0  0  0
   -0.7801    3.0689    2.5059 H   0  0  0  0  0  0  0  0  0  0  0  0
    0.9856    3.1910    2.6529 H   0  0  0  0  0  0  0  0  0  0  0  0
    0.1988    3.5862    1.1111 H   0  0  0  0  0  0  0  0  0  0  0  0
  1  2  1  0  0  0  0
  2  3  1  0  0  0  0
  2  4  1  0  0  0  0
  2  5  1  0  0  0  0
  5  6  2  0  0  0  0
  5  7  1  0  0  0  0
  7  8  1  0  0  0  0
  7  9  1  0  0  0  0
  9 10  1  0  0  0  0
  9 11  1  0  0  0  0
  9 24  1  0  0  0  0
 11 12  1  0  0  0  0
 11 13  1  0  0  0  0
 11 14  1  0  0  0  0
 14 15  1  0  0  0  0
 14 16  1  0  0  0  0
 14 20  1  0  0  0  0
 16 17  1  0  0  0  0
 16 18  1  0  0  0  0
 16 19  1  0  0  0  0
 20 21  1  0  0  0  0
 20 22  1  0  0  0  0
 20 23  1  0  0  0  0
 24 25  2  0  0  0  0
 24 26  1  0  0  0  0
 26 27  1  0  0  0  0
 26 28  1  0  0  0  0
 28 29  1  0  0  0  0
 28 30  1  0  0  0  0
 28 31  1  0  0  0  0
M  END
$$$$

  -OEChem-03222214063D

 31 30  0     1  0  0  0  0  0999 V2000
   -3.4366   -3.9006    1.7409 H   0  0  0  0  0  0  0  0  0  0  0  0
   -3.4180   -2.9507    1.1995 C   0  0  0  0  0  0  0  0  0  0  0  0
   -4.0332   -2.2259    1.7380 H   0  0  0  0  0  0  0  0  0  0  0  0
   -3.8369   -3.1047    0.2022 H   0  0  0  0  0  0  0  0  0  0  0  0
   -1.9942   -2.4403    1.0880 C   0  0  0  0  0  0  0  0  0  0  0  0
   -1.0716   -3.0998    1.5407 O   0  0  0  0  0  0  0  0  0  0  0  0
   -1.7494   -1.2312    0.4724 N   0  0  0  0  0  0  0  0  0  0  0  0
   -2.5533   -0.6762    0.1828 H   0  0  0  0  0  0  0  0  0  0  0  0
   -0.4331   -0.5922    0.3751 C   0  0  1  0  0  0  0  0  0  0  0  0
    0.2303   -1.0193    1.1344 H   0  0  0  0  0  0  0  0  0  0  0  0
    0.2935   -0.7012   -0.9969 C   0  0  0  0  0  0  0  0  0  0  0  0
    1.0243    0.1111   -1.0734 H   0  0  0  0  0  0  0  0  0  0  0  0
    0.8737   -1.6261   -0.9105 H   0  0  0  0  0  0  0  0  0  0  0  0
   -0.4614   -0.7892   -2.3624 C   0  0  0  0  0  0  0  0  0  0  0  0
   -0.5642    0.2331   -2.7420 H   0  0  0  0  0  0  0  0  0  0  0  0
    0.4032   -1.5986   -3.3414 C   0  0  0  0  0  0  0  0  0  0  0  0
    0.4746   -2.6440   -3.0237 H   0  0  0  0  0  0  0  0  0  0  0  0
   -0.0265   -1.5708   -4.3476 H   0  0  0  0  0  0  0  0  0  0  0  0
    1.4134   -1.1804   -3.3930 H   0  0  0  0  0  0  0  0  0  0  0  0
   -1.8622   -1.4178   -2.3900 C   0  0  0  0  0  0  0  0  0  0  0  0
   -2.5828   -0.7761   -1.8755 H   0  0  0  0  0  0  0  0  0  0  0  0
   -2.2096   -1.5288   -3.4220 H   0  0  0  0  0  0  0  0  0  0  0  0
   -1.8531   -2.4087   -1.9255 H   0  0  0  0  0  0  0  0  0  0  0  0
   -0.5968    0.9014    0.7236 C   0  0  0  0  0  0  0  0  0  0  0  0
   -1.5510    1.5345    0.2843 O   0  0  0  0  0  0  0  0  0  0  0  0
    0.2996    1.5252    1.5719 N   0  0  0  0  0  0  0  0  0  0  0  0
    1.0433    0.9587    1.9699 H   0  0  0  0  0  0  0  0  0  0  0  0
    0.1731    2.9166    1.9871 C   0  0  0  0  0  0  0  0  0  0  0  0
   -0.7701    3.0734    2.5209 H   0  0  0  0  0  0  0  0  0  0  0  0
    0.9970    3.1886    2.6538 H   0  0  0  0  0  0  0  0  0  0  0  0
    0.1999    3.5798    1.1162 H   0  0  0  0  0  0  0  0  0  0  0  0
  1  2  1  0  0  0  0
  2  3  1  0  0  0  0
  2  4  1  0  0  0  0
  2  5  1  0  0  0  0
  5  6  2  0  0  0  0
  5  7  1  0  0  0  0
  7  8  1  0  0  0  0
  7  9  1  0  0  0  0
  9 10  1  0  0  0  0
  9 11  1  0  0  0  0
  9 24  1  0  0  0  0
 11 12  1  0  0  0  0
 11 13  1  0  0  0  0
 11 14  1  0  0  0  0
 14 15  1  0  0  0  0
 14 16  1  0  0  0  0
 14 20  1  0  0  0  0
 16 17  1  0  0  0  0
 16 18  1  0  0  0  0
 16 19  1  0  0  0  0
 20 21  1  0  0  0  0
 20 22  1  0  0  0  0
 20 23  1  0  0  0  0
 24 25  2  0  0  0  0
 24 26  1  0  0  0  0
 26 27  1  0  0  0  0
 26 28  1  0  0  0  0
 28 29  1  0  0  0  0
 28 30  1  0  0  0  0
 28 31  1  0  0  0  0
M  END
$$$$

  -OEChem-03222214063D

 31 30  0     1  0  0  0  0  0999 V2000
   -3.4192   -3.9095    1.7592 H   0  0  0  0  0  0  0  0  0  0  0  0
   -3.4022   -2.9686    1.2024 C   0  0  0  0  0  0  0  0  0  0  0  0
   -4.0220   -2.2377    1.7273 H   0  0  0  0  0  0  0  0  0  0  0  0
   -3.8172   -3.1399    0.2063 H   0  0  0  0  0  0  0  0  0  0  0  0
   -1.9798   -2.4543    1.0875 C   0  0  0  0  0  0  0  0  0  0  0  0
   -1.0536   -3.1116    1.5361 O   0  0  0  0  0  0  0  0  0  0  0  0
   -1.7417   -1.2401    0.4796 N   0  0  0  0  0  0  0  0  0  0  0  0
   -2.5489   -0.6903    0.1900 H   0  0  0  0  0  0  0  0  0  0  0  0
   -0.4292   -0.5914    0.3852 C   0  0  1  0  0  0  0  0  0  0  0  0
    0.2365   -1.0192    1.1418 H   0  0  0  0  0  0  0  0  0  0  0  0
    0.2948   -0.6978   -0.9880 C   0  0  0  0  0  0  0  0  0  0  0  0
    1.0142    0.1247   -1.0650 H   0  0  0  0  0  0  0  0  0  0  0  0
    0.8935   -1.6104   -0.8992 H   0  0  0  0  0  0  0  0  0  0  0  0
   -0.4584   -0.7912   -2.3573 C   0  0  0  0  0  0  0  0  0  0  0  0
   -0.2981    0.1700   -2.8579 H   0  0  0  0  0  0  0  0  0  0  0  0
    0.1837   -1.8849   -3.2229 C   0  0  0  0  0  0  0  0  0  0  0  0
    0.0301   -2.8720   -2.7745 H   0  0  0  0  0  0  0  0  0  0  0  0
   -0.2546   -1.8874   -4.2259 H   0  0  0  0  0  0  0  0  0  0  0  0
    1.2596   -1.7099   -3.3228 H   0  0  0  0  0  0  0  0  0  0  0  0
   -1.9767   -1.0161   -2.3660 C   0  0  0  0  0  0  0  0  0  0  0  0
   -2.4871   -0.2285   -1.8039 H   0  0  0  0  0  0  0  0  0  0  0  0
   -2.3542   -0.9839   -3.3929 H   0  0  0  0  0  0  0  0  0  0  0  0
   -2.2312   -1.9934   -1.9454 H   0  0  0  0  0  0  0  0  0  0  0  0
   -0.5964    0.9002    0.7418 C   0  0  0  0  0  0  0  0  0  0  0  0
   -1.5546    1.5332    0.3112 O   0  0  0  0  0  0  0  0  0  0  0  0
    0.2999    1.5218    1.5921 N   0  0  0  0  0  0  0  0  0  0  0  0
    1.0466    0.9555    1.9846 H   0  0  0  0  0  0  0  0  0  0  0  0
    0.1718    2.9114    2.0135 C   0  0  0  0  0  0  0  0  0  0  0  0
   -0.7703    3.0640    2.5502 H   0  0  0  0  0  0  0  0  0  0  0  0
    0.9971    3.1822    2.6790 H   0  0  0  0  0  0  0  0  0  0  0  0
    0.1951    3.5786    1.1454 H   0  0  0  0  0  0  0  0  0  0  0  0
  1  2  1  0  0  0  0
  2  3  1  0  0  0  0
  2  4  1  0  0  0  0
  2  5  1  0  0  0  0
  5  6  2  0  0  0  0
  5  7  1  0  0  0  0
  7  8  1  0  0  0  0
  7  9  1  0  0  0  0
  9 10  1  0  0  0  0
  9 11  1  0  0  0  0
  9 24  1  0  0  0  0
 11 12  1  0  0  0  0
 11 13  1  0  0  0  0
 11 14  1  0  0  0  0
 14 15  1  0  0  0  0
 14 16  1  0  0  0  0
 14 20  1  0  0  0  0
 16 17  1  0  0  0  0
 16 18  1  0  0  0  0
 16 19  1  0  0  0  0
 20 21  1  0  0  0  0
 20 22  1  0  0  0  0
 20 23  1  0  0  0  0
 24 25  2  0  0  0  0
 24 26  1  0  0  0  0
 26 27  1  0  0  0  0
 26 28  1  0  0  0  0
 28 29  1  0  0  0  0
 28 30  1  0  0  0  0
 28 31  1  0  0  0  0
M  END
$$$$

  -OEChem-03222214063D

 31 30  0     1  0  0  0  0  0999 V2000
   -3.3845   -3.9295    1.6728 H   0  0  0  0  0  0  0  0  0  0  0  0
   -3.3776   -2.9767    1.1362 C   0  0  0  0  0  0  0  0  0  0  0  0
   -4.0161   -2.2681    1.6690 H   0  0  0  0  0  0  0  0  0  0  0  0
   -3.7779   -3.1344    0.1319 H   0  0  0  0  0  0  0  0  0  0  0  0
   -1.9631   -2.4362    1.0486 C   0  0  0  0  0  0  0  0  0  0  0  0
   -1.0320   -3.0871    1.4963 O   0  0  0  0  0  0  0  0  0  0  0  0
   -1.7366   -1.2109    0.4589 N   0  0  0  0  0  0  0  0  0  0  0  0
   -2.5479   -0.6708    0.1632 H   0  0  0  0  0  0  0  0  0  0  0  0
   -0.4314   -0.5459    0.3782 C   0  0  1  0  0  0  0  0  0  0  0  0
    0.2298   -0.9761    1.1375 H   0  0  0  0  0  0  0  0  0  0  0  0
    0.2927   -0.6843   -0.9903 C   0  0  0  0  0  0  0  0  0  0  0  0
    0.9792    0.1634   -1.0912 H   0  0  0  0  0  0  0  0  0  0  0  0
    0.9287   -1.5699   -0.8883 H   0  0  0  0  0  0  0  0  0  0  0  0
   -0.4767   -0.8200   -2.3467 C   0  0  0  0  0  0  0  0  0  0  0  0
   -0.0873   -0.0181   -2.9837 H   0  0  0  0  0  0  0  0  0  0  0  0
   -0.1141   -2.1443   -3.0321 C   0  0  0  0  0  0  0  0  0  0  0  0
   -0.4592   -2.9923   -2.4317 H   0  0  0  0  0  0  0  0  0  0  0  0
   -0.5811   -2.2052   -4.0202 H   0  0  0  0  0  0  0  0  0  0  0  0
    0.9696   -2.2260   -3.1621 H   0  0  0  0  0  0  0  0  0  0  0  0
   -2.0024   -0.6443   -2.3645 C   0  0  0  0  0  0  0  0  0  0  0  0
   -2.2976    0.2535   -1.8153 H   0  0  0  0  0  0  0  0  0  0  0  0
   -2.3498   -0.5328   -3.3962 H   0  0  0  0  0  0  0  0  0  0  0  0
   -2.5080   -1.5152   -1.9388 H   0  0  0  0  0  0  0  0  0  0  0  0
   -0.5871    0.9437    0.7509 C   0  0  0  0  0  0  0  0  0  0  0  0
   -1.5522    1.5860    0.3522 O   0  0  0  0  0  0  0  0  0  0  0  0
    0.3170    1.5459    1.6071 N   0  0  0  0  0  0  0  0  0  0  0  0
    1.0631    0.9688    1.9848 H   0  0  0  0  0  0  0  0  0  0  0  0
    0.1820    2.9191    2.0776 C   0  0  0  0  0  0  0  0  0  0  0  0
   -0.7547    3.0442    2.6307 H   0  0  0  0  0  0  0  0  0  0  0  0
    1.0129    3.1746    2.7422 H   0  0  0  0  0  0  0  0  0  0  0  0
    0.1885    3.6159    1.2330 H   0  0  0  0  0  0  0  0  0  0  0  0
  1  2  1  0  0  0  0
  2  3  1  0  0  0  0
  2  4  1  0  0  0  0
  2  5  1  0  0  0  0
  5  6  2  0  0  0  0
  5  7  1  0  0  0  0
  7  8  1  0  0  0  0
  7  9  1  0  0  0  0
  9 10  1  0  0  0  0
  9 11  1  0  0  0  0
  9 24  1  0  0  0  0
 11 12  1  0  0  0  0
 11 13  1  0  0  0  0
 11 14  1  0  0  0  0
 14 15  1  0  0  0  0
 14 16  1  0  0  0  0
 14 20  1  0  0  0  0
 16 17  1  0  0  0  0
 16 18  1  0  0  0  0
 16 19  1  0  0  0  0
 20 21  1  0  0  0  0
 20 22  1  0  0  0  0
 20 23  1  0  0  0  0
 24 25  2  0  0  0  0
 24 26  1  0  0  0  0
 26 27  1  0  0  0  0
 26 28  1  0  0  0  0
 28 29  1  0  0  0  0
 28 30  1  0  0  0  0
 28 31  1  0  0  0  0
M  END
$$$$

  -OEChem-03222214063D

 31 30  0     1  0  0  0  0  0999 V2000
   -3.3697   -3.9349    1.5830 H   0  0  0  0  0  0  0  0  0  0  0  0
   -3.3667   -2.9677    1.0728 C   0  0  0  0  0  0  0  0  0  0  0  0
   -4.0024   -2.2740    1.6285 H   0  0  0  0  0  0  0  0  0  0  0  0
   -3.7726   -3.0979    0.0666 H   0  0  0  0  0  0  0  0  0  0  0  0
   -1.9532   -2.4235    0.9919 C   0  0  0  0  0  0  0  0  0  0  0  0
   -1.0195   -3.0804    1.4254 O   0  0  0  0  0  0  0  0  0  0  0  0
   -1.7309   -1.1878    0.4229 N   0  0  0  0  0  0  0  0  0  0  0  0
   -2.5454   -0.6426    0.1460 H   0  0  0  0  0  0  0  0  0  0  0  0
   -0.4305   -0.5114    0.3625 C   0  0  1  0  0  0  0  0  0  0  0  0
    0.2225   -0.9473    1.1256 H   0  0  0  0  0  0  0  0  0  0  0  0
    0.2997   -0.6746   -0.9973 C   0  0  0  0  0  0  0  0  0  0  0  0
    0.9592    0.1915   -1.1178 H   0  0  0  0  0  0  0  0  0  0  0  0
    0.9605   -1.5415   -0.8922 H   0  0  0  0  0  0  0  0  0  0  0  0
   -0.4910   -0.8386   -2.3332 C   0  0  0  0  0  0  0  0  0  0  0  0
    0.0762   -0.2641   -3.0738 H   0  0  0  0  0  0  0  0  0  0  0  0
   -0.4457   -2.2954   -2.8104 C   0  0  0  0  0  0  0  0  0  0  0  0
   -0.9480   -2.9484   -2.0895 H   0  0  0  0  0  0  0  0  0  0  0  0
   -0.9453   -2.3963   -3.7788 H   0  0  0  0  0  0  0  0  0  0  0  0
    0.5892   -2.6328   -2.9247 H   0  0  0  0  0  0  0  0  0  0  0  0
   -1.9236   -0.2884   -2.4095 C   0  0  0  0  0  0  0  0  0  0  0  0
   -1.9767    0.7152   -1.9810 H   0  0  0  0  0  0  0  0  0  0  0  0
   -2.2359   -0.2211   -3.4561 H   0  0  0  0  0  0  0  0  0  0  0  0
   -2.6364   -0.9391   -1.8981 H   0  0  0  0  0  0  0  0  0  0  0  0
   -0.5808    0.9745    0.7537 C   0  0  0  0  0  0  0  0  0  0  0  0
   -1.5615    1.6167    0.3961 O   0  0  0  0  0  0  0  0  0  0  0  0
    0.3239    1.5590    1.6215 N   0  0  0  0  0  0  0  0  0  0  0  0
    1.0766    0.9768    1.9778 H   0  0  0  0  0  0  0  0  0  0  0  0
    0.1817    2.9171    2.1322 C   0  0  0  0  0  0  0  0  0  0  0  0
   -0.7485    3.0175    2.7011 H   0  0  0  0  0  0  0  0  0  0  0  0
    1.0189    3.1620    2.7926 H   0  0  0  0  0  0  0  0  0  0  0  0
    0.1706    3.6371    1.3072 H   0  0  0  0  0  0  0  0  0  0  0  0
  1  2  1  0  0  0  0
  2  3  1  0  0  0  0
  2  4  1  0  0  0  0
  2  5  1  0  0  0  0
  5  6  2  0  0  0  0
  5  7  1  0  0  0  0
  7  8  1  0  0  0  0
  7  9  1  0  0  0  0
  9 10  1  0  0  0  0
  9 11  1  0  0  0  0
  9 24  1  0  0  0  0
 11 12  1  0  0  0  0
 11 13  1  0  0  0  0
 11 14  1  0  0  0  0
 14 15  1  0  0  0  0
 14 16  1  0  0  0  0
 14 20  1  0  0  0  0
 16 17  1  0  0  0  0
 16 18  1  0  0  0  0
 16 19  1  0  0  0  0
 20 21  1  0  0  0  0
 20 22  1  0  0  0  0
 20 23  1  0  0  0  0
 24 25  2  0  0  0  0
 24 26  1  0  0  0  0
 26 27  1  0  0  0  0
 26 28  1  0  0  0  0
 28 29  1  0  0  0  0
 28 30  1  0  0  0  0
 28 31  1  0  0  0  0
M  END
$$$$

  -OEChem-03222214063D

 31 30  0     1  0  0  0  0  0999 V2000
   -3.3776   -3.9384    1.5520 H   0  0  0  0  0  0  0  0  0  0  0  0
   -3.3686   -2.9740    1.0364 C   0  0  0  0  0  0  0  0  0  0  0  0
   -4.0106   -2.2778    1.5813 H   0  0  0  0  0  0  0  0  0  0  0  0
   -3.7637   -3.1098    0.0267 H   0  0  0  0  0  0  0  0  0  0  0  0
   -1.9544   -2.4301    0.9685 C   0  0  0  0  0  0  0  0  0  0  0  0
   -1.0258   -3.0865    1.4137 O   0  0  0  0  0  0  0  0  0  0  0  0
   -1.7256   -1.1943    0.4020 N   0  0  0  0  0  0  0  0  0  0  0  0
   -2.5369   -0.6465    0.1206 H   0  0  0  0  0  0  0  0  0  0  0  0
   -0.4225   -0.5189    0.3604 C   0  0  1  0  0  0  0  0  0  0  0  0
    0.2240   -0.9562    1.1284 H   0  0  0  0  0  0  0  0  0  0  0  0
    0.3171   -0.6747   -0.9957 C   0  0  0  0  0  0  0  0  0  0  0  0
    0.9786    0.1904   -1.1128 H   0  0  0  0  0  0  0  0  0  0  0  0
    0.9705   -1.5488   -0.9063 H   0  0  0  0  0  0  0  0  0  0  0  0
   -0.4880   -0.8248   -2.3177 C   0  0  0  0  0  0  0  0  0  0  0  0
    0.1919   -0.4889   -3.1081 H   0  0  0  0  0  0  0  0  0  0  0  0
   -0.7884   -2.2955   -2.6343 C   0  0  0  0  0  0  0  0  0  0  0  0
   -1.4598   -2.7260   -1.8868 H   0  0  0  0  0  0  0  0  0  0  0  0
   -1.2651   -2.3815   -3.6157 H   0  0  0  0  0  0  0  0  0  0  0  0
    0.1350   -2.8825   -2.6512 H   0  0  0  0  0  0  0  0  0  0  0  0
   -1.7422    0.0504   -2.4537 C   0  0  0  0  0  0  0  0  0  0  0  0
   -1.5067    1.0911   -2.2135 H   0  0  0  0  0  0  0  0  0  0  0  0
   -2.1066    0.0175   -3.4849 H   0  0  0  0  0  0  0  0  0  0  0  0
   -2.5527   -0.2885   -1.8059 H   0  0  0  0  0  0  0  0  0  0  0  0
   -0.5823    0.9662    0.7509 C   0  0  0  0  0  0  0  0  0  0  0  0
   -1.5615    1.6052    0.3826 O   0  0  0  0  0  0  0  0  0  0  0  0
    0.3075    1.5522    1.6329 N   0  0  0  0  0  0  0  0  0  0  0  0
    1.0633    0.9754    1.9915 H   0  0  0  0  0  0  0  0  0  0  0  0
    0.1632    2.9148    2.1312 C   0  0  0  0  0  0  0  0  0  0  0  0
   -0.7848    3.0291    2.6674 H   0  0  0  0  0  0  0  0  0  0  0  0
    0.9802    3.1546    2.8185 H   0  0  0  0  0  0  0  0  0  0  0  0
    0.1879    3.6300    1.3024 H   0  0  0  0  0  0  0  0  0  0  0  0
  1  2  1  0  0  0  0
  2  3  1  0  0  0  0
  2  4  1  0  0  0  0
  2  5  1  0  0  0  0
  5  6  2  0  0  0  0
  5  7  1  0  0  0  0
  7  8  1  0  0  0  0
  7  9  1  0  0  0  0
  9 10  1  0  0  0  0
  9 11  1  0  0  0  0
  9 24  1  0  0  0  0
 11 12  1  0  0  0  0
 11 13  1  0  0  0  0
 11 14  1  0  0  0  0
 14 15  1  0  0  0  0
 14 16  1  0  0  0  0
 14 20  1  0  0  0  0
 16 17  1  0  0  0  0
 16 18  1  0  0  0  0
 16 19  1  0  0  0  0
 20 21  1  0  0  0  0
 20 22  1  0  0  0  0
 20 23  1  0  0  0  0
 24 25  2  0  0  0  0
 24 26  1  0  0  0  0
 26 27  1  0  0  0  0
 26 28  1  0  0  0  0
 28 29  1  0  0  0  0
 28 30  1  0  0  0  0
 28 31  1  0  0  0  0
M  END
$$$$

  -OEChem-03222214063D

 31 30  0     1  0  0  0  0  0999 V2000
   -3.3830   -3.9234    1.5610 H   0  0  0  0  0  0  0  0  0  0  0  0
   -3.3758   -2.9590    1.0456 C   0  0  0  0  0  0  0  0  0  0  0  0
   -4.0097   -2.2603    1.5968 H   0  0  0  0  0  0  0  0  0  0  0  0
   -3.7814   -3.0933    0.0400 H   0  0  0  0  0  0  0  0  0  0  0  0
   -1.9600   -2.4207    0.9646 C   0  0  0  0  0  0  0  0  0  0  0  0
   -1.0307   -3.0801    1.4037 O   0  0  0  0  0  0  0  0  0  0  0  0
   -1.7305   -1.1861    0.3946 N   0  0  0  0  0  0  0  0  0  0  0  0
   -2.5416   -0.6356    0.1183 H   0  0  0  0  0  0  0  0  0  0  0  0
   -0.4261   -0.5140    0.3504 C   0  0  1  0  0  0  0  0  0  0  0  0
    0.2180   -0.9508    1.1206 H   0  0  0  0  0  0  0  0  0  0  0  0
    0.3243   -0.6649   -1.0015 C   0  0  0  0  0  0  0  0  0  0  0  0
    0.9964    0.1926   -1.1124 H   0  0  0  0  0  0  0  0  0  0  0  0
    0.9646   -1.5486   -0.9126 H   0  0  0  0  0  0  0  0  0  0  0  0
   -0.4680   -0.8142   -2.3286 C   0  0  0  0  0  0  0  0  0  0  0  0
    0.2707   -0.7002   -3.1293 H   0  0  0  0  0  0  0  0  0  0  0  0
   -1.0935   -2.2050   -2.5157 C   0  0  0  0  0  0  0  0  0  0  0  0
   -1.9823   -2.3355   -1.8953 H   0  0  0  0  0  0  0  0  0  0  0  0
   -1.3928   -2.3399   -3.5597 H   0  0  0  0  0  0  0  0  0  0  0  0
   -0.3722   -2.9884   -2.2635 H   0  0  0  0  0  0  0  0  0  0  0  0
   -1.5232    0.2788   -2.5353 C   0  0  0  0  0  0  0  0  0  0  0  0
   -1.0771    1.2687   -2.3993 H   0  0  0  0  0  0  0  0  0  0  0  0
   -1.9280    0.2228   -3.5505 H   0  0  0  0  0  0  0  0  0  0  0  0
   -2.3535    0.1699   -1.8329 H   0  0  0  0  0  0  0  0  0  0  0  0
   -0.5841    0.9724    0.7385 C   0  0  0  0  0  0  0  0  0  0  0  0
   -1.5622    1.6132    0.3701 O   0  0  0  0  0  0  0  0  0  0  0  0
    0.3077    1.5580    1.6191 N   0  0  0  0  0  0  0  0  0  0  0  0
    1.0588    0.9779    1.9822 H   0  0  0  0  0  0  0  0  0  0  0  0
    0.1561    2.9150    2.1301 C   0  0  0  0  0  0  0  0  0  0  0  0
   -0.7909    3.0178    2.6704 H   0  0  0  0  0  0  0  0  0  0  0  0
    0.9735    3.1541    2.8173 H   0  0  0  0  0  0  0  0  0  0  0  0
    0.1737    3.6378    1.3077 H   0  0  0  0  0  0  0  0  0  0  0  0
  1  2  1  0  0  0  0
  2  3  1  0  0  0  0
  2  4  1  0  0  0  0
  2  5  1  0  0  0  0
  5  6  2  0  0  0  0
  5  7  1  0  0  0  0
  7  8  1  0  0  0  0
  7  9  1  0  0  0  0
  9 10  1  0  0  0  0
  9 11  1  0  0  0  0
  9 24  1  0  0  0  0
 11 12  1  0  0  0  0
 11 13  1  0  0  0  0
 11 14  1  0  0  0  0
 14 15  1  0  0  0  0
 14 16  1  0  0  0  0
 14 20  1  0  0  0  0
 16 17  1  0  0  0  0
 16 18  1  0  0  0  0
 16 19  1  0  0  0  0
 20 21  1  0  0  0  0
 20 22  1  0  0  0  0
 20 23  1  0  0  0  0
 24 25  2  0  0  0  0
 24 26  1  0  0  0  0
 26 27  1  0  0  0  0
 26 28  1  0  0  0  0
 28 29  1  0  0  0  0
 28 30  1  0  0  0  0
 28 31  1  0  0  0  0
M  END
$$$$

  -OEChem-03222214063D

 31 30  0     1  0  0  0  0  0999 V2000
   -3.3871   -3.9163    1.5940 H   0  0  0  0  0  0  0  0  0  0  0  0
   -3.3793   -2.9567    1.0694 C   0  0  0  0  0  0  0  0  0  0  0  0
   -4.0136   -2.2529    1.6138 H   0  0  0  0  0  0  0  0  0  0  0  0
   -3.7844   -3.1006    0.0649 H   0  0  0  0  0  0  0  0  0  0  0  0
   -1.9637   -2.4188    0.9835 C   0  0  0  0  0  0  0  0  0  0  0  0
   -1.0326   -3.0791    1.4175 O   0  0  0  0  0  0  0  0  0  0  0  0
   -1.7364   -1.1853    0.4104 N   0  0  0  0  0  0  0  0  0  0  0  0
   -2.5483   -0.6369    0.1316 H   0  0  0  0  0  0  0  0  0  0  0  0
   -0.4328   -0.5152    0.3511 C   0  0  1  0  0  0  0  0  0  0  0  0
    0.2156   -0.9510    1.1182 H   0  0  0  0  0  0  0  0  0  0  0  0
    0.3188   -0.6562   -1.0018 C   0  0  0  0  0  0  0  0  0  0  0  0
    1.0119    0.1859   -1.1011 H   0  0  0  0  0  0  0  0  0  0  0  0
    0.9373   -1.5554   -0.9119 H   0  0  0  0  0  0  0  0  0  0  0  0
   -0.4532   -0.8029   -2.3421 C   0  0  0  0  0  0  0  0  0  0  0  0
    0.3103   -0.9155   -3.1194 H   0  0  0  0  0  0  0  0  0  0  0  0
   -1.3733   -2.0300   -2.4374 C   0  0  0  0  0  0  0  0  0  0  0  0
   -2.3380   -1.8537   -1.9557 H   0  0  0  0  0  0  0  0  0  0  0  0
   -1.5684   -2.2638   -3.4885 H   0  0  0  0  0  0  0  0  0  0  0  0
   -0.8990   -2.9013   -1.9749 H   0  0  0  0  0  0  0  0  0  0  0  0
   -1.2617    0.4585   -2.6650 C   0  0  0  0  0  0  0  0  0  0  0  0
   -0.6315    1.3498   -2.5861 H   0  0  0  0  0  0  0  0  0  0  0  0
   -1.6539    0.4045   -3.6852 H   0  0  0  0  0  0  0  0  0  0  0  0
   -2.1070    0.5677   -1.9799 H   0  0  0  0  0  0  0  0  0  0  0  0
   -0.5901    0.9710    0.7397 C   0  0  0  0  0  0  0  0  0  0  0  0
   -1.5733    1.6088    0.3799 O   0  0  0  0  0  0  0  0  0  0  0  0
    0.3087    1.5604    1.6106 N   0  0  0  0  0  0  0  0  0  0  0  0
    1.0663    0.9840    1.9659 H   0  0  0  0  0  0  0  0  0  0  0  0
    0.1592    2.9191    2.1183 C   0  0  0  0  0  0  0  0  0  0  0  0
   -0.7718    3.0151    2.6868 H   0  0  0  0  0  0  0  0  0  0  0  0
    0.9951    3.1703    2.7781 H   0  0  0  0  0  0  0  0  0  0  0  0
    0.1437    3.6379    1.2923 H   0  0  0  0  0  0  0  0  0  0  0  0
  1  2  1  0  0  0  0
  2  3  1  0  0  0  0
  2  4  1  0  0  0  0
  2  5  1  0  0  0  0
  5  6  2  0  0  0  0
  5  7  1  0  0  0  0
  7  8  1  0  0  0  0
  7  9  1  0  0  0  0
  9 10  1  0  0  0  0
  9 11  1  0  0  0  0
  9 24  1  0  0  0  0
 11 12  1  0  0  0  0
 11 13  1  0  0  0  0
 11 14  1  0  0  0  0
 14 15  1  0  0  0  0
 14 16  1  0  0  0  0
 14 20  1  0  0  0  0
 16 17  1  0  0  0  0
 16 18  1  0  0  0  0
 16 19  1  0  0  0  0
 20 21  1  0  0  0  0
 20 22  1  0  0  0  0
 20 23  1  0  0  0  0
 24 25  2  0  0  0  0
 24 26  1  0  0  0  0
 26 27  1  0  0  0  0
 26 28  1  0  0  0  0
 28 29  1  0  0  0  0
 28 30  1  0  0  0  0
 28 31  1  0  0  0  0
M  END
$$$$

  -OEChem-03222214063D

 31 30  0     1  0  0  0  0  0999 V2000
   -3.3851   -3.9169    1.6520 H   0  0  0  0  0  0  0  0  0  0  0  0
   -3.3800   -2.9595    1.1236 C   0  0  0  0  0  0  0  0  0  0  0  0
   -4.0086   -2.2522    1.6700 H   0  0  0  0  0  0  0  0  0  0  0  0
   -3.7932   -3.1062    0.1228 H   0  0  0  0  0  0  0  0  0  0  0  0
   -1.9641   -2.4251    1.0235 C   0  0  0  0  0  0  0  0  0  0  0  0
   -1.0302   -3.0844    1.4531 O   0  0  0  0  0  0  0  0  0  0  0  0
   -1.7394   -1.1966    0.4396 N   0  0  0  0  0  0  0  0  0  0  0  0
   -2.5529   -0.6460    0.1696 H   0  0  0  0  0  0  0  0  0  0  0  0
   -0.4348   -0.5321    0.3580 C   0  0  1  0  0  0  0  0  0  0  0  0
    0.2238   -0.9643    1.1185 H   0  0  0  0  0  0  0  0  0  0  0  0
    0.3073   -0.6565   -1.0041 C   0  0  0  0  0  0  0  0  0  0  0  0
    1.0264    0.1656   -1.0854 H   0  0  0  0  0  0  0  0  0  0  0  0
    0.9012   -1.5726   -0.9204 H   0  0  0  0  0  0  0  0  0  0  0  0
   -0.4437   -0.7874   -2.3621 C   0  0  0  0  0  0  0  0  0  0  0  0
    0.2990   -1.1319   -3.0899 H   0  0  0  0  0  0  0  0  0  0  0  0
   -1.6206   -1.7721   -2.4204 C   0  0  0  0  0  0  0  0  0  0  0  0
   -2.5192   -1.3553   -1.9576 H   0  0  0  0  0  0  0  0  0  0  0  0
   -1.8618   -1.9988   -3.4636 H   0  0  0  0  0  0  0  0  0  0  0  0
   -1.3587   -2.7098   -1.9207 H   0  0  0  0  0  0  0  0  0  0  0  0
   -0.9434    0.5869   -2.8245 C   0  0  0  0  0  0  0  0  0  0  0  0
   -0.1257    1.3141   -2.8272 H   0  0  0  0  0  0  0  0  0  0  0  0
   -1.3451    0.5215   -3.8405 H   0  0  0  0  0  0  0  0  0  0  0  0
   -1.7349    0.9561   -2.1666 H   0  0  0  0  0  0  0  0  0  0  0  0
   -0.5995    0.9539    0.7416 C   0  0  0  0  0  0  0  0  0  0  0  0
   -1.5896    1.5822    0.3831 O   0  0  0  0  0  0  0  0  0  0  0  0
    0.3032    1.5551    1.6000 N   0  0  0  0  0  0  0  0  0  0  0  0
    1.0663    0.9849    1.9537 H   0  0  0  0  0  0  0  0  0  0  0  0
    0.1479    2.9146    2.1032 C   0  0  0  0  0  0  0  0  0  0  0  0
   -0.7848    3.0104    2.6688 H   0  0  0  0  0  0  0  0  0  0  0  0
    0.9809    3.1698    2.7651 H   0  0  0  0  0  0  0  0  0  0  0  0
    0.1329    3.6304    1.2747 H   0  0  0  0  0  0  0  0  0  0  0  0
  1  2  1  0  0  0  0
  2  3  1  0  0  0  0
  2  4  1  0  0  0  0
  2  5  1  0  0  0  0
  5  6  2  0  0  0  0
  5  7  1  0  0  0  0
  7  8  1  0  0  0  0
  7  9  1  0  0  0  0
  9 10  1  0  0  0  0
  9 11  1  0  0  0  0
  9 24  1  0  0  0  0
 11 12  1  0  0  0  0
 11 13  1  0  0  0  0
 11 14  1  0  0  0  0
 14 15  1  0  0  0  0
 14 16  1  0  0  0  0
 14 20  1  0  0  0  0
 16 17  1  0  0  0  0
 16 18  1  0  0  0  0
 16 19  1  0  0  0  0
 20 21  1  0  0  0  0
 20 22  1  0  0  0  0
 20 23  1  0  0  0  0
 24 25  2  0  0  0  0
 24 26  1  0  0  0  0
 26 27  1  0  0  0  0
 26 28  1  0  0  0  0
 28 29  1  0  0  0  0
 28 30  1  0  0  0  0
 28 31  1  0  0  0  0
M  END
$$$$

  -OEChem-03222214063D

 31 30  0     1  0  0  0  0  0999 V2000
   -3.3944   -3.9234    1.6984 H   0  0  0  0  0  0  0  0  0  0  0  0
   -3.3864   -2.9707    1.1617 C   0  0  0  0  0  0  0  0  0  0  0  0
   -4.0082   -2.2551    1.7051 H   0  0  0  0  0  0  0  0  0  0  0  0
   -3.8056   -3.1237    0.1644 H   0  0  0  0  0  0  0  0  0  0  0  0
   -1.9682   -2.4445    1.0504 C   0  0  0  0  0  0  0  0  0  0  0  0
   -1.0358   -3.1029    1.4846 O   0  0  0  0  0  0  0  0  0  0  0  0
   -1.7404   -1.2218    0.4557 N   0  0  0  0  0  0  0  0  0  0  0  0
   -2.5523   -0.6700    0.1828 H   0  0  0  0  0  0  0  0  0  0  0  0
   -0.4334   -0.5628    0.3659 C   0  0  1  0  0  0  0  0  0  0  0  0
    0.2305   -0.9917    1.1238 H   0  0  0  0  0  0  0  0  0  0  0  0
    0.3035   -0.6628   -1.0016 C   0  0  0  0  0  0  0  0  0  0  0  0
    1.0440    0.1423   -1.0583 H   0  0  0  0  0  0  0  0  0  0  0  0
    0.8778   -1.5924   -0.9307 H   0  0  0  0  0  0  0  0  0  0  0  0
   -0.4363   -0.7654   -2.3726 C   0  0  0  0  0  0  0  0  0  0  0  0
    0.2231   -1.3254   -3.0446 H   0  0  0  0  0  0  0  0  0  0  0  0
   -1.8085   -1.4504   -2.4146 C   0  0  0  0  0  0  0  0  0  0  0  0
   -2.5729   -0.8410   -1.9237 H   0  0  0  0  0  0  0  0  0  0  0  0
   -2.1184   -1.5994   -3.4536 H   0  0  0  0  0  0  0  0  0  0  0  0
   -1.7596   -2.4327   -1.9355 H   0  0  0  0  0  0  0  0  0  0  0  0
   -0.6059    0.6441   -2.9576 C   0  0  0  0  0  0  0  0  0  0  0  0
    0.3640    1.1423   -3.0513 H   0  0  0  0  0  0  0  0  0  0  0  0
   -1.0574    0.5934   -3.9533 H   0  0  0  0  0  0  0  0  0  0  0  0
   -1.2498    1.2550   -2.3179 H   0  0  0  0  0  0  0  0  0  0  0  0
   -0.6094    0.9236    0.7398 C   0  0  0  0  0  0  0  0  0  0  0  0
   -1.5937    1.5456    0.3542 O   0  0  0  0  0  0  0  0  0  0  0  0
    0.2861    1.5401    1.5945 N   0  0  0  0  0  0  0  0  0  0  0  0
    1.0528    0.9805    1.9571 H   0  0  0  0  0  0  0  0  0  0  0  0
    0.1369    2.9156    2.0534 C   0  0  0  0  0  0  0  0  0  0  0  0
   -0.8075    3.0391    2.5939 H   0  0  0  0  0  0  0  0  0  0  0  0
    0.9578    3.1807    2.7265 H   0  0  0  0  0  0  0  0  0  0  0  0
    0.1498    3.6057    1.2033 H   0  0  0  0  0  0  0  0  0  0  0  0
  1  2  1  0  0  0  0
  2  3  1  0  0  0  0
  2  4  1  0  0  0  0
  2  5  1  0  0  0  0
  5  6  2  0  0  0  0
  5  7  1  0  0  0  0
  7  8  1  0  0  0  0
  7  9  1  0  0  0  0
  9 10  1  0  0  0  0
  9 11  1  0  0  0  0
  9 24  1  0  0  0  0
 11 12  1  0  0  0  0
 11 13  1  0  0  0  0
 11 14  1  0  0  0  0
 14 15  1  0  0  0  0
 14 16  1  0  0  0  0
 14 20  1  0  0  0  0
 16 17  1  0  0  0  0
 16 18  1  0  0  0  0
 16 19  1  0  0  0  0
 20 21  1  0  0  0  0
 20 22  1  0  0  0  0
 20 23  1  0  0  0  0
 24 25  2  0  0  0  0
 24 26  1  0  0  0  0
 26 27  1  0  0  0  0
 26 28  1  0  0  0  0
 28 29  1  0  0  0  0
 28 30  1  0  0  0  0
 28 31  1  0  0  0  0
M  END
$$$$

  -OEChem-03222214063D

 31 30  0     1  0  0  0  0  0999 V2000
   -3.3917   -3.9377    1.6914 H   0  0  0  0  0  0  0  0  0  0  0  0
   -3.3851   -2.9795    1.1645 C   0  0  0  0  0  0  0  0  0  0  0  0
   -4.0065   -2.2699    1.7160 H   0  0  0  0  0  0  0  0  0  0  0  0
   -3.8058   -3.1229    0.1663 H   0  0  0  0  0  0  0  0  0  0  0  0
   -1.9668   -2.4523    1.0567 C   0  0  0  0  0  0  0  0  0  0  0  0
   -1.0365   -3.1076    1.4995 O   0  0  0  0  0  0  0  0  0  0  0  0
   -1.7353   -1.2334    0.4556 N   0  0  0  0  0  0  0  0  0  0  0  0
   -2.5452   -0.6839    0.1726 H   0  0  0  0  0  0  0  0  0  0  0  0
   -0.4262   -0.5776    0.3642 C   0  0  1  0  0  0  0  0  0  0  0  0
    0.2420   -1.0065    1.1183 H   0  0  0  0  0  0  0  0  0  0  0  0
    0.3012   -0.6669   -1.0087 C   0  0  0  0  0  0  0  0  0  0  0  0
    1.0478    0.1335   -1.0537 H   0  0  0  0  0  0  0  0  0  0  0  0
    0.8730   -1.5990   -0.9497 H   0  0  0  0  0  0  0  0  0  0  0  0
   -0.4454   -0.7527   -2.3812 C   0  0  0  0  0  0  0  0  0  0  0  0
    0.0678   -1.5120   -2.9814 H   0  0  0  0  0  0  0  0  0  0  0  0
   -1.9404   -1.1004   -2.3984 C   0  0  0  0  0  0  0  0  0  0  0  0
   -2.5255   -0.3473   -1.8616 H   0  0  0  0  0  0  0  0  0  0  0  0
   -2.3067   -1.1383   -3.4293 H   0  0  0  0  0  0  0  0  0  0  0  0
   -2.1100   -2.0853   -1.9541 H   0  0  0  0  0  0  0  0  0  0  0  0
   -0.2902    0.5948   -3.1027 C   0  0  0  0  0  0  0  0  0  0  0  0
    0.7678    0.8414   -3.2360 H   0  0  0  0  0  0  0  0  0  0  0  0
   -0.7539    0.5577   -4.0935 H   0  0  0  0  0  0  0  0  0  0  0  0
   -0.7652    1.3960   -2.5269 H   0  0  0  0  0  0  0  0  0  0  0  0
   -0.6037    0.9106    0.7301 C   0  0  0  0  0  0  0  0  0  0  0  0
   -1.5713    1.5374    0.3112 O   0  0  0  0  0  0  0  0  0  0  0  0
    0.2884    1.5332    1.5839 N   0  0  0  0  0  0  0  0  0  0  0  0
    1.0415    0.9706    1.9695 H   0  0  0  0  0  0  0  0  0  0  0  0
    0.1379    2.9124    2.0307 C   0  0  0  0  0  0  0  0  0  0  0  0
   -0.8019    3.0366    2.5790 H   0  0  0  0  0  0  0  0  0  0  0  0
    0.9642    3.1875    2.6931 H   0  0  0  0  0  0  0  0  0  0  0  0
    0.1396    3.5952    1.1745 H   0  0  0  0  0  0  0  0  0  0  0  0
  1  2  1  0  0  0  0
  2  3  1  0  0  0  0
  2  4  1  0  0  0  0
  2  5  1  0  0  0  0
  5  6  2  0  0  0  0
  5  7  1  0  0  0  0
  7  8  1  0  0  0  0
  7  9  1  0  0  0  0
  9 10  1  0  0  0  0
  9 11  1  0  0  0  0
  9 24  1  0  0  0  0
 11 12  1  0  0  0  0
 11 13  1  0  0  0  0
 11 14  1  0  0  0  0
 14 15  1  0  0  0  0
 14 16  1  0  0  0  0
 14 20  1  0  0  0  0
 16 17  1  0  0  0  0
 16 18  1  0  0  0  0
 16 19  1  0  0  0  0
 20 21  1  0  0  0  0
 20 22  1  0  0  0  0
 20 23  1  0  0  0  0
 24 25  2  0  0  0  0
 24 26  1  0  0  0  0
 26 27  1  0  0  0  0
 26 28  1  0  0  0  0
 28 29  1  0  0  0  0
 28 30  1  0  0  0  0
 28 31  1  0  0  0  0
M  END
$$$$

  -OEChem-03222214063D

 31 30  0     1  0  0  0  0  0999 V2000
   -3.3856   -3.9357    1.6674 H   0  0  0  0  0  0  0  0  0  0  0  0
   -3.3795   -2.9827    1.1311 C   0  0  0  0  0  0  0  0  0  0  0  0
   -4.0084   -2.2709    1.6712 H   0  0  0  0  0  0  0  0  0  0  0  0
   -3.7926   -3.1378    0.1316 H   0  0  0  0  0  0  0  0  0  0  0  0
   -1.9629   -2.4491    1.0281 C   0  0  0  0  0  0  0  0  0  0  0  0
   -1.0299   -3.1051    1.4644 O   0  0  0  0  0  0  0  0  0  0  0  0
   -1.7368   -1.2219    0.4421 N   0  0  0  0  0  0  0  0  0  0  0  0
   -2.5494   -0.6745    0.1635 H   0  0  0  0  0  0  0  0  0  0  0  0
   -0.4312   -0.5582    0.3571 C   0  0  1  0  0  0  0  0  0  0  0  0
    0.2375   -0.9935    1.1069 H   0  0  0  0  0  0  0  0  0  0  0  0
    0.2914   -0.6529   -1.0167 C   0  0  0  0  0  0  0  0  0  0  0  0
    1.0137    0.1693   -1.0643 H   0  0  0  0  0  0  0  0  0  0  0  0
    0.8904   -1.5677   -0.9593 H   0  0  0  0  0  0  0  0  0  0  0  0
   -0.4659   -0.7489   -2.3845 C   0  0  0  0  0  0  0  0  0  0  0  0
   -0.1524   -1.6837   -2.8621 H   0  0  0  0  0  0  0  0  0  0  0  0
   -2.0025   -0.7498   -2.3879 C   0  0  0  0  0  0  0  0  0  0  0  0
   -2.3962    0.1081   -1.8350 H   0  0  0  0  0  0  0  0  0  0  0  0
   -2.3804   -0.6927   -3.4135 H   0  0  0  0  0  0  0  0  0  0  0  0
   -2.3892   -1.6759   -1.9549 H   0  0  0  0  0  0  0  0  0  0  0  0
   -0.0020    0.4071   -3.2839 C   0  0  0  0  0  0  0  0  0  0  0  0
    1.0866    0.3929   -3.3974 H   0  0  0  0  0  0  0  0  0  0  0  0
   -0.4452    0.3229   -4.2811 H   0  0  0  0  0  0  0  0  0  0  0  0
   -0.2965    1.3699   -2.8529 H   0  0  0  0  0  0  0  0  0  0  0  0
   -0.6001    0.9274    0.7391 C   0  0  0  0  0  0  0  0  0  0  0  0
   -1.5682    1.5635    0.3370 O   0  0  0  0  0  0  0  0  0  0  0  0
    0.2992    1.5354    1.5960 N   0  0  0  0  0  0  0  0  0  0  0  0
    1.0558    0.9669    1.9659 H   0  0  0  0  0  0  0  0  0  0  0  0
    0.1625    2.9126    2.0536 C   0  0  0  0  0  0  0  0  0  0  0  0
   -0.7763    3.0424    2.6023 H   0  0  0  0  0  0  0  0  0  0  0  0
    0.9910    3.1744    2.7187 H   0  0  0  0  0  0  0  0  0  0  0  0
    0.1717    3.6014    1.2022 H   0  0  0  0  0  0  0  0  0  0  0  0
  1  2  1  0  0  0  0
  2  3  1  0  0  0  0
  2  4  1  0  0  0  0
  2  5  1  0  0  0  0
  5  6  2  0  0  0  0
  5  7  1  0  0  0  0
  7  8  1  0  0  0  0
  7  9  1  0  0  0  0
  9 10  1  0  0  0  0
  9 11  1  0  0  0  0
  9 24  1  0  0  0  0
 11 12  1  0  0  0  0
 11 13  1  0  0  0  0
 11 14  1  0  0  0  0
 14 15  1  0  0  0  0
 14 16  1  0  0  0  0
 14 20  1  0  0  0  0
 16 17  1  0  0  0  0
 16 18  1  0  0  0  0
 16 19  1  0  0  0  0
 20 21  1  0  0  0  0
 20 22  1  0  0  0  0
 20 23  1  0  0  0  0
 24 25  2  0  0  0  0
 24 26  1  0  0  0  0
 26 27  1  0  0  0  0
 26 28  1  0  0  0  0
 28 29  1  0  0  0  0
 28 30  1  0  0  0  0
 28 31  1  0  0  0  0
M  END
$$$$

  -OEChem-03222214063D

 31 30  0     1  0  0  0  0  0999 V2000
   -3.3728   -3.9332    1.5694 H   0  0  0  0  0  0  0  0  0  0  0  0
   -3.3736   -2.9620    1.0669 C   0  0  0  0  0  0  0  0  0  0  0  0
   -3.9990   -2.2710    1.6371 H   0  0  0  0  0  0  0  0  0  0  0  0
   -3.7948   -3.0831    0.0661 H   0  0  0  0  0  0  0  0  0  0  0  0
   -1.9593   -2.4220    0.9705 C   0  0  0  0  0  0  0  0  0  0  0  0
   -1.0232   -3.0846    1.3895 O   0  0  0  0  0  0  0  0  0  0  0  0
   -1.7380   -1.1834    0.4070 N   0  0  0  0  0  0  0  0  0  0  0  0
   -2.5532   -0.6301    0.1481 H   0  0  0  0  0  0  0  0  0  0  0  0
   -0.4351   -0.5128    0.3389 C   0  0  1  0  0  0  0  0  0  0  0  0
    0.2257   -0.9568    1.0906 H   0  0  0  0  0  0  0  0  0  0  0  0
    0.2901   -0.6366   -1.0292 C   0  0  0  0  0  0  0  0  0  0  0  0
    0.9821    0.2100   -1.0985 H   0  0  0  0  0  0  0  0  0  0  0  0
    0.9165   -1.5323   -0.9609 H   0  0  0  0  0  0  0  0  0  0  0  0
   -0.4809   -0.7617   -2.3839 C   0  0  0  0  0  0  0  0  0  0  0  0
   -0.4109   -1.8104   -2.6929 H   0  0  0  0  0  0  0  0  0  0  0  0
   -1.9785   -0.4111   -2.4145 C   0  0  0  0  0  0  0  0  0  0  0  0
   -2.1658    0.5460   -1.9209 H   0  0  0  0  0  0  0  0  0  0  0  0
   -2.3280   -0.3308   -3.4486 H   0  0  0  0  0  0  0  0  0  0  0  0
   -2.5765   -1.1915   -1.9384 H   0  0  0  0  0  0  0  0  0  0  0  0
    0.2411    0.0806   -3.4454 C   0  0  0  0  0  0  0  0  0  0  0  0
    1.3004   -0.1912   -3.4939 H   0  0  0  0  0  0  0  0  0  0  0  0
   -0.1971   -0.0876   -4.4341 H   0  0  0  0  0  0  0  0  0  0  0  0
    0.1636    1.1467   -3.2080 H   0  0  0  0  0  0  0  0  0  0  0  0
   -0.5882    0.9694    0.7433 C   0  0  0  0  0  0  0  0  0  0  0  0
   -1.5667    1.6146    0.3843 O   0  0  0  0  0  0  0  0  0  0  0  0
    0.3196    1.5517    1.6094 N   0  0  0  0  0  0  0  0  0  0  0  0
    1.0756    0.9698    1.9593 H   0  0  0  0  0  0  0  0  0  0  0  0
    0.1793    2.9089    2.1230 C   0  0  0  0  0  0  0  0  0  0  0  0
   -0.7500    3.0078    2.6938 H   0  0  0  0  0  0  0  0  0  0  0  0
    1.0179    3.1522    2.7823 H   0  0  0  0  0  0  0  0  0  0  0  0
    0.1665    3.6312    1.3000 H   0  0  0  0  0  0  0  0  0  0  0  0
  1  2  1  0  0  0  0
  2  3  1  0  0  0  0
  2  4  1  0  0  0  0
  2  5  1  0  0  0  0
  5  6  2  0  0  0  0
  5  7  1  0  0  0  0
  7  8  1  0  0  0  0
  7  9  1  0  0  0  0
  9 10  1  0  0  0  0
  9 11  1  0  0  0  0
  9 24  1  0  0  0  0
 11 12  1  0  0  0  0
 11 13  1  0  0  0  0
 11 14  1  0  0  0  0
 14 15  1  0  0  0  0
 14 16  1  0  0  0  0
 14 20  1  0  0  0  0
 16 17  1  0  0  0  0
 16 18  1  0  0  0  0
 16 19  1  0  0  0  0
 20 21  1  0  0  0  0
 20 22  1  0  0  0  0
 20 23  1  0  0  0  0
 24 25  2  0  0  0  0
 24 26  1  0  0  0  0
 26 27  1  0  0  0  0
 26 28  1  0  0  0  0
 28 29  1  0  0  0  0
 28 30  1  0  0  0  0
 28 31  1  0  0  0  0
M  END
$$$$

  -OEChem-03222214063D

 31 30  0     1  0  0  0  0  0999 V2000
   -3.3849   -3.9220    1.4843 H   0  0  0  0  0  0  0  0  0  0  0  0
   -3.3772   -2.9423    0.9986 C   0  0  0  0  0  0  0  0  0  0  0  0
   -3.9979   -2.2560    1.5799 H   0  0  0  0  0  0  0  0  0  0  0  0
   -3.7977   -3.0430   -0.0049 H   0  0  0  0  0  0  0  0  0  0  0  0
   -1.9586   -2.4119    0.9130 C   0  0  0  0  0  0  0  0  0  0  0  0
   -1.0283   -3.0849    1.3289 O   0  0  0  0  0  0  0  0  0  0  0  0
   -1.7276   -1.1692    0.3627 N   0  0  0  0  0  0  0  0  0  0  0  0
   -2.5395   -0.6055    0.1159 H   0  0  0  0  0  0  0  0  0  0  0  0
   -0.4228   -0.4988    0.3227 C   0  0  1  0  0  0  0  0  0  0  0  0
    0.2257   -0.9481    1.0820 H   0  0  0  0  0  0  0  0  0  0  0  0
    0.3106   -0.6393   -1.0369 C   0  0  0  0  0  0  0  0  0  0  0  0
    0.9908    0.2152   -1.1223 H   0  0  0  0  0  0  0  0  0  0  0  0
    0.9419   -1.5311   -0.9646 H   0  0  0  0  0  0  0  0  0  0  0  0
   -0.4772   -0.7699   -2.3748 C   0  0  0  0  0  0  0  0  0  0  0  0
   -0.6645   -1.8380   -2.5295 H   0  0  0  0  0  0  0  0  0  0  0  0
   -1.8492   -0.0786   -2.4629 C   0  0  0  0  0  0  0  0  0  0  0  0
   -1.7755    0.9628   -2.1373 H   0  0  0  0  0  0  0  0  0  0  0  0
   -2.2058   -0.0840   -3.4976 H   0  0  0  0  0  0  0  0  0  0  0  0
   -2.6057   -0.5898   -1.8663 H   0  0  0  0  0  0  0  0  0  0  0  0
    0.4099   -0.2788   -3.5262 C   0  0  0  0  0  0  0  0  0  0  0  0
    1.3757   -0.7936   -3.5098 H   0  0  0  0  0  0  0  0  0  0  0  0
   -0.0670   -0.4802   -4.4907 H   0  0  0  0  0  0  0  0  0  0  0  0
    0.5860    0.7988   -3.4446 H   0  0  0  0  0  0  0  0  0  0  0  0
   -0.5763    0.9813    0.7345 C   0  0  0  0  0  0  0  0  0  0  0  0
   -1.5591    1.6250    0.3842 O   0  0  0  0  0  0  0  0  0  0  0  0
    0.3196    1.5537    1.6194 N   0  0  0  0  0  0  0  0  0  0  0  0
    1.0769    0.9713    1.9655 H   0  0  0  0  0  0  0  0  0  0  0  0
    0.1704    2.9038    2.1487 C   0  0  0  0  0  0  0  0  0  0  0  0
   -0.7621    2.9921    2.7161 H   0  0  0  0  0  0  0  0  0  0  0  0
    1.0048    3.1431    2.8149 H   0  0  0  0  0  0  0  0  0  0  0  0
    0.1587    3.6353    1.3337 H   0  0  0  0  0  0  0  0  0  0  0  0
  1  2  1  0  0  0  0
  2  3  1  0  0  0  0
  2  4  1  0  0  0  0
  2  5  1  0  0  0  0
  5  6  2  0  0  0  0
  5  7  1  0  0  0  0
  7  8  1  0  0  0  0
  7  9  1  0  0  0  0
  9 10  1  0  0  0  0
  9 11  1  0  0  0  0
  9 24  1  0  0  0  0
 11 12  1  0  0  0  0
 11 13  1  0  0  0  0
 11 14  1  0  0  0  0
 14 15  1  0  0  0  0
 14 16  1  0  0  0  0
 14 20  1  0  0  0  0
 16 17  1  0  0  0  0
 16 18  1  0  0  0  0
 16 19  1  0  0  0  0
 20 21  1  0  0  0  0
 20 22  1  0  0  0  0
 20 23  1  0  0  0  0
 24 25  2  0  0  0  0
 24 26  1  0  0  0  0
 26 27  1  0  0  0  0
 26 28  1  0  0  0  0
 28 29  1  0  0  0  0
 28 30  1  0  0  0  0
 28 31  1  0  0  0  0
M  END
$$$$

  -OEChem-03222214063D

 31 30  0     1  0  0  0  0  0999 V2000
   -3.4035   -3.9130    1.4086 H   0  0  0  0  0  0  0  0  0  0  0  0
   -3.3805   -2.9422    0.9059 C   0  0  0  0  0  0  0  0  0  0  0  0
   -4.0261   -2.2486    1.4500 H   0  0  0  0  0  0  0  0  0  0  0  0
   -3.7609   -3.0620   -0.1113 H   0  0  0  0  0  0  0  0  0  0  0  0
   -1.9616   -2.4073    0.8661 C   0  0  0  0  0  0  0  0  0  0  0  0
   -1.0437   -3.0747    1.3169 O   0  0  0  0  0  0  0  0  0  0  0  0
   -1.7159   -1.1667    0.3177 N   0  0  0  0  0  0  0  0  0  0  0  0
   -2.5207   -0.6080    0.0395 H   0  0  0  0  0  0  0  0  0  0  0  0
   -0.4098   -0.4938    0.3148 C   0  0  1  0  0  0  0  0  0  0  0  0
    0.2196   -0.9418    1.0910 H   0  0  0  0  0  0  0  0  0  0  0  0
    0.3438   -0.6536   -1.0297 C   0  0  0  0  0  0  0  0  0  0  0  0
    1.0292    0.1945   -1.1331 H   0  0  0  0  0  0  0  0  0  0  0  0
    0.9639   -1.5524   -0.9450 H   0  0  0  0  0  0  0  0  0  0  0  0
   -0.4695   -0.7936   -2.3443 C   0  0  0  0  0  0  0  0  0  0  0  0
   -0.8960   -1.8024   -2.3645 H   0  0  0  0  0  0  0  0  0  0  0  0
   -1.6371    0.1948   -2.5057 C   0  0  0  0  0  0  0  0  0  0  0  0
   -1.2836    1.2233   -2.3837 H   0  0  0  0  0  0  0  0  0  0  0  0
   -2.0755    0.0995   -3.5039 H   0  0  0  0  0  0  0  0  0  0  0  0
   -2.4339    0.0121   -1.7832 H   0  0  0  0  0  0  0  0  0  0  0  0
    0.4814   -0.6548   -3.5395 C   0  0  0  0  0  0  0  0  0  0  0  0
    1.2949   -1.3835   -3.4666 H   0  0  0  0  0  0  0  0  0  0  0  0
   -0.0536   -0.8331   -4.4775 H   0  0  0  0  0  0  0  0  0  0  0  0
    0.9149    0.3498   -3.5737 H   0  0  0  0  0  0  0  0  0  0  0  0
   -0.5653    0.9896    0.7143 C   0  0  0  0  0  0  0  0  0  0  0  0
   -1.5323    1.6389    0.3324 O   0  0  0  0  0  0  0  0  0  0  0  0
    0.3088    1.5608    1.6214 N   0  0  0  0  0  0  0  0  0  0  0  0
    1.0534    0.9759    1.9900 H   0  0  0  0  0  0  0  0  0  0  0  0
    0.1638    2.9200    2.1284 C   0  0  0  0  0  0  0  0  0  0  0  0
   -0.7925    3.0351    2.6494 H   0  0  0  0  0  0  0  0  0  0  0  0
    0.9701    3.1490    2.8316 H   0  0  0  0  0  0  0  0  0  0  0  0
    0.2072    3.6423    1.3065 H   0  0  0  0  0  0  0  0  0  0  0  0
  1  2  1  0  0  0  0
  2  3  1  0  0  0  0
  2  4  1  0  0  0  0
  2  5  1  0  0  0  0
  5  6  2  0  0  0  0
  5  7  1  0  0  0  0
  7  8  1  0  0  0  0
  7  9  1  0  0  0  0
  9 10  1  0  0  0  0
  9 11  1  0  0  0  0
  9 24  1  0  0  0  0
 11 12  1  0  0  0  0
 11 13  1  0  0  0  0
 11 14  1  0  0  0  0
 14 15  1  0  0  0  0
 14 16  1  0  0  0  0
 14 20  1  0  0  0  0
 16 17  1  0  0  0  0
 16 18  1  0  0  0  0
 16 19  1  0  0  0  0
 20 21  1  0  0  0  0
 20 22  1  0  0  0  0
 20 23  1  0  0  0  0
 24 25  2  0  0  0  0
 24 26  1  0  0  0  0
 26 27  1  0  0  0  0
 26 28  1  0  0  0  0
 28 29  1  0  0  0  0
 28 30  1  0  0  0  0
 28 31  1  0  0  0  0
M  END
$$$$

  -OEChem-03222214063D

 31 30  0     1  0  0  0  0  0999 V2000
   -3.4149   -3.9040    1.3673 H   0  0  0  0  0  0  0  0  0  0  0  0
   -3.3868   -2.9370    0.8574 C   0  0  0  0  0  0  0  0  0  0  0  0
   -4.0418   -2.2408    1.3868 H   0  0  0  0  0  0  0  0  0  0  0  0
   -3.7522   -3.0658   -0.1641 H   0  0  0  0  0  0  0  0  0  0  0  0
   -1.9689   -2.3986    0.8344 C   0  0  0  0  0  0  0  0  0  0  0  0
   -1.0557   -3.0625    1.2998 O   0  0  0  0  0  0  0  0  0  0  0  0
   -1.7187   -1.1593    0.2847 N   0  0  0  0  0  0  0  0  0  0  0  0
   -2.5201   -0.6062   -0.0140 H   0  0  0  0  0  0  0  0  0  0  0  0
   -0.4139   -0.4821    0.3006 C   0  0  1  0  0  0  0  0  0  0  0  0
    0.1996   -0.9260    1.0914 H   0  0  0  0  0  0  0  0  0  0  0  0
    0.3632   -0.6655   -1.0254 C   0  0  0  0  0  0  0  0  0  0  0  0
    1.0577    0.1724   -1.1485 H   0  0  0  0  0  0  0  0  0  0  0  0
    0.9707   -1.5698   -0.9146 H   0  0  0  0  0  0  0  0  0  0  0  0
   -0.4666   -0.8301   -2.3219 C   0  0  0  0  0  0  0  0  0  0  0  0
   -1.0921   -1.7253   -2.2375 H   0  0  0  0  0  0  0  0  0  0  0  0
   -1.3733    0.3733   -2.6137 C   0  0  0  0  0  0  0  0  0  0  0  0
   -0.8037    1.3068   -2.5633 H   0  0  0  0  0  0  0  0  0  0  0  0
   -1.8117    0.2885   -3.6128 H   0  0  0  0  0  0  0  0  0  0  0  0
   -2.1953    0.4246   -1.8959 H   0  0  0  0  0  0  0  0  0  0  0  0
    0.4918   -1.0312   -3.5017 C   0  0  0  0  0  0  0  0  0  0  0  0
    1.1320   -1.9021   -3.3296 H   0  0  0  0  0  0  0  0  0  0  0  0
   -0.0695   -1.1982   -4.4263 H   0  0  0  0  0  0  0  0  0  0  0  0
    1.1289   -0.1511   -3.6363 H   0  0  0  0  0  0  0  0  0  0  0  0
   -0.5618    1.0050    0.6899 C   0  0  0  0  0  0  0  0  0  0  0  0
   -1.5228    1.6599    0.3032 O   0  0  0  0  0  0  0  0  0  0  0  0
    0.3063    1.5716    1.6056 N   0  0  0  0  0  0  0  0  0  0  0  0
    1.0471    0.9843    1.9777 H   0  0  0  0  0  0  0  0  0  0  0  0
    0.1663    2.9330    2.1083 C   0  0  0  0  0  0  0  0  0  0  0  0
   -0.7921    3.0544    2.6240 H   0  0  0  0  0  0  0  0  0  0  0  0
    0.9705    3.1598    2.8149 H   0  0  0  0  0  0  0  0  0  0  0  0
    0.2175    3.6526    1.2844 H   0  0  0  0  0  0  0  0  0  0  0  0
  1  2  1  0  0  0  0
  2  3  1  0  0  0  0
  2  4  1  0  0  0  0
  2  5  1  0  0  0  0
  5  6  2  0  0  0  0
  5  7  1  0  0  0  0
  7  8  1  0  0  0  0
  7  9  1  0  0  0  0
  9 10  1  0  0  0  0
  9 11  1  0  0  0  0
  9 24  1  0  0  0  0
 11 12  1  0  0  0  0
 11 13  1  0  0  0  0
 11 14  1  0  0  0  0
 14 15  1  0  0  0  0
 14 16  1  0  0  0  0
 14 20  1  0  0  0  0
 16 17  1  0  0  0  0
 16 18  1  0  0  0  0
 16 19  1  0  0  0  0
 20 21  1  0  0  0  0
 20 22  1  0  0  0  0
 20 23  1  0  0  0  0
 24 25  2  0  0  0  0
 24 26  1  0  0  0  0
 26 27  1  0  0  0  0
 26 28  1  0  0  0  0
 28 29  1  0  0  0  0
 28 30  1  0  0  0  0
 28 31  1  0  0  0  0
M  END
$$$$

  -OEChem-03222214063D

 31 30  0     1  0  0  0  0  0999 V2000
   -3.4329   -3.8924    1.3757 H   0  0  0  0  0  0  0  0  0  0  0  0
   -3.4009   -2.9216    0.8733 C   0  0  0  0  0  0  0  0  0  0  0  0
   -4.0455   -2.2240    1.4136 H   0  0  0  0  0  0  0  0  0  0  0  0
   -3.7761   -3.0394   -0.1461 H   0  0  0  0  0  0  0  0  0  0  0  0
   -1.9787   -2.3947    0.8428 C   0  0  0  0  0  0  0  0  0  0  0  0
   -1.0700   -3.0603    1.3142 O   0  0  0  0  0  0  0  0  0  0  0  0
   -1.7204   -1.1618    0.2826 N   0  0  0  0  0  0  0  0  0  0  0  0
   -2.5189   -0.6043   -0.0161 H   0  0  0  0  0  0  0  0  0  0  0  0
   -0.4120   -0.4921    0.2925 C   0  0  1  0  0  0  0  0  0  0  0  0
    0.1987   -0.9312    1.0883 H   0  0  0  0  0  0  0  0  0  0  0  0
    0.3713   -0.6810   -1.0302 C   0  0  0  0  0  0  0  0  0  0  0  0
    1.0834    0.1417   -1.1556 H   0  0  0  0  0  0  0  0  0  0  0  0
    0.9621   -1.5948   -0.9058 H   0  0  0  0  0  0  0  0  0  0  0  0
   -0.4617   -0.8464   -2.3259 C   0  0  0  0  0  0  0  0  0  0  0  0
   -1.2624   -1.5772   -2.1771 H   0  0  0  0  0  0  0  0  0  0  0  0
   -1.0663    0.4835   -2.7929 C   0  0  0  0  0  0  0  0  0  0  0  0
   -0.3021    1.2657   -2.8371 H   0  0  0  0  0  0  0  0  0  0  0  0
   -1.5094    0.3746   -3.7876 H   0  0  0  0  0  0  0  0  0  0  0  0
   -1.8578    0.8041   -2.1115 H   0  0  0  0  0  0  0  0  0  0  0  0
    0.4523   -1.3788   -3.4374 C   0  0  0  0  0  0  0  0  0  0  0  0
    0.8719   -2.3497   -3.1560 H   0  0  0  0  0  0  0  0  0  0  0  0
   -0.1114   -1.5096   -4.3663 H   0  0  0  0  0  0  0  0  0  0  0  0
    1.2769   -0.6839   -3.6261 H   0  0  0  0  0  0  0  0  0  0  0  0
   -0.5615    0.9972    0.6696 C   0  0  0  0  0  0  0  0  0  0  0  0
   -1.5288    1.6437    0.2844 O   0  0  0  0  0  0  0  0  0  0  0  0
    0.3051    1.5714    1.5820 N   0  0  0  0  0  0  0  0  0  0  0  0
    1.0442    0.9864    1.9612 H   0  0  0  0  0  0  0  0  0  0  0  0
    0.1473    2.9272    2.0938 C   0  0  0  0  0  0  0  0  0  0  0  0
   -0.8064    3.0285    2.6225 H   0  0  0  0  0  0  0  0  0  0  0  0
    0.9566    3.1647    2.7911 H   0  0  0  0  0  0  0  0  0  0  0  0
    0.1747    3.6519    1.2732 H   0  0  0  0  0  0  0  0  0  0  0  0
  1  2  1  0  0  0  0
  2  3  1  0  0  0  0
  2  4  1  0  0  0  0
  2  5  1  0  0  0  0
  5  6  2  0  0  0  0
  5  7  1  0  0  0  0
  7  8  1  0  0  0  0
  7  9  1  0  0  0  0
  9 10  1  0  0  0  0
  9 11  1  0  0  0  0
  9 24  1  0  0  0  0
 11 12  1  0  0  0  0
 11 13  1  0  0  0  0
 11 14  1  0  0  0  0
 14 15  1  0  0  0  0
 14 16  1  0  0  0  0
 14 20  1  0  0  0  0
 16 17  1  0  0  0  0
 16 18  1  0  0  0  0
 16 19  1  0  0  0  0
 20 21  1  0  0  0  0
 20 22  1  0  0  0  0
 20 23  1  0  0  0  0
 24 25  2  0  0  0  0
 24 26  1  0  0  0  0
 26 27  1  0  0  0  0
 26 28  1  0  0  0  0
 28 29  1  0  0  0  0
 28 30  1  0  0  0  0
 28 31  1  0  0  0  0
M  END
$$$$

  -OEChem-03222214063D

 31 30  0     1  0  0  0  0  0999 V2000
   -3.4560   -3.8831    1.4228 H   0  0  0  0  0  0  0  0  0  0  0  0
   -3.4157   -2.9203    0.9058 C   0  0  0  0  0  0  0  0  0  0  0  0
   -4.0533   -2.2087    1.4360 H   0  0  0  0  0  0  0  0  0  0  0  0
   -3.7936   -3.0501   -0.1112 H   0  0  0  0  0  0  0  0  0  0  0  0
   -1.9887   -2.4070    0.8660 C   0  0  0  0  0  0  0  0  0  0  0  0
   -1.0854   -3.0748    1.3447 O   0  0  0  0  0  0  0  0  0  0  0  0
   -1.7198   -1.1828    0.2918 N   0  0  0  0  0  0  0  0  0  0  0  0
   -2.5142   -0.6183   -0.0055 H   0  0  0  0  0  0  0  0  0  0  0  0
   -0.4060   -0.5234    0.2975 C   0  0  1  0  0  0  0  0  0  0  0  0
    0.2054   -0.9575    1.0955 H   0  0  0  0  0  0  0  0  0  0  0  0
    0.3781   -0.6985   -1.0277 C   0  0  0  0  0  0  0  0  0  0  0  0
    1.1066    0.1117   -1.1387 H   0  0  0  0  0  0  0  0  0  0  0  0
    0.9563   -1.6204   -0.9055 H   0  0  0  0  0  0  0  0  0  0  0  0
   -0.4523   -0.8421   -2.3312 C   0  0  0  0  0  0  0  0  0  0  0  0
   -1.4017   -1.3514   -2.1474 H   0  0  0  0  0  0  0  0  0  0  0  0
   -0.7241    0.5288   -2.9637 C   0  0  0  0  0  0  0  0  0  0  0  0
    0.2118    1.0623   -3.1575 H   0  0  0  0  0  0  0  0  0  0  0  0
   -1.2585    0.4122   -3.9116 H   0  0  0  0  0  0  0  0  0  0  0  0
   -1.3428    1.1407   -2.3031 H   0  0  0  0  0  0  0  0  0  0  0  0
    0.3328   -1.6867   -3.3436 C   0  0  0  0  0  0  0  0  0  0  0  0
    0.5018   -2.6947   -2.9515 H   0  0  0  0  0  0  0  0  0  0  0  0
   -0.2251   -1.7766   -4.2811 H   0  0  0  0  0  0  0  0  0  0  0  0
    1.3037   -1.2290   -3.5594 H   0  0  0  0  0  0  0  0  0  0  0  0
   -0.5691    0.9677    0.6586 C   0  0  0  0  0  0  0  0  0  0  0  0
   -1.5337    1.6026    0.2468 O   0  0  0  0  0  0  0  0  0  0  0  0
    0.2852    1.5606    1.5703 N   0  0  0  0  0  0  0  0  0  0  0  0
    1.0218    0.9849    1.9682 H   0  0  0  0  0  0  0  0  0  0  0  0
    0.1199    2.9266    2.0517 C   0  0  0  0  0  0  0  0  0  0  0  0
   -0.8411    3.0386    2.5645 H   0  0  0  0  0  0  0  0  0  0  0  0
    0.9189    3.1788    2.7554 H   0  0  0  0  0  0  0  0  0  0  0  0
    0.1591    3.6342    1.2168 H   0  0  0  0  0  0  0  0  0  0  0  0
  1  2  1  0  0  0  0
  2  3  1  0  0  0  0
  2  4  1  0  0  0  0
  2  5  1  0  0  0  0
  5  6  2  0  0  0  0
  5  7  1  0  0  0  0
  7  8  1  0  0  0  0
  7  9  1  0  0  0  0
  9 10  1  0  0  0  0
  9 11  1  0  0  0  0
  9 24  1  0  0  0  0
 11 12  1  0  0  0  0
 11 13  1  0  0  0  0
 11 14  1  0  0  0  0
 14 15  1  0  0  0  0
 14 16  1  0  0  0  0
 14 20  1  0  0  0  0
 16 17  1  0  0  0  0
 16 18  1  0  0  0  0
 16 19  1  0  0  0  0
 20 21  1  0  0  0  0
 20 22  1  0  0  0  0
 20 23  1  0  0  0  0
 24 25  2  0  0  0  0
 24 26  1  0  0  0  0
 26 27  1  0  0  0  0
 26 28  1  0  0  0  0
 28 29  1  0  0  0  0
 28 30  1  0  0  0  0
 28 31  1  0  0  0  0
M  END
$$$$

  -OEChem-03222214063D

 31 30  0     1  0  0  0  0  0999 V2000
   -3.4674   -3.8935    1.4440 H   0  0  0  0  0  0  0  0  0  0  0  0
   -3.4170   -2.9388    0.9129 C   0  0  0  0  0  0  0  0  0  0  0  0
   -4.0663   -2.2200    1.4186 H   0  0  0  0  0  0  0  0  0  0  0  0
   -3.7733   -3.0847   -0.1096 H   0  0  0  0  0  0  0  0  0  0  0  0
   -1.9897   -2.4248    0.8941 C   0  0  0  0  0  0  0  0  0  0  0  0
   -1.0962   -3.0833    1.4031 O   0  0  0  0  0  0  0  0  0  0  0  0
   -1.7093   -1.2109    0.3039 N   0  0  0  0  0  0  0  0  0  0  0  0
   -2.4963   -0.6540   -0.0255 H   0  0  0  0  0  0  0  0  0  0  0  0
   -0.3930   -0.5563    0.3158 C   0  0  1  0  0  0  0  0  0  0  0  0
    0.2198   -0.9844    1.1159 H   0  0  0  0  0  0  0  0  0  0  0  0
    0.3890   -0.7108   -1.0128 C   0  0  0  0  0  0  0  0  0  0  0  0
    1.1196    0.0999   -1.1065 H   0  0  0  0  0  0  0  0  0  0  0  0
    0.9705   -1.6327   -0.9060 H   0  0  0  0  0  0  0  0  0  0  0  0
   -0.4480   -0.8278   -2.3184 C   0  0  0  0  0  0  0  0  0  0  0  0
   -1.4958   -1.0562   -2.1115 H   0  0  0  0  0  0  0  0  0  0  0  0
   -0.3898    0.4893   -3.1021 C   0  0  0  0  0  0  0  0  0  0  0  0
    0.6406    0.7352   -3.3775 H   0  0  0  0  0  0  0  0  0  0  0  0
   -0.9847    0.4141   -4.0175 H   0  0  0  0  0  0  0  0  0  0  0  0
   -0.7938    1.3085   -2.4995 H   0  0  0  0  0  0  0  0  0  0  0  0
    0.1051   -1.9527   -3.2030 C   0  0  0  0  0  0  0  0  0  0  0  0
    0.0334   -2.9141   -2.6845 H   0  0  0  0  0  0  0  0  0  0  0  0
   -0.4671   -2.0237   -4.1333 H   0  0  0  0  0  0  0  0  0  0  0  0
    1.1547   -1.7684   -3.4536 H   0  0  0  0  0  0  0  0  0  0  0  0
   -0.5697    0.9385    0.6519 C   0  0  0  0  0  0  0  0  0  0  0  0
   -1.5027    1.5718    0.1699 O   0  0  0  0  0  0  0  0  0  0  0  0
    0.2653    1.5528    1.5672 N   0  0  0  0  0  0  0  0  0  0  0  0
    0.9852    0.9838    2.0035 H   0  0  0  0  0  0  0  0  0  0  0  0
    0.1082    2.9386    1.9910 C   0  0  0  0  0  0  0  0  0  0  0  0
   -0.8687    3.0866    2.4632 H   0  0  0  0  0  0  0  0  0  0  0  0
    0.8856    3.2030    2.7143 H   0  0  0  0  0  0  0  0  0  0  0  0
    0.1910    3.6134    1.1324 H   0  0  0  0  0  0  0  0  0  0  0  0
  1  2  1  0  0  0  0
  2  3  1  0  0  0  0
  2  4  1  0  0  0  0
  2  5  1  0  0  0  0
  5  6  2  0  0  0  0
  5  7  1  0  0  0  0
  7  8  1  0  0  0  0
  7  9  1  0  0  0  0
  9 10  1  0  0  0  0
  9 11  1  0  0  0  0
  9 24  1  0  0  0  0
 11 12  1  0  0  0  0
 11 13  1  0  0  0  0
 11 14  1  0  0  0  0
 14 15  1  0  0  0  0
 14 16  1  0  0  0  0
 14 20  1  0  0  0  0
 16 17  1  0  0  0  0
 16 18  1  0  0  0  0
 16 19  1  0  0  0  0
 20 21  1  0  0  0  0
 20 22  1  0  0  0  0
 20 23  1  0  0  0  0
 24 25  2  0  0  0  0
 24 26  1  0  0  0  0
 26 27  1  0  0  0  0
 26 28  1  0  0  0  0
 28 29  1  0  0  0  0
 28 30  1  0  0  0  0
 28 31  1  0  0  0  0
M  END
$$$$

  -OEChem-03222214063D

 31 30  0     1  0  0  0  0  0999 V2000
   -3.4576   -3.9098    1.4213 H   0  0  0  0  0  0  0  0  0  0  0  0
   -3.4014   -2.9591    0.8837 C   0  0  0  0  0  0  0  0  0  0  0  0
   -4.0692   -2.2415    1.3665 H   0  0  0  0  0  0  0  0  0  0  0  0
   -3.7300   -3.1166   -0.1464 H   0  0  0  0  0  0  0  0  0  0  0  0
   -1.9781   -2.4342    0.8973 C   0  0  0  0  0  0  0  0  0  0  0  0
   -1.0927   -3.0845    1.4303 O   0  0  0  0  0  0  0  0  0  0  0  0
   -1.6907   -1.2234    0.3042 N   0  0  0  0  0  0  0  0  0  0  0  0
   -2.4725   -0.6736   -0.0487 H   0  0  0  0  0  0  0  0  0  0  0  0
   -0.3744   -0.5677    0.3305 C   0  0  1  0  0  0  0  0  0  0  0  0
    0.2364   -0.9937    1.1334 H   0  0  0  0  0  0  0  0  0  0  0  0
    0.4073   -0.7143   -0.9984 C   0  0  0  0  0  0  0  0  0  0  0  0
    1.1224    0.1112   -1.0839 H   0  0  0  0  0  0  0  0  0  0  0  0
    1.0087   -1.6250   -0.9094 H   0  0  0  0  0  0  0  0  0  0  0  0
   -0.4435   -0.8182   -2.2963 C   0  0  0  0  0  0  0  0  0  0  0  0
   -1.5103   -0.7301   -2.0770 H   0  0  0  0  0  0  0  0  0  0  0  0
   -0.0971    0.3347   -3.2452 C   0  0  0  0  0  0  0  0  0  0  0  0
    0.9582    0.2967   -3.5337 H   0  0  0  0  0  0  0  0  0  0  0  0
   -0.7072    0.2784   -4.1521 H   0  0  0  0  0  0  0  0  0  0  0  0
   -0.2930    1.2965   -2.7600 H   0  0  0  0  0  0  0  0  0  0  0  0
   -0.2123   -2.1619   -2.9968 C   0  0  0  0  0  0  0  0  0  0  0  0
   -0.4857   -2.9872   -2.3317 H   0  0  0  0  0  0  0  0  0  0  0  0
   -0.8259   -2.2311   -3.9002 H   0  0  0  0  0  0  0  0  0  0  0  0
    0.8387   -2.2753   -3.2811 H   0  0  0  0  0  0  0  0  0  0  0  0
   -0.5615    0.9281    0.6563 C   0  0  0  0  0  0  0  0  0  0  0  0
   -1.4720    1.5607    0.1320 O   0  0  0  0  0  0  0  0  0  0  0  0
    0.2557    1.5538    1.5798 N   0  0  0  0  0  0  0  0  0  0  0  0
    0.9687    0.9916    2.0359 H   0  0  0  0  0  0  0  0  0  0  0  0
    0.1090    2.9533    1.9609 C   0  0  0  0  0  0  0  0  0  0  0  0
   -0.8768    3.1292    2.4043 H   0  0  0  0  0  0  0  0  0  0  0  0
    0.8725    3.2271    2.6955 H   0  0  0  0  0  0  0  0  0  0  0  0
    0.2231    3.6020    1.0860 H   0  0  0  0  0  0  0  0  0  0  0  0
  1  2  1  0  0  0  0
  2  3  1  0  0  0  0
  2  4  1  0  0  0  0
  2  5  1  0  0  0  0
  5  6  2  0  0  0  0
  5  7  1  0  0  0  0
  7  8  1  0  0  0  0
  7  9  1  0  0  0  0
  9 10  1  0  0  0  0
  9 11  1  0  0  0  0
  9 24  1  0  0  0  0
 11 12  1  0  0  0  0
 11 13  1  0  0  0  0
 11 14  1  0  0  0  0
 14 15  1  0  0  0  0
 14 16  1  0  0  0  0
 14 20  1  0  0  0  0
 16 17  1  0  0  0  0
 16 18  1  0  0  0  0
 16 19  1  0  0  0  0
 20 21  1  0  0  0  0
 20 22  1  0  0  0  0
 20 23  1  0  0  0  0
 24 25  2  0  0  0  0
 24 26  1  0  0  0  0
 26 27  1  0  0  0  0
 26 28  1  0  0  0  0
 28 29  1  0  0  0  0
 28 30  1  0  0  0  0
 28 31  1  0  0  0  0
M  END
$$$$

  -OEChem-03222214063D

 31 30  0     1  0  0  0  0  0999 V2000
   -3.4486   -3.9126    1.3851 H   0  0  0  0  0  0  0  0  0  0  0  0
   -3.3893   -2.9590    0.8532 C   0  0  0  0  0  0  0  0  0  0  0  0
   -4.0642   -2.2458    1.3325 H   0  0  0  0  0  0  0  0  0  0  0  0
   -3.7060   -3.1120   -0.1813 H   0  0  0  0  0  0  0  0  0  0  0  0
   -1.9681   -2.4298    0.8852 C   0  0  0  0  0  0  0  0  0  0  0  0
   -1.0867   -3.0770    1.4283 O   0  0  0  0  0  0  0  0  0  0  0  0
   -1.6776   -1.2183    0.2954 N   0  0  0  0  0  0  0  0  0  0  0  0
   -2.4562   -0.6728   -0.0703 H   0  0  0  0  0  0  0  0  0  0  0  0
   -0.3625   -0.5600    0.3321 C   0  0  1  0  0  0  0  0  0  0  0  0
    0.2440   -0.9866    1.1375 H   0  0  0  0  0  0  0  0  0  0  0  0
    0.4215   -0.7147   -0.9940 C   0  0  0  0  0  0  0  0  0  0  0  0
    1.1171    0.1263   -1.0857 H   0  0  0  0  0  0  0  0  0  0  0  0
    1.0406   -1.6145   -0.9142 H   0  0  0  0  0  0  0  0  0  0  0  0
   -0.4447   -0.8241   -2.2769 C   0  0  0  0  0  0  0  0  0  0  0  0
   -1.4559   -0.4548   -2.0798 H   0  0  0  0  0  0  0  0  0  0  0  0
    0.1283    0.0681   -3.3834 C   0  0  0  0  0  0  0  0  0  0  0  0
    1.1513   -0.2320   -3.6312 H   0  0  0  0  0  0  0  0  0  0  0  0
   -0.4846   -0.0055   -4.2872 H   0  0  0  0  0  0  0  0  0  0  0  0
    0.1383    1.1145   -3.0615 H   0  0  0  0  0  0  0  0  0  0  0  0
   -0.5378   -2.2773   -2.7588 C   0  0  0  0  0  0  0  0  0  0  0  0
   -0.9517   -2.9159   -1.9725 H   0  0  0  0  0  0  0  0  0  0  0  0
   -1.1888   -2.3458   -3.6358 H   0  0  0  0  0  0  0  0  0  0  0  0
    0.4514   -2.6591   -3.0305 H   0  0  0  0  0  0  0  0  0  0  0  0
   -0.5492    0.9361    0.6572 C   0  0  0  0  0  0  0  0  0  0  0  0
   -1.4542    1.5707    0.1262 O   0  0  0  0  0  0  0  0  0  0  0  0
    0.2632    1.5594    1.5866 N   0  0  0  0  0  0  0  0  0  0  0  0
    0.9704    0.9947    2.0485 H   0  0  0  0  0  0  0  0  0  0  0  0
    0.1134    2.9574    1.9714 C   0  0  0  0  0  0  0  0  0  0  0  0
   -0.8753    3.1312    2.4090 H   0  0  0  0  0  0  0  0  0  0  0  0
    0.8720    3.2294    2.7117 H   0  0  0  0  0  0  0  0  0  0  0  0
    0.2325    3.6092    1.0994 H   0  0  0  0  0  0  0  0  0  0  0  0
  1  2  1  0  0  0  0
  2  3  1  0  0  0  0
  2  4  1  0  0  0  0
  2  5  1  0  0  0  0
  5  6  2  0  0  0  0
  5  7  1  0  0  0  0
  7  8  1  0  0  0  0
  7  9  1  0  0  0  0
  9 10  1  0  0  0  0
  9 11  1  0  0  0  0
  9 24  1  0  0  0  0
 11 12  1  0  0  0  0
 11 13  1  0  0  0  0
 11 14  1  0  0  0  0
 14 15  1  0  0  0  0
 14 16  1  0  0  0  0
 14 20  1  0  0  0  0
 16 17  1  0  0  0  0
 16 18  1  0  0  0  0
 16 19  1  0  0  0  0
 20 21  1  0  0  0  0
 20 22  1  0  0  0  0
 20 23  1  0  0  0  0
 24 25  2  0  0  0  0
 24 26  1  0  0  0  0
 26 27  1  0  0  0  0
 26 28  1  0  0  0  0
 28 29  1  0  0  0  0
 28 30  1  0  0  0  0
 28 31  1  0  0  0  0
M  END
$$$$

  -OEChem-03222214063D

 31 30  0     1  0  0  0  0  0999 V2000
   -3.4675   -3.9023    1.4397 H   0  0  0  0  0  0  0  0  0  0  0  0
   -3.4086   -2.9507    0.9039 C   0  0  0  0  0  0  0  0  0  0  0  0
   -4.0774   -2.2331    1.3855 H   0  0  0  0  0  0  0  0  0  0  0  0
   -3.7340   -3.1061   -0.1276 H   0  0  0  0  0  0  0  0  0  0  0  0
   -1.9848   -2.4271    0.9237 C   0  0  0  0  0  0  0  0  0  0  0  0
   -1.1032   -3.0747    1.4660 O   0  0  0  0  0  0  0  0  0  0  0  0
   -1.6930   -1.2208    0.3229 N   0  0  0  0  0  0  0  0  0  0  0  0
   -2.4706   -0.6771   -0.0477 H   0  0  0  0  0  0  0  0  0  0  0  0
   -0.3746   -0.5708    0.3400 C   0  0  1  0  0  0  0  0  0  0  0  0
    0.2376   -0.9959    1.1420 H   0  0  0  0  0  0  0  0  0  0  0  0
    0.4053   -0.7207   -0.9906 C   0  0  0  0  0  0  0  0  0  0  0  0
    1.0953    0.1255   -1.0816 H   0  0  0  0  0  0  0  0  0  0  0  0
    1.0260   -1.6200   -0.9206 H   0  0  0  0  0  0  0  0  0  0  0  0
   -0.4575   -0.8251   -2.2733 C   0  0  0  0  0  0  0  0  0  0  0  0
   -1.3772   -0.2440   -2.1463 H   0  0  0  0  0  0  0  0  0  0  0  0
    0.3120   -0.2343   -3.4612 C   0  0  0  0  0  0  0  0  0  0  0  0
    1.2548   -0.7685   -3.6165 H   0  0  0  0  0  0  0  0  0  0  0  0
   -0.2844   -0.3064   -4.3762 H   0  0  0  0  0  0  0  0  0  0  0  0
    0.5345    0.8227   -3.2835 H   0  0  0  0  0  0  0  0  0  0  0  0
   -0.8141   -2.2828   -2.6079 C   0  0  0  0  0  0  0  0  0  0  0  0
   -1.3777   -2.7507   -1.7986 H   0  0  0  0  0  0  0  0  0  0  0  0
   -1.4271   -2.3240   -3.5136 H   0  0  0  0  0  0  0  0  0  0  0  0
    0.0930   -2.8717   -2.7776 H   0  0  0  0  0  0  0  0  0  0  0  0
   -0.5558    0.9275    0.6592 C   0  0  0  0  0  0  0  0  0  0  0  0
   -1.4672    1.5613    0.1382 O   0  0  0  0  0  0  0  0  0  0  0  0
    0.2685    1.5533    1.5764 N   0  0  0  0  0  0  0  0  0  0  0  0
    0.9810    0.9898    2.0316 H   0  0  0  0  0  0  0  0  0  0  0  0
    0.1264    2.9534    1.9564 C   0  0  0  0  0  0  0  0  0  0  0  0
   -0.8593    3.1328    2.3984 H   0  0  0  0  0  0  0  0  0  0  0  0
    0.8897    3.2251    2.6919 H   0  0  0  0  0  0  0  0  0  0  0  0
    0.2441    3.6011    1.0812 H   0  0  0  0  0  0  0  0  0  0  0  0
  1  2  1  0  0  0  0
  2  3  1  0  0  0  0
  2  4  1  0  0  0  0
  2  5  1  0  0  0  0
  5  6  2  0  0  0  0
  5  7  1  0  0  0  0
  7  8  1  0  0  0  0
  7  9  1  0  0  0  0
  9 10  1  0  0  0  0
  9 11  1  0  0  0  0
  9 24  1  0  0  0  0
 11 12  1  0  0  0  0
 11 13  1  0  0  0  0
 11 14  1  0  0  0  0
 14 15  1  0  0  0  0
 14 16  1  0  0  0  0
 14 20  1  0  0  0  0
 16 17  1  0  0  0  0
 16 18  1  0  0  0  0
 16 19  1  0  0  0  0
 20 21  1  0  0  0  0
 20 22  1  0  0  0  0
 20 23  1  0  0  0  0
 24 25  2  0  0  0  0
 24 26  1  0  0  0  0
 26 27  1  0  0  0  0
 26 28  1  0  0  0  0
 28 29  1  0  0  0  0
 28 30  1  0  0  0  0
 28 31  1  0  0  0  0
M  END
$$$$

  -OEChem-03222214063D

 31 30  0     1  0  0  0  0  0999 V2000
   -3.4604   -3.8971    1.5520 H   0  0  0  0  0  0  0  0  0  0  0  0
   -3.4150   -2.9508    1.0059 C   0  0  0  0  0  0  0  0  0  0  0  0
   -4.0657   -2.2263    1.5012 H   0  0  0  0  0  0  0  0  0  0  0  0
   -3.7725   -3.1144   -0.0134 H   0  0  0  0  0  0  0  0  0  0  0  0
   -1.9899   -2.4314    0.9769 C   0  0  0  0  0  0  0  0  0  0  0  0
   -1.0928   -3.0802    1.4920 O   0  0  0  0  0  0  0  0  0  0  0  0
   -1.7153   -1.2249    0.3676 N   0  0  0  0  0  0  0  0  0  0  0  0
   -2.5028   -0.6794    0.0209 H   0  0  0  0  0  0  0  0  0  0  0  0
   -0.3972   -0.5792    0.3457 C   0  0  1  0  0  0  0  0  0  0  0  0
    0.2330   -1.0034    1.1341 H   0  0  0  0  0  0  0  0  0  0  0  0
    0.3642   -0.7159   -0.9986 C   0  0  0  0  0  0  0  0  0  0  0  0
    1.0557    0.1293   -1.0858 H   0  0  0  0  0  0  0  0  0  0  0  0
    0.9821   -1.6177   -0.9344 H   0  0  0  0  0  0  0  0  0  0  0  0
   -0.4756   -0.8165   -2.2987 C   0  0  0  0  0  0  0  0  0  0  0  0
   -1.2589   -0.0508   -2.2893 H   0  0  0  0  0  0  0  0  0  0  0  0
    0.4545   -0.5603   -3.4934 C   0  0  0  0  0  0  0  0  0  0  0  0
    1.2519   -1.3095   -3.5327 H   0  0  0  0  0  0  0  0  0  0  0  0
   -0.1066   -0.5990   -4.4323 H   0  0  0  0  0  0  0  0  0  0  0  0
    0.9115    0.4312   -3.4155 H   0  0  0  0  0  0  0  0  0  0  0  0
   -1.1116   -2.2028   -2.5201 C   0  0  0  0  0  0  0  0  0  0  0  0
   -1.9547   -2.3727   -1.8502 H   0  0  0  0  0  0  0  0  0  0  0  0
   -1.4932   -2.2875   -3.5424 H   0  0  0  0  0  0  0  0  0  0  0  0
   -0.3741   -2.9960   -2.3615 H   0  0  0  0  0  0  0  0  0  0  0  0
   -0.5728    0.9185    0.6718 C   0  0  0  0  0  0  0  0  0  0  0  0
   -1.4966    1.5525    0.1730 O   0  0  0  0  0  0  0  0  0  0  0  0
    0.2761    1.5448    1.5657 N   0  0  0  0  0  0  0  0  0  0  0  0
    0.9983    0.9803    2.0043 H   0  0  0  0  0  0  0  0  0  0  0  0
    0.1456    2.9457    1.9471 C   0  0  0  0  0  0  0  0  0  0  0  0
   -0.8359    3.1314    2.3959 H   0  0  0  0  0  0  0  0  0  0  0  0
    0.9155    3.2121    2.6776 H   0  0  0  0  0  0  0  0  0  0  0  0
    0.2613    3.5929    1.0714 H   0  0  0  0  0  0  0  0  0  0  0  0
  1  2  1  0  0  0  0
  2  3  1  0  0  0  0
  2  4  1  0  0  0  0
  2  5  1  0  0  0  0
  5  6  2  0  0  0  0
  5  7  1  0  0  0  0
  7  8  1  0  0  0  0
  7  9  1  0  0  0  0
  9 10  1  0  0  0  0
  9 11  1  0  0  0  0
  9 24  1  0  0  0  0
 11 12  1  0  0  0  0
 11 13  1  0  0  0  0
 11 14  1  0  0  0  0
 14 15  1  0  0  0  0
 14 16  1  0  0  0  0
 14 20  1  0  0  0  0
 16 17  1  0  0  0  0
 16 18  1  0  0  0  0
 16 19  1  0  0  0  0
 20 21  1  0  0  0  0
 20 22  1  0  0  0  0
 20 23  1  0  0  0  0
 24 25  2  0  0  0  0
 24 26  1  0  0  0  0
 26 27  1  0  0  0  0
 26 28  1  0  0  0  0
 28 29  1  0  0  0  0
 28 30  1  0  0  0  0
 28 31  1  0  0  0  0
M  END
$$$$

  -OEChem-03222214063D

 31 30  0     1  0  0  0  0  0999 V2000
   -3.4004   -3.9312    1.5522 H   0  0  0  0  0  0  0  0  0  0  0  0
   -3.3760   -2.9795    1.0141 C   0  0  0  0  0  0  0  0  0  0  0  0
   -4.0246   -2.2670    1.5294 H   0  0  0  0  0  0  0  0  0  0  0  0
   -3.7524   -3.1374    0.0006 H   0  0  0  0  0  0  0  0  0  0  0  0
   -1.9573   -2.4450    0.9607 C   0  0  0  0  0  0  0  0  0  0  0  0
   -1.0411   -3.0967    1.4370 O   0  0  0  0  0  0  0  0  0  0  0  0
   -1.7100   -1.2232    0.3719 N   0  0  0  0  0  0  0  0  0  0  0  0
   -2.5120   -0.6790    0.0583 H   0  0  0  0  0  0  0  0  0  0  0  0
   -0.4027   -0.5591    0.3325 C   0  0  1  0  0  0  0  0  0  0  0  0
    0.2444   -0.9938    1.1013 H   0  0  0  0  0  0  0  0  0  0  0  0
    0.3363   -0.6832   -1.0235 C   0  0  0  0  0  0  0  0  0  0  0  0
    1.1939   -0.0021   -1.0044 H   0  0  0  0  0  0  0  0  0  0  0  0
    0.7397   -1.7005   -1.0672 H   0  0  0  0  0  0  0  0  0  0  0  0
   -0.4513   -0.4424   -2.3409 C   0  0  0  0  0  0  0  0  0  0  0  0
   -0.8226    0.5881   -2.3511 H   0  0  0  0  0  0  0  0  0  0  0  0
    0.5266   -0.6274   -3.5108 C   0  0  0  0  0  0  0  0  0  0  0  0
    0.8970   -1.6571   -3.5479 H   0  0  0  0  0  0  0  0  0  0  0  0
    0.0353   -0.4004   -4.4622 H   0  0  0  0  0  0  0  0  0  0  0  0
    1.3824    0.0466   -3.4047 H   0  0  0  0  0  0  0  0  0  0  0  0
   -1.6361   -1.3933   -2.5846 C   0  0  0  0  0  0  0  0  0  0  0  0
   -2.5106   -1.0827   -2.0081 H   0  0  0  0  0  0  0  0  0  0  0  0
   -1.9295   -1.3819   -3.6391 H   0  0  0  0  0  0  0  0  0  0  0  0
   -1.3706   -2.4195   -2.3113 H   0  0  0  0  0  0  0  0  0  0  0  0
   -0.5753    0.9306    0.6912 C   0  0  0  0  0  0  0  0  0  0  0  0
   -1.5230    1.5663    0.2419 O   0  0  0  0  0  0  0  0  0  0  0  0
    0.2944    1.5430    1.5750 N   0  0  0  0  0  0  0  0  0  0  0  0
    1.0280    0.9722    1.9854 H   0  0  0  0  0  0  0  0  0  0  0  0
    0.1533    2.9280    2.0069 C   0  0  0  0  0  0  0  0  0  0  0  0
   -0.8062    3.0761    2.5135 H   0  0  0  0  0  0  0  0  0  0  0  0
    0.9560    3.1904    2.7028 H   0  0  0  0  0  0  0  0  0  0  0  0
    0.2064    3.6044    1.1473 H   0  0  0  0  0  0  0  0  0  0  0  0
  1  2  1  0  0  0  0
  2  3  1  0  0  0  0
  2  4  1  0  0  0  0
  2  5  1  0  0  0  0
  5  6  2  0  0  0  0
  5  7  1  0  0  0  0
  7  8  1  0  0  0  0
  7  9  1  0  0  0  0
  9 10  1  0  0  0  0
  9 11  1  0  0  0  0
  9 24  1  0  0  0  0
 11 12  1  0  0  0  0
 11 13  1  0  0  0  0
 11 14  1  0  0  0  0
 14 15  1  0  0  0  0
 14 16  1  0  0  0  0
 14 20  1  0  0  0  0
 16 17  1  0  0  0  0
 16 18  1  0  0  0  0
 16 19  1  0  0  0  0
 20 21  1  0  0  0  0
 20 22  1  0  0  0  0
 20 23  1  0  0  0  0
 24 25  2  0  0  0  0
 24 26  1  0  0  0  0
 26 27  1  0  0  0  0
 26 28  1  0  0  0  0
 28 29  1  0  0  0  0
 28 30  1  0  0  0  0
 28 31  1  0  0  0  0
M  END
$$$$

  -OEChem-03222214063D

 31 30  0     1  0  0  0  0  0999 V2000
   -3.3948   -3.9437    1.5885 H   0  0  0  0  0  0  0  0  0  0  0  0
   -3.3766   -2.9841    1.0645 C   0  0  0  0  0  0  0  0  0  0  0  0
   -4.0135   -2.2772    1.6017 H   0  0  0  0  0  0  0  0  0  0  0  0
   -3.7707   -3.1257    0.0553 H   0  0  0  0  0  0  0  0  0  0  0  0
   -1.9579   -2.4524    0.9948 C   0  0  0  0  0  0  0  0  0  0  0  0
   -1.0366   -3.1047    1.4604 O   0  0  0  0  0  0  0  0  0  0  0  0
   -1.7171   -1.2311    0.4030 N   0  0  0  0  0  0  0  0  0  0  0  0
   -2.5225   -0.6872    0.0981 H   0  0  0  0  0  0  0  0  0  0  0  0
   -0.4094   -0.5686    0.3438 C   0  0  1  0  0  0  0  0  0  0  0  0
    0.2483   -1.0035    1.1035 H   0  0  0  0  0  0  0  0  0  0  0  0
    0.3186   -0.6779   -1.0210 C   0  0  0  0  0  0  0  0  0  0  0  0
    1.1894   -0.0138   -1.0019 H   0  0  0  0  0  0  0  0  0  0  0  0
    0.7039   -1.7024   -1.0607 H   0  0  0  0  0  0  0  0  0  0  0  0
   -0.4459   -0.4308   -2.3550 C   0  0  0  0  0  0  0  0  0  0  0  0
   -0.5717    0.6503   -2.4797 H   0  0  0  0  0  0  0  0  0  0  0  0
    0.4217   -0.9689   -3.5026 C   0  0  0  0  0  0  0  0  0  0  0  0
    0.5238   -2.0570   -3.4354 H   0  0  0  0  0  0  0  0  0  0  0  0
   -0.0253   -0.7216   -4.4707 H   0  0  0  0  0  0  0  0  0  0  0  0
    1.4207   -0.5229   -3.4675 H   0  0  0  0  0  0  0  0  0  0  0  0
   -1.8307   -1.0808   -2.4975 C   0  0  0  0  0  0  0  0  0  0  0  0
   -2.5688   -0.5516   -1.8894 H   0  0  0  0  0  0  0  0  0  0  0  0
   -2.1740   -1.0297   -3.5356 H   0  0  0  0  0  0  0  0  0  0  0  0
   -1.7973   -2.1329   -2.1977 H   0  0  0  0  0  0  0  0  0  0  0  0
   -0.5812    0.9203    0.7065 C   0  0  0  0  0  0  0  0  0  0  0  0
   -1.5356    1.5541    0.2685 O   0  0  0  0  0  0  0  0  0  0  0  0
    0.2990    1.5346    1.5784 N   0  0  0  0  0  0  0  0  0  0  0  0
    1.0401    0.9653    1.9774 H   0  0  0  0  0  0  0  0  0  0  0  0
    0.1554    2.9165    2.0197 C   0  0  0  0  0  0  0  0  0  0  0  0
   -0.7981    3.0558    2.5399 H   0  0  0  0  0  0  0  0  0  0  0  0
    0.9658    3.1801    2.7061 H   0  0  0  0  0  0  0  0  0  0  0  0
    0.1929    3.5977    1.1633 H   0  0  0  0  0  0  0  0  0  0  0  0
  1  2  1  0  0  0  0
  2  3  1  0  0  0  0
  2  4  1  0  0  0  0
  2  5  1  0  0  0  0
  5  6  2  0  0  0  0
  5  7  1  0  0  0  0
  7  8  1  0  0  0  0
  7  9  1  0  0  0  0
  9 10  1  0  0  0  0
  9 11  1  0  0  0  0
  9 24  1  0  0  0  0
 11 12  1  0  0  0  0
 11 13  1  0  0  0  0
 11 14  1  0  0  0  0
 14 15  1  0  0  0  0
 14 16  1  0  0  0  0
 14 20  1  0  0  0  0
 16 17  1  0  0  0  0
 16 18  1  0  0  0  0
 16 19  1  0  0  0  0
 20 21  1  0  0  0  0
 20 22  1  0  0  0  0
 20 23  1  0  0  0  0
 24 25  2  0  0  0  0
 24 26  1  0  0  0  0
 26 27  1  0  0  0  0
 26 28  1  0  0  0  0
 28 29  1  0  0  0  0
 28 30  1  0  0  0  0
 28 31  1  0  0  0  0
M  END
$$$$

  -OEChem-03222214063D

 31 30  0     1  0  0  0  0  0999 V2000
   -3.3829   -3.9505    1.6077 H   0  0  0  0  0  0  0  0  0  0  0  0
   -3.3723   -2.9904    1.0843 C   0  0  0  0  0  0  0  0  0  0  0  0
   -4.0066   -2.2859    1.6279 H   0  0  0  0  0  0  0  0  0  0  0  0
   -3.7751   -3.1324    0.0786 H   0  0  0  0  0  0  0  0  0  0  0  0
   -1.9557   -2.4550    1.0017 C   0  0  0  0  0  0  0  0  0  0  0  0
   -1.0279   -3.1083    1.4528 O   0  0  0  0  0  0  0  0  0  0  0  0
   -1.7244   -1.2285    0.4169 N   0  0  0  0  0  0  0  0  0  0  0  0
   -2.5345   -0.6848    0.1245 H   0  0  0  0  0  0  0  0  0  0  0  0
   -0.4192   -0.5606    0.3522 C   0  0  1  0  0  0  0  0  0  0  0  0
    0.2419   -0.9987    1.1072 H   0  0  0  0  0  0  0  0  0  0  0  0
    0.3055   -0.6684   -1.0153 C   0  0  0  0  0  0  0  0  0  0  0  0
    1.1806   -0.0100   -0.9974 H   0  0  0  0  0  0  0  0  0  0  0  0
    0.6892   -1.6940   -1.0412 H   0  0  0  0  0  0  0  0  0  0  0  0
   -0.4423   -0.4298   -2.3649 C   0  0  0  0  0  0  0  0  0  0  0  0
   -0.3206    0.6289   -2.6188 H   0  0  0  0  0  0  0  0  0  0  0  0
    0.2258   -1.2812   -3.4546 C   0  0  0  0  0  0  0  0  0  0  0  0
    0.0789   -2.3483   -3.2583 H   0  0  0  0  0  0  0  0  0  0  0  0
   -0.1968   -1.0480   -4.4369 H   0  0  0  0  0  0  0  0  0  0  0  0
    1.3007   -1.0785   -3.4904 H   0  0  0  0  0  0  0  0  0  0  0  0
   -1.9476   -0.7277   -2.4205 C   0  0  0  0  0  0  0  0  0  0  0  0
   -2.5003   -0.0531   -1.7609 H   0  0  0  0  0  0  0  0  0  0  0  0
   -2.3263   -0.5725   -3.4355 H   0  0  0  0  0  0  0  0  0  0  0  0
   -2.1507   -1.7649   -2.1368 H   0  0  0  0  0  0  0  0  0  0  0  0
   -0.5847    0.9265    0.7259 C   0  0  0  0  0  0  0  0  0  0  0  0
   -1.5437    1.5659    0.3073 O   0  0  0  0  0  0  0  0  0  0  0  0
    0.3057    1.5319    1.5937 N   0  0  0  0  0  0  0  0  0  0  0  0
    1.0470    0.9566    1.9835 H   0  0  0  0  0  0  0  0  0  0  0  0
    0.1668    2.9090    2.0508 C   0  0  0  0  0  0  0  0  0  0  0  0
   -0.7795    3.0419    2.5857 H   0  0  0  0  0  0  0  0  0  0  0  0
    0.9864    3.1671    2.7283 H   0  0  0  0  0  0  0  0  0  0  0  0
    0.1917    3.5990    1.2008 H   0  0  0  0  0  0  0  0  0  0  0  0
  1  2  1  0  0  0  0
  2  3  1  0  0  0  0
  2  4  1  0  0  0  0
  2  5  1  0  0  0  0
  5  6  2  0  0  0  0
  5  7  1  0  0  0  0
  7  8  1  0  0  0  0
  7  9  1  0  0  0  0
  9 10  1  0  0  0  0
  9 11  1  0  0  0  0
  9 24  1  0  0  0  0
 11 12  1  0  0  0  0
 11 13  1  0  0  0  0
 11 14  1  0  0  0  0
 14 15  1  0  0  0  0
 14 16  1  0  0  0  0
 14 20  1  0  0  0  0
 16 17  1  0  0  0  0
 16 18  1  0  0  0  0
 16 19  1  0  0  0  0
 20 21  1  0  0  0  0
 20 22  1  0  0  0  0
 20 23  1  0  0  0  0
 24 25  2  0  0  0  0
 24 26  1  0  0  0  0
 26 27  1  0  0  0  0
 26 28  1  0  0  0  0
 28 29  1  0  0  0  0
 28 30  1  0  0  0  0
 28 31  1  0  0  0  0
M  END
$$$$

  -OEChem-03222214063D

 31 30  0     1  0  0  0  0  0999 V2000
   -3.3522   -3.9585    1.5655 H   0  0  0  0  0  0  0  0  0  0  0  0
   -3.3587   -2.9908    1.0560 C   0  0  0  0  0  0  0  0  0  0  0  0
   -4.0014   -2.3040    1.6122 H   0  0  0  0  0  0  0  0  0  0  0  0
   -3.7638   -3.1248    0.0501 H   0  0  0  0  0  0  0  0  0  0  0  0
   -1.9505   -2.4330    0.9755 C   0  0  0  0  0  0  0  0  0  0  0  0
   -1.0103   -3.0847    1.4028 O   0  0  0  0  0  0  0  0  0  0  0  0
   -1.7396   -1.1920    0.4133 N   0  0  0  0  0  0  0  0  0  0  0  0
   -2.5590   -0.6532    0.1390 H   0  0  0  0  0  0  0  0  0  0  0  0
   -0.4430   -0.5070    0.3492 C   0  0  1  0  0  0  0  0  0  0  0  0
    0.2163   -0.9498    1.1030 H   0  0  0  0  0  0  0  0  0  0  0  0
    0.2850   -0.6424   -1.0130 C   0  0  0  0  0  0  0  0  0  0  0  0
    1.1465    0.0337   -1.0072 H   0  0  0  0  0  0  0  0  0  0  0  0
    0.6951   -1.6579   -1.0058 H   0  0  0  0  0  0  0  0  0  0  0  0
   -0.4546   -0.4507   -2.3777 C   0  0  0  0  0  0  0  0  0  0  0  0
   -0.1115    0.5046   -2.7892 H   0  0  0  0  0  0  0  0  0  0  0  0
   -0.0404   -1.5717   -3.3424 C   0  0  0  0  0  0  0  0  0  0  0  0
   -0.3887   -2.5439   -2.9784 H   0  0  0  0  0  0  0  0  0  0  0  0
   -0.4662   -1.4000   -4.3361 H   0  0  0  0  0  0  0  0  0  0  0  0
    1.0492   -1.6062   -3.4413 H   0  0  0  0  0  0  0  0  0  0  0  0
   -1.9902   -0.3958   -2.3795 C   0  0  0  0  0  0  0  0  0  0  0  0
   -2.3566    0.3944   -1.7206 H   0  0  0  0  0  0  0  0  0  0  0  0
   -2.3536   -0.1763   -3.3883 H   0  0  0  0  0  0  0  0  0  0  0  0
   -2.4184   -1.3538   -2.0706 H   0  0  0  0  0  0  0  0  0  0  0  0
   -0.5869    0.9766    0.7494 C   0  0  0  0  0  0  0  0  0  0  0  0
   -1.5612    1.6289    0.3928 O   0  0  0  0  0  0  0  0  0  0  0  0
    0.3268    1.5531    1.6130 N   0  0  0  0  0  0  0  0  0  0  0  0
    1.0787    0.9652    1.9614 H   0  0  0  0  0  0  0  0  0  0  0  0
    0.2019    2.9132    2.1228 C   0  0  0  0  0  0  0  0  0  0  0  0
   -0.7290    3.0264    2.6883 H   0  0  0  0  0  0  0  0  0  0  0  0
    1.0403    3.1462    2.7862 H   0  0  0  0  0  0  0  0  0  0  0  0
    0.2037    3.6336    1.2979 H   0  0  0  0  0  0  0  0  0  0  0  0
  1  2  1  0  0  0  0
  2  3  1  0  0  0  0
  2  4  1  0  0  0  0
  2  5  1  0  0  0  0
  5  6  2  0  0  0  0
  5  7  1  0  0  0  0
  7  8  1  0  0  0  0
  7  9  1  0  0  0  0
  9 10  1  0  0  0  0
  9 11  1  0  0  0  0
  9 24  1  0  0  0  0
 11 12  1  0  0  0  0
 11 13  1  0  0  0  0
 11 14  1  0  0  0  0
 14 15  1  0  0  0  0
 14 16  1  0  0  0  0
 14 20  1  0  0  0  0
 16 17  1  0  0  0  0
 16 18  1  0  0  0  0
 16 19  1  0  0  0  0
 20 21  1  0  0  0  0
 20 22  1  0  0  0  0
 20 23  1  0  0  0  0
 24 25  2  0  0  0  0
 24 26  1  0  0  0  0
 26 27  1  0  0  0  0
 26 28  1  0  0  0  0
 28 29  1  0  0  0  0
 28 30  1  0  0  0  0
 28 31  1  0  0  0  0
M  END
$$$$

  -OEChem-03222214063D

 31 30  0     1  0  0  0  0  0999 V2000
   -3.3304   -3.9495    1.5113 H   0  0  0  0  0  0  0  0  0  0  0  0
   -3.3491   -2.9686    1.0281 C   0  0  0  0  0  0  0  0  0  0  0  0
   -3.9771   -2.2971    1.6187 H   0  0  0  0  0  0  0  0  0  0  0  0
   -3.7800   -3.0755    0.0296 H   0  0  0  0  0  0  0  0  0  0  0  0
   -1.9431   -2.4081    0.9271 C   0  0  0  0  0  0  0  0  0  0  0  0
   -0.9933   -3.0679    1.3194 O   0  0  0  0  0  0  0  0  0  0  0  0
   -1.7460   -1.1540    0.3895 N   0  0  0  0  0  0  0  0  0  0  0  0
   -2.5729   -0.6081    0.1538 H   0  0  0  0  0  0  0  0  0  0  0  0
   -0.4556   -0.4568    0.3324 C   0  0  1  0  0  0  0  0  0  0  0  0
    0.1969   -0.9044    1.0892 H   0  0  0  0  0  0  0  0  0  0  0  0
    0.2793   -0.6289   -1.0203 C   0  0  0  0  0  0  0  0  0  0  0  0
    1.1162    0.0773   -1.0281 H   0  0  0  0  0  0  0  0  0  0  0  0
    0.7279   -1.6275   -0.9863 H   0  0  0  0  0  0  0  0  0  0  0  0
   -0.4613   -0.4829   -2.3900 C   0  0  0  0  0  0  0  0  0  0  0  0
    0.0858    0.2808   -2.9532 H   0  0  0  0  0  0  0  0  0  0  0  0
   -0.3536   -1.7950   -3.1796 C   0  0  0  0  0  0  0  0  0  0  0  0
   -0.8689   -2.6036   -2.6511 H   0  0  0  0  0  0  0  0  0  0  0  0
   -0.8037   -1.6848   -4.1712 H   0  0  0  0  0  0  0  0  0  0  0  0
    0.6956   -2.0775   -3.3125 H   0  0  0  0  0  0  0  0  0  0  0  0
   -1.9317   -0.0364   -2.3923 C   0  0  0  0  0  0  0  0  0  0  0  0
   -2.0596    0.8946   -1.8386 H   0  0  0  0  0  0  0  0  0  0  0  0
   -2.2594    0.1471   -3.4203 H   0  0  0  0  0  0  0  0  0  0  0  0
   -2.5856   -0.8037   -1.9709 H   0  0  0  0  0  0  0  0  0  0  0  0
   -0.5852    1.0212    0.7604 C   0  0  0  0  0  0  0  0  0  0  0  0
   -1.5888    1.6688    0.4872 O   0  0  0  0  0  0  0  0  0  0  0  0
    0.3449    1.5705    1.6248 N   0  0  0  0  0  0  0  0  0  0  0  0
    1.1107    0.9761    1.9290 H   0  0  0  0  0  0  0  0  0  0  0  0
    0.2119    2.8989    2.2103 C   0  0  0  0  0  0  0  0  0  0  0  0
   -0.6940    2.9591    2.8225 H   0  0  0  0  0  0  0  0  0  0  0  0
    1.0743    3.1191    2.8466 H   0  0  0  0  0  0  0  0  0  0  0  0
    0.1589    3.6606    1.4254 H   0  0  0  0  0  0  0  0  0  0  0  0
  1  2  1  0  0  0  0
  2  3  1  0  0  0  0
  2  4  1  0  0  0  0
  2  5  1  0  0  0  0
  5  6  2  0  0  0  0
  5  7  1  0  0  0  0
  7  8  1  0  0  0  0
  7  9  1  0  0  0  0
  9 10  1  0  0  0  0
  9 11  1  0  0  0  0
  9 24  1  0  0  0  0
 11 12  1  0  0  0  0
 11 13  1  0  0  0  0
 11 14  1  0  0  0  0
 14 15  1  0  0  0  0
 14 16  1  0  0  0  0
 14 20  1  0  0  0  0
 16 17  1  0  0  0  0
 16 18  1  0  0  0  0
 16 19  1  0  0  0  0
 20 21  1  0  0  0  0
 20 22  1  0  0  0  0
 20 23  1  0  0  0  0
 24 25  2  0  0  0  0
 24 26  1  0  0  0  0
 26 27  1  0  0  0  0
 26 28  1  0  0  0  0
 28 29  1  0  0  0  0
 28 30  1  0  0  0  0
 28 31  1  0  0  0  0
M  END
$$$$

  -OEChem-03222214063D

 31 30  0     1  0  0  0  0  0999 V2000
   -3.3334   -3.9502    1.4478 H   0  0  0  0  0  0  0  0  0  0  0  0
   -3.3442   -2.9625    0.9785 C   0  0  0  0  0  0  0  0  0  0  0  0
   -3.9727   -2.2963    1.5742 H   0  0  0  0  0  0  0  0  0  0  0  0
   -3.7685   -3.0532   -0.0242 H   0  0  0  0  0  0  0  0  0  0  0  0
   -1.9351   -2.4072    0.8947 C   0  0  0  0  0  0  0  0  0  0  0  0
   -0.9915   -3.0731    1.2918 O   0  0  0  0  0  0  0  0  0  0  0  0
   -1.7283   -1.1519    0.3637 N   0  0  0  0  0  0  0  0  0  0  0  0
   -2.5520   -0.5986    0.1342 H   0  0  0  0  0  0  0  0  0  0  0  0
   -0.4356   -0.4557    0.3291 C   0  0  1  0  0  0  0  0  0  0  0  0
    0.2088   -0.9049    1.0918 H   0  0  0  0  0  0  0  0  0  0  0  0
    0.2994   -0.6458   -1.0200 C   0  0  0  0  0  0  0  0  0  0  0  0
    1.1263    0.0718   -1.0366 H   0  0  0  0  0  0  0  0  0  0  0  0
    0.7596   -1.6392   -0.9936 H   0  0  0  0  0  0  0  0  0  0  0  0
   -0.4652   -0.4991   -2.3709 C   0  0  0  0  0  0  0  0  0  0  0  0
    0.2302    0.0051   -3.0511 H   0  0  0  0  0  0  0  0  0  0  0  0
   -0.7229   -1.8794   -2.9891 C   0  0  0  0  0  0  0  0  0  0  0  0
   -1.3827   -2.4686   -2.3447 H   0  0  0  0  0  0  0  0  0  0  0  0
   -1.1962   -1.7775   -3.9706 H   0  0  0  0  0  0  0  0  0  0  0  0
    0.2165   -2.4257   -3.1198 H   0  0  0  0  0  0  0  0  0  0  0  0
   -1.7436    0.3510   -2.3891 C   0  0  0  0  0  0  0  0  0  0  0  0
   -1.5325    1.3623   -2.0330 H   0  0  0  0  0  0  0  0  0  0  0  0
   -2.1188    0.4340   -3.4137 H   0  0  0  0  0  0  0  0  0  0  0  0
   -2.5372   -0.0875   -1.7817 H   0  0  0  0  0  0  0  0  0  0  0  0
   -0.5761    1.0208    0.7597 C   0  0  0  0  0  0  0  0  0  0  0  0
   -1.5917    1.6542    0.4957 O   0  0  0  0  0  0  0  0  0  0  0  0
    0.3367    1.5721    1.6411 N   0  0  0  0  0  0  0  0  0  0  0  0
    1.1089    0.9859    1.9447 H   0  0  0  0  0  0  0  0  0  0  0  0
    0.1793    2.8929    2.2385 C   0  0  0  0  0  0  0  0  0  0  0  0
   -0.7285    2.9318    2.8498 H   0  0  0  0  0  0  0  0  0  0  0  0
    1.0370    3.1231    2.8777 H   0  0  0  0  0  0  0  0  0  0  0  0
    0.1135    3.6608    1.4604 H   0  0  0  0  0  0  0  0  0  0  0  0
  1  2  1  0  0  0  0
  2  3  1  0  0  0  0
  2  4  1  0  0  0  0
  2  5  1  0  0  0  0
  5  6  2  0  0  0  0
  5  7  1  0  0  0  0
  7  8  1  0  0  0  0
  7  9  1  0  0  0  0
  9 10  1  0  0  0  0
  9 11  1  0  0  0  0
  9 24  1  0  0  0  0
 11 12  1  0  0  0  0
 11 13  1  0  0  0  0
 11 14  1  0  0  0  0
 14 15  1  0  0  0  0
 14 16  1  0  0  0  0
 14 20  1  0  0  0  0
 16 17  1  0  0  0  0
 16 18  1  0  0  0  0
 16 19  1  0  0  0  0
 20 21  1  0  0  0  0
 20 22  1  0  0  0  0
 20 23  1  0  0  0  0
 24 25  2  0  0  0  0
 24 26  1  0  0  0  0
 26 27  1  0  0  0  0
 26 28  1  0  0  0  0
 28 29  1  0  0  0  0
 28 30  1  0  0  0  0
 28 31  1  0  0  0  0
M  END
$$$$

  -OEChem-03222214063D

 31 30  0     1  0  0  0  0  0999 V2000
   -3.3480   -3.9329    1.4280 H   0  0  0  0  0  0  0  0  0  0  0  0
   -3.3549   -2.9488    0.9511 C   0  0  0  0  0  0  0  0  0  0  0  0
   -3.9870   -2.2776    1.5377 H   0  0  0  0  0  0  0  0  0  0  0  0
   -3.7725   -3.0466   -0.0538 H   0  0  0  0  0  0  0  0  0  0  0  0
   -1.9449   -2.3955    0.8729 C   0  0  0  0  0  0  0  0  0  0  0  0
   -1.0037   -3.0628    1.2731 O   0  0  0  0  0  0  0  0  0  0  0  0
   -1.7349   -1.1386    0.3470 N   0  0  0  0  0  0  0  0  0  0  0  0
   -2.5566   -0.5867    0.1073 H   0  0  0  0  0  0  0  0  0  0  0  0
   -0.4415   -0.4436    0.3228 C   0  0  1  0  0  0  0  0  0  0  0  0
    0.1938   -0.8954    1.0916 H   0  0  0  0  0  0  0  0  0  0  0  0
    0.3123   -0.6364   -1.0167 C   0  0  0  0  0  0  0  0  0  0  0  0
    1.1358    0.0849   -1.0295 H   0  0  0  0  0  0  0  0  0  0  0  0
    0.7722   -1.6300   -0.9931 H   0  0  0  0  0  0  0  0  0  0  0  0
   -0.4496   -0.4923   -2.3640 C   0  0  0  0  0  0  0  0  0  0  0  0
    0.3054   -0.2215   -3.1101 H   0  0  0  0  0  0  0  0  0  0  0  0
   -1.0360   -1.8363   -2.8181 C   0  0  0  0  0  0  0  0  0  0  0  0
   -1.8205   -2.1733   -2.1354 H   0  0  0  0  0  0  0  0  0  0  0  0
   -1.4692   -1.7410   -3.8185 H   0  0  0  0  0  0  0  0  0  0  0  0
   -0.2562   -2.6032   -2.8566 H   0  0  0  0  0  0  0  0  0  0  0  0
   -1.5206    0.6030   -2.4147 C   0  0  0  0  0  0  0  0  0  0  0  0
   -1.0920    1.5668   -2.1250 H   0  0  0  0  0  0  0  0  0  0  0  0
   -1.9097    0.7000   -3.4331 H   0  0  0  0  0  0  0  0  0  0  0  0
   -2.3606    0.3733   -1.7544 H   0  0  0  0  0  0  0  0  0  0  0  0
   -0.5776    1.0325    0.7570 C   0  0  0  0  0  0  0  0  0  0  0  0
   -1.5881    1.6731    0.4903 O   0  0  0  0  0  0  0  0  0  0  0  0
    0.3342    1.5750    1.6448 N   0  0  0  0  0  0  0  0  0  0  0  0
    1.1007    0.9824    1.9505 H   0  0  0  0  0  0  0  0  0  0  0  0
    0.1819    2.8939    2.2474 C   0  0  0  0  0  0  0  0  0  0  0  0
   -0.7316    2.9366    2.8499 H   0  0  0  0  0  0  0  0  0  0  0  0
    1.0354    3.1131    2.8963 H   0  0  0  0  0  0  0  0  0  0  0  0
    0.1301    3.6660    1.4724 H   0  0  0  0  0  0  0  0  0  0  0  0
  1  2  1  0  0  0  0
  2  3  1  0  0  0  0
  2  4  1  0  0  0  0
  2  5  1  0  0  0  0
  5  6  2  0  0  0  0
  5  7  1  0  0  0  0
  7  8  1  0  0  0  0
  7  9  1  0  0  0  0
  9 10  1  0  0  0  0
  9 11  1  0  0  0  0
  9 24  1  0  0  0  0
 11 12  1  0  0  0  0
 11 13  1  0  0  0  0
 11 14  1  0  0  0  0
 14 15  1  0  0  0  0
 14 16  1  0  0  0  0
 14 20  1  0  0  0  0
 16 17  1  0  0  0  0
 16 18  1  0  0  0  0
 16 19  1  0  0  0  0
 20 21  1  0  0  0  0
 20 22  1  0  0  0  0
 20 23  1  0  0  0  0
 24 25  2  0  0  0  0
 24 26  1  0  0  0  0
 26 27  1  0  0  0  0
 26 28  1  0  0  0  0
 28 29  1  0  0  0  0
 28 30  1  0  0  0  0
 28 31  1  0  0  0  0
M  END
$$$$

  -OEChem-03222214063D

 31 30  0     1  0  0  0  0  0999 V2000
   -3.3419   -3.9360    1.4449 H   0  0  0  0  0  0  0  0  0  0  0  0
   -3.3539   -2.9501    0.9719 C   0  0  0  0  0  0  0  0  0  0  0  0
   -3.9833   -2.2825    1.5652 H   0  0  0  0  0  0  0  0  0  0  0  0
   -3.7783   -3.0449   -0.0305 H   0  0  0  0  0  0  0  0  0  0  0  0
   -1.9451   -2.3941    0.8867 C   0  0  0  0  0  0  0  0  0  0  0  0
   -1.0007   -3.0614    1.2794 O   0  0  0  0  0  0  0  0  0  0  0  0
   -1.7387   -1.1369    0.3590 N   0  0  0  0  0  0  0  0  0  0  0  0
   -2.5618   -0.5845    0.1244 H   0  0  0  0  0  0  0  0  0  0  0  0
   -0.4460   -0.4432    0.3247 C   0  0  1  0  0  0  0  0  0  0  0  0
    0.1922   -0.8938    1.0917 H   0  0  0  0  0  0  0  0  0  0  0  0
    0.3128   -0.6276   -1.0149 C   0  0  0  0  0  0  0  0  0  0  0  0
    1.1449    0.0839   -1.0215 H   0  0  0  0  0  0  0  0  0  0  0  0
    0.7584   -1.6277   -0.9961 H   0  0  0  0  0  0  0  0  0  0  0  0
   -0.4358   -0.4840   -2.3682 C   0  0  0  0  0  0  0  0  0  0  0  0
    0.3422   -0.4510   -3.1384 H   0  0  0  0  0  0  0  0  0  0  0  0
   -1.3274   -1.6919   -2.6950 C   0  0  0  0  0  0  0  0  0  0  0  0
   -2.2413   -1.6913   -2.0963 H   0  0  0  0  0  0  0  0  0  0  0  0
   -1.6185   -1.6650   -3.7497 H   0  0  0  0  0  0  0  0  0  0  0  0
   -0.7898   -2.6275   -2.5130 H   0  0  0  0  0  0  0  0  0  0  0  0
   -1.2506    0.8064   -2.4936 C   0  0  0  0  0  0  0  0  0  0  0  0
   -0.6472    1.6716   -2.2022 H   0  0  0  0  0  0  0  0  0  0  0  0
   -1.5732    0.9483   -3.5297 H   0  0  0  0  0  0  0  0  0  0  0  0
   -2.1439    0.7684   -1.8642 H   0  0  0  0  0  0  0  0  0  0  0  0
   -0.5832    1.0325    0.7606 C   0  0  0  0  0  0  0  0  0  0  0  0
   -1.5937    1.6729    0.4937 O   0  0  0  0  0  0  0  0  0  0  0  0
    0.3325    1.5785    1.6425 N   0  0  0  0  0  0  0  0  0  0  0  0
    1.1014    0.9880    1.9466 H   0  0  0  0  0  0  0  0  0  0  0  0
    0.1825    2.9007    2.2387 C   0  0  0  0  0  0  0  0  0  0  0  0
   -0.7188    2.9412    2.8593 H   0  0  0  0  0  0  0  0  0  0  0  0
    1.0471    3.1318    2.8681 H   0  0  0  0  0  0  0  0  0  0  0  0
    0.1089    3.6666    1.4595 H   0  0  0  0  0  0  0  0  0  0  0  0
  1  2  1  0  0  0  0
  2  3  1  0  0  0  0
  2  4  1  0  0  0  0
  2  5  1  0  0  0  0
  5  6  2  0  0  0  0
  5  7  1  0  0  0  0
  7  8  1  0  0  0  0
  7  9  1  0  0  0  0
  9 10  1  0  0  0  0
  9 11  1  0  0  0  0
  9 24  1  0  0  0  0
 11 12  1  0  0  0  0
 11 13  1  0  0  0  0
 11 14  1  0  0  0  0
 14 15  1  0  0  0  0
 14 16  1  0  0  0  0
 14 20  1  0  0  0  0
 16 17  1  0  0  0  0
 16 18  1  0  0  0  0
 16 19  1  0  0  0  0
 20 21  1  0  0  0  0
 20 22  1  0  0  0  0
 20 23  1  0  0  0  0
 24 25  2  0  0  0  0
 24 26  1  0  0  0  0
 26 27  1  0  0  0  0
 26 28  1  0  0  0  0
 28 29  1  0  0  0  0
 28 30  1  0  0  0  0
 28 31  1  0  0  0  0
M  END
$$$$

  -OEChem-03222214063D

 31 30  0     1  0  0  0  0  0999 V2000
   -3.3403   -3.9489    1.4675 H   0  0  0  0  0  0  0  0  0  0  0  0
   -3.3530   -2.9580    1.0049 C   0  0  0  0  0  0  0  0  0  0  0  0
   -3.9791   -2.2954    1.6073 H   0  0  0  0  0  0  0  0  0  0  0  0
   -3.7812   -3.0419    0.0031 H   0  0  0  0  0  0  0  0  0  0  0  0
   -1.9442   -2.4029    0.9189 C   0  0  0  0  0  0  0  0  0  0  0  0
   -0.9999   -3.0696    1.3126 O   0  0  0  0  0  0  0  0  0  0  0  0
   -1.7366   -1.1502    0.3820 N   0  0  0  0  0  0  0  0  0  0  0  0
   -2.5593   -0.5961    0.1501 H   0  0  0  0  0  0  0  0  0  0  0  0
   -0.4422   -0.4611    0.3313 C   0  0  1  0  0  0  0  0  0  0  0  0
    0.2043   -0.9093    1.0928 H   0  0  0  0  0  0  0  0  0  0  0  0
    0.3102   -0.6252   -1.0157 C   0  0  0  0  0  0  0  0  0  0  0  0
    1.1608    0.0643   -1.0116 H   0  0  0  0  0  0  0  0  0  0  0  0
    0.7292   -1.6370   -1.0108 H   0  0  0  0  0  0  0  0  0  0  0  0
   -0.4263   -0.4655   -2.3747 C   0  0  0  0  0  0  0  0  0  0  0  0
    0.3244   -0.6761   -3.1439 H   0  0  0  0  0  0  0  0  0  0  0  0
   -1.5825   -1.4510   -2.6002 C   0  0  0  0  0  0  0  0  0  0  0  0
   -2.4823   -1.1454   -2.0598 H   0  0  0  0  0  0  0  0  0  0  0  0
   -1.8324   -1.4930   -3.6648 H   0  0  0  0  0  0  0  0  0  0  0  0
   -1.2977   -2.4564   -2.2751 H   0  0  0  0  0  0  0  0  0  0  0  0
   -0.9248    0.9647   -2.6081 C   0  0  0  0  0  0  0  0  0  0  0  0
   -0.1439    1.6909   -2.3625 H   0  0  0  0  0  0  0  0  0  0  0  0
   -1.1998    1.0991   -3.6589 H   0  0  0  0  0  0  0  0  0  0  0  0
   -1.8071    1.1780   -1.9995 H   0  0  0  0  0  0  0  0  0  0  0  0
   -0.5884    1.0144    0.7614 C   0  0  0  0  0  0  0  0  0  0  0  0
   -1.6052    1.6439    0.4920 O   0  0  0  0  0  0  0  0  0  0  0  0
    0.3266    1.5740    1.6350 N   0  0  0  0  0  0  0  0  0  0  0  0
    1.1007    0.9914    1.9408 H   0  0  0  0  0  0  0  0  0  0  0  0
    0.1667    2.8980    2.2240 C   0  0  0  0  0  0  0  0  0  0  0  0
   -0.7332    2.9336    2.8471 H   0  0  0  0  0  0  0  0  0  0  0  0
    1.0311    3.1408    2.8495 H   0  0  0  0  0  0  0  0  0  0  0  0
    0.0834    3.6586    1.4405 H   0  0  0  0  0  0  0  0  0  0  0  0
  1  2  1  0  0  0  0
  2  3  1  0  0  0  0
  2  4  1  0  0  0  0
  2  5  1  0  0  0  0
  5  6  2  0  0  0  0
  5  7  1  0  0  0  0
  7  8  1  0  0  0  0
  7  9  1  0  0  0  0
  9 10  1  0  0  0  0
  9 11  1  0  0  0  0
  9 24  1  0  0  0  0
 11 12  1  0  0  0  0
 11 13  1  0  0  0  0
 11 14  1  0  0  0  0
 14 15  1  0  0  0  0
 14 16  1  0  0  0  0
 14 20  1  0  0  0  0
 16 17  1  0  0  0  0
 16 18  1  0  0  0  0
 16 19  1  0  0  0  0
 20 21  1  0  0  0  0
 20 22  1  0  0  0  0
 20 23  1  0  0  0  0
 24 25  2  0  0  0  0
 24 26  1  0  0  0  0
 26 27  1  0  0  0  0
 26 28  1  0  0  0  0
 28 29  1  0  0  0  0
 28 30  1  0  0  0  0
 28 31  1  0  0  0  0
M  END
$$$$

  -OEChem-03222214063D

 31 30  0     1  0  0  0  0  0999 V2000
   -3.3515   -3.9421    1.5293 H   0  0  0  0  0  0  0  0  0  0  0  0
   -3.3588   -2.9570    1.0546 C   0  0  0  0  0  0  0  0  0  0  0  0
   -3.9691   -2.2798    1.6570 H   0  0  0  0  0  0  0  0  0  0  0  0
   -3.8013   -3.0478    0.0597 H   0  0  0  0  0  0  0  0  0  0  0  0
   -1.9449   -2.4193    0.9442 C   0  0  0  0  0  0  0  0  0  0  0  0
   -1.0032   -3.0898    1.3379 O   0  0  0  0  0  0  0  0  0  0  0  0
   -1.7310   -1.1739    0.3936 N   0  0  0  0  0  0  0  0  0  0  0  0
   -2.5508   -0.6130    0.1672 H   0  0  0  0  0  0  0  0  0  0  0  0
   -0.4321   -0.4936    0.3342 C   0  0  1  0  0  0  0  0  0  0  0  0
    0.2203   -0.9393    1.0923 H   0  0  0  0  0  0  0  0  0  0  0  0
    0.3144   -0.6320   -1.0204 C   0  0  0  0  0  0  0  0  0  0  0  0
    1.1867    0.0294   -0.9984 H   0  0  0  0  0  0  0  0  0  0  0  0
    0.7043   -1.6554   -1.0335 H   0  0  0  0  0  0  0  0  0  0  0  0
   -0.4098   -0.4424   -2.3854 C   0  0  0  0  0  0  0  0  0  0  0  0
    0.2541   -0.8767   -3.1407 H   0  0  0  0  0  0  0  0  0  0  0  0
   -1.7714   -1.1328   -2.5384 C   0  0  0  0  0  0  0  0  0  0  0  0
   -2.5480   -0.6090   -1.9737 H   0  0  0  0  0  0  0  0  0  0  0  0
   -2.0707   -1.1381   -3.5911 H   0  0  0  0  0  0  0  0  0  0  0  0
   -1.7146   -2.1706   -2.1958 H   0  0  0  0  0  0  0  0  0  0  0  0
   -0.5692    1.0447   -2.7269 C   0  0  0  0  0  0  0  0  0  0  0  0
    0.3841    1.5706   -2.6175 H   0  0  0  0  0  0  0  0  0  0  0  0
   -0.9044    1.1587   -3.7625 H   0  0  0  0  0  0  0  0  0  0  0  0
   -1.3073    1.5223   -2.0784 H   0  0  0  0  0  0  0  0  0  0  0  0
   -0.5943    0.9827    0.7526 C   0  0  0  0  0  0  0  0  0  0  0  0
   -1.6123    1.6007    0.4599 O   0  0  0  0  0  0  0  0  0  0  0  0
    0.3101    1.5611    1.6249 N   0  0  0  0  0  0  0  0  0  0  0  0
    1.0867    0.9890    1.9442 H   0  0  0  0  0  0  0  0  0  0  0  0
    0.1329    2.8904    2.1966 C   0  0  0  0  0  0  0  0  0  0  0  0
   -0.7767    2.9271    2.8053 H   0  0  0  0  0  0  0  0  0  0  0  0
    0.9858    3.1456    2.8327 H   0  0  0  0  0  0  0  0  0  0  0  0
    0.0570    3.6418    1.4035 H   0  0  0  0  0  0  0  0  0  0  0  0
  1  2  1  0  0  0  0
  2  3  1  0  0  0  0
  2  4  1  0  0  0  0
  2  5  1  0  0  0  0
  5  6  2  0  0  0  0
  5  7  1  0  0  0  0
  7  8  1  0  0  0  0
  7  9  1  0  0  0  0
  9 10  1  0  0  0  0
  9 11  1  0  0  0  0
  9 24  1  0  0  0  0
 11 12  1  0  0  0  0
 11 13  1  0  0  0  0
 11 14  1  0  0  0  0
 14 15  1  0  0  0  0
 14 16  1  0  0  0  0
 14 20  1  0  0  0  0
 16 17  1  0  0  0  0
 16 18  1  0  0  0  0
 16 19  1  0  0  0  0
 20 21  1  0  0  0  0
 20 22  1  0  0  0  0
 20 23  1  0  0  0  0
 24 25  2  0  0  0  0
 24 26  1  0  0  0  0
 26 27  1  0  0  0  0
 26 28  1  0  0  0  0
 28 29  1  0  0  0  0
 28 30  1  0  0  0  0
 28 31  1  0  0  0  0
M  END
$$$$

  -OEChem-03222214063D

 31 30  0     1  0  0  0  0  0999 V2000
   -3.3649   -3.9488    1.5638 H   0  0  0  0  0  0  0  0  0  0  0  0
   -3.3621   -2.9789    1.0585 C   0  0  0  0  0  0  0  0  0  0  0  0
   -3.9884   -2.2853    1.6248 H   0  0  0  0  0  0  0  0  0  0  0  0
   -3.7802   -3.1018    0.0566 H   0  0  0  0  0  0  0  0  0  0  0  0
   -1.9467   -2.4417    0.9642 C   0  0  0  0  0  0  0  0  0  0  0  0
   -1.0113   -3.1068    1.3811 O   0  0  0  0  0  0  0  0  0  0  0  0
   -1.7237   -1.2036    0.4005 N   0  0  0  0  0  0  0  0  0  0  0  0
   -2.5391   -0.6473    0.1486 H   0  0  0  0  0  0  0  0  0  0  0  0
   -0.4217   -0.5280    0.3431 C   0  0  1  0  0  0  0  0  0  0  0  0
    0.2344   -0.9709    1.0995 H   0  0  0  0  0  0  0  0  0  0  0  0
    0.3186   -0.6402   -1.0174 C   0  0  0  0  0  0  0  0  0  0  0  0
    1.2048    0.0018   -0.9786 H   0  0  0  0  0  0  0  0  0  0  0  0
    0.6900   -1.6698   -1.0514 H   0  0  0  0  0  0  0  0  0  0  0  0
   -0.4057   -0.4182   -2.3814 C   0  0  0  0  0  0  0  0  0  0  0  0
    0.1147   -1.0392   -3.1186 H   0  0  0  0  0  0  0  0  0  0  0  0
   -1.8956   -0.7745   -2.4630 C   0  0  0  0  0  0  0  0  0  0  0  0
   -2.4951   -0.1075   -1.8362 H   0  0  0  0  0  0  0  0  0  0  0  0
   -2.2492   -0.6734   -3.4938 H   0  0  0  0  0  0  0  0  0  0  0  0
   -2.0589   -1.8108   -2.1532 H   0  0  0  0  0  0  0  0  0  0  0  0
   -0.2440    1.0440   -2.8219 C   0  0  0  0  0  0  0  0  0  0  0  0
    0.8145    1.3186   -2.8653 H   0  0  0  0  0  0  0  0  0  0  0  0
   -0.6723    1.1912   -3.8184 H   0  0  0  0  0  0  0  0  0  0  0  0
   -0.7504    1.7205   -2.1277 H   0  0  0  0  0  0  0  0  0  0  0  0
   -0.5961    0.9513    0.7443 C   0  0  0  0  0  0  0  0  0  0  0  0
   -1.5929    1.5734    0.3924 O   0  0  0  0  0  0  0  0  0  0  0  0
    0.2937    1.5469    1.6196 N   0  0  0  0  0  0  0  0  0  0  0  0
    1.0632    0.9812    1.9661 H   0  0  0  0  0  0  0  0  0  0  0  0
    0.1278    2.9015    2.1319 C   0  0  0  0  0  0  0  0  0  0  0  0
   -0.8087    2.9872    2.6930 H   0  0  0  0  0  0  0  0  0  0  0  0
    0.9559    3.1571    2.7999 H   0  0  0  0  0  0  0  0  0  0  0  0
    0.1130    3.6232    1.3084 H   0  0  0  0  0  0  0  0  0  0  0  0
  1  2  1  0  0  0  0
  2  3  1  0  0  0  0
  2  4  1  0  0  0  0
  2  5  1  0  0  0  0
  5  6  2  0  0  0  0
  5  7  1  0  0  0  0
  7  8  1  0  0  0  0
  7  9  1  0  0  0  0
  9 10  1  0  0  0  0
  9 11  1  0  0  0  0
  9 24  1  0  0  0  0
 11 12  1  0  0  0  0
 11 13  1  0  0  0  0
 11 14  1  0  0  0  0
 14 15  1  0  0  0  0
 14 16  1  0  0  0  0
 14 20  1  0  0  0  0
 16 17  1  0  0  0  0
 16 18  1  0  0  0  0
 16 19  1  0  0  0  0
 20 21  1  0  0  0  0
 20 22  1  0  0  0  0
 20 23  1  0  0  0  0
 24 25  2  0  0  0  0
 24 26  1  0  0  0  0
 26 27  1  0  0  0  0
 26 28  1  0  0  0  0
 28 29  1  0  0  0  0
 28 30  1  0  0  0  0
 28 31  1  0  0  0  0
M  END
$$$$

  -OEChem-03222214063D

 31 30  0     1  0  0  0  0  0999 V2000
   -3.3583   -3.9613    1.5385 H   0  0  0  0  0  0  0  0  0  0  0  0
   -3.3587   -2.9920    1.0320 C   0  0  0  0  0  0  0  0  0  0  0  0
   -3.9998   -2.3041    1.5886 H   0  0  0  0  0  0  0  0  0  0  0  0
   -3.7617   -3.1209    0.0245 H   0  0  0  0  0  0  0  0  0  0  0  0
   -1.9477   -2.4400    0.9573 C   0  0  0  0  0  0  0  0  0  0  0  0
   -1.0121   -3.0940    1.3910 O   0  0  0  0  0  0  0  0  0  0  0  0
   -1.7294   -1.1998    0.3962 N   0  0  0  0  0  0  0  0  0  0  0  0
   -2.5456   -0.6576    0.1184 H   0  0  0  0  0  0  0  0  0  0  0  0
   -0.4322   -0.5147    0.3457 C   0  0  1  0  0  0  0  0  0  0  0  0
    0.2216   -0.9576    1.1041 H   0  0  0  0  0  0  0  0  0  0  0  0
    0.3110   -0.6313   -1.0103 C   0  0  0  0  0  0  0  0  0  0  0  0
    1.1945    0.0143   -0.9665 H   0  0  0  0  0  0  0  0  0  0  0  0
    0.6910   -1.6579   -1.0368 H   0  0  0  0  0  0  0  0  0  0  0  0
   -0.4139   -0.4232   -2.3797 C   0  0  0  0  0  0  0  0  0  0  0  0
   -0.0665   -1.2113   -3.0566 H   0  0  0  0  0  0  0  0  0  0  0  0
   -1.9500   -0.4446   -2.4050 C   0  0  0  0  0  0  0  0  0  0  0  0
   -2.3704    0.3289   -1.7571 H   0  0  0  0  0  0  0  0  0  0  0  0
   -2.3124   -0.2641   -3.4217 H   0  0  0  0  0  0  0  0  0  0  0  0
   -2.3247   -1.4237   -2.0943 H   0  0  0  0  0  0  0  0  0  0  0  0
    0.0296    0.9246   -2.9684 C   0  0  0  0  0  0  0  0  0  0  0  0
    1.1172    0.9547   -3.0866 H   0  0  0  0  0  0  0  0  0  0  0  0
   -0.4199    1.0816   -3.9539 H   0  0  0  0  0  0  0  0  0  0  0  0
   -0.2737    1.7483   -2.3140 H   0  0  0  0  0  0  0  0  0  0  0  0
   -0.5921    0.9674    0.7439 C   0  0  0  0  0  0  0  0  0  0  0  0
   -1.5673    1.6109    0.3732 O   0  0  0  0  0  0  0  0  0  0  0  0
    0.3050    1.5525    1.6190 N   0  0  0  0  0  0  0  0  0  0  0  0
    1.0595    0.9736    1.9763 H   0  0  0  0  0  0  0  0  0  0  0  0
    0.1649    2.9148    2.1182 C   0  0  0  0  0  0  0  0  0  0  0  0
   -0.7744    3.0265    2.6700 H   0  0  0  0  0  0  0  0  0  0  0  0
    0.9923    3.1575    2.7918 H   0  0  0  0  0  0  0  0  0  0  0  0
    0.1741    3.6291    1.2884 H   0  0  0  0  0  0  0  0  0  0  0  0
  1  2  1  0  0  0  0
  2  3  1  0  0  0  0
  2  4  1  0  0  0  0
  2  5  1  0  0  0  0
  5  6  2  0  0  0  0
  5  7  1  0  0  0  0
  7  8  1  0  0  0  0
  7  9  1  0  0  0  0
  9 10  1  0  0  0  0
  9 11  1  0  0  0  0
  9 24  1  0  0  0  0
 11 12  1  0  0  0  0
 11 13  1  0  0  0  0
 11 14  1  0  0  0  0
 14 15  1  0  0  0  0
 14 16  1  0  0  0  0
 14 20  1  0  0  0  0
 16 17  1  0  0  0  0
 16 18  1  0  0  0  0
 16 19  1  0  0  0  0
 20 21  1  0  0  0  0
 20 22  1  0  0  0  0
 20 23  1  0  0  0  0
 24 25  2  0  0  0  0
 24 26  1  0  0  0  0
 26 27  1  0  0  0  0
 26 28  1  0  0  0  0
 28 29  1  0  0  0  0
 28 30  1  0  0  0  0
 28 31  1  0  0  0  0
M  END
$$$$

  -OEChem-03222214063D

 31 30  0     1  0  0  0  0  0999 V2000
   -3.3350   -3.9589    1.4756 H   0  0  0  0  0  0  0  0  0  0  0  0
   -3.3492   -2.9721    1.0045 C   0  0  0  0  0  0  0  0  0  0  0  0
   -3.9789   -2.3066    1.5998 H   0  0  0  0  0  0  0  0  0  0  0  0
   -3.7749   -3.0659    0.0025 H   0  0  0  0  0  0  0  0  0  0  0  0
   -1.9415   -2.4133    0.9179 C   0  0  0  0  0  0  0  0  0  0  0  0
   -0.9961   -3.0735    1.3197 O   0  0  0  0  0  0  0  0  0  0  0  0
   -1.7382   -1.1596    0.3818 N   0  0  0  0  0  0  0  0  0  0  0  0
   -2.5628   -0.6126    0.1405 H   0  0  0  0  0  0  0  0  0  0  0  0
   -0.4471   -0.4632    0.3343 C   0  0  1  0  0  0  0  0  0  0  0  0
    0.2041   -0.9132    1.0907 H   0  0  0  0  0  0  0  0  0  0  0  0
    0.2979   -0.6073   -1.0169 C   0  0  0  0  0  0  0  0  0  0  0  0
    1.1608    0.0661   -0.9804 H   0  0  0  0  0  0  0  0  0  0  0  0
    0.7088   -1.6225   -1.0211 H   0  0  0  0  0  0  0  0  0  0  0  0
   -0.4268   -0.4369   -2.3929 C   0  0  0  0  0  0  0  0  0  0  0  0
   -0.3070   -1.3800   -2.9373 H   0  0  0  0  0  0  0  0  0  0  0  0
   -1.9303   -0.1157   -2.4011 C   0  0  0  0  0  0  0  0  0  0  0  0
   -2.1479    0.7869   -1.8273 H   0  0  0  0  0  0  0  0  0  0  0  0
   -2.2729    0.0505   -3.4272 H   0  0  0  0  0  0  0  0  0  0  0  0
   -2.5108   -0.9507   -2.0024 H   0  0  0  0  0  0  0  0  0  0  0  0
    0.2883    0.6571   -3.1998 C   0  0  0  0  0  0  0  0  0  0  0  0
    1.3509    0.4197   -3.3115 H   0  0  0  0  0  0  0  0  0  0  0  0
   -0.1448    0.7431   -4.2013 H   0  0  0  0  0  0  0  0  0  0  0  0
    0.1966    1.6261   -2.6978 H   0  0  0  0  0  0  0  0  0  0  0  0
   -0.5887    1.0136    0.7623 C   0  0  0  0  0  0  0  0  0  0  0  0
   -1.5863    1.6598    0.4649 O   0  0  0  0  0  0  0  0  0  0  0  0
    0.3282    1.5708    1.6357 N   0  0  0  0  0  0  0  0  0  0  0  0
    1.0918    0.9812    1.9543 H   0  0  0  0  0  0  0  0  0  0  0  0
    0.1850    2.9056    2.2044 C   0  0  0  0  0  0  0  0  0  0  0  0
   -0.7293    2.9706    2.8038 H   0  0  0  0  0  0  0  0  0  0  0  0
    1.0384    3.1359    2.8493 H   0  0  0  0  0  0  0  0  0  0  0  0
    0.1402    3.6579    1.4098 H   0  0  0  0  0  0  0  0  0  0  0  0
  1  2  1  0  0  0  0
  2  3  1  0  0  0  0
  2  4  1  0  0  0  0
  2  5  1  0  0  0  0
  5  6  2  0  0  0  0
  5  7  1  0  0  0  0
  7  8  1  0  0  0  0
  7  9  1  0  0  0  0
  9 10  1  0  0  0  0
  9 11  1  0  0  0  0
  9 24  1  0  0  0  0
 11 12  1  0  0  0  0
 11 13  1  0  0  0  0
 11 14  1  0  0  0  0
 14 15  1  0  0  0  0
 14 16  1  0  0  0  0
 14 20  1  0  0  0  0
 16 17  1  0  0  0  0
 16 18  1  0  0  0  0
 16 19  1  0  0  0  0
 20 21  1  0  0  0  0
 20 22  1  0  0  0  0
 20 23  1  0  0  0  0
 24 25  2  0  0  0  0
 24 26  1  0  0  0  0
 26 27  1  0  0  0  0
 26 28  1  0  0  0  0
 28 29  1  0  0  0  0
 28 30  1  0  0  0  0
 28 31  1  0  0  0  0
M  END
$$$$

  -OEChem-03222214063D

 31 30  0     1  0  0  0  0  0999 V2000
   -3.3336   -3.9469    1.4139 H   0  0  0  0  0  0  0  0  0  0  0  0
   -3.3467   -2.9504    0.9638 C   0  0  0  0  0  0  0  0  0  0  0  0
   -3.9647   -2.2929    1.5801 H   0  0  0  0  0  0  0  0  0  0  0  0
   -3.7844   -3.0204   -0.0350 H   0  0  0  0  0  0  0  0  0  0  0  0
   -1.9366   -2.3992    0.8726 C   0  0  0  0  0  0  0  0  0  0  0  0
   -0.9919   -3.0706    1.2575 O   0  0  0  0  0  0  0  0  0  0  0  0
   -1.7303   -1.1395    0.3522 N   0  0  0  0  0  0  0  0  0  0  0  0
   -2.5542   -0.5808    0.1364 H   0  0  0  0  0  0  0  0  0  0  0  0
   -0.4378   -0.4442    0.3214 C   0  0  1  0  0  0  0  0  0  0  0  0
    0.2078   -0.9005    1.0791 H   0  0  0  0  0  0  0  0  0  0  0  0
    0.3055   -0.6002   -1.0283 C   0  0  0  0  0  0  0  0  0  0  0  0
    1.1501    0.0963   -0.9984 H   0  0  0  0  0  0  0  0  0  0  0  0
    0.7384   -1.6062   -1.0336 H   0  0  0  0  0  0  0  0  0  0  0  0
   -0.4291   -0.4297   -2.3957 C   0  0  0  0  0  0  0  0  0  0  0  0
   -0.5836   -1.4394   -2.7920 H   0  0  0  0  0  0  0  0  0  0  0  0
   -1.8129    0.2398   -2.4054 C   0  0  0  0  0  0  0  0  0  0  0  0
   -1.7572    1.2498   -1.9929 H   0  0  0  0  0  0  0  0  0  0  0  0
   -2.1800    0.3194   -3.4332 H   0  0  0  0  0  0  0  0  0  0  0  0
   -2.5506   -0.3392   -1.8486 H   0  0  0  0  0  0  0  0  0  0  0  0
    0.4857    0.3187   -3.3749 C   0  0  0  0  0  0  0  0  0  0  0  0
    1.4545   -0.1848   -3.4530 H   0  0  0  0  0  0  0  0  0  0  0  0
    0.0371    0.3495   -4.3728 H   0  0  0  0  0  0  0  0  0  0  0  0
    0.6515    1.3471   -3.0376 H   0  0  0  0  0  0  0  0  0  0  0  0
   -0.5822    1.0276    0.7660 C   0  0  0  0  0  0  0  0  0  0  0  0
   -1.5963    1.6629    0.5011 O   0  0  0  0  0  0  0  0  0  0  0  0
    0.3293    1.5739    1.6520 N   0  0  0  0  0  0  0  0  0  0  0  0
    1.1027    0.9870    1.9515 H   0  0  0  0  0  0  0  0  0  0  0  0
    0.1720    2.8922    2.2550 C   0  0  0  0  0  0  0  0  0  0  0  0
   -0.7327    2.9263    2.8711 H   0  0  0  0  0  0  0  0  0  0  0  0
    1.0326    3.1224    2.8903 H   0  0  0  0  0  0  0  0  0  0  0  0
    0.1000    3.6623    1.4799 H   0  0  0  0  0  0  0  0  0  0  0  0
  1  2  1  0  0  0  0
  2  3  1  0  0  0  0
  2  4  1  0  0  0  0
  2  5  1  0  0  0  0
  5  6  2  0  0  0  0
  5  7  1  0  0  0  0
  7  8  1  0  0  0  0
  7  9  1  0  0  0  0
  9 10  1  0  0  0  0
  9 11  1  0  0  0  0
  9 24  1  0  0  0  0
 11 12  1  0  0  0  0
 11 13  1  0  0  0  0
 11 14  1  0  0  0  0
 14 15  1  0  0  0  0
 14 16  1  0  0  0  0
 14 20  1  0  0  0  0
 16 17  1  0  0  0  0
 16 18  1  0  0  0  0
 16 19  1  0  0  0  0
 20 21  1  0  0  0  0
 20 22  1  0  0  0  0
 20 23  1  0  0  0  0
 24 25  2  0  0  0  0
 24 26  1  0  0  0  0
 26 27  1  0  0  0  0
 26 28  1  0  0  0  0
 28 29  1  0  0  0  0
 28 30  1  0  0  0  0
 28 31  1  0  0  0  0
M  END
$$$$

  -OEChem-03222214063D

 31 30  0     1  0  0  0  0  0999 V2000
   -3.3430   -3.9303    1.3473 H   0  0  0  0  0  0  0  0  0  0  0  0
   -3.3484   -2.9365    0.8908 C   0  0  0  0  0  0  0  0  0  0  0  0
   -3.9775   -2.2758    1.4921 H   0  0  0  0  0  0  0  0  0  0  0  0
   -3.7680   -3.0126   -0.1152 H   0  0  0  0  0  0  0  0  0  0  0  0
   -1.9369   -2.3850    0.8221 C   0  0  0  0  0  0  0  0  0  0  0  0
   -0.9985   -3.0566    1.2219 O   0  0  0  0  0  0  0  0  0  0  0  0
   -1.7217   -1.1238    0.3083 N   0  0  0  0  0  0  0  0  0  0  0  0
   -2.5424   -0.5643    0.0828 H   0  0  0  0  0  0  0  0  0  0  0  0
   -0.4279   -0.4273    0.3079 C   0  0  1  0  0  0  0  0  0  0  0  0
    0.2020   -0.8860    1.0771 H   0  0  0  0  0  0  0  0  0  0  0  0
    0.3285   -0.6055   -1.0292 C   0  0  0  0  0  0  0  0  0  0  0  0
    1.1659    0.1001   -1.0134 H   0  0  0  0  0  0  0  0  0  0  0  0
    0.7644   -1.6103   -1.0259 H   0  0  0  0  0  0  0  0  0  0  0  0
   -0.4236   -0.4423   -2.3806 C   0  0  0  0  0  0  0  0  0  0  0  0
   -0.8356   -1.4261   -2.6306 H   0  0  0  0  0  0  0  0  0  0  0  0
   -1.6093    0.5337   -2.4070 C   0  0  0  0  0  0  0  0  0  0  0  0
   -1.2807    1.5407   -2.1342 H   0  0  0  0  0  0  0  0  0  0  0  0
   -2.0353    0.5779   -3.4139 H   0  0  0  0  0  0  0  0  0  0  0  0
   -2.4073    0.2247   -1.7300 H   0  0  0  0  0  0  0  0  0  0  0  0
    0.5770   -0.0575   -3.4773 C   0  0  0  0  0  0  0  0  0  0  0  0
    1.3998   -0.7785   -3.5125 H   0  0  0  0  0  0  0  0  0  0  0  0
    0.0876   -0.0493   -4.4562 H   0  0  0  0  0  0  0  0  0  0  0  0
    0.9923    0.9377   -3.2892 H   0  0  0  0  0  0  0  0  0  0  0  0
   -0.5705    1.0456    0.7508 C   0  0  0  0  0  0  0  0  0  0  0  0
   -1.5783    1.6866    0.4755 O   0  0  0  0  0  0  0  0  0  0  0  0
    0.3279    1.5827    1.6552 N   0  0  0  0  0  0  0  0  0  0  0  0
    1.0952    0.9919    1.9624 H   0  0  0  0  0  0  0  0  0  0  0  0
    0.1672    2.8989    2.2613 C   0  0  0  0  0  0  0  0  0  0  0  0
   -0.7509    2.9367    2.8569 H   0  0  0  0  0  0  0  0  0  0  0  0
    1.0148    3.1188    2.9172 H   0  0  0  0  0  0  0  0  0  0  0  0
    0.1186    3.6735    1.4888 H   0  0  0  0  0  0  0  0  0  0  0  0
  1  2  1  0  0  0  0
  2  3  1  0  0  0  0
  2  4  1  0  0  0  0
  2  5  1  0  0  0  0
  5  6  2  0  0  0  0
  5  7  1  0  0  0  0
  7  8  1  0  0  0  0
  7  9  1  0  0  0  0
  9 10  1  0  0  0  0
  9 11  1  0  0  0  0
  9 24  1  0  0  0  0
 11 12  1  0  0  0  0
 11 13  1  0  0  0  0
 11 14  1  0  0  0  0
 14 15  1  0  0  0  0
 14 16  1  0  0  0  0
 14 20  1  0  0  0  0
 16 17  1  0  0  0  0
 16 18  1  0  0  0  0
 16 19  1  0  0  0  0
 20 21  1  0  0  0  0
 20 22  1  0  0  0  0
 20 23  1  0  0  0  0
 24 25  2  0  0  0  0
 24 26  1  0  0  0  0
 26 27  1  0  0  0  0
 26 28  1  0  0  0  0
 28 29  1  0  0  0  0
 28 30  1  0  0  0  0
 28 31  1  0  0  0  0
M  END
$$$$

  -OEChem-03222214063D

 31 30  0     1  0  0  0  0  0999 V2000
   -3.3486   -3.9082    1.3143 H   0  0  0  0  0  0  0  0  0  0  0  0
   -3.3493   -2.9217    0.8424 C   0  0  0  0  0  0  0  0  0  0  0  0
   -3.9886   -2.2538    1.4249 H   0  0  0  0  0  0  0  0  0  0  0  0
   -3.7548   -3.0142   -0.1679 H   0  0  0  0  0  0  0  0  0  0  0  0
   -1.9378   -2.3684    0.7843 C   0  0  0  0  0  0  0  0  0  0  0  0
   -1.0020   -3.0400    1.1901 O   0  0  0  0  0  0  0  0  0  0  0  0
   -1.7198   -1.1061    0.2737 N   0  0  0  0  0  0  0  0  0  0  0  0
   -2.5392   -0.5479    0.0407 H   0  0  0  0  0  0  0  0  0  0  0  0
   -0.4276   -0.4065    0.2897 C   0  0  1  0  0  0  0  0  0  0  0  0
    0.1883   -0.8628    1.0714 H   0  0  0  0  0  0  0  0  0  0  0  0
    0.3469   -0.6158   -1.0318 C   0  0  0  0  0  0  0  0  0  0  0  0
    1.1871    0.0866   -1.0365 H   0  0  0  0  0  0  0  0  0  0  0  0
    0.7735   -1.6242   -1.0057 H   0  0  0  0  0  0  0  0  0  0  0  0
   -0.4225   -0.4771   -2.3705 C   0  0  0  0  0  0  0  0  0  0  0  0
   -1.0446   -1.3704   -2.4918 H   0  0  0  0  0  0  0  0  0  0  0  0
   -1.3519    0.7382   -2.4680 C   0  0  0  0  0  0  0  0  0  0  0  0
   -0.8142    1.6570   -2.2146 H   0  0  0  0  0  0  0  0  0  0  0  0
   -1.7422    0.8384   -3.4854 H   0  0  0  0  0  0  0  0  0  0  0  0
   -2.2081    0.6285   -1.7981 H   0  0  0  0  0  0  0  0  0  0  0  0
    0.5859   -0.4403   -3.5252 C   0  0  0  0  0  0  0  0  0  0  0  0
    1.2315   -1.3237   -3.4961 H   0  0  0  0  0  0  0  0  0  0  0  0
    0.0652   -0.4297   -4.4878 H   0  0  0  0  0  0  0  0  0  0  0  0
    1.2144    0.4536   -3.4610 H   0  0  0  0  0  0  0  0  0  0  0  0
   -0.5635    1.0685    0.7304 C   0  0  0  0  0  0  0  0  0  0  0  0
   -1.5697    1.7135    0.4588 O   0  0  0  0  0  0  0  0  0  0  0  0
    0.3312    1.5984    1.6430 N   0  0  0  0  0  0  0  0  0  0  0  0
    1.0965    1.0047    1.9495 H   0  0  0  0  0  0  0  0  0  0  0  0
    0.1722    2.9124    2.2544 C   0  0  0  0  0  0  0  0  0  0  0  0
   -0.7555    2.9554    2.8346 H   0  0  0  0  0  0  0  0  0  0  0  0
    1.0105    3.1209    2.9259 H   0  0  0  0  0  0  0  0  0  0  0  0
    0.1436    3.6918    1.4858 H   0  0  0  0  0  0  0  0  0  0  0  0
  1  2  1  0  0  0  0
  2  3  1  0  0  0  0
  2  4  1  0  0  0  0
  2  5  1  0  0  0  0
  5  6  2  0  0  0  0
  5  7  1  0  0  0  0
  7  8  1  0  0  0  0
  7  9  1  0  0  0  0
  9 10  1  0  0  0  0
  9 11  1  0  0  0  0
  9 24  1  0  0  0  0
 11 12  1  0  0  0  0
 11 13  1  0  0  0  0
 11 14  1  0  0  0  0
 14 15  1  0  0  0  0
 14 16  1  0  0  0  0
 14 20  1  0  0  0  0
 16 17  1  0  0  0  0
 16 18  1  0  0  0  0
 16 19  1  0  0  0  0
 20 21  1  0  0  0  0
 20 22  1  0  0  0  0
 20 23  1  0  0  0  0
 24 25  2  0  0  0  0
 24 26  1  0  0  0  0
 26 27  1  0  0  0  0
 26 28  1  0  0  0  0
 28 29  1  0  0  0  0
 28 30  1  0  0  0  0
 28 31  1  0  0  0  0
M  END
$$$$

  -OEChem-03222214063D

 31 30  0     1  0  0  0  0  0999 V2000
   -3.3662   -3.8991    1.3173 H   0  0  0  0  0  0  0  0  0  0  0  0
   -3.3595   -2.9225    0.8254 C   0  0  0  0  0  0  0  0  0  0  0  0
   -4.0090   -2.2433    1.3828 H   0  0  0  0  0  0  0  0  0  0  0  0
   -3.7470   -3.0359   -0.1898 H   0  0  0  0  0  0  0  0  0  0  0  0
   -1.9477   -2.3692    0.7805 C   0  0  0  0  0  0  0  0  0  0  0  0
   -1.0171   -3.0376    1.2031 O   0  0  0  0  0  0  0  0  0  0  0  0
   -1.7230   -1.1107    0.2632 N   0  0  0  0  0  0  0  0  0  0  0  0
   -2.5385   -0.5555    0.0096 H   0  0  0  0  0  0  0  0  0  0  0  0
   -0.4288   -0.4147    0.2815 C   0  0  1  0  0  0  0  0  0  0  0  0
    0.1813   -0.8685    1.0695 H   0  0  0  0  0  0  0  0  0  0  0  0
    0.3532   -0.6309   -1.0337 C   0  0  0  0  0  0  0  0  0  0  0  0
    1.2034    0.0591   -1.0473 H   0  0  0  0  0  0  0  0  0  0  0  0
    0.7640   -1.6456   -0.9980 H   0  0  0  0  0  0  0  0  0  0  0  0
   -0.4269   -0.4922   -2.3639 C   0  0  0  0  0  0  0  0  0  0  0  0
   -1.2261   -1.2404   -2.3880 H   0  0  0  0  0  0  0  0  0  0  0  0
   -1.0559    0.8897   -2.5757 C   0  0  0  0  0  0  0  0  0  0  0  0
   -0.3421    1.6837   -2.3344 H   0  0  0  0  0  0  0  0  0  0  0  0
   -1.3719    1.0131   -3.6162 H   0  0  0  0  0  0  0  0  0  0  0  0
   -1.9439    1.0046   -1.9500 H   0  0  0  0  0  0  0  0  0  0  0  0
    0.5315   -0.7870   -3.5246 C   0  0  0  0  0  0  0  0  0  0  0  0
    0.9748   -1.7813   -3.4114 H   0  0  0  0  0  0  0  0  0  0  0  0
   -0.0033   -0.7602   -4.4790 H   0  0  0  0  0  0  0  0  0  0  0  0
    1.3378   -0.0473   -3.5569 H   0  0  0  0  0  0  0  0  0  0  0  0
   -0.5616    1.0629    0.7120 C   0  0  0  0  0  0  0  0  0  0  0  0
   -1.5638    1.7096    0.4311 O   0  0  0  0  0  0  0  0  0  0  0  0
    0.3307    1.5952    1.6256 N   0  0  0  0  0  0  0  0  0  0  0  0
    1.0943    1.0019    1.9374 H   0  0  0  0  0  0  0  0  0  0  0  0
    0.1809    2.9191    2.2180 C   0  0  0  0  0  0  0  0  0  0  0  0
   -0.7601    2.9865    2.7738 H   0  0  0  0  0  0  0  0  0  0  0  0
    1.0053    3.1198    2.9089 H   0  0  0  0  0  0  0  0  0  0  0  0
    0.1872    3.6895    1.4399 H   0  0  0  0  0  0  0  0  0  0  0  0
  1  2  1  0  0  0  0
  2  3  1  0  0  0  0
  2  4  1  0  0  0  0
  2  5  1  0  0  0  0
  5  6  2  0  0  0  0
  5  7  1  0  0  0  0
  7  8  1  0  0  0  0
  7  9  1  0  0  0  0
  9 10  1  0  0  0  0
  9 11  1  0  0  0  0
  9 24  1  0  0  0  0
 11 12  1  0  0  0  0
 11 13  1  0  0  0  0
 11 14  1  0  0  0  0
 14 15  1  0  0  0  0
 14 16  1  0  0  0  0
 14 20  1  0  0  0  0
 16 17  1  0  0  0  0
 16 18  1  0  0  0  0
 16 19  1  0  0  0  0
 20 21  1  0  0  0  0
 20 22  1  0  0  0  0
 20 23  1  0  0  0  0
 24 25  2  0  0  0  0
 24 26  1  0  0  0  0
 26 27  1  0  0  0  0
 26 28  1  0  0  0  0
 28 29  1  0  0  0  0
 28 30  1  0  0  0  0
 28 31  1  0  0  0  0
M  END
$$$$

  -OEChem-03222214063D

 31 30  0     1  0  0  0  0  0999 V2000
   -3.3883   -3.8917    1.3171 H   0  0  0  0  0  0  0  0  0  0  0  0
   -3.3759   -2.9061    0.8436 C   0  0  0  0  0  0  0  0  0  0  0  0
   -4.0098   -2.2296    1.4219 H   0  0  0  0  0  0  0  0  0  0  0  0
   -3.7781   -2.9961   -0.1683 H   0  0  0  0  0  0  0  0  0  0  0  0
   -1.9581   -2.3692    0.7908 C   0  0  0  0  0  0  0  0  0  0  0  0
   -1.0342   -3.0438    1.2183 O   0  0  0  0  0  0  0  0  0  0  0  0
   -1.7199   -1.1197    0.2582 N   0  0  0  0  0  0  0  0  0  0  0  0
   -2.5304   -0.5534    0.0125 H   0  0  0  0  0  0  0  0  0  0  0  0
   -0.4189   -0.4362    0.2742 C   0  0  1  0  0  0  0  0  0  0  0  0
    0.1884   -0.8853    1.0668 H   0  0  0  0  0  0  0  0  0  0  0  0
    0.3644   -0.6526   -1.0404 C   0  0  0  0  0  0  0  0  0  0  0  0
    1.2325    0.0144   -1.0537 H   0  0  0  0  0  0  0  0  0  0  0  0
    0.7512   -1.6765   -1.0009 H   0  0  0  0  0  0  0  0  0  0  0  0
   -0.4190   -0.4991   -2.3681 C   0  0  0  0  0  0  0  0  0  0  0  0
   -1.3652   -1.0464   -2.3106 H   0  0  0  0  0  0  0  0  0  0  0  0
   -0.7116    0.9649   -2.7223 C   0  0  0  0  0  0  0  0  0  0  0  0
    0.1868    1.5801   -2.6124 H   0  0  0  0  0  0  0  0  0  0  0  0
   -1.0618    1.0461   -3.7559 H   0  0  0  0  0  0  0  0  0  0  0  0
   -1.4968    1.3681   -2.0809 H   0  0  0  0  0  0  0  0  0  0  0  0
    0.4108   -1.1159   -3.5021 C   0  0  0  0  0  0  0  0  0  0  0  0
    0.6012   -2.1755   -3.3049 H   0  0  0  0  0  0  0  0  0  0  0  0
   -0.1246   -1.0400   -4.4537 H   0  0  0  0  0  0  0  0  0  0  0  0
    1.3719   -0.6016   -3.6017 H   0  0  0  0  0  0  0  0  0  0  0  0
   -0.5605    1.0443    0.6867 C   0  0  0  0  0  0  0  0  0  0  0  0
   -1.5684    1.6772    0.3935 O   0  0  0  0  0  0  0  0  0  0  0  0
    0.3208    1.5917    1.6018 N   0  0  0  0  0  0  0  0  0  0  0  0
    1.0857    1.0065    1.9257 H   0  0  0  0  0  0  0  0  0  0  0  0
    0.1479    2.9139    2.1912 C   0  0  0  0  0  0  0  0  0  0  0  0
   -0.7802    2.9563    2.7709 H   0  0  0  0  0  0  0  0  0  0  0  0
    0.9839    3.1425    2.8592 H   0  0  0  0  0  0  0  0  0  0  0  0
    0.1114    3.6800    1.4095 H   0  0  0  0  0  0  0  0  0  0  0  0
  1  2  1  0  0  0  0
  2  3  1  0  0  0  0
  2  4  1  0  0  0  0
  2  5  1  0  0  0  0
  5  6  2  0  0  0  0
  5  7  1  0  0  0  0
  7  8  1  0  0  0  0
  7  9  1  0  0  0  0
  9 10  1  0  0  0  0
  9 11  1  0  0  0  0
  9 24  1  0  0  0  0
 11 12  1  0  0  0  0
 11 13  1  0  0  0  0
 11 14  1  0  0  0  0
 14 15  1  0  0  0  0
 14 16  1  0  0  0  0
 14 20  1  0  0  0  0
 16 17  1  0  0  0  0
 16 18  1  0  0  0  0
 16 19  1  0  0  0  0
 20 21  1  0  0  0  0
 20 22  1  0  0  0  0
 20 23  1  0  0  0  0
 24 25  2  0  0  0  0
 24 26  1  0  0  0  0
 26 27  1  0  0  0  0
 26 28  1  0  0  0  0
 28 29  1  0  0  0  0
 28 30  1  0  0  0  0
 28 31  1  0  0  0  0
M  END
$$$$

  -OEChem-03222214063D

 31 30  0     1  0  0  0  0  0999 V2000
   -3.4200   -3.8779    1.3678 H   0  0  0  0  0  0  0  0  0  0  0  0
   -3.3867   -2.9137    0.8529 C   0  0  0  0  0  0  0  0  0  0  0  0
   -4.0293   -2.2080    1.3848 H   0  0  0  0  0  0  0  0  0  0  0  0
   -3.7628   -3.0439   -0.1646 H   0  0  0  0  0  0  0  0  0  0  0  0
   -1.9636   -2.3903    0.8144 C   0  0  0  0  0  0  0  0  0  0  0  0
   -1.0531   -3.0631    1.2723 O   0  0  0  0  0  0  0  0  0  0  0  0
   -1.7057   -1.1533    0.2626 N   0  0  0  0  0  0  0  0  0  0  0  0
   -2.5067   -0.5858   -0.0104 H   0  0  0  0  0  0  0  0  0  0  0  0
   -0.3982   -0.4815    0.2867 C   0  0  1  0  0  0  0  0  0  0  0  0
    0.2079   -0.9248    1.0835 H   0  0  0  0  0  0  0  0  0  0  0  0
    0.3832   -0.6800   -1.0328 C   0  0  0  0  0  0  0  0  0  0  0  0
    1.2646   -0.0308   -1.0364 H   0  0  0  0  0  0  0  0  0  0  0  0
    0.7535   -1.7105   -1.0084 H   0  0  0  0  0  0  0  0  0  0  0  0
   -0.4109   -0.4903   -2.3521 C   0  0  0  0  0  0  0  0  0  0  0  0
   -1.4564   -0.7831   -2.2203 H   0  0  0  0  0  0  0  0  0  0  0  0
   -0.3599    0.9647   -2.8397 C   0  0  0  0  0  0  0  0  0  0  0  0
    0.6754    1.2940   -2.9721 H   0  0  0  0  0  0  0  0  0  0  0  0
   -0.8785    1.0612   -3.7985 H   0  0  0  0  0  0  0  0  0  0  0  0
   -0.8480    1.6346   -2.1295 H   0  0  0  0  0  0  0  0  0  0  0  0
    0.1910   -1.3849   -3.4439 C   0  0  0  0  0  0  0  0  0  0  0  0
    0.1206   -2.4388   -3.1567 H   0  0  0  0  0  0  0  0  0  0  0  0
   -0.3494   -1.2536   -4.3866 H   0  0  0  0  0  0  0  0  0  0  0  0
    1.2447   -1.1381   -3.6093 H   0  0  0  0  0  0  0  0  0  0  0  0
   -0.5606    1.0036    0.6716 C   0  0  0  0  0  0  0  0  0  0  0  0
   -1.5518    1.6291    0.3113 O   0  0  0  0  0  0  0  0  0  0  0  0
    0.2930    1.5801    1.5946 N   0  0  0  0  0  0  0  0  0  0  0  0
    1.0485    1.0071    1.9596 H   0  0  0  0  0  0  0  0  0  0  0  0
    0.1153    2.9294    2.1174 C   0  0  0  0  0  0  0  0  0  0  0  0
   -0.8487    3.0187    2.6293 H   0  0  0  0  0  0  0  0  0  0  0  0
    0.9095    3.1662    2.8321 H   0  0  0  0  0  0  0  0  0  0  0  0
    0.1519    3.6624    1.3046 H   0  0  0  0  0  0  0  0  0  0  0  0
  1  2  1  0  0  0  0
  2  3  1  0  0  0  0
  2  4  1  0  0  0  0
  2  5  1  0  0  0  0
  5  6  2  0  0  0  0
  5  7  1  0  0  0  0
  7  8  1  0  0  0  0
  7  9  1  0  0  0  0
  9 10  1  0  0  0  0
  9 11  1  0  0  0  0
  9 24  1  0  0  0  0
 11 12  1  0  0  0  0
 11 13  1  0  0  0  0
 11 14  1  0  0  0  0
 14 15  1  0  0  0  0
 14 16  1  0  0  0  0
 14 20  1  0  0  0  0
 16 17  1  0  0  0  0
 16 18  1  0  0  0  0
 16 19  1  0  0  0  0
 20 21  1  0  0  0  0
 20 22  1  0  0  0  0
 20 23  1  0  0  0  0
 24 25  2  0  0  0  0
 24 26  1  0  0  0  0
 26 27  1  0  0  0  0
 26 28  1  0  0  0  0
 28 29  1  0  0  0  0
 28 30  1  0  0  0  0
 28 31  1  0  0  0  0
M  END
$$$$

  -OEChem-03222214063D

 31 30  0     1  0  0  0  0  0999 V2000
   -3.4387   -3.8966    1.3697 H   0  0  0  0  0  0  0  0  0  0  0  0
   -3.3878   -2.9408    0.8408 C   0  0  0  0  0  0  0  0  0  0  0  0
   -4.0487   -2.2270    1.3388 H   0  0  0  0  0  0  0  0  0  0  0  0
   -3.7290   -3.0877   -0.1868 H   0  0  0  0  0  0  0  0  0  0  0  0
   -1.9640   -2.4173    0.8428 C   0  0  0  0  0  0  0  0  0  0  0  0
   -1.0718   -3.0760    1.3537 O   0  0  0  0  0  0  0  0  0  0  0  0
   -1.6846   -1.1959    0.2679 N   0  0  0  0  0  0  0  0  0  0  0  0
   -2.4727   -0.6384   -0.0577 H   0  0  0  0  0  0  0  0  0  0  0  0
   -0.3744   -0.5296    0.3098 C   0  0  1  0  0  0  0  0  0  0  0  0
    0.2290   -0.9640    1.1134 H   0  0  0  0  0  0  0  0  0  0  0  0
    0.4076   -0.7035   -1.0109 C   0  0  0  0  0  0  0  0  0  0  0  0
    1.2886   -0.0530   -0.9999 H   0  0  0  0  0  0  0  0  0  0  0  0
    0.7830   -1.7324   -1.0125 H   0  0  0  0  0  0  0  0  0  0  0  0
   -0.4080   -0.4750   -2.3128 C   0  0  0  0  0  0  0  0  0  0  0  0
   -1.4820   -0.4766   -2.1079 H   0  0  0  0  0  0  0  0  0  0  0  0
   -0.0476    0.8774   -2.9414 C   0  0  0  0  0  0  0  0  0  0  0  0
    1.0135    0.9119   -3.2084 H   0  0  0  0  0  0  0  0  0  0  0  0
   -0.6389    1.0446   -3.8471 H   0  0  0  0  0  0  0  0  0  0  0  0
   -0.2570    1.6935   -2.2438 H   0  0  0  0  0  0  0  0  0  0  0  0
   -0.1202   -1.5898   -3.3259 C   0  0  0  0  0  0  0  0  0  0  0  0
   -0.4131   -2.5615   -2.9155 H   0  0  0  0  0  0  0  0  0  0  0  0
   -0.6871   -1.4238   -4.2474 H   0  0  0  0  0  0  0  0  0  0  0  0
    0.9456   -1.6220   -3.5738 H   0  0  0  0  0  0  0  0  0  0  0  0
   -0.5529    0.9628    0.6542 C   0  0  0  0  0  0  0  0  0  0  0  0
   -1.4930    1.5944    0.1837 O   0  0  0  0  0  0  0  0  0  0  0  0
    0.2685    1.5691    1.5868 N   0  0  0  0  0  0  0  0  0  0  0  0
    0.9950    1.0020    2.0146 H   0  0  0  0  0  0  0  0  0  0  0  0
    0.1065    2.9523    2.0178 C   0  0  0  0  0  0  0  0  0  0  0  0
   -0.8767    3.0987    2.4773 H   0  0  0  0  0  0  0  0  0  0  0  0
    0.8739    3.2113    2.7535 H   0  0  0  0  0  0  0  0  0  0  0  0
    0.2021    3.6324    1.1648 H   0  0  0  0  0  0  0  0  0  0  0  0
  1  2  1  0  0  0  0
  2  3  1  0  0  0  0
  2  4  1  0  0  0  0
  2  5  1  0  0  0  0
  5  6  2  0  0  0  0
  5  7  1  0  0  0  0
  7  8  1  0  0  0  0
  7  9  1  0  0  0  0
  9 10  1  0  0  0  0
  9 11  1  0  0  0  0
  9 24  1  0  0  0  0
 11 12  1  0  0  0  0
 11 13  1  0  0  0  0
 11 14  1  0  0  0  0
 14 15  1  0  0  0  0
 14 16  1  0  0  0  0
 14 20  1  0  0  0  0
 16 17  1  0  0  0  0
 16 18  1  0  0  0  0
 16 19  1  0  0  0  0
 20 21  1  0  0  0  0
 20 22  1  0  0  0  0
 20 23  1  0  0  0  0
 24 25  2  0  0  0  0
 24 26  1  0  0  0  0
 26 27  1  0  0  0  0
 26 28  1  0  0  0  0
 28 29  1  0  0  0  0
 28 30  1  0  0  0  0
 28 31  1  0  0  0  0
M  END
$$$$

  -OEChem-03222214063D

 31 30  0     1  0  0  0  0  0999 V2000
   -3.4267   -3.9214    1.3172 H   0  0  0  0  0  0  0  0  0  0  0  0
   -3.3714   -2.9629    0.7935 C   0  0  0  0  0  0  0  0  0  0  0  0
   -4.0592   -2.2607    1.2706 H   0  0  0  0  0  0  0  0  0  0  0  0
   -3.6751   -3.1112   -0.2456 H   0  0  0  0  0  0  0  0  0  0  0  0
   -1.9560   -2.4194    0.8453 C   0  0  0  0  0  0  0  0  0  0  0  0
   -1.0739   -3.0640    1.3904 O   0  0  0  0  0  0  0  0  0  0  0  0
   -1.6705   -1.2012    0.2665 N   0  0  0  0  0  0  0  0  0  0  0  0
   -2.4514   -0.6588   -0.0987 H   0  0  0  0  0  0  0  0  0  0  0  0
   -0.3626   -0.5306    0.3228 C   0  0  1  0  0  0  0  0  0  0  0  0
    0.2370   -0.9623    1.1309 H   0  0  0  0  0  0  0  0  0  0  0  0
    0.4193   -0.7067   -0.9956 C   0  0  0  0  0  0  0  0  0  0  0  0
    1.2878   -0.0395   -0.9821 H   0  0  0  0  0  0  0  0  0  0  0  0
    0.8153   -1.7276   -1.0057 H   0  0  0  0  0  0  0  0  0  0  0  0
   -0.4133   -0.4753   -2.2857 C   0  0  0  0  0  0  0  0  0  0  0  0
   -1.4378   -0.1856   -2.0331 H   0  0  0  0  0  0  0  0  0  0  0  0
    0.1872    0.6697   -3.1090 C   0  0  0  0  0  0  0  0  0  0  0  0
    1.2124    0.4338   -3.4114 H   0  0  0  0  0  0  0  0  0  0  0  0
   -0.4090    0.8445   -4.0100 H   0  0  0  0  0  0  0  0  0  0  0  0
    0.1990    1.5934   -2.5218 H   0  0  0  0  0  0  0  0  0  0  0  0
   -0.4747   -1.7519   -3.1318 C   0  0  0  0  0  0  0  0  0  0  0  0
   -0.9260   -2.5665   -2.5564 H   0  0  0  0  0  0  0  0  0  0  0  0
   -1.0818   -1.5864   -4.0272 H   0  0  0  0  0  0  0  0  0  0  0  0
    0.5287   -2.0585   -3.4437 H   0  0  0  0  0  0  0  0  0  0  0  0
   -0.5396    0.9655    0.6538 C   0  0  0  0  0  0  0  0  0  0  0  0
   -1.4508    1.6062    0.1411 O   0  0  0  0  0  0  0  0  0  0  0  0
    0.2719    1.5757    1.5928 N   0  0  0  0  0  0  0  0  0  0  0  0
    0.9791    1.0046    2.0469 H   0  0  0  0  0  0  0  0  0  0  0  0
    0.1223    2.9682    1.9975 C   0  0  0  0  0  0  0  0  0  0  0  0
   -0.8687    3.1368    2.4320 H   0  0  0  0  0  0  0  0  0  0  0  0
    0.8769    3.2273    2.7464 H   0  0  0  0  0  0  0  0  0  0  0  0
    0.2482    3.6328    1.1362 H   0  0  0  0  0  0  0  0  0  0  0  0
  1  2  1  0  0  0  0
  2  3  1  0  0  0  0
  2  4  1  0  0  0  0
  2  5  1  0  0  0  0
  5  6  2  0  0  0  0
  5  7  1  0  0  0  0
  7  8  1  0  0  0  0
  7  9  1  0  0  0  0
  9 10  1  0  0  0  0
  9 11  1  0  0  0  0
  9 24  1  0  0  0  0
 11 12  1  0  0  0  0
 11 13  1  0  0  0  0
 11 14  1  0  0  0  0
 14 15  1  0  0  0  0
 14 16  1  0  0  0  0
 14 20  1  0  0  0  0
 16 17  1  0  0  0  0
 16 18  1  0  0  0  0
 16 19  1  0  0  0  0
 20 21  1  0  0  0  0
 20 22  1  0  0  0  0
 20 23  1  0  0  0  0
 24 25  2  0  0  0  0
 24 26  1  0  0  0  0
 26 27  1  0  0  0  0
 26 28  1  0  0  0  0
 28 29  1  0  0  0  0
 28 30  1  0  0  0  0
 28 31  1  0  0  0  0
M  END
$$$$

  -OEChem-03222214063D

 31 30  0     1  0  0  0  0  0999 V2000
   -3.4255   -3.9192    1.3127 H   0  0  0  0  0  0  0  0  0  0  0  0
   -3.3702   -2.9600    0.7902 C   0  0  0  0  0  0  0  0  0  0  0  0
   -4.0567   -2.2578    1.2692 H   0  0  0  0  0  0  0  0  0  0  0  0
   -3.6753   -3.1066   -0.2488 H   0  0  0  0  0  0  0  0  0  0  0  0
   -1.9548   -2.4166    0.8410 C   0  0  0  0  0  0  0  0  0  0  0  0
   -1.0712   -3.0629    1.3818 O   0  0  0  0  0  0  0  0  0  0  0  0
   -1.6719   -1.1960    0.2661 N   0  0  0  0  0  0  0  0  0  0  0  0
   -2.4539   -0.6554   -0.0992 H   0  0  0  0  0  0  0  0  0  0  0  0
   -0.3655   -0.5235    0.3212 C   0  0  1  0  0  0  0  0  0  0  0  0
    0.2336   -0.9563    1.1287 H   0  0  0  0  0  0  0  0  0  0  0  0
    0.4182   -0.7059   -0.9956 C   0  0  0  0  0  0  0  0  0  0  0  0
    1.2705   -0.0183   -0.9820 H   0  0  0  0  0  0  0  0  0  0  0  0
    0.8358   -1.7182   -1.0097 H   0  0  0  0  0  0  0  0  0  0  0  0
   -0.4175   -0.4834   -2.2826 C   0  0  0  0  0  0  0  0  0  0  0  0
   -1.3384    0.0569   -2.0403 H   0  0  0  0  0  0  0  0  0  0  0  0
    0.3626    0.3780   -3.2821 C   0  0  0  0  0  0  0  0  0  0  0  0
    1.3044   -0.1072   -3.5578 H   0  0  0  0  0  0  0  0  0  0  0  0
   -0.2264    0.5360   -4.1909 H   0  0  0  0  0  0  0  0  0  0  0  0
    0.5873    1.3566   -2.8463 H   0  0  0  0  0  0  0  0  0  0  0  0
   -0.7952   -1.8205   -2.9332 C   0  0  0  0  0  0  0  0  0  0  0  0
   -1.3591   -2.4430   -2.2323 H   0  0  0  0  0  0  0  0  0  0  0  0
   -1.4168   -1.6504   -3.8178 H   0  0  0  0  0  0  0  0  0  0  0  0
    0.1015   -2.3685   -3.2396 H   0  0  0  0  0  0  0  0  0  0  0  0
   -0.5384    0.9721    0.6579 C   0  0  0  0  0  0  0  0  0  0  0  0
   -1.4535    1.6159    0.1563 O   0  0  0  0  0  0  0  0  0  0  0  0
    0.2780    1.5768    1.5961 N   0  0  0  0  0  0  0  0  0  0  0  0
    0.9867    1.0030    2.0443 H   0  0  0  0  0  0  0  0  0  0  0  0
    0.1302    2.9670    2.0095 C   0  0  0  0  0  0  0  0  0  0  0  0
   -0.8578    3.1327    2.4518 H   0  0  0  0  0  0  0  0  0  0  0  0
    0.8898    3.2231    2.7545 H   0  0  0  0  0  0  0  0  0  0  0  0
    0.2493    3.6364    1.1509 H   0  0  0  0  0  0  0  0  0  0  0  0
  1  2  1  0  0  0  0
  2  3  1  0  0  0  0
  2  4  1  0  0  0  0
  2  5  1  0  0  0  0
  5  6  2  0  0  0  0
  5  7  1  0  0  0  0
  7  8  1  0  0  0  0
  7  9  1  0  0  0  0
  9 10  1  0  0  0  0
  9 11  1  0  0  0  0
  9 24  1  0  0  0  0
 11 12  1  0  0  0  0
 11 13  1  0  0  0  0
 11 14  1  0  0  0  0
 14 15  1  0  0  0  0
 14 16  1  0  0  0  0
 14 20  1  0  0  0  0
 16 17  1  0  0  0  0
 16 18  1  0  0  0  0
 16 19  1  0  0  0  0
 20 21  1  0  0  0  0
 20 22  1  0  0  0  0
 20 23  1  0  0  0  0
 24 25  2  0  0  0  0
 24 26  1  0  0  0  0
 26 27  1  0  0  0  0
 26 28  1  0  0  0  0
 28 29  1  0  0  0  0
 28 30  1  0  0  0  0
 28 31  1  0  0  0  0
M  END
$$$$

  -OEChem-03222214063D

 31 30  0     1  0  0  0  0  0999 V2000
   -3.4309   -3.9095    1.3990 H   0  0  0  0  0  0  0  0  0  0  0  0
   -3.3847   -2.9534    0.8700 C   0  0  0  0  0  0  0  0  0  0  0  0
   -4.0533   -2.2449    1.3647 H   0  0  0  0  0  0  0  0  0  0  0  0
   -3.7205   -3.1035   -0.1588 H   0  0  0  0  0  0  0  0  0  0  0  0
   -1.9652   -2.4182    0.8782 C   0  0  0  0  0  0  0  0  0  0  0  0
   -1.0710   -3.0676    1.3974 O   0  0  0  0  0  0  0  0  0  0  0  0
   -1.6924   -1.1984    0.2959 N   0  0  0  0  0  0  0  0  0  0  0  0
   -2.4804   -0.6564   -0.0544 H   0  0  0  0  0  0  0  0  0  0  0  0
   -0.3844   -0.5312    0.3196 C   0  0  1  0  0  0  0  0  0  0  0  0
    0.2265   -0.9630    1.1190 H   0  0  0  0  0  0  0  0  0  0  0  0
    0.3932   -0.7025   -1.0053 C   0  0  0  0  0  0  0  0  0  0  0  0
    1.2394   -0.0072   -0.9870 H   0  0  0  0  0  0  0  0  0  0  0  0
    0.8164   -1.7121   -1.0277 H   0  0  0  0  0  0  0  0  0  0  0  0
   -0.4287   -0.4809   -2.3009 C   0  0  0  0  0  0  0  0  0  0  0  0
   -1.2116    0.2626   -2.1200 H   0  0  0  0  0  0  0  0  0  0  0  0
    0.4922    0.0548   -3.4043 C   0  0  0  0  0  0  0  0  0  0  0  0
    1.3054   -0.6499   -3.6056 H   0  0  0  0  0  0  0  0  0  0  0  0
   -0.0707    0.2108   -4.3298 H   0  0  0  0  0  0  0  0  0  0  0  0
    0.9269    1.0141   -3.1060 H   0  0  0  0  0  0  0  0  0  0  0  0
   -1.0761   -1.7799   -2.8088 C   0  0  0  0  0  0  0  0  0  0  0  0
   -1.7847   -2.1832   -2.0829 H   0  0  0  0  0  0  0  0  0  0  0  0
   -1.6219   -1.5911   -3.7385 H   0  0  0  0  0  0  0  0  0  0  0  0
   -0.3130   -2.5399   -3.0045 H   0  0  0  0  0  0  0  0  0  0  0  0
   -0.5531    0.9643    0.6607 C   0  0  0  0  0  0  0  0  0  0  0  0
   -1.4814    1.6067    0.1820 O   0  0  0  0  0  0  0  0  0  0  0  0
    0.2839    1.5690    1.5808 N   0  0  0  0  0  0  0  0  0  0  0  0
    1.0001    0.9937    2.0149 H   0  0  0  0  0  0  0  0  0  0  0  0
    0.1352    2.9540    2.0107 C   0  0  0  0  0  0  0  0  0  0  0  0
   -0.8422    3.1066    2.4804 H   0  0  0  0  0  0  0  0  0  0  0  0
    0.9120    3.2095    2.7377 H   0  0  0  0  0  0  0  0  0  0  0  0
    0.2257    3.6322    1.1556 H   0  0  0  0  0  0  0  0  0  0  0  0
  1  2  1  0  0  0  0
  2  3  1  0  0  0  0
  2  4  1  0  0  0  0
  2  5  1  0  0  0  0
  5  6  2  0  0  0  0
  5  7  1  0  0  0  0
  7  8  1  0  0  0  0
  7  9  1  0  0  0  0
  9 10  1  0  0  0  0
  9 11  1  0  0  0  0
  9 24  1  0  0  0  0
 11 12  1  0  0  0  0
 11 13  1  0  0  0  0
 11 14  1  0  0  0  0
 14 15  1  0  0  0  0
 14 16  1  0  0  0  0
 14 20  1  0  0  0  0
 16 17  1  0  0  0  0
 16 18  1  0  0  0  0
 16 19  1  0  0  0  0
 20 21  1  0  0  0  0
 20 22  1  0  0  0  0
 20 23  1  0  0  0  0
 24 25  2  0  0  0  0
 24 26  1  0  0  0  0
 26 27  1  0  0  0  0
 26 28  1  0  0  0  0
 28 29  1  0  0  0  0
 28 30  1  0  0  0  0
 28 31  1  0  0  0  0
M  END
$$$$

  -OEChem-03222214063D

 31 30  0     1  0  0  0  0  0999 V2000
   -3.4138   -3.9137    1.4954 H   0  0  0  0  0  0  0  0  0  0  0  0
   -3.3793   -2.9650    0.9524 C   0  0  0  0  0  0  0  0  0  0  0  0
   -4.0373   -2.2498    1.4517 H   0  0  0  0  0  0  0  0  0  0  0  0
   -3.7362   -3.1284   -0.0673 H   0  0  0  0  0  0  0  0  0  0  0  0
   -1.9598   -2.4308    0.9227 C   0  0  0  0  0  0  0  0  0  0  0  0
   -1.0522   -3.0813    1.4168 O   0  0  0  0  0  0  0  0  0  0  0  0
   -1.7023   -1.2098    0.3363 N   0  0  0  0  0  0  0  0  0  0  0  0
   -2.4990   -0.6651    0.0104 H   0  0  0  0  0  0  0  0  0  0  0  0
   -0.3948   -0.5450    0.3237 C   0  0  1  0  0  0  0  0  0  0  0  0
    0.2367   -0.9773    1.1065 H   0  0  0  0  0  0  0  0  0  0  0  0
    0.3611   -0.6932   -1.0184 C   0  0  0  0  0  0  0  0  0  0  0  0
    1.2092   -0.0004   -0.9984 H   0  0  0  0  0  0  0  0  0  0  0  0
    0.7802   -1.7043   -1.0540 H   0  0  0  0  0  0  0  0  0  0  0  0
   -0.4442   -0.4638   -2.3250 C   0  0  0  0  0  0  0  0  0  0  0  0
   -1.0371    0.4523   -2.2342 H   0  0  0  0  0  0  0  0  0  0  0  0
    0.5526   -0.2847   -3.4792 C   0  0  0  0  0  0  0  0  0  0  0  0
    1.1650   -1.1834   -3.6050 H   0  0  0  0  0  0  0  0  0  0  0  0
    0.0230   -0.0900   -4.4171 H   0  0  0  0  0  0  0  0  0  0  0  0
    1.2156    0.5643   -3.2847 H   0  0  0  0  0  0  0  0  0  0  0  0
   -1.3756   -1.6324   -2.6972 C   0  0  0  0  0  0  0  0  0  0  0  0
   -2.2627   -1.6542   -2.0622 H   0  0  0  0  0  0  0  0  0  0  0  0
   -1.7234   -1.5287   -3.7297 H   0  0  0  0  0  0  0  0  0  0  0  0
   -0.8519   -2.5890   -2.6045 H   0  0  0  0  0  0  0  0  0  0  0  0
   -0.5664    0.9473    0.6751 C   0  0  0  0  0  0  0  0  0  0  0  0
   -1.5085    1.5845    0.2164 O   0  0  0  0  0  0  0  0  0  0  0  0
    0.2891    1.5570    1.5746 N   0  0  0  0  0  0  0  0  0  0  0  0
    1.0192    0.9860    1.9909 H   0  0  0  0  0  0  0  0  0  0  0  0
    0.1417    2.9408    2.0086 C   0  0  0  0  0  0  0  0  0  0  0  0
   -0.8248    3.0865    2.5024 H   0  0  0  0  0  0  0  0  0  0  0  0
    0.9347    3.2016    2.7161 H   0  0  0  0  0  0  0  0  0  0  0  0
    0.2064    3.6202    1.1522 H   0  0  0  0  0  0  0  0  0  0  0  0
  1  2  1  0  0  0  0
  2  3  1  0  0  0  0
  2  4  1  0  0  0  0
  2  5  1  0  0  0  0
  5  6  2  0  0  0  0
  5  7  1  0  0  0  0
  7  8  1  0  0  0  0
  7  9  1  0  0  0  0
  9 10  1  0  0  0  0
  9 11  1  0  0  0  0
  9 24  1  0  0  0  0
 11 12  1  0  0  0  0
 11 13  1  0  0  0  0
 11 14  1  0  0  0  0
 14 15  1  0  0  0  0
 14 16  1  0  0  0  0
 14 20  1  0  0  0  0
 16 17  1  0  0  0  0
 16 18  1  0  0  0  0
 16 19  1  0  0  0  0
 20 21  1  0  0  0  0
 20 22  1  0  0  0  0
 20 23  1  0  0  0  0
 24 25  2  0  0  0  0
 24 26  1  0  0  0  0
 26 27  1  0  0  0  0
 26 28  1  0  0  0  0
 28 29  1  0  0  0  0
 28 30  1  0  0  0  0
 28 31  1  0  0  0  0
M  END
$$$$

  -OEChem-03222214063D

 31 30  0     1  0  0  0  0  0999 V2000
   -3.3740   -3.9509    1.4285 H   0  0  0  0  0  0  0  0  0  0  0  0
   -3.3548   -2.9836    0.9188 C   0  0  0  0  0  0  0  0  0  0  0  0
   -4.0126   -2.2921    1.4511 H   0  0  0  0  0  0  0  0  0  0  0  0
   -3.7236   -3.1148   -0.1013 H   0  0  0  0  0  0  0  0  0  0  0  0
   -1.9401   -2.4366    0.8897 C   0  0  0  0  0  0  0  0  0  0  0  0
   -1.0235   -3.0892    1.3638 O   0  0  0  0  0  0  0  0  0  0  0  0
   -1.6968   -1.2028    0.3248 N   0  0  0  0  0  0  0  0  0  0  0  0
   -2.5012   -0.6598    0.0160 H   0  0  0  0  0  0  0  0  0  0  0  0
   -0.3959   -0.5220    0.3161 C   0  0  1  0  0  0  0  0  0  0  0  0
    0.2388   -0.9670    1.0892 H   0  0  0  0  0  0  0  0  0  0  0  0
    0.3520   -0.6687   -1.0297 C   0  0  0  0  0  0  0  0  0  0  0  0
    1.3256   -0.1784   -0.9247 H   0  0  0  0  0  0  0  0  0  0  0  0
    0.5459   -1.7365   -1.1787 H   0  0  0  0  0  0  0  0  0  0  0  0
   -0.3294   -0.1184   -2.3112 C   0  0  0  0  0  0  0  0  0  0  0  0
   -0.4609    0.9641   -2.2090 H   0  0  0  0  0  0  0  0  0  0  0  0
    0.6042   -0.3810   -3.5006 C   0  0  0  0  0  0  0  0  0  0  0  0
    0.7489   -1.4559   -3.6498 H   0  0  0  0  0  0  0  0  0  0  0  0
    0.1853    0.0435   -4.4184 H   0  0  0  0  0  0  0  0  0  0  0  0
    1.5813    0.0814   -3.3292 H   0  0  0  0  0  0  0  0  0  0  0  0
   -1.6966   -0.7408   -2.6316 C   0  0  0  0  0  0  0  0  0  0  0  0
   -2.4661   -0.3472   -1.9626 H   0  0  0  0  0  0  0  0  0  0  0  0
   -2.0005   -0.4955   -3.6540 H   0  0  0  0  0  0  0  0  0  0  0  0
   -1.6579   -1.8303   -2.5337 H   0  0  0  0  0  0  0  0  0  0  0  0
   -0.5659    0.9636    0.6933 C   0  0  0  0  0  0  0  0  0  0  0  0
   -1.5226    1.6019    0.2676 O   0  0  0  0  0  0  0  0  0  0  0  0
    0.2971    1.5591    1.5950 N   0  0  0  0  0  0  0  0  0  0  0  0
    1.0341    0.9832    1.9920 H   0  0  0  0  0  0  0  0  0  0  0  0
    0.1439    2.9308    2.0640 C   0  0  0  0  0  0  0  0  0  0  0  0
   -0.8182    3.0574    2.5716 H   0  0  0  0  0  0  0  0  0  0  0  0
    0.9428    3.1799    2.7692 H   0  0  0  0  0  0  0  0  0  0  0  0
    0.1940    3.6310    1.2235 H   0  0  0  0  0  0  0  0  0  0  0  0
  1  2  1  0  0  0  0
  2  3  1  0  0  0  0
  2  4  1  0  0  0  0
  2  5  1  0  0  0  0
  5  6  2  0  0  0  0
  5  7  1  0  0  0  0
  7  8  1  0  0  0  0
  7  9  1  0  0  0  0
  9 10  1  0  0  0  0
  9 11  1  0  0  0  0
  9 24  1  0  0  0  0
 11 12  1  0  0  0  0
 11 13  1  0  0  0  0
 11 14  1  0  0  0  0
 14 15  1  0  0  0  0
 14 16  1  0  0  0  0
 14 20  1  0  0  0  0
 16 17  1  0  0  0  0
 16 18  1  0  0  0  0
 16 19  1  0  0  0  0
 20 21  1  0  0  0  0
 20 22  1  0  0  0  0
 20 23  1  0  0  0  0
 24 25  2  0  0  0  0
 24 26  1  0  0  0  0
 26 27  1  0  0  0  0
 26 28  1  0  0  0  0
 28 29  1  0  0  0  0
 28 30  1  0  0  0  0
 28 31  1  0  0  0  0
M  END
$$$$

  -OEChem-03222214063D

 31 30  0     1  0  0  0  0  0999 V2000
   -3.3644   -3.9643    1.4459 H   0  0  0  0  0  0  0  0  0  0  0  0
   -3.3537   -2.9927    0.9442 C   0  0  0  0  0  0  0  0  0  0  0  0
   -4.0061   -2.3070    1.4902 H   0  0  0  0  0  0  0  0  0  0  0  0
   -3.7352   -3.1161   -0.0723 H   0  0  0  0  0  0  0  0  0  0  0  0
   -1.9415   -2.4406    0.9034 C   0  0  0  0  0  0  0  0  0  0  0  0
   -1.0172   -3.0917    1.3647 O   0  0  0  0  0  0  0  0  0  0  0  0
   -1.7105   -1.2016    0.3447 N   0  0  0  0  0  0  0  0  0  0  0  0
   -2.5207   -0.6619    0.0458 H   0  0  0  0  0  0  0  0  0  0  0  0
   -0.4124   -0.5147    0.3247 C   0  0  1  0  0  0  0  0  0  0  0  0
    0.2289   -0.9633    1.0901 H   0  0  0  0  0  0  0  0  0  0  0  0
    0.3308   -0.6500   -1.0252 C   0  0  0  0  0  0  0  0  0  0  0  0
    1.3101   -0.1708   -0.9251 H   0  0  0  0  0  0  0  0  0  0  0  0
    0.5132   -1.7209   -1.1663 H   0  0  0  0  0  0  0  0  0  0  0  0
   -0.3363   -0.1063   -2.3203 C   0  0  0  0  0  0  0  0  0  0  0  0
   -0.2355    0.9846   -2.3278 H   0  0  0  0  0  0  0  0  0  0  0  0
    0.4121   -0.6877   -3.5280 C   0  0  0  0  0  0  0  0  0  0  0  0
    0.2893   -1.7745   -3.5753 H   0  0  0  0  0  0  0  0  0  0  0  0
    0.0324   -0.2549   -4.4589 H   0  0  0  0  0  0  0  0  0  0  0  0
    1.4806   -0.4609   -3.4594 H   0  0  0  0  0  0  0  0  0  0  0  0
   -1.8243   -0.4418   -2.5036 C   0  0  0  0  0  0  0  0  0  0  0  0
   -2.4376    0.1092   -1.7860 H   0  0  0  0  0  0  0  0  0  0  0  0
   -2.1594   -0.1549   -3.5053 H   0  0  0  0  0  0  0  0  0  0  0  0
   -1.9973   -1.5151   -2.3771 H   0  0  0  0  0  0  0  0  0  0  0  0
   -0.5726    0.9691    0.7135 C   0  0  0  0  0  0  0  0  0  0  0  0
   -1.5308    1.6164    0.3061 O   0  0  0  0  0  0  0  0  0  0  0  0
    0.3061    1.5542    1.6068 N   0  0  0  0  0  0  0  0  0  0  0  0
    1.0469    0.9725    1.9878 H   0  0  0  0  0  0  0  0  0  0  0  0
    0.1659    2.9231    2.0880 C   0  0  0  0  0  0  0  0  0  0  0  0
   -0.7860    3.0486    2.6146 H   0  0  0  0  0  0  0  0  0  0  0  0
    0.9785    3.1662    2.7794 H   0  0  0  0  0  0  0  0  0  0  0  0
    0.2019    3.6286    1.2512 H   0  0  0  0  0  0  0  0  0  0  0  0
  1  2  1  0  0  0  0
  2  3  1  0  0  0  0
  2  4  1  0  0  0  0
  2  5  1  0  0  0  0
  5  6  2  0  0  0  0
  5  7  1  0  0  0  0
  7  8  1  0  0  0  0
  7  9  1  0  0  0  0
  9 10  1  0  0  0  0
  9 11  1  0  0  0  0
  9 24  1  0  0  0  0
 11 12  1  0  0  0  0
 11 13  1  0  0  0  0
 11 14  1  0  0  0  0
 14 15  1  0  0  0  0
 14 16  1  0  0  0  0
 14 20  1  0  0  0  0
 16 17  1  0  0  0  0
 16 18  1  0  0  0  0
 16 19  1  0  0  0  0
 20 21  1  0  0  0  0
 20 22  1  0  0  0  0
 20 23  1  0  0  0  0
 24 25  2  0  0  0  0
 24 26  1  0  0  0  0
 26 27  1  0  0  0  0
 26 28  1  0  0  0  0
 28 29  1  0  0  0  0
 28 30  1  0  0  0  0
 28 31  1  0  0  0  0
M  END
$$$$

  -OEChem-03222214063D

 31 30  0     1  0  0  0  0  0999 V2000
   -3.3357   -3.9669    1.4332 H   0  0  0  0  0  0  0  0  0  0  0  0
   -3.3458   -2.9864    0.9489 C   0  0  0  0  0  0  0  0  0  0  0  0
   -3.9952   -2.3186    1.5199 H   0  0  0  0  0  0  0  0  0  0  0  0
   -3.7457   -3.0965   -0.0619 H   0  0  0  0  0  0  0  0  0  0  0  0
   -1.9411   -2.4172    0.8893 C   0  0  0  0  0  0  0  0  0  0  0  0
   -0.9993   -3.0712    1.3091 O   0  0  0  0  0  0  0  0  0  0  0  0
   -1.7364   -1.1628    0.3549 N   0  0  0  0  0  0  0  0  0  0  0  0
   -2.5595   -0.6253    0.0893 H   0  0  0  0  0  0  0  0  0  0  0  0
   -0.4470   -0.4597    0.3225 C   0  0  1  0  0  0  0  0  0  0  0  0
    0.1969   -0.9155    1.0816 H   0  0  0  0  0  0  0  0  0  0  0  0
    0.3001   -0.6110   -1.0238 C   0  0  0  0  0  0  0  0  0  0  0  0
    1.2762   -0.1241   -0.9300 H   0  0  0  0  0  0  0  0  0  0  0  0
    0.4942   -1.6840   -1.1285 H   0  0  0  0  0  0  0  0  0  0  0  0
   -0.3493   -0.1118   -2.3500 C   0  0  0  0  0  0  0  0  0  0  0  0
   -0.0395    0.9266   -2.5101 H   0  0  0  0  0  0  0  0  0  0  0  0
    0.1630   -0.9855   -3.5053 C   0  0  0  0  0  0  0  0  0  0  0  0
   -0.1722   -2.0216   -3.3903 H   0  0  0  0  0  0  0  0  0  0  0  0
   -0.2037   -0.6077   -4.4651 H   0  0  0  0  0  0  0  0  0  0  0  0
    1.2571   -0.9752   -3.5325 H   0  0  0  0  0  0  0  0  0  0  0  0
   -1.8843   -0.1578   -2.4289 C   0  0  0  0  0  0  0  0  0  0  0  0
   -2.3390    0.5096   -1.6949 H   0  0  0  0  0  0  0  0  0  0  0  0
   -2.2212    0.1692   -3.4177 H   0  0  0  0  0  0  0  0  0  0  0  0
   -2.2520   -1.1752   -2.2636 H   0  0  0  0  0  0  0  0  0  0  0  0
   -0.5801    1.0188    0.7448 C   0  0  0  0  0  0  0  0  0  0  0  0
   -1.5582    1.6794    0.4158 O   0  0  0  0  0  0  0  0  0  0  0  0
    0.3336    1.5709    1.6245 N   0  0  0  0  0  0  0  0  0  0  0  0
    1.0850    0.9738    1.9577 H   0  0  0  0  0  0  0  0  0  0  0  0
    0.2111    2.9176    2.1693 C   0  0  0  0  0  0  0  0  0  0  0  0
   -0.7177    3.0171    2.7408 H   0  0  0  0  0  0  0  0  0  0  0  0
    1.0519    3.1331    2.8357 H   0  0  0  0  0  0  0  0  0  0  0  0
    0.2106    3.6587    1.3631 H   0  0  0  0  0  0  0  0  0  0  0  0
  1  2  1  0  0  0  0
  2  3  1  0  0  0  0
  2  4  1  0  0  0  0
  2  5  1  0  0  0  0
  5  6  2  0  0  0  0
  5  7  1  0  0  0  0
  7  8  1  0  0  0  0
  7  9  1  0  0  0  0
  9 10  1  0  0  0  0
  9 11  1  0  0  0  0
  9 24  1  0  0  0  0
 11 12  1  0  0  0  0
 11 13  1  0  0  0  0
 11 14  1  0  0  0  0
 14 15  1  0  0  0  0
 14 16  1  0  0  0  0
 14 20  1  0  0  0  0
 16 17  1  0  0  0  0
 16 18  1  0  0  0  0
 16 19  1  0  0  0  0
 20 21  1  0  0  0  0
 20 22  1  0  0  0  0
 20 23  1  0  0  0  0
 24 25  2  0  0  0  0
 24 26  1  0  0  0  0
 26 27  1  0  0  0  0
 26 28  1  0  0  0  0
 28 29  1  0  0  0  0
 28 30  1  0  0  0  0
 28 31  1  0  0  0  0
M  END
$$$$

  -OEChem-03222214063D

 31 30  0     1  0  0  0  0  0999 V2000
   -3.3033   -3.9584    1.4026 H   0  0  0  0  0  0  0  0  0  0  0  0
   -3.3358   -2.9614    0.9546 C   0  0  0  0  0  0  0  0  0  0  0  0
   -3.9642   -2.3172    1.5744 H   0  0  0  0  0  0  0  0  0  0  0  0
   -3.7753   -3.0375   -0.0428 H   0  0  0  0  0  0  0  0  0  0  0  0
   -1.9359   -2.3848    0.8599 C   0  0  0  0  0  0  0  0  0  0  0  0
   -0.9772   -3.0476    1.2246 O   0  0  0  0  0  0  0  0  0  0  0  0
   -1.7546   -1.1151    0.3531 N   0  0  0  0  0  0  0  0  0  0  0  0
   -2.5898   -0.5716    0.1426 H   0  0  0  0  0  0  0  0  0  0  0  0
   -0.4729   -0.3991    0.3089 C   0  0  1  0  0  0  0  0  0  0  0  0
    0.1706   -0.8601    1.0655 H   0  0  0  0  0  0  0  0  0  0  0  0
    0.2801   -0.5817   -1.0299 C   0  0  0  0  0  0  0  0  0  0  0  0
    1.2464   -0.0750   -0.9408 H   0  0  0  0  0  0  0  0  0  0  0  0
    0.5009   -1.6530   -1.0929 H   0  0  0  0  0  0  0  0  0  0  0  0
   -0.3517   -0.1364   -2.3864 C   0  0  0  0  0  0  0  0  0  0  0  0
    0.1674    0.7713   -2.7133 H   0  0  0  0  0  0  0  0  0  0  0  0
   -0.1279   -1.2455   -3.4262 C   0  0  0  0  0  0  0  0  0  0  0  0
   -0.6606   -2.1589   -3.1413 H   0  0  0  0  0  0  0  0  0  0  0  0
   -0.4850   -0.9279   -4.4109 H   0  0  0  0  0  0  0  0  0  0  0  0
    0.9385   -1.4772   -3.5113 H   0  0  0  0  0  0  0  0  0  0  0  0
   -1.8590    0.1669   -2.4025 C   0  0  0  0  0  0  0  0  0  0  0  0
   -2.1057    0.9947   -1.7385 H   0  0  0  0  0  0  0  0  0  0  0  0
   -2.1701    0.4588   -3.4104 H   0  0  0  0  0  0  0  0  0  0  0  0
   -2.4416   -0.7123   -2.1139 H   0  0  0  0  0  0  0  0  0  0  0  0
   -0.5853    1.0712    0.7677 C   0  0  0  0  0  0  0  0  0  0  0  0
   -1.6017    1.7208    0.5547 O   0  0  0  0  0  0  0  0  0  0  0  0
    0.3597    1.5926    1.6334 N   0  0  0  0  0  0  0  0  0  0  0  0
    1.1352    0.9920    1.8981 H   0  0  0  0  0  0  0  0  0  0  0  0
    0.2330    2.8978    2.2707 C   0  0  0  0  0  0  0  0  0  0  0  0
   -0.6530    2.9254    2.9138 H   0  0  0  0  0  0  0  0  0  0  0  0
    1.1139    3.1053    2.8859 H   0  0  0  0  0  0  0  0  0  0  0  0
    0.1462    3.6865    1.5158 H   0  0  0  0  0  0  0  0  0  0  0  0
  1  2  1  0  0  0  0
  2  3  1  0  0  0  0
  2  4  1  0  0  0  0
  2  5  1  0  0  0  0
  5  6  2  0  0  0  0
  5  7  1  0  0  0  0
  7  8  1  0  0  0  0
  7  9  1  0  0  0  0
  9 10  1  0  0  0  0
  9 11  1  0  0  0  0
  9 24  1  0  0  0  0
 11 12  1  0  0  0  0
 11 13  1  0  0  0  0
 11 14  1  0  0  0  0
 14 15  1  0  0  0  0
 14 16  1  0  0  0  0
 14 20  1  0  0  0  0
 16 17  1  0  0  0  0
 16 18  1  0  0  0  0
 16 19  1  0  0  0  0
 20 21  1  0  0  0  0
 20 22  1  0  0  0  0
 20 23  1  0  0  0  0
 24 25  2  0  0  0  0
 24 26  1  0  0  0  0
 26 27  1  0  0  0  0
 26 28  1  0  0  0  0
 28 29  1  0  0  0  0
 28 30  1  0  0  0  0
 28 31  1  0  0  0  0
M  END
$$$$

  -OEChem-03222214063D

 31 30  0     1  0  0  0  0  0999 V2000
   -3.2991   -3.9470    1.4032 H   0  0  0  0  0  0  0  0  0  0  0  0
   -3.3282   -2.9539    0.9459 C   0  0  0  0  0  0  0  0  0  0  0  0
   -3.9496   -2.3001    1.5627 H   0  0  0  0  0  0  0  0  0  0  0  0
   -3.7729   -3.0364   -0.0489 H   0  0  0  0  0  0  0  0  0  0  0  0
   -1.9258   -2.3856    0.8392 C   0  0  0  0  0  0  0  0  0  0  0  0
   -0.9673   -3.0562    1.1903 O   0  0  0  0  0  0  0  0  0  0  0  0
   -1.7425   -1.1126    0.3419 N   0  0  0  0  0  0  0  0  0  0  0  0
   -2.5772   -0.5589    0.1570 H   0  0  0  0  0  0  0  0  0  0  0  0
   -0.4588   -0.3991    0.3080 C   0  0  1  0  0  0  0  0  0  0  0  0
    0.1831   -0.8621    1.0648 H   0  0  0  0  0  0  0  0  0  0  0  0
    0.2840   -0.6024   -1.0332 C   0  0  0  0  0  0  0  0  0  0  0  0
    1.2415   -0.0783   -0.9475 H   0  0  0  0  0  0  0  0  0  0  0  0
    0.5265   -1.6693   -1.0898 H   0  0  0  0  0  0  0  0  0  0  0  0
   -0.3515   -0.1644   -2.3905 C   0  0  0  0  0  0  0  0  0  0  0  0
    0.3676    0.5069   -2.8723 H   0  0  0  0  0  0  0  0  0  0  0  0
   -0.4987   -1.3903   -3.3028 C   0  0  0  0  0  0  0  0  0  0  0  0
   -1.2072   -2.1049   -2.8712 H   0  0  0  0  0  0  0  0  0  0  0  0
   -0.8625   -1.0932   -4.2914 H   0  0  0  0  0  0  0  0  0  0  0  0
    0.4664   -1.8903   -3.4331 H   0  0  0  0  0  0  0  0  0  0  0  0
   -1.6872    0.5920   -2.3584 C   0  0  0  0  0  0  0  0  0  0  0  0
   -1.5640    1.5651   -1.8794 H   0  0  0  0  0  0  0  0  0  0  0  0
   -2.0362    0.7786   -3.3787 H   0  0  0  0  0  0  0  0  0  0  0  0
   -2.4628    0.0249   -1.8396 H   0  0  0  0  0  0  0  0  0  0  0  0
   -0.5825    1.0663    0.7792 C   0  0  0  0  0  0  0  0  0  0  0  0
   -1.6222    1.6914    0.6039 O   0  0  0  0  0  0  0  0  0  0  0  0
    0.3539    1.5865    1.6549 N   0  0  0  0  0  0  0  0  0  0  0  0
    1.1455    0.9985    1.8995 H   0  0  0  0  0  0  0  0  0  0  0  0
    0.2038    2.8758    2.3190 C   0  0  0  0  0  0  0  0  0  0  0  0
   -0.6852    2.8765    2.9583 H   0  0  0  0  0  0  0  0  0  0  0  0
    1.0783    3.0843    2.9425 H   0  0  0  0  0  0  0  0  0  0  0  0
    0.1077    3.6782    1.5800 H   0  0  0  0  0  0  0  0  0  0  0  0
  1  2  1  0  0  0  0
  2  3  1  0  0  0  0
  2  4  1  0  0  0  0
  2  5  1  0  0  0  0
  5  6  2  0  0  0  0
  5  7  1  0  0  0  0
  7  8  1  0  0  0  0
  7  9  1  0  0  0  0
  9 10  1  0  0  0  0
  9 11  1  0  0  0  0
  9 24  1  0  0  0  0
 11 12  1  0  0  0  0
 11 13  1  0  0  0  0
 11 14  1  0  0  0  0
 14 15  1  0  0  0  0
 14 16  1  0  0  0  0
 14 20  1  0  0  0  0
 16 17  1  0  0  0  0
 16 18  1  0  0  0  0
 16 19  1  0  0  0  0
 20 21  1  0  0  0  0
 20 22  1  0  0  0  0
 20 23  1  0  0  0  0
 24 25  2  0  0  0  0
 24 26  1  0  0  0  0
 26 27  1  0  0  0  0
 26 28  1  0  0  0  0
 28 29  1  0  0  0  0
 28 30  1  0  0  0  0
 28 31  1  0  0  0  0
M  END
$$$$

  -OEChem-03222214063D

 31 30  0     1  0  0  0  0  0999 V2000
   -3.3238   -3.9321    1.3349 H   0  0  0  0  0  0  0  0  0  0  0  0
   -3.3454   -2.9331    0.8905 C   0  0  0  0  0  0  0  0  0  0  0  0
   -3.9756   -2.2872    1.5067 H   0  0  0  0  0  0  0  0  0  0  0  0
   -3.7756   -3.0018   -0.1115 H   0  0  0  0  0  0  0  0  0  0  0  0
   -1.9409   -2.3651    0.8123 C   0  0  0  0  0  0  0  0  0  0  0  0
   -0.9896   -3.0369    1.1800 O   0  0  0  0  0  0  0  0  0  0  0  0
   -1.7468   -1.0907    0.3225 N   0  0  0  0  0  0  0  0  0  0  0  0
   -2.5769   -0.5365    0.1202 H   0  0  0  0  0  0  0  0  0  0  0  0
   -0.4610   -0.3796    0.3123 C   0  0  1  0  0  0  0  0  0  0  0  0
    0.1642   -0.8440    1.0818 H   0  0  0  0  0  0  0  0  0  0  0  0
    0.2990   -0.6102   -1.0152 C   0  0  0  0  0  0  0  0  0  0  0  0
    1.2473   -0.0702   -0.9270 H   0  0  0  0  0  0  0  0  0  0  0  0
    0.5569   -1.6737   -1.0630 H   0  0  0  0  0  0  0  0  0  0  0  0
   -0.3351   -0.1850   -2.3725 C   0  0  0  0  0  0  0  0  0  0  0  0
    0.4753    0.2362   -2.9773 H   0  0  0  0  0  0  0  0  0  0  0  0
   -0.8371   -1.4270   -3.1211 C   0  0  0  0  0  0  0  0  0  0  0  0
   -1.6348   -1.9183   -2.5552 H   0  0  0  0  0  0  0  0  0  0  0  0
   -1.2286   -1.1500   -4.1048 H   0  0  0  0  0  0  0  0  0  0  0  0
   -0.0230   -2.1431   -3.2701 H   0  0  0  0  0  0  0  0  0  0  0  0
   -1.4426    0.8734   -2.3340 C   0  0  0  0  0  0  0  0  0  0  0  0
   -1.0606    1.8082   -1.9151 H   0  0  0  0  0  0  0  0  0  0  0  0
   -1.7949    1.0866   -3.3480 H   0  0  0  0  0  0  0  0  0  0  0  0
   -2.2985    0.5343   -1.7448 H   0  0  0  0  0  0  0  0  0  0  0  0
   -0.5814    1.0861    0.7857 C   0  0  0  0  0  0  0  0  0  0  0  0
   -1.6155    1.7181    0.6017 O   0  0  0  0  0  0  0  0  0  0  0  0
    0.3461    1.5964    1.6765 N   0  0  0  0  0  0  0  0  0  0  0  0
    1.1294    1.0014    1.9303 H   0  0  0  0  0  0  0  0  0  0  0  0
    0.1983    2.8856    2.3413 C   0  0  0  0  0  0  0  0  0  0  0  0
   -0.6898    2.8865    2.9822 H   0  0  0  0  0  0  0  0  0  0  0  0
    1.0747    3.0928    2.9629 H   0  0  0  0  0  0  0  0  0  0  0  0
    0.1016    3.6882    1.6026 H   0  0  0  0  0  0  0  0  0  0  0  0
  1  2  1  0  0  0  0
  2  3  1  0  0  0  0
  2  4  1  0  0  0  0
  2  5  1  0  0  0  0
  5  6  2  0  0  0  0
  5  7  1  0  0  0  0
  7  8  1  0  0  0  0
  7  9  1  0  0  0  0
  9 10  1  0  0  0  0
  9 11  1  0  0  0  0
  9 24  1  0  0  0  0
 11 12  1  0  0  0  0
 11 13  1  0  0  0  0
 11 14  1  0  0  0  0
 14 15  1  0  0  0  0
 14 16  1  0  0  0  0
 14 20  1  0  0  0  0
 16 17  1  0  0  0  0
 16 18  1  0  0  0  0
 16 19  1  0  0  0  0
 20 21  1  0  0  0  0
 20 22  1  0  0  0  0
 20 23  1  0  0  0  0
 24 25  2  0  0  0  0
 24 26  1  0  0  0  0
 26 27  1  0  0  0  0
 26 28  1  0  0  0  0
 28 29  1  0  0  0  0
 28 30  1  0  0  0  0
 28 31  1  0  0  0  0
M  END
$$$$

  -OEChem-03222214063D

 31 30  0     1  0  0  0  0  0999 V2000
   -3.3148   -3.9427    1.3170 H   0  0  0  0  0  0  0  0  0  0  0  0
   -3.3390   -2.9400    0.8812 C   0  0  0  0  0  0  0  0  0  0  0  0
   -3.9718   -2.3011    1.5019 H   0  0  0  0  0  0  0  0  0  0  0  0
   -3.7671   -3.0014   -0.1222 H   0  0  0  0  0  0  0  0  0  0  0  0
   -1.9364   -2.3670    0.8090 C   0  0  0  0  0  0  0  0  0  0  0  0
   -0.9829   -3.0404    1.1680 O   0  0  0  0  0  0  0  0  0  0  0  0
   -1.7463   -1.0886    0.3282 N   0  0  0  0  0  0  0  0  0  0  0  0
   -2.5780   -0.5365    0.1263 H   0  0  0  0  0  0  0  0  0  0  0  0
   -0.4624   -0.3754    0.3139 C   0  0  1  0  0  0  0  0  0  0  0  0
    0.1644   -0.8435    1.0800 H   0  0  0  0  0  0  0  0  0  0  0  0
    0.3026   -0.5999   -1.0138 C   0  0  0  0  0  0  0  0  0  0  0  0
    1.2482   -0.0557   -0.9238 H   0  0  0  0  0  0  0  0  0  0  0  0
    0.5625   -1.6621   -1.0730 H   0  0  0  0  0  0  0  0  0  0  0  0
   -0.3334   -0.1747   -2.3666 C   0  0  0  0  0  0  0  0  0  0  0  0
    0.4994    0.0059   -3.0550 H   0  0  0  0  0  0  0  0  0  0  0  0
   -1.1575   -1.3241   -2.9634 C   0  0  0  0  0  0  0  0  0  0  0  0
   -2.0191   -1.5561   -2.3313 H   0  0  0  0  0  0  0  0  0  0  0  0
   -1.5242   -1.0515   -3.9579 H   0  0  0  0  0  0  0  0  0  0  0  0
   -0.5454   -2.2260   -3.0622 H   0  0  0  0  0  0  0  0  0  0  0  0
   -1.1759    1.1026   -2.3460 C   0  0  0  0  0  0  0  0  0  0  0  0
   -0.6113    1.9285   -1.9035 H   0  0  0  0  0  0  0  0  0  0  0  0
   -1.4479    1.3895   -3.3663 H   0  0  0  0  0  0  0  0  0  0  0  0
   -2.1004    0.9518   -1.7818 H   0  0  0  0  0  0  0  0  0  0  0  0
   -0.5816    1.0869    0.7998 C   0  0  0  0  0  0  0  0  0  0  0  0
   -1.6152    1.7216    0.6218 O   0  0  0  0  0  0  0  0  0  0  0  0
    0.3506    1.5943    1.6877 N   0  0  0  0  0  0  0  0  0  0  0  0
    1.1370    1.0000    1.9339 H   0  0  0  0  0  0  0  0  0  0  0  0
    0.2096    2.8854    2.3508 C   0  0  0  0  0  0  0  0  0  0  0  0
   -0.6727    2.8888    2.9993 H   0  0  0  0  0  0  0  0  0  0  0  0
    1.0914    3.0937    2.9641 H   0  0  0  0  0  0  0  0  0  0  0  0
    0.1072    3.6867    1.6113 H   0  0  0  0  0  0  0  0  0  0  0  0
  1  2  1  0  0  0  0
  2  3  1  0  0  0  0
  2  4  1  0  0  0  0
  2  5  1  0  0  0  0
  5  6  2  0  0  0  0
  5  7  1  0  0  0  0
  7  8  1  0  0  0  0
  7  9  1  0  0  0  0
  9 10  1  0  0  0  0
  9 11  1  0  0  0  0
  9 24  1  0  0  0  0
 11 12  1  0  0  0  0
 11 13  1  0  0  0  0
 11 14  1  0  0  0  0
 14 15  1  0  0  0  0
 14 16  1  0  0  0  0
 14 20  1  0  0  0  0
 16 17  1  0  0  0  0
 16 18  1  0  0  0  0
 16 19  1  0  0  0  0
 20 21  1  0  0  0  0
 20 22  1  0  0  0  0
 20 23  1  0  0  0  0
 24 25  2  0  0  0  0
 24 26  1  0  0  0  0
 26 27  1  0  0  0  0
 26 28  1  0  0  0  0
 28 29  1  0  0  0  0
 28 30  1  0  0  0  0
 28 31  1  0  0  0  0
M  END
$$$$

  -OEChem-03222214063D

 31 30  0     1  0  0  0  0  0999 V2000
   -3.3094   -3.9453    1.3611 H   0  0  0  0  0  0  0  0  0  0  0  0
   -3.3346   -2.9443    0.9213 C   0  0  0  0  0  0  0  0  0  0  0  0
   -3.9563   -2.2999    1.5477 H   0  0  0  0  0  0  0  0  0  0  0  0
   -3.7760   -3.0079   -0.0761 H   0  0  0  0  0  0  0  0  0  0  0  0
   -1.9302   -2.3785    0.8290 C   0  0  0  0  0  0  0  0  0  0  0  0
   -0.9764   -3.0529    1.1853 O   0  0  0  0  0  0  0  0  0  0  0  0
   -1.7390   -1.1044    0.3374 N   0  0  0  0  0  0  0  0  0  0  0  0
   -2.5700   -0.5485    0.1423 H   0  0  0  0  0  0  0  0  0  0  0  0
   -0.4535   -0.3952    0.3164 C   0  0  1  0  0  0  0  0  0  0  0  0
    0.1780   -0.8597    1.0806 H   0  0  0  0  0  0  0  0  0  0  0  0
    0.3094   -0.6027   -1.0158 C   0  0  0  0  0  0  0  0  0  0  0  0
    1.2644   -0.0759   -0.9214 H   0  0  0  0  0  0  0  0  0  0  0  0
    0.5478   -1.6691   -1.0925 H   0  0  0  0  0  0  0  0  0  0  0  0
   -0.3220   -0.1627   -2.3642 C   0  0  0  0  0  0  0  0  0  0  0  0
    0.4828   -0.2364   -3.1036 H   0  0  0  0  0  0  0  0  0  0  0  0
   -1.4323   -1.1159   -2.8271 C   0  0  0  0  0  0  0  0  0  0  0  0
   -2.3297   -1.0068   -2.2127 H   0  0  0  0  0  0  0  0  0  0  0  0
   -1.7035   -0.8984   -3.8648 H   0  0  0  0  0  0  0  0  0  0  0  0
   -1.0945   -2.1554   -2.7719 H   0  0  0  0  0  0  0  0  0  0  0  0
   -0.8262    1.2826   -2.4039 C   0  0  0  0  0  0  0  0  0  0  0  0
   -0.1009    1.9584   -1.9406 H   0  0  0  0  0  0  0  0  0  0  0  0
   -0.9726    1.5983   -3.4414 H   0  0  0  0  0  0  0  0  0  0  0  0
   -1.7851    1.3776   -1.8885 H   0  0  0  0  0  0  0  0  0  0  0  0
   -0.5867    1.0679    0.7931 C   0  0  0  0  0  0  0  0  0  0  0  0
   -1.6247    1.6914    0.6014 O   0  0  0  0  0  0  0  0  0  0  0  0
    0.3371    1.5908    1.6806 N   0  0  0  0  0  0  0  0  0  0  0  0
    1.1240    1.0027    1.9399 H   0  0  0  0  0  0  0  0  0  0  0  0
    0.1762    2.8811    2.3408 C   0  0  0  0  0  0  0  0  0  0  0  0
   -0.7069    2.8728    2.9882 H   0  0  0  0  0  0  0  0  0  0  0  0
    1.0538    3.1031    2.9554 H   0  0  0  0  0  0  0  0  0  0  0  0
    0.0636    3.6798    1.6001 H   0  0  0  0  0  0  0  0  0  0  0  0
  1  2  1  0  0  0  0
  2  3  1  0  0  0  0
  2  4  1  0  0  0  0
  2  5  1  0  0  0  0
  5  6  2  0  0  0  0
  5  7  1  0  0  0  0
  7  8  1  0  0  0  0
  7  9  1  0  0  0  0
  9 10  1  0  0  0  0
  9 11  1  0  0  0  0
  9 24  1  0  0  0  0
 11 12  1  0  0  0  0
 11 13  1  0  0  0  0
 11 14  1  0  0  0  0
 14 15  1  0  0  0  0
 14 16  1  0  0  0  0
 14 20  1  0  0  0  0
 16 17  1  0  0  0  0
 16 18  1  0  0  0  0
 16 19  1  0  0  0  0
 20 21  1  0  0  0  0
 20 22  1  0  0  0  0
 20 23  1  0  0  0  0
 24 25  2  0  0  0  0
 24 26  1  0  0  0  0
 26 27  1  0  0  0  0
 26 28  1  0  0  0  0
 28 29  1  0  0  0  0
 28 30  1  0  0  0  0
 28 31  1  0  0  0  0
M  END
$$$$

  -OEChem-03222214063D

 31 30  0     1  0  0  0  0  0999 V2000
   -3.3551   -3.9129    1.4235 H   0  0  0  0  0  0  0  0  0  0  0  0
   -3.3623   -2.9230    0.9587 C   0  0  0  0  0  0  0  0  0  0  0  0
   -3.9818   -2.2553    1.5624 H   0  0  0  0  0  0  0  0  0  0  0  0
   -3.7951   -3.0060   -0.0412 H   0  0  0  0  0  0  0  0  0  0  0  0
   -1.9495   -2.3779    0.8672 C   0  0  0  0  0  0  0  0  0  0  0  0
   -1.0079   -3.0556    1.2487 O   0  0  0  0  0  0  0  0  0  0  0  0
   -1.7362   -1.1185    0.3481 N   0  0  0  0  0  0  0  0  0  0  0  0
   -2.5576   -0.5548    0.1350 H   0  0  0  0  0  0  0  0  0  0  0  0
   -0.4419   -0.4249    0.3280 C   0  0  1  0  0  0  0  0  0  0  0  0
    0.1858   -0.8809    1.1008 H   0  0  0  0  0  0  0  0  0  0  0  0
    0.3247   -0.6264   -1.0036 C   0  0  0  0  0  0  0  0  0  0  0  0
    1.2977   -0.1352   -0.9009 H   0  0  0  0  0  0  0  0  0  0  0  0
    0.5247   -1.6996   -1.0925 H   0  0  0  0  0  0  0  0  0  0  0  0
   -0.2917   -0.1663   -2.3522 C   0  0  0  0  0  0  0  0  0  0  0  0
    0.4223   -0.4836   -3.1199 H   0  0  0  0  0  0  0  0  0  0  0  0
   -1.6277   -0.8423   -2.6850 C   0  0  0  0  0  0  0  0  0  0  0  0
   -2.4379   -0.4350   -2.0736 H   0  0  0  0  0  0  0  0  0  0  0  0
   -1.8815   -0.6742   -3.7363 H   0  0  0  0  0  0  0  0  0  0  0  0
   -1.5639   -1.9216   -2.5150 H   0  0  0  0  0  0  0  0  0  0  0  0
   -0.4247    1.3557   -2.4828 C   0  0  0  0  0  0  0  0  0  0  0  0
    0.4652    1.8573   -2.0904 H   0  0  0  0  0  0  0  0  0  0  0  0
   -1.3029    1.7258   -1.9498 H   0  0  0  0  0  0  0  0  0  0  0  0
   -0.5360    1.6301   -3.5363 H   0  0  0  0  0  0  0  0  0  0  0  0
   -0.5912    1.0458    0.7708 C   0  0  0  0  0  0  0  0  0  0  0  0
   -1.6257    1.6604    0.5339 O   0  0  0  0  0  0  0  0  0  0  0  0
    0.3121    1.5933    1.6643 N   0  0  0  0  0  0  0  0  0  0  0  0
    1.0959    1.0152    1.9538 H   0  0  0  0  0  0  0  0  0  0  0  0
    0.1322    2.8987    2.2880 C   0  0  0  0  0  0  0  0  0  0  0  0
   -0.7764    2.9095    2.8992 H   0  0  0  0  0  0  0  0  0  0  0  0
    0.9858    3.1311    2.9322 H   0  0  0  0  0  0  0  0  0  0  0  0
    0.0528    3.6799    1.5248 H   0  0  0  0  0  0  0  0  0  0  0  0
  1  2  1  0  0  0  0
  2  3  1  0  0  0  0
  2  4  1  0  0  0  0
  2  5  1  0  0  0  0
  5  6  2  0  0  0  0
  5  7  1  0  0  0  0
  7  8  1  0  0  0  0
  7  9  1  0  0  0  0
  9 10  1  0  0  0  0
  9 11  1  0  0  0  0
  9 24  1  0  0  0  0
 11 12  1  0  0  0  0
 11 13  1  0  0  0  0
 11 14  1  0  0  0  0
 14 15  1  0  0  0  0
 14 16  1  0  0  0  0
 14 20  1  0  0  0  0
 16 17  1  0  0  0  0
 16 18  1  0  0  0  0
 16 19  1  0  0  0  0
 20 21  1  0  0  0  0
 20 22  1  0  0  0  0
 20 23  1  0  0  0  0
 24 25  2  0  0  0  0
 24 26  1  0  0  0  0
 26 27  1  0  0  0  0
 26 28  1  0  0  0  0
 28 29  1  0  0  0  0
 28 30  1  0  0  0  0
 28 31  1  0  0  0  0
M  END
$$$$

  -OEChem-03222214063D

 31 30  0     1  0  0  0  0  0999 V2000
   -3.3431   -3.9393    1.4388 H   0  0  0  0  0  0  0  0  0  0  0  0
   -3.3452   -2.9577    0.9568 C   0  0  0  0  0  0  0  0  0  0  0  0
   -3.9693   -2.2790    1.5432 H   0  0  0  0  0  0  0  0  0  0  0  0
   -3.7690   -3.0570   -0.0455 H   0  0  0  0  0  0  0  0  0  0  0  0
   -1.9316   -2.4148    0.8681 C   0  0  0  0  0  0  0  0  0  0  0  0
   -0.9923   -3.0890    1.2610 O   0  0  0  0  0  0  0  0  0  0  0  0
   -1.7166   -1.1569    0.3462 N   0  0  0  0  0  0  0  0  0  0  0  0
   -2.5367   -0.5952    0.1226 H   0  0  0  0  0  0  0  0  0  0  0  0
   -0.4209   -0.4649    0.3272 C   0  0  1  0  0  0  0  0  0  0  0  0
    0.2171   -0.9244    1.0892 H   0  0  0  0  0  0  0  0  0  0  0  0
    0.3324   -0.6209   -1.0190 C   0  0  0  0  0  0  0  0  0  0  0  0
    1.3182   -0.1581   -0.9085 H   0  0  0  0  0  0  0  0  0  0  0  0
    0.5061   -1.6949   -1.1456 H   0  0  0  0  0  0  0  0  0  0  0  0
   -0.2937   -0.1147   -2.3498 C   0  0  0  0  0  0  0  0  0  0  0  0
    0.2662   -0.6091   -3.1512 H   0  0  0  0  0  0  0  0  0  0  0  0
   -1.7710   -0.4695   -2.5554 C   0  0  0  0  0  0  0  0  0  0  0  0
   -2.4103    0.1000   -1.8743 H   0  0  0  0  0  0  0  0  0  0  0  0
   -2.0742   -0.2328   -3.5799 H   0  0  0  0  0  0  0  0  0  0  0  0
   -1.9337   -1.5389   -2.3905 H   0  0  0  0  0  0  0  0  0  0  0  0
   -0.0966    1.3954   -2.5452 C   0  0  0  0  0  0  0  0  0  0  0  0
    0.9479    1.6735   -2.3747 H   0  0  0  0  0  0  0  0  0  0  0  0
   -0.3610    1.6771   -3.5693 H   0  0  0  0  0  0  0  0  0  0  0  0
   -0.7261    1.9735   -1.8660 H   0  0  0  0  0  0  0  0  0  0  0  0
   -0.5896    1.0032    0.7690 C   0  0  0  0  0  0  0  0  0  0  0  0
   -1.6159    1.6158    0.4928 O   0  0  0  0  0  0  0  0  0  0  0  0
    0.2996    1.5641    1.6677 N   0  0  0  0  0  0  0  0  0  0  0  0
    1.0809    0.9920    1.9752 H   0  0  0  0  0  0  0  0  0  0  0  0
    0.1141    2.8823    2.2620 C   0  0  0  0  0  0  0  0  0  0  0  0
   -0.8175    2.9169    2.8364 H   0  0  0  0  0  0  0  0  0  0  0  0
    0.9443    3.1132    2.9363 H   0  0  0  0  0  0  0  0  0  0  0  0
    0.0773    3.6512    1.4833 H   0  0  0  0  0  0  0  0  0  0  0  0
  1  2  1  0  0  0  0
  2  3  1  0  0  0  0
  2  4  1  0  0  0  0
  2  5  1  0  0  0  0
  5  6  2  0  0  0  0
  5  7  1  0  0  0  0
  7  8  1  0  0  0  0
  7  9  1  0  0  0  0
  9 10  1  0  0  0  0
  9 11  1  0  0  0  0
  9 24  1  0  0  0  0
 11 12  1  0  0  0  0
 11 13  1  0  0  0  0
 11 14  1  0  0  0  0
 14 15  1  0  0  0  0
 14 16  1  0  0  0  0
 14 20  1  0  0  0  0
 16 17  1  0  0  0  0
 16 18  1  0  0  0  0
 16 19  1  0  0  0  0
 20 21  1  0  0  0  0
 20 22  1  0  0  0  0
 20 23  1  0  0  0  0
 24 25  2  0  0  0  0
 24 26  1  0  0  0  0
 26 27  1  0  0  0  0
 26 28  1  0  0  0  0
 28 29  1  0  0  0  0
 28 30  1  0  0  0  0
 28 31  1  0  0  0  0
M  END
$$$$

  -OEChem-03222214063D

 31 30  0     1  0  0  0  0  0999 V2000
   -3.3394   -3.9652    1.3960 H   0  0  0  0  0  0  0  0  0  0  0  0
   -3.3471   -2.9754    0.9313 C   0  0  0  0  0  0  0  0  0  0  0  0
   -3.9881   -2.3149    1.5201 H   0  0  0  0  0  0  0  0  0  0  0  0
   -3.7552   -3.0630   -0.0785 H   0  0  0  0  0  0  0  0  0  0  0  0
   -1.9391   -2.4137    0.8731 C   0  0  0  0  0  0  0  0  0  0  0  0
   -1.0000   -3.0750    1.2876 O   0  0  0  0  0  0  0  0  0  0  0  0
   -1.7278   -1.1563    0.3483 N   0  0  0  0  0  0  0  0  0  0  0  0
   -2.5489   -0.6112    0.0913 H   0  0  0  0  0  0  0  0  0  0  0  0
   -0.4378   -0.4530    0.3349 C   0  0  1  0  0  0  0  0  0  0  0  0
    0.1939   -0.9092    1.1038 H   0  0  0  0  0  0  0  0  0  0  0  0
    0.3312   -0.6132   -1.0001 C   0  0  0  0  0  0  0  0  0  0  0  0
    1.3177   -0.1540   -0.8799 H   0  0  0  0  0  0  0  0  0  0  0  0
    0.5057   -1.6882   -1.1150 H   0  0  0  0  0  0  0  0  0  0  0  0
   -0.2875   -0.1253   -2.3442 C   0  0  0  0  0  0  0  0  0  0  0  0
    0.1133   -0.7704   -3.1335 H   0  0  0  0  0  0  0  0  0  0  0  0
   -1.8189   -0.1638   -2.4524 C   0  0  0  0  0  0  0  0  0  0  0  0
   -2.2905    0.5208   -1.7437 H   0  0  0  0  0  0  0  0  0  0  0  0
   -2.1307    0.1293   -3.4596 H   0  0  0  0  0  0  0  0  0  0  0  0
   -2.1868   -1.1778   -2.2707 H   0  0  0  0  0  0  0  0  0  0  0  0
    0.1753    1.3081   -2.6448 C   0  0  0  0  0  0  0  0  0  0  0  0
    1.2679    1.3664   -2.6540 H   0  0  0  0  0  0  0  0  0  0  0  0
   -0.1883    1.6266   -3.6268 H   0  0  0  0  0  0  0  0  0  0  0  0
   -0.2041    2.0086   -1.8955 H   0  0  0  0  0  0  0  0  0  0  0  0
   -0.5866    1.0217    0.7652 C   0  0  0  0  0  0  0  0  0  0  0  0
   -1.5803    1.6668    0.4506 O   0  0  0  0  0  0  0  0  0  0  0  0
    0.3114    1.5745    1.6606 N   0  0  0  0  0  0  0  0  0  0  0  0
    1.0706    0.9845    1.9890 H   0  0  0  0  0  0  0  0  0  0  0  0
    0.1606    2.9089    2.2283 C   0  0  0  0  0  0  0  0  0  0  0  0
   -0.7640    2.9751    2.8113 H   0  0  0  0  0  0  0  0  0  0  0  0
    1.0031    3.1360    2.8887 H   0  0  0  0  0  0  0  0  0  0  0  0
    0.1318    3.6625    1.4342 H   0  0  0  0  0  0  0  0  0  0  0  0
  1  2  1  0  0  0  0
  2  3  1  0  0  0  0
  2  4  1  0  0  0  0
  2  5  1  0  0  0  0
  5  6  2  0  0  0  0
  5  7  1  0  0  0  0
  7  8  1  0  0  0  0
  7  9  1  0  0  0  0
  9 10  1  0  0  0  0
  9 11  1  0  0  0  0
  9 24  1  0  0  0  0
 11 12  1  0  0  0  0
 11 13  1  0  0  0  0
 11 14  1  0  0  0  0
 14 15  1  0  0  0  0
 14 16  1  0  0  0  0
 14 20  1  0  0  0  0
 16 17  1  0  0  0  0
 16 18  1  0  0  0  0
 16 19  1  0  0  0  0
 20 21  1  0  0  0  0
 20 22  1  0  0  0  0
 20 23  1  0  0  0  0
 24 25  2  0  0  0  0
 24 26  1  0  0  0  0
 26 27  1  0  0  0  0
 26 28  1  0  0  0  0
 28 29  1  0  0  0  0
 28 30  1  0  0  0  0
 28 31  1  0  0  0  0
M  END
$$$$

  -OEChem-03222214063D

 31 30  0     1  0  0  0  0  0999 V2000
   -3.3151   -3.9646    1.3940 H   0  0  0  0  0  0  0  0  0  0  0  0
   -3.3383   -2.9729    0.9335 C   0  0  0  0  0  0  0  0  0  0  0  0
   -3.9761   -2.3204    1.5348 H   0  0  0  0  0  0  0  0  0  0  0  0
   -3.7607   -3.0599   -0.0705 H   0  0  0  0  0  0  0  0  0  0  0  0
   -1.9361   -2.3992    0.8563 C   0  0  0  0  0  0  0  0  0  0  0  0
   -0.9844   -3.0611    1.2401 O   0  0  0  0  0  0  0  0  0  0  0  0
   -1.7446   -1.1318    0.3477 N   0  0  0  0  0  0  0  0  0  0  0  0
   -2.5753   -0.5875    0.1220 H   0  0  0  0  0  0  0  0  0  0  0  0
   -0.4623   -0.4157    0.3282 C   0  0  1  0  0  0  0  0  0  0  0  0
    0.1675   -0.8744    1.0975 H   0  0  0  0  0  0  0  0  0  0  0  0
    0.3170   -0.5919   -0.9968 C   0  0  0  0  0  0  0  0  0  0  0  0
    1.2977   -0.1225   -0.8681 H   0  0  0  0  0  0  0  0  0  0  0  0
    0.5061   -1.6669   -1.0882 H   0  0  0  0  0  0  0  0  0  0  0  0
   -0.2887   -0.1412   -2.3625 C   0  0  0  0  0  0  0  0  0  0  0  0
   -0.0822   -0.9354   -3.0882 H   0  0  0  0  0  0  0  0  0  0  0  0
   -1.7968    0.1483   -2.4164 C   0  0  0  0  0  0  0  0  0  0  0  0
   -2.0724    0.9888   -1.7789 H   0  0  0  0  0  0  0  0  0  0  0  0
   -2.0909    0.3993   -3.4402 H   0  0  0  0  0  0  0  0  0  0  0  0
   -2.3689   -0.7342   -2.1195 H   0  0  0  0  0  0  0  0  0  0  0  0
    0.4371    1.1265   -2.8374 C   0  0  0  0  0  0  0  0  0  0  0  0
    1.5125    0.9438   -2.9274 H   0  0  0  0  0  0  0  0  0  0  0  0
    0.0652    1.4377   -3.8188 H   0  0  0  0  0  0  0  0  0  0  0  0
    0.2795    1.9478   -2.1305 H   0  0  0  0  0  0  0  0  0  0  0  0
   -0.5907    1.0559    0.7788 C   0  0  0  0  0  0  0  0  0  0  0  0
   -1.6018    1.7026    0.5332 O   0  0  0  0  0  0  0  0  0  0  0  0
    0.3308    1.5869    1.6638 N   0  0  0  0  0  0  0  0  0  0  0  0
    1.1028    0.9922    1.9513 H   0  0  0  0  0  0  0  0  0  0  0  0
    0.1916    2.9035    2.2744 C   0  0  0  0  0  0  0  0  0  0  0  0
   -0.7170    2.9492    2.8839 H   0  0  0  0  0  0  0  0  0  0  0  0
    1.0509    3.1147    2.9179 H   0  0  0  0  0  0  0  0  0  0  0  0
    0.1387    3.6794    1.5035 H   0  0  0  0  0  0  0  0  0  0  0  0
  1  2  1  0  0  0  0
  2  3  1  0  0  0  0
  2  4  1  0  0  0  0
  2  5  1  0  0  0  0
  5  6  2  0  0  0  0
  5  7  1  0  0  0  0
  7  8  1  0  0  0  0
  7  9  1  0  0  0  0
  9 10  1  0  0  0  0
  9 11  1  0  0  0  0
  9 24  1  0  0  0  0
 11 12  1  0  0  0  0
 11 13  1  0  0  0  0
 11 14  1  0  0  0  0
 14 15  1  0  0  0  0
 14 16  1  0  0  0  0
 14 20  1  0  0  0  0
 16 17  1  0  0  0  0
 16 18  1  0  0  0  0
 16 19  1  0  0  0  0
 20 21  1  0  0  0  0
 20 22  1  0  0  0  0
 20 23  1  0  0  0  0
 24 25  2  0  0  0  0
 24 26  1  0  0  0  0
 26 27  1  0  0  0  0
 26 28  1  0  0  0  0
 28 29  1  0  0  0  0
 28 30  1  0  0  0  0
 28 31  1  0  0  0  0
M  END
$$$$

  -OEChem-03222214063D

 31 30  0     1  0  0  0  0  0999 V2000
   -3.3030   -3.9585    1.3571 H   0  0  0  0  0  0  0  0  0  0  0  0
   -3.3305   -2.9518    0.9309 C   0  0  0  0  0  0  0  0  0  0  0  0
   -3.9472   -2.3153    1.5700 H   0  0  0  0  0  0  0  0  0  0  0  0
   -3.7796   -3.0020   -0.0640 H   0  0  0  0  0  0  0  0  0  0  0  0
   -1.9265   -2.3852    0.8363 C   0  0  0  0  0  0  0  0  0  0  0  0
   -0.9722   -3.0547    1.2001 O   0  0  0  0  0  0  0  0  0  0  0  0
   -1.7372   -1.1131    0.3389 N   0  0  0  0  0  0  0  0  0  0  0  0
   -2.5698   -0.5585    0.1475 H   0  0  0  0  0  0  0  0  0  0  0  0
   -0.4542   -0.3980    0.3222 C   0  0  1  0  0  0  0  0  0  0  0  0
    0.1775   -0.8609    1.0873 H   0  0  0  0  0  0  0  0  0  0  0  0
    0.3147   -0.5814   -1.0074 C   0  0  0  0  0  0  0  0  0  0  0  0
    1.2847   -0.0905   -0.8766 H   0  0  0  0  0  0  0  0  0  0  0  0
    0.5265   -1.6523   -1.0968 H   0  0  0  0  0  0  0  0  0  0  0  0
   -0.2926   -0.1321   -2.3740 C   0  0  0  0  0  0  0  0  0  0  0  0
   -0.3661   -1.0330   -2.9930 H   0  0  0  0  0  0  0  0  0  0  0  0
   -1.6893    0.5064   -2.3773 C   0  0  0  0  0  0  0  0  0  0  0  0
   -1.6776    1.4809   -1.8851 H   0  0  0  0  0  0  0  0  0  0  0  0
   -2.0209    0.6625   -3.4085 H   0  0  0  0  0  0  0  0  0  0  0  0
   -2.4260   -0.1376   -1.8937 H   0  0  0  0  0  0  0  0  0  0  0  0
    0.6739    0.8339   -3.0739 C   0  0  0  0  0  0  0  0  0  0  0  0
    1.6576    0.3697   -3.1964 H   0  0  0  0  0  0  0  0  0  0  0  0
    0.2984    1.1002   -4.0670 H   0  0  0  0  0  0  0  0  0  0  0  0
    0.7903    1.7521   -2.4891 H   0  0  0  0  0  0  0  0  0  0  0  0
   -0.5911    1.0676    0.7890 C   0  0  0  0  0  0  0  0  0  0  0  0
   -1.6283    1.6899    0.5914 O   0  0  0  0  0  0  0  0  0  0  0  0
    0.3292    1.5937    1.6783 N   0  0  0  0  0  0  0  0  0  0  0  0
    1.1172    1.0079    1.9392 H   0  0  0  0  0  0  0  0  0  0  0  0
    0.1667    2.8866    2.3328 C   0  0  0  0  0  0  0  0  0  0  0  0
   -0.7128    2.8777    2.9850 H   0  0  0  0  0  0  0  0  0  0  0  0
    1.0471    3.1155    2.9410 H   0  0  0  0  0  0  0  0  0  0  0  0
    0.0460    3.6811    1.5889 H   0  0  0  0  0  0  0  0  0  0  0  0
  1  2  1  0  0  0  0
  2  3  1  0  0  0  0
  2  4  1  0  0  0  0
  2  5  1  0  0  0  0
  5  6  2  0  0  0  0
  5  7  1  0  0  0  0
  7  8  1  0  0  0  0
  7  9  1  0  0  0  0
  9 10  1  0  0  0  0
  9 11  1  0  0  0  0
  9 24  1  0  0  0  0
 11 12  1  0  0  0  0
 11 13  1  0  0  0  0
 11 14  1  0  0  0  0
 14 15  1  0  0  0  0
 14 16  1  0  0  0  0
 14 20  1  0  0  0  0
 16 17  1  0  0  0  0
 16 18  1  0  0  0  0
 16 19  1  0  0  0  0
 20 21  1  0  0  0  0
 20 22  1  0  0  0  0
 20 23  1  0  0  0  0
 24 25  2  0  0  0  0
 24 26  1  0  0  0  0
 26 27  1  0  0  0  0
 26 28  1  0  0  0  0
 28 29  1  0  0  0  0
 28 30  1  0  0  0  0
 28 31  1  0  0  0  0
M  END
$$$$

  -OEChem-03222214063D

 31 30  0     1  0  0  0  0  0999 V2000
   -3.3097   -3.9314    1.3149 H   0  0  0  0  0  0  0  0  0  0  0  0
   -3.3313   -2.9295    0.8772 C   0  0  0  0  0  0  0  0  0  0  0  0
   -3.9555   -2.2859    1.5018 H   0  0  0  0  0  0  0  0  0  0  0  0
   -3.7679   -2.9902   -0.1226 H   0  0  0  0  0  0  0  0  0  0  0  0
   -1.9259   -2.3649    0.7939 C   0  0  0  0  0  0  0  0  0  0  0  0
   -0.9747   -3.0378    1.1597 O   0  0  0  0  0  0  0  0  0  0  0  0
   -1.7318   -1.0889    0.3086 N   0  0  0  0  0  0  0  0  0  0  0  0
   -2.5630   -0.5334    0.1138 H   0  0  0  0  0  0  0  0  0  0  0  0
   -0.4492   -0.3717    0.3155 C   0  0  1  0  0  0  0  0  0  0  0  0
    0.1711   -0.8370    1.0885 H   0  0  0  0  0  0  0  0  0  0  0  0
    0.3285   -0.5769   -1.0054 C   0  0  0  0  0  0  0  0  0  0  0  0
    1.2834   -0.0568   -0.8771 H   0  0  0  0  0  0  0  0  0  0  0  0
    0.5658   -1.6434   -1.0835 H   0  0  0  0  0  0  0  0  0  0  0  0
   -0.2830   -0.1387   -2.3699 C   0  0  0  0  0  0  0  0  0  0  0  0
   -0.6330   -1.0557   -2.8564 H   0  0  0  0  0  0  0  0  0  0  0  0
   -1.4909    0.8062   -2.3422 C   0  0  0  0  0  0  0  0  0  0  0  0
   -1.2084    1.7822   -1.9379 H   0  0  0  0  0  0  0  0  0  0  0  0
   -1.8663    0.9610   -3.3586 H   0  0  0  0  0  0  0  0  0  0  0  0
   -2.3097    0.3930   -1.7494 H   0  0  0  0  0  0  0  0  0  0  0  0
    0.8077    0.4736   -3.2583 C   0  0  0  0  0  0  0  0  0  0  0  0
    1.6509   -0.2170   -3.3590 H   0  0  0  0  0  0  0  0  0  0  0  0
    0.4146    0.6805   -4.2587 H   0  0  0  0  0  0  0  0  0  0  0  0
    1.1734    1.4121   -2.8291 H   0  0  0  0  0  0  0  0  0  0  0  0
   -0.5868    1.0918    0.7904 C   0  0  0  0  0  0  0  0  0  0  0  0
   -1.6235    1.7155    0.5930 O   0  0  0  0  0  0  0  0  0  0  0  0
    0.3249    1.6070    1.6949 N   0  0  0  0  0  0  0  0  0  0  0  0
    1.1093    1.0172    1.9580 H   0  0  0  0  0  0  0  0  0  0  0  0
    0.1531    2.8893    2.3674 C   0  0  0  0  0  0  0  0  0  0  0  0
   -0.7447    2.8759    2.9941 H   0  0  0  0  0  0  0  0  0  0  0  0
    1.0169    3.1008    3.0047 H   0  0  0  0  0  0  0  0  0  0  0  0
    0.0594    3.6972    1.6342 H   0  0  0  0  0  0  0  0  0  0  0  0
  1  2  1  0  0  0  0
  2  3  1  0  0  0  0
  2  4  1  0  0  0  0
  2  5  1  0  0  0  0
  5  6  2  0  0  0  0
  5  7  1  0  0  0  0
  7  8  1  0  0  0  0
  7  9  1  0  0  0  0
  9 10  1  0  0  0  0
  9 11  1  0  0  0  0
  9 24  1  0  0  0  0
 11 12  1  0  0  0  0
 11 13  1  0  0  0  0
 11 14  1  0  0  0  0
 14 15  1  0  0  0  0
 14 16  1  0  0  0  0
 14 20  1  0  0  0  0
 16 17  1  0  0  0  0
 16 18  1  0  0  0  0
 16 19  1  0  0  0  0
 20 21  1  0  0  0  0
 20 22  1  0  0  0  0
 20 23  1  0  0  0  0
 24 25  2  0  0  0  0
 24 26  1  0  0  0  0
 26 27  1  0  0  0  0
 26 28  1  0  0  0  0
 28 29  1  0  0  0  0
 28 30  1  0  0  0  0
 28 31  1  0  0  0  0
M  END
$$$$

  -OEChem-03222214063D

 31 30  0     1  0  0  0  0  0999 V2000
   -3.2950   -3.9345    1.2528 H   0  0  0  0  0  0  0  0  0  0  0  0
   -3.3209   -2.9283    0.8253 C   0  0  0  0  0  0  0  0  0  0  0  0
   -3.9547   -2.2956    1.4515 H   0  0  0  0  0  0  0  0  0  0  0  0
   -3.7497   -2.9824   -0.1782 H   0  0  0  0  0  0  0  0  0  0  0  0
   -1.9190   -2.3524    0.7586 C   0  0  0  0  0  0  0  0  0  0  0  0
   -0.9658   -3.0234    1.1227 O   0  0  0  0  0  0  0  0  0  0  0  0
   -1.7299   -1.0707    0.2859 N   0  0  0  0  0  0  0  0  0  0  0  0
   -2.5632   -0.5192    0.0887 H   0  0  0  0  0  0  0  0  0  0  0  0
   -0.4503   -0.3485    0.3005 C   0  0  1  0  0  0  0  0  0  0  0  0
    0.1642   -0.8166    1.0764 H   0  0  0  0  0  0  0  0  0  0  0  0
    0.3337   -0.5722   -1.0132 C   0  0  0  0  0  0  0  0  0  0  0  0
    1.2833   -0.0391   -0.8978 H   0  0  0  0  0  0  0  0  0  0  0  0
    0.5770   -1.6379   -1.0814 H   0  0  0  0  0  0  0  0  0  0  0  0
   -0.2928   -0.1485   -2.3699 C   0  0  0  0  0  0  0  0  0  0  0  0
   -0.8765   -1.0033   -2.7284 H   0  0  0  0  0  0  0  0  0  0  0  0
   -1.2528    1.0445   -2.3451 C   0  0  0  0  0  0  0  0  0  0  0  0
   -0.7577    1.9321   -1.9400 H   0  0  0  0  0  0  0  0  0  0  0  0
   -1.5930    1.2775   -3.3588 H   0  0  0  0  0  0  0  0  0  0  0  0
   -2.1386    0.8173   -1.7464 H   0  0  0  0  0  0  0  0  0  0  0  0
    0.8242    0.1185   -3.3863 C   0  0  0  0  0  0  0  0  0  0  0  0
    1.4930   -0.7454   -3.4536 H   0  0  0  0  0  0  0  0  0  0  0  0
    0.4022    0.3017   -4.3795 H   0  0  0  0  0  0  0  0  0  0  0  0
    1.4126    0.9938   -3.0928 H   0  0  0  0  0  0  0  0  0  0  0  0
   -0.5786    1.1126    0.7879 C   0  0  0  0  0  0  0  0  0  0  0  0
   -1.6141    1.7430    0.6062 O   0  0  0  0  0  0  0  0  0  0  0  0
    0.3393    1.6138    1.6940 N   0  0  0  0  0  0  0  0  0  0  0  0
    1.1279    1.0222    1.9393 H   0  0  0  0  0  0  0  0  0  0  0  0
    0.1789    2.8908    2.3791 C   0  0  0  0  0  0  0  0  0  0  0  0
   -0.7141    2.8762    3.0127 H   0  0  0  0  0  0  0  0  0  0  0  0
    1.0489    3.0925    3.0114 H   0  0  0  0  0  0  0  0  0  0  0  0
    0.0833    3.7055    1.6536 H   0  0  0  0  0  0  0  0  0  0  0  0
  1  2  1  0  0  0  0
  2  3  1  0  0  0  0
  2  4  1  0  0  0  0
  2  5  1  0  0  0  0
  5  6  2  0  0  0  0
  5  7  1  0  0  0  0
  7  8  1  0  0  0  0
  7  9  1  0  0  0  0
  9 10  1  0  0  0  0
  9 11  1  0  0  0  0
  9 24  1  0  0  0  0
 11 12  1  0  0  0  0
 11 13  1  0  0  0  0
 11 14  1  0  0  0  0
 14 15  1  0  0  0  0
 14 16  1  0  0  0  0
 14 20  1  0  0  0  0
 16 17  1  0  0  0  0
 16 18  1  0  0  0  0
 16 19  1  0  0  0  0
 20 21  1  0  0  0  0
 20 22  1  0  0  0  0
 20 23  1  0  0  0  0
 24 25  2  0  0  0  0
 24 26  1  0  0  0  0
 26 27  1  0  0  0  0
 26 28  1  0  0  0  0
 28 29  1  0  0  0  0
 28 30  1  0  0  0  0
 28 31  1  0  0  0  0
M  END
$$$$

  -OEChem-03222214063D

 31 30  0     1  0  0  0  0  0999 V2000
   -3.3025   -3.9276    1.2336 H   0  0  0  0  0  0  0  0  0  0  0  0
   -3.3255   -2.9210    0.8067 C   0  0  0  0  0  0  0  0  0  0  0  0
   -3.9603   -2.2879    1.4315 H   0  0  0  0  0  0  0  0  0  0  0  0
   -3.7514   -2.9741   -0.1980 H   0  0  0  0  0  0  0  0  0  0  0  0
   -1.9224   -2.3476    0.7443 C   0  0  0  0  0  0  0  0  0  0  0  0
   -0.9723   -3.0198    1.1143 O   0  0  0  0  0  0  0  0  0  0  0  0
   -1.7278   -1.0676    0.2689 N   0  0  0  0  0  0  0  0  0  0  0  0
   -2.5585   -0.5134    0.0683 H   0  0  0  0  0  0  0  0  0  0  0  0
   -0.4461   -0.3494    0.2870 C   0  0  1  0  0  0  0  0  0  0  0  0
    0.1639   -0.8165    1.0668 H   0  0  0  0  0  0  0  0  0  0  0  0
    0.3408   -0.5836   -1.0229 C   0  0  0  0  0  0  0  0  0  0  0  0
    1.2959   -0.0584   -0.9187 H   0  0  0  0  0  0  0  0  0  0  0  0
    0.5700   -1.6529   -1.0858 H   0  0  0  0  0  0  0  0  0  0  0  0
   -0.2945   -0.1597   -2.3719 C   0  0  0  0  0  0  0  0  0  0  0  0
   -1.0741   -0.8897   -2.6150 H   0  0  0  0  0  0  0  0  0  0  0  0
   -0.9517    1.2235   -2.3975 C   0  0  0  0  0  0  0  0  0  0  0  0
   -0.2880    1.9789   -1.9655 H   0  0  0  0  0  0  0  0  0  0  0  0
   -1.1843    1.5179   -3.4256 H   0  0  0  0  0  0  0  0  0  0  0  0
   -1.8938    1.2075   -1.8444 H   0  0  0  0  0  0  0  0  0  0  0  0
    0.7780   -0.2308   -3.4664 C   0  0  0  0  0  0  0  0  0  0  0  0
    1.2308   -1.2270   -3.4928 H   0  0  0  0  0  0  0  0  0  0  0  0
    0.3376   -0.0312   -4.4483 H   0  0  0  0  0  0  0  0  0  0  0  0
    1.5664    0.5064   -3.2835 H   0  0  0  0  0  0  0  0  0  0  0  0
   -0.5740    1.1126    0.7703 C   0  0  0  0  0  0  0  0  0  0  0  0
   -1.6087    1.7427    0.5838 O   0  0  0  0  0  0  0  0  0  0  0  0
    0.3400    1.6153    1.6793 N   0  0  0  0  0  0  0  0  0  0  0  0
    1.1242    1.0216    1.9334 H   0  0  0  0  0  0  0  0  0  0  0  0
    0.1807    2.8971    2.3557 C   0  0  0  0  0  0  0  0  0  0  0  0
   -0.7105    2.8870    2.9919 H   0  0  0  0  0  0  0  0  0  0  0  0
    1.0525    3.1036    2.9837 H   0  0  0  0  0  0  0  0  0  0  0  0
    0.0833    3.7068    1.6247 H   0  0  0  0  0  0  0  0  0  0  0  0
  1  2  1  0  0  0  0
  2  3  1  0  0  0  0
  2  4  1  0  0  0  0
  2  5  1  0  0  0  0
  5  6  2  0  0  0  0
  5  7  1  0  0  0  0
  7  8  1  0  0  0  0
  7  9  1  0  0  0  0
  9 10  1  0  0  0  0
  9 11  1  0  0  0  0
  9 24  1  0  0  0  0
 11 12  1  0  0  0  0
 11 13  1  0  0  0  0
 11 14  1  0  0  0  0
 14 15  1  0  0  0  0
 14 16  1  0  0  0  0
 14 20  1  0  0  0  0
 16 17  1  0  0  0  0
 16 18  1  0  0  0  0
 16 19  1  0  0  0  0
 20 21  1  0  0  0  0
 20 22  1  0  0  0  0
 20 23  1  0  0  0  0
 24 25  2  0  0  0  0
 24 26  1  0  0  0  0
 26 27  1  0  0  0  0
 26 28  1  0  0  0  0
 28 29  1  0  0  0  0
 28 30  1  0  0  0  0
 28 31  1  0  0  0  0
M  END
$$$$

  -OEChem-03222214063D

 31 30  0     1  0  0  0  0  0999 V2000
   -3.3511   -3.8834    1.2639 H   0  0  0  0  0  0  0  0  0  0  0  0
   -3.3543   -2.8835    0.8208 C   0  0  0  0  0  0  0  0  0  0  0  0
   -3.9813   -2.2295    1.4317 H   0  0  0  0  0  0  0  0  0  0  0  0
   -3.7757   -2.9453   -0.1854 H   0  0  0  0  0  0  0  0  0  0  0  0
   -1.9417   -2.3343    0.7571 C   0  0  0  0  0  0  0  0  0  0  0  0
   -1.0052   -3.0122    1.1506 O   0  0  0  0  0  0  0  0  0  0  0  0
   -1.7239   -1.0677    0.2566 N   0  0  0  0  0  0  0  0  0  0  0  0
   -2.5448   -0.5051    0.0390 H   0  0  0  0  0  0  0  0  0  0  0  0
   -0.4329   -0.3661    0.2783 C   0  0  1  0  0  0  0  0  0  0  0  0
    0.1686   -0.8250    1.0698 H   0  0  0  0  0  0  0  0  0  0  0  0
    0.3552   -0.6185   -1.0263 C   0  0  0  0  0  0  0  0  0  0  0  0
    1.3254   -0.1200   -0.9321 H   0  0  0  0  0  0  0  0  0  0  0  0
    0.5522   -1.6946   -1.0805 H   0  0  0  0  0  0  0  0  0  0  0  0
   -0.2851   -0.1855   -2.3681 C   0  0  0  0  0  0  0  0  0  0  0  0
   -1.2248   -0.7326   -2.4985 H   0  0  0  0  0  0  0  0  0  0  0  0
   -0.5903    1.3137   -2.4802 C   0  0  0  0  0  0  0  0  0  0  0  0
    0.2275    1.9103   -2.0645 H   0  0  0  0  0  0  0  0  0  0  0  0
   -1.5166    1.5564   -1.9562 H   0  0  0  0  0  0  0  0  0  0  0  0
   -0.7291    1.6019   -3.5267 H   0  0  0  0  0  0  0  0  0  0  0  0
    0.6592   -0.5886   -3.5086 C   0  0  0  0  0  0  0  0  0  0  0  0
    0.8689   -1.6622   -3.4710 H   0  0  0  0  0  0  0  0  0  0  0  0
    0.2044   -0.3662   -4.4790 H   0  0  0  0  0  0  0  0  0  0  0  0
    1.6070   -0.0457   -3.4361 H   0  0  0  0  0  0  0  0  0  0  0  0
   -0.5656    1.1047    0.7293 C   0  0  0  0  0  0  0  0  0  0  0  0
   -1.5989    1.7276    0.5123 O   0  0  0  0  0  0  0  0  0  0  0  0
    0.3317    1.6262    1.6443 N   0  0  0  0  0  0  0  0  0  0  0  0
    1.1093    1.0368    1.9276 H   0  0  0  0  0  0  0  0  0  0  0  0
    0.1562    2.9195    2.2946 C   0  0  0  0  0  0  0  0  0  0  0  0
   -0.7454    2.9164    2.9161 H   0  0  0  0  0  0  0  0  0  0  0  0
    1.0166    3.1417    2.9332 H   0  0  0  0  0  0  0  0  0  0  0  0
    0.0669    3.7153    1.5476 H   0  0  0  0  0  0  0  0  0  0  0  0
  1  2  1  0  0  0  0
  2  3  1  0  0  0  0
  2  4  1  0  0  0  0
  2  5  1  0  0  0  0
  5  6  2  0  0  0  0
  5  7  1  0  0  0  0
  7  8  1  0  0  0  0
  7  9  1  0  0  0  0
  9 10  1  0  0  0  0
  9 11  1  0  0  0  0
  9 24  1  0  0  0  0
 11 12  1  0  0  0  0
 11 13  1  0  0  0  0
 11 14  1  0  0  0  0
 14 15  1  0  0  0  0
 14 16  1  0  0  0  0
 14 20  1  0  0  0  0
 16 17  1  0  0  0  0
 16 18  1  0  0  0  0
 16 19  1  0  0  0  0
 20 21  1  0  0  0  0
 20 22  1  0  0  0  0
 20 23  1  0  0  0  0
 24 25  2  0  0  0  0
 24 26  1  0  0  0  0
 26 27  1  0  0  0  0
 26 28  1  0  0  0  0
 28 29  1  0  0  0  0
 28 30  1  0  0  0  0
 28 31  1  0  0  0  0
M  END
$$$$

  -OEChem-03222214063D

 31 30  0     1  0  0  0  0  0999 V2000
   -3.3649   -3.8795    1.2798 H   0  0  0  0  0  0  0  0  0  0  0  0
   -3.3545   -2.8939    0.8061 C   0  0  0  0  0  0  0  0  0  0  0  0
   -3.9887   -2.2182    1.3852 H   0  0  0  0  0  0  0  0  0  0  0  0
   -3.7579   -2.9843   -0.2054 H   0  0  0  0  0  0  0  0  0  0  0  0
   -1.9373   -2.3557    0.7508 C   0  0  0  0  0  0  0  0  0  0  0  0
   -1.0088   -3.0394    1.1532 O   0  0  0  0  0  0  0  0  0  0  0  0
   -1.7049   -1.0947    0.2431 N   0  0  0  0  0  0  0  0  0  0  0  0
   -2.5196   -0.5222    0.0271 H   0  0  0  0  0  0  0  0  0  0  0  0
   -0.4079   -0.4039    0.2736 C   0  0  1  0  0  0  0  0  0  0  0  0
    0.1951   -0.8643    1.0628 H   0  0  0  0  0  0  0  0  0  0  0  0
    0.3702   -0.6394   -1.0400 C   0  0  0  0  0  0  0  0  0  0  0  0
    1.3539   -0.1671   -0.9514 H   0  0  0  0  0  0  0  0  0  0  0  0
    0.5419   -1.7190   -1.1120 H   0  0  0  0  0  0  0  0  0  0  0  0
   -0.2904   -0.1668   -2.3589 C   0  0  0  0  0  0  0  0  0  0  0  0
   -1.3365   -0.4896   -2.3760 H   0  0  0  0  0  0  0  0  0  0  0  0
   -0.2427    1.3553   -2.5612 C   0  0  0  0  0  0  0  0  0  0  0  0
    0.7571    1.7445   -2.3460 H   0  0  0  0  0  0  0  0  0  0  0  0
   -0.4961    1.6106   -3.5947 H   0  0  0  0  0  0  0  0  0  0  0  0
   -0.9641    1.8620   -1.9207 H   0  0  0  0  0  0  0  0  0  0  0  0
    0.4310   -0.8352   -3.5371 C   0  0  0  0  0  0  0  0  0  0  0  0
    0.3704   -1.9250   -3.4557 H   0  0  0  0  0  0  0  0  0  0  0  0
   -0.0298   -0.5412   -4.4854 H   0  0  0  0  0  0  0  0  0  0  0  0
    1.4864   -0.5454   -3.5585 H   0  0  0  0  0  0  0  0  0  0  0  0
   -0.5588    1.0669    0.7145 C   0  0  0  0  0  0  0  0  0  0  0  0
   -1.5897    1.6815    0.4625 O   0  0  0  0  0  0  0  0  0  0  0  0
    0.3181    1.6032    1.6404 N   0  0  0  0  0  0  0  0  0  0  0  0
    1.0978    1.0244    1.9396 H   0  0  0  0  0  0  0  0  0  0  0  0
    0.1289    2.9071    2.2648 C   0  0  0  0  0  0  0  0  0  0  0  0
   -0.8046    2.9265    2.8370 H   0  0  0  0  0  0  0  0  0  0  0  0
    0.9568    3.1237    2.9466 H   0  0  0  0  0  0  0  0  0  0  0  0
    0.0932    3.6941    1.5042 H   0  0  0  0  0  0  0  0  0  0  0  0
  1  2  1  0  0  0  0
  2  3  1  0  0  0  0
  2  4  1  0  0  0  0
  2  5  1  0  0  0  0
  5  6  2  0  0  0  0
  5  7  1  0  0  0  0
  7  8  1  0  0  0  0
  7  9  1  0  0  0  0
  9 10  1  0  0  0  0
  9 11  1  0  0  0  0
  9 24  1  0  0  0  0
 11 12  1  0  0  0  0
 11 13  1  0  0  0  0
 11 14  1  0  0  0  0
 14 15  1  0  0  0  0
 14 16  1  0  0  0  0
 14 20  1  0  0  0  0
 16 17  1  0  0  0  0
 16 18  1  0  0  0  0
 16 19  1  0  0  0  0
 20 21  1  0  0  0  0
 20 22  1  0  0  0  0
 20 23  1  0  0  0  0
 24 25  2  0  0  0  0
 24 26  1  0  0  0  0
 26 27  1  0  0  0  0
 26 28  1  0  0  0  0
 28 29  1  0  0  0  0
 28 30  1  0  0  0  0
 28 31  1  0  0  0  0
M  END
$$$$

  -OEChem-03222214063D

 31 30  0     1  0  0  0  0  0999 V2000
   -3.3987   -3.8709    1.3017 H   0  0  0  0  0  0  0  0  0  0  0  0
   -3.3627   -2.9017    0.7965 C   0  0  0  0  0  0  0  0  0  0  0  0
   -4.0121   -2.2029    1.3293 H   0  0  0  0  0  0  0  0  0  0  0  0
   -3.7295   -3.0227   -0.2255 H   0  0  0  0  0  0  0  0  0  0  0  0
   -1.9403   -2.3751    0.7762 C   0  0  0  0  0  0  0  0  0  0  0  0
   -1.0333   -3.0496    1.2384 O   0  0  0  0  0  0  0  0  0  0  0  0
   -1.6791   -1.1324    0.2387 N   0  0  0  0  0  0  0  0  0  0  0  0
   -2.4789   -0.5635   -0.0352 H   0  0  0  0  0  0  0  0  0  0  0  0
   -0.3756   -0.4542    0.2879 C   0  0  1  0  0  0  0  0  0  0  0  0
    0.2213   -0.9044    1.0878 H   0  0  0  0  0  0  0  0  0  0  0  0
    0.4005   -0.6787   -1.0283 C   0  0  0  0  0  0  0  0  0  0  0  0
    1.3929   -0.2251   -0.9410 H   0  0  0  0  0  0  0  0  0  0  0  0
    0.5554   -1.7593   -1.1196 H   0  0  0  0  0  0  0  0  0  0  0  0
   -0.2849   -0.1627   -2.3190 C   0  0  0  0  0  0  0  0  0  0  0  0
   -1.3726   -0.2216   -2.2100 H   0  0  0  0  0  0  0  0  0  0  0  0
    0.1012    1.2903   -2.6396 C   0  0  0  0  0  0  0  0  0  0  0  0
    1.1853    1.3836   -2.7583 H   0  0  0  0  0  0  0  0  0  0  0  0
   -0.3764    1.6103   -3.5708 H   0  0  0  0  0  0  0  0  0  0  0  0
   -0.2177    1.9746   -1.8518 H   0  0  0  0  0  0  0  0  0  0  0  0
    0.1218   -1.0455   -3.5056 C   0  0  0  0  0  0  0  0  0  0  0  0
   -0.1908   -2.0808   -3.3367 H   0  0  0  0  0  0  0  0  0  0  0  0
   -0.3546   -0.6926   -4.4256 H   0  0  0  0  0  0  0  0  0  0  0  0
    1.2073   -1.0273   -3.6464 H   0  0  0  0  0  0  0  0  0  0  0  0
   -0.5464    1.0267    0.6820 C   0  0  0  0  0  0  0  0  0  0  0  0
   -1.5386    1.6483    0.3160 O   0  0  0  0  0  0  0  0  0  0  0  0
    0.2927    1.5974    1.6217 N   0  0  0  0  0  0  0  0  0  0  0  0
    1.0468    1.0238    1.9888 H   0  0  0  0  0  0  0  0  0  0  0  0
    0.0960    2.9356    2.1656 C   0  0  0  0  0  0  0  0  0  0  0  0
   -0.8785    3.0099    2.6596 H   0  0  0  0  0  0  0  0  0  0  0  0
    0.8739    3.1623    2.9010 H   0  0  0  0  0  0  0  0  0  0  0  0
    0.1455    3.6844    1.3682 H   0  0  0  0  0  0  0  0  0  0  0  0
  1  2  1  0  0  0  0
  2  3  1  0  0  0  0
  2  4  1  0  0  0  0
  2  5  1  0  0  0  0
  5  6  2  0  0  0  0
  5  7  1  0  0  0  0
  7  8  1  0  0  0  0
  7  9  1  0  0  0  0
  9 10  1  0  0  0  0
  9 11  1  0  0  0  0
  9 24  1  0  0  0  0
 11 12  1  0  0  0  0
 11 13  1  0  0  0  0
 11 14  1  0  0  0  0
 14 15  1  0  0  0  0
 14 16  1  0  0  0  0
 14 20  1  0  0  0  0
 16 17  1  0  0  0  0
 16 18  1  0  0  0  0
 16 19  1  0  0  0  0
 20 21  1  0  0  0  0
 20 22  1  0  0  0  0
 20 23  1  0  0  0  0
 24 25  2  0  0  0  0
 24 26  1  0  0  0  0
 26 27  1  0  0  0  0
 26 28  1  0  0  0  0
 28 29  1  0  0  0  0
 28 30  1  0  0  0  0
 28 31  1  0  0  0  0
M  END
$$$$

  -OEChem-03222214063D

 31 30  0     1  0  0  0  0  0999 V2000
   -3.4162   -3.8976    1.2923 H   0  0  0  0  0  0  0  0  0  0  0  0
   -3.3658   -2.9350    0.7756 C   0  0  0  0  0  0  0  0  0  0  0  0
   -4.0360   -2.2314    1.2754 H   0  0  0  0  0  0  0  0  0  0  0  0
   -3.6959   -3.0712   -0.2570 H   0  0  0  0  0  0  0  0  0  0  0  0
   -1.9458   -2.4018    0.7981 C   0  0  0  0  0  0  0  0  0  0  0  0
   -1.0545   -3.0588    1.3129 O   0  0  0  0  0  0  0  0  0  0  0  0
   -1.6698   -1.1719    0.2392 N   0  0  0  0  0  0  0  0  0  0  0  0
   -2.4589   -0.6196   -0.0926 H   0  0  0  0  0  0  0  0  0  0  0  0
   -0.3675   -0.4928    0.3054 C   0  0  1  0  0  0  0  0  0  0  0  0
    0.2237   -0.9350    1.1138 H   0  0  0  0  0  0  0  0  0  0  0  0
    0.4160   -0.7000   -1.0059 C   0  0  0  0  0  0  0  0  0  0  0  0
    1.4053   -0.2411   -0.9086 H   0  0  0  0  0  0  0  0  0  0  0  0
    0.5815   -1.7772   -1.1161 H   0  0  0  0  0  0  0  0  0  0  0  0
   -0.2944   -0.1562   -2.2724 C   0  0  0  0  0  0  0  0  0  0  0  0
   -1.3496    0.0434   -2.0609 H   0  0  0  0  0  0  0  0  0  0  0  0
    0.3626    1.1470   -2.7470 C   0  0  0  0  0  0  0  0  0  0  0  0
    1.4095    0.9777   -3.0182 H   0  0  0  0  0  0  0  0  0  0  0  0
   -0.1636    1.5399   -3.6225 H   0  0  0  0  0  0  0  0  0  0  0  0
    0.3259    1.9060   -1.9598 H   0  0  0  0  0  0  0  0  0  0  0  0
   -0.2273   -1.1877   -3.4049 C   0  0  0  0  0  0  0  0  0  0  0  0
   -0.7368   -2.1104   -3.1096 H   0  0  0  0  0  0  0  0  0  0  0  0
   -0.7169   -0.8001   -4.3038 H   0  0  0  0  0  0  0  0  0  0  0  0
    0.8126   -1.4260   -3.6503 H   0  0  0  0  0  0  0  0  0  0  0  0
   -0.5371    0.9984    0.6607 C   0  0  0  0  0  0  0  0  0  0  0  0
   -1.4754    1.6389    0.1988 O   0  0  0  0  0  0  0  0  0  0  0  0
    0.2811    1.5890    1.6060 N   0  0  0  0  0  0  0  0  0  0  0  0
    1.0012    1.0127    2.0324 H   0  0  0  0  0  0  0  0  0  0  0  0
    0.1168    2.9648    2.0592 C   0  0  0  0  0  0  0  0  0  0  0  0
   -0.8687    3.1028    2.5163 H   0  0  0  0  0  0  0  0  0  0  0  0
    0.8807    3.2119    2.8025 H   0  0  0  0  0  0  0  0  0  0  0  0
    0.2157    3.6593    1.2182 H   0  0  0  0  0  0  0  0  0  0  0  0
  1  2  1  0  0  0  0
  2  3  1  0  0  0  0
  2  4  1  0  0  0  0
  2  5  1  0  0  0  0
  5  6  2  0  0  0  0
  5  7  1  0  0  0  0
  7  8  1  0  0  0  0
  7  9  1  0  0  0  0
  9 10  1  0  0  0  0
  9 11  1  0  0  0  0
  9 24  1  0  0  0  0
 11 12  1  0  0  0  0
 11 13  1  0  0  0  0
 11 14  1  0  0  0  0
 14 15  1  0  0  0  0
 14 16  1  0  0  0  0
 14 20  1  0  0  0  0
 16 17  1  0  0  0  0
 16 18  1  0  0  0  0
 16 19  1  0  0  0  0
 20 21  1  0  0  0  0
 20 22  1  0  0  0  0
 20 23  1  0  0  0  0
 24 25  2  0  0  0  0
 24 26  1  0  0  0  0
 26 27  1  0  0  0  0
 26 28  1  0  0  0  0
 28 29  1  0  0  0  0
 28 30  1  0  0  0  0
 28 31  1  0  0  0  0
M  END
$$$$

  -OEChem-03222214063D

 31 30  0     1  0  0  0  0  0999 V2000
   -3.4070   -3.9098    1.2617 H   0  0  0  0  0  0  0  0  0  0  0  0
   -3.3588   -2.9448    0.7494 C   0  0  0  0  0  0  0  0  0  0  0  0
   -4.0414   -2.2491    1.2432 H   0  0  0  0  0  0  0  0  0  0  0  0
   -3.6743   -3.0797   -0.2879 H   0  0  0  0  0  0  0  0  0  0  0  0
   -1.9439   -2.3994    0.7927 C   0  0  0  0  0  0  0  0  0  0  0  0
   -1.0546   -3.0487    1.3206 O   0  0  0  0  0  0  0  0  0  0  0  0
   -1.6714   -1.1676    0.2363 N   0  0  0  0  0  0  0  0  0  0  0  0
   -2.4596   -0.6270   -0.1158 H   0  0  0  0  0  0  0  0  0  0  0  0
   -0.3739   -0.4806    0.3068 C   0  0  1  0  0  0  0  0  0  0  0  0
    0.2153   -0.9216    1.1175 H   0  0  0  0  0  0  0  0  0  0  0  0
    0.4141   -0.6942   -0.9989 C   0  0  0  0  0  0  0  0  0  0  0  0
    1.3919   -0.2124   -0.8944 H   0  0  0  0  0  0  0  0  0  0  0  0
    0.6068   -1.7673   -1.1054 H   0  0  0  0  0  0  0  0  0  0  0  0
   -0.3022   -0.1620   -2.2676 C   0  0  0  0  0  0  0  0  0  0  0  0
   -1.2623    0.2913   -2.0025 H   0  0  0  0  0  0  0  0  0  0  0  0
    0.5514    0.9073   -2.9590 C   0  0  0  0  0  0  0  0  0  0  0  0
    1.5172    0.4940   -3.2666 H   0  0  0  0  0  0  0  0  0  0  0  0
    0.0374    1.2890   -3.8466 H   0  0  0  0  0  0  0  0  0  0  0  0
    0.7298    1.7472   -2.2799 H   0  0  0  0  0  0  0  0  0  0  0  0
   -0.5808   -1.3084   -3.2471 C   0  0  0  0  0  0  0  0  0  0  0  0
   -1.2153   -2.0653   -2.7755 H   0  0  0  0  0  0  0  0  0  0  0  0
   -1.0976   -0.9332   -4.1359 H   0  0  0  0  0  0  0  0  0  0  0  0
    0.3533   -1.7837   -3.5630 H   0  0  0  0  0  0  0  0  0  0  0  0
   -0.5337    1.0129    0.6617 C   0  0  0  0  0  0  0  0  0  0  0  0
   -1.4639    1.6646    0.2000 O   0  0  0  0  0  0  0  0  0  0  0  0
    0.2904    1.5949    1.6075 N   0  0  0  0  0  0  0  0  0  0  0  0
    1.0026    1.0100    2.0354 H   0  0  0  0  0  0  0  0  0  0  0  0
    0.1377    2.9702    2.0657 C   0  0  0  0  0  0  0  0  0  0  0  0
   -0.8459    3.1142    2.5251 H   0  0  0  0  0  0  0  0  0  0  0  0
    0.9049    3.2085    2.8087 H   0  0  0  0  0  0  0  0  0  0  0  0
    0.2408    3.6667    1.2269 H   0  0  0  0  0  0  0  0  0  0  0  0
  1  2  1  0  0  0  0
  2  3  1  0  0  0  0
  2  4  1  0  0  0  0
  2  5  1  0  0  0  0
  5  6  2  0  0  0  0
  5  7  1  0  0  0  0
  7  8  1  0  0  0  0
  7  9  1  0  0  0  0
  9 10  1  0  0  0  0
  9 11  1  0  0  0  0
  9 24  1  0  0  0  0
 11 12  1  0  0  0  0
 11 13  1  0  0  0  0
 11 14  1  0  0  0  0
 14 15  1  0  0  0  0
 14 16  1  0  0  0  0
 14 20  1  0  0  0  0
 16 17  1  0  0  0  0
 16 18  1  0  0  0  0
 16 19  1  0  0  0  0
 20 21  1  0  0  0  0
 20 22  1  0  0  0  0
 20 23  1  0  0  0  0
 24 25  2  0  0  0  0
 24 26  1  0  0  0  0
 26 27  1  0  0  0  0
 26 28  1  0  0  0  0
 28 29  1  0  0  0  0
 28 30  1  0  0  0  0
 28 31  1  0  0  0  0
M  END
$$$$

  -OEChem-03222214063D

 31 30  0     1  0  0  0  0  0999 V2000
   -3.3999   -3.9102    1.2662 H   0  0  0  0  0  0  0  0  0  0  0  0
   -3.3569   -2.9447    0.7545 C   0  0  0  0  0  0  0  0  0  0  0  0
   -4.0404   -2.2521    1.2513 H   0  0  0  0  0  0  0  0  0  0  0  0
   -3.6754   -3.0800   -0.2818 H   0  0  0  0  0  0  0  0  0  0  0  0
   -1.9442   -2.3940    0.7924 C   0  0  0  0  0  0  0  0  0  0  0  0
   -1.0475   -3.0466    1.3033 O   0  0  0  0  0  0  0  0  0  0  0  0
   -1.6803   -1.1574    0.2428 N   0  0  0  0  0  0  0  0  0  0  0  0
   -2.4734   -0.6162   -0.0969 H   0  0  0  0  0  0  0  0  0  0  0  0
   -0.3839   -0.4684    0.3023 C   0  0  1  0  0  0  0  0  0  0  0  0
    0.2083   -0.9117    1.1094 H   0  0  0  0  0  0  0  0  0  0  0  0
    0.4037   -0.6867   -1.0045 C   0  0  0  0  0  0  0  0  0  0  0  0
    1.3696   -0.1830   -0.8947 H   0  0  0  0  0  0  0  0  0  0  0  0
    0.6200   -1.7552   -1.1106 H   0  0  0  0  0  0  0  0  0  0  0  0
   -0.3060   -0.1683   -2.2816 C   0  0  0  0  0  0  0  0  0  0  0  0
   -1.1137    0.5191   -2.0149 H   0  0  0  0  0  0  0  0  0  0  0  0
    0.6813    0.5995   -3.1675 C   0  0  0  0  0  0  0  0  0  0  0  0
    1.5175   -0.0429   -3.4613 H   0  0  0  0  0  0  0  0  0  0  0  0
    0.1816    0.9571   -4.0732 H   0  0  0  0  0  0  0  0  0  0  0  0
    1.0777    1.4676   -2.6313 H   0  0  0  0  0  0  0  0  0  0  0  0
   -0.9148   -1.3316   -3.0751 C   0  0  0  0  0  0  0  0  0  0  0  0
   -1.6356   -1.8798   -2.4614 H   0  0  0  0  0  0  0  0  0  0  0  0
   -1.4363   -0.9555   -3.9607 H   0  0  0  0  0  0  0  0  0  0  0  0
   -0.1357   -2.0280   -3.4009 H   0  0  0  0  0  0  0  0  0  0  0  0
   -0.5400    1.0227    0.6710 C   0  0  0  0  0  0  0  0  0  0  0  0
   -1.4847    1.6733    0.2381 O   0  0  0  0  0  0  0  0  0  0  0  0
    0.2959    1.5985    1.6106 N   0  0  0  0  0  0  0  0  0  0  0  0
    1.0198    1.0135    2.0181 H   0  0  0  0  0  0  0  0  0  0  0  0
    0.1438    2.9677    2.0876 C   0  0  0  0  0  0  0  0  0  0  0  0
   -0.8354    3.1034    2.5583 H   0  0  0  0  0  0  0  0  0  0  0  0
    0.9174    3.1988    2.8260 H   0  0  0  0  0  0  0  0  0  0  0  0
    0.2368    3.6750    1.2569 H   0  0  0  0  0  0  0  0  0  0  0  0
  1  2  1  0  0  0  0
  2  3  1  0  0  0  0
  2  4  1  0  0  0  0
  2  5  1  0  0  0  0
  5  6  2  0  0  0  0
  5  7  1  0  0  0  0
  7  8  1  0  0  0  0
  7  9  1  0  0  0  0
  9 10  1  0  0  0  0
  9 11  1  0  0  0  0
  9 24  1  0  0  0  0
 11 12  1  0  0  0  0
 11 13  1  0  0  0  0
 11 14  1  0  0  0  0
 14 15  1  0  0  0  0
 14 16  1  0  0  0  0
 14 20  1  0  0  0  0
 16 17  1  0  0  0  0
 16 18  1  0  0  0  0
 16 19  1  0  0  0  0
 20 21  1  0  0  0  0
 20 22  1  0  0  0  0
 20 23  1  0  0  0  0
 24 25  2  0  0  0  0
 24 26  1  0  0  0  0
 26 27  1  0  0  0  0
 26 28  1  0  0  0  0
 28 29  1  0  0  0  0
 28 30  1  0  0  0  0
 28 31  1  0  0  0  0
M  END
$$$$

  -OEChem-03222214063D

 31 30  0     1  0  0  0  0  0999 V2000
   -3.3949   -3.9151    1.3310 H   0  0  0  0  0  0  0  0  0  0  0  0
   -3.3615   -2.9493    0.8191 C   0  0  0  0  0  0  0  0  0  0  0  0
   -4.0344   -2.2566    1.3302 H   0  0  0  0  0  0  0  0  0  0  0  0
   -3.7014   -3.0841   -0.2106 H   0  0  0  0  0  0  0  0  0  0  0  0
   -1.9474   -2.4003    0.8282 C   0  0  0  0  0  0  0  0  0  0  0  0
   -1.0416   -3.0545    1.3209 O   0  0  0  0  0  0  0  0  0  0  0  0
   -1.6928   -1.1642    0.2728 N   0  0  0  0  0  0  0  0  0  0  0  0
   -2.4919   -0.6191   -0.0464 H   0  0  0  0  0  0  0  0  0  0  0  0
   -0.3943   -0.4799    0.3015 C   0  0  1  0  0  0  0  0  0  0  0  0
    0.2131   -0.9224    1.0977 H   0  0  0  0  0  0  0  0  0  0  0  0
    0.3831   -0.6805   -1.0174 C   0  0  0  0  0  0  0  0  0  0  0  0
    1.3446   -0.1691   -0.9041 H   0  0  0  0  0  0  0  0  0  0  0  0
    0.6053   -1.7462   -1.1363 H   0  0  0  0  0  0  0  0  0  0  0  0
   -0.3150   -0.1597   -2.3000 C   0  0  0  0  0  0  0  0  0  0  0  0
   -0.9267    0.7163   -2.0665 H   0  0  0  0  0  0  0  0  0  0  0  0
    0.7448    0.2708   -3.3218 C   0  0  0  0  0  0  0  0  0  0  0  0
    1.3961   -0.5703   -3.5808 H   0  0  0  0  0  0  0  0  0  0  0  0
    0.2679    0.6365   -4.2367 H   0  0  0  0  0  0  0  0  0  0  0  0
    1.3618    1.0781   -2.9149 H   0  0  0  0  0  0  0  0  0  0  0  0
   -1.2125   -1.2293   -2.9414 C   0  0  0  0  0  0  0  0  0  0  0  0
   -2.0296   -1.5106   -2.2735 H   0  0  0  0  0  0  0  0  0  0  0  0
   -1.6540   -0.8474   -3.8673 H   0  0  0  0  0  0  0  0  0  0  0  0
   -0.6337   -2.1273   -3.1794 H   0  0  0  0  0  0  0  0  0  0  0  0
   -0.5538    1.0088    0.6757 C   0  0  0  0  0  0  0  0  0  0  0  0
   -1.5131    1.6517    0.2632 O   0  0  0  0  0  0  0  0  0  0  0  0
    0.2974    1.5896    1.5979 N   0  0  0  0  0  0  0  0  0  0  0  0
    1.0330    1.0090    1.9905 H   0  0  0  0  0  0  0  0  0  0  0  0
    0.1412    2.9547    2.0850 C   0  0  0  0  0  0  0  0  0  0  0  0
   -0.8278    3.0762    2.5806 H   0  0  0  0  0  0  0  0  0  0  0  0
    0.9304    3.1919    2.8051 H   0  0  0  0  0  0  0  0  0  0  0  0
    0.2049    3.6666    1.2552 H   0  0  0  0  0  0  0  0  0  0  0  0
  1  2  1  0  0  0  0
  2  3  1  0  0  0  0
  2  4  1  0  0  0  0
  2  5  1  0  0  0  0
  5  6  2  0  0  0  0
  5  7  1  0  0  0  0
  7  8  1  0  0  0  0
  7  9  1  0  0  0  0
  9 10  1  0  0  0  0
  9 11  1  0  0  0  0
  9 24  1  0  0  0  0
 11 12  1  0  0  0  0
 11 13  1  0  0  0  0
 11 14  1  0  0  0  0
 14 15  1  0  0  0  0
 14 16  1  0  0  0  0
 14 20  1  0  0  0  0
 16 17  1  0  0  0  0
 16 18  1  0  0  0  0
 16 19  1  0  0  0  0
 20 21  1  0  0  0  0
 20 22  1  0  0  0  0
 20 23  1  0  0  0  0
 24 25  2  0  0  0  0
 24 26  1  0  0  0  0
 26 27  1  0  0  0  0
 26 28  1  0  0  0  0
 28 29  1  0  0  0  0
 28 30  1  0  0  0  0
 28 31  1  0  0  0  0
M  END
$$$$

  -OEChem-03222214063D

 31 30  0     1  0  0  0  0  0999 V2000
   -3.3811   -3.9312    1.3963 H   0  0  0  0  0  0  0  0  0  0  0  0
   -3.3560   -2.9674    0.8801 C   0  0  0  0  0  0  0  0  0  0  0  0
   -4.0169   -2.2710    1.4019 H   0  0  0  0  0  0  0  0  0  0  0  0
   -3.7166   -3.1052   -0.1421 H   0  0  0  0  0  0  0  0  0  0  0  0
   -1.9408   -2.4214    0.8600 C   0  0  0  0  0  0  0  0  0  0  0  0
   -1.0271   -3.0760    1.3371 O   0  0  0  0  0  0  0  0  0  0  0  0
   -1.6944   -1.1858    0.2999 N   0  0  0  0  0  0  0  0  0  0  0  0
   -2.4975   -0.6408   -0.0090 H   0  0  0  0  0  0  0  0  0  0  0  0
   -0.3951   -0.5030    0.3067 C   0  0  1  0  0  0  0  0  0  0  0  0
    0.2281   -0.9469    1.0896 H   0  0  0  0  0  0  0  0  0  0  0  0
    0.3652   -0.6742   -1.0276 C   0  0  0  0  0  0  0  0  0  0  0  0
    1.3303   -0.1690   -0.9160 H   0  0  0  0  0  0  0  0  0  0  0  0
    0.5781   -1.7396   -1.1651 H   0  0  0  0  0  0  0  0  0  0  0  0
   -0.3249   -0.1386   -2.3091 C   0  0  0  0  0  0  0  0  0  0  0  0
   -0.7018    0.8733   -2.1303 H   0  0  0  0  0  0  0  0  0  0  0  0
    0.7198   -0.0589   -3.4305 C   0  0  0  0  0  0  0  0  0  0  0  0
    1.1277   -1.0508   -3.6498 H   0  0  0  0  0  0  0  0  0  0  0  0
    0.2708    0.3419   -4.3448 H   0  0  0  0  0  0  0  0  0  0  0  0
    1.5439    0.6008   -3.1408 H   0  0  0  0  0  0  0  0  0  0  0  0
   -1.4884   -1.0193   -2.7919 C   0  0  0  0  0  0  0  0  0  0  0  0
   -2.3578   -0.9130   -2.1397 H   0  0  0  0  0  0  0  0  0  0  0  0
   -1.7991   -0.7226   -3.7985 H   0  0  0  0  0  0  0  0  0  0  0  0
   -1.1915   -2.0725   -2.8179 H   0  0  0  0  0  0  0  0  0  0  0  0
   -0.5619    0.9836    0.6840 C   0  0  0  0  0  0  0  0  0  0  0  0
   -1.5231    1.6218    0.2686 O   0  0  0  0  0  0  0  0  0  0  0  0
    0.2958    1.5735    1.5943 N   0  0  0  0  0  0  0  0  0  0  0  0
    1.0376    0.9986    1.9835 H   0  0  0  0  0  0  0  0  0  0  0  0
    0.1392    2.9419    2.0720 C   0  0  0  0  0  0  0  0  0  0  0  0
   -0.8256    3.0647    2.5753 H   0  0  0  0  0  0  0  0  0  0  0  0
    0.9337    3.1871    2.7832 H   0  0  0  0  0  0  0  0  0  0  0  0
    0.1935    3.6477    1.2364 H   0  0  0  0  0  0  0  0  0  0  0  0
  1  2  1  0  0  0  0
  2  3  1  0  0  0  0
  2  4  1  0  0  0  0
  2  5  1  0  0  0  0
  5  6  2  0  0  0  0
  5  7  1  0  0  0  0
  7  8  1  0  0  0  0
  7  9  1  0  0  0  0
  9 10  1  0  0  0  0
  9 11  1  0  0  0  0
  9 24  1  0  0  0  0
 11 12  1  0  0  0  0
 11 13  1  0  0  0  0
 11 14  1  0  0  0  0
 14 15  1  0  0  0  0
 14 16  1  0  0  0  0
 14 20  1  0  0  0  0
 16 17  1  0  0  0  0
 16 18  1  0  0  0  0
 16 19  1  0  0  0  0
 20 21  1  0  0  0  0
 20 22  1  0  0  0  0
 20 23  1  0  0  0  0
 24 25  2  0  0  0  0
 24 26  1  0  0  0  0
 26 27  1  0  0  0  0
 26 28  1  0  0  0  0
 28 29  1  0  0  0  0
 28 30  1  0  0  0  0
 28 31  1  0  0  0  0
M  END
$$$$

  -OEChem-03222214063D

 31 30  0     1  0  0  0  0  0999 V2000
   -3.3589   -3.9450    1.3257 H   0  0  0  0  0  0  0  0  0  0  0  0
   -3.3401   -2.9758    0.8197 C   0  0  0  0  0  0  0  0  0  0  0  0
   -4.0145   -2.2929    1.3421 H   0  0  0  0  0  0  0  0  0  0  0  0
   -3.6888   -3.1071   -0.2076 H   0  0  0  0  0  0  0  0  0  0  0  0
   -1.9311   -2.4140    0.8186 C   0  0  0  0  0  0  0  0  0  0  0  0
   -1.0118   -3.0697    1.2834 O   0  0  0  0  0  0  0  0  0  0  0  0
   -1.6967   -1.1644    0.2853 N   0  0  0  0  0  0  0  0  0  0  0  0
   -2.5055   -0.6237   -0.0159 H   0  0  0  0  0  0  0  0  0  0  0  0
   -0.4046   -0.4649    0.3072 C   0  0  1  0  0  0  0  0  0  0  0  0
    0.2128   -0.9220    1.0874 H   0  0  0  0  0  0  0  0  0  0  0  0
    0.3578   -0.6480   -1.0240 C   0  0  0  0  0  0  0  0  0  0  0  0
    1.4019   -0.3704   -0.8464 H   0  0  0  0  0  0  0  0  0  0  0  0
    0.3482   -1.7137   -1.2772 H   0  0  0  0  0  0  0  0  0  0  0  0
   -0.1458    0.1628   -2.2440 C   0  0  0  0  0  0  0  0  0  0  0  0
   -0.0604    1.2333   -2.0297 H   0  0  0  0  0  0  0  0  0  0  0  0
    0.7444   -0.1631   -3.4497 C   0  0  0  0  0  0  0  0  0  0  0  0
    0.6745   -1.2247   -3.7075 H   0  0  0  0  0  0  0  0  0  0  0  0
    0.4397    0.4266   -4.3200 H   0  0  0  0  0  0  0  0  0  0  0  0
    1.7897    0.0729   -3.2277 H   0  0  0  0  0  0  0  0  0  0  0  0
   -1.6015   -0.1468   -2.6241 C   0  0  0  0  0  0  0  0  0  0  0  0
   -2.2916    0.2425   -1.8716 H   0  0  0  0  0  0  0  0  0  0  0  0
   -1.8556    0.3254   -3.5781 H   0  0  0  0  0  0  0  0  0  0  0  0
   -1.7538   -1.2264   -2.7200 H   0  0  0  0  0  0  0  0  0  0  0  0
   -0.5621    1.0155    0.7127 C   0  0  0  0  0  0  0  0  0  0  0  0
   -1.5246    1.6658    0.3207 O   0  0  0  0  0  0  0  0  0  0  0  0
    0.3033    1.5824    1.6304 N   0  0  0  0  0  0  0  0  0  0  0  0
    1.0503    0.9991    1.9964 H   0  0  0  0  0  0  0  0  0  0  0  0
    0.1622    2.9448    2.1295 C   0  0  0  0  0  0  0  0  0  0  0  0
   -0.8061    3.0739    2.6243 H   0  0  0  0  0  0  0  0  0  0  0  0
    0.9520    3.1663    2.8537 H   0  0  0  0  0  0  0  0  0  0  0  0
    0.2367    3.6630    1.3064 H   0  0  0  0  0  0  0  0  0  0  0  0
  1  2  1  0  0  0  0
  2  3  1  0  0  0  0
  2  4  1  0  0  0  0
  2  5  1  0  0  0  0
  5  6  2  0  0  0  0
  5  7  1  0  0  0  0
  7  8  1  0  0  0  0
  7  9  1  0  0  0  0
  9 10  1  0  0  0  0
  9 11  1  0  0  0  0
  9 24  1  0  0  0  0
 11 12  1  0  0  0  0
 11 13  1  0  0  0  0
 11 14  1  0  0  0  0
 14 15  1  0  0  0  0
 14 16  1  0  0  0  0
 14 20  1  0  0  0  0
 16 17  1  0  0  0  0
 16 18  1  0  0  0  0
 16 19  1  0  0  0  0
 20 21  1  0  0  0  0
 20 22  1  0  0  0  0
 20 23  1  0  0  0  0
 24 25  2  0  0  0  0
 24 26  1  0  0  0  0
 26 27  1  0  0  0  0
 26 28  1  0  0  0  0
 28 29  1  0  0  0  0
 28 30  1  0  0  0  0
 28 31  1  0  0  0  0
M  END
$$$$

  -OEChem-03222214063D

 31 30  0     1  0  0  0  0  0999 V2000
   -3.3319   -3.9525    1.3389 H   0  0  0  0  0  0  0  0  0  0  0  0
   -3.3382   -2.9732    0.8521 C   0  0  0  0  0  0  0  0  0  0  0  0
   -3.9967   -2.3057    1.4133 H   0  0  0  0  0  0  0  0  0  0  0  0
   -3.7248   -3.0867   -0.1635 H   0  0  0  0  0  0  0  0  0  0  0  0
   -1.9342   -2.4003    0.8103 C   0  0  0  0  0  0  0  0  0  0  0  0
   -0.9947   -3.0566    1.2319 O   0  0  0  0  0  0  0  0  0  0  0  0
   -1.7282   -1.1367    0.2972 N   0  0  0  0  0  0  0  0  0  0  0  0
   -2.5511   -0.6008    0.0278 H   0  0  0  0  0  0  0  0  0  0  0  0
   -0.4440   -0.4213    0.3024 C   0  0  1  0  0  0  0  0  0  0  0  0
    0.1769   -0.8852    1.0756 H   0  0  0  0  0  0  0  0  0  0  0  0
    0.3290   -0.6022   -1.0226 C   0  0  0  0  0  0  0  0  0  0  0  0
    1.3721   -0.3208   -0.8464 H   0  0  0  0  0  0  0  0  0  0  0  0
    0.3232   -1.6731   -1.2531 H   0  0  0  0  0  0  0  0  0  0  0  0
   -0.1621    0.1776   -2.2702 C   0  0  0  0  0  0  0  0  0  0  0  0
    0.1229    1.2307   -2.1729 H   0  0  0  0  0  0  0  0  0  0  0  0
    0.5046   -0.4302   -3.5126 C   0  0  0  0  0  0  0  0  0  0  0  0
    0.1963   -1.4714   -3.6533 H   0  0  0  0  0  0  0  0  0  0  0  0
    0.2329    0.1359   -4.4093 H   0  0  0  0  0  0  0  0  0  0  0  0
    1.5940   -0.4020   -3.4102 H   0  0  0  0  0  0  0  0  0  0  0  0
   -1.6797    0.0948   -2.5113 C   0  0  0  0  0  0  0  0  0  0  0  0
   -2.2380    0.6176   -1.7333 H   0  0  0  0  0  0  0  0  0  0  0  0
   -1.9384    0.5624   -3.4665 H   0  0  0  0  0  0  0  0  0  0  0  0
   -2.0091   -0.9488   -2.5377 H   0  0  0  0  0  0  0  0  0  0  0  0
   -0.5727    1.0543    0.7381 C   0  0  0  0  0  0  0  0  0  0  0  0
   -1.5518    1.7194    0.4215 O   0  0  0  0  0  0  0  0  0  0  0  0
    0.3309    1.5888    1.6389 N   0  0  0  0  0  0  0  0  0  0  0  0
    1.0848    0.9888    1.9613 H   0  0  0  0  0  0  0  0  0  0  0  0
    0.2072    2.9283    2.2006 C   0  0  0  0  0  0  0  0  0  0  0  0
   -0.7323    3.0264    2.7547 H   0  0  0  0  0  0  0  0  0  0  0  0
    1.0355    3.1284    2.8868 H   0  0  0  0  0  0  0  0  0  0  0  0
    0.2284    3.6804    1.4049 H   0  0  0  0  0  0  0  0  0  0  0  0
  1  2  1  0  0  0  0
  2  3  1  0  0  0  0
  2  4  1  0  0  0  0
  2  5  1  0  0  0  0
  5  6  2  0  0  0  0
  5  7  1  0  0  0  0
  7  8  1  0  0  0  0
  7  9  1  0  0  0  0
  9 10  1  0  0  0  0
  9 11  1  0  0  0  0
  9 24  1  0  0  0  0
 11 12  1  0  0  0  0
 11 13  1  0  0  0  0
 11 14  1  0  0  0  0
 14 15  1  0  0  0  0
 14 16  1  0  0  0  0
 14 20  1  0  0  0  0
 16 17  1  0  0  0  0
 16 18  1  0  0  0  0
 16 19  1  0  0  0  0
 20 21  1  0  0  0  0
 20 22  1  0  0  0  0
 20 23  1  0  0  0  0
 24 25  2  0  0  0  0
 24 26  1  0  0  0  0
 26 27  1  0  0  0  0
 26 28  1  0  0  0  0
 28 29  1  0  0  0  0
 28 30  1  0  0  0  0
 28 31  1  0  0  0  0
M  END
$$$$

  -OEChem-03222214063D

 31 30  0     1  0  0  0  0  0999 V2000
   -3.2889   -3.9496    1.3372 H   0  0  0  0  0  0  0  0  0  0  0  0
   -3.3233   -2.9590    0.8753 C   0  0  0  0  0  0  0  0  0  0  0  0
   -3.9663   -2.3123    1.4771 H   0  0  0  0  0  0  0  0  0  0  0  0
   -3.7470   -3.0515   -0.1276 H   0  0  0  0  0  0  0  0  0  0  0  0
   -1.9272   -2.3712    0.7941 C   0  0  0  0  0  0  0  0  0  0  0  0
   -0.9653   -3.0329    1.1524 O   0  0  0  0  0  0  0  0  0  0  0  0
   -1.7537   -1.0901    0.3127 N   0  0  0  0  0  0  0  0  0  0  0  0
   -2.5930   -0.5516    0.1066 H   0  0  0  0  0  0  0  0  0  0  0  0
   -0.4785   -0.3592    0.2933 C   0  0  1  0  0  0  0  0  0  0  0  0
    0.1485   -0.8310    1.0568 H   0  0  0  0  0  0  0  0  0  0  0  0
    0.3003   -0.5538   -1.0281 C   0  0  0  0  0  0  0  0  0  0  0  0
    1.3401   -0.2608   -0.8520 H   0  0  0  0  0  0  0  0  0  0  0  0
    0.3082   -1.6325   -1.2199 H   0  0  0  0  0  0  0  0  0  0  0  0
   -0.1683    0.1745   -2.3198 C   0  0  0  0  0  0  0  0  0  0  0  0
    0.3225    1.1519   -2.3772 H   0  0  0  0  0  0  0  0  0  0  0  0
    0.2236   -0.6874   -3.5307 C   0  0  0  0  0  0  0  0  0  0  0  0
   -0.3042   -1.6468   -3.5181 H   0  0  0  0  0  0  0  0  0  0  0  0
   -0.0188   -0.1710   -4.4650 H   0  0  0  0  0  0  0  0  0  0  0  0
    1.3003   -0.8839   -3.5222 H   0  0  0  0  0  0  0  0  0  0  0  0
   -1.6881    0.3799   -2.4462 C   0  0  0  0  0  0  0  0  0  0  0  0
   -2.0609    1.0908   -1.7106 H   0  0  0  0  0  0  0  0  0  0  0  0
   -1.9347    0.7829   -3.4336 H   0  0  0  0  0  0  0  0  0  0  0  0
   -2.2193   -0.5687   -2.3223 H   0  0  0  0  0  0  0  0  0  0  0  0
   -0.5854    1.1049    0.7749 C   0  0  0  0  0  0  0  0  0  0  0  0
   -1.6063    1.7558    0.5893 O   0  0  0  0  0  0  0  0  0  0  0  0
    0.3599    1.6064    1.6522 N   0  0  0  0  0  0  0  0  0  0  0  0
    1.1373    1.0010    1.8999 H   0  0  0  0  0  0  0  0  0  0  0  0
    0.2380    2.8998    2.3146 C   0  0  0  0  0  0  0  0  0  0  0  0
   -0.6662    2.9310    2.9316 H   0  0  0  0  0  0  0  0  0  0  0  0
    1.1033    3.0762    2.9607 H   0  0  0  0  0  0  0  0  0  0  0  0
    0.1888    3.7060    1.5751 H   0  0  0  0  0  0  0  0  0  0  0  0
  1  2  1  0  0  0  0
  2  3  1  0  0  0  0
  2  4  1  0  0  0  0
  2  5  1  0  0  0  0
  5  6  2  0  0  0  0
  5  7  1  0  0  0  0
  7  8  1  0  0  0  0
  7  9  1  0  0  0  0
  9 10  1  0  0  0  0
  9 11  1  0  0  0  0
  9 24  1  0  0  0  0
 11 12  1  0  0  0  0
 11 13  1  0  0  0  0
 11 14  1  0  0  0  0
 14 15  1  0  0  0  0
 14 16  1  0  0  0  0
 14 20  1  0  0  0  0
 16 17  1  0  0  0  0
 16 18  1  0  0  0  0
 16 19  1  0  0  0  0
 20 21  1  0  0  0  0
 20 22  1  0  0  0  0
 20 23  1  0  0  0  0
 24 25  2  0  0  0  0
 24 26  1  0  0  0  0
 26 27  1  0  0  0  0
 26 28  1  0  0  0  0
 28 29  1  0  0  0  0
 28 30  1  0  0  0  0
 28 31  1  0  0  0  0
M  END
$$$$

  -OEChem-03222214063D

 31 30  0     1  0  0  0  0  0999 V2000
   -3.2724   -3.9395    1.3539 H   0  0  0  0  0  0  0  0  0  0  0  0
   -3.3137   -2.9419    0.9080 C   0  0  0  0  0  0  0  0  0  0  0  0
   -3.9375   -2.3013    1.5360 H   0  0  0  0  0  0  0  0  0  0  0  0
   -3.7637   -3.0173   -0.0848 H   0  0  0  0  0  0  0  0  0  0  0  0
   -1.9177   -2.3586    0.7991 C   0  0  0  0  0  0  0  0  0  0  0  0
   -0.9503   -3.0242    1.1348 O   0  0  0  0  0  0  0  0  0  0  0  0
   -1.7507   -1.0757    0.3206 N   0  0  0  0  0  0  0  0  0  0  0  0
   -2.5935   -0.5292    0.1519 H   0  0  0  0  0  0  0  0  0  0  0  0
   -0.4773   -0.3418    0.2978 C   0  0  1  0  0  0  0  0  0  0  0  0
    0.1509   -0.8072    1.0644 H   0  0  0  0  0  0  0  0  0  0  0  0
    0.2985   -0.5608   -1.0230 C   0  0  0  0  0  0  0  0  0  0  0  0
    1.3352   -0.2585   -0.8433 H   0  0  0  0  0  0  0  0  0  0  0  0
    0.3217   -1.6445   -1.1828 H   0  0  0  0  0  0  0  0  0  0  0  0
   -0.1442    0.1318   -2.3484 C   0  0  0  0  0  0  0  0  0  0  0  0
    0.5756    0.9263   -2.5734 H   0  0  0  0  0  0  0  0  0  0  0  0
   -0.0982   -0.9060   -3.4805 C   0  0  0  0  0  0  0  0  0  0  0  0
   -0.8417   -1.6925   -3.3141 H   0  0  0  0  0  0  0  0  0  0  0  0
   -0.3026   -0.4329   -4.4460 H   0  0  0  0  0  0  0  0  0  0  0  0
    0.8925   -1.3685   -3.5340 H   0  0  0  0  0  0  0  0  0  0  0  0
   -1.5458    0.7607   -2.3769 C   0  0  0  0  0  0  0  0  0  0  0  0
   -1.8242    1.0237   -3.4022 H   0  0  0  0  0  0  0  0  0  0  0  0
   -1.5666    1.6855   -1.7991 H   0  0  0  0  0  0  0  0  0  0  0  0
   -2.2998    0.0707   -1.9900 H   0  0  0  0  0  0  0  0  0  0  0  0
   -0.6035    1.1175    0.7867 C   0  0  0  0  0  0  0  0  0  0  0  0
   -1.6587    1.7270    0.6537 O   0  0  0  0  0  0  0  0  0  0  0  0
    0.3359    1.6282    1.6652 N   0  0  0  0  0  0  0  0  0  0  0  0
    1.1408    1.0473    1.8814 H   0  0  0  0  0  0  0  0  0  0  0  0
    0.1794    2.8993    2.3624 C   0  0  0  0  0  0  0  0  0  0  0  0
   -0.7007    2.8738    3.0137 H   0  0  0  0  0  0  0  0  0  0  0  0
    1.0601    3.1035    2.9790 H   0  0  0  0  0  0  0  0  0  0  0  0
    0.0636    3.7183    1.6447 H   0  0  0  0  0  0  0  0  0  0  0  0
  1  2  1  0  0  0  0
  2  3  1  0  0  0  0
  2  4  1  0  0  0  0
  2  5  1  0  0  0  0
  5  6  2  0  0  0  0
  5  7  1  0  0  0  0
  7  8  1  0  0  0  0
  7  9  1  0  0  0  0
  9 10  1  0  0  0  0
  9 11  1  0  0  0  0
  9 24  1  0  0  0  0
 11 12  1  0  0  0  0
 11 13  1  0  0  0  0
 11 14  1  0  0  0  0
 14 15  1  0  0  0  0
 14 16  1  0  0  0  0
 14 20  1  0  0  0  0
 16 17  1  0  0  0  0
 16 18  1  0  0  0  0
 16 19  1  0  0  0  0
 20 21  1  0  0  0  0
 20 22  1  0  0  0  0
 20 23  1  0  0  0  0
 24 25  2  0  0  0  0
 24 26  1  0  0  0  0
 26 27  1  0  0  0  0
 26 28  1  0  0  0  0
 28 29  1  0  0  0  0
 28 30  1  0  0  0  0
 28 31  1  0  0  0  0
M  END
$$$$

  -OEChem-03222214063D

 31 30  0     1  0  0  0  0  0999 V2000
   -3.3563   -3.8993    1.2793 H   0  0  0  0  0  0  0  0  0  0  0  0
   -3.3752   -2.8945    0.8480 C   0  0  0  0  0  0  0  0  0  0  0  0
   -4.0007   -2.2537    1.4745 H   0  0  0  0  0  0  0  0  0  0  0  0
   -3.8080   -2.9481   -0.1538 H   0  0  0  0  0  0  0  0  0  0  0  0
   -1.9691   -2.3308    0.7730 C   0  0  0  0  0  0  0  0  0  0  0  0
   -1.0188   -3.0120    1.1261 O   0  0  0  0  0  0  0  0  0  0  0  0
   -1.7740   -1.0484    0.3046 N   0  0  0  0  0  0  0  0  0  0  0  0
   -2.6053   -0.4890    0.1216 H   0  0  0  0  0  0  0  0  0  0  0  0
   -0.4906   -0.3328    0.3146 C   0  0  1  0  0  0  0  0  0  0  0  0
    0.1107   -0.8067    1.0974 H   0  0  0  0  0  0  0  0  0  0  0  0
    0.3060   -0.5881   -0.9880 C   0  0  0  0  0  0  0  0  0  0  0  0
    1.3361   -0.2787   -0.7847 H   0  0  0  0  0  0  0  0  0  0  0  0
    0.3407   -1.6738   -1.1301 H   0  0  0  0  0  0  0  0  0  0  0  0
   -0.0949    0.0900   -2.3343 C   0  0  0  0  0  0  0  0  0  0  0  0
    0.7805    0.6372   -2.7005 H   0  0  0  0  0  0  0  0  0  0  0  0
   -0.4205   -1.0003   -3.3660 C   0  0  0  0  0  0  0  0  0  0  0  0
   -1.2950   -1.5788   -3.0507 H   0  0  0  0  0  0  0  0  0  0  0  0
   -0.6310   -0.5552   -4.3436 H   0  0  0  0  0  0  0  0  0  0  0  0
    0.4269   -1.6836   -3.4819 H   0  0  0  0  0  0  0  0  0  0  0  0
   -1.2629    1.0833   -2.3071 C   0  0  0  0  0  0  0  0  0  0  0  0
   -0.9768    1.9931   -1.7740 H   0  0  0  0  0  0  0  0  0  0  0  0
   -1.5352    1.3789   -3.3250 H   0  0  0  0  0  0  0  0  0  0  0  0
   -2.1460    0.6446   -1.8343 H   0  0  0  0  0  0  0  0  0  0  0  0
   -0.6080    1.1262    0.8080 C   0  0  0  0  0  0  0  0  0  0  0  0
   -1.6548    1.7473    0.6580 O   0  0  0  0  0  0  0  0  0  0  0  0
    0.3177    1.6200    1.7102 N   0  0  0  0  0  0  0  0  0  0  0  0
    1.1084    1.0260    1.9429 H   0  0  0  0  0  0  0  0  0  0  0  0
    0.1582    2.8861    2.4157 C   0  0  0  0  0  0  0  0  0  0  0  0
   -0.7269    2.8567    3.0599 H   0  0  0  0  0  0  0  0  0  0  0  0
    1.0349    3.0841    3.0398 H   0  0  0  0  0  0  0  0  0  0  0  0
    0.0489    3.7107    1.7035 H   0  0  0  0  0  0  0  0  0  0  0  0
  1  2  1  0  0  0  0
  2  3  1  0  0  0  0
  2  4  1  0  0  0  0
  2  5  1  0  0  0  0
  5  6  2  0  0  0  0
  5  7  1  0  0  0  0
  7  8  1  0  0  0  0
  7  9  1  0  0  0  0
  9 10  1  0  0  0  0
  9 11  1  0  0  0  0
  9 24  1  0  0  0  0
 11 12  1  0  0  0  0
 11 13  1  0  0  0  0
 11 14  1  0  0  0  0
 14 15  1  0  0  0  0
 14 16  1  0  0  0  0
 14 20  1  0  0  0  0
 16 17  1  0  0  0  0
 16 18  1  0  0  0  0
 16 19  1  0  0  0  0
 20 21  1  0  0  0  0
 20 22  1  0  0  0  0
 20 23  1  0  0  0  0
 24 25  2  0  0  0  0
 24 26  1  0  0  0  0
 26 27  1  0  0  0  0
 26 28  1  0  0  0  0
 28 29  1  0  0  0  0
 28 30  1  0  0  0  0
 28 31  1  0  0  0  0
M  END
$$$$

  -OEChem-03222214063D

 31 30  0     1  0  0  0  0  0999 V2000
   -3.2998   -3.9351    1.2466 H   0  0  0  0  0  0  0  0  0  0  0  0
   -3.3342   -2.9198    0.8416 C   0  0  0  0  0  0  0  0  0  0  0  0
   -3.9535   -2.3007    1.4953 H   0  0  0  0  0  0  0  0  0  0  0  0
   -3.7852   -2.9519   -0.1532 H   0  0  0  0  0  0  0  0  0  0  0  0
   -1.9338   -2.3428    0.7564 C   0  0  0  0  0  0  0  0  0  0  0  0
   -0.9736   -3.0227    1.0842 O   0  0  0  0  0  0  0  0  0  0  0  0
   -1.7547   -1.0497    0.3108 N   0  0  0  0  0  0  0  0  0  0  0  0
   -2.5919   -0.4935    0.1458 H   0  0  0  0  0  0  0  0  0  0  0  0
   -0.4755   -0.3271    0.3106 C   0  0  1  0  0  0  0  0  0  0  0  0
    0.1411   -0.8102    1.0758 H   0  0  0  0  0  0  0  0  0  0  0  0
    0.2968   -0.5734   -1.0094 C   0  0  0  0  0  0  0  0  0  0  0  0
    1.3224   -0.2409   -0.8193 H   0  0  0  0  0  0  0  0  0  0  0  0
    0.3552   -1.6561   -1.1639 H   0  0  0  0  0  0  0  0  0  0  0  0
   -0.1338    0.1102   -2.3407 C   0  0  0  0  0  0  0  0  0  0  0  0
    0.7851    0.4129   -2.8545 H   0  0  0  0  0  0  0  0  0  0  0  0
   -0.8304   -0.9213   -3.2388 C   0  0  0  0  0  0  0  0  0  0  0  0
   -1.7503   -1.2804   -2.7665 H   0  0  0  0  0  0  0  0  0  0  0  0
   -1.0864   -0.4776   -4.2062 H   0  0  0  0  0  0  0  0  0  0  0  0
   -0.1750   -1.7784   -3.4225 H   0  0  0  0  0  0  0  0  0  0  0  0
   -1.0189    1.3554   -2.2462 C   0  0  0  0  0  0  0  0  0  0  0  0
   -0.5175    2.1425   -1.6761 H   0  0  0  0  0  0  0  0  0  0  0  0
   -1.2197    1.7509   -3.2466 H   0  0  0  0  0  0  0  0  0  0  0  0
   -1.9792    1.1178   -1.7792 H   0  0  0  0  0  0  0  0  0  0  0  0
   -0.5905    1.1211    0.8362 C   0  0  0  0  0  0  0  0  0  0  0  0
   -1.6406    1.7423    0.7128 O   0  0  0  0  0  0  0  0  0  0  0  0
    0.3491    1.6034    1.7304 N   0  0  0  0  0  0  0  0  0  0  0  0
    1.1442    1.0075    1.9422 H   0  0  0  0  0  0  0  0  0  0  0  0
    0.1911    2.8523    2.4664 C   0  0  0  0  0  0  0  0  0  0  0  0
   -0.6751    2.7964    3.1340 H   0  0  0  0  0  0  0  0  0  0  0  0
    1.0816    3.0508    3.0702 H   0  0  0  0  0  0  0  0  0  0  0  0
    0.0501    3.6897    1.7749 H   0  0  0  0  0  0  0  0  0  0  0  0
  1  2  1  0  0  0  0
  2  3  1  0  0  0  0
  2  4  1  0  0  0  0
  2  5  1  0  0  0  0
  5  6  2  0  0  0  0
  5  7  1  0  0  0  0
  7  8  1  0  0  0  0
  7  9  1  0  0  0  0
  9 10  1  0  0  0  0
  9 11  1  0  0  0  0
  9 24  1  0  0  0  0
 11 12  1  0  0  0  0
 11 13  1  0  0  0  0
 11 14  1  0  0  0  0
 14 15  1  0  0  0  0
 14 16  1  0  0  0  0
 14 20  1  0  0  0  0
 16 17  1  0  0  0  0
 16 18  1  0  0  0  0
 16 19  1  0  0  0  0
 20 21  1  0  0  0  0
 20 22  1  0  0  0  0
 20 23  1  0  0  0  0
 24 25  2  0  0  0  0
 24 26  1  0  0  0  0
 26 27  1  0  0  0  0
 26 28  1  0  0  0  0
 28 29  1  0  0  0  0
 28 30  1  0  0  0  0
 28 31  1  0  0  0  0
M  END
$$$$

  -OEChem-03222214063D

 31 30  0     1  0  0  0  0  0999 V2000
   -3.2837   -3.9394    1.2860 H   0  0  0  0  0  0  0  0  0  0  0  0
   -3.3190   -2.9310    0.8640 C   0  0  0  0  0  0  0  0  0  0  0  0
   -3.9452   -2.3038    1.5032 H   0  0  0  0  0  0  0  0  0  0  0  0
   -3.7626   -2.9811   -0.1333 H   0  0  0  0  0  0  0  0  0  0  0  0
   -1.9199   -2.3507    0.7783 C   0  0  0  0  0  0  0  0  0  0  0  0
   -0.9575   -3.0282    1.1048 O   0  0  0  0  0  0  0  0  0  0  0  0
   -1.7432   -1.0600    0.3252 N   0  0  0  0  0  0  0  0  0  0  0  0
   -2.5816   -0.5049    0.1618 H   0  0  0  0  0  0  0  0  0  0  0  0
   -0.4655   -0.3349    0.3187 C   0  0  1  0  0  0  0  0  0  0  0  0
    0.1566   -0.8122    1.0831 H   0  0  0  0  0  0  0  0  0  0  0  0
    0.3012   -0.5793   -1.0055 C   0  0  0  0  0  0  0  0  0  0  0  0
    1.3276   -0.2459   -0.8213 H   0  0  0  0  0  0  0  0  0  0  0  0
    0.3566   -1.6609   -1.1701 H   0  0  0  0  0  0  0  0  0  0  0  0
   -0.1402    0.1056   -2.3287 C   0  0  0  0  0  0  0  0  0  0  0  0
    0.7550    0.1499   -2.9585 H   0  0  0  0  0  0  0  0  0  0  0  0
   -1.1533   -0.7791   -3.0661 C   0  0  0  0  0  0  0  0  0  0  0  0
   -2.0760   -0.8744   -2.4857 H   0  0  0  0  0  0  0  0  0  0  0  0
   -1.4000   -0.3445   -4.0398 H   0  0  0  0  0  0  0  0  0  0  0  0
   -0.7424   -1.7795   -3.2339 H   0  0  0  0  0  0  0  0  0  0  0  0
   -0.6766    1.5362   -2.2373 C   0  0  0  0  0  0  0  0  0  0  0  0
   -0.0100    2.1641   -1.6389 H   0  0  0  0  0  0  0  0  0  0  0  0
   -0.7423    1.9738   -3.2382 H   0  0  0  0  0  0  0  0  0  0  0  0
   -1.6796    1.5499   -1.8033 H   0  0  0  0  0  0  0  0  0  0  0  0
   -0.5935    1.1139    0.8373 C   0  0  0  0  0  0  0  0  0  0  0  0
   -1.6466    1.7275    0.7021 O   0  0  0  0  0  0  0  0  0  0  0  0
    0.3404    1.6097    1.7300 N   0  0  0  0  0  0  0  0  0  0  0  0
    1.1436    1.0249    1.9431 H   0  0  0  0  0  0  0  0  0  0  0  0
    0.1794    2.8707    2.4442 C   0  0  0  0  0  0  0  0  0  0  0  0
   -0.7024    2.8341    3.0923 H   0  0  0  0  0  0  0  0  0  0  0  0
    1.0579    3.0680    3.0659 H   0  0  0  0  0  0  0  0  0  0  0  0
    0.0638    3.6991    1.7374 H   0  0  0  0  0  0  0  0  0  0  0  0
  1  2  1  0  0  0  0
  2  3  1  0  0  0  0
  2  4  1  0  0  0  0
  2  5  1  0  0  0  0
  5  6  2  0  0  0  0
  5  7  1  0  0  0  0
  7  8  1  0  0  0  0
  7  9  1  0  0  0  0
  9 10  1  0  0  0  0
  9 11  1  0  0  0  0
  9 24  1  0  0  0  0
 11 12  1  0  0  0  0
 11 13  1  0  0  0  0
 11 14  1  0  0  0  0
 14 15  1  0  0  0  0
 14 16  1  0  0  0  0
 14 20  1  0  0  0  0
 16 17  1  0  0  0  0
 16 18  1  0  0  0  0
 16 19  1  0  0  0  0
 20 21  1  0  0  0  0
 20 22  1  0  0  0  0
 20 23  1  0  0  0  0
 24 25  2  0  0  0  0
 24 26  1  0  0  0  0
 26 27  1  0  0  0  0
 26 28  1  0  0  0  0
 28 29  1  0  0  0  0
 28 30  1  0  0  0  0
 28 31  1  0  0  0  0
M  END
$$$$

  -OEChem-03222214063D

 31 30  0     1  0  0  0  0  0999 V2000
   -3.3665   -3.8877    1.3325 H   0  0  0  0  0  0  0  0  0  0  0  0
   -3.3710   -2.8865    0.8928 C   0  0  0  0  0  0  0  0  0  0  0  0
   -3.9904   -2.2329    1.5117 H   0  0  0  0  0  0  0  0  0  0  0  0
   -3.8017   -2.9434   -0.1097 H   0  0  0  0  0  0  0  0  0  0  0  0
   -1.9575   -2.3410    0.8180 C   0  0  0  0  0  0  0  0  0  0  0  0
   -1.0177   -3.0277    1.1880 O   0  0  0  0  0  0  0  0  0  0  0  0
   -1.7430   -1.0696    0.3291 N   0  0  0  0  0  0  0  0  0  0  0  0
   -2.5652   -0.5012    0.1320 H   0  0  0  0  0  0  0  0  0  0  0  0
   -0.4510   -0.3701    0.3353 C   0  0  1  0  0  0  0  0  0  0  0  0
    0.1574   -0.8380    1.1162 H   0  0  0  0  0  0  0  0  0  0  0  0
    0.3220   -0.6268   -0.9829 C   0  0  0  0  0  0  0  0  0  0  0  0
    1.3598   -0.3332   -0.7954 H   0  0  0  0  0  0  0  0  0  0  0  0
    0.3337   -1.7077   -1.1602 H   0  0  0  0  0  0  0  0  0  0  0  0
   -0.1010    0.0763   -2.2993 C   0  0  0  0  0  0  0  0  0  0  0  0
    0.7031   -0.1391   -3.0113 H   0  0  0  0  0  0  0  0  0  0  0  0
   -1.3741   -0.5481   -2.8811 C   0  0  0  0  0  0  0  0  0  0  0  0
   -2.2397   -0.3205   -2.2522 H   0  0  0  0  0  0  0  0  0  0  0  0
   -1.5650   -0.1530   -3.8837 H   0  0  0  0  0  0  0  0  0  0  0  0
   -1.2710   -1.6352   -2.9543 H   0  0  0  0  0  0  0  0  0  0  0  0
   -0.2194    1.6034   -2.2463 C   0  0  0  0  0  0  0  0  0  0  0  0
    0.5873    2.0352   -1.6463 H   0  0  0  0  0  0  0  0  0  0  0  0
   -1.1818    1.9126   -1.8327 H   0  0  0  0  0  0  0  0  0  0  0  0
   -0.1489    2.0156   -3.2575 H   0  0  0  0  0  0  0  0  0  0  0  0
   -0.5943    1.0920    0.8073 C   0  0  0  0  0  0  0  0  0  0  0  0
   -1.6392    1.7021    0.6066 O   0  0  0  0  0  0  0  0  0  0  0  0
    0.3070    1.6166    1.7162 N   0  0  0  0  0  0  0  0  0  0  0  0
    1.0985    1.0374    1.9810 H   0  0  0  0  0  0  0  0  0  0  0  0
    0.1262    2.9055    2.3733 C   0  0  0  0  0  0  0  0  0  0  0  0
   -0.7739    2.8950    2.9969 H   0  0  0  0  0  0  0  0  0  0  0  0
    0.9868    3.1289    3.0110 H   0  0  0  0  0  0  0  0  0  0  0  0
    0.0313    3.7041    1.6301 H   0  0  0  0  0  0  0  0  0  0  0  0
  1  2  1  0  0  0  0
  2  3  1  0  0  0  0
  2  4  1  0  0  0  0
  2  5  1  0  0  0  0
  5  6  2  0  0  0  0
  5  7  1  0  0  0  0
  7  8  1  0  0  0  0
  7  9  1  0  0  0  0
  9 10  1  0  0  0  0
  9 11  1  0  0  0  0
  9 24  1  0  0  0  0
 11 12  1  0  0  0  0
 11 13  1  0  0  0  0
 11 14  1  0  0  0  0
 14 15  1  0  0  0  0
 14 16  1  0  0  0  0
 14 20  1  0  0  0  0
 16 17  1  0  0  0  0
 16 18  1  0  0  0  0
 16 19  1  0  0  0  0
 20 21  1  0  0  0  0
 20 22  1  0  0  0  0
 20 23  1  0  0  0  0
 24 25  2  0  0  0  0
 24 26  1  0  0  0  0
 26 27  1  0  0  0  0
 26 28  1  0  0  0  0
 28 29  1  0  0  0  0
 28 30  1  0  0  0  0
 28 31  1  0  0  0  0
M  END
$$$$

  -OEChem-03222214063D

 31 30  0     1  0  0  0  0  0999 V2000
   -3.3678   -3.9268    1.2658 H   0  0  0  0  0  0  0  0  0  0  0  0
   -3.3648   -2.9255    0.8261 C   0  0  0  0  0  0  0  0  0  0  0  0
   -4.0023   -2.2743    1.4289 H   0  0  0  0  0  0  0  0  0  0  0  0
   -3.7692   -2.9840   -0.1872 H   0  0  0  0  0  0  0  0  0  0  0  0
   -1.9516   -2.3757    0.7873 C   0  0  0  0  0  0  0  0  0  0  0  0
   -1.0201   -3.0567    1.1872 O   0  0  0  0  0  0  0  0  0  0  0  0
   -1.7267   -1.1065    0.2979 N   0  0  0  0  0  0  0  0  0  0  0  0
   -2.5439   -0.5402    0.0751 H   0  0  0  0  0  0  0  0  0  0  0  0
   -0.4356   -0.4054    0.3377 C   0  0  1  0  0  0  0  0  0  0  0  0
    0.1644   -0.8737    1.1246 H   0  0  0  0  0  0  0  0  0  0  0  0
    0.3565   -0.6204   -0.9763 C   0  0  0  0  0  0  0  0  0  0  0  0
    1.3992   -0.3566   -0.7726 H   0  0  0  0  0  0  0  0  0  0  0  0
    0.3448   -1.6937   -1.1943 H   0  0  0  0  0  0  0  0  0  0  0  0
   -0.0604    0.1286   -2.2684 C   0  0  0  0  0  0  0  0  0  0  0  0
    0.6015   -0.2570   -3.0516 H   0  0  0  0  0  0  0  0  0  0  0  0
   -1.4928   -0.1991   -2.7027 C   0  0  0  0  0  0  0  0  0  0  0  0
   -2.2187    0.2493   -2.0181 H   0  0  0  0  0  0  0  0  0  0  0  0
   -1.6822    0.1935   -3.7065 H   0  0  0  0  0  0  0  0  0  0  0  0
   -1.6489   -1.2820   -2.7213 H   0  0  0  0  0  0  0  0  0  0  0  0
    0.1679    1.6461   -2.2304 C   0  0  0  0  0  0  0  0  0  0  0  0
    1.1159    1.8827   -1.7378 H   0  0  0  0  0  0  0  0  0  0  0  0
   -0.6395    2.1633   -1.7091 H   0  0  0  0  0  0  0  0  0  0  0  0
    0.2052    2.0398   -3.2508 H   0  0  0  0  0  0  0  0  0  0  0  0
   -0.6111    1.0554    0.7996 C   0  0  0  0  0  0  0  0  0  0  0  0
   -1.6461    1.6603    0.5383 O   0  0  0  0  0  0  0  0  0  0  0  0
    0.2533    1.5947    1.7351 N   0  0  0  0  0  0  0  0  0  0  0  0
    1.0357    1.0214    2.0373 H   0  0  0  0  0  0  0  0  0  0  0  0
    0.0400    2.8879    2.3735 C   0  0  0  0  0  0  0  0  0  0  0  0
   -0.8883    2.8799    2.9544 H   0  0  0  0  0  0  0  0  0  0  0  0
    0.8693    3.1173    3.0495 H   0  0  0  0  0  0  0  0  0  0  0  0
   -0.0212    3.6811    1.6209 H   0  0  0  0  0  0  0  0  0  0  0  0
  1  2  1  0  0  0  0
  2  3  1  0  0  0  0
  2  4  1  0  0  0  0
  2  5  1  0  0  0  0
  5  6  2  0  0  0  0
  5  7  1  0  0  0  0
  7  8  1  0  0  0  0
  7  9  1  0  0  0  0
  9 10  1  0  0  0  0
  9 11  1  0  0  0  0
  9 24  1  0  0  0  0
 11 12  1  0  0  0  0
 11 13  1  0  0  0  0
 11 14  1  0  0  0  0
 14 15  1  0  0  0  0
 14 16  1  0  0  0  0
 14 20  1  0  0  0  0
 16 17  1  0  0  0  0
 16 18  1  0  0  0  0
 16 19  1  0  0  0  0
 20 21  1  0  0  0  0
 20 22  1  0  0  0  0
 20 23  1  0  0  0  0
 24 25  2  0  0  0  0
 24 26  1  0  0  0  0
 26 27  1  0  0  0  0
 26 28  1  0  0  0  0
 28 29  1  0  0  0  0
 28 30  1  0  0  0  0
 28 31  1  0  0  0  0
M  END
$$$$

  -OEChem-03222214063D

 31 30  0     1  0  0  0  0  0999 V2000
   -3.3316   -3.9565    1.2810 H   0  0  0  0  0  0  0  0  0  0  0  0
   -3.3403   -2.9545    0.8427 C   0  0  0  0  0  0  0  0  0  0  0  0
   -3.9829   -2.3109    1.4484 H   0  0  0  0  0  0  0  0  0  0  0  0
   -3.7471   -3.0158   -0.1695 H   0  0  0  0  0  0  0  0  0  0  0  0
   -1.9331   -2.3895    0.8004 C   0  0  0  0  0  0  0  0  0  0  0  0
   -0.9931   -3.0623    1.1938 O   0  0  0  0  0  0  0  0  0  0  0  0
   -1.7237   -1.1169    0.3122 N   0  0  0  0  0  0  0  0  0  0  0  0
   -2.5474   -0.5633    0.0823 H   0  0  0  0  0  0  0  0  0  0  0  0
   -0.4372   -0.4058    0.3326 C   0  0  1  0  0  0  0  0  0  0  0  0
    0.1744   -0.8763    1.1093 H   0  0  0  0  0  0  0  0  0  0  0  0
    0.3459   -0.6070   -0.9884 C   0  0  0  0  0  0  0  0  0  0  0  0
    1.3936   -0.3548   -0.7960 H   0  0  0  0  0  0  0  0  0  0  0  0
    0.3223   -1.6787   -1.2127 H   0  0  0  0  0  0  0  0  0  0  0  0
   -0.0942    0.1436   -2.2735 C   0  0  0  0  0  0  0  0  0  0  0  0
    0.3853   -0.3761   -3.1101 H   0  0  0  0  0  0  0  0  0  0  0  0
   -1.6068    0.1147   -2.5289 C   0  0  0  0  0  0  0  0  0  0  0  0
   -2.1500    0.7056   -1.7880 H   0  0  0  0  0  0  0  0  0  0  0  0
   -1.8278    0.5276   -3.5179 H   0  0  0  0  0  0  0  0  0  0  0  0
   -1.9770   -0.9145   -2.4986 H   0  0  0  0  0  0  0  0  0  0  0  0
    0.4114    1.5935   -2.3071 C   0  0  0  0  0  0  0  0  0  0  0  0
    1.4847    1.6312   -2.0975 H   0  0  0  0  0  0  0  0  0  0  0  0
    0.2432    2.0240   -3.2990 H   0  0  0  0  0  0  0  0  0  0  0  0
   -0.1080    2.2192   -1.5780 H   0  0  0  0  0  0  0  0  0  0  0  0
   -0.5895    1.0567    0.7997 C   0  0  0  0  0  0  0  0  0  0  0  0
   -1.6050    1.6904    0.5338 O   0  0  0  0  0  0  0  0  0  0  0  0
    0.3004    1.5859    1.7170 N   0  0  0  0  0  0  0  0  0  0  0  0
    1.0802    1.0025    2.0065 H   0  0  0  0  0  0  0  0  0  0  0  0
    0.1320    2.8953    2.3358 C   0  0  0  0  0  0  0  0  0  0  0  0
   -0.7902    2.9246    2.9258 H   0  0  0  0  0  0  0  0  0  0  0  0
    0.9746    3.1106    2.9998 H   0  0  0  0  0  0  0  0  0  0  0  0
    0.0869    3.6778    1.5710 H   0  0  0  0  0  0  0  0  0  0  0  0
  1  2  1  0  0  0  0
  2  3  1  0  0  0  0
  2  4  1  0  0  0  0
  2  5  1  0  0  0  0
  5  6  2  0  0  0  0
  5  7  1  0  0  0  0
  7  8  1  0  0  0  0
  7  9  1  0  0  0  0
  9 10  1  0  0  0  0
  9 11  1  0  0  0  0
  9 24  1  0  0  0  0
 11 12  1  0  0  0  0
 11 13  1  0  0  0  0
 11 14  1  0  0  0  0
 14 15  1  0  0  0  0
 14 16  1  0  0  0  0
 14 20  1  0  0  0  0
 16 17  1  0  0  0  0
 16 18  1  0  0  0  0
 16 19  1  0  0  0  0
 20 21  1  0  0  0  0
 20 22  1  0  0  0  0
 20 23  1  0  0  0  0
 24 25  2  0  0  0  0
 24 26  1  0  0  0  0
 26 27  1  0  0  0  0
 26 28  1  0  0  0  0
 28 29  1  0  0  0  0
 28 30  1  0  0  0  0
 28 31  1  0  0  0  0
M  END
$$$$

  -OEChem-03222214063D

 31 30  0     1  0  0  0  0  0999 V2000
   -3.3108   -3.9657    1.2890 H   0  0  0  0  0  0  0  0  0  0  0  0
   -3.3352   -2.9627    0.8539 C   0  0  0  0  0  0  0  0  0  0  0  0
   -3.9786   -2.3280    1.4681 H   0  0  0  0  0  0  0  0  0  0  0  0
   -3.7521   -3.0256   -0.1542 H   0  0  0  0  0  0  0  0  0  0  0  0
   -1.9348   -2.3819    0.7993 C   0  0  0  0  0  0  0  0  0  0  0  0
   -0.9830   -3.0478    1.1764 O   0  0  0  0  0  0  0  0  0  0  0  0
   -1.7459   -1.1031    0.3184 N   0  0  0  0  0  0  0  0  0  0  0  0
   -2.5793   -0.5594    0.1014 H   0  0  0  0  0  0  0  0  0  0  0  0
   -0.4690   -0.3751    0.3272 C   0  0  1  0  0  0  0  0  0  0  0  0
    0.1375   -0.8427    1.1098 H   0  0  0  0  0  0  0  0  0  0  0  0
    0.3419   -0.5872   -0.9738 C   0  0  0  0  0  0  0  0  0  0  0  0
    1.3846   -0.3296   -0.7626 H   0  0  0  0  0  0  0  0  0  0  0  0
    0.3290   -1.6637   -1.1751 H   0  0  0  0  0  0  0  0  0  0  0  0
   -0.0813    0.1225   -2.2906 C   0  0  0  0  0  0  0  0  0  0  0  0
    0.2314   -0.5223   -3.1189 H   0  0  0  0  0  0  0  0  0  0  0  0
   -1.5839    0.3950   -2.4543 C   0  0  0  0  0  0  0  0  0  0  0  0
   -1.9395    1.1644   -1.7694 H   0  0  0  0  0  0  0  0  0  0  0  0
   -1.7886    0.7399   -3.4725 H   0  0  0  0  0  0  0  0  0  0  0  0
   -2.1570   -0.5218   -2.2896 H   0  0  0  0  0  0  0  0  0  0  0  0
    0.6637    1.4578   -2.4322 C   0  0  0  0  0  0  0  0  0  0  0  0
    1.7461    1.3004   -2.3967 H   0  0  0  0  0  0  0  0  0  0  0  0
    0.4211    1.9282   -3.3902 H   0  0  0  0  0  0  0  0  0  0  0  0
    0.3859    2.1484   -1.6303 H   0  0  0  0  0  0  0  0  0  0  0  0
   -0.5949    1.0891    0.8022 C   0  0  0  0  0  0  0  0  0  0  0  0
   -1.6182    1.7295    0.5928 O   0  0  0  0  0  0  0  0  0  0  0  0
    0.3232    1.6002    1.7025 N   0  0  0  0  0  0  0  0  0  0  0  0
    1.1078    1.0086    1.9607 H   0  0  0  0  0  0  0  0  0  0  0  0
    0.1788    2.8994    2.3485 C   0  0  0  0  0  0  0  0  0  0  0  0
   -0.7243    2.9218    2.9673 H   0  0  0  0  0  0  0  0  0  0  0  0
    1.0424    3.1012    2.9894 H   0  0  0  0  0  0  0  0  0  0  0  0
    0.1122    3.6949    1.5990 H   0  0  0  0  0  0  0  0  0  0  0  0
  1  2  1  0  0  0  0
  2  3  1  0  0  0  0
  2  4  1  0  0  0  0
  2  5  1  0  0  0  0
  5  6  2  0  0  0  0
  5  7  1  0  0  0  0
  7  8  1  0  0  0  0
  7  9  1  0  0  0  0
  9 10  1  0  0  0  0
  9 11  1  0  0  0  0
  9 24  1  0  0  0  0
 11 12  1  0  0  0  0
 11 13  1  0  0  0  0
 11 14  1  0  0  0  0
 14 15  1  0  0  0  0
 14 16  1  0  0  0  0
 14 20  1  0  0  0  0
 16 17  1  0  0  0  0
 16 18  1  0  0  0  0
 16 19  1  0  0  0  0
 20 21  1  0  0  0  0
 20 22  1  0  0  0  0
 20 23  1  0  0  0  0
 24 25  2  0  0  0  0
 24 26  1  0  0  0  0
 26 27  1  0  0  0  0
 26 28  1  0  0  0  0
 28 29  1  0  0  0  0
 28 30  1  0  0  0  0
 28 31  1  0  0  0  0
M  END
$$$$

  -OEChem-03222214063D

 31 30  0     1  0  0  0  0  0999 V2000
   -3.2665   -3.9413    1.3997 H   0  0  0  0  0  0  0  0  0  0  0  0
   -3.3066   -2.9448    0.9509 C   0  0  0  0  0  0  0  0  0  0  0  0
   -3.9374   -2.3042    1.5719 H   0  0  0  0  0  0  0  0  0  0  0  0
   -3.7484   -3.0244   -0.0452 H   0  0  0  0  0  0  0  0  0  0  0  0
   -1.9109   -2.3585    0.8527 C   0  0  0  0  0  0  0  0  0  0  0  0
   -0.9482   -3.0111    1.2251 O   0  0  0  0  0  0  0  0  0  0  0  0
   -1.7382   -1.0882    0.3433 N   0  0  0  0  0  0  0  0  0  0  0  0
   -2.5792   -0.5485    0.1452 H   0  0  0  0  0  0  0  0  0  0  0  0
   -0.4675   -0.3490    0.3332 C   0  0  1  0  0  0  0  0  0  0  0  0
    0.1432   -0.7919    1.1268 H   0  0  0  0  0  0  0  0  0  0  0  0
    0.3453   -0.5883   -0.9612 C   0  0  0  0  0  0  0  0  0  0  0  0
    1.3828   -0.3150   -0.7434 H   0  0  0  0  0  0  0  0  0  0  0  0
    0.3485   -1.6706   -1.1298 H   0  0  0  0  0  0  0  0  0  0  0  0
   -0.0681    0.0764   -2.3085 C   0  0  0  0  0  0  0  0  0  0  0  0
    0.0027   -0.6990   -3.0792 H   0  0  0  0  0  0  0  0  0  0  0  0
   -1.4796    0.6733   -2.3986 C   0  0  0  0  0  0  0  0  0  0  0  0
   -1.7252    0.8783   -3.4452 H   0  0  0  0  0  0  0  0  0  0  0  0
   -1.5522    1.6179   -1.8571 H   0  0  0  0  0  0  0  0  0  0  0  0
   -2.2265   -0.0246   -2.0131 H   0  0  0  0  0  0  0  0  0  0  0  0
    0.9325    1.1848   -2.6656 C   0  0  0  0  0  0  0  0  0  0  0  0
    1.9459    0.7781   -2.7401 H   0  0  0  0  0  0  0  0  0  0  0  0
    0.6767    1.6357   -3.6297 H   0  0  0  0  0  0  0  0  0  0  0  0
    0.9263    1.9700   -1.9027 H   0  0  0  0  0  0  0  0  0  0  0  0
   -0.6131    1.1223    0.7788 C   0  0  0  0  0  0  0  0  0  0  0  0
   -1.6662    1.7234    0.5996 O   0  0  0  0  0  0  0  0  0  0  0  0
    0.3007    1.6619    1.6670 N   0  0  0  0  0  0  0  0  0  0  0  0
    1.0990    1.0887    1.9246 H   0  0  0  0  0  0  0  0  0  0  0  0
    0.1195    2.9506    2.3252 C   0  0  0  0  0  0  0  0  0  0  0  0
   -0.7718    2.9342    2.9612 H   0  0  0  0  0  0  0  0  0  0  0  0
    0.9869    3.1809    2.9512 H   0  0  0  0  0  0  0  0  0  0  0  0
    0.0089    3.7478    1.5827 H   0  0  0  0  0  0  0  0  0  0  0  0
  1  2  1  0  0  0  0
  2  3  1  0  0  0  0
  2  4  1  0  0  0  0
  2  5  1  0  0  0  0
  5  6  2  0  0  0  0
  5  7  1  0  0  0  0
  7  8  1  0  0  0  0
  7  9  1  0  0  0  0
  9 10  1  0  0  0  0
  9 11  1  0  0  0  0
  9 24  1  0  0  0  0
 11 12  1  0  0  0  0
 11 13  1  0  0  0  0
 11 14  1  0  0  0  0
 14 15  1  0  0  0  0
 14 16  1  0  0  0  0
 14 20  1  0  0  0  0
 16 17  1  0  0  0  0
 16 18  1  0  0  0  0
 16 19  1  0  0  0  0
 20 21  1  0  0  0  0
 20 22  1  0  0  0  0
 20 23  1  0  0  0  0
 24 25  2  0  0  0  0
 24 26  1  0  0  0  0
 26 27  1  0  0  0  0
 26 28  1  0  0  0  0
 28 29  1  0  0  0  0
 28 30  1  0  0  0  0
 28 31  1  0  0  0  0
M  END
$$$$

  -OEChem-03222214063D

 31 30  0     1  0  0  0  0  0999 V2000
   -3.3023   -3.9380    1.2775 H   0  0  0  0  0  0  0  0  0  0  0  0
   -3.3309   -2.9331    0.8470 C   0  0  0  0  0  0  0  0  0  0  0  0
   -3.9636   -2.2994    1.4734 H   0  0  0  0  0  0  0  0  0  0  0  0
   -3.7627   -2.9907   -0.1551 H   0  0  0  0  0  0  0  0  0  0  0  0
   -1.9301   -2.3556    0.7743 C   0  0  0  0  0  0  0  0  0  0  0  0
   -0.9741   -3.0275    1.1294 O   0  0  0  0  0  0  0  0  0  0  0  0
   -1.7460   -1.0703    0.3090 N   0  0  0  0  0  0  0  0  0  0  0  0
   -2.5824   -0.5184    0.1264 H   0  0  0  0  0  0  0  0  0  0  0  0
   -0.4702   -0.3403    0.3279 C   0  0  1  0  0  0  0  0  0  0  0  0
    0.1329   -0.8111    1.1112 H   0  0  0  0  0  0  0  0  0  0  0  0
    0.3391   -0.5704   -0.9710 C   0  0  0  0  0  0  0  0  0  0  0  0
    1.3699   -0.2840   -0.7391 H   0  0  0  0  0  0  0  0  0  0  0  0
    0.3595   -1.6505   -1.1530 H   0  0  0  0  0  0  0  0  0  0  0  0
   -0.0641    0.1181   -2.3103 C   0  0  0  0  0  0  0  0  0  0  0  0
   -0.2918   -0.6901   -3.0142 H   0  0  0  0  0  0  0  0  0  0  0  0
   -1.2935    1.0341   -2.2992 C   0  0  0  0  0  0  0  0  0  0  0  0
   -1.0779    1.9741   -1.7849 H   0  0  0  0  0  0  0  0  0  0  0  0
   -1.5834    1.2781   -3.3259 H   0  0  0  0  0  0  0  0  0  0  0  0
   -2.1455    0.5449   -1.8204 H   0  0  0  0  0  0  0  0  0  0  0  0
    1.1240    0.9068   -2.8777 C   0  0  0  0  0  0  0  0  0  0  0  0
    1.9917    0.2521   -3.0063 H   0  0  0  0  0  0  0  0  0  0  0  0
    0.8706    1.3309   -3.8546 H   0  0  0  0  0  0  0  0  0  0  0  0
    1.3998    1.7254   -2.2052 H   0  0  0  0  0  0  0  0  0  0  0  0
   -0.6071    1.1164    0.8226 C   0  0  0  0  0  0  0  0  0  0  0  0
   -1.6595    1.7261    0.6661 O   0  0  0  0  0  0  0  0  0  0  0  0
    0.3068    1.6200    1.7312 N   0  0  0  0  0  0  0  0  0  0  0  0
    1.1069    1.0386    1.9640 H   0  0  0  0  0  0  0  0  0  0  0  0
    0.1306    2.8871    2.4308 C   0  0  0  0  0  0  0  0  0  0  0  0
   -0.7664    2.8568    3.0585 H   0  0  0  0  0  0  0  0  0  0  0  0
    0.9946    3.0891    3.0711 H   0  0  0  0  0  0  0  0  0  0  0  0
    0.0323    3.7093    1.7141 H   0  0  0  0  0  0  0  0  0  0  0  0
  1  2  1  0  0  0  0
  2  3  1  0  0  0  0
  2  4  1  0  0  0  0
  2  5  1  0  0  0  0
  5  6  2  0  0  0  0
  5  7  1  0  0  0  0
  7  8  1  0  0  0  0
  7  9  1  0  0  0  0
  9 10  1  0  0  0  0
  9 11  1  0  0  0  0
  9 24  1  0  0  0  0
 11 12  1  0  0  0  0
 11 13  1  0  0  0  0
 11 14  1  0  0  0  0
 14 15  1  0  0  0  0
 14 16  1  0  0  0  0
 14 20  1  0  0  0  0
 16 17  1  0  0  0  0
 16 18  1  0  0  0  0
 16 19  1  0  0  0  0
 20 21  1  0  0  0  0
 20 22  1  0  0  0  0
 20 23  1  0  0  0  0
 24 25  2  0  0  0  0
 24 26  1  0  0  0  0
 26 27  1  0  0  0  0
 26 28  1  0  0  0  0
 28 29  1  0  0  0  0
 28 30  1  0  0  0  0
 28 31  1  0  0  0  0
M  END
$$$$

  -OEChem-03222214063D

 31 30  0     1  0  0  0  0  0999 V2000
   -3.2826   -3.9487    1.2124 H   0  0  0  0  0  0  0  0  0  0  0  0
   -3.3170   -2.9352    0.8033 C   0  0  0  0  0  0  0  0  0  0  0  0
   -3.9525   -2.3186    1.4436 H   0  0  0  0  0  0  0  0  0  0  0  0
   -3.7494   -2.9738   -0.1994 H   0  0  0  0  0  0  0  0  0  0  0  0
   -1.9195   -2.3482    0.7408 C   0  0  0  0  0  0  0  0  0  0  0  0
   -0.9594   -3.0213    1.0826 O   0  0  0  0  0  0  0  0  0  0  0  0
   -1.7433   -1.0542    0.2963 N   0  0  0  0  0  0  0  0  0  0  0  0
   -2.5830   -0.5039    0.1240 H   0  0  0  0  0  0  0  0  0  0  0  0
   -0.4712   -0.3188    0.3200 C   0  0  1  0  0  0  0  0  0  0  0  0
    0.1319   -0.7966    1.0991 H   0  0  0  0  0  0  0  0  0  0  0  0
    0.3367   -0.5533   -0.9798 C   0  0  0  0  0  0  0  0  0  0  0  0
    1.3593   -0.2386   -0.7469 H   0  0  0  0  0  0  0  0  0  0  0  0
    0.3819   -1.6330   -1.1582 H   0  0  0  0  0  0  0  0  0  0  0  0
   -0.0715    0.1280   -2.3191 C   0  0  0  0  0  0  0  0  0  0  0  0
   -0.5632   -0.6455   -2.9188 H   0  0  0  0  0  0  0  0  0  0  0  0
   -1.0601    1.2951   -2.2529 C   0  0  0  0  0  0  0  0  0  0  0  0
   -0.6286    2.1433   -1.7134 H   0  0  0  0  0  0  0  0  0  0  0  0
   -1.3114    1.6323   -3.2633 H   0  0  0  0  0  0  0  0  0  0  0  0
   -1.9900    0.9863   -1.7675 H   0  0  0  0  0  0  0  0  0  0  0  0
    1.1835    0.5796   -3.0776 C   0  0  0  0  0  0  0  0  0  0  0  0
    1.8753   -0.2592   -3.2043 H   0  0  0  0  0  0  0  0  0  0  0  0
    0.9166    0.9551   -4.0706 H   0  0  0  0  0  0  0  0  0  0  0  0
    1.6976    1.3775   -2.5321 H   0  0  0  0  0  0  0  0  0  0  0  0
   -0.6040    1.1304    0.8395 C   0  0  0  0  0  0  0  0  0  0  0  0
   -1.6561    1.7444    0.6985 O   0  0  0  0  0  0  0  0  0  0  0  0
    0.3169    1.6195    1.7493 N   0  0  0  0  0  0  0  0  0  0  0  0
    1.1176    1.0335    1.9676 H   0  0  0  0  0  0  0  0  0  0  0  0
    0.1470    2.8755    2.4706 C   0  0  0  0  0  0  0  0  0  0  0  0
   -0.7393    2.8323    3.1122 H   0  0  0  0  0  0  0  0  0  0  0  0
    1.0206    3.0711    3.0996 H   0  0  0  0  0  0  0  0  0  0  0  0
    0.0337    3.7087    1.7690 H   0  0  0  0  0  0  0  0  0  0  0  0
  1  2  1  0  0  0  0
  2  3  1  0  0  0  0
  2  4  1  0  0  0  0
  2  5  1  0  0  0  0
  5  6  2  0  0  0  0
  5  7  1  0  0  0  0
  7  8  1  0  0  0  0
  7  9  1  0  0  0  0
  9 10  1  0  0  0  0
  9 11  1  0  0  0  0
  9 24  1  0  0  0  0
 11 12  1  0  0  0  0
 11 13  1  0  0  0  0
 11 14  1  0  0  0  0
 14 15  1  0  0  0  0
 14 16  1  0  0  0  0
 14 20  1  0  0  0  0
 16 17  1  0  0  0  0
 16 18  1  0  0  0  0
 16 19  1  0  0  0  0
 20 21  1  0  0  0  0
 20 22  1  0  0  0  0
 20 23  1  0  0  0  0
 24 25  2  0  0  0  0
 24 26  1  0  0  0  0
 26 27  1  0  0  0  0
 26 28  1  0  0  0  0
 28 29  1  0  0  0  0
 28 30  1  0  0  0  0
 28 31  1  0  0  0  0
M  END
$$$$

  -OEChem-03222214063D

 31 30  0     1  0  0  0  0  0999 V2000
   -3.2617   -3.9504    1.1990 H   0  0  0  0  0  0  0  0  0  0  0  0
   -3.3006   -2.9347    0.7958 C   0  0  0  0  0  0  0  0  0  0  0  0
   -3.9319   -2.3225    1.4444 H   0  0  0  0  0  0  0  0  0  0  0  0
   -3.7408   -2.9684   -0.2035 H   0  0  0  0  0  0  0  0  0  0  0  0
   -1.9045   -2.3455    0.7254 C   0  0  0  0  0  0  0  0  0  0  0  0
   -0.9411   -3.0190    1.0567 O   0  0  0  0  0  0  0  0  0  0  0  0
   -1.7335   -1.0484    0.2878 N   0  0  0  0  0  0  0  0  0  0  0  0
   -2.5751   -0.4990    0.1220 H   0  0  0  0  0  0  0  0  0  0  0  0
   -0.4624   -0.3116    0.3067 C   0  0  1  0  0  0  0  0  0  0  0  0
    0.1464   -0.7914    1.0803 H   0  0  0  0  0  0  0  0  0  0  0  0
    0.3350   -0.5480   -0.9996 C   0  0  0  0  0  0  0  0  0  0  0  0
    1.3568   -0.2215   -0.7793 H   0  0  0  0  0  0  0  0  0  0  0  0
    0.3849   -1.6277   -1.1772 H   0  0  0  0  0  0  0  0  0  0  0  0
   -0.0864    0.1330   -2.3317 C   0  0  0  0  0  0  0  0  0  0  0  0
   -0.8034   -0.5396   -2.8150 H   0  0  0  0  0  0  0  0  0  0  0  0
   -0.7780    1.4956   -2.2416 C   0  0  0  0  0  0  0  0  0  0  0  0
   -0.1756    2.2026   -1.6635 H   0  0  0  0  0  0  0  0  0  0  0  0
   -0.9257    1.9143   -3.2420 H   0  0  0  0  0  0  0  0  0  0  0  0
   -1.7651    1.3925   -1.7839 H   0  0  0  0  0  0  0  0  0  0  0  0
    1.1385    0.2481   -3.2482 C   0  0  0  0  0  0  0  0  0  0  0  0
    1.6179   -0.7286   -3.3688 H   0  0  0  0  0  0  0  0  0  0  0  0
    0.8429    0.6075   -4.2389 H   0  0  0  0  0  0  0  0  0  0  0  0
    1.8698    0.9472   -2.8299 H   0  0  0  0  0  0  0  0  0  0  0  0
   -0.5967    1.1332    0.8366 C   0  0  0  0  0  0  0  0  0  0  0  0
   -1.6507    1.7458    0.7049 O   0  0  0  0  0  0  0  0  0  0  0  0
    0.3289    1.6183    1.7432 N   0  0  0  0  0  0  0  0  0  0  0  0
    1.1324    1.0327    1.9521 H   0  0  0  0  0  0  0  0  0  0  0  0
    0.1635    2.8711    2.4705 C   0  0  0  0  0  0  0  0  0  0  0  0
   -0.7162    2.8237    3.1210 H   0  0  0  0  0  0  0  0  0  0  0  0
    1.0430    3.0667    3.0913 H   0  0  0  0  0  0  0  0  0  0  0  0
    0.0413    3.7061    1.7726 H   0  0  0  0  0  0  0  0  0  0  0  0
  1  2  1  0  0  0  0
  2  3  1  0  0  0  0
  2  4  1  0  0  0  0
  2  5  1  0  0  0  0
  5  6  2  0  0  0  0
  5  7  1  0  0  0  0
  7  8  1  0  0  0  0
  7  9  1  0  0  0  0
  9 10  1  0  0  0  0
  9 11  1  0  0  0  0
  9 24  1  0  0  0  0
 11 12  1  0  0  0  0
 11 13  1  0  0  0  0
 11 14  1  0  0  0  0
 14 15  1  0  0  0  0
 14 16  1  0  0  0  0
 14 20  1  0  0  0  0
 16 17  1  0  0  0  0
 16 18  1  0  0  0  0
 16 19  1  0  0  0  0
 20 21  1  0  0  0  0
 20 22  1  0  0  0  0
 20 23  1  0  0  0  0
 24 25  2  0  0  0  0
 24 26  1  0  0  0  0
 26 27  1  0  0  0  0
 26 28  1  0  0  0  0
 28 29  1  0  0  0  0
 28 30  1  0  0  0  0
 28 31  1  0  0  0  0
M  END
$$$$

  -OEChem-03222214063D

 31 30  0     1  0  0  0  0  0999 V2000
   -3.3117   -3.9020    1.2235 H   0  0  0  0  0  0  0  0  0  0  0  0
   -3.3330   -2.8915    0.8059 C   0  0  0  0  0  0  0  0  0  0  0  0
   -3.9620   -2.2616    1.4396 H   0  0  0  0  0  0  0  0  0  0  0  0
   -3.7637   -2.9335   -0.1974 H   0  0  0  0  0  0  0  0  0  0  0  0
   -1.9283   -2.3222    0.7418 C   0  0  0  0  0  0  0  0  0  0  0  0
   -0.9789   -2.9995    1.1043 O   0  0  0  0  0  0  0  0  0  0  0  0
   -1.7327   -1.0387    0.2754 N   0  0  0  0  0  0  0  0  0  0  0  0
   -2.5642   -0.4812    0.0866 H   0  0  0  0  0  0  0  0  0  0  0  0
   -0.4523   -0.3179    0.3005 C   0  0  1  0  0  0  0  0  0  0  0  0
    0.1454   -0.7869    1.0892 H   0  0  0  0  0  0  0  0  0  0  0  0
    0.3492   -0.5811   -0.9978 C   0  0  0  0  0  0  0  0  0  0  0  0
    1.3780   -0.2718   -0.7859 H   0  0  0  0  0  0  0  0  0  0  0  0
    0.3735   -1.6637   -1.1636 H   0  0  0  0  0  0  0  0  0  0  0  0
   -0.0638    0.0970   -2.3307 C   0  0  0  0  0  0  0  0  0  0  0  0
   -0.9596   -0.4167   -2.6954 H   0  0  0  0  0  0  0  0  0  0  0  0
   -0.4016    1.5909   -2.2693 C   0  0  0  0  0  0  0  0  0  0  0  0
    0.3399    2.1351   -1.6762 H   0  0  0  0  0  0  0  0  0  0  0  0
   -1.3949    1.7416   -1.8417 H   0  0  0  0  0  0  0  0  0  0  0  0
   -0.4177    2.0221   -3.2752 H   0  0  0  0  0  0  0  0  0  0  0  0
    1.0565   -0.1221   -3.3561 C   0  0  0  0  0  0  0  0  0  0  0  0
    1.2960   -1.1870   -3.4398 H   0  0  0  0  0  0  0  0  0  0  0  0
    0.7478    0.2350   -4.3436 H   0  0  0  0  0  0  0  0  0  0  0  0
    1.9623    0.4169   -3.0602 H   0  0  0  0  0  0  0  0  0  0  0  0
   -0.5946    1.1381    0.7937 C   0  0  0  0  0  0  0  0  0  0  0  0
   -1.6461    1.7455    0.6232 O   0  0  0  0  0  0  0  0  0  0  0  0
    0.3098    1.6454    1.7096 N   0  0  0  0  0  0  0  0  0  0  0  0
    1.1074    1.0651    1.9530 H   0  0  0  0  0  0  0  0  0  0  0  0
    0.1277    2.9161    2.4011 C   0  0  0  0  0  0  0  0  0  0  0  0
   -0.7625    2.8815    3.0379 H   0  0  0  0  0  0  0  0  0  0  0  0
    0.9963    3.1316    3.0309 H   0  0  0  0  0  0  0  0  0  0  0  0
    0.0142    3.7323    1.6797 H   0  0  0  0  0  0  0  0  0  0  0  0
  1  2  1  0  0  0  0
  2  3  1  0  0  0  0
  2  4  1  0  0  0  0
  2  5  1  0  0  0  0
  5  6  2  0  0  0  0
  5  7  1  0  0  0  0
  7  8  1  0  0  0  0
  7  9  1  0  0  0  0
  9 10  1  0  0  0  0
  9 11  1  0  0  0  0
  9 24  1  0  0  0  0
 11 12  1  0  0  0  0
 11 13  1  0  0  0  0
 11 14  1  0  0  0  0
 14 15  1  0  0  0  0
 14 16  1  0  0  0  0
 14 20  1  0  0  0  0
 16 17  1  0  0  0  0
 16 18  1  0  0  0  0
 16 19  1  0  0  0  0
 20 21  1  0  0  0  0
 20 22  1  0  0  0  0
 20 23  1  0  0  0  0
 24 25  2  0  0  0  0
 24 26  1  0  0  0  0
 26 27  1  0  0  0  0
 26 28  1  0  0  0  0
 28 29  1  0  0  0  0
 28 30  1  0  0  0  0
 28 31  1  0  0  0  0
M  END
$$$$

  -OEChem-03222214063D

 31 30  0     1  0  0  0  0  0999 V2000
   -3.3506   -3.9021    1.1579 H   0  0  0  0  0  0  0  0  0  0  0  0
   -3.3497   -2.8938    0.7348 C   0  0  0  0  0  0  0  0  0  0  0  0
   -3.9858   -2.2529    1.3501 H   0  0  0  0  0  0  0  0  0  0  0  0
   -3.7575   -2.9361   -0.2780 H   0  0  0  0  0  0  0  0  0  0  0  0
   -1.9375   -2.3410    0.7010 C   0  0  0  0  0  0  0  0  0  0  0  0
   -1.0041   -3.0267    1.0885 O   0  0  0  0  0  0  0  0  0  0  0  0
   -1.7167   -1.0628    0.2323 N   0  0  0  0  0  0  0  0  0  0  0  0
   -2.5375   -0.4942    0.0290 H   0  0  0  0  0  0  0  0  0  0  0  0
   -0.4290   -0.3564    0.2869 C   0  0  1  0  0  0  0  0  0  0  0  0
    0.1599   -0.8303    1.0792 H   0  0  0  0  0  0  0  0  0  0  0  0
    0.3720   -0.6033   -1.0133 C   0  0  0  0  0  0  0  0  0  0  0  0
    1.4114   -0.3283   -0.8070 H   0  0  0  0  0  0  0  0  0  0  0  0
    0.3623   -1.6820   -1.2043 H   0  0  0  0  0  0  0  0  0  0  0  0
   -0.0494    0.1232   -2.3155 C   0  0  0  0  0  0  0  0  0  0  0  0
   -1.0724   -0.1799   -2.5629 H   0  0  0  0  0  0  0  0  0  0  0  0
   -0.0146    1.6577   -2.2537 C   0  0  0  0  0  0  0  0  0  0  0  0
    0.8578    2.0045   -1.6915 H   0  0  0  0  0  0  0  0  0  0  0  0
   -0.9210    2.0505   -1.7909 H   0  0  0  0  0  0  0  0  0  0  0  0
    0.0356    2.0823   -3.2612 H   0  0  0  0  0  0  0  0  0  0  0  0
    0.8724   -0.3479   -3.4487 C   0  0  0  0  0  0  0  0  0  0  0  0
    0.8380   -1.4378   -3.5433 H   0  0  0  0  0  0  0  0  0  0  0  0
    0.5579    0.0843   -4.4038 H   0  0  0  0  0  0  0  0  0  0  0  0
    1.9069   -0.0471   -3.2549 H   0  0  0  0  0  0  0  0  0  0  0  0
   -0.5915    1.1000    0.7698 C   0  0  0  0  0  0  0  0  0  0  0  0
   -1.6371    1.7033    0.5516 O   0  0  0  0  0  0  0  0  0  0  0  0
    0.2803    1.6169    1.7114 N   0  0  0  0  0  0  0  0  0  0  0  0
    1.0748    1.0440    1.9809 H   0  0  0  0  0  0  0  0  0  0  0  0
    0.0723    2.8934    2.3846 C   0  0  0  0  0  0  0  0  0  0  0  0
   -0.8445    2.8665    2.9828 H   0  0  0  0  0  0  0  0  0  0  0  0
    0.9133    3.1111    3.0497 H   0  0  0  0  0  0  0  0  0  0  0  0
   -0.0074    3.7042    1.6529 H   0  0  0  0  0  0  0  0  0  0  0  0
  1  2  1  0  0  0  0
  2  3  1  0  0  0  0
  2  4  1  0  0  0  0
  2  5  1  0  0  0  0
  5  6  2  0  0  0  0
  5  7  1  0  0  0  0
  7  8  1  0  0  0  0
  7  9  1  0  0  0  0
  9 10  1  0  0  0  0
  9 11  1  0  0  0  0
  9 24  1  0  0  0  0
 11 12  1  0  0  0  0
 11 13  1  0  0  0  0
 11 14  1  0  0  0  0
 14 15  1  0  0  0  0
 14 16  1  0  0  0  0
 14 20  1  0  0  0  0
 16 17  1  0  0  0  0
 16 18  1  0  0  0  0
 16 19  1  0  0  0  0
 20 21  1  0  0  0  0
 20 22  1  0  0  0  0
 20 23  1  0  0  0  0
 24 25  2  0  0  0  0
 24 26  1  0  0  0  0
 26 27  1  0  0  0  0
 26 28  1  0  0  0  0
 28 29  1  0  0  0  0
 28 30  1  0  0  0  0
 28 31  1  0  0  0  0
M  END
$$$$

  -OEChem-03222214063D

 31 30  0     1  0  0  0  0  0999 V2000
   -3.3566   -3.8852    1.2257 H   0  0  0  0  0  0  0  0  0  0  0  0
   -3.3419   -2.8928    0.7666 C   0  0  0  0  0  0  0  0  0  0  0  0
   -3.9822   -2.2258    1.3490 H   0  0  0  0  0  0  0  0  0  0  0  0
   -3.7346   -2.9684   -0.2502 H   0  0  0  0  0  0  0  0  0  0  0  0
   -1.9247   -2.3528    0.7342 C   0  0  0  0  0  0  0  0  0  0  0  0
   -1.0014   -3.0379    1.1459 O   0  0  0  0  0  0  0  0  0  0  0  0
   -1.6866   -1.0874    0.2399 N   0  0  0  0  0  0  0  0  0  0  0  0
   -2.4983   -0.5148    0.0124 H   0  0  0  0  0  0  0  0  0  0  0  0
   -0.3896   -0.3971    0.2877 C   0  0  1  0  0  0  0  0  0  0  0  0
    0.2088   -0.8670    1.0749 H   0  0  0  0  0  0  0  0  0  0  0  0
    0.3783   -0.6395   -1.0322 C   0  0  0  0  0  0  0  0  0  0  0  0
    1.4322   -0.3985   -0.8595 H   0  0  0  0  0  0  0  0  0  0  0  0
    0.3324   -1.7143   -1.2385 H   0  0  0  0  0  0  0  0  0  0  0  0
   -0.0871    0.1287   -2.2942 C   0  0  0  0  0  0  0  0  0  0  0  0
   -1.1777    0.0600   -2.3679 H   0  0  0  0  0  0  0  0  0  0  0  0
    0.3118    1.6150   -2.3077 C   0  0  0  0  0  0  0  0  0  0  0  0
    1.3669    1.7327   -2.0417 H   0  0  0  0  0  0  0  0  0  0  0  0
    0.1597    2.0385   -3.3054 H   0  0  0  0  0  0  0  0  0  0  0  0
   -0.2907    2.2052   -1.6180 H   0  0  0  0  0  0  0  0  0  0  0  0
    0.5187   -0.5459   -3.5325 C   0  0  0  0  0  0  0  0  0  0  0  0
    0.2071   -1.5936   -3.5892 H   0  0  0  0  0  0  0  0  0  0  0  0
    0.1836   -0.0441   -4.4456 H   0  0  0  0  0  0  0  0  0  0  0  0
    1.6123   -0.5087   -3.4964 H   0  0  0  0  0  0  0  0  0  0  0  0
   -0.5586    1.0665    0.7413 C   0  0  0  0  0  0  0  0  0  0  0  0
   -1.5844    1.6781    0.4595 O   0  0  0  0  0  0  0  0  0  0  0  0
    0.3003    1.6052    1.6822 N   0  0  0  0  0  0  0  0  0  0  0  0
    1.0795    1.0311    1.9911 H   0  0  0  0  0  0  0  0  0  0  0  0
    0.1005    2.9116    2.2972 C   0  0  0  0  0  0  0  0  0  0  0  0
   -0.8449    2.9353    2.8493 H   0  0  0  0  0  0  0  0  0  0  0  0
    0.9144    3.1284    2.9957 H   0  0  0  0  0  0  0  0  0  0  0  0
    0.0831    3.6959    1.5331 H   0  0  0  0  0  0  0  0  0  0  0  0
  1  2  1  0  0  0  0
  2  3  1  0  0  0  0
  2  4  1  0  0  0  0
  2  5  1  0  0  0  0
  5  6  2  0  0  0  0
  5  7  1  0  0  0  0
  7  8  1  0  0  0  0
  7  9  1  0  0  0  0
  9 10  1  0  0  0  0
  9 11  1  0  0  0  0
  9 24  1  0  0  0  0
 11 12  1  0  0  0  0
 11 13  1  0  0  0  0
 11 14  1  0  0  0  0
 14 15  1  0  0  0  0
 14 16  1  0  0  0  0
 14 20  1  0  0  0  0
 16 17  1  0  0  0  0
 16 18  1  0  0  0  0
 16 19  1  0  0  0  0
 20 21  1  0  0  0  0
 20 22  1  0  0  0  0
 20 23  1  0  0  0  0
 24 25  2  0  0  0  0
 24 26  1  0  0  0  0
 26 27  1  0  0  0  0
 26 28  1  0  0  0  0
 28 29  1  0  0  0  0
 28 30  1  0  0  0  0
 28 31  1  0  0  0  0
M  END
$$$$

  -OEChem-03222214063D

 31 30  0     1  0  0  0  0  0999 V2000
   -3.3890   -3.8880    1.2319 H   0  0  0  0  0  0  0  0  0  0  0  0
   -3.3491   -2.9109    0.7423 C   0  0  0  0  0  0  0  0  0  0  0  0
   -4.0156   -2.2247    1.2703 H   0  0  0  0  0  0  0  0  0  0  0  0
   -3.6921   -3.0188   -0.2894 H   0  0  0  0  0  0  0  0  0  0  0  0
   -1.9306   -2.3733    0.7612 C   0  0  0  0  0  0  0  0  0  0  0  0
   -1.0293   -3.0443    1.2392 O   0  0  0  0  0  0  0  0  0  0  0  0
   -1.6672   -1.1254    0.2363 N   0  0  0  0  0  0  0  0  0  0  0  0
   -2.4640   -0.5663   -0.0645 H   0  0  0  0  0  0  0  0  0  0  0  0
   -0.3683   -0.4407    0.3023 C   0  0  1  0  0  0  0  0  0  0  0  0
    0.2223   -0.8983    1.1025 H   0  0  0  0  0  0  0  0  0  0  0  0
    0.4037   -0.6802   -1.0141 C   0  0  0  0  0  0  0  0  0  0  0  0
    1.4610   -0.4501   -0.8480 H   0  0  0  0  0  0  0  0  0  0  0  0
    0.3487   -1.7516   -1.2349 H   0  0  0  0  0  0  0  0  0  0  0  0
   -0.0949    0.1245   -2.2392 C   0  0  0  0  0  0  0  0  0  0  0  0
   -1.1736    0.2918   -2.1494 H   0  0  0  0  0  0  0  0  0  0  0  0
    0.6117    1.4845   -2.3702 C   0  0  0  0  0  0  0  0  0  0  0  0
    1.6926    1.3480   -2.4749 H   0  0  0  0  0  0  0  0  0  0  0  0
    0.2439    2.0168   -3.2530 H   0  0  0  0  0  0  0  0  0  0  0  0
    0.4295    2.1187   -1.5008 H   0  0  0  0  0  0  0  0  0  0  0  0
    0.1552   -0.6800   -3.5209 C   0  0  0  0  0  0  0  0  0  0  0  0
   -0.3832   -1.6324   -3.4852 H   0  0  0  0  0  0  0  0  0  0  0  0
   -0.1957   -0.1240   -4.3960 H   0  0  0  0  0  0  0  0  0  0  0  0
    1.2229   -0.8875   -3.6449 H   0  0  0  0  0  0  0  0  0  0  0  0
   -0.5431    1.0374    0.7051 C   0  0  0  0  0  0  0  0  0  0  0  0
   -1.5120    1.6733    0.3027 O   0  0  0  0  0  0  0  0  0  0  0  0
    0.2862    1.6050    1.6550 N   0  0  0  0  0  0  0  0  0  0  0  0
    1.0299    1.0273    2.0363 H   0  0  0  0  0  0  0  0  0  0  0  0
    0.1055    2.9556    2.1726 C   0  0  0  0  0  0  0  0  0  0  0  0
   -0.8757    3.0556    2.6486 H   0  0  0  0  0  0  0  0  0  0  0  0
    0.8751    3.1812    2.9169 H   0  0  0  0  0  0  0  0  0  0  0  0
    0.1817    3.6891    1.3630 H   0  0  0  0  0  0  0  0  0  0  0  0
  1  2  1  0  0  0  0
  2  3  1  0  0  0  0
  2  4  1  0  0  0  0
  2  5  1  0  0  0  0
  5  6  2  0  0  0  0
  5  7  1  0  0  0  0
  7  8  1  0  0  0  0
  7  9  1  0  0  0  0
  9 10  1  0  0  0  0
  9 11  1  0  0  0  0
  9 24  1  0  0  0  0
 11 12  1  0  0  0  0
 11 13  1  0  0  0  0
 11 14  1  0  0  0  0
 14 15  1  0  0  0  0
 14 16  1  0  0  0  0
 14 20  1  0  0  0  0
 16 17  1  0  0  0  0
 16 18  1  0  0  0  0
 16 19  1  0  0  0  0
 20 21  1  0  0  0  0
 20 22  1  0  0  0  0
 20 23  1  0  0  0  0
 24 25  2  0  0  0  0
 24 26  1  0  0  0  0
 26 27  1  0  0  0  0
 26 28  1  0  0  0  0
 28 29  1  0  0  0  0
 28 30  1  0  0  0  0
 28 31  1  0  0  0  0
M  END
$$$$

  -OEChem-03222214063D

 31 30  0     1  0  0  0  0  0999 V2000
   -3.3924   -3.9037    1.2451 H   0  0  0  0  0  0  0  0  0  0  0  0
   -3.3556   -2.9339    0.7411 C   0  0  0  0  0  0  0  0  0  0  0  0
   -4.0339   -2.2461    1.2517 H   0  0  0  0  0  0  0  0  0  0  0  0
   -3.6859   -3.0604   -0.2926 H   0  0  0  0  0  0  0  0  0  0  0  0
   -1.9422   -2.3836    0.7681 C   0  0  0  0  0  0  0  0  0  0  0  0
   -1.0410   -3.0401    1.2662 O   0  0  0  0  0  0  0  0  0  0  0  0
   -1.6831   -1.1404    0.2301 N   0  0  0  0  0  0  0  0  0  0  0  0
   -2.4804   -0.5939   -0.0913 H   0  0  0  0  0  0  0  0  0  0  0  0
   -0.3889   -0.4471    0.2977 C   0  0  1  0  0  0  0  0  0  0  0  0
    0.1949   -0.8983    1.1067 H   0  0  0  0  0  0  0  0  0  0  0  0
    0.4024   -0.6846   -1.0042 C   0  0  0  0  0  0  0  0  0  0  0  0
    1.4541   -0.4386   -0.8247 H   0  0  0  0  0  0  0  0  0  0  0  0
    0.3687   -1.7570   -1.2251 H   0  0  0  0  0  0  0  0  0  0  0  0
   -0.1130    0.1222   -2.2221 C   0  0  0  0  0  0  0  0  0  0  0  0
   -1.1209    0.5023   -2.0279 H   0  0  0  0  0  0  0  0  0  0  0  0
    0.8209    1.2994   -2.5338 C   0  0  0  0  0  0  0  0  0  0  0  0
    1.8283    0.9445   -2.7737 H   0  0  0  0  0  0  0  0  0  0  0  0
    0.4414    1.8696   -3.3875 H   0  0  0  0  0  0  0  0  0  0  0  0
    0.8845    1.9747   -1.6751 H   0  0  0  0  0  0  0  0  0  0  0  0
   -0.1889   -0.7837   -3.4574 C   0  0  0  0  0  0  0  0  0  0  0  0
   -0.8827   -1.6113   -3.2801 H   0  0  0  0  0  0  0  0  0  0  0  0
   -0.5463   -0.2185   -4.3239 H   0  0  0  0  0  0  0  0  0  0  0  0
    0.7959   -1.1987   -3.6949 H   0  0  0  0  0  0  0  0  0  0  0  0
   -0.5413    1.0405    0.6801 C   0  0  0  0  0  0  0  0  0  0  0  0
   -1.4919    1.6930    0.2627 O   0  0  0  0  0  0  0  0  0  0  0  0
    0.2968    1.6049    1.6244 N   0  0  0  0  0  0  0  0  0  0  0  0
    1.0246    1.0164    2.0201 H   0  0  0  0  0  0  0  0  0  0  0  0
    0.1441    2.9674    2.1200 C   0  0  0  0  0  0  0  0  0  0  0  0
   -0.8353    3.0964    2.5926 H   0  0  0  0  0  0  0  0  0  0  0  0
    0.9176    3.1894    2.8615 H   0  0  0  0  0  0  0  0  0  0  0  0
    0.2363    3.6860    1.2988 H   0  0  0  0  0  0  0  0  0  0  0  0
  1  2  1  0  0  0  0
  2  3  1  0  0  0  0
  2  4  1  0  0  0  0
  2  5  1  0  0  0  0
  5  6  2  0  0  0  0
  5  7  1  0  0  0  0
  7  8  1  0  0  0  0
  7  9  1  0  0  0  0
  9 10  1  0  0  0  0
  9 11  1  0  0  0  0
  9 24  1  0  0  0  0
 11 12  1  0  0  0  0
 11 13  1  0  0  0  0
 11 14  1  0  0  0  0
 14 15  1  0  0  0  0
 14 16  1  0  0  0  0
 14 20  1  0  0  0  0
 16 17  1  0  0  0  0
 16 18  1  0  0  0  0
 16 19  1  0  0  0  0
 20 21  1  0  0  0  0
 20 22  1  0  0  0  0
 20 23  1  0  0  0  0
 24 25  2  0  0  0  0
 24 26  1  0  0  0  0
 26 27  1  0  0  0  0
 26 28  1  0  0  0  0
 28 29  1  0  0  0  0
 28 30  1  0  0  0  0
 28 31  1  0  0  0  0
M  END
$$$$

  -OEChem-03222214063D

 31 30  0     1  0  0  0  0  0999 V2000
   -3.3821   -3.9029    1.2348 H   0  0  0  0  0  0  0  0  0  0  0  0
   -3.3544   -2.9262    0.7437 C   0  0  0  0  0  0  0  0  0  0  0  0
   -4.0269   -2.2469    1.2732 H   0  0  0  0  0  0  0  0  0  0  0  0
   -3.6991   -3.0396   -0.2869 H   0  0  0  0  0  0  0  0  0  0  0  0
   -1.9416   -2.3736    0.7582 C   0  0  0  0  0  0  0  0  0  0  0  0
   -1.0340   -3.0336    1.2398 O   0  0  0  0  0  0  0  0  0  0  0  0
   -1.6894   -1.1263    0.2259 N   0  0  0  0  0  0  0  0  0  0  0  0
   -2.4911   -0.5788   -0.0823 H   0  0  0  0  0  0  0  0  0  0  0  0
   -0.3973   -0.4286    0.2891 C   0  0  1  0  0  0  0  0  0  0  0  0
    0.1854   -0.8802    1.0984 H   0  0  0  0  0  0  0  0  0  0  0  0
    0.3991   -0.6741   -1.0080 C   0  0  0  0  0  0  0  0  0  0  0  0
    1.4424   -0.4046   -0.8138 H   0  0  0  0  0  0  0  0  0  0  0  0
    0.3948   -1.7490   -1.2195 H   0  0  0  0  0  0  0  0  0  0  0  0
   -0.1087    0.1161   -2.2419 C   0  0  0  0  0  0  0  0  0  0  0  0
   -0.9751    0.7281   -1.9786 H   0  0  0  0  0  0  0  0  0  0  0  0
    0.9875    1.0390   -2.7875 C   0  0  0  0  0  0  0  0  0  0  0  0
    1.8680    0.4617   -3.0877 H   0  0  0  0  0  0  0  0  0  0  0  0
    0.6209    1.5918   -3.6582 H   0  0  0  0  0  0  0  0  0  0  0  0
    1.2876    1.7641   -2.0243 H   0  0  0  0  0  0  0  0  0  0  0  0
   -0.5515   -0.8530   -3.3441 C   0  0  0  0  0  0  0  0  0  0  0  0
   -1.3490   -1.5062   -2.9763 H   0  0  0  0  0  0  0  0  0  0  0  0
   -0.9331   -0.2988   -4.2073 H   0  0  0  0  0  0  0  0  0  0  0  0
    0.2864   -1.4759   -3.6734 H   0  0  0  0  0  0  0  0  0  0  0  0
   -0.5439    1.0581    0.6804 C   0  0  0  0  0  0  0  0  0  0  0  0
   -1.5110    1.7072    0.2973 O   0  0  0  0  0  0  0  0  0  0  0  0
    0.3040    1.6139    1.6211 N   0  0  0  0  0  0  0  0  0  0  0  0
    1.0413    1.0240    1.9963 H   0  0  0  0  0  0  0  0  0  0  0  0
    0.1395    2.9609    2.1537 C   0  0  0  0  0  0  0  0  0  0  0  0
   -0.8271    3.0579    2.6593 H   0  0  0  0  0  0  0  0  0  0  0  0
    0.9312    3.1808    2.8763 H   0  0  0  0  0  0  0  0  0  0  0  0
    0.1920    3.7006    1.3479 H   0  0  0  0  0  0  0  0  0  0  0  0
  1  2  1  0  0  0  0
  2  3  1  0  0  0  0
  2  4  1  0  0  0  0
  2  5  1  0  0  0  0
  5  6  2  0  0  0  0
  5  7  1  0  0  0  0
  7  8  1  0  0  0  0
  7  9  1  0  0  0  0
  9 10  1  0  0  0  0
  9 11  1  0  0  0  0
  9 24  1  0  0  0  0
 11 12  1  0  0  0  0
 11 13  1  0  0  0  0
 11 14  1  0  0  0  0
 14 15  1  0  0  0  0
 14 16  1  0  0  0  0
 14 20  1  0  0  0  0
 16 17  1  0  0  0  0
 16 18  1  0  0  0  0
 16 19  1  0  0  0  0
 20 21  1  0  0  0  0
 20 22  1  0  0  0  0
 20 23  1  0  0  0  0
 24 25  2  0  0  0  0
 24 26  1  0  0  0  0
 26 27  1  0  0  0  0
 26 28  1  0  0  0  0
 28 29  1  0  0  0  0
 28 30  1  0  0  0  0
 28 31  1  0  0  0  0
M  END
$$$$

  -OEChem-03222214063D

 31 30  0     1  0  0  0  0  0999 V2000
   -3.3713   -3.9046    1.2343 H   0  0  0  0  0  0  0  0  0  0  0  0
   -3.3482   -2.9240    0.7507 C   0  0  0  0  0  0  0  0  0  0  0  0
   -4.0183   -2.2499    1.2897 H   0  0  0  0  0  0  0  0  0  0  0  0
   -3.6996   -3.0302   -0.2785 H   0  0  0  0  0  0  0  0  0  0  0  0
   -1.9363   -2.3692    0.7609 C   0  0  0  0  0  0  0  0  0  0  0  0
   -1.0255   -3.0289    1.2370 O   0  0  0  0  0  0  0  0  0  0  0  0
   -1.6892   -1.1194    0.2322 N   0  0  0  0  0  0  0  0  0  0  0  0
   -2.4930   -0.5718   -0.0705 H   0  0  0  0  0  0  0  0  0  0  0  0
   -0.3972   -0.4217    0.2863 C   0  0  1  0  0  0  0  0  0  0  0  0
    0.1910   -0.8739    1.0915 H   0  0  0  0  0  0  0  0  0  0  0  0
    0.3926   -0.6682   -1.0165 C   0  0  0  0  0  0  0  0  0  0  0  0
    1.4300   -0.3811   -0.8166 H   0  0  0  0  0  0  0  0  0  0  0  0
    0.4059   -1.7428   -1.2293 H   0  0  0  0  0  0  0  0  0  0  0  0
   -0.1082    0.1131   -2.2588 C   0  0  0  0  0  0  0  0  0  0  0  0
   -0.7649    0.9334   -1.9604 H   0  0  0  0  0  0  0  0  0  0  0  0
    1.0714    0.7272   -3.0214 C   0  0  0  0  0  0  0  0  0  0  0  0
    1.7670   -0.0518   -3.3497 H   0  0  0  0  0  0  0  0  0  0  0  0
    0.7145    1.2685   -3.9031 H   0  0  0  0  0  0  0  0  0  0  0  0
    1.6119    1.4331   -2.3831 H   0  0  0  0  0  0  0  0  0  0  0  0
   -0.9059   -0.8105   -3.1867 C   0  0  0  0  0  0  0  0  0  0  0  0
   -1.7584   -1.2423   -2.6538 H   0  0  0  0  0  0  0  0  0  0  0  0
   -1.2872   -0.2493   -4.0456 H   0  0  0  0  0  0  0  0  0  0  0  0
   -0.2767   -1.6261   -3.5570 H   0  0  0  0  0  0  0  0  0  0  0  0
   -0.5474    1.0623    0.6867 C   0  0  0  0  0  0  0  0  0  0  0  0
   -1.5247    1.7058    0.3197 O   0  0  0  0  0  0  0  0  0  0  0  0
    0.3054    1.6185    1.6230 N   0  0  0  0  0  0  0  0  0  0  0  0
    1.0458    1.0295    1.9932 H   0  0  0  0  0  0  0  0  0  0  0  0
    0.1310    2.9583    2.1706 C   0  0  0  0  0  0  0  0  0  0  0  0
   -0.8299    3.0379    2.6897 H   0  0  0  0  0  0  0  0  0  0  0  0
    0.9293    3.1816    2.8849 H   0  0  0  0  0  0  0  0  0  0  0  0
    0.1636    3.7061    1.3714 H   0  0  0  0  0  0  0  0  0  0  0  0
  1  2  1  0  0  0  0
  2  3  1  0  0  0  0
  2  4  1  0  0  0  0
  2  5  1  0  0  0  0
  5  6  2  0  0  0  0
  5  7  1  0  0  0  0
  7  8  1  0  0  0  0
  7  9  1  0  0  0  0
  9 10  1  0  0  0  0
  9 11  1  0  0  0  0
  9 24  1  0  0  0  0
 11 12  1  0  0  0  0
 11 13  1  0  0  0  0
 11 14  1  0  0  0  0
 14 15  1  0  0  0  0
 14 16  1  0  0  0  0
 14 20  1  0  0  0  0
 16 17  1  0  0  0  0
 16 18  1  0  0  0  0
 16 19  1  0  0  0  0
 20 21  1  0  0  0  0
 20 22  1  0  0  0  0
 20 23  1  0  0  0  0
 24 25  2  0  0  0  0
 24 26  1  0  0  0  0
 26 27  1  0  0  0  0
 26 28  1  0  0  0  0
 28 29  1  0  0  0  0
 28 30  1  0  0  0  0
 28 31  1  0  0  0  0
M  END
$$$$

  -OEChem-03222214063D

 31 30  0     1  0  0  0  0  0999 V2000
   -3.3669   -3.9080    1.2793 H   0  0  0  0  0  0  0  0  0  0  0  0
   -3.3447   -2.9323    0.7860 C   0  0  0  0  0  0  0  0  0  0  0  0
   -4.0077   -2.2505    1.3240 H   0  0  0  0  0  0  0  0  0  0  0  0
   -3.7045   -3.0468   -0.2392 H   0  0  0  0  0  0  0  0  0  0  0  0
   -1.9313   -2.3819    0.7792 C   0  0  0  0  0  0  0  0  0  0  0  0
   -1.0164   -3.0432    1.2445 O   0  0  0  0  0  0  0  0  0  0  0  0
   -1.6882   -1.1328    0.2478 N   0  0  0  0  0  0  0  0  0  0  0  0
   -2.4941   -0.5841   -0.0477 H   0  0  0  0  0  0  0  0  0  0  0  0
   -0.3951   -0.4374    0.2873 C   0  0  1  0  0  0  0  0  0  0  0  0
    0.2042   -0.8897    1.0842 H   0  0  0  0  0  0  0  0  0  0  0  0
    0.3835   -0.6658   -1.0270 C   0  0  0  0  0  0  0  0  0  0  0  0
    1.4194   -0.3723   -0.8287 H   0  0  0  0  0  0  0  0  0  0  0  0
    0.4000   -1.7370   -1.2551 H   0  0  0  0  0  0  0  0  0  0  0  0
   -0.1163    0.1233   -2.2634 C   0  0  0  0  0  0  0  0  0  0  0  0
   -0.5255    1.0904   -1.9604 H   0  0  0  0  0  0  0  0  0  0  0  0
    1.0575    0.4112   -3.2068 C   0  0  0  0  0  0  0  0  0  0  0  0
    1.5255   -0.5221   -3.5356 H   0  0  0  0  0  0  0  0  0  0  0  0
    0.7117    0.9573   -4.0900 H   0  0  0  0  0  0  0  0  0  0  0  0
    1.8126    1.0227   -2.7032 H   0  0  0  0  0  0  0  0  0  0  0  0
   -1.2082   -0.6496   -3.0140 C   0  0  0  0  0  0  0  0  0  0  0  0
   -2.0835   -0.7988   -2.3767 H   0  0  0  0  0  0  0  0  0  0  0  0
   -1.5269   -0.0916   -3.8999 H   0  0  0  0  0  0  0  0  0  0  0  0
   -0.8386   -1.6286   -3.3351 H   0  0  0  0  0  0  0  0  0  0  0  0
   -0.5545    1.0438    0.6901 C   0  0  0  0  0  0  0  0  0  0  0  0
   -1.5338    1.6818    0.3184 O   0  0  0  0  0  0  0  0  0  0  0  0
    0.3006    1.6074    1.6195 N   0  0  0  0  0  0  0  0  0  0  0  0
    1.0471    1.0240    1.9866 H   0  0  0  0  0  0  0  0  0  0  0  0
    0.1257    2.9507    2.1579 C   0  0  0  0  0  0  0  0  0  0  0  0
   -0.8382    3.0356    2.6704 H   0  0  0  0  0  0  0  0  0  0  0  0
    0.9199    3.1764    2.8758 H   0  0  0  0  0  0  0  0  0  0  0  0
    0.1649    3.6932    1.3541 H   0  0  0  0  0  0  0  0  0  0  0  0
  1  2  1  0  0  0  0
  2  3  1  0  0  0  0
  2  4  1  0  0  0  0
  2  5  1  0  0  0  0
  5  6  2  0  0  0  0
  5  7  1  0  0  0  0
  7  8  1  0  0  0  0
  7  9  1  0  0  0  0
  9 10  1  0  0  0  0
  9 11  1  0  0  0  0
  9 24  1  0  0  0  0
 11 12  1  0  0  0  0
 11 13  1  0  0  0  0
 11 14  1  0  0  0  0
 14 15  1  0  0  0  0
 14 16  1  0  0  0  0
 14 20  1  0  0  0  0
 16 17  1  0  0  0  0
 16 18  1  0  0  0  0
 16 19  1  0  0  0  0
 20 21  1  0  0  0  0
 20 22  1  0  0  0  0
 20 23  1  0  0  0  0
 24 25  2  0  0  0  0
 24 26  1  0  0  0  0
 26 27  1  0  0  0  0
 26 28  1  0  0  0  0
 28 29  1  0  0  0  0
 28 30  1  0  0  0  0
 28 31  1  0  0  0  0
M  END
$$$$

  -OEChem-03222214063D

 31 30  0     1  0  0  0  0  0999 V2000
   -3.3616   -3.9300    1.3066 H   0  0  0  0  0  0  0  0  0  0  0  0
   -3.3395   -2.9572    0.8074 C   0  0  0  0  0  0  0  0  0  0  0  0
   -4.0075   -2.2744    1.3379 H   0  0  0  0  0  0  0  0  0  0  0  0
   -3.6940   -3.0793   -0.2189 H   0  0  0  0  0  0  0  0  0  0  0  0
   -1.9275   -2.4026    0.8042 C   0  0  0  0  0  0  0  0  0  0  0  0
   -1.0127   -3.0593    1.2765 O   0  0  0  0  0  0  0  0  0  0  0  0
   -1.6850   -1.1558    0.2673 N   0  0  0  0  0  0  0  0  0  0  0  0
   -2.4904   -0.6106   -0.0353 H   0  0  0  0  0  0  0  0  0  0  0  0
   -0.3907   -0.4615    0.2979 C   0  0  1  0  0  0  0  0  0  0  0  0
    0.2192   -0.9147    1.0862 H   0  0  0  0  0  0  0  0  0  0  0  0
    0.3743   -0.6650   -1.0292 C   0  0  0  0  0  0  0  0  0  0  0  0
    1.4145   -0.3796   -0.8418 H   0  0  0  0  0  0  0  0  0  0  0  0
    0.3772   -1.7322   -1.2757 H   0  0  0  0  0  0  0  0  0  0  0  0
   -0.1285    0.1410   -2.2528 C   0  0  0  0  0  0  0  0  0  0  0  0
   -0.2754    1.1890   -1.9745 H   0  0  0  0  0  0  0  0  0  0  0  0
    0.9424    0.1095   -3.3500 C   0  0  0  0  0  0  0  0  0  0  0  0
    1.1377   -0.9194   -3.6687 H   0  0  0  0  0  0  0  0  0  0  0  0
    0.6146    0.6863   -4.2207 H   0  0  0  0  0  0  0  0  0  0  0  0
    1.8778    0.5457   -2.9858 H   0  0  0  0  0  0  0  0  0  0  0  0
   -1.4489   -0.4036   -2.8135 C   0  0  0  0  0  0  0  0  0  0  0  0
   -2.2687   -0.2249   -2.1133 H   0  0  0  0  0  0  0  0  0  0  0  0
   -1.6997    0.0991   -3.7528 H   0  0  0  0  0  0  0  0  0  0  0  0
   -1.3747   -1.4788   -3.0044 H   0  0  0  0  0  0  0  0  0  0  0  0
   -0.5560    1.0198    0.6967 C   0  0  0  0  0  0  0  0  0  0  0  0
   -1.5248    1.6594    0.3012 O   0  0  0  0  0  0  0  0  0  0  0  0
    0.2976    1.5932    1.6216 N   0  0  0  0  0  0  0  0  0  0  0  0
    1.0430    1.0140    1.9978 H   0  0  0  0  0  0  0  0  0  0  0  0
    0.1314    2.9484    2.1324 C   0  0  0  0  0  0  0  0  0  0  0  0
   -0.8379    3.0541    2.6308 H   0  0  0  0  0  0  0  0  0  0  0  0
    0.9188    3.1792    2.8563 H   0  0  0  0  0  0  0  0  0  0  0  0
    0.1895    3.6751    1.3154 H   0  0  0  0  0  0  0  0  0  0  0  0
  1  2  1  0  0  0  0
  2  3  1  0  0  0  0
  2  4  1  0  0  0  0
  2  5  1  0  0  0  0
  5  6  2  0  0  0  0
  5  7  1  0  0  0  0
  7  8  1  0  0  0  0
  7  9  1  0  0  0  0
  9 10  1  0  0  0  0
  9 11  1  0  0  0  0
  9 24  1  0  0  0  0
 11 12  1  0  0  0  0
 11 13  1  0  0  0  0
 11 14  1  0  0  0  0
 14 15  1  0  0  0  0
 14 16  1  0  0  0  0
 14 20  1  0  0  0  0
 16 17  1  0  0  0  0
 16 18  1  0  0  0  0
 16 19  1  0  0  0  0
 20 21  1  0  0  0  0
 20 22  1  0  0  0  0
 20 23  1  0  0  0  0
 24 25  2  0  0  0  0
 24 26  1  0  0  0  0
 26 27  1  0  0  0  0
 26 28  1  0  0  0  0
 28 29  1  0  0  0  0
 28 30  1  0  0  0  0
 28 31  1  0  0  0  0
M  END
$$$$

  -OEChem-03222214063D

 31 30  0     1  0  0  0  0  0999 V2000
   -3.3285   -3.9409    1.2417 H   0  0  0  0  0  0  0  0  0  0  0  0
   -3.3313   -2.9498    0.7796 C   0  0  0  0  0  0  0  0  0  0  0  0
   -3.9949   -2.2964    1.3510 H   0  0  0  0  0  0  0  0  0  0  0  0
   -3.7088   -3.0381   -0.2420 H   0  0  0  0  0  0  0  0  0  0  0  0
   -1.9271   -2.3760    0.7646 C   0  0  0  0  0  0  0  0  0  0  0  0
   -0.9937   -3.0364    1.1933 O   0  0  0  0  0  0  0  0  0  0  0  0
   -1.7134   -1.1090    0.2631 N   0  0  0  0  0  0  0  0  0  0  0  0
   -2.5336   -0.5687   -0.0060 H   0  0  0  0  0  0  0  0  0  0  0  0
   -0.4302   -0.3924    0.2934 C   0  0  1  0  0  0  0  0  0  0  0  0
    0.1718   -0.8585    1.0801 H   0  0  0  0  0  0  0  0  0  0  0  0
    0.3555   -0.6141   -1.0195 C   0  0  0  0  0  0  0  0  0  0  0  0
    1.4211   -0.5652   -0.7737 H   0  0  0  0  0  0  0  0  0  0  0  0
    0.1597   -1.6304   -1.3783 H   0  0  0  0  0  0  0  0  0  0  0  0
    0.0994    0.3916   -2.1651 C   0  0  0  0  0  0  0  0  0  0  0  0
    0.3635    1.4040   -1.8416 H   0  0  0  0  0  0  0  0  0  0  0  0
    0.9699    0.0038   -3.3675 C   0  0  0  0  0  0  0  0  0  0  0  0
    0.7172   -1.0002   -3.7238 H   0  0  0  0  0  0  0  0  0  0  0  0
    0.8232    0.7115   -4.1895 H   0  0  0  0  0  0  0  0  0  0  0  0
    2.0289    0.0174   -3.0915 H   0  0  0  0  0  0  0  0  0  0  0  0
   -1.3648    0.3709   -2.6346 C   0  0  0  0  0  0  0  0  0  0  0  0
   -2.0430    0.7018   -1.8463 H   0  0  0  0  0  0  0  0  0  0  0  0
   -1.4979    1.0410   -3.4897 H   0  0  0  0  0  0  0  0  0  0  0  0
   -1.6567   -0.6398   -2.9370 H   0  0  0  0  0  0  0  0  0  0  0  0
   -0.5650    1.0809    0.7362 C   0  0  0  0  0  0  0  0  0  0  0  0
   -1.5475    1.7408    0.4185 O   0  0  0  0  0  0  0  0  0  0  0  0
    0.3237    1.6114    1.6540 N   0  0  0  0  0  0  0  0  0  0  0  0
    1.0776    1.0128    1.9792 H   0  0  0  0  0  0  0  0  0  0  0  0
    0.1806    2.9421    2.2324 C   0  0  0  0  0  0  0  0  0  0  0  0
   -0.7610    3.0199    2.7860 H   0  0  0  0  0  0  0  0  0  0  0  0
    1.0052    3.1457    2.9223 H   0  0  0  0  0  0  0  0  0  0  0  0
    0.1919    3.7043    1.4463 H   0  0  0  0  0  0  0  0  0  0  0  0
  1  2  1  0  0  0  0
  2  3  1  0  0  0  0
  2  4  1  0  0  0  0
  2  5  1  0  0  0  0
  5  6  2  0  0  0  0
  5  7  1  0  0  0  0
  7  8  1  0  0  0  0
  7  9  1  0  0  0  0
  9 10  1  0  0  0  0
  9 11  1  0  0  0  0
  9 24  1  0  0  0  0
 11 12  1  0  0  0  0
 11 13  1  0  0  0  0
 11 14  1  0  0  0  0
 14 15  1  0  0  0  0
 14 16  1  0  0  0  0
 14 20  1  0  0  0  0
 16 17  1  0  0  0  0
 16 18  1  0  0  0  0
 16 19  1  0  0  0  0
 20 21  1  0  0  0  0
 20 22  1  0  0  0  0
 20 23  1  0  0  0  0
 24 25  2  0  0  0  0
 24 26  1  0  0  0  0
 26 27  1  0  0  0  0
 26 28  1  0  0  0  0
 28 29  1  0  0  0  0
 28 30  1  0  0  0  0
 28 31  1  0  0  0  0
M  END
$$$$

  -OEChem-03222214063D

 31 30  0     1  0  0  0  0  0999 V2000
   -3.2813   -3.9454    1.2440 H   0  0  0  0  0  0  0  0  0  0  0  0
   -3.3171   -2.9395    0.8163 C   0  0  0  0  0  0  0  0  0  0  0  0
   -3.9536   -2.3121    1.4450 H   0  0  0  0  0  0  0  0  0  0  0  0
   -3.7492   -2.9972   -0.1856 H   0  0  0  0  0  0  0  0  0  0  0  0
   -1.9203   -2.3522    0.7444 C   0  0  0  0  0  0  0  0  0  0  0  0
   -0.9604   -3.0173    1.1013 O   0  0  0  0  0  0  0  0  0  0  0  0
   -1.7436   -1.0673    0.2740 N   0  0  0  0  0  0  0  0  0  0  0  0
   -2.5822   -0.5259    0.0723 H   0  0  0  0  0  0  0  0  0  0  0  0
   -0.4706   -0.3319    0.2795 C   0  0  1  0  0  0  0  0  0  0  0  0
    0.1358   -0.8061    1.0581 H   0  0  0  0  0  0  0  0  0  0  0  0
    0.3322   -0.5551   -1.0230 C   0  0  0  0  0  0  0  0  0  0  0  0
    1.3959   -0.4941   -0.7717 H   0  0  0  0  0  0  0  0  0  0  0  0
    0.1463   -1.5828   -1.3537 H   0  0  0  0  0  0  0  0  0  0  0  0
    0.0891    0.4086   -2.2101 C   0  0  0  0  0  0  0  0  0  0  0  0
    0.5514    1.3799   -2.0045 H   0  0  0  0  0  0  0  0  0  0  0  0
    0.7001   -0.2184   -3.4726 C   0  0  0  0  0  0  0  0  0  0  0  0
    0.2099   -1.1665   -3.7180 H   0  0  0  0  0  0  0  0  0  0  0  0
    0.5942    0.4582   -4.3267 H   0  0  0  0  0  0  0  0  0  0  0  0
    1.7672   -0.4093   -3.3220 H   0  0  0  0  0  0  0  0  0  0  0  0
   -1.4030    0.6060   -2.5342 C   0  0  0  0  0  0  0  0  0  0  0  0
   -1.9170    1.1692   -1.7573 H   0  0  0  0  0  0  0  0  0  0  0  0
   -1.5186    1.1654   -3.4680 H   0  0  0  0  0  0  0  0  0  0  0  0
   -1.9023   -0.3615   -2.6471 H   0  0  0  0  0  0  0  0  0  0  0  0
   -0.5817    1.1299    0.7676 C   0  0  0  0  0  0  0  0  0  0  0  0
   -1.6072    1.7750    0.5859 O   0  0  0  0  0  0  0  0  0  0  0  0
    0.3522    1.6248    1.6608 N   0  0  0  0  0  0  0  0  0  0  0  0
    1.1295    1.0195    1.9092 H   0  0  0  0  0  0  0  0  0  0  0  0
    0.2075    2.9006    2.3519 C   0  0  0  0  0  0  0  0  0  0  0  0
   -0.6861    2.8940    2.9847 H   0  0  0  0  0  0  0  0  0  0  0  0
    1.0791    3.0878    2.9863 H   0  0  0  0  0  0  0  0  0  0  0  0
    0.1235    3.7205    1.6310 H   0  0  0  0  0  0  0  0  0  0  0  0
  1  2  1  0  0  0  0
  2  3  1  0  0  0  0
  2  4  1  0  0  0  0
  2  5  1  0  0  0  0
  5  6  2  0  0  0  0
  5  7  1  0  0  0  0
  7  8  1  0  0  0  0
  7  9  1  0  0  0  0
  9 10  1  0  0  0  0
  9 11  1  0  0  0  0
  9 24  1  0  0  0  0
 11 12  1  0  0  0  0
 11 13  1  0  0  0  0
 11 14  1  0  0  0  0
 14 15  1  0  0  0  0
 14 16  1  0  0  0  0
 14 20  1  0  0  0  0
 16 17  1  0  0  0  0
 16 18  1  0  0  0  0
 16 19  1  0  0  0  0
 20 21  1  0  0  0  0
 20 22  1  0  0  0  0
 20 23  1  0  0  0  0
 24 25  2  0  0  0  0
 24 26  1  0  0  0  0
 26 27  1  0  0  0  0
 26 28  1  0  0  0  0
 28 29  1  0  0  0  0
 28 30  1  0  0  0  0
 28 31  1  0  0  0  0
M  END
$$$$

  -OEChem-03222214063D

 31 30  0     1  0  0  0  0  0999 V2000
   -3.2291   -3.9271    1.3544 H   0  0  0  0  0  0  0  0  0  0  0  0
   -3.2838   -2.9312    0.9059 C   0  0  0  0  0  0  0  0  0  0  0  0
   -3.9225   -2.2994    1.5278 H   0  0  0  0  0  0  0  0  0  0  0  0
   -3.7257   -3.0167   -0.0896 H   0  0  0  0  0  0  0  0  0  0  0  0
   -1.8968   -2.3251    0.8057 C   0  0  0  0  0  0  0  0  0  0  0  0
   -0.9225   -2.9689    1.1632 O   0  0  0  0  0  0  0  0  0  0  0  0
   -1.7461   -1.0479    0.3063 N   0  0  0  0  0  0  0  0  0  0  0  0
   -2.5972   -0.5188    0.1235 H   0  0  0  0  0  0  0  0  0  0  0  0
   -0.4884   -0.2862    0.3012 C   0  0  1  0  0  0  0  0  0  0  0  0
    0.1141   -0.7223    1.1050 H   0  0  0  0  0  0  0  0  0  0  0  0
    0.3452   -0.5460   -0.9774 C   0  0  0  0  0  0  0  0  0  0  0  0
    1.4016   -0.4631   -0.7024 H   0  0  0  0  0  0  0  0  0  0  0  0
    0.1798   -1.5946   -1.2488 H   0  0  0  0  0  0  0  0  0  0  0  0
    0.1454    0.3359   -2.2418 C   0  0  0  0  0  0  0  0  0  0  0  0
    0.8299    1.1899   -2.1983 H   0  0  0  0  0  0  0  0  0  0  0  0
    0.4659   -0.5226   -3.4764 C   0  0  0  0  0  0  0  0  0  0  0  0
   -0.2543   -1.3409   -3.5813 H   0  0  0  0  0  0  0  0  0  0  0  0
    0.4358    0.0850   -4.3864 H   0  0  0  0  0  0  0  0  0  0  0  0
    1.4692   -0.9517   -3.3906 H   0  0  0  0  0  0  0  0  0  0  0  0
   -1.2834    0.8643   -2.4532 C   0  0  0  0  0  0  0  0  0  0  0  0
   -1.4305    1.1767   -3.4919 H   0  0  0  0  0  0  0  0  0  0  0  0
   -1.4702    1.7421   -1.8350 H   0  0  0  0  0  0  0  0  0  0  0  0
   -2.0241    0.0934   -2.2211 H   0  0  0  0  0  0  0  0  0  0  0  0
   -0.6494    1.1804    0.7565 C   0  0  0  0  0  0  0  0  0  0  0  0
   -1.7176    1.7610    0.5988 O   0  0  0  0  0  0  0  0  0  0  0  0
    0.2601    1.7254    1.6457 N   0  0  0  0  0  0  0  0  0  0  0  0
    1.0749    1.1674    1.8843 H   0  0  0  0  0  0  0  0  0  0  0  0
    0.0620    3.0041    2.3181 C   0  0  0  0  0  0  0  0  0  0  0  0
   -0.8259    2.9674    2.9578 H   0  0  0  0  0  0  0  0  0  0  0  0
    0.9289    3.2409    2.9423 H   0  0  0  0  0  0  0  0  0  0  0  0
   -0.0647    3.8073    1.5847 H   0  0  0  0  0  0  0  0  0  0  0  0
  1  2  1  0  0  0  0
  2  3  1  0  0  0  0
  2  4  1  0  0  0  0
  2  5  1  0  0  0  0
  5  6  2  0  0  0  0
  5  7  1  0  0  0  0
  7  8  1  0  0  0  0
  7  9  1  0  0  0  0
  9 10  1  0  0  0  0
  9 11  1  0  0  0  0
  9 24  1  0  0  0  0
 11 12  1  0  0  0  0
 11 13  1  0  0  0  0
 11 14  1  0  0  0  0
 14 15  1  0  0  0  0
 14 16  1  0  0  0  0
 14 20  1  0  0  0  0
 16 17  1  0  0  0  0
 16 18  1  0  0  0  0
 16 19  1  0  0  0  0
 20 21  1  0  0  0  0
 20 22  1  0  0  0  0
 20 23  1  0  0  0  0
 24 25  2  0  0  0  0
 24 26  1  0  0  0  0
 26 27  1  0  0  0  0
 26 28  1  0  0  0  0
 28 29  1  0  0  0  0
 28 30  1  0  0  0  0
 28 31  1  0  0  0  0
M  END
$$$$

  -OEChem-03222214063D

 31 30  0     1  0  0  0  0  0999 V2000
   -3.4893   -3.8455    1.1170 H   0  0  0  0  0  0  0  0  0  0  0  0
   -3.4748   -2.8364    0.6960 C   0  0  0  0  0  0  0  0  0  0  0  0
   -4.1249   -2.1952    1.2961 H   0  0  0  0  0  0  0  0  0  0  0  0
   -3.8562   -2.8757   -0.3271 H   0  0  0  0  0  0  0  0  0  0  0  0
   -2.0603   -2.2882    0.6999 C   0  0  0  0  0  0  0  0  0  0  0  0
   -1.1395   -2.9807    1.1052 O   0  0  0  0  0  0  0  0  0  0  0  0
   -1.8235   -1.0070    0.2460 N   0  0  0  0  0  0  0  0  0  0  0  0
   -2.6367   -0.4372    0.0187 H   0  0  0  0  0  0  0  0  0  0  0  0
   -0.5349   -0.3040    0.3323 C   0  0  1  0  0  0  0  0  0  0  0  0
    0.0019   -0.7840    1.1570 H   0  0  0  0  0  0  0  0  0  0  0  0
    0.3511   -0.5887   -0.9084 C   0  0  0  0  0  0  0  0  0  0  0  0
    1.3905   -0.5519   -0.5671 H   0  0  0  0  0  0  0  0  0  0  0  0
    0.1662   -1.6311   -1.1904 H   0  0  0  0  0  0  0  0  0  0  0  0
    0.2875    0.3018   -2.1871 C   0  0  0  0  0  0  0  0  0  0  0  0
    1.1967    0.9112   -2.2299 H   0  0  0  0  0  0  0  0  0  0  0  0
    0.2548   -0.6183   -3.4179 C   0  0  0  0  0  0  0  0  0  0  0  0
   -0.6689   -1.2060   -3.4371 H   0  0  0  0  0  0  0  0  0  0  0  0
    0.3129   -0.0319   -4.3403 H   0  0  0  0  0  0  0  0  0  0  0  0
    1.1060   -1.3064   -3.4021 H   0  0  0  0  0  0  0  0  0  0  0  0
   -0.9144    1.2490   -2.3122 C   0  0  0  0  0  0  0  0  0  0  0  0
   -1.0226    1.6028   -3.3422 H   0  0  0  0  0  0  0  0  0  0  0  0
   -0.7699    2.1344   -1.6893 H   0  0  0  0  0  0  0  0  0  0  0  0
   -1.8430    0.7463   -2.0261 H   0  0  0  0  0  0  0  0  0  0  0  0
   -0.6680    1.1548    0.8202 C   0  0  0  0  0  0  0  0  0  0  0  0
   -1.7050    1.7776    0.6168 O   0  0  0  0  0  0  0  0  0  0  0  0
    0.2061    1.6415    1.7759 N   0  0  0  0  0  0  0  0  0  0  0  0
    0.9848    1.0474    2.0453 H   0  0  0  0  0  0  0  0  0  0  0  0
    0.0152    2.9088    2.4714 C   0  0  0  0  0  0  0  0  0  0  0  0
   -0.9101    2.8893    3.0567 H   0  0  0  0  0  0  0  0  0  0  0  0
    0.8516    3.0958    3.1517 H   0  0  0  0  0  0  0  0  0  0  0  0
   -0.0378    3.7354    1.7549 H   0  0  0  0  0  0  0  0  0  0  0  0
  1  2  1  0  0  0  0
  2  3  1  0  0  0  0
  2  4  1  0  0  0  0
  2  5  1  0  0  0  0
  5  6  2  0  0  0  0
  5  7  1  0  0  0  0
  7  8  1  0  0  0  0
  7  9  1  0  0  0  0
  9 10  1  0  0  0  0
  9 11  1  0  0  0  0
  9 24  1  0  0  0  0
 11 12  1  0  0  0  0
 11 13  1  0  0  0  0
 11 14  1  0  0  0  0
 14 15  1  0  0  0  0
 14 16  1  0  0  0  0
 14 20  1  0  0  0  0
 16 17  1  0  0  0  0
 16 18  1  0  0  0  0
 16 19  1  0  0  0  0
 20 21  1  0  0  0  0
 20 22  1  0  0  0  0
 20 23  1  0  0  0  0
 24 25  2  0  0  0  0
 24 26  1  0  0  0  0
 26 27  1  0  0  0  0
 26 28  1  0  0  0  0
 28 29  1  0  0  0  0
 28 30  1  0  0  0  0
 28 31  1  0  0  0  0
M  END
$$$$

  -OEChem-03222214063D

 31 30  0     1  0  0  0  0  0999 V2000
   -3.3096   -3.9499    1.1513 H   0  0  0  0  0  0  0  0  0  0  0  0
   -3.3456   -2.9244    0.7730 C   0  0  0  0  0  0  0  0  0  0  0  0
   -3.9688   -2.3244    1.4407 H   0  0  0  0  0  0  0  0  0  0  0  0
   -3.7934   -2.9317   -0.2237 H   0  0  0  0  0  0  0  0  0  0  0  0
   -1.9465   -2.3418    0.7071 C   0  0  0  0  0  0  0  0  0  0  0  0
   -0.9848   -3.0296    1.0129 O   0  0  0  0  0  0  0  0  0  0  0  0
   -1.7698   -1.0356    0.2996 N   0  0  0  0  0  0  0  0  0  0  0  0
   -2.6088   -0.4773    0.1513 H   0  0  0  0  0  0  0  0  0  0  0  0
   -0.4926   -0.3080    0.3202 C   0  0  1  0  0  0  0  0  0  0  0  0
    0.1112   -0.8092    1.0840 H   0  0  0  0  0  0  0  0  0  0  0  0
    0.3022   -0.5442   -0.9929 C   0  0  0  0  0  0  0  0  0  0  0  0
    1.3587   -0.4716   -0.7153 H   0  0  0  0  0  0  0  0  0  0  0  0
    0.1456   -1.5890   -1.2826 H   0  0  0  0  0  0  0  0  0  0  0  0
    0.1412    0.3675   -2.2500 C   0  0  0  0  0  0  0  0  0  0  0  0
    1.1319    0.7586   -2.5066 H   0  0  0  0  0  0  0  0  0  0  0  0
   -0.3408   -0.4947   -3.4269 C   0  0  0  0  0  0  0  0  0  0  0  0
   -1.3308   -0.9128   -3.2167 H   0  0  0  0  0  0  0  0  0  0  0  0
   -0.4021    0.1016   -4.3428 H   0  0  0  0  0  0  0  0  0  0  0  0
    0.3554   -1.3197   -3.6086 H   0  0  0  0  0  0  0  0  0  0  0  0
   -0.8058    1.5677   -2.1465 C   0  0  0  0  0  0  0  0  0  0  0  0
   -0.4043    2.3183   -1.4610 H   0  0  0  0  0  0  0  0  0  0  0  0
   -0.9173    2.0508   -3.1221 H   0  0  0  0  0  0  0  0  0  0  0  0
   -1.7981    1.2529   -1.8098 H   0  0  0  0  0  0  0  0  0  0  0  0
   -0.6143    1.1231    0.8874 C   0  0  0  0  0  0  0  0  0  0  0  0
   -1.6685    1.7407    0.7772 O   0  0  0  0  0  0  0  0  0  0  0  0
    0.3215    1.5862    1.7954 N   0  0  0  0  0  0  0  0  0  0  0  0
    1.1270    0.9960    1.9824 H   0  0  0  0  0  0  0  0  0  0  0  0
    0.1705    2.8284    2.5436 C   0  0  0  0  0  0  0  0  0  0  0  0
   -0.7029    2.7755    3.2022 H   0  0  0  0  0  0  0  0  0  0  0  0
    1.0574    3.0095    3.1583 H   0  0  0  0  0  0  0  0  0  0  0  0
    0.0463    3.6747    1.8598 H   0  0  0  0  0  0  0  0  0  0  0  0
  1  2  1  0  0  0  0
  2  3  1  0  0  0  0
  2  4  1  0  0  0  0
  2  5  1  0  0  0  0
  5  6  2  0  0  0  0
  5  7  1  0  0  0  0
  7  8  1  0  0  0  0
  7  9  1  0  0  0  0
  9 10  1  0  0  0  0
  9 11  1  0  0  0  0
  9 24  1  0  0  0  0
 11 12  1  0  0  0  0
 11 13  1  0  0  0  0
 11 14  1  0  0  0  0
 14 15  1  0  0  0  0
 14 16  1  0  0  0  0
 14 20  1  0  0  0  0
 16 17  1  0  0  0  0
 16 18  1  0  0  0  0
 16 19  1  0  0  0  0
 20 21  1  0  0  0  0
 20 22  1  0  0  0  0
 20 23  1  0  0  0  0
 24 25  2  0  0  0  0
 24 26  1  0  0  0  0
 26 27  1  0  0  0  0
 26 28  1  0  0  0  0
 28 29  1  0  0  0  0
 28 30  1  0  0  0  0
 28 31  1  0  0  0  0
M  END
$$$$

  -OEChem-03222214063D

 31 30  0     1  0  0  0  0  0999 V2000
   -3.2563   -3.9579    1.2429 H   0  0  0  0  0  0  0  0  0  0  0  0
   -3.3025   -2.9430    0.8384 C   0  0  0  0  0  0  0  0  0  0  0  0
   -3.9272   -2.3314    1.4938 H   0  0  0  0  0  0  0  0  0  0  0  0
   -3.7553   -2.9797   -0.1552 H   0  0  0  0  0  0  0  0  0  0  0  0
   -1.9082   -2.3511    0.7507 C   0  0  0  0  0  0  0  0  0  0  0  0
   -0.9382   -3.0290    1.0526 O   0  0  0  0  0  0  0  0  0  0  0  0
   -1.7447   -1.0474    0.3296 N   0  0  0  0  0  0  0  0  0  0  0  0
   -2.5887   -0.4948    0.1871 H   0  0  0  0  0  0  0  0  0  0  0  0
   -0.4723   -0.3114    0.3313 C   0  0  1  0  0  0  0  0  0  0  0  0
    0.1488   -0.8009    1.0890 H   0  0  0  0  0  0  0  0  0  0  0  0
    0.2944   -0.5533   -0.9981 C   0  0  0  0  0  0  0  0  0  0  0  0
    1.3526   -0.4555   -0.7348 H   0  0  0  0  0  0  0  0  0  0  0  0
    0.1571   -1.6025   -1.2816 H   0  0  0  0  0  0  0  0  0  0  0  0
    0.1092    0.3457   -2.2581 C   0  0  0  0  0  0  0  0  0  0  0  0
    1.1049    0.4740   -2.6965 H   0  0  0  0  0  0  0  0  0  0  0  0
   -0.7372   -0.4070   -3.2933 C   0  0  0  0  0  0  0  0  0  0  0  0
   -1.7385   -0.6050   -2.8973 H   0  0  0  0  0  0  0  0  0  0  0  0
   -0.8361    0.1823   -4.2103 H   0  0  0  0  0  0  0  0  0  0  0  0
   -0.2696   -1.3618   -3.5536 H   0  0  0  0  0  0  0  0  0  0  0  0
   -0.4681    1.7521   -2.0793 C   0  0  0  0  0  0  0  0  0  0  0  0
    0.1221    2.3275   -1.3606 H   0  0  0  0  0  0  0  0  0  0  0  0
   -0.4434    2.2905   -3.0319 H   0  0  0  0  0  0  0  0  0  0  0  0
   -1.5098    1.7062   -1.7505 H   0  0  0  0  0  0  0  0  0  0  0  0
   -0.6132    1.1209    0.8891 C   0  0  0  0  0  0  0  0  0  0  0  0
   -1.6754    1.7232    0.7736 O   0  0  0  0  0  0  0  0  0  0  0  0
    0.3194    1.6074    1.7880 N   0  0  0  0  0  0  0  0  0  0  0  0
    1.1374    1.0342    1.9740 H   0  0  0  0  0  0  0  0  0  0  0  0
    0.1556    2.8591    2.5179 C   0  0  0  0  0  0  0  0  0  0  0  0
   -0.7223    2.8102    3.1707 H   0  0  0  0  0  0  0  0  0  0  0  0
    1.0368    3.0543    3.1366 H   0  0  0  0  0  0  0  0  0  0  0  0
    0.0312    3.6950    1.8214 H   0  0  0  0  0  0  0  0  0  0  0  0
  1  2  1  0  0  0  0
  2  3  1  0  0  0  0
  2  4  1  0  0  0  0
  2  5  1  0  0  0  0
  5  6  2  0  0  0  0
  5  7  1  0  0  0  0
  7  8  1  0  0  0  0
  7  9  1  0  0  0  0
  9 10  1  0  0  0  0
  9 11  1  0  0  0  0
  9 24  1  0  0  0  0
 11 12  1  0  0  0  0
 11 13  1  0  0  0  0
 11 14  1  0  0  0  0
 14 15  1  0  0  0  0
 14 16  1  0  0  0  0
 14 20  1  0  0  0  0
 16 17  1  0  0  0  0
 16 18  1  0  0  0  0
 16 19  1  0  0  0  0
 20 21  1  0  0  0  0
 20 22  1  0  0  0  0
 20 23  1  0  0  0  0
 24 25  2  0  0  0  0
 24 26  1  0  0  0  0
 26 27  1  0  0  0  0
 26 28  1  0  0  0  0
 28 29  1  0  0  0  0
 28 30  1  0  0  0  0
 28 31  1  0  0  0  0
M  END
$$$$

  -OEChem-03222214063D

 31 30  0     1  0  0  0  0  0999 V2000
   -3.4347   -3.8264    1.3062 H   0  0  0  0  0  0  0  0  0  0  0  0
   -3.4234   -2.8214    0.8751 C   0  0  0  0  0  0  0  0  0  0  0  0
   -4.0401   -2.1655    1.4943 H   0  0  0  0  0  0  0  0  0  0  0  0
   -3.8461   -2.8644   -0.1316 H   0  0  0  0  0  0  0  0  0  0  0  0
   -2.0027   -2.2929    0.8166 C   0  0  0  0  0  0  0  0  0  0  0  0
   -1.0745   -2.9934    1.1898 O   0  0  0  0  0  0  0  0  0  0  0  0
   -1.7684   -1.0201    0.3399 N   0  0  0  0  0  0  0  0  0  0  0  0
   -2.5822   -0.4402    0.1409 H   0  0  0  0  0  0  0  0  0  0  0  0
   -0.4675   -0.3364    0.3590 C   0  0  1  0  0  0  0  0  0  0  0  0
    0.1223   -0.8145    1.1481 H   0  0  0  0  0  0  0  0  0  0  0  0
    0.3039   -0.6409   -0.9539 C   0  0  0  0  0  0  0  0  0  0  0  0
    1.3630   -0.5891   -0.6817 H   0  0  0  0  0  0  0  0  0  0  0  0
    0.1167   -1.6843   -1.2305 H   0  0  0  0  0  0  0  0  0  0  0  0
    0.1663    0.2482   -2.2213 C   0  0  0  0  0  0  0  0  0  0  0  0
    1.0851    0.0791   -2.7935 H   0  0  0  0  0  0  0  0  0  0  0  0
   -0.9807   -0.2664   -3.0979 C   0  0  0  0  0  0  0  0  0  0  0  0
   -1.9350   -0.1731   -2.5699 H   0  0  0  0  0  0  0  0  0  0  0  0
   -1.0397    0.3102   -4.0264 H   0  0  0  0  0  0  0  0  0  0  0  0
   -0.8269   -1.3183   -3.3580 H   0  0  0  0  0  0  0  0  0  0  0  0
    0.0692    1.7662   -2.0405 C   0  0  0  0  0  0  0  0  0  0  0  0
    0.7966    2.1175   -1.3027 H   0  0  0  0  0  0  0  0  0  0  0  0
   -0.9366    2.0645   -1.7358 H   0  0  0  0  0  0  0  0  0  0  0  0
    0.2850    2.2653   -2.9901 H   0  0  0  0  0  0  0  0  0  0  0  0
   -0.6014    1.1223    0.8433 C   0  0  0  0  0  0  0  0  0  0  0  0
   -1.6418    1.7403    0.6406 O   0  0  0  0  0  0  0  0  0  0  0  0
    0.2974    1.6327    1.7628 N   0  0  0  0  0  0  0  0  0  0  0  0
    1.0875    1.0492    2.0224 H   0  0  0  0  0  0  0  0  0  0  0  0
    0.1205    2.9175    2.4290 C   0  0  0  0  0  0  0  0  0  0  0  0
   -0.7926    2.9125    3.0336 H   0  0  0  0  0  0  0  0  0  0  0  0
    0.9703    3.1233    3.0868 H   0  0  0  0  0  0  0  0  0  0  0  0
    0.0511    3.7245    1.6920 H   0  0  0  0  0  0  0  0  0  0  0  0
  1  2  1  0  0  0  0
  2  3  1  0  0  0  0
  2  4  1  0  0  0  0
  2  5  1  0  0  0  0
  5  6  2  0  0  0  0
  5  7  1  0  0  0  0
  7  8  1  0  0  0  0
  7  9  1  0  0  0  0
  9 10  1  0  0  0  0
  9 11  1  0  0  0  0
  9 24  1  0  0  0  0
 11 12  1  0  0  0  0
 11 13  1  0  0  0  0
 11 14  1  0  0  0  0
 14 15  1  0  0  0  0
 14 16  1  0  0  0  0
 14 20  1  0  0  0  0
 16 17  1  0  0  0  0
 16 18  1  0  0  0  0
 16 19  1  0  0  0  0
 20 21  1  0  0  0  0
 20 22  1  0  0  0  0
 20 23  1  0  0  0  0
 24 25  2  0  0  0  0
 24 26  1  0  0  0  0
 26 27  1  0  0  0  0
 26 28  1  0  0  0  0
 28 29  1  0  0  0  0
 28 30  1  0  0  0  0
 28 31  1  0  0  0  0
M  END
$$$$

  -OEChem-03222214063D

 31 30  0     1  0  0  0  0  0999 V2000
   -3.4117   -3.9001    1.1784 H   0  0  0  0  0  0  0  0  0  0  0  0
   -3.3944   -2.8941    0.7499 C   0  0  0  0  0  0  0  0  0  0  0  0
   -4.0415   -2.2463    1.3464 H   0  0  0  0  0  0  0  0  0  0  0  0
   -3.7775   -2.9392   -0.2724 H   0  0  0  0  0  0  0  0  0  0  0  0
   -1.9779   -2.3512    0.7468 C   0  0  0  0  0  0  0  0  0  0  0  0
   -1.0580   -3.0426    1.1559 O   0  0  0  0  0  0  0  0  0  0  0  0
   -1.7365   -1.0757    0.2813 N   0  0  0  0  0  0  0  0  0  0  0  0
   -2.5461   -0.5024    0.0482 H   0  0  0  0  0  0  0  0  0  0  0  0
   -0.4432   -0.3810    0.3574 C   0  0  1  0  0  0  0  0  0  0  0  0
    0.1359   -0.8609    1.1532 H   0  0  0  0  0  0  0  0  0  0  0  0
    0.3557   -0.6281   -0.9499 C   0  0  0  0  0  0  0  0  0  0  0  0
    1.4132   -0.6004   -0.6683 H   0  0  0  0  0  0  0  0  0  0  0  0
    0.1578   -1.6512   -1.2878 H   0  0  0  0  0  0  0  0  0  0  0  0
    0.2135    0.3270   -2.1626 C   0  0  0  0  0  0  0  0  0  0  0  0
    0.9946    0.0110   -2.8626 H   0  0  0  0  0  0  0  0  0  0  0  0
   -1.1196    0.0984   -2.8807 C   0  0  0  0  0  0  0  0  0  0  0  0
   -1.9547    0.3996   -2.2409 H   0  0  0  0  0  0  0  0  0  0  0  0
   -1.1604    0.6864   -3.8026 H   0  0  0  0  0  0  0  0  0  0  0  0
   -1.2417   -0.9575   -3.1404 H   0  0  0  0  0  0  0  0  0  0  0  0
    0.4734    1.8180   -1.9091 C   0  0  0  0  0  0  0  0  0  0  0  0
    1.2876    1.9527   -1.1906 H   0  0  0  0  0  0  0  0  0  0  0  0
   -0.4200    2.3257   -1.5398 H   0  0  0  0  0  0  0  0  0  0  0  0
    0.7607    2.3061   -2.8455 H   0  0  0  0  0  0  0  0  0  0  0  0
   -0.6314    1.0720    0.8383 C   0  0  0  0  0  0  0  0  0  0  0  0
   -1.6604    1.6792    0.5578 O   0  0  0  0  0  0  0  0  0  0  0  0
    0.2098    1.6006    1.8009 N   0  0  0  0  0  0  0  0  0  0  0  0
    0.9898    1.0276    2.1100 H   0  0  0  0  0  0  0  0  0  0  0  0
   -0.0179    2.8887    2.4447 C   0  0  0  0  0  0  0  0  0  0  0  0
   -0.9664    2.8807    2.9922 H   0  0  0  0  0  0  0  0  0  0  0  0
    0.7881    3.1063    3.1522 H   0  0  0  0  0  0  0  0  0  0  0  0
   -0.0478    3.6895    1.6982 H   0  0  0  0  0  0  0  0  0  0  0  0
  1  2  1  0  0  0  0
  2  3  1  0  0  0  0
  2  4  1  0  0  0  0
  2  5  1  0  0  0  0
  5  6  2  0  0  0  0
  5  7  1  0  0  0  0
  7  8  1  0  0  0  0
  7  9  1  0  0  0  0
  9 10  1  0  0  0  0
  9 11  1  0  0  0  0
  9 24  1  0  0  0  0
 11 12  1  0  0  0  0
 11 13  1  0  0  0  0
 11 14  1  0  0  0  0
 14 15  1  0  0  0  0
 14 16  1  0  0  0  0
 14 20  1  0  0  0  0
 16 17  1  0  0  0  0
 16 18  1  0  0  0  0
 16 19  1  0  0  0  0
 20 21  1  0  0  0  0
 20 22  1  0  0  0  0
 20 23  1  0  0  0  0
 24 25  2  0  0  0  0
 24 26  1  0  0  0  0
 26 27  1  0  0  0  0
 26 28  1  0  0  0  0
 28 29  1  0  0  0  0
 28 30  1  0  0  0  0
 28 31  1  0  0  0  0
M  END
$$$$

  -OEChem-03222214063D

 31 30  0     1  0  0  0  0  0999 V2000
   -3.3283   -3.9519    1.2139 H   0  0  0  0  0  0  0  0  0  0  0  0
   -3.3351   -2.9443    0.7887 C   0  0  0  0  0  0  0  0  0  0  0  0
   -3.9790   -2.3083    1.4011 H   0  0  0  0  0  0  0  0  0  0  0  0
   -3.7398   -2.9922   -0.2252 H   0  0  0  0  0  0  0  0  0  0  0  0
   -1.9269   -2.3802    0.7574 C   0  0  0  0  0  0  0  0  0  0  0  0
   -0.9883   -3.0617    1.1394 O   0  0  0  0  0  0  0  0  0  0  0  0
   -1.7142   -1.0984    0.2945 N   0  0  0  0  0  0  0  0  0  0  0  0
   -2.5368   -0.5369    0.0799 H   0  0  0  0  0  0  0  0  0  0  0  0
   -0.4279   -0.3875    0.3396 C   0  0  1  0  0  0  0  0  0  0  0  0
    0.1752   -0.8687    1.1165 H   0  0  0  0  0  0  0  0  0  0  0  0
    0.3497   -0.6072   -0.9845 C   0  0  0  0  0  0  0  0  0  0  0  0
    1.4154   -0.5903   -0.7354 H   0  0  0  0  0  0  0  0  0  0  0  0
    0.1348   -1.6211   -1.3387 H   0  0  0  0  0  0  0  0  0  0  0  0
    0.1546    0.3671   -2.1730 C   0  0  0  0  0  0  0  0  0  0  0  0
    0.7470   -0.0510   -2.9940 H   0  0  0  0  0  0  0  0  0  0  0  0
   -1.3014    0.4048   -2.6507 C   0  0  0  0  0  0  0  0  0  0  0  0
   -1.9516    0.8663   -1.9033 H   0  0  0  0  0  0  0  0  0  0  0  0
   -1.3789    0.9840   -3.5759 H   0  0  0  0  0  0  0  0  0  0  0  0
   -1.6636   -0.6087   -2.8481 H   0  0  0  0  0  0  0  0  0  0  0  0
    0.6967    1.7853   -1.9386 C   0  0  0  0  0  0  0  0  0  0  0  0
    1.6607    1.7495   -1.4222 H   0  0  0  0  0  0  0  0  0  0  0  0
    0.8422    2.2877   -2.9000 H   0  0  0  0  0  0  0  0  0  0  0  0
    0.0050    2.3944   -1.3530 H   0  0  0  0  0  0  0  0  0  0  0  0
   -0.5994    1.0633    0.8338 C   0  0  0  0  0  0  0  0  0  0  0  0
   -1.6228    1.6865    0.5707 O   0  0  0  0  0  0  0  0  0  0  0  0
    0.2730    1.5854    1.7718 N   0  0  0  0  0  0  0  0  0  0  0  0
    1.0569    1.0063    2.0592 H   0  0  0  0  0  0  0  0  0  0  0  0
    0.0835    2.8826    2.4096 C   0  0  0  0  0  0  0  0  0  0  0  0
   -0.8491    2.8952    2.9835 H   0  0  0  0  0  0  0  0  0  0  0  0
    0.9124    3.0930    3.0921 H   0  0  0  0  0  0  0  0  0  0  0  0
    0.0457    3.6775    1.6573 H   0  0  0  0  0  0  0  0  0  0  0  0
  1  2  1  0  0  0  0
  2  3  1  0  0  0  0
  2  4  1  0  0  0  0
  2  5  1  0  0  0  0
  5  6  2  0  0  0  0
  5  7  1  0  0  0  0
  7  8  1  0  0  0  0
  7  9  1  0  0  0  0
  9 10  1  0  0  0  0
  9 11  1  0  0  0  0
  9 24  1  0  0  0  0
 11 12  1  0  0  0  0
 11 13  1  0  0  0  0
 11 14  1  0  0  0  0
 14 15  1  0  0  0  0
 14 16  1  0  0  0  0
 14 20  1  0  0  0  0
 16 17  1  0  0  0  0
 16 18  1  0  0  0  0
 16 19  1  0  0  0  0
 20 21  1  0  0  0  0
 20 22  1  0  0  0  0
 20 23  1  0  0  0  0
 24 25  2  0  0  0  0
 24 26  1  0  0  0  0
 26 27  1  0  0  0  0
 26 28  1  0  0  0  0
 28 29  1  0  0  0  0
 28 30  1  0  0  0  0
 28 31  1  0  0  0  0
M  END
$$$$

  -OEChem-03222214063D

 31 30  0     1  0  0  0  0  0999 V2000
   -3.3068   -3.9589    1.2182 H   0  0  0  0  0  0  0  0  0  0  0  0
   -3.3303   -2.9493    0.7985 C   0  0  0  0  0  0  0  0  0  0  0  0
   -3.9737   -2.3239    1.4222 H   0  0  0  0  0  0  0  0  0  0  0  0
   -3.7460   -2.9963   -0.2109 H   0  0  0  0  0  0  0  0  0  0  0  0
   -1.9295   -2.3688    0.7538 C   0  0  0  0  0  0  0  0  0  0  0  0
   -0.9788   -3.0425    1.1196 O   0  0  0  0  0  0  0  0  0  0  0  0
   -1.7378   -1.0814    0.2966 N   0  0  0  0  0  0  0  0  0  0  0  0
   -2.5701   -0.5318    0.0895 H   0  0  0  0  0  0  0  0  0  0  0  0
   -0.4612   -0.3529    0.3320 C   0  0  1  0  0  0  0  0  0  0  0  0
    0.1306   -0.8294    1.1203 H   0  0  0  0  0  0  0  0  0  0  0  0
    0.3570   -0.5892   -0.9636 C   0  0  0  0  0  0  0  0  0  0  0  0
    1.4165   -0.5673   -0.6895 H   0  0  0  0  0  0  0  0  0  0  0  0
    0.1502   -1.6112   -1.2993 H   0  0  0  0  0  0  0  0  0  0  0  0
    0.1760    0.3472   -2.1856 C   0  0  0  0  0  0  0  0  0  0  0  0
    0.6032   -0.1816   -3.0445 H   0  0  0  0  0  0  0  0  0  0  0  0
   -1.2906    0.6521   -2.5186 C   0  0  0  0  0  0  0  0  0  0  0  0
   -1.7334    1.3540   -1.8117 H   0  0  0  0  0  0  0  0  0  0  0  0
   -1.3594    1.0973   -3.5158 H   0  0  0  0  0  0  0  0  0  0  0  0
   -1.8807   -0.2694   -2.5146 H   0  0  0  0  0  0  0  0  0  0  0  0
    0.9563    1.6614   -2.0345 C   0  0  0  0  0  0  0  0  0  0  0  0
    2.0034    1.4604   -1.7880 H   0  0  0  0  0  0  0  0  0  0  0  0
    0.9295    2.2216   -2.9743 H   0  0  0  0  0  0  0  0  0  0  0  0
    0.5297    2.2946   -1.2528 H   0  0  0  0  0  0  0  0  0  0  0  0
   -0.6044    1.1003    0.8321 C   0  0  0  0  0  0  0  0  0  0  0  0
   -1.6358    1.7301    0.6274 O   0  0  0  0  0  0  0  0  0  0  0  0
    0.2977    1.6019    1.7538 N   0  0  0  0  0  0  0  0  0  0  0  0
    1.0865    1.0139    2.0072 H   0  0  0  0  0  0  0  0  0  0  0  0
    0.1272    2.8816    2.4316 C   0  0  0  0  0  0  0  0  0  0  0  0
   -0.7896    2.8786    3.0304 H   0  0  0  0  0  0  0  0  0  0  0  0
    0.9743    3.0733    3.0973 H   0  0  0  0  0  0  0  0  0  0  0  0
    0.0700    3.6966    1.7025 H   0  0  0  0  0  0  0  0  0  0  0  0
  1  2  1  0  0  0  0
  2  3  1  0  0  0  0
  2  4  1  0  0  0  0
  2  5  1  0  0  0  0
  5  6  2  0  0  0  0
  5  7  1  0  0  0  0
  7  8  1  0  0  0  0
  7  9  1  0  0  0  0
  9 10  1  0  0  0  0
  9 11  1  0  0  0  0
  9 24  1  0  0  0  0
 11 12  1  0  0  0  0
 11 13  1  0  0  0  0
 11 14  1  0  0  0  0
 14 15  1  0  0  0  0
 14 16  1  0  0  0  0
 14 20  1  0  0  0  0
 16 17  1  0  0  0  0
 16 18  1  0  0  0  0
 16 19  1  0  0  0  0
 20 21  1  0  0  0  0
 20 22  1  0  0  0  0
 20 23  1  0  0  0  0
 24 25  2  0  0  0  0
 24 26  1  0  0  0  0
 26 27  1  0  0  0  0
 26 28  1  0  0  0  0
 28 29  1  0  0  0  0
 28 30  1  0  0  0  0
 28 31  1  0  0  0  0
M  END
$$$$

  -OEChem-03222214063D

 31 30  0     1  0  0  0  0  0999 V2000
   -3.2933   -3.9185    1.3643 H   0  0  0  0  0  0  0  0  0  0  0  0
   -3.3249   -2.9188    0.9223 C   0  0  0  0  0  0  0  0  0  0  0  0
   -3.9550   -2.2786    1.5445 H   0  0  0  0  0  0  0  0  0  0  0  0
   -3.7622   -2.9886   -0.0766 H   0  0  0  0  0  0  0  0  0  0  0  0
   -1.9248   -2.3412    0.8346 C   0  0  0  0  0  0  0  0  0  0  0  0
   -0.9677   -3.0027    1.2062 O   0  0  0  0  0  0  0  0  0  0  0  0
   -1.7415   -1.0690    0.3334 N   0  0  0  0  0  0  0  0  0  0  0  0
   -2.5788   -0.5225    0.1377 H   0  0  0  0  0  0  0  0  0  0  0  0
   -0.4679   -0.3340    0.3392 C   0  0  1  0  0  0  0  0  0  0  0  0
    0.1218   -0.7796    1.1471 H   0  0  0  0  0  0  0  0  0  0  0  0
    0.3652   -0.6107   -0.9380 C   0  0  0  0  0  0  0  0  0  0  0  0
    1.4211   -0.5871   -0.6504 H   0  0  0  0  0  0  0  0  0  0  0  0
    0.1587   -1.6442   -1.2361 H   0  0  0  0  0  0  0  0  0  0  0  0
    0.1966    0.2731   -2.2045 C   0  0  0  0  0  0  0  0  0  0  0  0
    0.4126   -0.3667   -3.0670 H   0  0  0  0  0  0  0  0  0  0  0  0
   -1.1977    0.8787   -2.4177 C   0  0  0  0  0  0  0  0  0  0  0  0
   -1.3216    1.1514   -3.4701 H   0  0  0  0  0  0  0  0  0  0  0  0
   -1.3415    1.7863   -1.8294 H   0  0  0  0  0  0  0  0  0  0  0  0
   -1.9776    0.1562   -2.1614 H   0  0  0  0  0  0  0  0  0  0  0  0
    1.2234    1.4146   -2.2008 C   0  0  0  0  0  0  0  0  0  0  0  0
    2.2416    1.0149   -2.1642 H   0  0  0  0  0  0  0  0  0  0  0  0
    1.1268    2.0147   -3.1111 H   0  0  0  0  0  0  0  0  0  0  0  0
    1.0754    2.0707   -1.3377 H   0  0  0  0  0  0  0  0  0  0  0  0
   -0.6133    1.1351    0.7904 C   0  0  0  0  0  0  0  0  0  0  0  0
   -1.6676    1.7342    0.6099 O   0  0  0  0  0  0  0  0  0  0  0  0
    0.2928    1.6683    1.6900 N   0  0  0  0  0  0  0  0  0  0  0  0
    1.0918    1.0955    1.9458 H   0  0  0  0  0  0  0  0  0  0  0  0
    0.1102    2.9556    2.3499 C   0  0  0  0  0  0  0  0  0  0  0  0
   -0.7851    2.9394    2.9803 H   0  0  0  0  0  0  0  0  0  0  0  0
    0.9744    3.1824    2.9817 H   0  0  0  0  0  0  0  0  0  0  0  0
    0.0056    3.7549    1.6086 H   0  0  0  0  0  0  0  0  0  0  0  0
  1  2  1  0  0  0  0
  2  3  1  0  0  0  0
  2  4  1  0  0  0  0
  2  5  1  0  0  0  0
  5  6  2  0  0  0  0
  5  7  1  0  0  0  0
  7  8  1  0  0  0  0
  7  9  1  0  0  0  0
  9 10  1  0  0  0  0
  9 11  1  0  0  0  0
  9 24  1  0  0  0  0
 11 12  1  0  0  0  0
 11 13  1  0  0  0  0
 11 14  1  0  0  0  0
 14 15  1  0  0  0  0
 14 16  1  0  0  0  0
 14 20  1  0  0  0  0
 16 17  1  0  0  0  0
 16 18  1  0  0  0  0
 16 19  1  0  0  0  0
 20 21  1  0  0  0  0
 20 22  1  0  0  0  0
 20 23  1  0  0  0  0
 24 25  2  0  0  0  0
 24 26  1  0  0  0  0
 26 27  1  0  0  0  0
 26 28  1  0  0  0  0
 28 29  1  0  0  0  0
 28 30  1  0  0  0  0
 28 31  1  0  0  0  0
M  END
$$$$

  -OEChem-03222214063D

 31 30  0     1  0  0  0  0  0999 V2000
   -3.3650   -3.9482    1.0965 H   0  0  0  0  0  0  0  0  0  0  0  0
   -3.3756   -2.9398    0.6732 C   0  0  0  0  0  0  0  0  0  0  0  0
   -4.0560   -2.3183    1.2602 H   0  0  0  0  0  0  0  0  0  0  0  0
   -3.7381   -2.9934   -0.3562 H   0  0  0  0  0  0  0  0  0  0  0  0
   -1.9797   -2.3465    0.7006 C   0  0  0  0  0  0  0  0  0  0  0  0
   -1.0469   -3.0029    1.1371 O   0  0  0  0  0  0  0  0  0  0  0  0
   -1.7734   -1.0653    0.2319 N   0  0  0  0  0  0  0  0  0  0  0  0
   -2.5998   -0.5248   -0.0184 H   0  0  0  0  0  0  0  0  0  0  0  0
   -0.5134   -0.3164    0.3489 C   0  0  1  0  0  0  0  0  0  0  0  0
    0.0083   -0.7640    1.2012 H   0  0  0  0  0  0  0  0  0  0  0  0
    0.4286   -0.5874   -0.8522 C   0  0  0  0  0  0  0  0  0  0  0  0
    1.4507   -0.5517   -0.4618 H   0  0  0  0  0  0  0  0  0  0  0  0
    0.2658   -1.6262   -1.1585 H   0  0  0  0  0  0  0  0  0  0  0  0
    0.3763    0.2829   -2.1432 C   0  0  0  0  0  0  0  0  0  0  0  0
    0.4058   -0.4111   -2.9905 H   0  0  0  0  0  0  0  0  0  0  0  0
   -0.8571    1.1740   -2.3364 C   0  0  0  0  0  0  0  0  0  0  0  0
   -0.9351    1.4729   -3.3863 H   0  0  0  0  0  0  0  0  0  0  0  0
   -0.7887    2.0880   -1.7414 H   0  0  0  0  0  0  0  0  0  0  0  0
   -1.7714    0.6352   -2.0709 H   0  0  0  0  0  0  0  0  0  0  0  0
    1.6236    1.1742   -2.2260 C   0  0  0  0  0  0  0  0  0  0  0  0
    2.5318    0.5634   -2.2259 H   0  0  0  0  0  0  0  0  0  0  0  0
    1.6113    1.7645   -3.1478 H   0  0  0  0  0  0  0  0  0  0  0  0
    1.6643    1.8610   -1.3744 H   0  0  0  0  0  0  0  0  0  0  0  0
   -0.7091    1.1451    0.8062 C   0  0  0  0  0  0  0  0  0  0  0  0
   -1.7585    1.7297    0.5583 O   0  0  0  0  0  0  0  0  0  0  0  0
    0.1172    1.6751    1.7813 N   0  0  0  0  0  0  0  0  0  0  0  0
    0.9055    1.1108    2.0851 H   0  0  0  0  0  0  0  0  0  0  0  0
   -0.1405    2.9429    2.4536 C   0  0  0  0  0  0  0  0  0  0  0  0
   -1.0809    2.8961    3.0127 H   0  0  0  0  0  0  0  0  0  0  0  0
    0.6682    3.1697    3.1548 H   0  0  0  0  0  0  0  0  0  0  0  0
   -0.2034    3.7575    1.7244 H   0  0  0  0  0  0  0  0  0  0  0  0
  1  2  1  0  0  0  0
  2  3  1  0  0  0  0
  2  4  1  0  0  0  0
  2  5  1  0  0  0  0
  5  6  2  0  0  0  0
  5  7  1  0  0  0  0
  7  8  1  0  0  0  0
  7  9  1  0  0  0  0
  9 10  1  0  0  0  0
  9 11  1  0  0  0  0
  9 24  1  0  0  0  0
 11 12  1  0  0  0  0
 11 13  1  0  0  0  0
 11 14  1  0  0  0  0
 14 15  1  0  0  0  0
 14 16  1  0  0  0  0
 14 20  1  0  0  0  0
 16 17  1  0  0  0  0
 16 18  1  0  0  0  0
 16 19  1  0  0  0  0
 20 21  1  0  0  0  0
 20 22  1  0  0  0  0
 20 23  1  0  0  0  0
 24 25  2  0  0  0  0
 24 26  1  0  0  0  0
 26 27  1  0  0  0  0
 26 28  1  0  0  0  0
 28 29  1  0  0  0  0
 28 30  1  0  0  0  0
 28 31  1  0  0  0  0
M  END
$$$$

  -OEChem-03222214063D

 31 30  0     1  0  0  0  0  0999 V2000
   -3.2954   -3.9547    1.1658 H   0  0  0  0  0  0  0  0  0  0  0  0
   -3.3315   -2.9348    0.7728 C   0  0  0  0  0  0  0  0  0  0  0  0
   -3.9674   -2.3294    1.4234 H   0  0  0  0  0  0  0  0  0  0  0  0
   -3.7647   -2.9581   -0.2299 H   0  0  0  0  0  0  0  0  0  0  0  0
   -1.9346   -2.3459    0.7185 C   0  0  0  0  0  0  0  0  0  0  0  0
   -0.9745   -3.0229    1.0524 O   0  0  0  0  0  0  0  0  0  0  0  0
   -1.7577   -1.0461    0.2910 N   0  0  0  0  0  0  0  0  0  0  0  0
   -2.5974   -0.4938    0.1251 H   0  0  0  0  0  0  0  0  0  0  0  0
   -0.4866   -0.3086    0.3327 C   0  0  1  0  0  0  0  0  0  0  0  0
    0.0967   -0.7921    1.1235 H   0  0  0  0  0  0  0  0  0  0  0  0
    0.3521   -0.5579   -0.9492 C   0  0  0  0  0  0  0  0  0  0  0  0
    1.3976   -0.5151   -0.6269 H   0  0  0  0  0  0  0  0  0  0  0  0
    0.1806   -1.5943   -1.2597 H   0  0  0  0  0  0  0  0  0  0  0  0
    0.2167    0.3360   -2.2207 C   0  0  0  0  0  0  0  0  0  0  0  0
   -0.1141   -0.3270   -3.0279 H   0  0  0  0  0  0  0  0  0  0  0  0
   -0.7857    1.4933   -2.1818 C   0  0  0  0  0  0  0  0  0  0  0  0
   -0.4394    2.2966   -1.5257 H   0  0  0  0  0  0  0  0  0  0  0  0
   -0.9076    1.9138   -3.1847 H   0  0  0  0  0  0  0  0  0  0  0  0
   -1.7662    1.1424   -1.8470 H   0  0  0  0  0  0  0  0  0  0  0  0
    1.5881    0.9010   -2.6169 C   0  0  0  0  0  0  0  0  0  0  0  0
    2.3094    0.0901   -2.7591 H   0  0  0  0  0  0  0  0  0  0  0  0
    1.5153    1.4596   -3.5555 H   0  0  0  0  0  0  0  0  0  0  0  0
    1.9663    1.5743   -1.8408 H   0  0  0  0  0  0  0  0  0  0  0  0
   -0.6293    1.1324    0.8686 C   0  0  0  0  0  0  0  0  0  0  0  0
   -1.6864    1.7384    0.7268 O   0  0  0  0  0  0  0  0  0  0  0  0
    0.2812    1.6157    1.7916 N   0  0  0  0  0  0  0  0  0  0  0  0
    1.0852    1.0331    2.0073 H   0  0  0  0  0  0  0  0  0  0  0  0
    0.0932    2.8573    2.5324 C   0  0  0  0  0  0  0  0  0  0  0  0
   -0.7990    2.7953    3.1644 H   0  0  0  0  0  0  0  0  0  0  0  0
    0.9588    3.0497    3.1735 H   0  0  0  0  0  0  0  0  0  0  0  0
   -0.0204    3.7010    1.8436 H   0  0  0  0  0  0  0  0  0  0  0  0
  1  2  1  0  0  0  0
  2  3  1  0  0  0  0
  2  4  1  0  0  0  0
  2  5  1  0  0  0  0
  5  6  2  0  0  0  0
  5  7  1  0  0  0  0
  7  8  1  0  0  0  0
  7  9  1  0  0  0  0
  9 10  1  0  0  0  0
  9 11  1  0  0  0  0
  9 24  1  0  0  0  0
 11 12  1  0  0  0  0
 11 13  1  0  0  0  0
 11 14  1  0  0  0  0
 14 15  1  0  0  0  0
 14 16  1  0  0  0  0
 14 20  1  0  0  0  0
 16 17  1  0  0  0  0
 16 18  1  0  0  0  0
 16 19  1  0  0  0  0
 20 21  1  0  0  0  0
 20 22  1  0  0  0  0
 20 23  1  0  0  0  0
 24 25  2  0  0  0  0
 24 26  1  0  0  0  0
 26 27  1  0  0  0  0
 26 28  1  0  0  0  0
 28 29  1  0  0  0  0
 28 30  1  0  0  0  0
 28 31  1  0  0  0  0
M  END
$$$$

  -OEChem-03222214063D

 31 30  0     1  0  0  0  0  0999 V2000
   -3.2155   -3.9438    1.2949 H   0  0  0  0  0  0  0  0  0  0  0  0
   -3.2708   -2.9302    0.8882 C   0  0  0  0  0  0  0  0  0  0  0  0
   -3.8973   -2.3211    1.5443 H   0  0  0  0  0  0  0  0  0  0  0  0
   -3.7263   -2.9725   -0.1040 H   0  0  0  0  0  0  0  0  0  0  0  0
   -1.8818   -2.3280    0.7944 C   0  0  0  0  0  0  0  0  0  0  0  0
   -0.9082   -2.9872    1.1251 O   0  0  0  0  0  0  0  0  0  0  0  0
   -1.7280   -1.0342    0.3400 N   0  0  0  0  0  0  0  0  0  0  0  0
   -2.5769   -0.4953    0.1759 H   0  0  0  0  0  0  0  0  0  0  0  0
   -0.4648   -0.2823    0.3440 C   0  0  1  0  0  0  0  0  0  0  0  0
    0.1409   -0.7428    1.1316 H   0  0  0  0  0  0  0  0  0  0  0  0
    0.3437   -0.5563   -0.9538 C   0  0  0  0  0  0  0  0  0  0  0  0
    1.3916   -0.4664   -0.6492 H   0  0  0  0  0  0  0  0  0  0  0  0
    0.2003   -1.6066   -1.2294 H   0  0  0  0  0  0  0  0  0  0  0  0
    0.1796    0.2982   -2.2481 C   0  0  0  0  0  0  0  0  0  0  0  0
   -0.4235   -0.3052   -2.9354 H   0  0  0  0  0  0  0  0  0  0  0  0
   -0.5379    1.6467   -2.1488 C   0  0  0  0  0  0  0  0  0  0  0  0
   -0.0105    2.3255   -1.4724 H   0  0  0  0  0  0  0  0  0  0  0  0
   -0.5831    2.1223   -3.1336 H   0  0  0  0  0  0  0  0  0  0  0  0
   -1.5669    1.5079   -1.8067 H   0  0  0  0  0  0  0  0  0  0  0  0
    1.5504    0.5137   -2.9040 C   0  0  0  0  0  0  0  0  0  0  0  0
    2.0524   -0.4460   -3.0624 H   0  0  0  0  0  0  0  0  0  0  0  0
    1.4374    1.0031   -3.8765 H   0  0  0  0  0  0  0  0  0  0  0  0
    2.1864    1.1415   -2.2718 H   0  0  0  0  0  0  0  0  0  0  0  0
   -0.6218    1.1652    0.8578 C   0  0  0  0  0  0  0  0  0  0  0  0
   -1.6876    1.7555    0.7163 O   0  0  0  0  0  0  0  0  0  0  0  0
    0.2959    1.6798    1.7566 N   0  0  0  0  0  0  0  0  0  0  0  0
    1.1100    1.1118    1.9733 H   0  0  0  0  0  0  0  0  0  0  0  0
    0.1029    2.9348    2.4734 C   0  0  0  0  0  0  0  0  0  0  0  0
   -0.7803    2.8757    3.1182 H   0  0  0  0  0  0  0  0  0  0  0  0
    0.9744    3.1507    3.0988 H   0  0  0  0  0  0  0  0  0  0  0  0
   -0.0295    3.7624    1.7687 H   0  0  0  0  0  0  0  0  0  0  0  0
  1  2  1  0  0  0  0
  2  3  1  0  0  0  0
  2  4  1  0  0  0  0
  2  5  1  0  0  0  0
  5  6  2  0  0  0  0
  5  7  1  0  0  0  0
  7  8  1  0  0  0  0
  7  9  1  0  0  0  0
  9 10  1  0  0  0  0
  9 11  1  0  0  0  0
  9 24  1  0  0  0  0
 11 12  1  0  0  0  0
 11 13  1  0  0  0  0
 11 14  1  0  0  0  0
 14 15  1  0  0  0  0
 14 16  1  0  0  0  0
 14 20  1  0  0  0  0
 16 17  1  0  0  0  0
 16 18  1  0  0  0  0
 16 19  1  0  0  0  0
 20 21  1  0  0  0  0
 20 22  1  0  0  0  0
 20 23  1  0  0  0  0
 24 25  2  0  0  0  0
 24 26  1  0  0  0  0
 26 27  1  0  0  0  0
 26 28  1  0  0  0  0
 28 29  1  0  0  0  0
 28 30  1  0  0  0  0
 28 31  1  0  0  0  0
M  END
$$$$

  -OEChem-03222214063D

 31 30  0     1  0  0  0  0  0999 V2000
   -3.3119   -3.8976    1.2087 H   0  0  0  0  0  0  0  0  0  0  0  0
   -3.3343   -2.8891    0.7865 C   0  0  0  0  0  0  0  0  0  0  0  0
   -3.9791   -2.2619    1.4071 H   0  0  0  0  0  0  0  0  0  0  0  0
   -3.7485   -2.9389   -0.2234 H   0  0  0  0  0  0  0  0  0  0  0  0
   -1.9333   -2.3086    0.7423 C   0  0  0  0  0  0  0  0  0  0  0  0
   -0.9819   -2.9825    1.1058 O   0  0  0  0  0  0  0  0  0  0  0  0
   -1.7425   -1.0193    0.2900 N   0  0  0  0  0  0  0  0  0  0  0  0
   -2.5765   -0.4649    0.1022 H   0  0  0  0  0  0  0  0  0  0  0  0
   -0.4680   -0.2881    0.3358 C   0  0  1  0  0  0  0  0  0  0  0  0
    0.1116   -0.7555    1.1388 H   0  0  0  0  0  0  0  0  0  0  0  0
    0.3639   -0.5706   -0.9454 C   0  0  0  0  0  0  0  0  0  0  0  0
    1.4067   -0.4924   -0.6206 H   0  0  0  0  0  0  0  0  0  0  0  0
    0.2107   -1.6168   -1.2309 H   0  0  0  0  0  0  0  0  0  0  0  0
    0.2440    0.2951   -2.2334 C   0  0  0  0  0  0  0  0  0  0  0  0
   -0.5550   -0.1518   -2.8348 H   0  0  0  0  0  0  0  0  0  0  0  0
   -0.1208    1.7756   -2.0831 C   0  0  0  0  0  0  0  0  0  0  0  0
    0.5289    2.2680   -1.3537 H   0  0  0  0  0  0  0  0  0  0  0  0
   -1.1650    1.8841   -1.7815 H   0  0  0  0  0  0  0  0  0  0  0  0
   -0.0088    2.2937   -3.0407 H   0  0  0  0  0  0  0  0  0  0  0  0
    1.5489    0.1807   -3.0340 C   0  0  0  0  0  0  0  0  0  0  0  0
    1.8085   -0.8706   -3.1944 H   0  0  0  0  0  0  0  0  0  0  0  0
    1.4410    0.6577   -4.0132 H   0  0  0  0  0  0  0  0  0  0  0  0
    2.3726    0.6662   -2.5011 H   0  0  0  0  0  0  0  0  0  0  0  0
   -0.6360    1.1605    0.8416 C   0  0  0  0  0  0  0  0  0  0  0  0
   -1.6918    1.7561    0.6539 O   0  0  0  0  0  0  0  0  0  0  0  0
    0.2483    1.6731    1.7742 N   0  0  0  0  0  0  0  0  0  0  0  0
    1.0544    1.1053    2.0194 H   0  0  0  0  0  0  0  0  0  0  0  0
    0.0409    2.9385    2.4681 C   0  0  0  0  0  0  0  0  0  0  0  0
   -0.8835    2.9078    3.0544 H   0  0  0  0  0  0  0  0  0  0  0  0
    0.8743    3.1385    3.1483 H   0  0  0  0  0  0  0  0  0  0  0  0
   -0.0240    3.7623    1.7496 H   0  0  0  0  0  0  0  0  0  0  0  0
  1  2  1  0  0  0  0
  2  3  1  0  0  0  0
  2  4  1  0  0  0  0
  2  5  1  0  0  0  0
  5  6  2  0  0  0  0
  5  7  1  0  0  0  0
  7  8  1  0  0  0  0
  7  9  1  0  0  0  0
  9 10  1  0  0  0  0
  9 11  1  0  0  0  0
  9 24  1  0  0  0  0
 11 12  1  0  0  0  0
 11 13  1  0  0  0  0
 11 14  1  0  0  0  0
 14 15  1  0  0  0  0
 14 16  1  0  0  0  0
 14 20  1  0  0  0  0
 16 17  1  0  0  0  0
 16 18  1  0  0  0  0
 16 19  1  0  0  0  0
 20 21  1  0  0  0  0
 20 22  1  0  0  0  0
 20 23  1  0  0  0  0
 24 25  2  0  0  0  0
 24 26  1  0  0  0  0
 26 27  1  0  0  0  0
 26 28  1  0  0  0  0
 28 29  1  0  0  0  0
 28 30  1  0  0  0  0
 28 31  1  0  0  0  0
M  END
$$$$

  -OEChem-03222214063D

 31 30  0     1  0  0  0  0  0999 V2000
   -3.3602   -3.8998    1.0819 H   0  0  0  0  0  0  0  0  0  0  0  0
   -3.3599   -2.8799    0.6873 C   0  0  0  0  0  0  0  0  0  0  0  0
   -3.9967   -2.2572    1.3205 H   0  0  0  0  0  0  0  0  0  0  0  0
   -3.7672   -2.8937   -0.3264 H   0  0  0  0  0  0  0  0  0  0  0  0
   -1.9478   -2.3262    0.6692 C   0  0  0  0  0  0  0  0  0  0  0  0
   -1.0151   -3.0202    1.0434 O   0  0  0  0  0  0  0  0  0  0  0  0
   -1.7269   -1.0360    0.2340 N   0  0  0  0  0  0  0  0  0  0  0  0
   -2.5473   -0.4642    0.0381 H   0  0  0  0  0  0  0  0  0  0  0  0
   -0.4408   -0.3286    0.3121 C   0  0  1  0  0  0  0  0  0  0  0  0
    0.1347   -0.8172    1.1053 H   0  0  0  0  0  0  0  0  0  0  0  0
    0.3754   -0.5778   -0.9850 C   0  0  0  0  0  0  0  0  0  0  0  0
    1.4257   -0.5395   -0.6779 H   0  0  0  0  0  0  0  0  0  0  0  0
    0.1865   -1.6058   -1.3131 H   0  0  0  0  0  0  0  0  0  0  0  0
    0.2517    0.3516   -2.2238 C   0  0  0  0  0  0  0  0  0  0  0  0
   -0.7045    0.1235   -2.7069 H   0  0  0  0  0  0  0  0  0  0  0  0
    0.2698    1.8656   -1.9714 C   0  0  0  0  0  0  0  0  0  0  0  0
    1.0299    2.1278   -1.2293 H   0  0  0  0  0  0  0  0  0  0  0  0
   -0.7074    2.2151   -1.6341 H   0  0  0  0  0  0  0  0  0  0  0  0
    0.4963    2.4055   -2.8960 H   0  0  0  0  0  0  0  0  0  0  0  0
    1.3728   -0.0044   -3.2103 C   0  0  0  0  0  0  0  0  0  0  0  0
    1.3549   -1.0745   -3.4401 H   0  0  0  0  0  0  0  0  0  0  0  0
    1.2479    0.5456   -4.1485 H   0  0  0  0  0  0  0  0  0  0  0  0
    2.3519    0.2456   -2.7895 H   0  0  0  0  0  0  0  0  0  0  0  0
   -0.6195    1.1127    0.8317 C   0  0  0  0  0  0  0  0  0  0  0  0
   -1.6641    1.7170    0.6094 O   0  0  0  0  0  0  0  0  0  0  0  0
    0.2405    1.6134    1.7926 N   0  0  0  0  0  0  0  0  0  0  0  0
    1.0302    1.0344    2.0638 H   0  0  0  0  0  0  0  0  0  0  0  0
    0.0207    2.8755    2.4884 C   0  0  0  0  0  0  0  0  0  0  0  0
   -0.8998    2.8317    3.0800 H   0  0  0  0  0  0  0  0  0  0  0  0
    0.8565    3.0855    3.1627 H   0  0  0  0  0  0  0  0  0  0  0  0
   -0.0592    3.6995    1.7714 H   0  0  0  0  0  0  0  0  0  0  0  0
  1  2  1  0  0  0  0
  2  3  1  0  0  0  0
  2  4  1  0  0  0  0
  2  5  1  0  0  0  0
  5  6  2  0  0  0  0
  5  7  1  0  0  0  0
  7  8  1  0  0  0  0
  7  9  1  0  0  0  0
  9 10  1  0  0  0  0
  9 11  1  0  0  0  0
  9 24  1  0  0  0  0
 11 12  1  0  0  0  0
 11 13  1  0  0  0  0
 11 14  1  0  0  0  0
 14 15  1  0  0  0  0
 14 16  1  0  0  0  0
 14 20  1  0  0  0  0
 16 17  1  0  0  0  0
 16 18  1  0  0  0  0
 16 19  1  0  0  0  0
 20 21  1  0  0  0  0
 20 22  1  0  0  0  0
 20 23  1  0  0  0  0
 24 25  2  0  0  0  0
 24 26  1  0  0  0  0
 26 27  1  0  0  0  0
 26 28  1  0  0  0  0
 28 29  1  0  0  0  0
 28 30  1  0  0  0  0
 28 31  1  0  0  0  0
M  END
$$$$

  -OEChem-03222214063D

 31 30  0     1  0  0  0  0  0999 V2000
   -3.3273   -3.9030    1.1792 H   0  0  0  0  0  0  0  0  0  0  0  0
   -3.3239   -2.8987    0.7463 C   0  0  0  0  0  0  0  0  0  0  0  0
   -3.9608   -2.2514    1.3539 H   0  0  0  0  0  0  0  0  0  0  0  0
   -3.7292   -2.9504   -0.2670 H   0  0  0  0  0  0  0  0  0  0  0  0
   -1.9102   -2.3493    0.7115 C   0  0  0  0  0  0  0  0  0  0  0  0
   -0.9788   -3.0388    1.0969 O   0  0  0  0  0  0  0  0  0  0  0  0
   -1.6842   -1.0695    0.2492 N   0  0  0  0  0  0  0  0  0  0  0  0
   -2.5014   -0.4966    0.0426 H   0  0  0  0  0  0  0  0  0  0  0  0
   -0.3911   -0.3717    0.3021 C   0  0  1  0  0  0  0  0  0  0  0  0
    0.2095   -0.8552    1.0795 H   0  0  0  0  0  0  0  0  0  0  0  0
    0.3726   -0.6055   -1.0277 C   0  0  0  0  0  0  0  0  0  0  0  0
    1.4391   -0.5980   -0.7801 H   0  0  0  0  0  0  0  0  0  0  0  0
    0.1421   -1.6194   -1.3732 H   0  0  0  0  0  0  0  0  0  0  0  0
    0.1840    0.3715   -2.2177 C   0  0  0  0  0  0  0  0  0  0  0  0
   -0.8721    0.3568   -2.5079 H   0  0  0  0  0  0  0  0  0  0  0  0
    0.5761    1.8343   -1.9442 C   0  0  0  0  0  0  0  0  0  0  0  0
    1.4673    1.8843   -1.3108 H   0  0  0  0  0  0  0  0  0  0  0  0
    0.7932    2.3550   -2.8820 H   0  0  0  0  0  0  0  0  0  0  0  0
   -0.2369    2.3811   -1.4642 H   0  0  0  0  0  0  0  0  0  0  0  0
    1.0087   -0.1492   -3.4036 C   0  0  0  0  0  0  0  0  0  0  0  0
    0.7187   -1.1751   -3.6513 H   0  0  0  0  0  0  0  0  0  0  0  0
    0.8420    0.4720   -4.2893 H   0  0  0  0  0  0  0  0  0  0  0  0
    2.0774   -0.1368   -3.1662 H   0  0  0  0  0  0  0  0  0  0  0  0
   -0.5747    1.0764    0.7974 C   0  0  0  0  0  0  0  0  0  0  0  0
   -1.6071    1.6849    0.5323 O   0  0  0  0  0  0  0  0  0  0  0  0
    0.2842    1.6019    1.7457 N   0  0  0  0  0  0  0  0  0  0  0  0
    1.0721    1.0296    2.0356 H   0  0  0  0  0  0  0  0  0  0  0  0
    0.0706    2.8892    2.3955 C   0  0  0  0  0  0  0  0  0  0  0  0
   -0.8742    2.8872    2.9491 H   0  0  0  0  0  0  0  0  0  0  0  0
    0.8827    3.0975    3.0987 H   0  0  0  0  0  0  0  0  0  0  0  0
    0.0422    3.6931    1.6526 H   0  0  0  0  0  0  0  0  0  0  0  0
  1  2  1  0  0  0  0
  2  3  1  0  0  0  0
  2  4  1  0  0  0  0
  2  5  1  0  0  0  0
  5  6  2  0  0  0  0
  5  7  1  0  0  0  0
  7  8  1  0  0  0  0
  7  9  1  0  0  0  0
  9 10  1  0  0  0  0
  9 11  1  0  0  0  0
  9 24  1  0  0  0  0
 11 12  1  0  0  0  0
 11 13  1  0  0  0  0
 11 14  1  0  0  0  0
 14 15  1  0  0  0  0
 14 16  1  0  0  0  0
 14 20  1  0  0  0  0
 16 17  1  0  0  0  0
 16 18  1  0  0  0  0
 16 19  1  0  0  0  0
 20 21  1  0  0  0  0
 20 22  1  0  0  0  0
 20 23  1  0  0  0  0
 24 25  2  0  0  0  0
 24 26  1  0  0  0  0
 26 27  1  0  0  0  0
 26 28  1  0  0  0  0
 28 29  1  0  0  0  0
 28 30  1  0  0  0  0
 28 31  1  0  0  0  0
M  END
$$$$

  -OEChem-03222214063D

 31 30  0     1  0  0  0  0  0999 V2000
   -3.3612   -3.8971    1.1909 H   0  0  0  0  0  0  0  0  0  0  0  0
   -3.3367   -2.9034    0.7351 C   0  0  0  0  0  0  0  0  0  0  0  0
   -3.9906   -2.2388    1.3048 H   0  0  0  0  0  0  0  0  0  0  0  0
   -3.7064   -2.9766   -0.2905 H   0  0  0  0  0  0  0  0  0  0  0  0
   -1.9196   -2.3621    0.7357 C   0  0  0  0  0  0  0  0  0  0  0  0
   -1.0056   -3.0453    1.1707 O   0  0  0  0  0  0  0  0  0  0  0  0
   -1.6705   -1.0972    0.2455 N   0  0  0  0  0  0  0  0  0  0  0  0
   -2.4753   -0.5284   -0.0140 H   0  0  0  0  0  0  0  0  0  0  0  0
   -0.3720   -0.4104    0.3094 C   0  0  1  0  0  0  0  0  0  0  0  0
    0.2243   -0.8854    1.0953 H   0  0  0  0  0  0  0  0  0  0  0  0
    0.3856   -0.6457   -1.0220 C   0  0  0  0  0  0  0  0  0  0  0  0
    1.4562   -0.6639   -0.7952 H   0  0  0  0  0  0  0  0  0  0  0  0
    0.1294   -1.6495   -1.3781 H   0  0  0  0  0  0  0  0  0  0  0  0
    0.1729    0.3667   -2.1759 C   0  0  0  0  0  0  0  0  0  0  0  0
   -0.9002    0.5628   -2.2793 H   0  0  0  0  0  0  0  0  0  0  0  0
    0.9008    1.7103   -1.9785 C   0  0  0  0  0  0  0  0  0  0  0  0
    1.9450    1.5431   -1.6973 H   0  0  0  0  0  0  0  0  0  0  0  0
    0.8842    2.2878   -2.9080 H   0  0  0  0  0  0  0  0  0  0  0  0
    0.4285    2.3272   -1.2140 H   0  0  0  0  0  0  0  0  0  0  0  0
    0.6710   -0.2639   -3.4834 C   0  0  0  0  0  0  0  0  0  0  0  0
    0.1343   -1.1953   -3.6892 H   0  0  0  0  0  0  0  0  0  0  0  0
    0.5031    0.4152   -4.3251 H   0  0  0  0  0  0  0  0  0  0  0  0
    1.7415   -0.4842   -3.4218 H   0  0  0  0  0  0  0  0  0  0  0  0
   -0.5618    1.0497    0.7630 C   0  0  0  0  0  0  0  0  0  0  0  0
   -1.5495    1.6800    0.3984 O   0  0  0  0  0  0  0  0  0  0  0  0
    0.2732    1.5995    1.7187 N   0  0  0  0  0  0  0  0  0  0  0  0
    1.0349    1.0237    2.0658 H   0  0  0  0  0  0  0  0  0  0  0  0
    0.0803    2.9299    2.2826 C   0  0  0  0  0  0  0  0  0  0  0  0
   -0.8897    2.9963    2.7867 H   0  0  0  0  0  0  0  0  0  0  0  0
    0.8653    3.1482    3.0132 H   0  0  0  0  0  0  0  0  0  0  0  0
    0.1209    3.6892    1.4946 H   0  0  0  0  0  0  0  0  0  0  0  0
  1  2  1  0  0  0  0
  2  3  1  0  0  0  0
  2  4  1  0  0  0  0
  2  5  1  0  0  0  0
  5  6  2  0  0  0  0
  5  7  1  0  0  0  0
  7  8  1  0  0  0  0
  7  9  1  0  0  0  0
  9 10  1  0  0  0  0
  9 11  1  0  0  0  0
  9 24  1  0  0  0  0
 11 12  1  0  0  0  0
 11 13  1  0  0  0  0
 11 14  1  0  0  0  0
 14 15  1  0  0  0  0
 14 16  1  0  0  0  0
 14 20  1  0  0  0  0
 16 17  1  0  0  0  0
 16 18  1  0  0  0  0
 16 19  1  0  0  0  0
 20 21  1  0  0  0  0
 20 22  1  0  0  0  0
 20 23  1  0  0  0  0
 24 25  2  0  0  0  0
 24 26  1  0  0  0  0
 26 27  1  0  0  0  0
 26 28  1  0  0  0  0
 28 29  1  0  0  0  0
 28 30  1  0  0  0  0
 28 31  1  0  0  0  0
M  END
$$$$

  -OEChem-03222214063D

 31 30  0     1  0  0  0  0  0999 V2000
   -3.3789   -3.8953    1.2127 H   0  0  0  0  0  0  0  0  0  0  0  0
   -3.3468   -2.9112    0.7368 C   0  0  0  0  0  0  0  0  0  0  0  0
   -4.0099   -2.2348    1.2818 H   0  0  0  0  0  0  0  0  0  0  0  0
   -3.6998   -3.0054   -0.2930 H   0  0  0  0  0  0  0  0  0  0  0  0
   -1.9299   -2.3697    0.7504 C   0  0  0  0  0  0  0  0  0  0  0  0
   -1.0242   -3.0414    1.2190 O   0  0  0  0  0  0  0  0  0  0  0  0
   -1.6735   -1.1166    0.2348 N   0  0  0  0  0  0  0  0  0  0  0  0
   -2.4737   -0.5593   -0.0603 H   0  0  0  0  0  0  0  0  0  0  0  0
   -0.3773   -0.4268    0.3004 C   0  0  1  0  0  0  0  0  0  0  0  0
    0.2097   -0.8888    1.1006 H   0  0  0  0  0  0  0  0  0  0  0  0
    0.3994   -0.6749   -1.0150 C   0  0  0  0  0  0  0  0  0  0  0  0
    1.4697   -0.6904   -0.7863 H   0  0  0  0  0  0  0  0  0  0  0  0
    0.1474   -1.6796   -1.3711 H   0  0  0  0  0  0  0  0  0  0  0  0
    0.1567    0.3533   -2.1461 C   0  0  0  0  0  0  0  0  0  0  0  0
   -0.8679    0.7352   -2.0836 H   0  0  0  0  0  0  0  0  0  0  0  0
    1.1462    1.5285   -2.0787 C   0  0  0  0  0  0  0  0  0  0  0  0
    2.1771    1.1707   -2.1649 H   0  0  0  0  0  0  0  0  0  0  0  0
    0.9543    2.2297   -2.8968 H   0  0  0  0  0  0  0  0  0  0  0  0
    1.0499    2.0775   -1.1394 H   0  0  0  0  0  0  0  0  0  0  0  0
    0.3163   -0.3352   -3.5073 C   0  0  0  0  0  0  0  0  0  0  0  0
   -0.4119   -1.1455   -3.6131 H   0  0  0  0  0  0  0  0  0  0  0  0
    0.1490    0.3800   -4.3188 H   0  0  0  0  0  0  0  0  0  0  0  0
    1.3222   -0.7540   -3.6137 H   0  0  0  0  0  0  0  0  0  0  0  0
   -0.5508    1.0489    0.7160 C   0  0  0  0  0  0  0  0  0  0  0  0
   -1.5152    1.6923    0.3156 O   0  0  0  0  0  0  0  0  0  0  0  0
    0.2836    1.6093    1.6661 N   0  0  0  0  0  0  0  0  0  0  0  0
    1.0256    1.0270    2.0440 H   0  0  0  0  0  0  0  0  0  0  0  0
    0.1052    2.9568    2.1926 C   0  0  0  0  0  0  0  0  0  0  0  0
   -0.8715    3.0518    2.6787 H   0  0  0  0  0  0  0  0  0  0  0  0
    0.8818    3.1811    2.9300 H   0  0  0  0  0  0  0  0  0  0  0  0
    0.1709    3.6944    1.3859 H   0  0  0  0  0  0  0  0  0  0  0  0
  1  2  1  0  0  0  0
  2  3  1  0  0  0  0
  2  4  1  0  0  0  0
  2  5  1  0  0  0  0
  5  6  2  0  0  0  0
  5  7  1  0  0  0  0
  7  8  1  0  0  0  0
  7  9  1  0  0  0  0
  9 10  1  0  0  0  0
  9 11  1  0  0  0  0
  9 24  1  0  0  0  0
 11 12  1  0  0  0  0
 11 13  1  0  0  0  0
 11 14  1  0  0  0  0
 14 15  1  0  0  0  0
 14 16  1  0  0  0  0
 14 20  1  0  0  0  0
 16 17  1  0  0  0  0
 16 18  1  0  0  0  0
 16 19  1  0  0  0  0
 20 21  1  0  0  0  0
 20 22  1  0  0  0  0
 20 23  1  0  0  0  0
 24 25  2  0  0  0  0
 24 26  1  0  0  0  0
 26 27  1  0  0  0  0
 26 28  1  0  0  0  0
 28 29  1  0  0  0  0
 28 30  1  0  0  0  0
 28 31  1  0  0  0  0
M  END
$$$$

  -OEChem-03222214063D

 31 30  0     1  0  0  0  0  0999 V2000
   -3.3765   -3.9038    1.2317 H   0  0  0  0  0  0  0  0  0  0  0  0
   -3.3534   -2.9236    0.7474 C   0  0  0  0  0  0  0  0  0  0  0  0
   -4.0182   -2.2471    1.2900 H   0  0  0  0  0  0  0  0  0  0  0  0
   -3.7110   -3.0290   -0.2797 H   0  0  0  0  0  0  0  0  0  0  0  0
   -1.9400   -2.3727    0.7491 C   0  0  0  0  0  0  0  0  0  0  0  0
   -1.0267   -3.0375    1.2129 O   0  0  0  0  0  0  0  0  0  0  0  0
   -1.6960   -1.1184    0.2296 N   0  0  0  0  0  0  0  0  0  0  0  0
   -2.5024   -0.5691   -0.0633 H   0  0  0  0  0  0  0  0  0  0  0  0
   -0.4054   -0.4177    0.2868 C   0  0  1  0  0  0  0  0  0  0  0  0
    0.1767   -0.8759    1.0931 H   0  0  0  0  0  0  0  0  0  0  0  0
    0.3928   -0.6685   -1.0124 C   0  0  0  0  0  0  0  0  0  0  0  0
    1.4588   -0.6646   -0.7633 H   0  0  0  0  0  0  0  0  0  0  0  0
    0.1671   -1.6824   -1.3611 H   0  0  0  0  0  0  0  0  0  0  0  0
    0.1406    0.3531   -2.1507 C   0  0  0  0  0  0  0  0  0  0  0  0
   -0.7789    0.9170   -1.9700 H   0  0  0  0  0  0  0  0  0  0  0  0
    1.3209    1.3245   -2.2855 C   0  0  0  0  0  0  0  0  0  0  0  0
    2.2446    0.7861   -2.5207 H   0  0  0  0  0  0  0  0  0  0  0  0
    1.1284    2.0479   -3.0838 H   0  0  0  0  0  0  0  0  0  0  0  0
    1.4672    1.8772   -1.3525 H   0  0  0  0  0  0  0  0  0  0  0  0
   -0.0348   -0.3867   -3.4827 C   0  0  0  0  0  0  0  0  0  0  0  0
   -0.8952   -1.0614   -3.4320 H   0  0  0  0  0  0  0  0  0  0  0  0
   -0.2079    0.3259   -4.2952 H   0  0  0  0  0  0  0  0  0  0  0  0
    0.8571   -0.9755   -3.7198 H   0  0  0  0  0  0  0  0  0  0  0  0
   -0.5550    1.0633    0.6982 C   0  0  0  0  0  0  0  0  0  0  0  0
   -1.5308    1.7104    0.3333 O   0  0  0  0  0  0  0  0  0  0  0  0
    0.2993    1.6135    1.6364 N   0  0  0  0  0  0  0  0  0  0  0  0
    1.0465    1.0258    1.9949 H   0  0  0  0  0  0  0  0  0  0  0  0
    0.1384    2.9576    2.1766 C   0  0  0  0  0  0  0  0  0  0  0  0
   -0.8273    3.0530    2.6840 H   0  0  0  0  0  0  0  0  0  0  0  0
    0.9315    3.1724    2.8992 H   0  0  0  0  0  0  0  0  0  0  0  0
    0.1910    3.7012    1.3744 H   0  0  0  0  0  0  0  0  0  0  0  0
  1  2  1  0  0  0  0
  2  3  1  0  0  0  0
  2  4  1  0  0  0  0
  2  5  1  0  0  0  0
  5  6  2  0  0  0  0
  5  7  1  0  0  0  0
  7  8  1  0  0  0  0
  7  9  1  0  0  0  0
  9 10  1  0  0  0  0
  9 11  1  0  0  0  0
  9 24  1  0  0  0  0
 11 12  1  0  0  0  0
 11 13  1  0  0  0  0
 11 14  1  0  0  0  0
 14 15  1  0  0  0  0
 14 16  1  0  0  0  0
 14 20  1  0  0  0  0
 16 17  1  0  0  0  0
 16 18  1  0  0  0  0
 16 19  1  0  0  0  0
 20 21  1  0  0  0  0
 20 22  1  0  0  0  0
 20 23  1  0  0  0  0
 24 25  2  0  0  0  0
 24 26  1  0  0  0  0
 26 27  1  0  0  0  0
 26 28  1  0  0  0  0
 28 29  1  0  0  0  0
 28 30  1  0  0  0  0
 28 31  1  0  0  0  0
M  END
$$$$

  -OEChem-03222214063D

 31 30  0     1  0  0  0  0  0999 V2000
   -3.3629   -3.9025    1.2176 H   0  0  0  0  0  0  0  0  0  0  0  0
   -3.3460   -2.9161    0.7457 C   0  0  0  0  0  0  0  0  0  0  0  0
   -4.0080   -2.2480    1.3021 H   0  0  0  0  0  0  0  0  0  0  0  0
   -3.7112   -3.0092   -0.2799 H   0  0  0  0  0  0  0  0  0  0  0  0
   -1.9342   -2.3618    0.7432 C   0  0  0  0  0  0  0  0  0  0  0  0
   -1.0159   -3.0277    1.1951 O   0  0  0  0  0  0  0  0  0  0  0  0
   -1.6973   -1.1031    0.2314 N   0  0  0  0  0  0  0  0  0  0  0  0
   -2.5074   -0.5528   -0.0490 H   0  0  0  0  0  0  0  0  0  0  0  0
   -0.4085   -0.3994    0.2844 C   0  0  1  0  0  0  0  0  0  0  0  0
    0.1757   -0.8588    1.0885 H   0  0  0  0  0  0  0  0  0  0  0  0
    0.3876   -0.6558   -1.0159 C   0  0  0  0  0  0  0  0  0  0  0  0
    1.4498   -0.6300   -0.7517 H   0  0  0  0  0  0  0  0  0  0  0  0
    0.1876   -1.6781   -1.3551 H   0  0  0  0  0  0  0  0  0  0  0  0
    0.1444    0.3501   -2.1732 C   0  0  0  0  0  0  0  0  0  0  0  0
   -0.5869    1.1103   -1.8908 H   0  0  0  0  0  0  0  0  0  0  0  0
    1.4481    1.0569   -2.5629 C   0  0  0  0  0  0  0  0  0  0  0  0
    2.2006    0.3317   -2.8888 H   0  0  0  0  0  0  0  0  0  0  0  0
    1.2686    1.7626   -3.3799 H   0  0  0  0  0  0  0  0  0  0  0  0
    1.8461    1.6154   -1.7097 H   0  0  0  0  0  0  0  0  0  0  0  0
   -0.4170   -0.3847   -3.3963 C   0  0  0  0  0  0  0  0  0  0  0  0
   -1.3603   -0.8781   -3.1418 H   0  0  0  0  0  0  0  0  0  0  0  0
   -0.6087    0.3217   -4.2100 H   0  0  0  0  0  0  0  0  0  0  0  0
    0.2886   -1.1422   -3.7525 H   0  0  0  0  0  0  0  0  0  0  0  0
   -0.5586    1.0780    0.7077 C   0  0  0  0  0  0  0  0  0  0  0  0
   -1.5454    1.7202    0.3640 O   0  0  0  0  0  0  0  0  0  0  0  0
    0.3016    1.6228    1.6434 N   0  0  0  0  0  0  0  0  0  0  0  0
    1.0516    1.0329    1.9924 H   0  0  0  0  0  0  0  0  0  0  0  0
    0.1282    2.9537    2.2121 C   0  0  0  0  0  0  0  0  0  0  0  0
   -0.8294    3.0237    2.7388 H   0  0  0  0  0  0  0  0  0  0  0  0
    0.9308    3.1684    2.9242 H   0  0  0  0  0  0  0  0  0  0  0  0
    0.1534    3.7130    1.4235 H   0  0  0  0  0  0  0  0  0  0  0  0
  1  2  1  0  0  0  0
  2  3  1  0  0  0  0
  2  4  1  0  0  0  0
  2  5  1  0  0  0  0
  5  6  2  0  0  0  0
  5  7  1  0  0  0  0
  7  8  1  0  0  0  0
  7  9  1  0  0  0  0
  9 10  1  0  0  0  0
  9 11  1  0  0  0  0
  9 24  1  0  0  0  0
 11 12  1  0  0  0  0
 11 13  1  0  0  0  0
 11 14  1  0  0  0  0
 14 15  1  0  0  0  0
 14 16  1  0  0  0  0
 14 20  1  0  0  0  0
 16 17  1  0  0  0  0
 16 18  1  0  0  0  0
 16 19  1  0  0  0  0
 20 21  1  0  0  0  0
 20 22  1  0  0  0  0
 20 23  1  0  0  0  0
 24 25  2  0  0  0  0
 24 26  1  0  0  0  0
 26 27  1  0  0  0  0
 26 28  1  0  0  0  0
 28 29  1  0  0  0  0
 28 30  1  0  0  0  0
 28 31  1  0  0  0  0
M  END
$$$$

  -OEChem-03222214063D

 31 30  0     1  0  0  0  0  0999 V2000
   -3.3503   -3.9060    1.2101 H   0  0  0  0  0  0  0  0  0  0  0  0
   -3.3350   -2.9185    0.7408 C   0  0  0  0  0  0  0  0  0  0  0  0
   -4.0009   -2.2542    1.2968 H   0  0  0  0  0  0  0  0  0  0  0  0
   -3.6969   -3.0107   -0.2860 H   0  0  0  0  0  0  0  0  0  0  0  0
   -1.9246   -2.3597    0.7434 C   0  0  0  0  0  0  0  0  0  0  0  0
   -1.0052   -3.0263    1.1926 O   0  0  0  0  0  0  0  0  0  0  0  0
   -1.6884   -1.0996    0.2346 N   0  0  0  0  0  0  0  0  0  0  0  0
   -2.4985   -0.5481   -0.0437 H   0  0  0  0  0  0  0  0  0  0  0  0
   -0.3991   -0.3968    0.2876 C   0  0  1  0  0  0  0  0  0  0  0  0
    0.1896   -0.8572    1.0878 H   0  0  0  0  0  0  0  0  0  0  0  0
    0.3854   -0.6534   -1.0211 C   0  0  0  0  0  0  0  0  0  0  0  0
    1.4456   -0.6118   -0.7516 H   0  0  0  0  0  0  0  0  0  0  0  0
    0.2016   -1.6781   -1.3624 H   0  0  0  0  0  0  0  0  0  0  0  0
    0.1483    0.3469   -2.1836 C   0  0  0  0  0  0  0  0  0  0  0  0
   -0.3204    1.2650   -1.8246 H   0  0  0  0  0  0  0  0  0  0  0  0
    1.4801    0.7524   -2.8252 C   0  0  0  0  0  0  0  0  0  0  0  0
    2.0050   -0.1266   -3.2125 H   0  0  0  0  0  0  0  0  0  0  0  0
    1.3074    1.4472   -3.6529 H   0  0  0  0  0  0  0  0  0  0  0  0
    2.1222    1.2486   -2.0908 H   0  0  0  0  0  0  0  0  0  0  0  0
   -0.7826   -0.2704   -3.2327 C   0  0  0  0  0  0  0  0  0  0  0  0
   -1.7381   -0.5462   -2.7760 H   0  0  0  0  0  0  0  0  0  0  0  0
   -0.9804    0.4474   -4.0346 H   0  0  0  0  0  0  0  0  0  0  0  0
   -0.3335   -1.1670   -3.6719 H   0  0  0  0  0  0  0  0  0  0  0  0
   -0.5592    1.0779    0.7162 C   0  0  0  0  0  0  0  0  0  0  0  0
   -1.5458    1.7159    0.3640 O   0  0  0  0  0  0  0  0  0  0  0  0
    0.2954    1.6278    1.6544 N   0  0  0  0  0  0  0  0  0  0  0  0
    1.0479    1.0424    2.0056 H   0  0  0  0  0  0  0  0  0  0  0  0
    0.1150    2.9592    2.2205 C   0  0  0  0  0  0  0  0  0  0  0  0
   -0.8454    3.0273    2.7424 H   0  0  0  0  0  0  0  0  0  0  0  0
    0.9134    3.1771    2.9363 H   0  0  0  0  0  0  0  0  0  0  0  0
    0.1421    3.7177    1.4311 H   0  0  0  0  0  0  0  0  0  0  0  0
  1  2  1  0  0  0  0
  2  3  1  0  0  0  0
  2  4  1  0  0  0  0
  2  5  1  0  0  0  0
  5  6  2  0  0  0  0
  5  7  1  0  0  0  0
  7  8  1  0  0  0  0
  7  9  1  0  0  0  0
  9 10  1  0  0  0  0
  9 11  1  0  0  0  0
  9 24  1  0  0  0  0
 11 12  1  0  0  0  0
 11 13  1  0  0  0  0
 11 14  1  0  0  0  0
 14 15  1  0  0  0  0
 14 16  1  0  0  0  0
 14 20  1  0  0  0  0
 16 17  1  0  0  0  0
 16 18  1  0  0  0  0
 16 19  1  0  0  0  0
 20 21  1  0  0  0  0
 20 22  1  0  0  0  0
 20 23  1  0  0  0  0
 24 25  2  0  0  0  0
 24 26  1  0  0  0  0
 26 27  1  0  0  0  0
 26 28  1  0  0  0  0
 28 29  1  0  0  0  0
 28 30  1  0  0  0  0
 28 31  1  0  0  0  0
M  END
$$$$

  -OEChem-03222214063D

 31 30  0     1  0  0  0  0  0999 V2000
   -3.3492   -3.9129    1.2247 H   0  0  0  0  0  0  0  0  0  0  0  0
   -3.3294   -2.9293    0.7472 C   0  0  0  0  0  0  0  0  0  0  0  0
   -3.9996   -2.2599    1.2917 H   0  0  0  0  0  0  0  0  0  0  0  0
   -3.6822   -3.0296   -0.2820 H   0  0  0  0  0  0  0  0  0  0  0  0
   -1.9188   -2.3714    0.7573 C   0  0  0  0  0  0  0  0  0  0  0  0
   -1.0029   -3.0354    1.2171 O   0  0  0  0  0  0  0  0  0  0  0  0
   -1.6783   -1.1146    0.2426 N   0  0  0  0  0  0  0  0  0  0  0  0
   -2.4855   -0.5643   -0.0462 H   0  0  0  0  0  0  0  0  0  0  0  0
   -0.3871   -0.4149    0.2929 C   0  0  1  0  0  0  0  0  0  0  0  0
    0.2083   -0.8742    1.0888 H   0  0  0  0  0  0  0  0  0  0  0  0
    0.3850   -0.6595   -1.0263 C   0  0  0  0  0  0  0  0  0  0  0  0
    1.4474   -0.6158   -0.7662 H   0  0  0  0  0  0  0  0  0  0  0  0
    0.1969   -1.6786   -1.3818 H   0  0  0  0  0  0  0  0  0  0  0  0
    0.1419    0.3522   -2.1742 C   0  0  0  0  0  0  0  0  0  0  0  0
   -0.0443    1.3527   -1.7765 H   0  0  0  0  0  0  0  0  0  0  0  0
    1.3952    0.4674   -3.0493 C   0  0  0  0  0  0  0  0  0  0  0  0
    1.6589   -0.5064   -3.4740 H   0  0  0  0  0  0  0  0  0  0  0  0
    1.2222    1.1695   -3.8708 H   0  0  0  0  0  0  0  0  0  0  0  0
    2.2424    0.8331   -2.4605 H   0  0  0  0  0  0  0  0  0  0  0  0
   -1.0698   -0.0621   -3.0157 C   0  0  0  0  0  0  0  0  0  0  0  0
   -1.9705   -0.0966   -2.3958 H   0  0  0  0  0  0  0  0  0  0  0  0
   -1.2375    0.6602   -3.8206 H   0  0  0  0  0  0  0  0  0  0  0  0
   -0.9141   -1.0496   -3.4616 H   0  0  0  0  0  0  0  0  0  0  0  0
   -0.5576    1.0599    0.7150 C   0  0  0  0  0  0  0  0  0  0  0  0
   -1.5343    1.6978    0.3362 O   0  0  0  0  0  0  0  0  0  0  0  0
    0.2899    1.6197    1.6536 N   0  0  0  0  0  0  0  0  0  0  0  0
    1.0394    1.0379    2.0170 H   0  0  0  0  0  0  0  0  0  0  0  0
    0.1112    2.9605    2.1972 C   0  0  0  0  0  0  0  0  0  0  0  0
   -0.8585    3.0451    2.6990 H   0  0  0  0  0  0  0  0  0  0  0  0
    0.8975    3.1810    2.9256 H   0  0  0  0  0  0  0  0  0  0  0  0
    0.1610    3.7077    1.3982 H   0  0  0  0  0  0  0  0  0  0  0  0
  1  2  1  0  0  0  0
  2  3  1  0  0  0  0
  2  4  1  0  0  0  0
  2  5  1  0  0  0  0
  5  6  2  0  0  0  0
  5  7  1  0  0  0  0
  7  8  1  0  0  0  0
  7  9  1  0  0  0  0
  9 10  1  0  0  0  0
  9 11  1  0  0  0  0
  9 24  1  0  0  0  0
 11 12  1  0  0  0  0
 11 13  1  0  0  0  0
 11 14  1  0  0  0  0
 14 15  1  0  0  0  0
 14 16  1  0  0  0  0
 14 20  1  0  0  0  0
 16 17  1  0  0  0  0
 16 18  1  0  0  0  0
 16 19  1  0  0  0  0
 20 21  1  0  0  0  0
 20 22  1  0  0  0  0
 20 23  1  0  0  0  0
 24 25  2  0  0  0  0
 24 26  1  0  0  0  0
 26 27  1  0  0  0  0
 26 28  1  0  0  0  0
 28 29  1  0  0  0  0
 28 30  1  0  0  0  0
 28 31  1  0  0  0  0
M  END
$$$$

  -OEChem-03222214063D

 31 30  0     1  0  0  0  0  0999 V2000
   -3.3504   -3.9210    1.2442 H   0  0  0  0  0  0  0  0  0  0  0  0
   -3.3311   -2.9386    0.7643 C   0  0  0  0  0  0  0  0  0  0  0  0
   -3.9985   -2.2673    1.3102 H   0  0  0  0  0  0  0  0  0  0  0  0
   -3.6886   -3.0407   -0.2631 H   0  0  0  0  0  0  0  0  0  0  0  0
   -1.9199   -2.3819    0.7678 C   0  0  0  0  0  0  0  0  0  0  0  0
   -1.0036   -3.0440    1.2296 O   0  0  0  0  0  0  0  0  0  0  0  0
   -1.6808   -1.1264    0.2492 N   0  0  0  0  0  0  0  0  0  0  0  0
   -2.4885   -0.5795   -0.0444 H   0  0  0  0  0  0  0  0  0  0  0  0
   -0.3896   -0.4257    0.2944 C   0  0  1  0  0  0  0  0  0  0  0  0
    0.2104   -0.8856    1.0864 H   0  0  0  0  0  0  0  0  0  0  0  0
    0.3798   -0.6557   -1.0285 C   0  0  0  0  0  0  0  0  0  0  0  0
    1.4456   -0.6173   -0.7814 H   0  0  0  0  0  0  0  0  0  0  0  0
    0.1788   -1.6679   -1.3958 H   0  0  0  0  0  0  0  0  0  0  0  0
    0.1272    0.3674   -2.1610 C   0  0  0  0  0  0  0  0  0  0  0  0
    0.1936    1.3878   -1.7713 H   0  0  0  0  0  0  0  0  0  0  0  0
    1.2130    0.2226   -3.2334 C   0  0  0  0  0  0  0  0  0  0  0  0
    1.2059   -0.7874   -3.6560 H   0  0  0  0  0  0  0  0  0  0  0  0
    1.0467    0.9398   -4.0434 H   0  0  0  0  0  0  0  0  0  0  0  0
    2.2019    0.4150   -2.8060 H   0  0  0  0  0  0  0  0  0  0  0  0
   -1.2560    0.1700   -2.7937 C   0  0  0  0  0  0  0  0  0  0  0  0
   -2.0460    0.3546   -2.0607 H   0  0  0  0  0  0  0  0  0  0  0  0
   -1.3972    0.8684   -3.6244 H   0  0  0  0  0  0  0  0  0  0  0  0
   -1.3647   -0.8501   -3.1750 H   0  0  0  0  0  0  0  0  0  0  0  0
   -0.5556    1.0508    0.7125 C   0  0  0  0  0  0  0  0  0  0  0  0
   -1.5258    1.6951    0.3284 O   0  0  0  0  0  0  0  0  0  0  0  0
    0.2966    1.6106    1.6469 N   0  0  0  0  0  0  0  0  0  0  0  0
    1.0418    1.0255    2.0141 H   0  0  0  0  0  0  0  0  0  0  0  0
    0.1235    2.9535    2.1871 C   0  0  0  0  0  0  0  0  0  0  0  0
   -0.8446    3.0421    2.6911 H   0  0  0  0  0  0  0  0  0  0  0  0
    0.9124    3.1734    2.9128 H   0  0  0  0  0  0  0  0  0  0  0  0
    0.1734    3.6985    1.3861 H   0  0  0  0  0  0  0  0  0  0  0  0
  1  2  1  0  0  0  0
  2  3  1  0  0  0  0
  2  4  1  0  0  0  0
  2  5  1  0  0  0  0
  5  6  2  0  0  0  0
  5  7  1  0  0  0  0
  7  8  1  0  0  0  0
  7  9  1  0  0  0  0
  9 10  1  0  0  0  0
  9 11  1  0  0  0  0
  9 24  1  0  0  0  0
 11 12  1  0  0  0  0
 11 13  1  0  0  0  0
 11 14  1  0  0  0  0
 14 15  1  0  0  0  0
 14 16  1  0  0  0  0
 14 20  1  0  0  0  0
 16 17  1  0  0  0  0
 16 18  1  0  0  0  0
 16 19  1  0  0  0  0
 20 21  1  0  0  0  0
 20 22  1  0  0  0  0
 20 23  1  0  0  0  0
 24 25  2  0  0  0  0
 24 26  1  0  0  0  0
 26 27  1  0  0  0  0
 26 28  1  0  0  0  0
 28 29  1  0  0  0  0
 28 30  1  0  0  0  0
 28 31  1  0  0  0  0
M  END
$$$$

  -OEChem-03222214063D

 31 30  0     1  0  0  0  0  0999 V2000
   -3.2947   -3.9383    1.2125 H   0  0  0  0  0  0  0  0  0  0  0  0
   -3.3182   -2.9363    0.7751 C   0  0  0  0  0  0  0  0  0  0  0  0
   -3.9670   -2.3015    1.3835 H   0  0  0  0  0  0  0  0  0  0  0  0
   -3.7274   -3.0020   -0.2359 H   0  0  0  0  0  0  0  0  0  0  0  0
   -1.9186   -2.3532    0.7290 C   0  0  0  0  0  0  0  0  0  0  0  0
   -0.9676   -3.0205    1.1053 O   0  0  0  0  0  0  0  0  0  0  0  0
   -1.7291   -1.0705    0.2576 N   0  0  0  0  0  0  0  0  0  0  0  0
   -2.5625   -0.5244    0.0461 H   0  0  0  0  0  0  0  0  0  0  0  0
   -0.4530   -0.3412    0.2824 C   0  0  1  0  0  0  0  0  0  0  0  0
    0.1409   -0.8124    1.0725 H   0  0  0  0  0  0  0  0  0  0  0  0
    0.3589   -0.5809   -1.0156 C   0  0  0  0  0  0  0  0  0  0  0  0
    1.3930   -0.7814   -0.7168 H   0  0  0  0  0  0  0  0  0  0  0  0
   -0.0089   -1.4928   -1.4988 H   0  0  0  0  0  0  0  0  0  0  0  0
    0.3975    0.5616   -2.0549 C   0  0  0  0  0  0  0  0  0  0  0  0
    0.8229    1.4672   -1.6097 H   0  0  0  0  0  0  0  0  0  0  0  0
    1.2558    0.1157   -3.2472 C   0  0  0  0  0  0  0  0  0  0  0  0
    0.8408   -0.7829   -3.7154 H   0  0  0  0  0  0  0  0  0  0  0  0
    1.3059    0.9083   -4.0006 H   0  0  0  0  0  0  0  0  0  0  0  0
    2.2761   -0.1052   -2.9184 H   0  0  0  0  0  0  0  0  0  0  0  0
   -1.0014    0.8608   -2.6228 C   0  0  0  0  0  0  0  0  0  0  0  0
   -1.6895    1.2071   -1.8526 H   0  0  0  0  0  0  0  0  0  0  0  0
   -0.9402    1.6412   -3.3876 H   0  0  0  0  0  0  0  0  0  0  0  0
   -1.4298   -0.0376   -3.0784 H   0  0  0  0  0  0  0  0  0  0  0  0
   -0.5835    1.1204    0.7663 C   0  0  0  0  0  0  0  0  0  0  0  0
   -1.6048    1.7611    0.5466 O   0  0  0  0  0  0  0  0  0  0  0  0
    0.3262    1.6264    1.6778 N   0  0  0  0  0  0  0  0  0  0  0  0
    1.1043    1.0303    1.9452 H   0  0  0  0  0  0  0  0  0  0  0  0
    0.1733    2.9199    2.3332 C   0  0  0  0  0  0  0  0  0  0  0  0
   -0.7428    2.9403    2.9328 H   0  0  0  0  0  0  0  0  0  0  0  0
    1.0236    3.1118    2.9948 H   0  0  0  0  0  0  0  0  0  0  0  0
    0.1265    3.7229    1.5902 H   0  0  0  0  0  0  0  0  0  0  0  0
  1  2  1  0  0  0  0
  2  3  1  0  0  0  0
  2  4  1  0  0  0  0
  2  5  1  0  0  0  0
  5  6  2  0  0  0  0
  5  7  1  0  0  0  0
  7  8  1  0  0  0  0
  7  9  1  0  0  0  0
  9 10  1  0  0  0  0
  9 11  1  0  0  0  0
  9 24  1  0  0  0  0
 11 12  1  0  0  0  0
 11 13  1  0  0  0  0
 11 14  1  0  0  0  0
 14 15  1  0  0  0  0
 14 16  1  0  0  0  0
 14 20  1  0  0  0  0
 16 17  1  0  0  0  0
 16 18  1  0  0  0  0
 16 19  1  0  0  0  0
 20 21  1  0  0  0  0
 20 22  1  0  0  0  0
 20 23  1  0  0  0  0
 24 25  2  0  0  0  0
 24 26  1  0  0  0  0
 26 27  1  0  0  0  0
 26 28  1  0  0  0  0
 28 29  1  0  0  0  0
 28 30  1  0  0  0  0
 28 31  1  0  0  0  0
M  END
$$$$

  -OEChem-03222214063D

 31 30  0     1  0  0  0  0  0999 V2000
   -3.2605   -3.9163    1.2864 H   0  0  0  0  0  0  0  0  0  0  0  0
   -3.3008   -2.9125    0.8547 C   0  0  0  0  0  0  0  0  0  0  0  0
   -3.9286   -2.2815    1.4887 H   0  0  0  0  0  0  0  0  0  0  0  0
   -3.7458   -2.9744   -0.1412 H   0  0  0  0  0  0  0  0  0  0  0  0
   -1.9047   -2.3271    0.7610 C   0  0  0  0  0  0  0  0  0  0  0  0
   -0.9401   -2.9920    1.1062 O   0  0  0  0  0  0  0  0  0  0  0  0
   -1.7338   -1.0443    0.2832 N   0  0  0  0  0  0  0  0  0  0  0  0
   -2.5757   -0.4967    0.1119 H   0  0  0  0  0  0  0  0  0  0  0  0
   -0.4629   -0.3052    0.2902 C   0  0  1  0  0  0  0  0  0  0  0  0
    0.1353   -0.7634    1.0848 H   0  0  0  0  0  0  0  0  0  0  0  0
    0.3556   -0.5614   -1.0014 C   0  0  0  0  0  0  0  0  0  0  0  0
    1.3872   -0.7672   -0.6978 H   0  0  0  0  0  0  0  0  0  0  0  0
   -0.0222   -1.4856   -1.4523 H   0  0  0  0  0  0  0  0  0  0  0  0
    0.4218    0.5315   -2.0984 C   0  0  0  0  0  0  0  0  0  0  0  0
    1.0883    1.3402   -1.7796 H   0  0  0  0  0  0  0  0  0  0  0  0
    0.9675   -0.1204   -3.3788 C   0  0  0  0  0  0  0  0  0  0  0  0
    0.2781   -0.8839   -3.7543 H   0  0  0  0  0  0  0  0  0  0  0  0
    1.1120    0.6317   -4.1609 H   0  0  0  0  0  0  0  0  0  0  0  0
    1.9349   -0.5930   -3.1820 H   0  0  0  0  0  0  0  0  0  0  0  0
   -0.9502    1.1198   -2.4734 C   0  0  0  0  0  0  0  0  0  0  0  0
   -0.9220    1.5640   -3.4733 H   0  0  0  0  0  0  0  0  0  0  0  0
   -1.2398    1.9157   -1.7877 H   0  0  0  0  0  0  0  0  0  0  0  0
   -1.7206    0.3423   -2.4655 H   0  0  0  0  0  0  0  0  0  0  0  0
   -0.6109    1.1537    0.7731 C   0  0  0  0  0  0  0  0  0  0  0  0
   -1.6733    1.7462    0.6184 O   0  0  0  0  0  0  0  0  0  0  0  0
    0.3009    1.6751    1.6740 N   0  0  0  0  0  0  0  0  0  0  0  0
    1.1098    1.1057    1.9055 H   0  0  0  0  0  0  0  0  0  0  0  0
    0.1143    2.9456    2.3646 C   0  0  0  0  0  0  0  0  0  0  0  0
   -0.7776    2.9101    2.9990 H   0  0  0  0  0  0  0  0  0  0  0  0
    0.9803    3.1624    2.9972 H   0  0  0  0  0  0  0  0  0  0  0  0
    0.0019    3.7614    1.6429 H   0  0  0  0  0  0  0  0  0  0  0  0
  1  2  1  0  0  0  0
  2  3  1  0  0  0  0
  2  4  1  0  0  0  0
  2  5  1  0  0  0  0
  5  6  2  0  0  0  0
  5  7  1  0  0  0  0
  7  8  1  0  0  0  0
  7  9  1  0  0  0  0
  9 10  1  0  0  0  0
  9 11  1  0  0  0  0
  9 24  1  0  0  0  0
 11 12  1  0  0  0  0
 11 13  1  0  0  0  0
 11 14  1  0  0  0  0
 14 15  1  0  0  0  0
 14 16  1  0  0  0  0
 14 20  1  0  0  0  0
 16 17  1  0  0  0  0
 16 18  1  0  0  0  0
 16 19  1  0  0  0  0
 20 21  1  0  0  0  0
 20 22  1  0  0  0  0
 20 23  1  0  0  0  0
 24 25  2  0  0  0  0
 24 26  1  0  0  0  0
 26 27  1  0  0  0  0
 26 28  1  0  0  0  0
 28 29  1  0  0  0  0
 28 30  1  0  0  0  0
 28 31  1  0  0  0  0
M  END
$$$$

  -OEChem-03222214063D

 31 30  0     1  0  0  0  0  0999 V2000
   -3.4591   -3.8566    1.0786 H   0  0  0  0  0  0  0  0  0  0  0  0
   -3.4473   -2.8473    0.6577 C   0  0  0  0  0  0  0  0  0  0  0  0
   -4.1040   -2.2093    1.2541 H   0  0  0  0  0  0  0  0  0  0  0  0
   -3.8226   -2.8882   -0.3676 H   0  0  0  0  0  0  0  0  0  0  0  0
   -2.0359   -2.2916    0.6698 C   0  0  0  0  0  0  0  0  0  0  0  0
   -1.1129   -2.9808    1.0755 O   0  0  0  0  0  0  0  0  0  0  0  0
   -1.8036   -1.0076    0.2219 N   0  0  0  0  0  0  0  0  0  0  0  0
   -2.6190   -0.4393   -0.0028 H   0  0  0  0  0  0  0  0  0  0  0  0
   -0.5189   -0.2985    0.3227 C   0  0  1  0  0  0  0  0  0  0  0  0
    0.0120   -0.7754    1.1532 H   0  0  0  0  0  0  0  0  0  0  0  0
    0.3807   -0.5776   -0.9130 C   0  0  0  0  0  0  0  0  0  0  0  0
    1.3804   -0.8179   -0.5366 H   0  0  0  0  0  0  0  0  0  0  0  0
    0.0038   -1.4974   -1.3735 H   0  0  0  0  0  0  0  0  0  0  0  0
    0.5811    0.4856   -2.0317 C   0  0  0  0  0  0  0  0  0  0  0  0
    1.4523    1.1033   -1.7887 H   0  0  0  0  0  0  0  0  0  0  0  0
    0.8336   -0.2601   -3.3525 C   0  0  0  0  0  0  0  0  0  0  0  0
   -0.0529   -0.8262   -3.6574 H   0  0  0  0  0  0  0  0  0  0  0  0
    1.0866    0.4453   -4.1505 H   0  0  0  0  0  0  0  0  0  0  0  0
    1.6700   -0.9574   -3.2411 H   0  0  0  0  0  0  0  0  0  0  0  0
   -0.6167    1.4146   -2.2912 C   0  0  0  0  0  0  0  0  0  0  0  0
   -0.5819    1.8263   -3.3049 H   0  0  0  0  0  0  0  0  0  0  0  0
   -0.5979    2.2667   -1.6088 H   0  0  0  0  0  0  0  0  0  0  0  0
   -1.5618    0.8752   -2.1744 H   0  0  0  0  0  0  0  0  0  0  0  0
   -0.6770    1.1558    0.8152 C   0  0  0  0  0  0  0  0  0  0  0  0
   -1.7161    1.7678    0.5887 O   0  0  0  0  0  0  0  0  0  0  0  0
    0.1771    1.6532    1.7836 N   0  0  0  0  0  0  0  0  0  0  0  0
    0.9594    1.0691    2.0649 H   0  0  0  0  0  0  0  0  0  0  0  0
   -0.0366    2.9215    2.4706 C   0  0  0  0  0  0  0  0  0  0  0  0
   -0.9807    2.9033    3.0251 H   0  0  0  0  0  0  0  0  0  0  0  0
    0.7764    3.1098    3.1783 H   0  0  0  0  0  0  0  0  0  0  0  0
   -0.0659    3.7464    1.7509 H   0  0  0  0  0  0  0  0  0  0  0  0
  1  2  1  0  0  0  0
  2  3  1  0  0  0  0
  2  4  1  0  0  0  0
  2  5  1  0  0  0  0
  5  6  2  0  0  0  0
  5  7  1  0  0  0  0
  7  8  1  0  0  0  0
  7  9  1  0  0  0  0
  9 10  1  0  0  0  0
  9 11  1  0  0  0  0
  9 24  1  0  0  0  0
 11 12  1  0  0  0  0
 11 13  1  0  0  0  0
 11 14  1  0  0  0  0
 14 15  1  0  0  0  0
 14 16  1  0  0  0  0
 14 20  1  0  0  0  0
 16 17  1  0  0  0  0
 16 18  1  0  0  0  0
 16 19  1  0  0  0  0
 20 21  1  0  0  0  0
 20 22  1  0  0  0  0
 20 23  1  0  0  0  0
 24 25  2  0  0  0  0
 24 26  1  0  0  0  0
 26 27  1  0  0  0  0
 26 28  1  0  0  0  0
 28 29  1  0  0  0  0
 28 30  1  0  0  0  0
 28 31  1  0  0  0  0
M  END
$$$$

  -OEChem-03222214063D

 31 30  0     1  0  0  0  0  0999 V2000
   -3.3665   -3.9195    1.0638 H   0  0  0  0  0  0  0  0  0  0  0  0
   -3.3840   -2.8892    0.6976 C   0  0  0  0  0  0  0  0  0  0  0  0
   -4.0139   -2.2906    1.3600 H   0  0  0  0  0  0  0  0  0  0  0  0
   -3.8114   -2.8796   -0.3080 H   0  0  0  0  0  0  0  0  0  0  0  0
   -1.9779   -2.3209    0.6676 C   0  0  0  0  0  0  0  0  0  0  0  0
   -1.0311   -3.0174    0.9995 O   0  0  0  0  0  0  0  0  0  0  0  0
   -1.7771   -1.0171    0.2639 N   0  0  0  0  0  0  0  0  0  0  0  0
   -2.6065   -0.4486    0.0994 H   0  0  0  0  0  0  0  0  0  0  0  0
   -0.4942   -0.3008    0.3268 C   0  0  1  0  0  0  0  0  0  0  0  0
    0.0793   -0.8032    1.1130 H   0  0  0  0  0  0  0  0  0  0  0  0
    0.3423   -0.5458   -0.9630 C   0  0  0  0  0  0  0  0  0  0  0  0
    1.3589   -0.7780   -0.6290 H   0  0  0  0  0  0  0  0  0  0  0  0
   -0.0364   -1.4718   -1.4093 H   0  0  0  0  0  0  0  0  0  0  0  0
    0.5073    0.5210   -2.0921 C   0  0  0  0  0  0  0  0  0  0  0  0
    1.5261    0.9203   -2.0423 H   0  0  0  0  0  0  0  0  0  0  0  0
    0.3166   -0.1796   -3.4477 C   0  0  0  0  0  0  0  0  0  0  0  0
   -0.7090   -0.5490   -3.5524 H   0  0  0  0  0  0  0  0  0  0  0  0
    0.5232    0.5104   -4.2719 H   0  0  0  0  0  0  0  0  0  0  0  0
    1.0035   -1.0272   -3.5383 H   0  0  0  0  0  0  0  0  0  0  0  0
   -0.4603    1.7128   -2.0882 C   0  0  0  0  0  0  0  0  0  0  0  0
   -0.1876    2.4304   -1.3109 H   0  0  0  0  0  0  0  0  0  0  0  0
   -0.4160    2.2494   -3.0410 H   0  0  0  0  0  0  0  0  0  0  0  0
   -1.4906    1.3772   -1.9346 H   0  0  0  0  0  0  0  0  0  0  0  0
   -0.6439    1.1282    0.8895 C   0  0  0  0  0  0  0  0  0  0  0  0
   -1.6945    1.7414    0.7277 O   0  0  0  0  0  0  0  0  0  0  0  0
    0.2514    1.5981    1.8338 N   0  0  0  0  0  0  0  0  0  0  0  0
    1.0507    1.0116    2.0560 H   0  0  0  0  0  0  0  0  0  0  0  0
    0.0533    2.8326    2.5836 C   0  0  0  0  0  0  0  0  0  0  0  0
   -0.8441    2.7617    3.2071 H   0  0  0  0  0  0  0  0  0  0  0  0
    0.9127    3.0224    3.2338 H   0  0  0  0  0  0  0  0  0  0  0  0
   -0.0574    3.6820    1.9012 H   0  0  0  0  0  0  0  0  0  0  0  0
  1  2  1  0  0  0  0
  2  3  1  0  0  0  0
  2  4  1  0  0  0  0
  2  5  1  0  0  0  0
  5  6  2  0  0  0  0
  5  7  1  0  0  0  0
  7  8  1  0  0  0  0
  7  9  1  0  0  0  0
  9 10  1  0  0  0  0
  9 11  1  0  0  0  0
  9 24  1  0  0  0  0
 11 12  1  0  0  0  0
 11 13  1  0  0  0  0
 11 14  1  0  0  0  0
 14 15  1  0  0  0  0
 14 16  1  0  0  0  0
 14 20  1  0  0  0  0
 16 17  1  0  0  0  0
 16 18  1  0  0  0  0
 16 19  1  0  0  0  0
 20 21  1  0  0  0  0
 20 22  1  0  0  0  0
 20 23  1  0  0  0  0
 24 25  2  0  0  0  0
 24 26  1  0  0  0  0
 26 27  1  0  0  0  0
 26 28  1  0  0  0  0
 28 29  1  0  0  0  0
 28 30  1  0  0  0  0
 28 31  1  0  0  0  0
M  END
$$$$

  -OEChem-03222214063D

 31 30  0     1  0  0  0  0  0999 V2000
   -3.2187   -3.9793    1.2072 H   0  0  0  0  0  0  0  0  0  0  0  0
   -3.2728   -2.9604    0.8138 C   0  0  0  0  0  0  0  0  0  0  0  0
   -3.9141   -2.3644    1.4675 H   0  0  0  0  0  0  0  0  0  0  0  0
   -3.7114   -2.9910   -0.1865 H   0  0  0  0  0  0  0  0  0  0  0  0
   -1.8857   -2.3497    0.7507 C   0  0  0  0  0  0  0  0  0  0  0  0
   -0.9122   -3.0123    1.0747 O   0  0  0  0  0  0  0  0  0  0  0  0
   -1.7322   -1.0461    0.3255 N   0  0  0  0  0  0  0  0  0  0  0  0
   -2.5812   -0.5057    0.1665 H   0  0  0  0  0  0  0  0  0  0  0  0
   -0.4704   -0.2909    0.3529 C   0  0  1  0  0  0  0  0  0  0  0  0
    0.1381   -0.7627    1.1317 H   0  0  0  0  0  0  0  0  0  0  0  0
    0.3327   -0.5369   -0.9602 C   0  0  0  0  0  0  0  0  0  0  0  0
    1.3637   -0.7092   -0.6340 H   0  0  0  0  0  0  0  0  0  0  0  0
   -0.0009   -1.4960   -1.3711 H   0  0  0  0  0  0  0  0  0  0  0  0
    0.4526    0.4981   -2.1267 C   0  0  0  0  0  0  0  0  0  0  0  0
    1.5214    0.6682   -2.2970 H   0  0  0  0  0  0  0  0  0  0  0  0
   -0.1233   -0.1296   -3.4056 C   0  0  0  0  0  0  0  0  0  0  0  0
   -1.1941   -0.3254   -3.2887 H   0  0  0  0  0  0  0  0  0  0  0  0
    0.0163    0.5393   -4.2608 H   0  0  0  0  0  0  0  0  0  0  0  0
    0.3814   -1.0743   -3.6315 H   0  0  0  0  0  0  0  0  0  0  0  0
   -0.1901    1.8801   -1.9659 C   0  0  0  0  0  0  0  0  0  0  0  0
    0.2738    2.4336   -1.1454 H   0  0  0  0  0  0  0  0  0  0  0  0
   -0.0453    2.4715   -2.8754 H   0  0  0  0  0  0  0  0  0  0  0  0
   -1.2664    1.7912   -1.7928 H   0  0  0  0  0  0  0  0  0  0  0  0
   -0.6660    1.1379    0.9008 C   0  0  0  0  0  0  0  0  0  0  0  0
   -1.7337    1.7185    0.7324 O   0  0  0  0  0  0  0  0  0  0  0  0
    0.2260    1.6534    1.8242 N   0  0  0  0  0  0  0  0  0  0  0  0
    1.0474    1.0981    2.0453 H   0  0  0  0  0  0  0  0  0  0  0  0
    0.0110    2.9069    2.5368 C   0  0  0  0  0  0  0  0  0  0  0  0
   -0.8926    2.8479    3.1526 H   0  0  0  0  0  0  0  0  0  0  0  0
    0.8620    3.1205    3.1908 H   0  0  0  0  0  0  0  0  0  0  0  0
   -0.0973    3.7359    1.8294 H   0  0  0  0  0  0  0  0  0  0  0  0
  1  2  1  0  0  0  0
  2  3  1  0  0  0  0
  2  4  1  0  0  0  0
  2  5  1  0  0  0  0
  5  6  2  0  0  0  0
  5  7  1  0  0  0  0
  7  8  1  0  0  0  0
  7  9  1  0  0  0  0
  9 10  1  0  0  0  0
  9 11  1  0  0  0  0
  9 24  1  0  0  0  0
 11 12  1  0  0  0  0
 11 13  1  0  0  0  0
 11 14  1  0  0  0  0
 14 15  1  0  0  0  0
 14 16  1  0  0  0  0
 14 20  1  0  0  0  0
 16 17  1  0  0  0  0
 16 18  1  0  0  0  0
 16 19  1  0  0  0  0
 20 21  1  0  0  0  0
 20 22  1  0  0  0  0
 20 23  1  0  0  0  0
 24 25  2  0  0  0  0
 24 26  1  0  0  0  0
 26 27  1  0  0  0  0
 26 28  1  0  0  0  0
 28 29  1  0  0  0  0
 28 30  1  0  0  0  0
 28 31  1  0  0  0  0
M  END
$$$$

  -OEChem-03222214063D

 31 30  0     1  0  0  0  0  0999 V2000
   -3.4026   -3.8496    1.2789 H   0  0  0  0  0  0  0  0  0  0  0  0
   -3.3993   -2.8378    0.8638 C   0  0  0  0  0  0  0  0  0  0  0  0
   -4.0133   -2.1948    1.4992 H   0  0  0  0  0  0  0  0  0  0  0  0
   -3.8307   -2.8667   -0.1397 H   0  0  0  0  0  0  0  0  0  0  0  0
   -1.9814   -2.3022    0.8007 C   0  0  0  0  0  0  0  0  0  0  0  0
   -1.0466   -3.0065    1.1497 O   0  0  0  0  0  0  0  0  0  0  0  0
   -1.7561   -1.0190    0.3476 N   0  0  0  0  0  0  0  0  0  0  0  0
   -2.5735   -0.4363    0.1711 H   0  0  0  0  0  0  0  0  0  0  0  0
   -0.4560   -0.3321    0.3698 C   0  0  1  0  0  0  0  0  0  0  0  0
    0.1445   -0.8202    1.1449 H   0  0  0  0  0  0  0  0  0  0  0  0
    0.2934   -0.6158   -0.9675 C   0  0  0  0  0  0  0  0  0  0  0  0
    1.3218   -0.8343   -0.6619 H   0  0  0  0  0  0  0  0  0  0  0  0
   -0.0885   -1.5550   -1.3819 H   0  0  0  0  0  0  0  0  0  0  0  0
    0.4429    0.4206   -2.1247 C   0  0  0  0  0  0  0  0  0  0  0  0
    1.4564    0.2790   -2.5161 H   0  0  0  0  0  0  0  0  0  0  0  0
   -0.5087    0.0501   -3.2693 C   0  0  0  0  0  0  0  0  0  0  0  0
   -1.5491    0.1156   -2.9347 H   0  0  0  0  0  0  0  0  0  0  0  0
   -0.3729    0.7292   -4.1170 H   0  0  0  0  0  0  0  0  0  0  0  0
   -0.3170   -0.9696   -3.6177 H   0  0  0  0  0  0  0  0  0  0  0  0
    0.3296    1.9179   -1.8220 C   0  0  0  0  0  0  0  0  0  0  0  0
    0.9685    2.1945   -0.9786 H   0  0  0  0  0  0  0  0  0  0  0  0
   -0.7050    2.2007   -1.6129 H   0  0  0  0  0  0  0  0  0  0  0  0
    0.6588    2.4967   -2.6905 H   0  0  0  0  0  0  0  0  0  0  0  0
   -0.6166    1.1118    0.8882 C   0  0  0  0  0  0  0  0  0  0  0  0
   -1.6576    1.7263    0.6762 O   0  0  0  0  0  0  0  0  0  0  0  0
    0.2736    1.6197    1.8175 N   0  0  0  0  0  0  0  0  0  0  0  0
    1.0704    1.0423    2.0704 H   0  0  0  0  0  0  0  0  0  0  0  0
    0.0889    2.9002    2.4897 C   0  0  0  0  0  0  0  0  0  0  0  0
   -0.8298    2.8915    3.0855 H   0  0  0  0  0  0  0  0  0  0  0  0
    0.9323    3.1021    3.1569 H   0  0  0  0  0  0  0  0  0  0  0  0
    0.0264    3.7119    1.7573 H   0  0  0  0  0  0  0  0  0  0  0  0
  1  2  1  0  0  0  0
  2  3  1  0  0  0  0
  2  4  1  0  0  0  0
  2  5  1  0  0  0  0
  5  6  2  0  0  0  0
  5  7  1  0  0  0  0
  7  8  1  0  0  0  0
  7  9  1  0  0  0  0
  9 10  1  0  0  0  0
  9 11  1  0  0  0  0
  9 24  1  0  0  0  0
 11 12  1  0  0  0  0
 11 13  1  0  0  0  0
 11 14  1  0  0  0  0
 14 15  1  0  0  0  0
 14 16  1  0  0  0  0
 14 20  1  0  0  0  0
 16 17  1  0  0  0  0
 16 18  1  0  0  0  0
 16 19  1  0  0  0  0
 20 21  1  0  0  0  0
 20 22  1  0  0  0  0
 20 23  1  0  0  0  0
 24 25  2  0  0  0  0
 24 26  1  0  0  0  0
 26 27  1  0  0  0  0
 26 28  1  0  0  0  0
 28 29  1  0  0  0  0
 28 30  1  0  0  0  0
 28 31  1  0  0  0  0
M  END
$$$$

  -OEChem-03222214063D

 31 30  0     1  0  0  0  0  0999 V2000
   -3.4147   -3.9009    1.1427 H   0  0  0  0  0  0  0  0  0  0  0  0
   -3.3937   -2.8904    0.7254 C   0  0  0  0  0  0  0  0  0  0  0  0
   -4.0415   -2.2477    1.3262 H   0  0  0  0  0  0  0  0  0  0  0  0
   -3.7734   -2.9236   -0.2985 H   0  0  0  0  0  0  0  0  0  0  0  0
   -1.9762   -2.3504    0.7341 C   0  0  0  0  0  0  0  0  0  0  0  0
   -1.0592   -3.0469    1.1406 O   0  0  0  0  0  0  0  0  0  0  0  0
   -1.7308   -1.0702    0.2841 N   0  0  0  0  0  0  0  0  0  0  0  0
   -2.5383   -0.4916    0.0557 H   0  0  0  0  0  0  0  0  0  0  0  0
   -0.4357   -0.3796    0.3734 C   0  0  1  0  0  0  0  0  0  0  0  0
    0.1471   -0.8647    1.1634 H   0  0  0  0  0  0  0  0  0  0  0  0
    0.3452   -0.6200   -0.9518 C   0  0  0  0  0  0  0  0  0  0  0  0
    1.3676   -0.8559   -0.6381 H   0  0  0  0  0  0  0  0  0  0  0  0
   -0.0346   -1.5325   -1.4242 H   0  0  0  0  0  0  0  0  0  0  0  0
    0.5017    0.4755   -2.0438 C   0  0  0  0  0  0  0  0  0  0  0  0
    1.3930    0.1786   -2.6078 H   0  0  0  0  0  0  0  0  0  0  0  0
   -0.6595    0.3984   -3.0396 C   0  0  0  0  0  0  0  0  0  0  0  0
   -1.6037    0.6347   -2.5386 H   0  0  0  0  0  0  0  0  0  0  0  0
   -0.5110    1.1122   -3.8557 H   0  0  0  0  0  0  0  0  0  0  0  0
   -0.7348   -0.6044   -3.4712 H   0  0  0  0  0  0  0  0  0  0  0  0
    0.7748    1.9206   -1.6076 C   0  0  0  0  0  0  0  0  0  0  0  0
    1.4691    1.9459   -0.7625 H   0  0  0  0  0  0  0  0  0  0  0  0
   -0.1477    2.4400   -1.3377 H   0  0  0  0  0  0  0  0  0  0  0  0
    1.2290    2.4746   -2.4351 H   0  0  0  0  0  0  0  0  0  0  0  0
   -0.6552    1.0626    0.8723 C   0  0  0  0  0  0  0  0  0  0  0  0
   -1.6755    1.6696    0.5602 O   0  0  0  0  0  0  0  0  0  0  0  0
    0.1645    1.5943    1.8516 N   0  0  0  0  0  0  0  0  0  0  0  0
    0.9458    1.0283    2.1697 H   0  0  0  0  0  0  0  0  0  0  0  0
   -0.0765    2.8847    2.4857 C   0  0  0  0  0  0  0  0  0  0  0  0
   -1.0378    2.8804    3.0102 H   0  0  0  0  0  0  0  0  0  0  0  0
    0.7125    3.1026    3.2118 H   0  0  0  0  0  0  0  0  0  0  0  0
   -0.0867    3.6834    1.7366 H   0  0  0  0  0  0  0  0  0  0  0  0
  1  2  1  0  0  0  0
  2  3  1  0  0  0  0
  2  4  1  0  0  0  0
  2  5  1  0  0  0  0
  5  6  2  0  0  0  0
  5  7  1  0  0  0  0
  7  8  1  0  0  0  0
  7  9  1  0  0  0  0
  9 10  1  0  0  0  0
  9 11  1  0  0  0  0
  9 24  1  0  0  0  0
 11 12  1  0  0  0  0
 11 13  1  0  0  0  0
 11 14  1  0  0  0  0
 14 15  1  0  0  0  0
 14 16  1  0  0  0  0
 14 20  1  0  0  0  0
 16 17  1  0  0  0  0
 16 18  1  0  0  0  0
 16 19  1  0  0  0  0
 20 21  1  0  0  0  0
 20 22  1  0  0  0  0
 20 23  1  0  0  0  0
 24 25  2  0  0  0  0
 24 26  1  0  0  0  0
 26 27  1  0  0  0  0
 26 28  1  0  0  0  0
 28 29  1  0  0  0  0
 28 30  1  0  0  0  0
 28 31  1  0  0  0  0
M  END
$$$$

  -OEChem-03222214063D

 31 30  0     1  0  0  0  0  0999 V2000
   -3.3323   -3.9510    1.1842 H   0  0  0  0  0  0  0  0  0  0  0  0
   -3.3300   -2.9439    0.7581 C   0  0  0  0  0  0  0  0  0  0  0  0
   -3.9809   -2.3053    1.3601 H   0  0  0  0  0  0  0  0  0  0  0  0
   -3.7194   -2.9915   -0.2617 H   0  0  0  0  0  0  0  0  0  0  0  0
   -1.9204   -2.3837    0.7477 C   0  0  0  0  0  0  0  0  0  0  0  0
   -0.9883   -3.0676    1.1409 O   0  0  0  0  0  0  0  0  0  0  0  0
   -1.6993   -1.1004    0.2937 N   0  0  0  0  0  0  0  0  0  0  0  0
   -2.5174   -0.5347    0.0717 H   0  0  0  0  0  0  0  0  0  0  0  0
   -0.4110   -0.3948    0.3570 C   0  0  1  0  0  0  0  0  0  0  0  0
    0.1948   -0.8770    1.1314 H   0  0  0  0  0  0  0  0  0  0  0  0
    0.3465   -0.6094   -0.9842 C   0  0  0  0  0  0  0  0  0  0  0  0
    1.3786   -0.8524   -0.7116 H   0  0  0  0  0  0  0  0  0  0  0  0
   -0.0515   -1.5043   -1.4747 H   0  0  0  0  0  0  0  0  0  0  0  0
    0.4437    0.5209   -2.0408 C   0  0  0  0  0  0  0  0  0  0  0  0
    1.1562    0.1508   -2.7861 H   0  0  0  0  0  0  0  0  0  0  0  0
   -0.8889    0.6972   -2.7761 C   0  0  0  0  0  0  0  0  0  0  0  0
   -1.6636    1.0578   -2.0934 H   0  0  0  0  0  0  0  0  0  0  0  0
   -0.7806    1.4213   -3.5894 H   0  0  0  0  0  0  0  0  0  0  0  0
   -1.2196   -0.2539   -3.2045 H   0  0  0  0  0  0  0  0  0  0  0  0
    1.0156    1.8635   -1.5619 C   0  0  0  0  0  0  0  0  0  0  0  0
    1.8087    1.7044   -0.8250 H   0  0  0  0  0  0  0  0  0  0  0  0
    1.4425    2.4058   -2.4113 H   0  0  0  0  0  0  0  0  0  0  0  0
    0.2429    2.5008   -1.1253 H   0  0  0  0  0  0  0  0  0  0  0  0
   -0.6233    1.0470    0.8601 C   0  0  0  0  0  0  0  0  0  0  0  0
   -1.6379    1.6639    0.5504 O   0  0  0  0  0  0  0  0  0  0  0  0
    0.2179    1.5805    1.8199 N   0  0  0  0  0  0  0  0  0  0  0  0
    1.0038    1.0136    2.1248 H   0  0  0  0  0  0  0  0  0  0  0  0
    0.0084    2.8853    2.4350 C   0  0  0  0  0  0  0  0  0  0  0  0
   -0.9503    2.9110    2.9637 H   0  0  0  0  0  0  0  0  0  0  0  0
    0.8053    3.0963    3.1545 H   0  0  0  0  0  0  0  0  0  0  0  0
    0.0128    3.6724    1.6737 H   0  0  0  0  0  0  0  0  0  0  0  0
  1  2  1  0  0  0  0
  2  3  1  0  0  0  0
  2  4  1  0  0  0  0
  2  5  1  0  0  0  0
  5  6  2  0  0  0  0
  5  7  1  0  0  0  0
  7  8  1  0  0  0  0
  7  9  1  0  0  0  0
  9 10  1  0  0  0  0
  9 11  1  0  0  0  0
  9 24  1  0  0  0  0
 11 12  1  0  0  0  0
 11 13  1  0  0  0  0
 11 14  1  0  0  0  0
 14 15  1  0  0  0  0
 14 16  1  0  0  0  0
 14 20  1  0  0  0  0
 16 17  1  0  0  0  0
 16 18  1  0  0  0  0
 16 19  1  0  0  0  0
 20 21  1  0  0  0  0
 20 22  1  0  0  0  0
 20 23  1  0  0  0  0
 24 25  2  0  0  0  0
 24 26  1  0  0  0  0
 26 27  1  0  0  0  0
 26 28  1  0  0  0  0
 28 29  1  0  0  0  0
 28 30  1  0  0  0  0
 28 31  1  0  0  0  0
M  END
$$$$

  -OEChem-03222214063D

 31 30  0     1  0  0  0  0  0999 V2000
   -3.3159   -3.9615    1.1716 H   0  0  0  0  0  0  0  0  0  0  0  0
   -3.3305   -2.9467    0.7641 C   0  0  0  0  0  0  0  0  0  0  0  0
   -3.9767   -2.3256    1.3890 H   0  0  0  0  0  0  0  0  0  0  0  0
   -3.7375   -2.9795   -0.2493 H   0  0  0  0  0  0  0  0  0  0  0  0
   -1.9266   -2.3724    0.7390 C   0  0  0  0  0  0  0  0  0  0  0  0
   -0.9831   -3.0510    1.1140 O   0  0  0  0  0  0  0  0  0  0  0  0
   -1.7239   -1.0836    0.2907 N   0  0  0  0  0  0  0  0  0  0  0  0
   -2.5510   -0.5269    0.0809 H   0  0  0  0  0  0  0  0  0  0  0  0
   -0.4439   -0.3622    0.3466 C   0  0  1  0  0  0  0  0  0  0  0  0
    0.1469   -0.8415    1.1343 H   0  0  0  0  0  0  0  0  0  0  0  0
    0.3617   -0.5978   -0.9620 C   0  0  0  0  0  0  0  0  0  0  0  0
    1.3863   -0.8385   -0.6611 H   0  0  0  0  0  0  0  0  0  0  0  0
   -0.0296   -1.4995   -1.4454 H   0  0  0  0  0  0  0  0  0  0  0  0
    0.4689    0.5047   -2.0452 C   0  0  0  0  0  0  0  0  0  0  0  0
    1.0284    0.0535   -2.8719 H   0  0  0  0  0  0  0  0  0  0  0  0
   -0.8993    0.9157   -2.6035 C   0  0  0  0  0  0  0  0  0  0  0  0
   -1.4894    1.4661   -1.8697 H   0  0  0  0  0  0  0  0  0  0  0  0
   -0.7678    1.5578   -3.4800 H   0  0  0  0  0  0  0  0  0  0  0  0
   -1.4651    0.0301   -2.9085 H   0  0  0  0  0  0  0  0  0  0  0  0
    1.2676    1.7408   -1.6052 C   0  0  0  0  0  0  0  0  0  0  0  0
    2.1637    1.4443   -1.0517 H   0  0  0  0  0  0  0  0  0  0  0  0
    1.5824    2.3086   -2.4863 H   0  0  0  0  0  0  0  0  0  0  0  0
    0.6708    2.4081   -0.9791 H   0  0  0  0  0  0  0  0  0  0  0  0
   -0.6220    1.0831    0.8559 C   0  0  0  0  0  0  0  0  0  0  0  0
   -1.6507    1.7043    0.6127 O   0  0  0  0  0  0  0  0  0  0  0  0
    0.2504    1.5943    1.8004 N   0  0  0  0  0  0  0  0  0  0  0  0
    1.0409    1.0167    2.0717 H   0  0  0  0  0  0  0  0  0  0  0  0
    0.0571    2.8793    2.4610 C   0  0  0  0  0  0  0  0  0  0  0  0
   -0.8712    2.8761    3.0418 H   0  0  0  0  0  0  0  0  0  0  0  0
    0.8898    3.0839    3.1410 H   0  0  0  0  0  0  0  0  0  0  0  0
    0.0085    3.6861    1.7221 H   0  0  0  0  0  0  0  0  0  0  0  0
  1  2  1  0  0  0  0
  2  3  1  0  0  0  0
  2  4  1  0  0  0  0
  2  5  1  0  0  0  0
  5  6  2  0  0  0  0
  5  7  1  0  0  0  0
  7  8  1  0  0  0  0
  7  9  1  0  0  0  0
  9 10  1  0  0  0  0
  9 11  1  0  0  0  0
  9 24  1  0  0  0  0
 11 12  1  0  0  0  0
 11 13  1  0  0  0  0
 11 14  1  0  0  0  0
 14 15  1  0  0  0  0
 14 16  1  0  0  0  0
 14 20  1  0  0  0  0
 16 17  1  0  0  0  0
 16 18  1  0  0  0  0
 16 19  1  0  0  0  0
 20 21  1  0  0  0  0
 20 22  1  0  0  0  0
 20 23  1  0  0  0  0
 24 25  2  0  0  0  0
 24 26  1  0  0  0  0
 26 27  1  0  0  0  0
 26 28  1  0  0  0  0
 28 29  1  0  0  0  0
 28 30  1  0  0  0  0
 28 31  1  0  0  0  0
M  END
$$$$

  -OEChem-03222214063D

 31 30  0     1  0  0  0  0  0999 V2000
   -3.3068   -3.9165    1.3093 H   0  0  0  0  0  0  0  0  0  0  0  0
   -3.3269   -2.9164    0.8674 C   0  0  0  0  0  0  0  0  0  0  0  0
   -3.9586   -2.2722    1.4836 H   0  0  0  0  0  0  0  0  0  0  0  0
   -3.7540   -2.9821   -0.1361 H   0  0  0  0  0  0  0  0  0  0  0  0
   -1.9222   -2.3483    0.7948 C   0  0  0  0  0  0  0  0  0  0  0  0
   -0.9720   -3.0205    1.1650 O   0  0  0  0  0  0  0  0  0  0  0  0
   -1.7261   -1.0717    0.3103 N   0  0  0  0  0  0  0  0  0  0  0  0
   -2.5578   -0.5137    0.1222 H   0  0  0  0  0  0  0  0  0  0  0  0
   -0.4473   -0.3466    0.3461 C   0  0  1  0  0  0  0  0  0  0  0  0
    0.1373   -0.8009    1.1528 H   0  0  0  0  0  0  0  0  0  0  0  0
    0.3770   -0.6198   -0.9427 C   0  0  0  0  0  0  0  0  0  0  0  0
    1.3945   -0.8726   -0.6278 H   0  0  0  0  0  0  0  0  0  0  0  0
   -0.0259   -1.5271   -1.4056 H   0  0  0  0  0  0  0  0  0  0  0  0
    0.4947    0.4467   -2.0619 C   0  0  0  0  0  0  0  0  0  0  0  0
    0.8456   -0.0869   -2.9521 H   0  0  0  0  0  0  0  0  0  0  0  0
   -0.8298    1.1264   -2.4351 C   0  0  0  0  0  0  0  0  0  0  0  0
   -0.7744    1.5021   -3.4613 H   0  0  0  0  0  0  0  0  0  0  0  0
   -1.0458    1.9782   -1.7878 H   0  0  0  0  0  0  0  0  0  0  0  0
   -1.6588    0.4146   -2.3760 H   0  0  0  0  0  0  0  0  0  0  0  0
    1.5495    1.5120   -1.7296 C   0  0  0  0  0  0  0  0  0  0  0  0
    2.5104    1.0414   -1.5005 H   0  0  0  0  0  0  0  0  0  0  0  0
    1.6921    2.1774   -2.5868 H   0  0  0  0  0  0  0  0  0  0  0  0
    1.2480    2.1208   -0.8738 H   0  0  0  0  0  0  0  0  0  0  0  0
   -0.6264    1.1125    0.8156 C   0  0  0  0  0  0  0  0  0  0  0  0
   -1.6802    1.7022    0.6010 O   0  0  0  0  0  0  0  0  0  0  0  0
    0.2476    1.6486    1.7448 N   0  0  0  0  0  0  0  0  0  0  0  0
    1.0524    1.0882    2.0101 H   0  0  0  0  0  0  0  0  0  0  0  0
    0.0340    2.9304    2.4055 C   0  0  0  0  0  0  0  0  0  0  0  0
   -0.8910    2.9102    2.9914 H   0  0  0  0  0  0  0  0  0  0  0  0
    0.8662    3.1505    3.0808 H   0  0  0  0  0  0  0  0  0  0  0  0
   -0.0331    3.7359    1.6666 H   0  0  0  0  0  0  0  0  0  0  0  0
  1  2  1  0  0  0  0
  2  3  1  0  0  0  0
  2  4  1  0  0  0  0
  2  5  1  0  0  0  0
  5  6  2  0  0  0  0
  5  7  1  0  0  0  0
  7  8  1  0  0  0  0
  7  9  1  0  0  0  0
  9 10  1  0  0  0  0
  9 11  1  0  0  0  0
  9 24  1  0  0  0  0
 11 12  1  0  0  0  0
 11 13  1  0  0  0  0
 11 14  1  0  0  0  0
 14 15  1  0  0  0  0
 14 16  1  0  0  0  0
 14 20  1  0  0  0  0
 16 17  1  0  0  0  0
 16 18  1  0  0  0  0
 16 19  1  0  0  0  0
 20 21  1  0  0  0  0
 20 22  1  0  0  0  0
 20 23  1  0  0  0  0
 24 25  2  0  0  0  0
 24 26  1  0  0  0  0
 26 27  1  0  0  0  0
 26 28  1  0  0  0  0
 28 29  1  0  0  0  0
 28 30  1  0  0  0  0
 28 31  1  0  0  0  0
M  END
$$$$

  -OEChem-03222214063D

 31 30  0     1  0  0  0  0  0999 V2000
   -3.4056   -3.9267    1.0664 H   0  0  0  0  0  0  0  0  0  0  0  0
   -3.3977   -2.9191    0.6415 C   0  0  0  0  0  0  0  0  0  0  0  0
   -4.0785   -2.2883    1.2182 H   0  0  0  0  0  0  0  0  0  0  0  0
   -3.7465   -2.9698   -0.3926 H   0  0  0  0  0  0  0  0  0  0  0  0
   -1.9952   -2.3426    0.6864 C   0  0  0  0  0  0  0  0  0  0  0  0
   -1.0765   -3.0077    1.1394 O   0  0  0  0  0  0  0  0  0  0  0  0
   -1.7668   -1.0661    0.2156 N   0  0  0  0  0  0  0  0  0  0  0  0
   -2.5826   -0.5165   -0.0501 H   0  0  0  0  0  0  0  0  0  0  0  0
   -0.4990   -0.3325    0.3503 C   0  0  1  0  0  0  0  0  0  0  0  0
    0.0079   -0.7795    1.2120 H   0  0  0  0  0  0  0  0  0  0  0  0
    0.4510   -0.6209   -0.8455 C   0  0  0  0  0  0  0  0  0  0  0  0
    1.4290   -0.8764   -0.4251 H   0  0  0  0  0  0  0  0  0  0  0  0
    0.0909   -1.5358   -1.3279 H   0  0  0  0  0  0  0  0  0  0  0  0
    0.6797    0.4181   -1.9794 C   0  0  0  0  0  0  0  0  0  0  0  0
    0.8969   -0.1521   -2.8894 H   0  0  0  0  0  0  0  0  0  0  0  0
   -0.4952    1.3539   -2.2951 C   0  0  0  0  0  0  0  0  0  0  0  0
   -0.4053    1.7234   -3.3212 H   0  0  0  0  0  0  0  0  0  0  0  0
   -0.5081    2.2257   -1.6367 H   0  0  0  0  0  0  0  0  0  0  0  0
   -1.4472    0.8213   -2.2083 H   0  0  0  0  0  0  0  0  0  0  0  0
    1.9107    1.2797   -1.6632 C   0  0  0  0  0  0  0  0  0  0  0  0
    2.8004    0.6520   -1.5524 H   0  0  0  0  0  0  0  0  0  0  0  0
    2.0960    1.9903   -2.4749 H   0  0  0  0  0  0  0  0  0  0  0  0
    1.7643    1.8430   -0.7365 H   0  0  0  0  0  0  0  0  0  0  0  0
   -0.7062    1.1297    0.7993 C   0  0  0  0  0  0  0  0  0  0  0  0
   -1.7459    1.7151    0.5132 O   0  0  0  0  0  0  0  0  0  0  0  0
    0.0967    1.6677    1.7894 N   0  0  0  0  0  0  0  0  0  0  0  0
    0.8816    1.1094    2.1125 H   0  0  0  0  0  0  0  0  0  0  0  0
   -0.1655    2.9513    2.4290 C   0  0  0  0  0  0  0  0  0  0  0  0
   -1.1258    2.9284    2.9547 H   0  0  0  0  0  0  0  0  0  0  0  0
    0.6207    3.1797    3.1549 H   0  0  0  0  0  0  0  0  0  0  0  0
   -0.1901    3.7532    1.6835 H   0  0  0  0  0  0  0  0  0  0  0  0
  1  2  1  0  0  0  0
  2  3  1  0  0  0  0
  2  4  1  0  0  0  0
  2  5  1  0  0  0  0
  5  6  2  0  0  0  0
  5  7  1  0  0  0  0
  7  8  1  0  0  0  0
  7  9  1  0  0  0  0
  9 10  1  0  0  0  0
  9 11  1  0  0  0  0
  9 24  1  0  0  0  0
 11 12  1  0  0  0  0
 11 13  1  0  0  0  0
 11 14  1  0  0  0  0
 14 15  1  0  0  0  0
 14 16  1  0  0  0  0
 14 20  1  0  0  0  0
 16 17  1  0  0  0  0
 16 18  1  0  0  0  0
 16 19  1  0  0  0  0
 20 21  1  0  0  0  0
 20 22  1  0  0  0  0
 20 23  1  0  0  0  0
 24 25  2  0  0  0  0
 24 26  1  0  0  0  0
 26 27  1  0  0  0  0
 26 28  1  0  0  0  0
 28 29  1  0  0  0  0
 28 30  1  0  0  0  0
 28 31  1  0  0  0  0
M  END
$$$$

  -OEChem-03222214063D

 31 30  0     1  0  0  0  0  0999 V2000
   -3.3166   -3.9572    1.1455 H   0  0  0  0  0  0  0  0  0  0  0  0
   -3.3440   -2.9369    0.7527 C   0  0  0  0  0  0  0  0  0  0  0  0
   -3.9809   -2.3279    1.3989 H   0  0  0  0  0  0  0  0  0  0  0  0
   -3.7705   -2.9573   -0.2531 H   0  0  0  0  0  0  0  0  0  0  0  0
   -1.9434   -2.3555    0.7085 C   0  0  0  0  0  0  0  0  0  0  0  0
   -0.9892   -3.0364    1.0514 O   0  0  0  0  0  0  0  0  0  0  0  0
   -1.7559   -1.0571    0.2815 N   0  0  0  0  0  0  0  0  0  0  0  0
   -2.5914   -0.5000    0.1091 H   0  0  0  0  0  0  0  0  0  0  0  0
   -0.4817   -0.3249    0.3387 C   0  0  1  0  0  0  0  0  0  0  0  0
    0.0905   -0.8061    1.1389 H   0  0  0  0  0  0  0  0  0  0  0  0
    0.3721   -0.5798   -0.9371 C   0  0  0  0  0  0  0  0  0  0  0  0
    1.3753   -0.8444   -0.5868 H   0  0  0  0  0  0  0  0  0  0  0  0
   -0.0182   -1.4890   -1.4065 H   0  0  0  0  0  0  0  0  0  0  0  0
    0.5302    0.4736   -2.0774 C   0  0  0  0  0  0  0  0  0  0  0  0
    0.4083   -0.0673   -3.0223 H   0  0  0  0  0  0  0  0  0  0  0  0
   -0.4516    1.6511   -2.1095 C   0  0  0  0  0  0  0  0  0  0  0  0
   -0.2031    2.4056   -1.3583 H   0  0  0  0  0  0  0  0  0  0  0  0
   -0.4114    2.1391   -3.0882 H   0  0  0  0  0  0  0  0  0  0  0  0
   -1.4762    1.3008   -1.9515 H   0  0  0  0  0  0  0  0  0  0  0  0
    1.9518    1.0538   -2.0526 C   0  0  0  0  0  0  0  0  0  0  0  0
    2.6935    0.2570   -2.1679 H   0  0  0  0  0  0  0  0  0  0  0  0
    2.0896    1.7656   -2.8729 H   0  0  0  0  0  0  0  0  0  0  0  0
    2.1395    1.5724   -1.1069 H   0  0  0  0  0  0  0  0  0  0  0  0
   -0.6460    1.1133    0.8730 C   0  0  0  0  0  0  0  0  0  0  0  0
   -1.7015    1.7137    0.6964 O   0  0  0  0  0  0  0  0  0  0  0  0
    0.2417    1.6073    1.8122 N   0  0  0  0  0  0  0  0  0  0  0  0
    1.0475    1.0336    2.0442 H   0  0  0  0  0  0  0  0  0  0  0  0
    0.0400    2.8612    2.5281 C   0  0  0  0  0  0  0  0  0  0  0  0
   -0.8693    2.8130    3.1363 H   0  0  0  0  0  0  0  0  0  0  0  0
    0.8884    3.0596    3.1899 H   0  0  0  0  0  0  0  0  0  0  0  0
   -0.0502    3.6943    1.8233 H   0  0  0  0  0  0  0  0  0  0  0  0
  1  2  1  0  0  0  0
  2  3  1  0  0  0  0
  2  4  1  0  0  0  0
  2  5  1  0  0  0  0
  5  6  2  0  0  0  0
  5  7  1  0  0  0  0
  7  8  1  0  0  0  0
  7  9  1  0  0  0  0
  9 10  1  0  0  0  0
  9 11  1  0  0  0  0
  9 24  1  0  0  0  0
 11 12  1  0  0  0  0
 11 13  1  0  0  0  0
 11 14  1  0  0  0  0
 14 15  1  0  0  0  0
 14 16  1  0  0  0  0
 14 20  1  0  0  0  0
 16 17  1  0  0  0  0
 16 18  1  0  0  0  0
 16 19  1  0  0  0  0
 20 21  1  0  0  0  0
 20 22  1  0  0  0  0
 20 23  1  0  0  0  0
 24 25  2  0  0  0  0
 24 26  1  0  0  0  0
 26 27  1  0  0  0  0
 26 28  1  0  0  0  0
 28 29  1  0  0  0  0
 28 30  1  0  0  0  0
 28 31  1  0  0  0  0
M  END
$$$$

  -OEChem-03222214063D

 31 30  0     1  0  0  0  0  0999 V2000
   -3.2436   -3.9855    1.1797 H   0  0  0  0  0  0  0  0  0  0  0  0
   -3.2881   -2.9666    0.7850 C   0  0  0  0  0  0  0  0  0  0  0  0
   -3.9286   -2.3649    1.4344 H   0  0  0  0  0  0  0  0  0  0  0  0
   -3.7213   -2.9952   -0.2177 H   0  0  0  0  0  0  0  0  0  0  0  0
   -1.8964   -2.3653    0.7298 C   0  0  0  0  0  0  0  0  0  0  0  0
   -0.9285   -3.0362    1.0534 O   0  0  0  0  0  0  0  0  0  0  0  0
   -1.7328   -1.0605    0.3121 N   0  0  0  0  0  0  0  0  0  0  0  0
   -2.5783   -0.5140    0.1551 H   0  0  0  0  0  0  0  0  0  0  0  0
   -0.4675   -0.3119    0.3546 C   0  0  1  0  0  0  0  0  0  0  0  0
    0.1251   -0.7907    1.1414 H   0  0  0  0  0  0  0  0  0  0  0  0
    0.3602   -0.5555   -0.9428 C   0  0  0  0  0  0  0  0  0  0  0  0
    1.3725   -0.7815   -0.5920 H   0  0  0  0  0  0  0  0  0  0  0  0
   -0.0017   -1.4845   -1.3963 H   0  0  0  0  0  0  0  0  0  0  0  0
    0.4987    0.4877   -2.0994 C   0  0  0  0  0  0  0  0  0  0  0  0
    0.0801    0.0099   -2.9919 H   0  0  0  0  0  0  0  0  0  0  0  0
   -0.2141    1.8378   -1.9737 C   0  0  0  0  0  0  0  0  0  0  0  0
    0.2153    2.4434   -1.1708 H   0  0  0  0  0  0  0  0  0  0  0  0
   -0.1108    2.4025   -2.9054 H   0  0  0  0  0  0  0  0  0  0  0  0
   -1.2831    1.6905   -1.7965 H   0  0  0  0  0  0  0  0  0  0  0  0
    1.9845    0.7611   -2.3772 C   0  0  0  0  0  0  0  0  0  0  0  0
    2.5129   -0.1740   -2.5885 H   0  0  0  0  0  0  0  0  0  0  0  0
    2.0985    1.4180   -3.2453 H   0  0  0  0  0  0  0  0  0  0  0  0
    2.4556    1.2421   -1.5139 H   0  0  0  0  0  0  0  0  0  0  0  0
   -0.6510    1.1172    0.9062 C   0  0  0  0  0  0  0  0  0  0  0  0
   -1.7144    1.7059    0.7392 O   0  0  0  0  0  0  0  0  0  0  0  0
    0.2401    1.6201    1.8374 N   0  0  0  0  0  0  0  0  0  0  0  0
    1.0631    1.0634    2.0494 H   0  0  0  0  0  0  0  0  0  0  0  0
    0.0383    2.8782    2.5458 C   0  0  0  0  0  0  0  0  0  0  0  0
   -0.8702    2.8334    3.1556 H   0  0  0  0  0  0  0  0  0  0  0  0
    0.8876    3.0813    3.2050 H   0  0  0  0  0  0  0  0  0  0  0  0
   -0.0539    3.7069    1.8359 H   0  0  0  0  0  0  0  0  0  0  0  0
  1  2  1  0  0  0  0
  2  3  1  0  0  0  0
  2  4  1  0  0  0  0
  2  5  1  0  0  0  0
  5  6  2  0  0  0  0
  5  7  1  0  0  0  0
  7  8  1  0  0  0  0
  7  9  1  0  0  0  0
  9 10  1  0  0  0  0
  9 11  1  0  0  0  0
  9 24  1  0  0  0  0
 11 12  1  0  0  0  0
 11 13  1  0  0  0  0
 11 14  1  0  0  0  0
 14 15  1  0  0  0  0
 14 16  1  0  0  0  0
 14 20  1  0  0  0  0
 16 17  1  0  0  0  0
 16 18  1  0  0  0  0
 16 19  1  0  0  0  0
 20 21  1  0  0  0  0
 20 22  1  0  0  0  0
 20 23  1  0  0  0  0
 24 25  2  0  0  0  0
 24 26  1  0  0  0  0
 26 27  1  0  0  0  0
 26 28  1  0  0  0  0
 28 29  1  0  0  0  0
 28 30  1  0  0  0  0
 28 31  1  0  0  0  0
M  END
$$$$

  -OEChem-03222214063D

 31 30  0     1  0  0  0  0  0999 V2000
   -3.3162   -3.9061    1.1799 H   0  0  0  0  0  0  0  0  0  0  0  0
   -3.3357   -2.8880    0.7811 C   0  0  0  0  0  0  0  0  0  0  0  0
   -3.9730   -2.2717    1.4199 H   0  0  0  0  0  0  0  0  0  0  0  0
   -3.7565   -2.9120   -0.2269 H   0  0  0  0  0  0  0  0  0  0  0  0
   -1.9321   -2.3137    0.7420 C   0  0  0  0  0  0  0  0  0  0  0  0
   -0.9844   -2.9926    1.1059 O   0  0  0  0  0  0  0  0  0  0  0  0
   -1.7346   -1.0229    0.2969 N   0  0  0  0  0  0  0  0  0  0  0  0
   -2.5659   -0.4633    0.1113 H   0  0  0  0  0  0  0  0  0  0  0  0
   -0.4587   -0.2944    0.3621 C   0  0  1  0  0  0  0  0  0  0  0  0
    0.1119   -0.7619    1.1716 H   0  0  0  0  0  0  0  0  0  0  0  0
    0.3815   -0.5768   -0.9206 C   0  0  0  0  0  0  0  0  0  0  0  0
    1.3862   -0.7863   -0.5385 H   0  0  0  0  0  0  0  0  0  0  0  0
    0.0320   -1.5182   -1.3583 H   0  0  0  0  0  0  0  0  0  0  0  0
    0.5653    0.4373   -2.0948 C   0  0  0  0  0  0  0  0  0  0  0  0
   -0.0910    0.0881   -2.8994 H   0  0  0  0  0  0  0  0  0  0  0  0
    0.1996    1.9098   -1.8820 C   0  0  0  0  0  0  0  0  0  0  0  0
    0.7567    2.3381   -1.0438 H   0  0  0  0  0  0  0  0  0  0  0  0
   -0.8740    2.0180   -1.7105 H   0  0  0  0  0  0  0  0  0  0  0  0
    0.4418    2.4912   -2.7769 H   0  0  0  0  0  0  0  0  0  0  0  0
    2.0081    0.3617   -2.6150 C   0  0  0  0  0  0  0  0  0  0  0  0
    2.2763   -0.6739   -2.8469 H   0  0  0  0  0  0  0  0  0  0  0  0
    2.1178    0.9534   -3.5292 H   0  0  0  0  0  0  0  0  0  0  0  0
    2.7090    0.7458   -1.8670 H   0  0  0  0  0  0  0  0  0  0  0  0
   -0.6591    1.1473    0.8737 C   0  0  0  0  0  0  0  0  0  0  0  0
   -1.7140    1.7333    0.6509 O   0  0  0  0  0  0  0  0  0  0  0  0
    0.1970    1.6706    1.8265 N   0  0  0  0  0  0  0  0  0  0  0  0
    1.0043    1.1129    2.0902 H   0  0  0  0  0  0  0  0  0  0  0  0
   -0.0435    2.9327    2.5158 C   0  0  0  0  0  0  0  0  0  0  0  0
   -0.9617    2.8753    3.1098 H   0  0  0  0  0  0  0  0  0  0  0  0
    0.7893    3.1617    3.1876 H   0  0  0  0  0  0  0  0  0  0  0  0
   -0.1400    3.7512    1.7946 H   0  0  0  0  0  0  0  0  0  0  0  0
  1  2  1  0  0  0  0
  2  3  1  0  0  0  0
  2  4  1  0  0  0  0
  2  5  1  0  0  0  0
  5  6  2  0  0  0  0
  5  7  1  0  0  0  0
  7  8  1  0  0  0  0
  7  9  1  0  0  0  0
  9 10  1  0  0  0  0
  9 11  1  0  0  0  0
  9 24  1  0  0  0  0
 11 12  1  0  0  0  0
 11 13  1  0  0  0  0
 11 14  1  0  0  0  0
 14 15  1  0  0  0  0
 14 16  1  0  0  0  0
 14 20  1  0  0  0  0
 16 17  1  0  0  0  0
 16 18  1  0  0  0  0
 16 19  1  0  0  0  0
 20 21  1  0  0  0  0
 20 22  1  0  0  0  0
 20 23  1  0  0  0  0
 24 25  2  0  0  0  0
 24 26  1  0  0  0  0
 26 27  1  0  0  0  0
 26 28  1  0  0  0  0
 28 29  1  0  0  0  0
 28 30  1  0  0  0  0
 28 31  1  0  0  0  0
M  END
$$$$

  -OEChem-03222214063D

 31 30  0     1  0  0  0  0  0999 V2000
   -3.3512   -3.9091    1.0543 H   0  0  0  0  0  0  0  0  0  0  0  0
   -3.3487   -2.8899    0.6578 C   0  0  0  0  0  0  0  0  0  0  0  0
   -4.0017   -2.2699    1.2768 H   0  0  0  0  0  0  0  0  0  0  0  0
   -3.7359   -2.9077   -0.3638 H   0  0  0  0  0  0  0  0  0  0  0  0
   -1.9395   -2.3285    0.6669 C   0  0  0  0  0  0  0  0  0  0  0  0
   -1.0086   -3.0216    1.0471 O   0  0  0  0  0  0  0  0  0  0  0  0
   -1.7172   -1.0334    0.2473 N   0  0  0  0  0  0  0  0  0  0  0  0
   -2.5361   -0.4613    0.0451 H   0  0  0  0  0  0  0  0  0  0  0  0
   -0.4322   -0.3254    0.3467 C   0  0  1  0  0  0  0  0  0  0  0  0
    0.1388   -0.8175    1.1413 H   0  0  0  0  0  0  0  0  0  0  0  0
    0.3876   -0.5650   -0.9571 C   0  0  0  0  0  0  0  0  0  0  0  0
    1.3959   -0.8001   -0.6002 H   0  0  0  0  0  0  0  0  0  0  0  0
    0.0190   -1.4795   -1.4344 H   0  0  0  0  0  0  0  0  0  0  0  0
    0.5727    0.5022   -2.0788 C   0  0  0  0  0  0  0  0  0  0  0  0
   -0.2672    0.3742   -2.7703 H   0  0  0  0  0  0  0  0  0  0  0  0
    0.5752    1.9876   -1.6950 C   0  0  0  0  0  0  0  0  0  0  0  0
    1.2301    2.1676   -0.8373 H   0  0  0  0  0  0  0  0  0  0  0  0
   -0.4354    2.3337   -1.4689 H   0  0  0  0  0  0  0  0  0  0  0  0
    0.9373    2.5955   -2.5301 H   0  0  0  0  0  0  0  0  0  0  0  0
    1.8612    0.1872   -2.8526 C   0  0  0  0  0  0  0  0  0  0  0  0
    1.8632   -0.8561   -3.1835 H   0  0  0  0  0  0  0  0  0  0  0  0
    1.9429    0.8245   -3.7387 H   0  0  0  0  0  0  0  0  0  0  0  0
    2.7409    0.3553   -2.2229 H   0  0  0  0  0  0  0  0  0  0  0  0
   -0.6453    1.1050    0.8813 C   0  0  0  0  0  0  0  0  0  0  0  0
   -1.6837    1.7063    0.6239 O   0  0  0  0  0  0  0  0  0  0  0  0
    0.1885    1.6095    1.8631 N   0  0  0  0  0  0  0  0  0  0  0  0
    0.9826    1.0411    2.1433 H   0  0  0  0  0  0  0  0  0  0  0  0
   -0.0503    2.8743    2.5471 C   0  0  0  0  0  0  0  0  0  0  0  0
   -1.0000    2.8427    3.0912 H   0  0  0  0  0  0  0  0  0  0  0  0
    0.7523    3.0741    3.2634 H   0  0  0  0  0  0  0  0  0  0  0  0
   -0.0831    3.6982    1.8265 H   0  0  0  0  0  0  0  0  0  0  0  0
  1  2  1  0  0  0  0
  2  3  1  0  0  0  0
  2  4  1  0  0  0  0
  2  5  1  0  0  0  0
  5  6  2  0  0  0  0
  5  7  1  0  0  0  0
  7  8  1  0  0  0  0
  7  9  1  0  0  0  0
  9 10  1  0  0  0  0
  9 11  1  0  0  0  0
  9 24  1  0  0  0  0
 11 12  1  0  0  0  0
 11 13  1  0  0  0  0
 11 14  1  0  0  0  0
 14 15  1  0  0  0  0
 14 16  1  0  0  0  0
 14 20  1  0  0  0  0
 16 17  1  0  0  0  0
 16 18  1  0  0  0  0
 16 19  1  0  0  0  0
 20 21  1  0  0  0  0
 20 22  1  0  0  0  0
 20 23  1  0  0  0  0
 24 25  2  0  0  0  0
 24 26  1  0  0  0  0
 26 27  1  0  0  0  0
 26 28  1  0  0  0  0
 28 29  1  0  0  0  0
 28 30  1  0  0  0  0
 28 31  1  0  0  0  0
M  END
$$$$

  -OEChem-03222214063D

 31 30  0     1  0  0  0  0  0999 V2000
   -3.3148   -3.9239    1.1130 H   0  0  0  0  0  0  0  0  0  0  0  0
   -3.3107   -2.9067    0.7118 C   0  0  0  0  0  0  0  0  0  0  0  0
   -3.9526   -2.2796    1.3353 H   0  0  0  0  0  0  0  0  0  0  0  0
   -3.7100   -2.9271   -0.3050 H   0  0  0  0  0  0  0  0  0  0  0  0
   -1.8979   -2.3541    0.7020 C   0  0  0  0  0  0  0  0  0  0  0  0
   -0.9686   -3.0461    1.0877 O   0  0  0  0  0  0  0  0  0  0  0  0
   -1.6705   -1.0671    0.2613 N   0  0  0  0  0  0  0  0  0  0  0  0
   -2.4865   -0.4938    0.0508 H   0  0  0  0  0  0  0  0  0  0  0  0
   -0.3795   -0.3669    0.3368 C   0  0  1  0  0  0  0  0  0  0  0  0
    0.2201   -0.8553    1.1122 H   0  0  0  0  0  0  0  0  0  0  0  0
    0.3844   -0.5827   -1.0027 C   0  0  0  0  0  0  0  0  0  0  0  0
    1.4079   -0.8387   -0.7091 H   0  0  0  0  0  0  0  0  0  0  0  0
   -0.0217   -1.4745   -1.4928 H   0  0  0  0  0  0  0  0  0  0  0  0
    0.5133    0.5310   -2.0810 C   0  0  0  0  0  0  0  0  0  0  0  0
   -0.4580    0.6131   -2.5812 H   0  0  0  0  0  0  0  0  0  0  0  0
    0.8839    1.9434   -1.5979 C   0  0  0  0  0  0  0  0  0  0  0  0
    1.6310    1.8949   -0.7998 H   0  0  0  0  0  0  0  0  0  0  0  0
    1.3026    2.5324   -2.4200 H   0  0  0  0  0  0  0  0  0  0  0  0
    0.0047    2.4847   -1.2428 H   0  0  0  0  0  0  0  0  0  0  0  0
    1.5417    0.0754   -3.1261 C   0  0  0  0  0  0  0  0  0  0  0  0
    1.2811   -0.9144   -3.5143 H   0  0  0  0  0  0  0  0  0  0  0  0
    1.5678    0.7735   -3.9689 H   0  0  0  0  0  0  0  0  0  0  0  0
    2.5430    0.0247   -2.6864 H   0  0  0  0  0  0  0  0  0  0  0  0
   -0.6026    1.0676    0.8542 C   0  0  0  0  0  0  0  0  0  0  0  0
   -1.6275    1.6729    0.5546 O   0  0  0  0  0  0  0  0  0  0  0  0
    0.2281    1.5964    1.8255 N   0  0  0  0  0  0  0  0  0  0  0  0
    1.0209    1.0354    2.1237 H   0  0  0  0  0  0  0  0  0  0  0  0
   -0.0054    2.8850    2.4656 C   0  0  0  0  0  0  0  0  0  0  0  0
   -0.9559    2.8762    3.0095 H   0  0  0  0  0  0  0  0  0  0  0  0
    0.7974    3.1059    3.1757 H   0  0  0  0  0  0  0  0  0  0  0  0
   -0.0342    3.6841    1.7174 H   0  0  0  0  0  0  0  0  0  0  0  0
  1  2  1  0  0  0  0
  2  3  1  0  0  0  0
  2  4  1  0  0  0  0
  2  5  1  0  0  0  0
  5  6  2  0  0  0  0
  5  7  1  0  0  0  0
  7  8  1  0  0  0  0
  7  9  1  0  0  0  0
  9 10  1  0  0  0  0
  9 11  1  0  0  0  0
  9 24  1  0  0  0  0
 11 12  1  0  0  0  0
 11 13  1  0  0  0  0
 11 14  1  0  0  0  0
 14 15  1  0  0  0  0
 14 16  1  0  0  0  0
 14 20  1  0  0  0  0
 16 17  1  0  0  0  0
 16 18  1  0  0  0  0
 16 19  1  0  0  0  0
 20 21  1  0  0  0  0
 20 22  1  0  0  0  0
 20 23  1  0  0  0  0
 24 25  2  0  0  0  0
 24 26  1  0  0  0  0
 26 27  1  0  0  0  0
 26 28  1  0  0  0  0
 28 29  1  0  0  0  0
 28 30  1  0  0  0  0
 28 31  1  0  0  0  0
M  END
$$$$

  -OEChem-03222214063D

 31 30  0     1  0  0  0  0  0999 V2000
   -3.3472   -3.9031    1.1670 H   0  0  0  0  0  0  0  0  0  0  0  0
   -3.3209   -2.9082    0.7136 C   0  0  0  0  0  0  0  0  0  0  0  0
   -3.9786   -2.2453    1.2812 H   0  0  0  0  0  0  0  0  0  0  0  0
   -3.6846   -2.9788   -0.3143 H   0  0  0  0  0  0  0  0  0  0  0  0
   -1.9043   -2.3654    0.7241 C   0  0  0  0  0  0  0  0  0  0  0  0
   -0.9894   -3.0527    1.1506 O   0  0  0  0  0  0  0  0  0  0  0  0
   -1.6577   -1.0922    0.2548 N   0  0  0  0  0  0  0  0  0  0  0  0
   -2.4635   -0.5218    0.0015 H   0  0  0  0  0  0  0  0  0  0  0  0
   -0.3603   -0.4035    0.3292 C   0  0  1  0  0  0  0  0  0  0  0  0
    0.2411   -0.8844    1.1077 H   0  0  0  0  0  0  0  0  0  0  0  0
    0.3895   -0.6181   -1.0160 C   0  0  0  0  0  0  0  0  0  0  0  0
    1.4156   -0.8992   -0.7574 H   0  0  0  0  0  0  0  0  0  0  0  0
   -0.0478   -1.4884   -1.5174 H   0  0  0  0  0  0  0  0  0  0  0  0
    0.4901    0.5343   -2.0506 C   0  0  0  0  0  0  0  0  0  0  0  0
   -0.5251    0.8134   -2.3535 H   0  0  0  0  0  0  0  0  0  0  0  0
    1.2017    1.8070   -1.5532 C   0  0  0  0  0  0  0  0  0  0  0  0
    2.0346    1.5498   -0.8919 H   0  0  0  0  0  0  0  0  0  0  0  0
    1.5992    2.3792   -2.3972 H   0  0  0  0  0  0  0  0  0  0  0  0
    0.5152    2.4698   -1.0232 H   0  0  0  0  0  0  0  0  0  0  0  0
    1.2257    0.0060   -3.2905 C   0  0  0  0  0  0  0  0  0  0  0  0
    0.7173   -0.8763   -3.6919 H   0  0  0  0  0  0  0  0  0  0  0  0
    1.2495    0.7677   -4.0762 H   0  0  0  0  0  0  0  0  0  0  0  0
    2.2554   -0.2690   -3.0406 H   0  0  0  0  0  0  0  0  0  0  0  0
   -0.5797    1.0442    0.8084 C   0  0  0  0  0  0  0  0  0  0  0  0
   -1.5644    1.6720    0.4312 O   0  0  0  0  0  0  0  0  0  0  0  0
    0.2403    1.5919    1.7785 N   0  0  0  0  0  0  0  0  0  0  0  0
    1.0078    1.0222    2.1229 H   0  0  0  0  0  0  0  0  0  0  0  0
    0.0332    2.9172    2.3487 C   0  0  0  0  0  0  0  0  0  0  0  0
   -0.9498    2.9797    2.8272 H   0  0  0  0  0  0  0  0  0  0  0  0
    0.7982    3.1283    3.1022 H   0  0  0  0  0  0  0  0  0  0  0  0
    0.0952    3.6835    1.5689 H   0  0  0  0  0  0  0  0  0  0  0  0
  1  2  1  0  0  0  0
  2  3  1  0  0  0  0
  2  4  1  0  0  0  0
  2  5  1  0  0  0  0
  5  6  2  0  0  0  0
  5  7  1  0  0  0  0
  7  8  1  0  0  0  0
  7  9  1  0  0  0  0
  9 10  1  0  0  0  0
  9 11  1  0  0  0  0
  9 24  1  0  0  0  0
 11 12  1  0  0  0  0
 11 13  1  0  0  0  0
 11 14  1  0  0  0  0
 14 15  1  0  0  0  0
 14 16  1  0  0  0  0
 14 20  1  0  0  0  0
 16 17  1  0  0  0  0
 16 18  1  0  0  0  0
 16 19  1  0  0  0  0
 20 21  1  0  0  0  0
 20 22  1  0  0  0  0
 20 23  1  0  0  0  0
 24 25  2  0  0  0  0
 24 26  1  0  0  0  0
 26 27  1  0  0  0  0
 26 28  1  0  0  0  0
 28 29  1  0  0  0  0
 28 30  1  0  0  0  0
 28 31  1  0  0  0  0
M  END
$$$$

  -OEChem-03222214063D

 31 30  0     1  0  0  0  0  0999 V2000
   -3.3680   -3.8941    1.1808 H   0  0  0  0  0  0  0  0  0  0  0  0
   -3.3329   -2.9042    0.7174 C   0  0  0  0  0  0  0  0  0  0  0  0
   -3.9972   -2.2340    1.2684 H   0  0  0  0  0  0  0  0  0  0  0  0
   -3.6827   -2.9854   -0.3145 H   0  0  0  0  0  0  0  0  0  0  0  0
   -1.9153   -2.3646    0.7422 C   0  0  0  0  0  0  0  0  0  0  0  0
   -1.0108   -3.0443    1.2013 O   0  0  0  0  0  0  0  0  0  0  0  0
   -1.6561   -1.1032    0.2487 N   0  0  0  0  0  0  0  0  0  0  0  0
   -2.4541   -0.5377   -0.0369 H   0  0  0  0  0  0  0  0  0  0  0  0
   -0.3562   -0.4201    0.3237 C   0  0  1  0  0  0  0  0  0  0  0  0
    0.2406   -0.8910    1.1118 H   0  0  0  0  0  0  0  0  0  0  0  0
    0.3952   -0.6509   -1.0170 C   0  0  0  0  0  0  0  0  0  0  0  0
    1.4203   -0.9476   -0.7733 H   0  0  0  0  0  0  0  0  0  0  0  0
   -0.0590   -1.5126   -1.5181 H   0  0  0  0  0  0  0  0  0  0  0  0
    0.4765    0.5211   -2.0276 C   0  0  0  0  0  0  0  0  0  0  0  0
   -0.5166    0.9717   -2.1316 H   0  0  0  0  0  0  0  0  0  0  0  0
    1.4813    1.6166   -1.6262 C   0  0  0  0  0  0  0  0  0  0  0  0
    2.4535    1.1756   -1.3856 H   0  0  0  0  0  0  0  0  0  0  0  0
    1.6189    2.3220   -2.4517 H   0  0  0  0  0  0  0  0  0  0  0  0
    1.1387    2.1927   -0.7666 H   0  0  0  0  0  0  0  0  0  0  0  0
    0.8905   -0.0318   -3.3980 C   0  0  0  0  0  0  0  0  0  0  0  0
    0.1702   -0.7799   -3.7433 H   0  0  0  0  0  0  0  0  0  0  0  0
    0.9255    0.7715   -4.1407 H   0  0  0  0  0  0  0  0  0  0  0  0
    1.8792   -0.4987   -3.3435 H   0  0  0  0  0  0  0  0  0  0  0  0
   -0.5679    1.0408    0.7692 C   0  0  0  0  0  0  0  0  0  0  0  0
   -1.5265    1.6802    0.3482 O   0  0  0  0  0  0  0  0  0  0  0  0
    0.2465    1.6014    1.7368 N   0  0  0  0  0  0  0  0  0  0  0  0
    0.9925    1.0252    2.1162 H   0  0  0  0  0  0  0  0  0  0  0  0
    0.0528    2.9459    2.2657 C   0  0  0  0  0  0  0  0  0  0  0  0
   -0.9321    3.0345    2.7363 H   0  0  0  0  0  0  0  0  0  0  0  0
    0.8165    3.1700    3.0166 H   0  0  0  0  0  0  0  0  0  0  0  0
    0.1285    3.6876    1.4635 H   0  0  0  0  0  0  0  0  0  0  0  0
  1  2  1  0  0  0  0
  2  3  1  0  0  0  0
  2  4  1  0  0  0  0
  2  5  1  0  0  0  0
  5  6  2  0  0  0  0
  5  7  1  0  0  0  0
  7  8  1  0  0  0  0
  7  9  1  0  0  0  0
  9 10  1  0  0  0  0
  9 11  1  0  0  0  0
  9 24  1  0  0  0  0
 11 12  1  0  0  0  0
 11 13  1  0  0  0  0
 11 14  1  0  0  0  0
 14 15  1  0  0  0  0
 14 16  1  0  0  0  0
 14 20  1  0  0  0  0
 16 17  1  0  0  0  0
 16 18  1  0  0  0  0
 16 19  1  0  0  0  0
 20 21  1  0  0  0  0
 20 22  1  0  0  0  0
 20 23  1  0  0  0  0
 24 25  2  0  0  0  0
 24 26  1  0  0  0  0
 26 27  1  0  0  0  0
 26 28  1  0  0  0  0
 28 29  1  0  0  0  0
 28 30  1  0  0  0  0
 28 31  1  0  0  0  0
M  END
$$$$

  -OEChem-03222214063D

 31 30  0     1  0  0  0  0  0999 V2000
   -3.3708   -3.8969    1.2130 H   0  0  0  0  0  0  0  0  0  0  0  0
   -3.3432   -2.9096    0.7435 C   0  0  0  0  0  0  0  0  0  0  0  0
   -4.0013   -2.2368    1.2989 H   0  0  0  0  0  0  0  0  0  0  0  0
   -3.7053   -2.9970   -0.2837 H   0  0  0  0  0  0  0  0  0  0  0  0
   -1.9264   -2.3676    0.7473 C   0  0  0  0  0  0  0  0  0  0  0  0
   -1.0159   -3.0405    1.2046 O   0  0  0  0  0  0  0  0  0  0  0  0
   -1.6761   -1.1113    0.2363 N   0  0  0  0  0  0  0  0  0  0  0  0
   -2.4796   -0.5519   -0.0459 H   0  0  0  0  0  0  0  0  0  0  0  0
   -0.3800   -0.4201    0.2974 C   0  0  1  0  0  0  0  0  0  0  0  0
    0.2097   -0.8805    1.0968 H   0  0  0  0  0  0  0  0  0  0  0  0
    0.3977   -0.6671   -1.0226 C   0  0  0  0  0  0  0  0  0  0  0  0
    1.4231   -0.9537   -0.7671 H   0  0  0  0  0  0  0  0  0  0  0  0
   -0.0443   -1.5377   -1.5196 H   0  0  0  0  0  0  0  0  0  0  0  0
    0.4551    0.5136   -2.0231 C   0  0  0  0  0  0  0  0  0  0  0  0
   -0.4613    1.1085   -1.9629 H   0  0  0  0  0  0  0  0  0  0  0  0
    1.6756    1.4099   -1.7639 C   0  0  0  0  0  0  0  0  0  0  0  0
    2.6045    0.8413   -1.8737 H   0  0  0  0  0  0  0  0  0  0  0  0
    1.6923    2.2404   -2.4766 H   0  0  0  0  0  0  0  0  0  0  0  0
    1.6462    1.8307   -0.7559 H   0  0  0  0  0  0  0  0  0  0  0  0
    0.5547   -0.0316   -3.4536 C   0  0  0  0  0  0  0  0  0  0  0  0
   -0.3272   -0.6334   -3.6950 H   0  0  0  0  0  0  0  0  0  0  0  0
    0.6115    0.7913   -4.1731 H   0  0  0  0  0  0  0  0  0  0  0  0
    1.4454   -0.6573   -3.5689 H   0  0  0  0  0  0  0  0  0  0  0  0
   -0.5631    1.0529    0.7229 C   0  0  0  0  0  0  0  0  0  0  0  0
   -1.5364    1.6901    0.3340 O   0  0  0  0  0  0  0  0  0  0  0  0
    0.2713    1.6138    1.6728 N   0  0  0  0  0  0  0  0  0  0  0  0
    1.0234    1.0369    2.0385 H   0  0  0  0  0  0  0  0  0  0  0  0
    0.0874    2.9573    2.2074 C   0  0  0  0  0  0  0  0  0  0  0  0
   -0.8864    3.0435    2.7007 H   0  0  0  0  0  0  0  0  0  0  0  0
    0.8672    3.1826    2.9409 H   0  0  0  0  0  0  0  0  0  0  0  0
    0.1432    3.6996    1.4044 H   0  0  0  0  0  0  0  0  0  0  0  0
  1  2  1  0  0  0  0
  2  3  1  0  0  0  0
  2  4  1  0  0  0  0
  2  5  1  0  0  0  0
  5  6  2  0  0  0  0
  5  7  1  0  0  0  0
  7  8  1  0  0  0  0
  7  9  1  0  0  0  0
  9 10  1  0  0  0  0
  9 11  1  0  0  0  0
  9 24  1  0  0  0  0
 11 12  1  0  0  0  0
 11 13  1  0  0  0  0
 11 14  1  0  0  0  0
 14 15  1  0  0  0  0
 14 16  1  0  0  0  0
 14 20  1  0  0  0  0
 16 17  1  0  0  0  0
 16 18  1  0  0  0  0
 16 19  1  0  0  0  0
 20 21  1  0  0  0  0
 20 22  1  0  0  0  0
 20 23  1  0  0  0  0
 24 25  2  0  0  0  0
 24 26  1  0  0  0  0
 26 27  1  0  0  0  0
 26 28  1  0  0  0  0
 28 29  1  0  0  0  0
 28 30  1  0  0  0  0
 28 31  1  0  0  0  0
M  END
$$$$

  -OEChem-03222214063D

 31 30  0     1  0  0  0  0  0999 V2000
   -3.3603   -3.9046    1.2251 H   0  0  0  0  0  0  0  0  0  0  0  0
   -3.3446   -2.9175    0.7548 C   0  0  0  0  0  0  0  0  0  0  0  0
   -4.0004   -2.2491    1.3178 H   0  0  0  0  0  0  0  0  0  0  0  0
   -3.7185   -3.0078   -0.2679 H   0  0  0  0  0  0  0  0  0  0  0  0
   -1.9314   -2.3666    0.7417 C   0  0  0  0  0  0  0  0  0  0  0  0
   -1.0107   -3.0368    1.1825 O   0  0  0  0  0  0  0  0  0  0  0  0
   -1.6961   -1.1055    0.2350 N   0  0  0  0  0  0  0  0  0  0  0  0
   -2.5073   -0.5507   -0.0331 H   0  0  0  0  0  0  0  0  0  0  0  0
   -0.4051   -0.4044    0.2851 C   0  0  1  0  0  0  0  0  0  0  0  0
    0.1822   -0.8645    1.0867 H   0  0  0  0  0  0  0  0  0  0  0  0
    0.3890   -0.6546   -1.0230 C   0  0  0  0  0  0  0  0  0  0  0  0
    1.4135   -0.9251   -0.7471 H   0  0  0  0  0  0  0  0  0  0  0  0
   -0.0308   -1.5410   -1.5111 H   0  0  0  0  0  0  0  0  0  0  0  0
    0.4418    0.5190   -2.0378 C   0  0  0  0  0  0  0  0  0  0  0  0
   -0.3362    1.2592   -1.8362 H   0  0  0  0  0  0  0  0  0  0  0  0
    1.8170    1.1980   -2.0080 C   0  0  0  0  0  0  0  0  0  0  0  0
    2.6084    0.4900   -2.2743 H   0  0  0  0  0  0  0  0  0  0  0  0
    1.8447    2.0315   -2.7167 H   0  0  0  0  0  0  0  0  0  0  0  0
    2.0236    1.5921   -1.0083 H   0  0  0  0  0  0  0  0  0  0  0  0
    0.1963   -0.0125   -3.4558 C   0  0  0  0  0  0  0  0  0  0  0  0
   -0.7955   -0.4706   -3.5232 H   0  0  0  0  0  0  0  0  0  0  0  0
    0.2447    0.8040   -4.1830 H   0  0  0  0  0  0  0  0  0  0  0  0
    0.9463   -0.7632   -3.7249 H   0  0  0  0  0  0  0  0  0  0  0  0
   -0.5696    1.0684    0.7189 C   0  0  0  0  0  0  0  0  0  0  0  0
   -1.5558    1.7064    0.3655 O   0  0  0  0  0  0  0  0  0  0  0  0
    0.2855    1.6176    1.6568 N   0  0  0  0  0  0  0  0  0  0  0  0
    1.0441    1.0354    2.0002 H   0  0  0  0  0  0  0  0  0  0  0  0
    0.1118    2.9526    2.2155 C   0  0  0  0  0  0  0  0  0  0  0  0
   -0.8518    3.0299    2.7300 H   0  0  0  0  0  0  0  0  0  0  0  0
    0.9068    3.1675    2.9360 H   0  0  0  0  0  0  0  0  0  0  0  0
    0.1503    3.7071    1.4229 H   0  0  0  0  0  0  0  0  0  0  0  0
  1  2  1  0  0  0  0
  2  3  1  0  0  0  0
  2  4  1  0  0  0  0
  2  5  1  0  0  0  0
  5  6  2  0  0  0  0
  5  7  1  0  0  0  0
  7  8  1  0  0  0  0
  7  9  1  0  0  0  0
  9 10  1  0  0  0  0
  9 11  1  0  0  0  0
  9 24  1  0  0  0  0
 11 12  1  0  0  0  0
 11 13  1  0  0  0  0
 11 14  1  0  0  0  0
 14 15  1  0  0  0  0
 14 16  1  0  0  0  0
 14 20  1  0  0  0  0
 16 17  1  0  0  0  0
 16 18  1  0  0  0  0
 16 19  1  0  0  0  0
 20 21  1  0  0  0  0
 20 22  1  0  0  0  0
 20 23  1  0  0  0  0
 24 25  2  0  0  0  0
 24 26  1  0  0  0  0
 26 27  1  0  0  0  0
 26 28  1  0  0  0  0
 28 29  1  0  0  0  0
 28 30  1  0  0  0  0
 28 31  1  0  0  0  0
M  END
$$$$

  -OEChem-03222214063D

 31 30  0     1  0  0  0  0  0999 V2000
   -3.3464   -3.9098    1.2065 H   0  0  0  0  0  0  0  0  0  0  0  0
   -3.3334   -2.9210    0.7397 C   0  0  0  0  0  0  0  0  0  0  0  0
   -3.9990   -2.2588    1.2988 H   0  0  0  0  0  0  0  0  0  0  0  0
   -3.6973   -3.0107   -0.2866 H   0  0  0  0  0  0  0  0  0  0  0  0
   -1.9238   -2.3604    0.7410 C   0  0  0  0  0  0  0  0  0  0  0  0
   -1.0018   -3.0282    1.1830 O   0  0  0  0  0  0  0  0  0  0  0  0
   -1.6913   -1.0956    0.2421 N   0  0  0  0  0  0  0  0  0  0  0  0
   -2.5028   -0.5429   -0.0298 H   0  0  0  0  0  0  0  0  0  0  0  0
   -0.4016   -0.3924    0.2945 C   0  0  1  0  0  0  0  0  0  0  0  0
    0.1884   -0.8549    1.0928 H   0  0  0  0  0  0  0  0  0  0  0  0
    0.3850   -0.6442   -1.0193 C   0  0  0  0  0  0  0  0  0  0  0  0
    1.4097   -0.8951   -0.7263 H   0  0  0  0  0  0  0  0  0  0  0  0
   -0.0102   -1.5456   -1.5005 H   0  0  0  0  0  0  0  0  0  0  0  0
    0.4471    0.5172   -2.0519 C   0  0  0  0  0  0  0  0  0  0  0  0
   -0.0992    1.3968   -1.7072 H   0  0  0  0  0  0  0  0  0  0  0  0
    1.9000    0.9354   -2.3079 C   0  0  0  0  0  0  0  0  0  0  0  0
    2.4824    0.0955   -2.7003 H   0  0  0  0  0  0  0  0  0  0  0  0
    1.9382    1.7534   -3.0340 H   0  0  0  0  0  0  0  0  0  0  0  0
    2.3651    1.2804   -1.3792 H   0  0  0  0  0  0  0  0  0  0  0  0
   -0.1948    0.0789   -3.3735 C   0  0  0  0  0  0  0  0  0  0  0  0
   -1.2419   -0.1965   -3.2124 H   0  0  0  0  0  0  0  0  0  0  0  0
   -0.1635    0.8957   -4.1013 H   0  0  0  0  0  0  0  0  0  0  0  0
    0.3326   -0.7826   -3.7957 H   0  0  0  0  0  0  0  0  0  0  0  0
   -0.5731    1.0763    0.7382 C   0  0  0  0  0  0  0  0  0  0  0  0
   -1.5579    1.7141    0.3803 O   0  0  0  0  0  0  0  0  0  0  0  0
    0.2790    1.6250    1.6790 N   0  0  0  0  0  0  0  0  0  0  0  0
    1.0370    1.0428    2.0234 H   0  0  0  0  0  0  0  0  0  0  0  0
    0.1048    2.9600    2.2378 C   0  0  0  0  0  0  0  0  0  0  0  0
   -0.8623    3.0403    2.7451 H   0  0  0  0  0  0  0  0  0  0  0  0
    0.8945    3.1717    2.9650 H   0  0  0  0  0  0  0  0  0  0  0  0
    0.1523    3.7153    1.4463 H   0  0  0  0  0  0  0  0  0  0  0  0
  1  2  1  0  0  0  0
  2  3  1  0  0  0  0
  2  4  1  0  0  0  0
  2  5  1  0  0  0  0
  5  6  2  0  0  0  0
  5  7  1  0  0  0  0
  7  8  1  0  0  0  0
  7  9  1  0  0  0  0
  9 10  1  0  0  0  0
  9 11  1  0  0  0  0
  9 24  1  0  0  0  0
 11 12  1  0  0  0  0
 11 13  1  0  0  0  0
 11 14  1  0  0  0  0
 14 15  1  0  0  0  0
 14 16  1  0  0  0  0
 14 20  1  0  0  0  0
 16 17  1  0  0  0  0
 16 18  1  0  0  0  0
 16 19  1  0  0  0  0
 20 21  1  0  0  0  0
 20 22  1  0  0  0  0
 20 23  1  0  0  0  0
 24 25  2  0  0  0  0
 24 26  1  0  0  0  0
 26 27  1  0  0  0  0
 26 28  1  0  0  0  0
 28 29  1  0  0  0  0
 28 30  1  0  0  0  0
 28 31  1  0  0  0  0
M  END
$$$$

  -OEChem-03222214063D

 31 30  0     1  0  0  0  0  0999 V2000
   -3.3438   -3.9032    1.2026 H   0  0  0  0  0  0  0  0  0  0  0  0
   -3.3239   -2.9145    0.7358 C   0  0  0  0  0  0  0  0  0  0  0  0
   -3.9900   -2.2496    1.2909 H   0  0  0  0  0  0  0  0  0  0  0  0
   -3.6822   -3.0026   -0.2926 H   0  0  0  0  0  0  0  0  0  0  0  0
   -1.9120   -2.3597    0.7450 C   0  0  0  0  0  0  0  0  0  0  0  0
   -0.9960   -3.0280    1.1980 O   0  0  0  0  0  0  0  0  0  0  0  0
   -1.6714   -1.0979    0.2429 N   0  0  0  0  0  0  0  0  0  0  0  0
   -2.4787   -0.5439   -0.0389 H   0  0  0  0  0  0  0  0  0  0  0  0
   -0.3796   -0.3991    0.2998 C   0  0  1  0  0  0  0  0  0  0  0  0
    0.2136   -0.8604    1.0962 H   0  0  0  0  0  0  0  0  0  0  0  0
    0.3910   -0.6501   -1.0242 C   0  0  0  0  0  0  0  0  0  0  0  0
    1.4178   -0.8883   -0.7284 H   0  0  0  0  0  0  0  0  0  0  0  0
    0.0069   -1.5543   -1.5087 H   0  0  0  0  0  0  0  0  0  0  0  0
    0.4557    0.5105   -2.0553 C   0  0  0  0  0  0  0  0  0  0  0  0
    0.2035    1.4686   -1.5977 H   0  0  0  0  0  0  0  0  0  0  0  0
    1.8778    0.6631   -2.6070 C   0  0  0  0  0  0  0  0  0  0  0  0
    2.2072   -0.2645   -3.0862 H   0  0  0  0  0  0  0  0  0  0  0  0
    1.9144    1.4686   -3.3472 H   0  0  0  0  0  0  0  0  0  0  0  0
    2.5763    0.9083   -1.8010 H   0  0  0  0  0  0  0  0  0  0  0  0
   -0.5400    0.2630   -3.1932 C   0  0  0  0  0  0  0  0  0  0  0  0
   -1.5550    0.1703   -2.7938 H   0  0  0  0  0  0  0  0  0  0  0  0
   -0.5248    1.0981   -3.9005 H   0  0  0  0  0  0  0  0  0  0  0  0
   -0.2918   -0.6553   -3.7348 H   0  0  0  0  0  0  0  0  0  0  0  0
   -0.5662    1.0688    0.7380 C   0  0  0  0  0  0  0  0  0  0  0  0
   -1.5405    1.7053    0.3504 O   0  0  0  0  0  0  0  0  0  0  0  0
    0.2726    1.6271    1.6851 N   0  0  0  0  0  0  0  0  0  0  0  0
    1.0239    1.0475    2.0484 H   0  0  0  0  0  0  0  0  0  0  0  0
    0.0805    2.9621    2.2381 C   0  0  0  0  0  0  0  0  0  0  0  0
   -0.8958    3.0378    2.7285 H   0  0  0  0  0  0  0  0  0  0  0  0
    0.8565    3.1797    2.9783 H   0  0  0  0  0  0  0  0  0  0  0  0
    0.1367    3.7161    1.4460 H   0  0  0  0  0  0  0  0  0  0  0  0
  1  2  1  0  0  0  0
  2  3  1  0  0  0  0
  2  4  1  0  0  0  0
  2  5  1  0  0  0  0
  5  6  2  0  0  0  0
  5  7  1  0  0  0  0
  7  8  1  0  0  0  0
  7  9  1  0  0  0  0
  9 10  1  0  0  0  0
  9 11  1  0  0  0  0
  9 24  1  0  0  0  0
 11 12  1  0  0  0  0
 11 13  1  0  0  0  0
 11 14  1  0  0  0  0
 14 15  1  0  0  0  0
 14 16  1  0  0  0  0
 14 20  1  0  0  0  0
 16 17  1  0  0  0  0
 16 18  1  0  0  0  0
 16 19  1  0  0  0  0
 20 21  1  0  0  0  0
 20 22  1  0  0  0  0
 20 23  1  0  0  0  0
 24 25  2  0  0  0  0
 24 26  1  0  0  0  0
 26 27  1  0  0  0  0
 26 28  1  0  0  0  0
 28 29  1  0  0  0  0
 28 30  1  0  0  0  0
 28 31  1  0  0  0  0
M  END
$$$$

  -OEChem-03222214063D

 31 30  0     1  0  0  0  0  0999 V2000
   -3.3440   -3.9123    1.2079 H   0  0  0  0  0  0  0  0  0  0  0  0
   -3.3223   -2.9257    0.7366 C   0  0  0  0  0  0  0  0  0  0  0  0
   -3.9940   -2.2594    1.2832 H   0  0  0  0  0  0  0  0  0  0  0  0
   -3.6725   -3.0195   -0.2941 H   0  0  0  0  0  0  0  0  0  0  0  0
   -1.9111   -2.3689    0.7547 C   0  0  0  0  0  0  0  0  0  0  0  0
   -0.9990   -3.0337    1.2207 O   0  0  0  0  0  0  0  0  0  0  0  0
   -1.6660   -1.1109    0.2446 N   0  0  0  0  0  0  0  0  0  0  0  0
   -2.4700   -0.5597   -0.0514 H   0  0  0  0  0  0  0  0  0  0  0  0
   -0.3725   -0.4150    0.3017 C   0  0  1  0  0  0  0  0  0  0  0  0
    0.2240   -0.8750    1.0963 H   0  0  0  0  0  0  0  0  0  0  0  0
    0.3912   -0.6589   -1.0274 C   0  0  0  0  0  0  0  0  0  0  0  0
    1.4212   -0.8950   -0.7411 H   0  0  0  0  0  0  0  0  0  0  0  0
    0.0026   -1.5547   -1.5243 H   0  0  0  0  0  0  0  0  0  0  0  0
    0.4473    0.5132   -2.0392 C   0  0  0  0  0  0  0  0  0  0  0  0
    0.4791    1.4746   -1.5205 H   0  0  0  0  0  0  0  0  0  0  0  0
    1.7369    0.4405   -2.8644 C   0  0  0  0  0  0  0  0  0  0  0  0
    1.7942   -0.5093   -3.4056 H   0  0  0  0  0  0  0  0  0  0  0  0
    1.7691    1.2578   -3.5915 H   0  0  0  0  0  0  0  0  0  0  0  0
    2.6142    0.5265   -2.2158 H   0  0  0  0  0  0  0  0  0  0  0  0
   -0.7853    0.4947   -2.9489 C   0  0  0  0  0  0  0  0  0  0  0  0
   -1.7000    0.5693   -2.3526 H   0  0  0  0  0  0  0  0  0  0  0  0
   -0.7584    1.3413   -3.6418 H   0  0  0  0  0  0  0  0  0  0  0  0
   -0.8236   -0.4309   -3.5318 H   0  0  0  0  0  0  0  0  0  0  0  0
   -0.5618    1.0560    0.7297 C   0  0  0  0  0  0  0  0  0  0  0  0
   -1.5271    1.6950    0.3243 O   0  0  0  0  0  0  0  0  0  0  0  0
    0.2720    1.6209    1.6771 N   0  0  0  0  0  0  0  0  0  0  0  0
    1.0167    1.0415    2.0538 H   0  0  0  0  0  0  0  0  0  0  0  0
    0.0862    2.9654    2.2088 C   0  0  0  0  0  0  0  0  0  0  0  0
   -0.8923    3.0551    2.6922 H   0  0  0  0  0  0  0  0  0  0  0  0
    0.8593    3.1890    2.9502 H   0  0  0  0  0  0  0  0  0  0  0  0
    0.1525    3.7070    1.4057 H   0  0  0  0  0  0  0  0  0  0  0  0
  1  2  1  0  0  0  0
  2  3  1  0  0  0  0
  2  4  1  0  0  0  0
  2  5  1  0  0  0  0
  5  6  2  0  0  0  0
  5  7  1  0  0  0  0
  7  8  1  0  0  0  0
  7  9  1  0  0  0  0
  9 10  1  0  0  0  0
  9 11  1  0  0  0  0
  9 24  1  0  0  0  0
 11 12  1  0  0  0  0
 11 13  1  0  0  0  0
 11 14  1  0  0  0  0
 14 15  1  0  0  0  0
 14 16  1  0  0  0  0
 14 20  1  0  0  0  0
 16 17  1  0  0  0  0
 16 18  1  0  0  0  0
 16 19  1  0  0  0  0
 20 21  1  0  0  0  0
 20 22  1  0  0  0  0
 20 23  1  0  0  0  0
 24 25  2  0  0  0  0
 24 26  1  0  0  0  0
 26 27  1  0  0  0  0
 26 28  1  0  0  0  0
 28 29  1  0  0  0  0
 28 30  1  0  0  0  0
 28 31  1  0  0  0  0
M  END
$$$$

  -OEChem-03222214063D

 31 30  0     1  0  0  0  0  0999 V2000
   -3.3322   -3.9210    1.2210 H   0  0  0  0  0  0  0  0  0  0  0  0
   -3.3243   -2.9327    0.7529 C   0  0  0  0  0  0  0  0  0  0  0  0
   -3.9923   -2.2731    1.3121 H   0  0  0  0  0  0  0  0  0  0  0  0
   -3.6894   -3.0255   -0.2727 H   0  0  0  0  0  0  0  0  0  0  0  0
   -1.9170   -2.3661    0.7511 C   0  0  0  0  0  0  0  0  0  0  0  0
   -0.9914   -3.0303    1.1907 O   0  0  0  0  0  0  0  0  0  0  0  0
   -1.6911   -1.1011    0.2494 N   0  0  0  0  0  0  0  0  0  0  0  0
   -2.5056   -0.5531   -0.0225 H   0  0  0  0  0  0  0  0  0  0  0  0
   -0.4032   -0.3937    0.2934 C   0  0  1  0  0  0  0  0  0  0  0  0
    0.1924   -0.8564    1.0870 H   0  0  0  0  0  0  0  0  0  0  0  0
    0.3776   -0.6355   -1.0245 C   0  0  0  0  0  0  0  0  0  0  0  0
    1.4105   -0.8582   -0.7378 H   0  0  0  0  0  0  0  0  0  0  0  0
   -0.0060   -1.5334   -1.5211 H   0  0  0  0  0  0  0  0  0  0  0  0
    0.4199    0.5323   -2.0360 C   0  0  0  0  0  0  0  0  0  0  0  0
    0.6638    1.4700   -1.5269 H   0  0  0  0  0  0  0  0  0  0  0  0
    1.5142    0.2697   -3.0775 C   0  0  0  0  0  0  0  0  0  0  0  0
    1.3245   -0.6674   -3.6106 H   0  0  0  0  0  0  0  0  0  0  0  0
    1.5482    1.0843   -3.8077 H   0  0  0  0  0  0  0  0  0  0  0  0
    2.4943    0.2031   -2.5950 H   0  0  0  0  0  0  0  0  0  0  0  0
   -0.9274    0.6803   -2.7574 C   0  0  0  0  0  0  0  0  0  0  0  0
   -1.7374    0.8614   -2.0467 H   0  0  0  0  0  0  0  0  0  0  0  0
   -0.8926    1.5235   -3.4542 H   0  0  0  0  0  0  0  0  0  0  0  0
   -1.1641   -0.2273   -3.3217 H   0  0  0  0  0  0  0  0  0  0  0  0
   -0.5666    1.0771    0.7357 C   0  0  0  0  0  0  0  0  0  0  0  0
   -1.5501    1.7229    0.3916 O   0  0  0  0  0  0  0  0  0  0  0  0
    0.2970    1.6207    1.6694 N   0  0  0  0  0  0  0  0  0  0  0  0
    1.0522    1.0324    2.0097 H   0  0  0  0  0  0  0  0  0  0  0  0
    0.1274    2.9513    2.2406 C   0  0  0  0  0  0  0  0  0  0  0  0
   -0.8354    3.0274    2.7568 H   0  0  0  0  0  0  0  0  0  0  0  0
    0.9235    3.1565    2.9628 H   0  0  0  0  0  0  0  0  0  0  0  0
    0.1682    3.7135    1.4552 H   0  0  0  0  0  0  0  0  0  0  0  0
  1  2  1  0  0  0  0
  2  3  1  0  0  0  0
  2  4  1  0  0  0  0
  2  5  1  0  0  0  0
  5  6  2  0  0  0  0
  5  7  1  0  0  0  0
  7  8  1  0  0  0  0
  7  9  1  0  0  0  0
  9 10  1  0  0  0  0
  9 11  1  0  0  0  0
  9 24  1  0  0  0  0
 11 12  1  0  0  0  0
 11 13  1  0  0  0  0
 11 14  1  0  0  0  0
 14 15  1  0  0  0  0
 14 16  1  0  0  0  0
 14 20  1  0  0  0  0
 16 17  1  0  0  0  0
 16 18  1  0  0  0  0
 16 19  1  0  0  0  0
 20 21  1  0  0  0  0
 20 22  1  0  0  0  0
 20 23  1  0  0  0  0
 24 25  2  0  0  0  0
 24 26  1  0  0  0  0
 26 27  1  0  0  0  0
 26 28  1  0  0  0  0
 28 29  1  0  0  0  0
 28 30  1  0  0  0  0
 28 31  1  0  0  0  0
M  END
$$$$

  -OEChem-03222214063D

 31 30  0     1  0  0  0  0  0999 V2000
   -3.2779   -3.9127    1.2574 H   0  0  0  0  0  0  0  0  0  0  0  0
   -3.3033   -2.9099    0.8220 C   0  0  0  0  0  0  0  0  0  0  0  0
   -3.9313   -2.2704    1.4470 H   0  0  0  0  0  0  0  0  0  0  0  0
   -3.7382   -2.9707   -0.1785 H   0  0  0  0  0  0  0  0  0  0  0  0
   -1.8999   -2.3395    0.7419 C   0  0  0  0  0  0  0  0  0  0  0  0
   -0.9464   -3.0140    1.0988 O   0  0  0  0  0  0  0  0  0  0  0  0
   -1.7085   -1.0594    0.2648 N   0  0  0  0  0  0  0  0  0  0  0  0
   -2.5412   -0.4997    0.0864 H   0  0  0  0  0  0  0  0  0  0  0  0
   -0.4273   -0.3383    0.2878 C   0  0  1  0  0  0  0  0  0  0  0  0
    0.1731   -0.7984    1.0797 H   0  0  0  0  0  0  0  0  0  0  0  0
    0.3745   -0.5847   -1.0186 C   0  0  0  0  0  0  0  0  0  0  0  0
    1.3092   -1.0769   -0.7299 H   0  0  0  0  0  0  0  0  0  0  0  0
   -0.1774   -1.3072   -1.6299 H   0  0  0  0  0  0  0  0  0  0  0  0
    0.7444    0.6198   -1.9180 C   0  0  0  0  0  0  0  0  0  0  0  0
    1.3651    1.3301   -1.3615 H   0  0  0  0  0  0  0  0  0  0  0  0
    1.5325    0.0840   -3.1229 C   0  0  0  0  0  0  0  0  0  0  0  0
    0.9178   -0.5980   -3.7195 H   0  0  0  0  0  0  0  0  0  0  0  0
    1.8607    0.9079   -3.7644 H   0  0  0  0  0  0  0  0  0  0  0  0
    2.4228   -0.4563   -2.7864 H   0  0  0  0  0  0  0  0  0  0  0  0
   -0.4850    1.3440   -2.4964 C   0  0  0  0  0  0  0  0  0  0  0  0
   -0.1945    1.9819   -3.3372 H   0  0  0  0  0  0  0  0  0  0  0  0
   -0.9563    1.9913   -1.7585 H   0  0  0  0  0  0  0  0  0  0  0  0
   -1.2260    0.6213   -2.8522 H   0  0  0  0  0  0  0  0  0  0  0  0
   -0.5951    1.1179    0.7721 C   0  0  0  0  0  0  0  0  0  0  0  0
   -1.6529    1.7091    0.5820 O   0  0  0  0  0  0  0  0  0  0  0  0
    0.2937    1.6446    1.6922 N   0  0  0  0  0  0  0  0  0  0  0  0
    1.1004    1.0799    1.9420 H   0  0  0  0  0  0  0  0  0  0  0  0
    0.0924    2.9217    2.3661 C   0  0  0  0  0  0  0  0  0  0  0  0
   -0.8135    2.8926    2.9806 H   0  0  0  0  0  0  0  0  0  0  0  0
    0.9443    3.1443    3.0159 H   0  0  0  0  0  0  0  0  0  0  0  0
   -0.0038    3.7303    1.6338 H   0  0  0  0  0  0  0  0  0  0  0  0
  1  2  1  0  0  0  0
  2  3  1  0  0  0  0
  2  4  1  0  0  0  0
  2  5  1  0  0  0  0
  5  6  2  0  0  0  0
  5  7  1  0  0  0  0
  7  8  1  0  0  0  0
  7  9  1  0  0  0  0
  9 10  1  0  0  0  0
  9 11  1  0  0  0  0
  9 24  1  0  0  0  0
 11 12  1  0  0  0  0
 11 13  1  0  0  0  0
 11 14  1  0  0  0  0
 14 15  1  0  0  0  0
 14 16  1  0  0  0  0
 14 20  1  0  0  0  0
 16 17  1  0  0  0  0
 16 18  1  0  0  0  0
 16 19  1  0  0  0  0
 20 21  1  0  0  0  0
 20 22  1  0  0  0  0
 20 23  1  0  0  0  0
 24 25  2  0  0  0  0
 24 26  1  0  0  0  0
 26 27  1  0  0  0  0
 26 28  1  0  0  0  0
 28 29  1  0  0  0  0
 28 30  1  0  0  0  0
 28 31  1  0  0  0  0
M  END
$$$$

  -OEChem-03222214063D

 31 30  0     1  0  0  0  0  0999 V2000
   -3.3626   -3.8833    1.1626 H   0  0  0  0  0  0  0  0  0  0  0  0
   -3.3644   -2.8764    0.7360 C   0  0  0  0  0  0  0  0  0  0  0  0
   -4.0051   -2.2362    1.3472 H   0  0  0  0  0  0  0  0  0  0  0  0
   -3.7688   -2.9239   -0.2779 H   0  0  0  0  0  0  0  0  0  0  0  0
   -1.9536   -2.3191    0.7051 C   0  0  0  0  0  0  0  0  0  0  0  0
   -1.0187   -3.0040    1.0903 O   0  0  0  0  0  0  0  0  0  0  0  0
   -1.7336   -1.0385    0.2421 N   0  0  0  0  0  0  0  0  0  0  0  0
   -2.5542   -0.4687    0.0403 H   0  0  0  0  0  0  0  0  0  0  0  0
   -0.4463   -0.3304    0.3110 C   0  0  1  0  0  0  0  0  0  0  0  0
    0.1259   -0.7974    1.1195 H   0  0  0  0  0  0  0  0  0  0  0  0
    0.3915   -0.5847   -0.9744 C   0  0  0  0  0  0  0  0  0  0  0  0
    1.3039   -1.1073   -0.6682 H   0  0  0  0  0  0  0  0  0  0  0  0
   -0.1724   -1.2929   -1.5915 H   0  0  0  0  0  0  0  0  0  0  0  0
    0.8265    0.5901   -1.8921 C   0  0  0  0  0  0  0  0  0  0  0  0
    1.6542    1.1336   -1.4241 H   0  0  0  0  0  0  0  0  0  0  0  0
    1.2955   -0.0139   -3.2260 C   0  0  0  0  0  0  0  0  0  0  0  0
    0.4648   -0.4986   -3.7497 H   0  0  0  0  0  0  0  0  0  0  0  0
    1.7089    0.7637   -3.8762 H   0  0  0  0  0  0  0  0  0  0  0  0
    2.0781   -0.7593   -3.0521 H   0  0  0  0  0  0  0  0  0  0  0  0
   -0.2929    1.5866   -2.2436 C   0  0  0  0  0  0  0  0  0  0  0  0
   -0.1026    2.0691   -3.2074 H   0  0  0  0  0  0  0  0  0  0  0  0
   -0.3488    2.3857   -1.5016 H   0  0  0  0  0  0  0  0  0  0  0  0
   -1.2606    1.0782   -2.3009 H   0  0  0  0  0  0  0  0  0  0  0  0
   -0.6317    1.1214    0.7992 C   0  0  0  0  0  0  0  0  0  0  0  0
   -1.6781    1.7163    0.5595 O   0  0  0  0  0  0  0  0  0  0  0  0
    0.2210    1.6455    1.7542 N   0  0  0  0  0  0  0  0  0  0  0  0
    1.0187    1.0812    2.0325 H   0  0  0  0  0  0  0  0  0  0  0  0
   -0.0085    2.9202    2.4238 C   0  0  0  0  0  0  0  0  0  0  0  0
   -0.9446    2.8920    2.9915 H   0  0  0  0  0  0  0  0  0  0  0  0
    0.8100    3.1354    3.1174 H   0  0  0  0  0  0  0  0  0  0  0  0
   -0.0639    3.7330    1.6919 H   0  0  0  0  0  0  0  0  0  0  0  0
  1  2  1  0  0  0  0
  2  3  1  0  0  0  0
  2  4  1  0  0  0  0
  2  5  1  0  0  0  0
  5  6  2  0  0  0  0
  5  7  1  0  0  0  0
  7  8  1  0  0  0  0
  7  9  1  0  0  0  0
  9 10  1  0  0  0  0
  9 11  1  0  0  0  0
  9 24  1  0  0  0  0
 11 12  1  0  0  0  0
 11 13  1  0  0  0  0
 11 14  1  0  0  0  0
 14 15  1  0  0  0  0
 14 16  1  0  0  0  0
 14 20  1  0  0  0  0
 16 17  1  0  0  0  0
 16 18  1  0  0  0  0
 16 19  1  0  0  0  0
 20 21  1  0  0  0  0
 20 22  1  0  0  0  0
 20 23  1  0  0  0  0
 24 25  2  0  0  0  0
 24 26  1  0  0  0  0
 26 27  1  0  0  0  0
 26 28  1  0  0  0  0
 28 29  1  0  0  0  0
 28 30  1  0  0  0  0
 28 31  1  0  0  0  0
M  END
$$$$

  -OEChem-03222214063D

 31 30  0     1  0  0  0  0  0999 V2000
   -3.3449   -3.9268    1.0638 H   0  0  0  0  0  0  0  0  0  0  0  0
   -3.3553   -2.9028    0.6804 C   0  0  0  0  0  0  0  0  0  0  0  0
   -3.9948   -2.2927    1.3228 H   0  0  0  0  0  0  0  0  0  0  0  0
   -3.7671   -2.9093   -0.3317 H   0  0  0  0  0  0  0  0  0  0  0  0
   -1.9481   -2.3366    0.6627 C   0  0  0  0  0  0  0  0  0  0  0  0
   -1.0067   -3.0303    1.0149 O   0  0  0  0  0  0  0  0  0  0  0  0
   -1.7389   -1.0379    0.2477 N   0  0  0  0  0  0  0  0  0  0  0  0
   -2.5639   -0.4668    0.0688 H   0  0  0  0  0  0  0  0  0  0  0  0
   -0.4542   -0.3258    0.3287 C   0  0  1  0  0  0  0  0  0  0  0  0
    0.1236   -0.8159    1.1193 H   0  0  0  0  0  0  0  0  0  0  0  0
    0.3783   -0.5529   -0.9702 C   0  0  0  0  0  0  0  0  0  0  0  0
    1.2872   -1.0889   -0.6779 H   0  0  0  0  0  0  0  0  0  0  0  0
   -0.1964   -1.2575   -1.5815 H   0  0  0  0  0  0  0  0  0  0  0  0
    0.8327    0.6093   -1.9068 C   0  0  0  0  0  0  0  0  0  0  0  0
    1.8204    0.9562   -1.5848 H   0  0  0  0  0  0  0  0  0  0  0  0
    0.9258    0.0503   -3.3369 C   0  0  0  0  0  0  0  0  0  0  0  0
   -0.0646   -0.2260   -3.7138 H   0  0  0  0  0  0  0  0  0  0  0  0
    1.3598    0.7931   -4.0139 H   0  0  0  0  0  0  0  0  0  0  0  0
    1.5657   -0.8376   -3.3565 H   0  0  0  0  0  0  0  0  0  0  0  0
   -0.0980    1.8295   -2.0048 C   0  0  0  0  0  0  0  0  0  0  0  0
    0.0584    2.5077   -1.1629 H   0  0  0  0  0  0  0  0  0  0  0  0
    0.1097    2.4066   -2.9115 H   0  0  0  0  0  0  0  0  0  0  0  0
   -1.1465    1.5163   -2.0335 H   0  0  0  0  0  0  0  0  0  0  0  0
   -0.6477    1.1034    0.8758 C   0  0  0  0  0  0  0  0  0  0  0  0
   -1.6927    1.7068    0.6510 O   0  0  0  0  0  0  0  0  0  0  0  0
    0.2082    1.6011    1.8421 N   0  0  0  0  0  0  0  0  0  0  0  0
    1.0111    1.0330    2.0972 H   0  0  0  0  0  0  0  0  0  0  0  0
   -0.0188    2.8578    2.5457 C   0  0  0  0  0  0  0  0  0  0  0  0
   -0.9473    2.8105    3.1242 H   0  0  0  0  0  0  0  0  0  0  0  0
    0.8075    3.0610    3.2336 H   0  0  0  0  0  0  0  0  0  0  0  0
   -0.0878    3.6878    1.8347 H   0  0  0  0  0  0  0  0  0  0  0  0
  1  2  1  0  0  0  0
  2  3  1  0  0  0  0
  2  4  1  0  0  0  0
  2  5  1  0  0  0  0
  5  6  2  0  0  0  0
  5  7  1  0  0  0  0
  7  8  1  0  0  0  0
  7  9  1  0  0  0  0
  9 10  1  0  0  0  0
  9 11  1  0  0  0  0
  9 24  1  0  0  0  0
 11 12  1  0  0  0  0
 11 13  1  0  0  0  0
 11 14  1  0  0  0  0
 14 15  1  0  0  0  0
 14 16  1  0  0  0  0
 14 20  1  0  0  0  0
 16 17  1  0  0  0  0
 16 18  1  0  0  0  0
 16 19  1  0  0  0  0
 20 21  1  0  0  0  0
 20 22  1  0  0  0  0
 20 23  1  0  0  0  0
 24 25  2  0  0  0  0
 24 26  1  0  0  0  0
 26 27  1  0  0  0  0
 26 28  1  0  0  0  0
 28 29  1  0  0  0  0
 28 30  1  0  0  0  0
 28 31  1  0  0  0  0
M  END
$$$$

  -OEChem-03222214063D

 31 30  0     1  0  0  0  0  0999 V2000
   -3.2536   -3.9710    1.1275 H   0  0  0  0  0  0  0  0  0  0  0  0
   -3.2859   -2.9472    0.7449 C   0  0  0  0  0  0  0  0  0  0  0  0
   -3.9190   -2.3457    1.4017 H   0  0  0  0  0  0  0  0  0  0  0  0
   -3.7197   -2.9585   -0.2577 H   0  0  0  0  0  0  0  0  0  0  0  0
   -1.8870   -2.3625    0.6951 C   0  0  0  0  0  0  0  0  0  0  0  0
   -0.9264   -3.0478    1.0098 O   0  0  0  0  0  0  0  0  0  0  0  0
   -1.7077   -1.0550    0.2943 N   0  0  0  0  0  0  0  0  0  0  0  0
   -2.5450   -0.4930    0.1457 H   0  0  0  0  0  0  0  0  0  0  0  0
   -0.4301   -0.3272    0.3455 C   0  0  1  0  0  0  0  0  0  0  0  0
    0.1833   -0.8182    1.1083 H   0  0  0  0  0  0  0  0  0  0  0  0
    0.3513   -0.5336   -0.9922 C   0  0  0  0  0  0  0  0  0  0  0  0
    1.2763   -1.0558   -0.7263 H   0  0  0  0  0  0  0  0  0  0  0  0
   -0.2282   -1.2582   -1.5747 H   0  0  0  0  0  0  0  0  0  0  0  0
    0.7785    0.6164   -1.9658 C   0  0  0  0  0  0  0  0  0  0  0  0
    1.8630    0.7422   -1.8748 H   0  0  0  0  0  0  0  0  0  0  0  0
    0.4548    0.1797   -3.4051 C   0  0  0  0  0  0  0  0  0  0  0  0
   -0.6269    0.0865   -3.5480 H   0  0  0  0  0  0  0  0  0  0  0  0
    0.8383    0.9082   -4.1264 H   0  0  0  0  0  0  0  0  0  0  0  0
    0.9202   -0.7865   -3.6243 H   0  0  0  0  0  0  0  0  0  0  0  0
    0.1476    2.0053   -1.7945 C   0  0  0  0  0  0  0  0  0  0  0  0
    0.5128    2.4923   -0.8872 H   0  0  0  0  0  0  0  0  0  0  0  0
    0.4210    2.6542   -2.6327 H   0  0  0  0  0  0  0  0  0  0  0  0
   -0.9439    1.9360   -1.7650 H   0  0  0  0  0  0  0  0  0  0  0  0
   -0.6451    1.0866    0.9232 C   0  0  0  0  0  0  0  0  0  0  0  0
   -1.7022    1.6772    0.7229 O   0  0  0  0  0  0  0  0  0  0  0  0
    0.2247    1.5878    1.8754 N   0  0  0  0  0  0  0  0  0  0  0  0
    1.0445    1.0324    2.1025 H   0  0  0  0  0  0  0  0  0  0  0  0
   -0.0082    2.8311    2.6001 C   0  0  0  0  0  0  0  0  0  0  0  0
   -0.9304    2.7655    3.1870 H   0  0  0  0  0  0  0  0  0  0  0  0
    0.8225    3.0321    3.2832 H   0  0  0  0  0  0  0  0  0  0  0  0
   -0.0927    3.6707    1.9022 H   0  0  0  0  0  0  0  0  0  0  0  0
  1  2  1  0  0  0  0
  2  3  1  0  0  0  0
  2  4  1  0  0  0  0
  2  5  1  0  0  0  0
  5  6  2  0  0  0  0
  5  7  1  0  0  0  0
  7  8  1  0  0  0  0
  7  9  1  0  0  0  0
  9 10  1  0  0  0  0
  9 11  1  0  0  0  0
  9 24  1  0  0  0  0
 11 12  1  0  0  0  0
 11 13  1  0  0  0  0
 11 14  1  0  0  0  0
 14 15  1  0  0  0  0
 14 16  1  0  0  0  0
 14 20  1  0  0  0  0
 16 17  1  0  0  0  0
 16 18  1  0  0  0  0
 16 19  1  0  0  0  0
 20 21  1  0  0  0  0
 20 22  1  0  0  0  0
 20 23  1  0  0  0  0
 24 25  2  0  0  0  0
 24 26  1  0  0  0  0
 26 27  1  0  0  0  0
 26 28  1  0  0  0  0
 28 29  1  0  0  0  0
 28 30  1  0  0  0  0
 28 31  1  0  0  0  0
M  END
$$$$

  -OEChem-03222214063D

 31 30  0     1  0  0  0  0  0999 V2000
   -3.3080   -3.9398    1.1539 H   0  0  0  0  0  0  0  0  0  0  0  0
   -3.3192   -2.9226    0.7525 C   0  0  0  0  0  0  0  0  0  0  0  0
   -3.9577   -2.3012    1.3852 H   0  0  0  0  0  0  0  0  0  0  0  0
   -3.7330   -2.9468   -0.2586 H   0  0  0  0  0  0  0  0  0  0  0  0
   -1.9120   -2.3565    0.7224 C   0  0  0  0  0  0  0  0  0  0  0  0
   -0.9680   -3.0449    1.0779 O   0  0  0  0  0  0  0  0  0  0  0  0
   -1.7063   -1.0602    0.2995 N   0  0  0  0  0  0  0  0  0  0  0  0
   -2.5321   -0.4903    0.1189 H   0  0  0  0  0  0  0  0  0  0  0  0
   -0.4214   -0.3473    0.3695 C   0  0  1  0  0  0  0  0  0  0  0  0
    0.1865   -0.8296    1.1426 H   0  0  0  0  0  0  0  0  0  0  0  0
    0.3474   -0.5661   -0.9747 C   0  0  0  0  0  0  0  0  0  0  0  0
    1.2719   -1.0799   -0.6903 H   0  0  0  0  0  0  0  0  0  0  0  0
   -0.2170   -1.3051   -1.5537 H   0  0  0  0  0  0  0  0  0  0  0  0
    0.7960    0.5689   -1.9569 C   0  0  0  0  0  0  0  0  0  0  0  0
    1.8744    0.4377   -2.0990 H   0  0  0  0  0  0  0  0  0  0  0  0
    0.1363    0.3457   -3.3260 C   0  0  0  0  0  0  0  0  0  0  0  0
   -0.9512    0.4459   -3.2479 H   0  0  0  0  0  0  0  0  0  0  0  0
    0.5013    1.0777   -4.0534 H   0  0  0  0  0  0  0  0  0  0  0  0
    0.3692   -0.6536   -3.7072 H   0  0  0  0  0  0  0  0  0  0  0  0
    0.6061    2.0404   -1.5719 C   0  0  0  0  0  0  0  0  0  0  0  0
    1.1122    2.2658   -0.6299 H   0  0  0  0  0  0  0  0  0  0  0  0
    1.0454    2.6857   -2.3390 H   0  0  0  0  0  0  0  0  0  0  0  0
   -0.4546    2.2941   -1.4962 H   0  0  0  0  0  0  0  0  0  0  0  0
   -0.6684    1.0740    0.9149 C   0  0  0  0  0  0  0  0  0  0  0  0
   -1.7126    1.6624    0.6496 O   0  0  0  0  0  0  0  0  0  0  0  0
    0.1636    1.5986    1.8880 N   0  0  0  0  0  0  0  0  0  0  0  0
    0.9679    1.0446    2.1680 H   0  0  0  0  0  0  0  0  0  0  0  0
   -0.0966    2.8598    2.5710 C   0  0  0  0  0  0  0  0  0  0  0  0
   -1.0428    2.8102    3.1203 H   0  0  0  0  0  0  0  0  0  0  0  0
    0.7054    3.0769    3.2831 H   0  0  0  0  0  0  0  0  0  0  0  0
   -0.1501    3.6818    1.8494 H   0  0  0  0  0  0  0  0  0  0  0  0
  1  2  1  0  0  0  0
  2  3  1  0  0  0  0
  2  4  1  0  0  0  0
  2  5  1  0  0  0  0
  5  6  2  0  0  0  0
  5  7  1  0  0  0  0
  7  8  1  0  0  0  0
  7  9  1  0  0  0  0
  9 10  1  0  0  0  0
  9 11  1  0  0  0  0
  9 24  1  0  0  0  0
 11 12  1  0  0  0  0
 11 13  1  0  0  0  0
 11 14  1  0  0  0  0
 14 15  1  0  0  0  0
 14 16  1  0  0  0  0
 14 20  1  0  0  0  0
 16 17  1  0  0  0  0
 16 18  1  0  0  0  0
 16 19  1  0  0  0  0
 20 21  1  0  0  0  0
 20 22  1  0  0  0  0
 20 23  1  0  0  0  0
 24 25  2  0  0  0  0
 24 26  1  0  0  0  0
 26 27  1  0  0  0  0
 26 28  1  0  0  0  0
 28 29  1  0  0  0  0
 28 30  1  0  0  0  0
 28 31  1  0  0  0  0
M  END
$$$$

  -OEChem-03222214063D

 31 30  0     1  0  0  0  0  0999 V2000
   -3.3920   -3.9099    1.1417 H   0  0  0  0  0  0  0  0  0  0  0  0
   -3.3700   -2.9005    0.7215 C   0  0  0  0  0  0  0  0  0  0  0  0
   -4.0202   -2.2563    1.3182 H   0  0  0  0  0  0  0  0  0  0  0  0
   -3.7459   -2.9369   -0.3038 H   0  0  0  0  0  0  0  0  0  0  0  0
   -1.9527   -2.3597    0.7336 C   0  0  0  0  0  0  0  0  0  0  0  0
   -1.0359   -3.0561    1.1408 O   0  0  0  0  0  0  0  0  0  0  0  0
   -1.7060   -1.0783    0.2880 N   0  0  0  0  0  0  0  0  0  0  0  0
   -2.5118   -0.4969    0.0594 H   0  0  0  0  0  0  0  0  0  0  0  0
   -0.4087   -0.3921    0.3848 C   0  0  1  0  0  0  0  0  0  0  0  0
    0.1903   -0.8728    1.1654 H   0  0  0  0  0  0  0  0  0  0  0  0
    0.3439   -0.6062   -0.9669 C   0  0  0  0  0  0  0  0  0  0  0  0
    1.2636   -1.1323   -0.6898 H   0  0  0  0  0  0  0  0  0  0  0  0
   -0.2230   -1.3243   -1.5692 H   0  0  0  0  0  0  0  0  0  0  0  0
    0.8029    0.5521   -1.9077 C   0  0  0  0  0  0  0  0  0  0  0  0
    1.7723    0.2242   -2.2999 H   0  0  0  0  0  0  0  0  0  0  0  0
   -0.1215    0.6401   -3.1278 C   0  0  0  0  0  0  0  0  0  0  0  0
   -1.1366    0.9052   -2.8151 H   0  0  0  0  0  0  0  0  0  0  0  0
    0.2375    1.4027   -3.8259 H   0  0  0  0  0  0  0  0  0  0  0  0
   -0.1572   -0.3169   -3.6577 H   0  0  0  0  0  0  0  0  0  0  0  0
    1.0702    1.9465   -1.3288 C   0  0  0  0  0  0  0  0  0  0  0  0
    1.6494    1.8772   -0.4039 H   0  0  0  0  0  0  0  0  0  0  0  0
    0.1392    2.4879   -1.1428 H   0  0  0  0  0  0  0  0  0  0  0  0
    1.6520    2.5364   -2.0438 H   0  0  0  0  0  0  0  0  0  0  0  0
   -0.6725    1.0410    0.8905 C   0  0  0  0  0  0  0  0  0  0  0  0
   -1.6775    1.6462    0.5284 O   0  0  0  0  0  0  0  0  0  0  0  0
    0.1183    1.5878    1.8854 N   0  0  0  0  0  0  0  0  0  0  0  0
    0.8969    1.0315    2.2266 H   0  0  0  0  0  0  0  0  0  0  0  0
   -0.1386    2.8888    2.4906 C   0  0  0  0  0  0  0  0  0  0  0  0
   -1.1168    2.8964    2.9829 H   0  0  0  0  0  0  0  0  0  0  0  0
    0.6269    3.1152    3.2391 H   0  0  0  0  0  0  0  0  0  0  0  0
   -0.1202    3.6758    1.7293 H   0  0  0  0  0  0  0  0  0  0  0  0
  1  2  1  0  0  0  0
  2  3  1  0  0  0  0
  2  4  1  0  0  0  0
  2  5  1  0  0  0  0
  5  6  2  0  0  0  0
  5  7  1  0  0  0  0
  7  8  1  0  0  0  0
  7  9  1  0  0  0  0
  9 10  1  0  0  0  0
  9 11  1  0  0  0  0
  9 24  1  0  0  0  0
 11 12  1  0  0  0  0
 11 13  1  0  0  0  0
 11 14  1  0  0  0  0
 14 15  1  0  0  0  0
 14 16  1  0  0  0  0
 14 20  1  0  0  0  0
 16 17  1  0  0  0  0
 16 18  1  0  0  0  0
 16 19  1  0  0  0  0
 20 21  1  0  0  0  0
 20 22  1  0  0  0  0
 20 23  1  0  0  0  0
 24 25  2  0  0  0  0
 24 26  1  0  0  0  0
 26 27  1  0  0  0  0
 26 28  1  0  0  0  0
 28 29  1  0  0  0  0
 28 30  1  0  0  0  0
 28 31  1  0  0  0  0
M  END
$$$$

  -OEChem-03222214063D

 31 30  0     1  0  0  0  0  0999 V2000
   -3.3320   -3.9512    1.1764 H   0  0  0  0  0  0  0  0  0  0  0  0
   -3.3204   -2.9457    0.7463 C   0  0  0  0  0  0  0  0  0  0  0  0
   -3.9765   -2.3024    1.3377 H   0  0  0  0  0  0  0  0  0  0  0  0
   -3.6971   -2.9959   -0.2781 H   0  0  0  0  0  0  0  0  0  0  0  0
   -1.9086   -2.3906    0.7518 C   0  0  0  0  0  0  0  0  0  0  0  0
   -0.9858   -3.0721    1.1703 O   0  0  0  0  0  0  0  0  0  0  0  0
   -1.6736   -1.1121    0.2918 N   0  0  0  0  0  0  0  0  0  0  0  0
   -2.4835   -0.5432    0.0475 H   0  0  0  0  0  0  0  0  0  0  0  0
   -0.3809   -0.4156    0.3758 C   0  0  1  0  0  0  0  0  0  0  0  0
    0.2357   -0.8882    1.1476 H   0  0  0  0  0  0  0  0  0  0  0  0
    0.3492   -0.6080   -0.9884 C   0  0  0  0  0  0  0  0  0  0  0  0
    1.2793   -1.1322   -0.7453 H   0  0  0  0  0  0  0  0  0  0  0  0
   -0.2269   -1.3068   -1.6047 H   0  0  0  0  0  0  0  0  0  0  0  0
    0.7628    0.5900   -1.8889 C   0  0  0  0  0  0  0  0  0  0  0  0
    1.5749    0.1980   -2.5112 H   0  0  0  0  0  0  0  0  0  0  0  0
   -0.3612    0.9494   -2.8661 C   0  0  0  0  0  0  0  0  0  0  0  0
   -1.2391    1.3118   -2.3219 H   0  0  0  0  0  0  0  0  0  0  0  0
   -0.0311    1.7339   -3.5543 H   0  0  0  0  0  0  0  0  0  0  0  0
   -0.6535    0.0763   -3.4577 H   0  0  0  0  0  0  0  0  0  0  0  0
    1.3512    1.8350   -1.2116 C   0  0  0  0  0  0  0  0  0  0  0  0
    1.9855    1.5512   -0.3668 H   0  0  0  0  0  0  0  0  0  0  0  0
    1.9670    2.3872   -1.9281 H   0  0  0  0  0  0  0  0  0  0  0  0
    0.5679    2.5147   -0.8665 H   0  0  0  0  0  0  0  0  0  0  0  0
   -0.6505    1.0211    0.8679 C   0  0  0  0  0  0  0  0  0  0  0  0
   -1.6423    1.6306    0.4789 O   0  0  0  0  0  0  0  0  0  0  0  0
    0.1416    1.5830    1.8536 N   0  0  0  0  0  0  0  0  0  0  0  0
    0.9168    1.0295    2.2072 H   0  0  0  0  0  0  0  0  0  0  0  0
   -0.1105    2.8969    2.4322 C   0  0  0  0  0  0  0  0  0  0  0  0
   -1.0927    2.9208    2.9158 H   0  0  0  0  0  0  0  0  0  0  0  0
    0.6501    3.1320    3.1829 H   0  0  0  0  0  0  0  0  0  0  0  0
   -0.0805    3.6690    1.6563 H   0  0  0  0  0  0  0  0  0  0  0  0
  1  2  1  0  0  0  0
  2  3  1  0  0  0  0
  2  4  1  0  0  0  0
  2  5  1  0  0  0  0
  5  6  2  0  0  0  0
  5  7  1  0  0  0  0
  7  8  1  0  0  0  0
  7  9  1  0  0  0  0
  9 10  1  0  0  0  0
  9 11  1  0  0  0  0
  9 24  1  0  0  0  0
 11 12  1  0  0  0  0
 11 13  1  0  0  0  0
 11 14  1  0  0  0  0
 14 15  1  0  0  0  0
 14 16  1  0  0  0  0
 14 20  1  0  0  0  0
 16 17  1  0  0  0  0
 16 18  1  0  0  0  0
 16 19  1  0  0  0  0
 20 21  1  0  0  0  0
 20 22  1  0  0  0  0
 20 23  1  0  0  0  0
 24 25  2  0  0  0  0
 24 26  1  0  0  0  0
 26 27  1  0  0  0  0
 26 28  1  0  0  0  0
 28 29  1  0  0  0  0
 28 30  1  0  0  0  0
 28 31  1  0  0  0  0
M  END
$$$$

  -OEChem-03222214063D

 31 30  0     1  0  0  0  0  0999 V2000
   -3.3303   -3.9453    1.1795 H   0  0  0  0  0  0  0  0  0  0  0  0
   -3.3247   -2.9418    0.7447 C   0  0  0  0  0  0  0  0  0  0  0  0
   -3.9831   -2.2993    1.3346 H   0  0  0  0  0  0  0  0  0  0  0  0
   -3.7033   -2.9986   -0.2787 H   0  0  0  0  0  0  0  0  0  0  0  0
   -1.9157   -2.3794    0.7435 C   0  0  0  0  0  0  0  0  0  0  0  0
   -0.9864   -3.0596    1.1497 O   0  0  0  0  0  0  0  0  0  0  0  0
   -1.6909   -1.0987    0.2839 N   0  0  0  0  0  0  0  0  0  0  0  0
   -2.5071   -0.5329    0.0545 H   0  0  0  0  0  0  0  0  0  0  0  0
   -0.4030   -0.3931    0.3632 C   0  0  1  0  0  0  0  0  0  0  0  0
    0.1989   -0.8634    1.1479 H   0  0  0  0  0  0  0  0  0  0  0  0
    0.3657   -0.6106   -0.9748 C   0  0  0  0  0  0  0  0  0  0  0  0
    1.2910   -1.1334   -0.7111 H   0  0  0  0  0  0  0  0  0  0  0  0
   -0.2039   -1.3098   -1.5967 H   0  0  0  0  0  0  0  0  0  0  0  0
    0.7799    0.5781   -1.8798 C   0  0  0  0  0  0  0  0  0  0  0  0
    1.4437    0.1434   -2.6354 H   0  0  0  0  0  0  0  0  0  0  0  0
   -0.4148    1.1598   -2.6449 C   0  0  0  0  0  0  0  0  0  0  0  0
   -1.1242    1.6420   -1.9693 H   0  0  0  0  0  0  0  0  0  0  0  0
   -0.0713    1.9059   -3.3682 H   0  0  0  0  0  0  0  0  0  0  0  0
   -0.9400    0.3700   -3.1905 H   0  0  0  0  0  0  0  0  0  0  0  0
    1.5952    1.6805   -1.1896 C   0  0  0  0  0  0  0  0  0  0  0  0
    2.2709    1.2511   -0.4436 H   0  0  0  0  0  0  0  0  0  0  0  0
    2.1984    2.2121   -1.9321 H   0  0  0  0  0  0  0  0  0  0  0  0
    0.9490    2.4171   -0.7059 H   0  0  0  0  0  0  0  0  0  0  0  0
   -0.6401    1.0501    0.8558 C   0  0  0  0  0  0  0  0  0  0  0  0
   -1.6544    1.6578    0.5291 O   0  0  0  0  0  0  0  0  0  0  0  0
    0.1779    1.5947    1.8303 N   0  0  0  0  0  0  0  0  0  0  0  0
    0.9648    1.0371    2.1495 H   0  0  0  0  0  0  0  0  0  0  0  0
   -0.0595    2.8961    2.4428 C   0  0  0  0  0  0  0  0  0  0  0  0
   -1.0268    2.9079    2.9562 H   0  0  0  0  0  0  0  0  0  0  0  0
    0.7228    3.1180    3.1749 H   0  0  0  0  0  0  0  0  0  0  0  0
   -0.0542    3.6840    1.6822 H   0  0  0  0  0  0  0  0  0  0  0  0
  1  2  1  0  0  0  0
  2  3  1  0  0  0  0
  2  4  1  0  0  0  0
  2  5  1  0  0  0  0
  5  6  2  0  0  0  0
  5  7  1  0  0  0  0
  7  8  1  0  0  0  0
  7  9  1  0  0  0  0
  9 10  1  0  0  0  0
  9 11  1  0  0  0  0
  9 24  1  0  0  0  0
 11 12  1  0  0  0  0
 11 13  1  0  0  0  0
 11 14  1  0  0  0  0
 14 15  1  0  0  0  0
 14 16  1  0  0  0  0
 14 20  1  0  0  0  0
 16 17  1  0  0  0  0
 16 18  1  0  0  0  0
 16 19  1  0  0  0  0
 20 21  1  0  0  0  0
 20 22  1  0  0  0  0
 20 23  1  0  0  0  0
 24 25  2  0  0  0  0
 24 26  1  0  0  0  0
 26 27  1  0  0  0  0
 26 28  1  0  0  0  0
 28 29  1  0  0  0  0
 28 30  1  0  0  0  0
 28 31  1  0  0  0  0
M  END
$$$$

  -OEChem-03222214063D

 31 30  0     1  0  0  0  0  0999 V2000
   -3.3344   -3.9182    1.2372 H   0  0  0  0  0  0  0  0  0  0  0  0
   -3.3340   -2.9107    0.8119 C   0  0  0  0  0  0  0  0  0  0  0  0
   -3.9690   -2.2685    1.4269 H   0  0  0  0  0  0  0  0  0  0  0  0
   -3.7436   -2.9550   -0.2001 H   0  0  0  0  0  0  0  0  0  0  0  0
   -1.9215   -2.3582    0.7744 C   0  0  0  0  0  0  0  0  0  0  0  0
   -0.9879   -3.0397    1.1683 O   0  0  0  0  0  0  0  0  0  0  0  0
   -1.6994   -1.0831    0.2981 N   0  0  0  0  0  0  0  0  0  0  0  0
   -2.5189   -0.5120    0.0944 H   0  0  0  0  0  0  0  0  0  0  0  0
   -0.4103   -0.3775    0.3600 C   0  0  1  0  0  0  0  0  0  0  0  0
    0.1857   -0.8370    1.1554 H   0  0  0  0  0  0  0  0  0  0  0  0
    0.3744   -0.6260   -0.9625 C   0  0  0  0  0  0  0  0  0  0  0  0
    1.2875   -1.1657   -0.6907 H   0  0  0  0  0  0  0  0  0  0  0  0
   -0.2091   -1.3200   -1.5770 H   0  0  0  0  0  0  0  0  0  0  0  0
    0.7969    0.5388   -1.8936 C   0  0  0  0  0  0  0  0  0  0  0  0
    1.2634    0.0595   -2.7612 H   0  0  0  0  0  0  0  0  0  0  0  0
   -0.3824    1.3605   -2.4307 C   0  0  0  0  0  0  0  0  0  0  0  0
   -0.0824    1.8872   -3.3419 H   0  0  0  0  0  0  0  0  0  0  0  0
   -0.7151    2.1115   -1.7121 H   0  0  0  0  0  0  0  0  0  0  0  0
   -1.2264    0.7077   -2.6739 H   0  0  0  0  0  0  0  0  0  0  0  0
    1.8611    1.4565   -1.2761 C   0  0  0  0  0  0  0  0  0  0  0  0
    2.6555    0.8648   -0.8113 H   0  0  0  0  0  0  0  0  0  0  0  0
    2.3107    2.0790   -2.0561 H   0  0  0  0  0  0  0  0  0  0  0  0
    1.4339    2.1225   -0.5241 H   0  0  0  0  0  0  0  0  0  0  0  0
   -0.6325    1.0740    0.8366 C   0  0  0  0  0  0  0  0  0  0  0  0
   -1.6754    1.6594    0.5617 O   0  0  0  0  0  0  0  0  0  0  0  0
    0.1996    1.6235    1.7961 N   0  0  0  0  0  0  0  0  0  0  0  0
    1.0004    1.0739    2.0942 H   0  0  0  0  0  0  0  0  0  0  0  0
   -0.0464    2.9129    2.4301 C   0  0  0  0  0  0  0  0  0  0  0  0
   -0.9855    2.8900    2.9929 H   0  0  0  0  0  0  0  0  0  0  0  0
    0.7663    3.1551    3.1216 H   0  0  0  0  0  0  0  0  0  0  0  0
   -0.1060    3.7050    1.6764 H   0  0  0  0  0  0  0  0  0  0  0  0
  1  2  1  0  0  0  0
  2  3  1  0  0  0  0
  2  4  1  0  0  0  0
  2  5  1  0  0  0  0
  5  6  2  0  0  0  0
  5  7  1  0  0  0  0
  7  8  1  0  0  0  0
  7  9  1  0  0  0  0
  9 10  1  0  0  0  0
  9 11  1  0  0  0  0
  9 24  1  0  0  0  0
 11 12  1  0  0  0  0
 11 13  1  0  0  0  0
 11 14  1  0  0  0  0
 14 15  1  0  0  0  0
 14 16  1  0  0  0  0
 14 20  1  0  0  0  0
 16 17  1  0  0  0  0
 16 18  1  0  0  0  0
 16 19  1  0  0  0  0
 20 21  1  0  0  0  0
 20 22  1  0  0  0  0
 20 23  1  0  0  0  0
 24 25  2  0  0  0  0
 24 26  1  0  0  0  0
 26 27  1  0  0  0  0
 26 28  1  0  0  0  0
 28 29  1  0  0  0  0
 28 30  1  0  0  0  0
 28 31  1  0  0  0  0
M  END
$$$$

  -OEChem-03222214063D

 31 30  0     1  0  0  0  0  0999 V2000
   -3.3659   -3.9186    1.1628 H   0  0  0  0  0  0  0  0  0  0  0  0
   -3.3574   -2.9164    0.7254 C   0  0  0  0  0  0  0  0  0  0  0  0
   -4.0173   -2.2714    1.3103 H   0  0  0  0  0  0  0  0  0  0  0  0
   -3.7311   -2.9757   -0.2996 H   0  0  0  0  0  0  0  0  0  0  0  0
   -1.9481   -2.3557    0.7303 C   0  0  0  0  0  0  0  0  0  0  0  0
   -1.0240   -3.0312    1.1557 O   0  0  0  0  0  0  0  0  0  0  0  0
   -1.7177   -1.0815    0.2553 N   0  0  0  0  0  0  0  0  0  0  0  0
   -2.5331   -0.5165    0.0209 H   0  0  0  0  0  0  0  0  0  0  0  0
   -0.4352   -0.3687    0.3569 C   0  0  1  0  0  0  0  0  0  0  0  0
    0.1248   -0.8195    1.1830 H   0  0  0  0  0  0  0  0  0  0  0  0
    0.4215   -0.6330   -0.9176 C   0  0  0  0  0  0  0  0  0  0  0  0
    1.3120   -1.1853   -0.6001 H   0  0  0  0  0  0  0  0  0  0  0  0
   -0.1441   -1.3243   -1.5514 H   0  0  0  0  0  0  0  0  0  0  0  0
    0.8875    0.5145   -1.8529 C   0  0  0  0  0  0  0  0  0  0  0  0
    1.1995    0.0379   -2.7887 H   0  0  0  0  0  0  0  0  0  0  0  0
   -0.1824    1.5551   -2.2120 C   0  0  0  0  0  0  0  0  0  0  0  0
    0.0587    2.0133   -3.1760 H   0  0  0  0  0  0  0  0  0  0  0  0
   -0.2327    2.3593   -1.4737 H   0  0  0  0  0  0  0  0  0  0  0  0
   -1.1663    1.0831   -2.2950 H   0  0  0  0  0  0  0  0  0  0  0  0
    2.1148    1.2285   -1.2706 C   0  0  0  0  0  0  0  0  0  0  0  0
    2.9198    0.5121   -1.0795 H   0  0  0  0  0  0  0  0  0  0  0  0
    2.4858    1.9775   -1.9774 H   0  0  0  0  0  0  0  0  0  0  0  0
    1.8705    1.7337   -0.3328 H   0  0  0  0  0  0  0  0  0  0  0  0
   -0.6662    1.0860    0.8183 C   0  0  0  0  0  0  0  0  0  0  0  0
   -1.7032    1.6677    0.5135 O   0  0  0  0  0  0  0  0  0  0  0  0
    0.1370    1.6403    1.7989 N   0  0  0  0  0  0  0  0  0  0  0  0
    0.9295    1.0930    2.1227 H   0  0  0  0  0  0  0  0  0  0  0  0
   -0.1236    2.9364    2.4131 C   0  0  0  0  0  0  0  0  0  0  0  0
   -1.0896    2.9291    2.9289 H   0  0  0  0  0  0  0  0  0  0  0  0
    0.6563    3.1729    3.1431 H   0  0  0  0  0  0  0  0  0  0  0  0
   -0.1354    3.7241    1.6525 H   0  0  0  0  0  0  0  0  0  0  0  0
  1  2  1  0  0  0  0
  2  3  1  0  0  0  0
  2  4  1  0  0  0  0
  2  5  1  0  0  0  0
  5  6  2  0  0  0  0
  5  7  1  0  0  0  0
  7  8  1  0  0  0  0
  7  9  1  0  0  0  0
  9 10  1  0  0  0  0
  9 11  1  0  0  0  0
  9 24  1  0  0  0  0
 11 12  1  0  0  0  0
 11 13  1  0  0  0  0
 11 14  1  0  0  0  0
 14 15  1  0  0  0  0
 14 16  1  0  0  0  0
 14 20  1  0  0  0  0
 16 17  1  0  0  0  0
 16 18  1  0  0  0  0
 16 19  1  0  0  0  0
 20 21  1  0  0  0  0
 20 22  1  0  0  0  0
 20 23  1  0  0  0  0
 24 25  2  0  0  0  0
 24 26  1  0  0  0  0
 26 27  1  0  0  0  0
 26 28  1  0  0  0  0
 28 29  1  0  0  0  0
 28 30  1  0  0  0  0
 28 31  1  0  0  0  0
M  END
$$$$

  -OEChem-03222214063D

 31 30  0     1  0  0  0  0  0999 V2000
   -3.3335   -3.9450    1.1587 H   0  0  0  0  0  0  0  0  0  0  0  0
   -3.3426   -2.9353    0.7390 C   0  0  0  0  0  0  0  0  0  0  0  0
   -3.9921   -2.3052    1.3513 H   0  0  0  0  0  0  0  0  0  0  0  0
   -3.7416   -2.9792   -0.2773 H   0  0  0  0  0  0  0  0  0  0  0  0
   -1.9372   -2.3645    0.7192 C   0  0  0  0  0  0  0  0  0  0  0  0
   -0.9967   -3.0450    1.0984 O   0  0  0  0  0  0  0  0  0  0  0  0
   -1.7291   -1.0755    0.2745 N   0  0  0  0  0  0  0  0  0  0  0  0
   -2.5544   -0.5118    0.0750 H   0  0  0  0  0  0  0  0  0  0  0  0
   -0.4475   -0.3570    0.3491 C   0  0  1  0  0  0  0  0  0  0  0  0
    0.1295   -0.8250    1.1533 H   0  0  0  0  0  0  0  0  0  0  0  0
    0.3916   -0.6068   -0.9413 C   0  0  0  0  0  0  0  0  0  0  0  0
    1.2783   -1.1758   -0.6426 H   0  0  0  0  0  0  0  0  0  0  0  0
   -0.1932   -1.2900   -1.5664 H   0  0  0  0  0  0  0  0  0  0  0  0
    0.8480    0.5337   -1.8990 C   0  0  0  0  0  0  0  0  0  0  0  0
    0.9222    0.0937   -2.8996 H   0  0  0  0  0  0  0  0  0  0  0  0
   -0.0508    1.7725   -2.0122 C   0  0  0  0  0  0  0  0  0  0  0  0
    0.1076    2.4708   -1.1861 H   0  0  0  0  0  0  0  0  0  0  0  0
    0.1773    2.3090   -2.9383 H   0  0  0  0  0  0  0  0  0  0  0  0
   -1.1045    1.4785   -2.0440 H   0  0  0  0  0  0  0  0  0  0  0  0
    2.2490    1.0093   -1.4896 C   0  0  0  0  0  0  0  0  0  0  0  0
    2.9625    0.1801   -1.5251 H   0  0  0  0  0  0  0  0  0  0  0  0
    2.6018    1.7888   -2.1723 H   0  0  0  0  0  0  0  0  0  0  0  0
    2.2380    1.4162   -0.4736 H   0  0  0  0  0  0  0  0  0  0  0  0
   -0.6539    1.0839    0.8598 C   0  0  0  0  0  0  0  0  0  0  0  0
   -1.6977    1.6786    0.6080 O   0  0  0  0  0  0  0  0  0  0  0  0
    0.1909    1.6079    1.8218 N   0  0  0  0  0  0  0  0  0  0  0  0
    0.9967    1.0517    2.0931 H   0  0  0  0  0  0  0  0  0  0  0  0
   -0.0375    2.8876    2.4818 C   0  0  0  0  0  0  0  0  0  0  0  0
   -0.9912    2.8770    3.0199 H   0  0  0  0  0  0  0  0  0  0  0  0
    0.7622    3.0898    3.2007 H   0  0  0  0  0  0  0  0  0  0  0  0
   -0.0557    3.6996    1.7473 H   0  0  0  0  0  0  0  0  0  0  0  0
  1  2  1  0  0  0  0
  2  3  1  0  0  0  0
  2  4  1  0  0  0  0
  2  5  1  0  0  0  0
  5  6  2  0  0  0  0
  5  7  1  0  0  0  0
  7  8  1  0  0  0  0
  7  9  1  0  0  0  0
  9 10  1  0  0  0  0
  9 11  1  0  0  0  0
  9 24  1  0  0  0  0
 11 12  1  0  0  0  0
 11 13  1  0  0  0  0
 11 14  1  0  0  0  0
 14 15  1  0  0  0  0
 14 16  1  0  0  0  0
 14 20  1  0  0  0  0
 16 17  1  0  0  0  0
 16 18  1  0  0  0  0
 16 19  1  0  0  0  0
 20 21  1  0  0  0  0
 20 22  1  0  0  0  0
 20 23  1  0  0  0  0
 24 25  2  0  0  0  0
 24 26  1  0  0  0  0
 26 27  1  0  0  0  0
 26 28  1  0  0  0  0
 28 29  1  0  0  0  0
 28 30  1  0  0  0  0
 28 31  1  0  0  0  0
M  END
$$$$

  -OEChem-03222214063D

 31 30  0     1  0  0  0  0  0999 V2000
   -3.2758   -3.9760    1.1556 H   0  0  0  0  0  0  0  0  0  0  0  0
   -3.3023   -2.9586    0.7556 C   0  0  0  0  0  0  0  0  0  0  0  0
   -3.9459   -2.3468    1.3923 H   0  0  0  0  0  0  0  0  0  0  0  0
   -3.7205   -2.9871   -0.2534 H   0  0  0  0  0  0  0  0  0  0  0  0
   -1.9026   -2.3746    0.7200 C   0  0  0  0  0  0  0  0  0  0  0  0
   -0.9494   -3.0519    1.0721 O   0  0  0  0  0  0  0  0  0  0  0  0
   -1.7132   -1.0767    0.2927 N   0  0  0  0  0  0  0  0  0  0  0  0
   -2.5465   -0.5172    0.1155 H   0  0  0  0  0  0  0  0  0  0  0  0
   -0.4373   -0.3473    0.3612 C   0  0  1  0  0  0  0  0  0  0  0  0
    0.1564   -0.8188    1.1514 H   0  0  0  0  0  0  0  0  0  0  0  0
    0.3817   -0.5793   -0.9486 C   0  0  0  0  0  0  0  0  0  0  0  0
    1.2710   -1.1469   -0.6548 H   0  0  0  0  0  0  0  0  0  0  0  0
   -0.2045   -1.2704   -1.5636 H   0  0  0  0  0  0  0  0  0  0  0  0
    0.8323    0.5538   -1.9278 C   0  0  0  0  0  0  0  0  0  0  0  0
    0.6283    0.1899   -2.9409 H   0  0  0  0  0  0  0  0  0  0  0  0
    0.1831    1.9388   -1.8203 C   0  0  0  0  0  0  0  0  0  0  0  0
    0.5139    2.4732   -0.9258 H   0  0  0  0  0  0  0  0  0  0  0  0
    0.4629    2.5464   -2.6866 H   0  0  0  0  0  0  0  0  0  0  0  0
   -0.9071    1.8509   -1.8169 H   0  0  0  0  0  0  0  0  0  0  0  0
    2.3502    0.7535   -1.8035 C   0  0  0  0  0  0  0  0  0  0  0  0
    2.8803   -0.1802   -2.0168 H   0  0  0  0  0  0  0  0  0  0  0  0
    2.6980    1.5084   -2.5159 H   0  0  0  0  0  0  0  0  0  0  0  0
    2.6136    1.0819   -0.7929 H   0  0  0  0  0  0  0  0  0  0  0  0
   -0.6658    1.0802    0.8987 C   0  0  0  0  0  0  0  0  0  0  0  0
   -1.7182    1.6644    0.6586 O   0  0  0  0  0  0  0  0  0  0  0  0
    0.1783    1.6049    1.8612 N   0  0  0  0  0  0  0  0  0  0  0  0
    0.9958    1.0591    2.1185 H   0  0  0  0  0  0  0  0  0  0  0  0
   -0.0648    2.8737    2.5369 C   0  0  0  0  0  0  0  0  0  0  0  0
   -1.0021    2.8340    3.1018 H   0  0  0  0  0  0  0  0  0  0  0  0
    0.7497    3.0932    3.2336 H   0  0  0  0  0  0  0  0  0  0  0  0
   -0.1260    3.6897    1.8091 H   0  0  0  0  0  0  0  0  0  0  0  0
  1  2  1  0  0  0  0
  2  3  1  0  0  0  0
  2  4  1  0  0  0  0
  2  5  1  0  0  0  0
  5  6  2  0  0  0  0
  5  7  1  0  0  0  0
  7  8  1  0  0  0  0
  7  9  1  0  0  0  0
  9 10  1  0  0  0  0
  9 11  1  0  0  0  0
  9 24  1  0  0  0  0
 11 12  1  0  0  0  0
 11 13  1  0  0  0  0
 11 14  1  0  0  0  0
 14 15  1  0  0  0  0
 14 16  1  0  0  0  0
 14 20  1  0  0  0  0
 16 17  1  0  0  0  0
 16 18  1  0  0  0  0
 16 19  1  0  0  0  0
 20 21  1  0  0  0  0
 20 22  1  0  0  0  0
 20 23  1  0  0  0  0
 24 25  2  0  0  0  0
 24 26  1  0  0  0  0
 26 27  1  0  0  0  0
 26 28  1  0  0  0  0
 28 29  1  0  0  0  0
 28 30  1  0  0  0  0
 28 31  1  0  0  0  0
M  END
$$$$

  -OEChem-03222214063D

 31 30  0     1  0  0  0  0  0999 V2000
   -3.2963   -3.9464    1.1334 H   0  0  0  0  0  0  0  0  0  0  0  0
   -3.3071   -2.9298    0.7306 C   0  0  0  0  0  0  0  0  0  0  0  0
   -3.9604   -2.3119    1.3515 H   0  0  0  0  0  0  0  0  0  0  0  0
   -3.7030   -2.9580   -0.2873 H   0  0  0  0  0  0  0  0  0  0  0  0
   -1.9034   -2.3545    0.7229 C   0  0  0  0  0  0  0  0  0  0  0  0
   -0.9626   -3.0326    1.1055 O   0  0  0  0  0  0  0  0  0  0  0  0
   -1.6978   -1.0621    0.2874 N   0  0  0  0  0  0  0  0  0  0  0  0
   -2.5245   -0.4997    0.0884 H   0  0  0  0  0  0  0  0  0  0  0  0
   -0.4206   -0.3376    0.3785 C   0  0  1  0  0  0  0  0  0  0  0  0
    0.1635   -0.8029    1.1796 H   0  0  0  0  0  0  0  0  0  0  0  0
    0.4022   -0.5773   -0.9294 C   0  0  0  0  0  0  0  0  0  0  0  0
    1.2922   -1.1259   -0.6037 H   0  0  0  0  0  0  0  0  0  0  0  0
   -0.1611   -1.2903   -1.5413 H   0  0  0  0  0  0  0  0  0  0  0  0
    0.8762    0.5413   -1.9189 C   0  0  0  0  0  0  0  0  0  0  0  0
    0.4142    0.3107   -2.8852 H   0  0  0  0  0  0  0  0  0  0  0  0
    0.5363    2.0091   -1.6361 C   0  0  0  0  0  0  0  0  0  0  0  0
    0.9924    2.3507   -0.7030 H   0  0  0  0  0  0  0  0  0  0  0  0
    0.9167    2.6436   -2.4427 H   0  0  0  0  0  0  0  0  0  0  0  0
   -0.5463    2.1527   -1.5972 H   0  0  0  0  0  0  0  0  0  0  0  0
    2.3982    0.4427   -2.1053 C   0  0  0  0  0  0  0  0  0  0  0  0
    2.6802   -0.5651   -2.4270 H   0  0  0  0  0  0  0  0  0  0  0  0
    2.7396    1.1484   -2.8693 H   0  0  0  0  0  0  0  0  0  0  0  0
    2.9161    0.6686   -1.1677 H   0  0  0  0  0  0  0  0  0  0  0  0
   -0.6798    1.0915    0.8977 C   0  0  0  0  0  0  0  0  0  0  0  0
   -1.7269    1.6663    0.6150 O   0  0  0  0  0  0  0  0  0  0  0  0
    0.1303    1.6323    1.8801 N   0  0  0  0  0  0  0  0  0  0  0  0
    0.9401    1.0926    2.1718 H   0  0  0  0  0  0  0  0  0  0  0  0
   -0.1493    2.9003    2.5426 C   0  0  0  0  0  0  0  0  0  0  0  0
   -1.1047    2.8515    3.0756 H   0  0  0  0  0  0  0  0  0  0  0  0
    0.6388    3.1312    3.2658 H   0  0  0  0  0  0  0  0  0  0  0  0
   -0.1950    3.7132    1.8102 H   0  0  0  0  0  0  0  0  0  0  0  0
  1  2  1  0  0  0  0
  2  3  1  0  0  0  0
  2  4  1  0  0  0  0
  2  5  1  0  0  0  0
  5  6  2  0  0  0  0
  5  7  1  0  0  0  0
  7  8  1  0  0  0  0
  7  9  1  0  0  0  0
  9 10  1  0  0  0  0
  9 11  1  0  0  0  0
  9 24  1  0  0  0  0
 11 12  1  0  0  0  0
 11 13  1  0  0  0  0
 11 14  1  0  0  0  0
 14 15  1  0  0  0  0
 14 16  1  0  0  0  0
 14 20  1  0  0  0  0
 16 17  1  0  0  0  0
 16 18  1  0  0  0  0
 16 19  1  0  0  0  0
 20 21  1  0  0  0  0
 20 22  1  0  0  0  0
 20 23  1  0  0  0  0
 24 25  2  0  0  0  0
 24 26  1  0  0  0  0
 26 27  1  0  0  0  0
 26 28  1  0  0  0  0
 28 29  1  0  0  0  0
 28 30  1  0  0  0  0
 28 31  1  0  0  0  0
M  END
$$$$

  -OEChem-03222214063D

 31 30  0     1  0  0  0  0  0999 V2000
   -3.3248   -3.9200    1.0963 H   0  0  0  0  0  0  0  0  0  0  0  0
   -3.3182   -2.9032    0.6935 C   0  0  0  0  0  0  0  0  0  0  0  0
   -3.9731   -2.2776    1.3050 H   0  0  0  0  0  0  0  0  0  0  0  0
   -3.6996   -2.9267   -0.3302 H   0  0  0  0  0  0  0  0  0  0  0  0
   -1.9078   -2.3450    0.7071 C   0  0  0  0  0  0  0  0  0  0  0  0
   -0.9799   -3.0368    1.0965 O   0  0  0  0  0  0  0  0  0  0  0  0
   -1.6795   -1.0541    0.2791 N   0  0  0  0  0  0  0  0  0  0  0  0
   -2.4953   -0.4782    0.0733 H   0  0  0  0  0  0  0  0  0  0  0  0
   -0.3919   -0.3507    0.3850 C   0  0  1  0  0  0  0  0  0  0  0  0
    0.1955   -0.8300    1.1754 H   0  0  0  0  0  0  0  0  0  0  0  0
    0.4000   -0.5715   -0.9447 C   0  0  0  0  0  0  0  0  0  0  0  0
    1.2975   -1.1158   -0.6320 H   0  0  0  0  0  0  0  0  0  0  0  0
   -0.1643   -1.2774   -1.5638 H   0  0  0  0  0  0  0  0  0  0  0  0
    0.8767    0.5646   -1.9094 C   0  0  0  0  0  0  0  0  0  0  0  0
    0.1868    0.5480   -2.7602 H   0  0  0  0  0  0  0  0  0  0  0  0
    0.8911    2.0210   -1.4282 C   0  0  0  0  0  0  0  0  0  0  0  0
    1.4490    2.1182   -0.4926 H   0  0  0  0  0  0  0  0  0  0  0  0
   -0.1253    2.3994   -1.2980 H   0  0  0  0  0  0  0  0  0  0  0  0
    1.3730    2.6605   -2.1744 H   0  0  0  0  0  0  0  0  0  0  0  0
    2.2726    0.2157   -2.4475 C   0  0  0  0  0  0  0  0  0  0  0  0
    2.2770   -0.7929   -2.8730 H   0  0  0  0  0  0  0  0  0  0  0  0
    2.5674    0.9161   -3.2352 H   0  0  0  0  0  0  0  0  0  0  0  0
    3.0176    0.2608   -1.6466 H   0  0  0  0  0  0  0  0  0  0  0  0
   -0.6564    1.0753    0.9096 C   0  0  0  0  0  0  0  0  0  0  0  0
   -1.6839    1.6666    0.5899 O   0  0  0  0  0  0  0  0  0  0  0  0
    0.1393    1.6101    1.9070 N   0  0  0  0  0  0  0  0  0  0  0  0
    0.9358    1.0618    2.2191 H   0  0  0  0  0  0  0  0  0  0  0  0
   -0.1282    2.8935    2.5441 C   0  0  0  0  0  0  0  0  0  0  0  0
   -1.0961    2.8733    3.0558 H   0  0  0  0  0  0  0  0  0  0  0  0
    0.6481    3.1191    3.2813 H   0  0  0  0  0  0  0  0  0  0  0  0
   -0.1400    3.6957    1.7987 H   0  0  0  0  0  0  0  0  0  0  0  0
  1  2  1  0  0  0  0
  2  3  1  0  0  0  0
  2  4  1  0  0  0  0
  2  5  1  0  0  0  0
  5  6  2  0  0  0  0
  5  7  1  0  0  0  0
  7  8  1  0  0  0  0
  7  9  1  0  0  0  0
  9 10  1  0  0  0  0
  9 11  1  0  0  0  0
  9 24  1  0  0  0  0
 11 12  1  0  0  0  0
 11 13  1  0  0  0  0
 11 14  1  0  0  0  0
 14 15  1  0  0  0  0
 14 16  1  0  0  0  0
 14 20  1  0  0  0  0
 16 17  1  0  0  0  0
 16 18  1  0  0  0  0
 16 19  1  0  0  0  0
 20 21  1  0  0  0  0
 20 22  1  0  0  0  0
 20 23  1  0  0  0  0
 24 25  2  0  0  0  0
 24 26  1  0  0  0  0
 26 27  1  0  0  0  0
 26 28  1  0  0  0  0
 28 29  1  0  0  0  0
 28 30  1  0  0  0  0
 28 31  1  0  0  0  0
M  END
$$$$

  -OEChem-03222214063D

 31 30  0     1  0  0  0  0  0999 V2000
   -3.3138   -3.9240    1.0945 H   0  0  0  0  0  0  0  0  0  0  0  0
   -3.2957   -2.9100    0.6854 C   0  0  0  0  0  0  0  0  0  0  0  0
   -3.9544   -2.2764    1.2843 H   0  0  0  0  0  0  0  0  0  0  0  0
   -3.6640   -2.9376   -0.3429 H   0  0  0  0  0  0  0  0  0  0  0  0
   -1.8828   -2.3590    0.7133 C   0  0  0  0  0  0  0  0  0  0  0  0
   -0.9653   -3.0477    1.1318 O   0  0  0  0  0  0  0  0  0  0  0  0
   -1.6421   -1.0752    0.2720 N   0  0  0  0  0  0  0  0  0  0  0  0
   -2.4506   -0.5004    0.0367 H   0  0  0  0  0  0  0  0  0  0  0  0
   -0.3503   -0.3800    0.3796 C   0  0  1  0  0  0  0  0  0  0  0  0
    0.2492   -0.8576    1.1619 H   0  0  0  0  0  0  0  0  0  0  0  0
    0.4108   -0.5778   -0.9696 C   0  0  0  0  0  0  0  0  0  0  0  0
    1.3187   -1.1235   -0.6910 H   0  0  0  0  0  0  0  0  0  0  0  0
   -0.1662   -1.2650   -1.5980 H   0  0  0  0  0  0  0  0  0  0  0  0
    0.8654    0.5908   -1.8977 C   0  0  0  0  0  0  0  0  0  0  0  0
    0.0311    0.7911   -2.5790 H   0  0  0  0  0  0  0  0  0  0  0  0
    1.2198    1.9440   -1.2623 C   0  0  0  0  0  0  0  0  0  0  0  0
    1.8329    1.8019   -0.3675 H   0  0  0  0  0  0  0  0  0  0  0  0
    1.7875    2.5588   -1.9676 H   0  0  0  0  0  0  0  0  0  0  0  0
    0.3207    2.5099   -1.0085 H   0  0  0  0  0  0  0  0  0  0  0  0
    2.0508    0.1103   -2.7475 C   0  0  0  0  0  0  0  0  0  0  0  0
    1.8051   -0.8318   -3.2480 H   0  0  0  0  0  0  0  0  0  0  0  0
    2.2963    0.8489   -3.5171 H   0  0  0  0  0  0  0  0  0  0  0  0
    2.9359   -0.0468   -2.1227 H   0  0  0  0  0  0  0  0  0  0  0  0
   -0.6309    1.0488    0.8861 C   0  0  0  0  0  0  0  0  0  0  0  0
   -1.6318    1.6504    0.5071 O   0  0  0  0  0  0  0  0  0  0  0  0
    0.1464    1.6012    1.8884 N   0  0  0  0  0  0  0  0  0  0  0  0
    0.9275    1.0518    2.2353 H   0  0  0  0  0  0  0  0  0  0  0  0
   -0.1265    2.9003    2.4899 C   0  0  0  0  0  0  0  0  0  0  0  0
   -1.1111    2.9012    2.9692 H   0  0  0  0  0  0  0  0  0  0  0  0
    0.6276    3.1318    3.2481 H   0  0  0  0  0  0  0  0  0  0  0  0
   -0.1040    3.6870    1.7285 H   0  0  0  0  0  0  0  0  0  0  0  0
  1  2  1  0  0  0  0
  2  3  1  0  0  0  0
  2  4  1  0  0  0  0
  2  5  1  0  0  0  0
  5  6  2  0  0  0  0
  5  7  1  0  0  0  0
  7  8  1  0  0  0  0
  7  9  1  0  0  0  0
  9 10  1  0  0  0  0
  9 11  1  0  0  0  0
  9 24  1  0  0  0  0
 11 12  1  0  0  0  0
 11 13  1  0  0  0  0
 11 14  1  0  0  0  0
 14 15  1  0  0  0  0
 14 16  1  0  0  0  0
 14 20  1  0  0  0  0
 16 17  1  0  0  0  0
 16 18  1  0  0  0  0
 16 19  1  0  0  0  0
 20 21  1  0  0  0  0
 20 22  1  0  0  0  0
 20 23  1  0  0  0  0
 24 25  2  0  0  0  0
 24 26  1  0  0  0  0
 26 27  1  0  0  0  0
 26 28  1  0  0  0  0
 28 29  1  0  0  0  0
 28 30  1  0  0  0  0
 28 31  1  0  0  0  0
M  END
$$$$

  -OEChem-03222214063D

 31 30  0     1  0  0  0  0  0999 V2000
   -3.3393   -3.9015    1.1332 H   0  0  0  0  0  0  0  0  0  0  0  0
   -3.3041   -2.9041    0.6859 C   0  0  0  0  0  0  0  0  0  0  0  0
   -3.9743   -2.2446    1.2425 H   0  0  0  0  0  0  0  0  0  0  0  0
   -3.6453   -2.9695   -0.3500 H   0  0  0  0  0  0  0  0  0  0  0  0
   -1.8887   -2.3604    0.7299 C   0  0  0  0  0  0  0  0  0  0  0  0
   -0.9846   -3.0447    1.1829 O   0  0  0  0  0  0  0  0  0  0  0  0
   -1.6296   -1.0887    0.2640 N   0  0  0  0  0  0  0  0  0  0  0  0
   -2.4273   -0.5156   -0.0089 H   0  0  0  0  0  0  0  0  0  0  0  0
   -0.3303   -0.4068    0.3668 C   0  0  1  0  0  0  0  0  0  0  0  0
    0.2734   -0.8804    1.1481 H   0  0  0  0  0  0  0  0  0  0  0  0
    0.4111   -0.6045   -0.9907 C   0  0  0  0  0  0  0  0  0  0  0  0
    1.3201   -1.1647   -0.7476 H   0  0  0  0  0  0  0  0  0  0  0  0
   -0.1900   -1.2652   -1.6251 H   0  0  0  0  0  0  0  0  0  0  0  0
    0.8460    0.5954   -1.8788 C   0  0  0  0  0  0  0  0  0  0  0  0
   -0.0546    0.9918   -2.3606 H   0  0  0  0  0  0  0  0  0  0  0  0
    1.5265    1.7754   -1.1629 C   0  0  0  0  0  0  0  0  0  0  0  0
    2.1659    1.4164   -0.3507 H   0  0  0  0  0  0  0  0  0  0  0  0
    2.1501    2.3412   -1.8622 H   0  0  0  0  0  0  0  0  0  0  0  0
    0.7900    2.4768   -0.7644 H   0  0  0  0  0  0  0  0  0  0  0  0
    1.7751    0.0704   -2.9823 C   0  0  0  0  0  0  0  0  0  0  0  0
    1.2977   -0.7506   -3.5266 H   0  0  0  0  0  0  0  0  0  0  0  0
    2.0043    0.8643   -3.7000 H   0  0  0  0  0  0  0  0  0  0  0  0
    2.7148   -0.2943   -2.5555 H   0  0  0  0  0  0  0  0  0  0  0  0
   -0.5994    1.0349    0.8420 C   0  0  0  0  0  0  0  0  0  0  0  0
   -1.5620    1.6583    0.4048 O   0  0  0  0  0  0  0  0  0  0  0  0
    0.1757    1.5988    1.8398 N   0  0  0  0  0  0  0  0  0  0  0  0
    0.9292    1.0365    2.2250 H   0  0  0  0  0  0  0  0  0  0  0  0
   -0.0741    2.9226    2.3961 C   0  0  0  0  0  0  0  0  0  0  0  0
   -1.0754    2.9704    2.8368 H   0  0  0  0  0  0  0  0  0  0  0  0
    0.6580    3.1490    3.1770 H   0  0  0  0  0  0  0  0  0  0  0  0
    0.0050    3.6868    1.6159 H   0  0  0  0  0  0  0  0  0  0  0  0
  1  2  1  0  0  0  0
  2  3  1  0  0  0  0
  2  4  1  0  0  0  0
  2  5  1  0  0  0  0
  5  6  2  0  0  0  0
  5  7  1  0  0  0  0
  7  8  1  0  0  0  0
  7  9  1  0  0  0  0
  9 10  1  0  0  0  0
  9 11  1  0  0  0  0
  9 24  1  0  0  0  0
 11 12  1  0  0  0  0
 11 13  1  0  0  0  0
 11 14  1  0  0  0  0
 14 15  1  0  0  0  0
 14 16  1  0  0  0  0
 14 20  1  0  0  0  0
 16 17  1  0  0  0  0
 16 18  1  0  0  0  0
 16 19  1  0  0  0  0
 20 21  1  0  0  0  0
 20 22  1  0  0  0  0
 20 23  1  0  0  0  0
 24 25  2  0  0  0  0
 24 26  1  0  0  0  0
 26 27  1  0  0  0  0
 26 28  1  0  0  0  0
 28 29  1  0  0  0  0
 28 30  1  0  0  0  0
 28 31  1  0  0  0  0
M  END
$$$$

  -OEChem-03222214063D

 31 30  0     1  0  0  0  0  0999 V2000
   -3.3590   -3.8873    1.1691 H   0  0  0  0  0  0  0  0  0  0  0  0
   -3.3141   -2.9068    0.6872 C   0  0  0  0  0  0  0  0  0  0  0  0
   -3.9961   -2.2285    1.2056 H   0  0  0  0  0  0  0  0  0  0  0  0
   -3.6334   -3.0098   -0.3527 H   0  0  0  0  0  0  0  0  0  0  0  0
   -1.8991   -2.3623    0.7415 C   0  0  0  0  0  0  0  0  0  0  0  0
   -1.0018   -3.0400    1.2172 O   0  0  0  0  0  0  0  0  0  0  0  0
   -1.6321   -1.0996    0.2556 N   0  0  0  0  0  0  0  0  0  0  0  0
   -2.4240   -0.5323   -0.0443 H   0  0  0  0  0  0  0  0  0  0  0  0
   -0.3297   -0.4223    0.3502 C   0  0  1  0  0  0  0  0  0  0  0  0
    0.2743   -0.8909    1.1341 H   0  0  0  0  0  0  0  0  0  0  0  0
    0.4058   -0.6318   -1.0062 C   0  0  0  0  0  0  0  0  0  0  0  0
    1.3143   -1.2033   -0.7889 H   0  0  0  0  0  0  0  0  0  0  0  0
   -0.2138   -1.2748   -1.6406 H   0  0  0  0  0  0  0  0  0  0  0  0
    0.8176    0.5941   -1.8614 C   0  0  0  0  0  0  0  0  0  0  0  0
   -0.0870    1.1485   -2.1354 H   0  0  0  0  0  0  0  0  0  0  0  0
    1.7850    1.5672   -1.1637 C   0  0  0  0  0  0  0  0  0  0  0  0
    2.4916    1.0225   -0.5301 H   0  0  0  0  0  0  0  0  0  0  0  0
    2.3568    2.1365   -1.9031 H   0  0  0  0  0  0  0  0  0  0  0  0
    1.2463    2.2956   -0.5557 H   0  0  0  0  0  0  0  0  0  0  0  0
    1.4695    0.0867   -3.1553 C   0  0  0  0  0  0  0  0  0  0  0  0
    0.7955   -0.5941   -3.6847 H   0  0  0  0  0  0  0  0  0  0  0  0
    1.6969    0.9239   -3.8229 H   0  0  0  0  0  0  0  0  0  0  0  0
    2.4003   -0.4461   -2.9356 H   0  0  0  0  0  0  0  0  0  0  0  0
   -0.5765    1.0322    0.8009 C   0  0  0  0  0  0  0  0  0  0  0  0
   -1.5174    1.6697    0.3389 O   0  0  0  0  0  0  0  0  0  0  0  0
    0.2078    1.6013    1.7887 N   0  0  0  0  0  0  0  0  0  0  0  0
    0.9445    1.0295    2.1921 H   0  0  0  0  0  0  0  0  0  0  0  0
   -0.0098    2.9449    2.3105 C   0  0  0  0  0  0  0  0  0  0  0  0
   -1.0116    3.0301    2.7440 H   0  0  0  0  0  0  0  0  0  0  0  0
    0.7242    3.1713    3.0897 H   0  0  0  0  0  0  0  0  0  0  0  0
    0.0933    3.6872    1.5121 H   0  0  0  0  0  0  0  0  0  0  0  0
  1  2  1  0  0  0  0
  2  3  1  0  0  0  0
  2  4  1  0  0  0  0
  2  5  1  0  0  0  0
  5  6  2  0  0  0  0
  5  7  1  0  0  0  0
  7  8  1  0  0  0  0
  7  9  1  0  0  0  0
  9 10  1  0  0  0  0
  9 11  1  0  0  0  0
  9 24  1  0  0  0  0
 11 12  1  0  0  0  0
 11 13  1  0  0  0  0
 11 14  1  0  0  0  0
 14 15  1  0  0  0  0
 14 16  1  0  0  0  0
 14 20  1  0  0  0  0
 16 17  1  0  0  0  0
 16 18  1  0  0  0  0
 16 19  1  0  0  0  0
 20 21  1  0  0  0  0
 20 22  1  0  0  0  0
 20 23  1  0  0  0  0
 24 25  2  0  0  0  0
 24 26  1  0  0  0  0
 26 27  1  0  0  0  0
 26 28  1  0  0  0  0
 28 29  1  0  0  0  0
 28 30  1  0  0  0  0
 28 31  1  0  0  0  0
M  END
$$$$

  -OEChem-03222214063D

 31 30  0     1  0  0  0  0  0999 V2000
   -3.3710   -3.8789    1.1868 H   0  0  0  0  0  0  0  0  0  0  0  0
   -3.3276   -2.8907    0.7206 C   0  0  0  0  0  0  0  0  0  0  0  0
   -3.9910   -2.2147    1.2654 H   0  0  0  0  0  0  0  0  0  0  0  0
   -3.6717   -2.9734   -0.3132 H   0  0  0  0  0  0  0  0  0  0  0  0
   -1.9070   -2.3594    0.7521 C   0  0  0  0  0  0  0  0  0  0  0  0
   -1.0109   -3.0383    1.2287 O   0  0  0  0  0  0  0  0  0  0  0  0
   -1.6344   -1.1057    0.2464 N   0  0  0  0  0  0  0  0  0  0  0  0
   -2.4258   -0.5342   -0.0472 H   0  0  0  0  0  0  0  0  0  0  0  0
   -0.3293   -0.4328    0.3323 C   0  0  1  0  0  0  0  0  0  0  0  0
    0.2726   -0.8922    1.1231 H   0  0  0  0  0  0  0  0  0  0  0  0
    0.4096   -0.6581   -1.0201 C   0  0  0  0  0  0  0  0  0  0  0  0
    1.3143   -1.2392   -0.8137 H   0  0  0  0  0  0  0  0  0  0  0  0
   -0.2207   -1.2927   -1.6526 H   0  0  0  0  0  0  0  0  0  0  0  0
    0.8098    0.5823   -1.8560 C   0  0  0  0  0  0  0  0  0  0  0  0
   -0.0390    1.2715   -1.9189 H   0  0  0  0  0  0  0  0  0  0  0  0
    2.0229    1.3235   -1.2713 C   0  0  0  0  0  0  0  0  0  0  0  0
    2.8806    0.6486   -1.1889 H   0  0  0  0  0  0  0  0  0  0  0  0
    2.3024    2.1586   -1.9212 H   0  0  0  0  0  0  0  0  0  0  0  0
    1.8120    1.7313   -0.2834 H   0  0  0  0  0  0  0  0  0  0  0  0
    1.1595    0.1385   -3.2825 C   0  0  0  0  0  0  0  0  0  0  0  0
    0.2980   -0.3427   -3.7559 H   0  0  0  0  0  0  0  0  0  0  0  0
    1.4435    1.0017   -3.8926 H   0  0  0  0  0  0  0  0  0  0  0  0
    1.9933   -0.5706   -3.2735 H   0  0  0  0  0  0  0  0  0  0  0  0
   -0.5697    1.0322    0.7602 C   0  0  0  0  0  0  0  0  0  0  0  0
   -1.5200    1.6595    0.3032 O   0  0  0  0  0  0  0  0  0  0  0  0
    0.2140    1.6160    1.7394 N   0  0  0  0  0  0  0  0  0  0  0  0
    0.9565    1.0534    2.1451 H   0  0  0  0  0  0  0  0  0  0  0  0
   -0.0032    2.9671    2.2412 C   0  0  0  0  0  0  0  0  0  0  0  0
   -1.0005    3.0561    2.6848 H   0  0  0  0  0  0  0  0  0  0  0  0
    0.7388    3.2090    3.0081 H   0  0  0  0  0  0  0  0  0  0  0  0
    0.0883    3.6959    1.4290 H   0  0  0  0  0  0  0  0  0  0  0  0
  1  2  1  0  0  0  0
  2  3  1  0  0  0  0
  2  4  1  0  0  0  0
  2  5  1  0  0  0  0
  5  6  2  0  0  0  0
  5  7  1  0  0  0  0
  7  8  1  0  0  0  0
  7  9  1  0  0  0  0
  9 10  1  0  0  0  0
  9 11  1  0  0  0  0
  9 24  1  0  0  0  0
 11 12  1  0  0  0  0
 11 13  1  0  0  0  0
 11 14  1  0  0  0  0
 14 15  1  0  0  0  0
 14 16  1  0  0  0  0
 14 20  1  0  0  0  0
 16 17  1  0  0  0  0
 16 18  1  0  0  0  0
 16 19  1  0  0  0  0
 20 21  1  0  0  0  0
 20 22  1  0  0  0  0
 20 23  1  0  0  0  0
 24 25  2  0  0  0  0
 24 26  1  0  0  0  0
 26 27  1  0  0  0  0
 26 28  1  0  0  0  0
 28 29  1  0  0  0  0
 28 30  1  0  0  0  0
 28 31  1  0  0  0  0
M  END
$$$$

  -OEChem-03222214063D

 31 30  0     1  0  0  0  0  0999 V2000
   -3.3621   -3.8985    1.2205 H   0  0  0  0  0  0  0  0  0  0  0  0
   -3.3353   -2.9122    0.7489 C   0  0  0  0  0  0  0  0  0  0  0  0
   -3.9963   -2.2395    1.3010 H   0  0  0  0  0  0  0  0  0  0  0  0
   -3.6947   -3.0027   -0.2790 H   0  0  0  0  0  0  0  0  0  0  0  0
   -1.9192   -2.3679    0.7546 C   0  0  0  0  0  0  0  0  0  0  0  0
   -1.0088   -3.0388    1.2153 O   0  0  0  0  0  0  0  0  0  0  0  0
   -1.6675   -1.1127    0.2417 N   0  0  0  0  0  0  0  0  0  0  0  0
   -2.4696   -0.5503   -0.0390 H   0  0  0  0  0  0  0  0  0  0  0  0
   -0.3682   -0.4271    0.3009 C   0  0  1  0  0  0  0  0  0  0  0  0
    0.2309   -0.8812    1.0970 H   0  0  0  0  0  0  0  0  0  0  0  0
    0.3999   -0.6618   -1.0305 C   0  0  0  0  0  0  0  0  0  0  0  0
    1.3095   -1.2300   -0.8097 H   0  0  0  0  0  0  0  0  0  0  0  0
   -0.2152   -1.3130   -1.6608 H   0  0  0  0  0  0  0  0  0  0  0  0
    0.7766    0.5927   -1.8592 C   0  0  0  0  0  0  0  0  0  0  0  0
    0.0231    1.3782   -1.7539 H   0  0  0  0  0  0  0  0  0  0  0  0
    2.1548    1.1248   -1.4417 C   0  0  0  0  0  0  0  0  0  0  0  0
    2.9311    0.3717   -1.6118 H   0  0  0  0  0  0  0  0  0  0  0  0
    2.4074    2.0187   -2.0207 H   0  0  0  0  0  0  0  0  0  0  0  0
    2.1602    1.3932   -0.3818 H   0  0  0  0  0  0  0  0  0  0  0  0
    0.8406    0.2247   -3.3476 C   0  0  0  0  0  0  0  0  0  0  0  0
   -0.1401   -0.1096   -3.7006 H   0  0  0  0  0  0  0  0  0  0  0  0
    1.1378    1.0937   -3.9432 H   0  0  0  0  0  0  0  0  0  0  0  0
    1.5648   -0.5784   -3.5184 H   0  0  0  0  0  0  0  0  0  0  0  0
   -0.5709    1.0433    0.7279 C   0  0  0  0  0  0  0  0  0  0  0  0
   -1.5422    1.6729    0.3212 O   0  0  0  0  0  0  0  0  0  0  0  0
    0.2517    1.6154    1.6812 N   0  0  0  0  0  0  0  0  0  0  0  0
    1.0061    1.0464    2.0545 H   0  0  0  0  0  0  0  0  0  0  0  0
    0.0630    2.9651    2.1980 C   0  0  0  0  0  0  0  0  0  0  0  0
   -0.9185    3.0602    2.6742 H   0  0  0  0  0  0  0  0  0  0  0  0
    0.8315    3.1957    2.9420 H   0  0  0  0  0  0  0  0  0  0  0  0
    0.1348    3.6981    1.3876 H   0  0  0  0  0  0  0  0  0  0  0  0
  1  2  1  0  0  0  0
  2  3  1  0  0  0  0
  2  4  1  0  0  0  0
  2  5  1  0  0  0  0
  5  6  2  0  0  0  0
  5  7  1  0  0  0  0
  7  8  1  0  0  0  0
  7  9  1  0  0  0  0
  9 10  1  0  0  0  0
  9 11  1  0  0  0  0
  9 24  1  0  0  0  0
 11 12  1  0  0  0  0
 11 13  1  0  0  0  0
 11 14  1  0  0  0  0
 14 15  1  0  0  0  0
 14 16  1  0  0  0  0
 14 20  1  0  0  0  0
 16 17  1  0  0  0  0
 16 18  1  0  0  0  0
 16 19  1  0  0  0  0
 20 21  1  0  0  0  0
 20 22  1  0  0  0  0
 20 23  1  0  0  0  0
 24 25  2  0  0  0  0
 24 26  1  0  0  0  0
 26 27  1  0  0  0  0
 26 28  1  0  0  0  0
 28 29  1  0  0  0  0
 28 30  1  0  0  0  0
 28 31  1  0  0  0  0
M  END
$$$$

  -OEChem-03222214063D

 31 30  0     1  0  0  0  0  0999 V2000
   -3.3497   -3.9012    1.2216 H   0  0  0  0  0  0  0  0  0  0  0  0
   -3.3307   -2.9119    0.7561 C   0  0  0  0  0  0  0  0  0  0  0  0
   -3.9858   -2.2443    1.3209 H   0  0  0  0  0  0  0  0  0  0  0  0
   -3.7025   -2.9966   -0.2679 H   0  0  0  0  0  0  0  0  0  0  0  0
   -1.9162   -2.3642    0.7482 C   0  0  0  0  0  0  0  0  0  0  0  0
   -0.9982   -3.0362    1.1919 O   0  0  0  0  0  0  0  0  0  0  0  0
   -1.6752   -1.1037    0.2432 N   0  0  0  0  0  0  0  0  0  0  0  0
   -2.4830   -0.5427   -0.0238 H   0  0  0  0  0  0  0  0  0  0  0  0
   -0.3792   -0.4114    0.2968 C   0  0  1  0  0  0  0  0  0  0  0  0
    0.2197   -0.8669    1.0921 H   0  0  0  0  0  0  0  0  0  0  0  0
    0.3964   -0.6492   -1.0299 C   0  0  0  0  0  0  0  0  0  0  0  0
    1.3066   -1.2094   -0.7910 H   0  0  0  0  0  0  0  0  0  0  0  0
   -0.2054   -1.3201   -1.6524 H   0  0  0  0  0  0  0  0  0  0  0  0
    0.7753    0.5980   -1.8783 C   0  0  0  0  0  0  0  0  0  0  0  0
    0.1949    1.4800   -1.5995 H   0  0  0  0  0  0  0  0  0  0  0  0
    2.2704    0.9066   -1.7300 C   0  0  0  0  0  0  0  0  0  0  0  0
    2.8797    0.0637   -2.0724 H   0  0  0  0  0  0  0  0  0  0  0  0
    2.5375    1.7893   -2.3196 H   0  0  0  0  0  0  0  0  0  0  0  0
    2.5121    1.1090   -0.6820 H   0  0  0  0  0  0  0  0  0  0  0  0
    0.4848    0.3273   -3.3606 C   0  0  0  0  0  0  0  0  0  0  0  0
   -0.5836    0.1426   -3.5109 H   0  0  0  0  0  0  0  0  0  0  0  0
    0.7695    1.1912   -3.9695 H   0  0  0  0  0  0  0  0  0  0  0  0
    1.0433   -0.5458   -3.7132 H   0  0  0  0  0  0  0  0  0  0  0  0
   -0.5767    1.0553    0.7361 C   0  0  0  0  0  0  0  0  0  0  0  0
   -1.5532    1.6862    0.3447 O   0  0  0  0  0  0  0  0  0  0  0  0
    0.2564    1.6196    1.6846 N   0  0  0  0  0  0  0  0  0  0  0  0
    1.0132    1.0466    2.0469 H   0  0  0  0  0  0  0  0  0  0  0  0
    0.0629    2.9589    2.2264 C   0  0  0  0  0  0  0  0  0  0  0  0
   -0.9145    3.0378    2.7138 H   0  0  0  0  0  0  0  0  0  0  0  0
    0.8369    3.1828    2.9665 H   0  0  0  0  0  0  0  0  0  0  0  0
    0.1205    3.7066    1.4286 H   0  0  0  0  0  0  0  0  0  0  0  0
  1  2  1  0  0  0  0
  2  3  1  0  0  0  0
  2  4  1  0  0  0  0
  2  5  1  0  0  0  0
  5  6  2  0  0  0  0
  5  7  1  0  0  0  0
  7  8  1  0  0  0  0
  7  9  1  0  0  0  0
  9 10  1  0  0  0  0
  9 11  1  0  0  0  0
  9 24  1  0  0  0  0
 11 12  1  0  0  0  0
 11 13  1  0  0  0  0
 11 14  1  0  0  0  0
 14 15  1  0  0  0  0
 14 16  1  0  0  0  0
 14 20  1  0  0  0  0
 16 17  1  0  0  0  0
 16 18  1  0  0  0  0
 16 19  1  0  0  0  0
 20 21  1  0  0  0  0
 20 22  1  0  0  0  0
 20 23  1  0  0  0  0
 24 25  2  0  0  0  0
 24 26  1  0  0  0  0
 26 27  1  0  0  0  0
 26 28  1  0  0  0  0
 28 29  1  0  0  0  0
 28 30  1  0  0  0  0
 28 31  1  0  0  0  0
M  END
$$$$

  -OEChem-03222214063D

 31 30  0     1  0  0  0  0  0999 V2000
   -3.3440   -3.9056    1.2039 H   0  0  0  0  0  0  0  0  0  0  0  0
   -3.3217   -2.9150    0.7410 C   0  0  0  0  0  0  0  0  0  0  0  0
   -3.9862   -2.2507    1.2989 H   0  0  0  0  0  0  0  0  0  0  0  0
   -3.6807   -2.9985   -0.2876 H   0  0  0  0  0  0  0  0  0  0  0  0
   -1.9082   -2.3637    0.7529 C   0  0  0  0  0  0  0  0  0  0  0  0
   -0.9952   -3.0341    1.2090 O   0  0  0  0  0  0  0  0  0  0  0  0
   -1.6615   -1.1031    0.2504 N   0  0  0  0  0  0  0  0  0  0  0  0
   -2.4657   -0.5439   -0.0308 H   0  0  0  0  0  0  0  0  0  0  0  0
   -0.3650   -0.4120    0.3120 C   0  0  1  0  0  0  0  0  0  0  0  0
    0.2357   -0.8681    1.1060 H   0  0  0  0  0  0  0  0  0  0  0  0
    0.3990   -0.6467   -1.0229 C   0  0  0  0  0  0  0  0  0  0  0  0
    1.3121   -1.1951   -0.7687 H   0  0  0  0  0  0  0  0  0  0  0  0
   -0.1863   -1.3342   -1.6430 H   0  0  0  0  0  0  0  0  0  0  0  0
    0.7876    0.5926   -1.8834 C   0  0  0  0  0  0  0  0  0  0  0  0
    0.4703    1.5306   -1.4251 H   0  0  0  0  0  0  0  0  0  0  0  0
    2.3095    0.6642   -2.0581 C   0  0  0  0  0  0  0  0  0  0  0  0
    2.6848   -0.2345   -2.5584 H   0  0  0  0  0  0  0  0  0  0  0  0
    2.5835    1.5361   -2.6604 H   0  0  0  0  0  0  0  0  0  0  0  0
    2.8005    0.7529   -1.0839 H   0  0  0  0  0  0  0  0  0  0  0  0
    0.1176    0.5145   -3.2602 C   0  0  0  0  0  0  0  0  0  0  0  0
   -0.9713    0.4936   -3.1498 H   0  0  0  0  0  0  0  0  0  0  0  0
    0.3836    1.3881   -3.8637 H   0  0  0  0  0  0  0  0  0  0  0  0
    0.4328   -0.3866   -3.7959 H   0  0  0  0  0  0  0  0  0  0  0  0
   -0.5774    1.0522    0.7516 C   0  0  0  0  0  0  0  0  0  0  0  0
   -1.5426    1.6840    0.3344 O   0  0  0  0  0  0  0  0  0  0  0  0
    0.2426    1.6226    1.7078 N   0  0  0  0  0  0  0  0  0  0  0  0
    0.9952    1.0529    2.0835 H   0  0  0  0  0  0  0  0  0  0  0  0
    0.0480    2.9695    2.2300 C   0  0  0  0  0  0  0  0  0  0  0  0
   -0.9346    3.0583    2.7052 H   0  0  0  0  0  0  0  0  0  0  0  0
    0.8149    3.1997    2.9759 H   0  0  0  0  0  0  0  0  0  0  0  0
    0.1179    3.7070    1.4235 H   0  0  0  0  0  0  0  0  0  0  0  0
  1  2  1  0  0  0  0
  2  3  1  0  0  0  0
  2  4  1  0  0  0  0
  2  5  1  0  0  0  0
  5  6  2  0  0  0  0
  5  7  1  0  0  0  0
  7  8  1  0  0  0  0
  7  9  1  0  0  0  0
  9 10  1  0  0  0  0
  9 11  1  0  0  0  0
  9 24  1  0  0  0  0
 11 12  1  0  0  0  0
 11 13  1  0  0  0  0
 11 14  1  0  0  0  0
 14 15  1  0  0  0  0
 14 16  1  0  0  0  0
 14 20  1  0  0  0  0
 16 17  1  0  0  0  0
 16 18  1  0  0  0  0
 16 19  1  0  0  0  0
 20 21  1  0  0  0  0
 20 22  1  0  0  0  0
 20 23  1  0  0  0  0
 24 25  2  0  0  0  0
 24 26  1  0  0  0  0
 26 27  1  0  0  0  0
 26 28  1  0  0  0  0
 28 29  1  0  0  0  0
 28 30  1  0  0  0  0
 28 31  1  0  0  0  0
M  END
$$$$

  -OEChem-03222214063D

 31 30  0     1  0  0  0  0  0999 V2000
   -3.3499   -3.9004    1.2151 H   0  0  0  0  0  0  0  0  0  0  0  0
   -3.3163   -2.9202    0.7313 C   0  0  0  0  0  0  0  0  0  0  0  0
   -3.9929   -2.2436    1.2591 H   0  0  0  0  0  0  0  0  0  0  0  0
   -3.6515   -3.0260   -0.3033 H   0  0  0  0  0  0  0  0  0  0  0  0
   -1.9033   -2.3691    0.7629 C   0  0  0  0  0  0  0  0  0  0  0  0
   -0.9990   -3.0340    1.2437 O   0  0  0  0  0  0  0  0  0  0  0  0
   -1.6474   -1.1138    0.2524 N   0  0  0  0  0  0  0  0  0  0  0  0
   -2.4444   -0.5593   -0.0567 H   0  0  0  0  0  0  0  0  0  0  0  0
   -0.3489   -0.4276    0.3188 C   0  0  1  0  0  0  0  0  0  0  0  0
    0.2533   -0.8818    1.1126 H   0  0  0  0  0  0  0  0  0  0  0  0
    0.4024   -0.6602   -1.0236 C   0  0  0  0  0  0  0  0  0  0  0  0
    1.3214   -1.1963   -0.7643 H   0  0  0  0  0  0  0  0  0  0  0  0
   -0.1724   -1.3509   -1.6502 H   0  0  0  0  0  0  0  0  0  0  0  0
    0.7887    0.5835   -1.8735 C   0  0  0  0  0  0  0  0  0  0  0  0
    0.7632    1.4987   -1.2787 H   0  0  0  0  0  0  0  0  0  0  0  0
    2.2306    0.4599   -2.3800 C   0  0  0  0  0  0  0  0  0  0  0  0
    2.3480   -0.4404   -2.9919 H   0  0  0  0  0  0  0  0  0  0  0  0
    2.4959    1.3303   -2.9886 H   0  0  0  0  0  0  0  0  0  0  0  0
    2.9290    0.4051   -1.5392 H   0  0  0  0  0  0  0  0  0  0  0  0
   -0.1842    0.7565   -3.0444 C   0  0  0  0  0  0  0  0  0  0  0  0
   -1.2085    0.8627   -2.6728 H   0  0  0  0  0  0  0  0  0  0  0  0
    0.0676    1.6536   -3.6186 H   0  0  0  0  0  0  0  0  0  0  0  0
   -0.1431   -0.1075   -3.7151 H   0  0  0  0  0  0  0  0  0  0  0  0
   -0.5699    1.0394    0.7457 C   0  0  0  0  0  0  0  0  0  0  0  0
   -1.5199    1.6730    0.2977 O   0  0  0  0  0  0  0  0  0  0  0  0
    0.2387    1.6193    1.7062 N   0  0  0  0  0  0  0  0  0  0  0  0
    0.9848    1.0525    2.0992 H   0  0  0  0  0  0  0  0  0  0  0  0
    0.0451    2.9757    2.2038 C   0  0  0  0  0  0  0  0  0  0  0  0
   -0.9548    3.0862    2.6366 H   0  0  0  0  0  0  0  0  0  0  0  0
    0.7835    3.2036    2.9785 H   0  0  0  0  0  0  0  0  0  0  0  0
    0.1606    3.7015    1.3920 H   0  0  0  0  0  0  0  0  0  0  0  0
  1  2  1  0  0  0  0
  2  3  1  0  0  0  0
  2  4  1  0  0  0  0
  2  5  1  0  0  0  0
  5  6  2  0  0  0  0
  5  7  1  0  0  0  0
  7  8  1  0  0  0  0
  7  9  1  0  0  0  0
  9 10  1  0  0  0  0
  9 11  1  0  0  0  0
  9 24  1  0  0  0  0
 11 12  1  0  0  0  0
 11 13  1  0  0  0  0
 11 14  1  0  0  0  0
 14 15  1  0  0  0  0
 14 16  1  0  0  0  0
 14 20  1  0  0  0  0
 16 17  1  0  0  0  0
 16 18  1  0  0  0  0
 16 19  1  0  0  0  0
 20 21  1  0  0  0  0
 20 22  1  0  0  0  0
 20 23  1  0  0  0  0
 24 25  2  0  0  0  0
 24 26  1  0  0  0  0
 26 27  1  0  0  0  0
 26 28  1  0  0  0  0
 28 29  1  0  0  0  0
 28 30  1  0  0  0  0
 28 31  1  0  0  0  0
M  END
$$$$

  -OEChem-03222214063D

 31 30  0     1  0  0  0  0  0999 V2000
   -3.3428   -3.9013    1.2221 H   0  0  0  0  0  0  0  0  0  0  0  0
   -3.3193   -2.9156    0.7490 C   0  0  0  0  0  0  0  0  0  0  0  0
   -3.9836   -2.2450    1.2994 H   0  0  0  0  0  0  0  0  0  0  0  0
   -3.6772   -3.0089   -0.2791 H   0  0  0  0  0  0  0  0  0  0  0  0
   -1.9051   -2.3662    0.7558 C   0  0  0  0  0  0  0  0  0  0  0  0
   -0.9927   -3.0353    1.2151 O   0  0  0  0  0  0  0  0  0  0  0  0
   -1.6569   -1.1096    0.2444 N   0  0  0  0  0  0  0  0  0  0  0  0
   -2.4603   -0.5501   -0.0385 H   0  0  0  0  0  0  0  0  0  0  0  0
   -0.3600   -0.4201    0.3031 C   0  0  1  0  0  0  0  0  0  0  0  0
    0.2409   -0.8738    1.0982 H   0  0  0  0  0  0  0  0  0  0  0  0
    0.3997   -0.6580   -1.0318 C   0  0  0  0  0  0  0  0  0  0  0  0
    1.3253   -1.1792   -0.7658 H   0  0  0  0  0  0  0  0  0  0  0  0
   -0.1657   -1.3524   -1.6627 H   0  0  0  0  0  0  0  0  0  0  0  0
    0.7748    0.5883   -1.8726 C   0  0  0  0  0  0  0  0  0  0  0  0
    0.9882    1.4423   -1.2240 H   0  0  0  0  0  0  0  0  0  0  0  0
    2.0582    0.3189   -2.6670 C   0  0  0  0  0  0  0  0  0  0  0  0
    1.9276   -0.5430   -3.3294 H   0  0  0  0  0  0  0  0  0  0  0  0
    2.3186    1.1899   -3.2768 H   0  0  0  0  0  0  0  0  0  0  0  0
    2.8931    0.1150   -1.9892 H   0  0  0  0  0  0  0  0  0  0  0  0
   -0.3662    0.9614   -2.8270 C   0  0  0  0  0  0  0  0  0  0  0  0
   -1.2923    1.1371   -2.2725 H   0  0  0  0  0  0  0  0  0  0  0  0
   -0.1184    1.8748   -3.3766 H   0  0  0  0  0  0  0  0  0  0  0  0
   -0.5441    0.1591   -3.5498 H   0  0  0  0  0  0  0  0  0  0  0  0
   -0.5672    1.0493    0.7319 C   0  0  0  0  0  0  0  0  0  0  0  0
   -1.5409    1.6781    0.3311 O   0  0  0  0  0  0  0  0  0  0  0  0
    0.2561    1.6208    1.6850 N   0  0  0  0  0  0  0  0  0  0  0  0
    1.0093    1.0509    2.0595 H   0  0  0  0  0  0  0  0  0  0  0  0
    0.0522    2.9615    2.2198 C   0  0  0  0  0  0  0  0  0  0  0  0
   -0.9303    3.0388    2.6972 H   0  0  0  0  0  0  0  0  0  0  0  0
    0.8179    3.1909    2.9670 H   0  0  0  0  0  0  0  0  0  0  0  0
    0.1152    3.7063    1.4196 H   0  0  0  0  0  0  0  0  0  0  0  0
  1  2  1  0  0  0  0
  2  3  1  0  0  0  0
  2  4  1  0  0  0  0
  2  5  1  0  0  0  0
  5  6  2  0  0  0  0
  5  7  1  0  0  0  0
  7  8  1  0  0  0  0
  7  9  1  0  0  0  0
  9 10  1  0  0  0  0
  9 11  1  0  0  0  0
  9 24  1  0  0  0  0
 11 12  1  0  0  0  0
 11 13  1  0  0  0  0
 11 14  1  0  0  0  0
 14 15  1  0  0  0  0
 14 16  1  0  0  0  0
 14 20  1  0  0  0  0
 16 17  1  0  0  0  0
 16 18  1  0  0  0  0
 16 19  1  0  0  0  0
 20 21  1  0  0  0  0
 20 22  1  0  0  0  0
 20 23  1  0  0  0  0
 24 25  2  0  0  0  0
 24 26  1  0  0  0  0
 26 27  1  0  0  0  0
 26 28  1  0  0  0  0
 28 29  1  0  0  0  0
 28 30  1  0  0  0  0
 28 31  1  0  0  0  0
M  END
$$$$

  -OEChem-03222214063D

 31 30  0     1  0  0  0  0  0999 V2000
   -3.3141   -3.9190    1.2086 H   0  0  0  0  0  0  0  0  0  0  0  0
   -3.3179   -2.9161    0.7728 C   0  0  0  0  0  0  0  0  0  0  0  0
   -3.9581   -2.2709    1.3794 H   0  0  0  0  0  0  0  0  0  0  0  0
   -3.7239   -2.9730   -0.2399 H   0  0  0  0  0  0  0  0  0  0  0  0
   -1.9083   -2.3574    0.7333 C   0  0  0  0  0  0  0  0  0  0  0  0
   -0.9734   -3.0301    1.1390 O   0  0  0  0  0  0  0  0  0  0  0  0
   -1.6910   -1.0871    0.2420 N   0  0  0  0  0  0  0  0  0  0  0  0
   -2.5116   -0.5285    0.0121 H   0  0  0  0  0  0  0  0  0  0  0  0
   -0.4036   -0.3790    0.2852 C   0  0  1  0  0  0  0  0  0  0  0  0
    0.1917   -0.8380    1.0814 H   0  0  0  0  0  0  0  0  0  0  0  0
    0.3882   -0.6225   -1.0285 C   0  0  0  0  0  0  0  0  0  0  0  0
    1.3218   -1.1181   -0.7428 H   0  0  0  0  0  0  0  0  0  0  0  0
   -0.1578   -1.3349   -1.6567 H   0  0  0  0  0  0  0  0  0  0  0  0
    0.7510    0.6129   -1.8841 C   0  0  0  0  0  0  0  0  0  0  0  0
    1.1495    1.4111   -1.2496 H   0  0  0  0  0  0  0  0  0  0  0  0
    1.8272    0.2213   -2.9051 C   0  0  0  0  0  0  0  0  0  0  0  0
    1.4711   -0.5838   -3.5558 H   0  0  0  0  0  0  0  0  0  0  0  0
    2.0930    1.0806   -3.5287 H   0  0  0  0  0  0  0  0  0  0  0  0
    2.7323   -0.1207   -2.3937 H   0  0  0  0  0  0  0  0  0  0  0  0
   -0.4664    1.1295   -2.6681 C   0  0  0  0  0  0  0  0  0  0  0  0
   -1.2899    1.3957   -2.0042 H   0  0  0  0  0  0  0  0  0  0  0  0
   -0.1949    2.0208   -3.2425 H   0  0  0  0  0  0  0  0  0  0  0  0
   -0.8279    0.3658   -3.3640 H   0  0  0  0  0  0  0  0  0  0  0  0
   -0.5799    1.0857    0.7448 C   0  0  0  0  0  0  0  0  0  0  0  0
   -1.5987    1.7056    0.4602 O   0  0  0  0  0  0  0  0  0  0  0  0
    0.2835    1.6256    1.6813 N   0  0  0  0  0  0  0  0  0  0  0  0
    1.0603    1.0492    1.9922 H   0  0  0  0  0  0  0  0  0  0  0  0
    0.0837    2.9310    2.2989 C   0  0  0  0  0  0  0  0  0  0  0  0
   -0.8450    2.9422    2.8792 H   0  0  0  0  0  0  0  0  0  0  0  0
    0.9150    3.1625    2.9716 H   0  0  0  0  0  0  0  0  0  0  0  0
    0.0314    3.7129    1.5339 H   0  0  0  0  0  0  0  0  0  0  0  0
  1  2  1  0  0  0  0
  2  3  1  0  0  0  0
  2  4  1  0  0  0  0
  2  5  1  0  0  0  0
  5  6  2  0  0  0  0
  5  7  1  0  0  0  0
  7  8  1  0  0  0  0
  7  9  1  0  0  0  0
  9 10  1  0  0  0  0
  9 11  1  0  0  0  0
  9 24  1  0  0  0  0
 11 12  1  0  0  0  0
 11 13  1  0  0  0  0
 11 14  1  0  0  0  0
 14 15  1  0  0  0  0
 14 16  1  0  0  0  0
 14 20  1  0  0  0  0
 16 17  1  0  0  0  0
 16 18  1  0  0  0  0
 16 19  1  0  0  0  0
 20 21  1  0  0  0  0
 20 22  1  0  0  0  0
 20 23  1  0  0  0  0
 24 25  2  0  0  0  0
 24 26  1  0  0  0  0
 26 27  1  0  0  0  0
 26 28  1  0  0  0  0
 28 29  1  0  0  0  0
 28 30  1  0  0  0  0
 28 31  1  0  0  0  0
M  END
$$$$

  -OEChem-03222214063D

 31 30  0     1  0  0  0  0  0999 V2000
   -3.3220   -3.9082    1.1813 H   0  0  0  0  0  0  0  0  0  0  0  0
   -3.3160   -2.9052    0.7455 C   0  0  0  0  0  0  0  0  0  0  0  0
   -3.9613   -2.2575    1.3439 H   0  0  0  0  0  0  0  0  0  0  0  0
   -3.7095   -2.9602   -0.2723 H   0  0  0  0  0  0  0  0  0  0  0  0
   -1.9031   -2.3529    0.7240 C   0  0  0  0  0  0  0  0  0  0  0  0
   -0.9765   -3.0291    1.1429 O   0  0  0  0  0  0  0  0  0  0  0  0
   -1.6718   -1.0831    0.2380 N   0  0  0  0  0  0  0  0  0  0  0  0
   -2.4862   -0.5146    0.0081 H   0  0  0  0  0  0  0  0  0  0  0  0
   -0.3814   -0.3818    0.3128 C   0  0  1  0  0  0  0  0  0  0  0  0
    0.2135   -0.8328    1.1141 H   0  0  0  0  0  0  0  0  0  0  0  0
    0.4155   -0.6091   -1.0022 C   0  0  0  0  0  0  0  0  0  0  0  0
    1.1654   -1.3794   -0.7925 H   0  0  0  0  0  0  0  0  0  0  0  0
   -0.2716   -1.0390   -1.7393 H   0  0  0  0  0  0  0  0  0  0  0  0
    1.1266    0.5835   -1.6948 C   0  0  0  0  0  0  0  0  0  0  0  0
    1.8797    1.0055   -1.0210 H   0  0  0  0  0  0  0  0  0  0  0  0
    1.8233    0.0398   -2.9525 C   0  0  0  0  0  0  0  0  0  0  0  0
    1.0895   -0.3416   -3.6702 H   0  0  0  0  0  0  0  0  0  0  0  0
    2.4083    0.8273   -3.4383 H   0  0  0  0  0  0  0  0  0  0  0  0
    2.5069   -0.7739   -2.6904 H   0  0  0  0  0  0  0  0  0  0  0  0
    0.1807    1.7040   -2.1680 C   0  0  0  0  0  0  0  0  0  0  0  0
    0.6211    2.2604   -3.0014 H   0  0  0  0  0  0  0  0  0  0  0  0
   -0.0029    2.4285   -1.3725 H   0  0  0  0  0  0  0  0  0  0  0  0
   -0.7761    1.2893   -2.5006 H   0  0  0  0  0  0  0  0  0  0  0  0
   -0.6118    1.0725    0.7720 C   0  0  0  0  0  0  0  0  0  0  0  0
   -1.6415    1.6601    0.4534 O   0  0  0  0  0  0  0  0  0  0  0  0
    0.2031    1.6330    1.7388 N   0  0  0  0  0  0  0  0  0  0  0  0
    0.9889    1.0802    2.0691 H   0  0  0  0  0  0  0  0  0  0  0  0
   -0.0537    2.9304    2.3518 C   0  0  0  0  0  0  0  0  0  0  0  0
   -1.0064    2.9174    2.8916 H   0  0  0  0  0  0  0  0  0  0  0  0
    0.7422    3.1778    3.0609 H   0  0  0  0  0  0  0  0  0  0  0  0
   -0.0914    3.7139    1.5878 H   0  0  0  0  0  0  0  0  0  0  0  0
  1  2  1  0  0  0  0
  2  3  1  0  0  0  0
  2  4  1  0  0  0  0
  2  5  1  0  0  0  0
  5  6  2  0  0  0  0
  5  7  1  0  0  0  0
  7  8  1  0  0  0  0
  7  9  1  0  0  0  0
  9 10  1  0  0  0  0
  9 11  1  0  0  0  0
  9 24  1  0  0  0  0
 11 12  1  0  0  0  0
 11 13  1  0  0  0  0
 11 14  1  0  0  0  0
 14 15  1  0  0  0  0
 14 16  1  0  0  0  0
 14 20  1  0  0  0  0
 16 17  1  0  0  0  0
 16 18  1  0  0  0  0
 16 19  1  0  0  0  0
 20 21  1  0  0  0  0
 20 22  1  0  0  0  0
 20 23  1  0  0  0  0
 24 25  2  0  0  0  0
 24 26  1  0  0  0  0
 26 27  1  0  0  0  0
 26 28  1  0  0  0  0
 28 29  1  0  0  0  0
 28 30  1  0  0  0  0
 28 31  1  0  0  0  0
M  END
$$$$

  -OEChem-03222214063D

 31 30  0     1  0  0  0  0  0999 V2000
   -3.2923   -3.9346    1.1537 H   0  0  0  0  0  0  0  0  0  0  0  0
   -3.2950   -2.9297    0.7225 C   0  0  0  0  0  0  0  0  0  0  0  0
   -3.9492   -2.2915    1.3213 H   0  0  0  0  0  0  0  0  0  0  0  0
   -3.6842   -2.9845   -0.2970 H   0  0  0  0  0  0  0  0  0  0  0  0
   -1.8878   -2.3630    0.7092 C   0  0  0  0  0  0  0  0  0  0  0  0
   -0.9514   -3.0445    1.0965 O   0  0  0  0  0  0  0  0  0  0  0  0
   -1.6713   -1.0770    0.2604 N   0  0  0  0  0  0  0  0  0  0  0  0
   -2.4918   -0.5073    0.0569 H   0  0  0  0  0  0  0  0  0  0  0  0
   -0.3828   -0.3712    0.3366 C   0  0  1  0  0  0  0  0  0  0  0  0
    0.2246   -0.8390    1.1184 H   0  0  0  0  0  0  0  0  0  0  0  0
    0.3988   -0.5749   -0.9958 C   0  0  0  0  0  0  0  0  0  0  0  0
    1.1386   -1.3628   -0.8197 H   0  0  0  0  0  0  0  0  0  0  0  0
   -0.3191   -0.9845   -1.7150 H   0  0  0  0  0  0  0  0  0  0  0  0
    1.1199    0.5963   -1.7258 C   0  0  0  0  0  0  0  0  0  0  0  0
    2.0491    0.8307   -1.1959 H   0  0  0  0  0  0  0  0  0  0  0  0
    1.4485    0.1153   -3.1493 C   0  0  0  0  0  0  0  0  0  0  0  0
    0.5334   -0.0516   -3.7271 H   0  0  0  0  0  0  0  0  0  0  0  0
    2.0599    0.8558   -3.6746 H   0  0  0  0  0  0  0  0  0  0  0  0
    2.0120   -0.8224   -3.1141 H   0  0  0  0  0  0  0  0  0  0  0  0
    0.3113    1.8945   -1.9005 C   0  0  0  0  0  0  0  0  0  0  0  0
    0.3799    2.5225   -1.0095 H   0  0  0  0  0  0  0  0  0  0  0  0
    0.7031    2.4902   -2.7311 H   0  0  0  0  0  0  0  0  0  0  0  0
   -0.7403    1.6709   -2.1070 H   0  0  0  0  0  0  0  0  0  0  0  0
   -0.6228    1.0640    0.8462 C   0  0  0  0  0  0  0  0  0  0  0  0
   -1.6517    1.6603    0.5415 O   0  0  0  0  0  0  0  0  0  0  0  0
    0.1987    1.6036    1.8194 N   0  0  0  0  0  0  0  0  0  0  0  0
    0.9971    1.0519    2.1202 H   0  0  0  0  0  0  0  0  0  0  0  0
   -0.0447    2.8962    2.4478 C   0  0  0  0  0  0  0  0  0  0  0  0
   -1.0124    2.8971    2.9603 H   0  0  0  0  0  0  0  0  0  0  0  0
    0.7361    3.1124    3.1833 H   0  0  0  0  0  0  0  0  0  0  0  0
   -0.0425    3.6929    1.6965 H   0  0  0  0  0  0  0  0  0  0  0  0
  1  2  1  0  0  0  0
  2  3  1  0  0  0  0
  2  4  1  0  0  0  0
  2  5  1  0  0  0  0
  5  6  2  0  0  0  0
  5  7  1  0  0  0  0
  7  8  1  0  0  0  0
  7  9  1  0  0  0  0
  9 10  1  0  0  0  0
  9 11  1  0  0  0  0
  9 24  1  0  0  0  0
 11 12  1  0  0  0  0
 11 13  1  0  0  0  0
 11 14  1  0  0  0  0
 14 15  1  0  0  0  0
 14 16  1  0  0  0  0
 14 20  1  0  0  0  0
 16 17  1  0  0  0  0
 16 18  1  0  0  0  0
 16 19  1  0  0  0  0
 20 21  1  0  0  0  0
 20 22  1  0  0  0  0
 20 23  1  0  0  0  0
 24 25  2  0  0  0  0
 24 26  1  0  0  0  0
 26 27  1  0  0  0  0
 26 28  1  0  0  0  0
 28 29  1  0  0  0  0
 28 30  1  0  0  0  0
 28 31  1  0  0  0  0
M  END
$$$$

  -OEChem-03222214063D

 31 30  0     1  0  0  0  0  0999 V2000
   -3.2720   -3.9499    1.1263 H   0  0  0  0  0  0  0  0  0  0  0  0
   -3.2792   -2.9389    0.7096 C   0  0  0  0  0  0  0  0  0  0  0  0
   -3.9349   -2.3118    1.3184 H   0  0  0  0  0  0  0  0  0  0  0  0
   -3.6699   -2.9804   -0.3100 H   0  0  0  0  0  0  0  0  0  0  0  0
   -1.8741   -2.3668    0.7024 C   0  0  0  0  0  0  0  0  0  0  0  0
   -0.9343   -3.0495    1.0793 O   0  0  0  0  0  0  0  0  0  0  0  0
   -1.6640   -1.0730    0.2739 N   0  0  0  0  0  0  0  0  0  0  0  0
   -2.4869   -0.5048    0.0755 H   0  0  0  0  0  0  0  0  0  0  0  0
   -0.3789   -0.3615    0.3587 C   0  0  1  0  0  0  0  0  0  0  0  0
    0.2335   -0.8343    1.1336 H   0  0  0  0  0  0  0  0  0  0  0  0
    0.3958   -0.5580   -0.9835 C   0  0  0  0  0  0  0  0  0  0  0  0
    1.1279   -1.3551   -0.8173 H   0  0  0  0  0  0  0  0  0  0  0  0
   -0.3373   -0.9688   -1.6865 H   0  0  0  0  0  0  0  0  0  0  0  0
    1.1293    0.5875   -1.7538 C   0  0  0  0  0  0  0  0  0  0  0  0
    2.1689    0.6167   -1.4103 H   0  0  0  0  0  0  0  0  0  0  0  0
    1.0997    0.2422   -3.2528 C   0  0  0  0  0  0  0  0  0  0  0  0
    0.0778    0.2856   -3.6442 H   0  0  0  0  0  0  0  0  0  0  0  0
    1.7189    0.9421   -3.8227 H   0  0  0  0  0  0  0  0  0  0  0  0
    1.4930   -0.7659   -3.4178 H   0  0  0  0  0  0  0  0  0  0  0  0
    0.5624    2.0126   -1.6527 C   0  0  0  0  0  0  0  0  0  0  0  0
    0.8044    2.4638   -0.6881 H   0  0  0  0  0  0  0  0  0  0  0  0
    1.0040    2.6581   -2.4185 H   0  0  0  0  0  0  0  0  0  0  0  0
   -0.5224    2.0103   -1.7977 H   0  0  0  0  0  0  0  0  0  0  0  0
   -0.6449    1.0606    0.8926 C   0  0  0  0  0  0  0  0  0  0  0  0
   -1.6750    1.6525    0.5835 O   0  0  0  0  0  0  0  0  0  0  0  0
    0.1649    1.5973    1.8778 N   0  0  0  0  0  0  0  0  0  0  0  0
    0.9657    1.0494    2.1791 H   0  0  0  0  0  0  0  0  0  0  0  0
   -0.1044    2.8724    2.5310 C   0  0  0  0  0  0  0  0  0  0  0  0
   -1.0707    2.8430    3.0453 H   0  0  0  0  0  0  0  0  0  0  0  0
    0.6731    3.0911    3.2691 H   0  0  0  0  0  0  0  0  0  0  0  0
   -0.1205    3.6835    1.7955 H   0  0  0  0  0  0  0  0  0  0  0  0
  1  2  1  0  0  0  0
  2  3  1  0  0  0  0
  2  4  1  0  0  0  0
  2  5  1  0  0  0  0
  5  6  2  0  0  0  0
  5  7  1  0  0  0  0
  7  8  1  0  0  0  0
  7  9  1  0  0  0  0
  9 10  1  0  0  0  0
  9 11  1  0  0  0  0
  9 24  1  0  0  0  0
 11 12  1  0  0  0  0
 11 13  1  0  0  0  0
 11 14  1  0  0  0  0
 14 15  1  0  0  0  0
 14 16  1  0  0  0  0
 14 20  1  0  0  0  0
 16 17  1  0  0  0  0
 16 18  1  0  0  0  0
 16 19  1  0  0  0  0
 20 21  1  0  0  0  0
 20 22  1  0  0  0  0
 20 23  1  0  0  0  0
 24 25  2  0  0  0  0
 24 26  1  0  0  0  0
 26 27  1  0  0  0  0
 26 28  1  0  0  0  0
 28 29  1  0  0  0  0
 28 30  1  0  0  0  0
 28 31  1  0  0  0  0
M  END
$$$$

  -OEChem-03222214063D

 31 30  0     1  0  0  0  0  0999 V2000
   -3.3003   -3.9345    1.1390 H   0  0  0  0  0  0  0  0  0  0  0  0
   -3.2966   -2.9246    0.7195 C   0  0  0  0  0  0  0  0  0  0  0  0
   -3.9509   -2.2905    1.3225 H   0  0  0  0  0  0  0  0  0  0  0  0
   -3.6810   -2.9655   -0.3025 H   0  0  0  0  0  0  0  0  0  0  0  0
   -1.8869   -2.3638    0.7204 C   0  0  0  0  0  0  0  0  0  0  0  0
   -0.9558   -3.0501    1.1119 O   0  0  0  0  0  0  0  0  0  0  0  0
   -1.6627   -1.0740    0.2876 N   0  0  0  0  0  0  0  0  0  0  0  0
   -2.4787   -0.5000    0.0767 H   0  0  0  0  0  0  0  0  0  0  0  0
   -0.3719   -0.3731    0.3821 C   0  0  1  0  0  0  0  0  0  0  0  0
    0.2436   -0.8445    1.1554 H   0  0  0  0  0  0  0  0  0  0  0  0
    0.3816   -0.5706   -0.9756 C   0  0  0  0  0  0  0  0  0  0  0  0
    1.1074   -1.3738   -0.8096 H   0  0  0  0  0  0  0  0  0  0  0  0
   -0.3582   -0.9881   -1.6674 H   0  0  0  0  0  0  0  0  0  0  0  0
    1.1306    0.5533   -1.7717 C   0  0  0  0  0  0  0  0  0  0  0  0
    2.2022    0.3496   -1.6697 H   0  0  0  0  0  0  0  0  0  0  0  0
    0.7647    0.4410   -3.2612 C   0  0  0  0  0  0  0  0  0  0  0  0
   -0.2936    0.6747   -3.4177 H   0  0  0  0  0  0  0  0  0  0  0  0
    1.3647    1.1338   -3.8598 H   0  0  0  0  0  0  0  0  0  0  0  0
    0.9561   -0.5730   -3.6265 H   0  0  0  0  0  0  0  0  0  0  0  0
    0.9333    2.0234   -1.3815 C   0  0  0  0  0  0  0  0  0  0  0  0
    1.3209    2.2153   -0.3788 H   0  0  0  0  0  0  0  0  0  0  0  0
    1.4869    2.6728   -2.0670 H   0  0  0  0  0  0  0  0  0  0  0  0
   -0.1219    2.3061   -1.4353 H   0  0  0  0  0  0  0  0  0  0  0  0
   -0.6644    1.0475    0.9088 C   0  0  0  0  0  0  0  0  0  0  0  0
   -1.6838    1.6380    0.5629 O   0  0  0  0  0  0  0  0  0  0  0  0
    0.1209    1.5953    1.9079 N   0  0  0  0  0  0  0  0  0  0  0  0
    0.9163    1.0528    2.2322 H   0  0  0  0  0  0  0  0  0  0  0  0
   -0.1619    2.8791    2.5375 C   0  0  0  0  0  0  0  0  0  0  0  0
   -1.1382    2.8559    3.0330 H   0  0  0  0  0  0  0  0  0  0  0  0
    0.6014    3.1090    3.2872 H   0  0  0  0  0  0  0  0  0  0  0  0
   -0.1643    3.6795    1.7901 H   0  0  0  0  0  0  0  0  0  0  0  0
  1  2  1  0  0  0  0
  2  3  1  0  0  0  0
  2  4  1  0  0  0  0
  2  5  1  0  0  0  0
  5  6  2  0  0  0  0
  5  7  1  0  0  0  0
  7  8  1  0  0  0  0
  7  9  1  0  0  0  0
  9 10  1  0  0  0  0
  9 11  1  0  0  0  0
  9 24  1  0  0  0  0
 11 12  1  0  0  0  0
 11 13  1  0  0  0  0
 11 14  1  0  0  0  0
 14 15  1  0  0  0  0
 14 16  1  0  0  0  0
 14 20  1  0  0  0  0
 16 17  1  0  0  0  0
 16 18  1  0  0  0  0
 16 19  1  0  0  0  0
 20 21  1  0  0  0  0
 20 22  1  0  0  0  0
 20 23  1  0  0  0  0
 24 25  2  0  0  0  0
 24 26  1  0  0  0  0
 26 27  1  0  0  0  0
 26 28  1  0  0  0  0
 28 29  1  0  0  0  0
 28 30  1  0  0  0  0
 28 31  1  0  0  0  0
M  END
$$$$

  -OEChem-03222214063D

 31 30  0     1  0  0  0  0  0999 V2000
   -3.3523   -3.9215    1.1438 H   0  0  0  0  0  0  0  0  0  0  0  0
   -3.3251   -2.9214    0.7019 C   0  0  0  0  0  0  0  0  0  0  0  0
   -3.9974   -2.2695    1.2649 H   0  0  0  0  0  0  0  0  0  0  0  0
   -3.6706   -2.9833   -0.3329 H   0  0  0  0  0  0  0  0  0  0  0  0
   -1.9125   -2.3697    0.7433 C   0  0  0  0  0  0  0  0  0  0  0  0
   -1.0024   -3.0513    1.1887 O   0  0  0  0  0  0  0  0  0  0  0  0
   -1.6617   -1.0939    0.2851 N   0  0  0  0  0  0  0  0  0  0  0  0
   -2.4635   -0.5194    0.0263 H   0  0  0  0  0  0  0  0  0  0  0  0
   -0.3670   -0.4042    0.4018 C   0  0  1  0  0  0  0  0  0  0  0  0
    0.2427   -0.8641    1.1867 H   0  0  0  0  0  0  0  0  0  0  0  0
    0.3769   -0.5989   -0.9601 C   0  0  0  0  0  0  0  0  0  0  0  0
    1.1095   -1.3929   -0.7806 H   0  0  0  0  0  0  0  0  0  0  0  0
   -0.3447   -1.0294   -1.6629 H   0  0  0  0  0  0  0  0  0  0  0  0
    1.1333    0.5324   -1.7351 C   0  0  0  0  0  0  0  0  0  0  0  0
    2.1418    0.1391   -1.9053 H   0  0  0  0  0  0  0  0  0  0  0  0
    0.5114    0.7276   -3.1248 C   0  0  0  0  0  0  0  0  0  0  0  0
   -0.5179    1.0898   -3.0344 H   0  0  0  0  0  0  0  0  0  0  0  0
    1.0865    1.4569   -3.7040 H   0  0  0  0  0  0  0  0  0  0  0  0
    0.5037   -0.2158   -3.6800 H   0  0  0  0  0  0  0  0  0  0  0  0
    1.3494    1.9021   -1.0825 C   0  0  0  0  0  0  0  0  0  0  0  0
    1.7996    1.7908   -0.0929 H   0  0  0  0  0  0  0  0  0  0  0  0
    2.0368    2.4977   -1.6912 H   0  0  0  0  0  0  0  0  0  0  0  0
    0.4125    2.4604   -1.0065 H   0  0  0  0  0  0  0  0  0  0  0  0
   -0.6896    1.0264    0.8840 C   0  0  0  0  0  0  0  0  0  0  0  0
   -1.6714    1.6202    0.4469 O   0  0  0  0  0  0  0  0  0  0  0  0
    0.0506    1.6075    1.8984 N   0  0  0  0  0  0  0  0  0  0  0  0
    0.8230    1.0713    2.2831 H   0  0  0  0  0  0  0  0  0  0  0  0
   -0.2402    2.9242    2.4514 C   0  0  0  0  0  0  0  0  0  0  0  0
   -1.2488    2.9478    2.8773 H   0  0  0  0  0  0  0  0  0  0  0  0
    0.4749    3.1671    3.2432 H   0  0  0  0  0  0  0  0  0  0  0  0
   -0.1679    3.6908    1.6728 H   0  0  0  0  0  0  0  0  0  0  0  0
  1  2  1  0  0  0  0
  2  3  1  0  0  0  0
  2  4  1  0  0  0  0
  2  5  1  0  0  0  0
  5  6  2  0  0  0  0
  5  7  1  0  0  0  0
  7  8  1  0  0  0  0
  7  9  1  0  0  0  0
  9 10  1  0  0  0  0
  9 11  1  0  0  0  0
  9 24  1  0  0  0  0
 11 12  1  0  0  0  0
 11 13  1  0  0  0  0
 11 14  1  0  0  0  0
 14 15  1  0  0  0  0
 14 16  1  0  0  0  0
 14 20  1  0  0  0  0
 16 17  1  0  0  0  0
 16 18  1  0  0  0  0
 16 19  1  0  0  0  0
 20 21  1  0  0  0  0
 20 22  1  0  0  0  0
 20 23  1  0  0  0  0
 24 25  2  0  0  0  0
 24 26  1  0  0  0  0
 26 27  1  0  0  0  0
 26 28  1  0  0  0  0
 28 29  1  0  0  0  0
 28 30  1  0  0  0  0
 28 31  1  0  0  0  0
M  END
$$$$

  -OEChem-03222214063D

 31 30  0     1  0  0  0  0  0999 V2000
   -3.3417   -3.9306    1.1792 H   0  0  0  0  0  0  0  0  0  0  0  0
   -3.3087   -2.9389    0.7194 C   0  0  0  0  0  0  0  0  0  0  0  0
   -3.9882   -2.2766    1.2614 H   0  0  0  0  0  0  0  0  0  0  0  0
   -3.6405   -3.0199   -0.3185 H   0  0  0  0  0  0  0  0  0  0  0  0
   -1.8970   -2.3860    0.7687 C   0  0  0  0  0  0  0  0  0  0  0  0
   -0.9911   -3.0606    1.2327 O   0  0  0  0  0  0  0  0  0  0  0  0
   -1.6426   -1.1168    0.2949 N   0  0  0  0  0  0  0  0  0  0  0  0
   -2.4405   -0.5488    0.0117 H   0  0  0  0  0  0  0  0  0  0  0  0
   -0.3460   -0.4300    0.3985 C   0  0  1  0  0  0  0  0  0  0  0  0
    0.2803   -0.8869    1.1718 H   0  0  0  0  0  0  0  0  0  0  0  0
    0.3605   -0.6072   -0.9818 C   0  0  0  0  0  0  0  0  0  0  0  0
    1.1104   -1.3893   -0.8233 H   0  0  0  0  0  0  0  0  0  0  0  0
   -0.3605   -1.0347   -1.6870 H   0  0  0  0  0  0  0  0  0  0  0  0
    1.0868    0.5574   -1.7224 C   0  0  0  0  0  0  0  0  0  0  0  0
    1.9657    0.0878   -2.1782 H   0  0  0  0  0  0  0  0  0  0  0  0
    0.2449    1.0652   -2.8988 C   0  0  0  0  0  0  0  0  0  0  0  0
   -0.6919    1.4999   -2.5353 H   0  0  0  0  0  0  0  0  0  0  0  0
    0.7908    1.8328   -3.4562 H   0  0  0  0  0  0  0  0  0  0  0  0
    0.0073    0.2480   -3.5871 H   0  0  0  0  0  0  0  0  0  0  0  0
    1.6506    1.7228   -0.9016 C   0  0  0  0  0  0  0  0  0  0  0  0
    2.1167    1.3569    0.0177 H   0  0  0  0  0  0  0  0  0  0  0  0
    2.4164    2.2459   -1.4825 H   0  0  0  0  0  0  0  0  0  0  0  0
    0.8737    2.4521   -0.6570 H   0  0  0  0  0  0  0  0  0  0  0  0
   -0.6662    1.0065    0.8646 C   0  0  0  0  0  0  0  0  0  0  0  0
   -1.6274    1.6095    0.3963 O   0  0  0  0  0  0  0  0  0  0  0  0
    0.0767    1.5990    1.8706 N   0  0  0  0  0  0  0  0  0  0  0  0
    0.8364    1.0584    2.2740 H   0  0  0  0  0  0  0  0  0  0  0  0
   -0.2078    2.9251    2.4039 C   0  0  0  0  0  0  0  0  0  0  0  0
   -1.2229    2.9641    2.8130 H   0  0  0  0  0  0  0  0  0  0  0  0
    0.4967    3.1693    3.2047 H   0  0  0  0  0  0  0  0  0  0  0  0
   -0.1144    3.6817    1.6179 H   0  0  0  0  0  0  0  0  0  0  0  0
  1  2  1  0  0  0  0
  2  3  1  0  0  0  0
  2  4  1  0  0  0  0
  2  5  1  0  0  0  0
  5  6  2  0  0  0  0
  5  7  1  0  0  0  0
  7  8  1  0  0  0  0
  7  9  1  0  0  0  0
  9 10  1  0  0  0  0
  9 11  1  0  0  0  0
  9 24  1  0  0  0  0
 11 12  1  0  0  0  0
 11 13  1  0  0  0  0
 11 14  1  0  0  0  0
 14 15  1  0  0  0  0
 14 16  1  0  0  0  0
 14 20  1  0  0  0  0
 16 17  1  0  0  0  0
 16 18  1  0  0  0  0
 16 19  1  0  0  0  0
 20 21  1  0  0  0  0
 20 22  1  0  0  0  0
 20 23  1  0  0  0  0
 24 25  2  0  0  0  0
 24 26  1  0  0  0  0
 26 27  1  0  0  0  0
 26 28  1  0  0  0  0
 28 29  1  0  0  0  0
 28 30  1  0  0  0  0
 28 31  1  0  0  0  0
M  END
$$$$

  -OEChem-03222214063D

 31 30  0     1  0  0  0  0  0999 V2000
   -3.3538   -3.9172    1.1945 H   0  0  0  0  0  0  0  0  0  0  0  0
   -3.3206   -2.9300    0.7251 C   0  0  0  0  0  0  0  0  0  0  0  0
   -3.9971   -2.2613    1.2630 H   0  0  0  0  0  0  0  0  0  0  0  0
   -3.6558   -3.0203   -0.3109 H   0  0  0  0  0  0  0  0  0  0  0  0
   -1.9075   -2.3796    0.7648 C   0  0  0  0  0  0  0  0  0  0  0  0
   -1.0011   -3.0540    1.2283 O   0  0  0  0  0  0  0  0  0  0  0  0
   -1.6524   -1.1136    0.2823 N   0  0  0  0  0  0  0  0  0  0  0  0
   -2.4518   -0.5443    0.0060 H   0  0  0  0  0  0  0  0  0  0  0  0
   -0.3569   -0.4251    0.3873 C   0  0  1  0  0  0  0  0  0  0  0  0
    0.2574   -0.8796    1.1716 H   0  0  0  0  0  0  0  0  0  0  0  0
    0.3721   -0.6214   -0.9766 C   0  0  0  0  0  0  0  0  0  0  0  0
    1.1238   -1.3986   -0.8032 H   0  0  0  0  0  0  0  0  0  0  0  0
   -0.3355   -1.0481   -1.6959 H   0  0  0  0  0  0  0  0  0  0  0  0
    1.0953    0.5500   -1.6955 C   0  0  0  0  0  0  0  0  0  0  0  0
    1.8359    0.0656   -2.3415 H   0  0  0  0  0  0  0  0  0  0  0  0
    0.1504    1.2997   -2.6423 C   0  0  0  0  0  0  0  0  0  0  0  0
   -0.6502    1.7925   -2.0835 H   0  0  0  0  0  0  0  0  0  0  0  0
    0.7014    2.0628   -3.2009 H   0  0  0  0  0  0  0  0  0  0  0  0
   -0.3021    0.6100   -3.3615 H   0  0  0  0  0  0  0  0  0  0  0  0
    1.8948    1.5158   -0.8124 C   0  0  0  0  0  0  0  0  0  0  0  0
    2.3483    0.9849    0.0300 H   0  0  0  0  0  0  0  0  0  0  0  0
    2.6972    1.9737   -1.3991 H   0  0  0  0  0  0  0  0  0  0  0  0
    1.2654    2.3257   -0.4356 H   0  0  0  0  0  0  0  0  0  0  0  0
   -0.6526    1.0215    0.8408 C   0  0  0  0  0  0  0  0  0  0  0  0
   -1.6272    1.6230    0.3997 O   0  0  0  0  0  0  0  0  0  0  0  0
    0.1022    1.6086    1.8412 N   0  0  0  0  0  0  0  0  0  0  0  0
    0.8658    1.0656    2.2339 H   0  0  0  0  0  0  0  0  0  0  0  0
   -0.1713    2.9354    2.3790 C   0  0  0  0  0  0  0  0  0  0  0  0
   -1.1744    2.9724    2.8166 H   0  0  0  0  0  0  0  0  0  0  0  0
    0.5553    3.1841    3.1584 H   0  0  0  0  0  0  0  0  0  0  0  0
   -0.1031    3.6907    1.5890 H   0  0  0  0  0  0  0  0  0  0  0  0
  1  2  1  0  0  0  0
  2  3  1  0  0  0  0
  2  4  1  0  0  0  0
  2  5  1  0  0  0  0
  5  6  2  0  0  0  0
  5  7  1  0  0  0  0
  7  8  1  0  0  0  0
  7  9  1  0  0  0  0
  9 10  1  0  0  0  0
  9 11  1  0  0  0  0
  9 24  1  0  0  0  0
 11 12  1  0  0  0  0
 11 13  1  0  0  0  0
 11 14  1  0  0  0  0
 14 15  1  0  0  0  0
 14 16  1  0  0  0  0
 14 20  1  0  0  0  0
 16 17  1  0  0  0  0
 16 18  1  0  0  0  0
 16 19  1  0  0  0  0
 20 21  1  0  0  0  0
 20 22  1  0  0  0  0
 20 23  1  0  0  0  0
 24 25  2  0  0  0  0
 24 26  1  0  0  0  0
 26 27  1  0  0  0  0
 26 28  1  0  0  0  0
 28 29  1  0  0  0  0
 28 30  1  0  0  0  0
 28 31  1  0  0  0  0
M  END
$$$$

  -OEChem-03222214063D

 31 30  0     1  0  0  0  0  0999 V2000
   -3.3439   -3.9216    1.1851 H   0  0  0  0  0  0  0  0  0  0  0  0
   -3.3221   -2.9253    0.7346 C   0  0  0  0  0  0  0  0  0  0  0  0
   -3.9875   -2.2686    1.3004 H   0  0  0  0  0  0  0  0  0  0  0  0
   -3.6805   -2.9962   -0.2952 H   0  0  0  0  0  0  0  0  0  0  0  0
   -1.9089   -2.3735    0.7536 C   0  0  0  0  0  0  0  0  0  0  0  0
   -0.9952   -3.0495    1.2002 O   0  0  0  0  0  0  0  0  0  0  0  0
   -1.6617   -1.1058    0.2706 N   0  0  0  0  0  0  0  0  0  0  0  0
   -2.4672   -0.5341    0.0176 H   0  0  0  0  0  0  0  0  0  0  0  0
   -0.3688   -0.4119    0.3743 C   0  0  1  0  0  0  0  0  0  0  0  0
    0.2353   -0.8633    1.1682 H   0  0  0  0  0  0  0  0  0  0  0  0
    0.3882   -0.6241   -0.9708 C   0  0  0  0  0  0  0  0  0  0  0  0
    1.1318   -1.4065   -0.7862 H   0  0  0  0  0  0  0  0  0  0  0  0
   -0.3142   -1.0429   -1.6997 H   0  0  0  0  0  0  0  0  0  0  0  0
    1.1153    0.5413   -1.6899 C   0  0  0  0  0  0  0  0  0  0  0  0
    1.6945    0.0613   -2.4864 H   0  0  0  0  0  0  0  0  0  0  0  0
    0.1603    1.5160   -2.3921 C   0  0  0  0  0  0  0  0  0  0  0  0
   -0.3552    2.1603   -1.6775 H   0  0  0  0  0  0  0  0  0  0  0  0
    0.7217    2.1585   -3.0774 H   0  0  0  0  0  0  0  0  0  0  0  0
   -0.5895    0.9695   -2.9723 H   0  0  0  0  0  0  0  0  0  0  0  0
    2.1297    1.2880   -0.8143 C   0  0  0  0  0  0  0  0  0  0  0  0
    2.6467    0.5931   -0.1454 H   0  0  0  0  0  0  0  0  0  0  0  0
    2.8778    1.7739   -1.4484 H   0  0  0  0  0  0  0  0  0  0  0  0
    1.6502    2.0664   -0.2181 H   0  0  0  0  0  0  0  0  0  0  0  0
   -0.6508    1.0374    0.8284 C   0  0  0  0  0  0  0  0  0  0  0  0
   -1.6615    1.6192    0.4454 O   0  0  0  0  0  0  0  0  0  0  0  0
    0.1146    1.6184    1.8240 N   0  0  0  0  0  0  0  0  0  0  0  0
    0.8955    1.0813    2.1898 H   0  0  0  0  0  0  0  0  0  0  0  0
   -0.1723    2.9276    2.3972 C   0  0  0  0  0  0  0  0  0  0  0  0
   -1.1609    2.9315    2.8682 H   0  0  0  0  0  0  0  0  0  0  0  0
    0.5737    3.1790    3.1571 H   0  0  0  0  0  0  0  0  0  0  0  0
   -0.1480    3.6994    1.6207 H   0  0  0  0  0  0  0  0  0  0  0  0
  1  2  1  0  0  0  0
  2  3  1  0  0  0  0
  2  4  1  0  0  0  0
  2  5  1  0  0  0  0
  5  6  2  0  0  0  0
  5  7  1  0  0  0  0
  7  8  1  0  0  0  0
  7  9  1  0  0  0  0
  9 10  1  0  0  0  0
  9 11  1  0  0  0  0
  9 24  1  0  0  0  0
 11 12  1  0  0  0  0
 11 13  1  0  0  0  0
 11 14  1  0  0  0  0
 14 15  1  0  0  0  0
 14 16  1  0  0  0  0
 14 20  1  0  0  0  0
 16 17  1  0  0  0  0
 16 18  1  0  0  0  0
 16 19  1  0  0  0  0
 20 21  1  0  0  0  0
 20 22  1  0  0  0  0
 20 23  1  0  0  0  0
 24 25  2  0  0  0  0
 24 26  1  0  0  0  0
 26 27  1  0  0  0  0
 26 28  1  0  0  0  0
 28 29  1  0  0  0  0
 28 30  1  0  0  0  0
 28 31  1  0  0  0  0
M  END
$$$$

  -OEChem-03222214063D

 31 30  0     1  0  0  0  0  0999 V2000
   -3.3717   -3.8962    1.2056 H   0  0  0  0  0  0  0  0  0  0  0  0
   -3.3428   -2.9048    0.7450 C   0  0  0  0  0  0  0  0  0  0  0  0
   -4.0031   -2.2374    1.3041 H   0  0  0  0  0  0  0  0  0  0  0  0
   -3.7018   -2.9832   -0.2840 H   0  0  0  0  0  0  0  0  0  0  0  0
   -1.9257   -2.3633    0.7592 C   0  0  0  0  0  0  0  0  0  0  0  0
   -1.0163   -3.0412    1.2116 O   0  0  0  0  0  0  0  0  0  0  0  0
   -1.6710   -1.1010    0.2669 N   0  0  0  0  0  0  0  0  0  0  0  0
   -2.4738   -0.5265    0.0118 H   0  0  0  0  0  0  0  0  0  0  0  0
   -0.3778   -0.4088    0.3757 C   0  0  1  0  0  0  0  0  0  0  0  0
    0.2111   -0.8520    1.1855 H   0  0  0  0  0  0  0  0  0  0  0  0
    0.4099   -0.6420   -0.9483 C   0  0  0  0  0  0  0  0  0  0  0  0
    1.1342   -1.4399   -0.7539 H   0  0  0  0  0  0  0  0  0  0  0  0
   -0.2922   -1.0454   -1.6859 H   0  0  0  0  0  0  0  0  0  0  0  0
    1.1538    0.5101   -1.6722 C   0  0  0  0  0  0  0  0  0  0  0  0
    1.5575    0.0654   -2.5883 H   0  0  0  0  0  0  0  0  0  0  0  0
    0.2633    1.6792   -2.1170 C   0  0  0  0  0  0  0  0  0  0  0  0
    0.7330    2.2029   -2.9550 H   0  0  0  0  0  0  0  0  0  0  0  0
    0.1190    2.4079   -1.3157 H   0  0  0  0  0  0  0  0  0  0  0  0
   -0.7150    1.3152   -2.4460 H   0  0  0  0  0  0  0  0  0  0  0  0
    2.3512    1.0215   -0.8613 C   0  0  0  0  0  0  0  0  0  0  0  0
    2.9920    0.1870   -0.5601 H   0  0  0  0  0  0  0  0  0  0  0  0
    2.9483    1.7089   -1.4685 H   0  0  0  0  0  0  0  0  0  0  0  0
    2.0305    1.5541    0.0354 H   0  0  0  0  0  0  0  0  0  0  0  0
   -0.6571    1.0458    0.8133 C   0  0  0  0  0  0  0  0  0  0  0  0
   -1.6674    1.6230    0.4211 O   0  0  0  0  0  0  0  0  0  0  0  0
    0.1012    1.6360    1.8082 N   0  0  0  0  0  0  0  0  0  0  0  0
    0.8862    1.1066    2.1764 H   0  0  0  0  0  0  0  0  0  0  0  0
   -0.1795    2.9570    2.3566 C   0  0  0  0  0  0  0  0  0  0  0  0
   -1.1750    2.9797    2.8120 H   0  0  0  0  0  0  0  0  0  0  0  0
    0.5574    3.2115    3.1242 H   0  0  0  0  0  0  0  0  0  0  0  0
   -0.1345    3.7160    1.5686 H   0  0  0  0  0  0  0  0  0  0  0  0
  1  2  1  0  0  0  0
  2  3  1  0  0  0  0
  2  4  1  0  0  0  0
  2  5  1  0  0  0  0
  5  6  2  0  0  0  0
  5  7  1  0  0  0  0
  7  8  1  0  0  0  0
  7  9  1  0  0  0  0
  9 10  1  0  0  0  0
  9 11  1  0  0  0  0
  9 24  1  0  0  0  0
 11 12  1  0  0  0  0
 11 13  1  0  0  0  0
 11 14  1  0  0  0  0
 14 15  1  0  0  0  0
 14 16  1  0  0  0  0
 14 20  1  0  0  0  0
 16 17  1  0  0  0  0
 16 18  1  0  0  0  0
 16 19  1  0  0  0  0
 20 21  1  0  0  0  0
 20 22  1  0  0  0  0
 20 23  1  0  0  0  0
 24 25  2  0  0  0  0
 24 26  1  0  0  0  0
 26 27  1  0  0  0  0
 26 28  1  0  0  0  0
 28 29  1  0  0  0  0
 28 30  1  0  0  0  0
 28 31  1  0  0  0  0
M  END
$$$$

  -OEChem-03222214063D

 31 30  0     1  0  0  0  0  0999 V2000
   -3.3425   -3.9267    1.1797 H   0  0  0  0  0  0  0  0  0  0  0  0
   -3.3319   -2.9227    0.7460 C   0  0  0  0  0  0  0  0  0  0  0  0
   -3.9834   -2.2761    1.3389 H   0  0  0  0  0  0  0  0  0  0  0  0
   -3.7144   -2.9759   -0.2762 H   0  0  0  0  0  0  0  0  0  0  0  0
   -1.9195   -2.3694    0.7411 C   0  0  0  0  0  0  0  0  0  0  0  0
   -0.9958   -3.0494    1.1605 O   0  0  0  0  0  0  0  0  0  0  0  0
   -1.6855   -1.0951    0.2688 N   0  0  0  0  0  0  0  0  0  0  0  0
   -2.4981   -0.5236    0.0396 H   0  0  0  0  0  0  0  0  0  0  0  0
   -0.3950   -0.3954    0.3610 C   0  0  1  0  0  0  0  0  0  0  0  0
    0.1977   -0.8486    1.1624 H   0  0  0  0  0  0  0  0  0  0  0  0
    0.4027   -0.6276   -0.9579 C   0  0  0  0  0  0  0  0  0  0  0  0
    1.1146   -1.4383   -0.7706 H   0  0  0  0  0  0  0  0  0  0  0  0
   -0.3097   -1.0193   -1.6918 H   0  0  0  0  0  0  0  0  0  0  0  0
    1.1464    0.5149   -1.7043 C   0  0  0  0  0  0  0  0  0  0  0  0
    1.3738    0.1337   -2.7060 H   0  0  0  0  0  0  0  0  0  0  0  0
    0.3916    1.8397   -1.8874 C   0  0  0  0  0  0  0  0  0  0  0  0
    0.4634    2.4805   -1.0049 H   0  0  0  0  0  0  0  0  0  0  0  0
    0.8234    2.3940   -2.7263 H   0  0  0  0  0  0  0  0  0  0  0  0
   -0.6630    1.6519   -2.1118 H   0  0  0  0  0  0  0  0  0  0  0  0
    2.4773    0.8054   -0.9987 C   0  0  0  0  0  0  0  0  0  0  0  0
    3.0889   -0.1007   -0.9460 H   0  0  0  0  0  0  0  0  0  0  0  0
    3.0409    1.5651   -1.5495 H   0  0  0  0  0  0  0  0  0  0  0  0
    2.3086    1.1693    0.0188 H   0  0  0  0  0  0  0  0  0  0  0  0
   -0.6507    1.0506    0.8334 C   0  0  0  0  0  0  0  0  0  0  0  0
   -1.6685    1.6409    0.4829 O   0  0  0  0  0  0  0  0  0  0  0  0
    0.1420    1.6143    1.8171 N   0  0  0  0  0  0  0  0  0  0  0  0
    0.9300    1.0697    2.1557 H   0  0  0  0  0  0  0  0  0  0  0  0
   -0.1208    2.9198    2.4096 C   0  0  0  0  0  0  0  0  0  0  0  0
   -1.0938    2.9240    2.9119 H   0  0  0  0  0  0  0  0  0  0  0  0
    0.6501    3.1623    3.1474 H   0  0  0  0  0  0  0  0  0  0  0  0
   -0.1181    3.6978    1.6389 H   0  0  0  0  0  0  0  0  0  0  0  0
  1  2  1  0  0  0  0
  2  3  1  0  0  0  0
  2  4  1  0  0  0  0
  2  5  1  0  0  0  0
  5  6  2  0  0  0  0
  5  7  1  0  0  0  0
  7  8  1  0  0  0  0
  7  9  1  0  0  0  0
  9 10  1  0  0  0  0
  9 11  1  0  0  0  0
  9 24  1  0  0  0  0
 11 12  1  0  0  0  0
 11 13  1  0  0  0  0
 11 14  1  0  0  0  0
 14 15  1  0  0  0  0
 14 16  1  0  0  0  0
 14 20  1  0  0  0  0
 16 17  1  0  0  0  0
 16 18  1  0  0  0  0
 16 19  1  0  0  0  0
 20 21  1  0  0  0  0
 20 22  1  0  0  0  0
 20 23  1  0  0  0  0
 24 25  2  0  0  0  0
 24 26  1  0  0  0  0
 26 27  1  0  0  0  0
 26 28  1  0  0  0  0
 28 29  1  0  0  0  0
 28 30  1  0  0  0  0
 28 31  1  0  0  0  0
M  END
$$$$

  -OEChem-03222214063D

 31 30  0     1  0  0  0  0  0999 V2000
   -3.3018   -3.9531    1.1727 H   0  0  0  0  0  0  0  0  0  0  0  0
   -3.3040   -2.9470    0.7440 C   0  0  0  0  0  0  0  0  0  0  0  0
   -3.9624   -2.3115    1.3412 H   0  0  0  0  0  0  0  0  0  0  0  0
   -3.6876   -2.9995   -0.2778 H   0  0  0  0  0  0  0  0  0  0  0  0
   -1.8978   -2.3776    0.7402 C   0  0  0  0  0  0  0  0  0  0  0  0
   -0.9647   -3.0516    1.1481 O   0  0  0  0  0  0  0  0  0  0  0  0
   -1.6797   -1.0951    0.2824 N   0  0  0  0  0  0  0  0  0  0  0  0
   -2.4991   -0.5314    0.0580 H   0  0  0  0  0  0  0  0  0  0  0  0
   -0.3959   -0.3822    0.3740 C   0  0  1  0  0  0  0  0  0  0  0  0
    0.2041   -0.8356    1.1701 H   0  0  0  0  0  0  0  0  0  0  0  0
    0.4014   -0.6075   -0.9492 C   0  0  0  0  0  0  0  0  0  0  0  0
    1.0997   -1.4316   -0.7686 H   0  0  0  0  0  0  0  0  0  0  0  0
   -0.3231   -0.9931   -1.6748 H   0  0  0  0  0  0  0  0  0  0  0  0
    1.1472    0.5193   -1.7290 C   0  0  0  0  0  0  0  0  0  0  0  0
    1.1514    0.2230   -2.7838 H   0  0  0  0  0  0  0  0  0  0  0  0
    0.6015    1.9520   -1.6650 C   0  0  0  0  0  0  0  0  0  0  0  0
    0.8296    2.4354   -0.7119 H   0  0  0  0  0  0  0  0  0  0  0  0
    1.0616    2.5556   -2.4535 H   0  0  0  0  0  0  0  0  0  0  0  0
   -0.4802    1.9568   -1.8297 H   0  0  0  0  0  0  0  0  0  0  0  0
    2.6041    0.5666   -1.2466 C   0  0  0  0  0  0  0  0  0  0  0  0
    3.0916   -0.4018   -1.3973 H   0  0  0  0  0  0  0  0  0  0  0  0
    3.1690    1.3194   -1.8060 H   0  0  0  0  0  0  0  0  0  0  0  0
    2.6499    0.8175   -0.1819 H   0  0  0  0  0  0  0  0  0  0  0  0
   -0.6688    1.0534    0.8660 C   0  0  0  0  0  0  0  0  0  0  0  0
   -1.6908    1.6399    0.5215 O   0  0  0  0  0  0  0  0  0  0  0  0
    0.1238    1.6129    1.8522 N   0  0  0  0  0  0  0  0  0  0  0  0
    0.9193    1.0721    2.1793 H   0  0  0  0  0  0  0  0  0  0  0  0
   -0.1462    2.9101    2.4598 C   0  0  0  0  0  0  0  0  0  0  0  0
   -1.1172    2.9010    2.9660 H   0  0  0  0  0  0  0  0  0  0  0  0
    0.6257    3.1501    3.1972 H   0  0  0  0  0  0  0  0  0  0  0  0
   -0.1527    3.6967    1.6980 H   0  0  0  0  0  0  0  0  0  0  0  0
  1  2  1  0  0  0  0
  2  3  1  0  0  0  0
  2  4  1  0  0  0  0
  2  5  1  0  0  0  0
  5  6  2  0  0  0  0
  5  7  1  0  0  0  0
  7  8  1  0  0  0  0
  7  9  1  0  0  0  0
  9 10  1  0  0  0  0
  9 11  1  0  0  0  0
  9 24  1  0  0  0  0
 11 12  1  0  0  0  0
 11 13  1  0  0  0  0
 11 14  1  0  0  0  0
 14 15  1  0  0  0  0
 14 16  1  0  0  0  0
 14 20  1  0  0  0  0
 16 17  1  0  0  0  0
 16 18  1  0  0  0  0
 16 19  1  0  0  0  0
 20 21  1  0  0  0  0
 20 22  1  0  0  0  0
 20 23  1  0  0  0  0
 24 25  2  0  0  0  0
 24 26  1  0  0  0  0
 26 27  1  0  0  0  0
 26 28  1  0  0  0  0
 28 29  1  0  0  0  0
 28 30  1  0  0  0  0
 28 31  1  0  0  0  0
M  END
$$$$

  -OEChem-03222214063D

 31 30  0     1  0  0  0  0  0999 V2000
   -3.3013   -3.9383    1.1752 H   0  0  0  0  0  0  0  0  0  0  0  0
   -3.2925   -2.9410    0.7262 C   0  0  0  0  0  0  0  0  0  0  0  0
   -3.9675   -2.2944    1.2921 H   0  0  0  0  0  0  0  0  0  0  0  0
   -3.6481   -3.0148   -0.3044 H   0  0  0  0  0  0  0  0  0  0  0  0
   -1.8873   -2.3695    0.7486 C   0  0  0  0  0  0  0  0  0  0  0  0
   -0.9602   -3.0428    1.1708 O   0  0  0  0  0  0  0  0  0  0  0  0
   -1.6637   -1.0858    0.2976 N   0  0  0  0  0  0  0  0  0  0  0  0
   -2.4798   -0.5204    0.0655 H   0  0  0  0  0  0  0  0  0  0  0  0
   -0.3787   -0.3759    0.3990 C   0  0  1  0  0  0  0  0  0  0  0  0
    0.2272   -0.8304    1.1897 H   0  0  0  0  0  0  0  0  0  0  0  0
    0.4012   -0.5922   -0.9388 C   0  0  0  0  0  0  0  0  0  0  0  0
    1.0879   -1.4271   -0.7634 H   0  0  0  0  0  0  0  0  0  0  0  0
   -0.3339   -0.9714   -1.6572 H   0  0  0  0  0  0  0  0  0  0  0  0
    1.1556    0.5230   -1.7374 C   0  0  0  0  0  0  0  0  0  0  0  0
    0.9088    0.3754   -2.7947 H   0  0  0  0  0  0  0  0  0  0  0  0
    0.8884    2.0007   -1.4269 C   0  0  0  0  0  0  0  0  0  0  0  0
    1.2514    2.2742   -0.4333 H   0  0  0  0  0  0  0  0  0  0  0  0
    1.4100    2.6324   -2.1529 H   0  0  0  0  0  0  0  0  0  0  0  0
   -0.1788    2.2247   -1.5079 H   0  0  0  0  0  0  0  0  0  0  0  0
    2.6672    0.2992   -1.5800 C   0  0  0  0  0  0  0  0  0  0  0  0
    2.9471   -0.6989   -1.9320 H   0  0  0  0  0  0  0  0  0  0  0  0
    3.2289    1.0322   -2.1678 H   0  0  0  0  0  0  0  0  0  0  0  0
    2.9632    0.3949   -0.5304 H   0  0  0  0  0  0  0  0  0  0  0  0
   -0.6767    1.0534    0.8969 C   0  0  0  0  0  0  0  0  0  0  0  0
   -1.6948    1.6350    0.5329 O   0  0  0  0  0  0  0  0  0  0  0  0
    0.0972    1.6177    1.8955 N   0  0  0  0  0  0  0  0  0  0  0  0
    0.8898    1.0809    2.2363 H   0  0  0  0  0  0  0  0  0  0  0  0
   -0.1876    2.9158    2.4944 C   0  0  0  0  0  0  0  0  0  0  0  0
   -1.1786    2.9146    2.9604 H   0  0  0  0  0  0  0  0  0  0  0  0
    0.5551    3.1484    3.2634 H   0  0  0  0  0  0  0  0  0  0  0  0
   -0.1561    3.7029    1.7338 H   0  0  0  0  0  0  0  0  0  0  0  0
  1  2  1  0  0  0  0
  2  3  1  0  0  0  0
  2  4  1  0  0  0  0
  2  5  1  0  0  0  0
  5  6  2  0  0  0  0
  5  7  1  0  0  0  0
  7  8  1  0  0  0  0
  7  9  1  0  0  0  0
  9 10  1  0  0  0  0
  9 11  1  0  0  0  0
  9 24  1  0  0  0  0
 11 12  1  0  0  0  0
 11 13  1  0  0  0  0
 11 14  1  0  0  0  0
 14 15  1  0  0  0  0
 14 16  1  0  0  0  0
 14 20  1  0  0  0  0
 16 17  1  0  0  0  0
 16 18  1  0  0  0  0
 16 19  1  0  0  0  0
 20 21  1  0  0  0  0
 20 22  1  0  0  0  0
 20 23  1  0  0  0  0
 24 25  2  0  0  0  0
 24 26  1  0  0  0  0
 26 27  1  0  0  0  0
 26 28  1  0  0  0  0
 28 29  1  0  0  0  0
 28 30  1  0  0  0  0
 28 31  1  0  0  0  0
M  END
$$$$

  -OEChem-03222214063D

 31 30  0     1  0  0  0  0  0999 V2000
   -3.3217   -3.9184    1.1171 H   0  0  0  0  0  0  0  0  0  0  0  0
   -3.2955   -2.9199    0.6720 C   0  0  0  0  0  0  0  0  0  0  0  0
   -3.9833   -2.2716    1.2203 H   0  0  0  0  0  0  0  0  0  0  0  0
   -3.6217   -2.9886   -0.3686 H   0  0  0  0  0  0  0  0  0  0  0  0
   -1.8887   -2.3561    0.7360 C   0  0  0  0  0  0  0  0  0  0  0  0
   -0.9787   -3.0320    1.1904 O   0  0  0  0  0  0  0  0  0  0  0  0
   -1.6422   -1.0777    0.2824 N   0  0  0  0  0  0  0  0  0  0  0  0
   -2.4461   -0.5081    0.0193 H   0  0  0  0  0  0  0  0  0  0  0  0
   -0.3547   -0.3781    0.4169 C   0  0  1  0  0  0  0  0  0  0  0  0
    0.2385   -0.8318    1.2179 H   0  0  0  0  0  0  0  0  0  0  0  0
    0.4283   -0.5913   -0.9204 C   0  0  0  0  0  0  0  0  0  0  0  0
    1.1190   -1.4172   -0.7200 H   0  0  0  0  0  0  0  0  0  0  0  0
   -0.2877   -0.9867   -1.6496 H   0  0  0  0  0  0  0  0  0  0  0  0
    1.2024    0.5218   -1.7065 C   0  0  0  0  0  0  0  0  0  0  0  0
    0.7393    0.5815   -2.6979 H   0  0  0  0  0  0  0  0  0  0  0  0
    1.2342    1.9590   -1.1721 C   0  0  0  0  0  0  0  0  0  0  0  0
    1.6717    1.9950   -0.1710 H   0  0  0  0  0  0  0  0  0  0  0  0
    1.8454    2.5893   -1.8258 H   0  0  0  0  0  0  0  0  0  0  0  0
    0.2316    2.3933   -1.1584 H   0  0  0  0  0  0  0  0  0  0  0  0
    2.6563    0.0675   -1.9095 C   0  0  0  0  0  0  0  0  0  0  0  0
    2.6871   -0.9106   -2.4003 H   0  0  0  0  0  0  0  0  0  0  0  0
    3.1987    0.7781   -2.5414 H   0  0  0  0  0  0  0  0  0  0  0  0
    3.1741   -0.0077   -0.9480 H   0  0  0  0  0  0  0  0  0  0  0  0
   -0.6818    1.0524    0.8959 C   0  0  0  0  0  0  0  0  0  0  0  0
   -1.6747    1.6349    0.4683 O   0  0  0  0  0  0  0  0  0  0  0  0
    0.0483    1.6331    1.9180 N   0  0  0  0  0  0  0  0  0  0  0  0
    0.8258    1.1028    2.3009 H   0  0  0  0  0  0  0  0  0  0  0  0
   -0.2638    2.9390    2.4855 C   0  0  0  0  0  0  0  0  0  0  0  0
   -1.2774    2.9453    2.9000 H   0  0  0  0  0  0  0  0  0  0  0  0
    0.4386    3.1801    3.2891 H   0  0  0  0  0  0  0  0  0  0  0  0
   -0.1914    3.7165    1.7178 H   0  0  0  0  0  0  0  0  0  0  0  0
  1  2  1  0  0  0  0
  2  3  1  0  0  0  0
  2  4  1  0  0  0  0
  2  5  1  0  0  0  0
  5  6  2  0  0  0  0
  5  7  1  0  0  0  0
  7  8  1  0  0  0  0
  7  9  1  0  0  0  0
  9 10  1  0  0  0  0
  9 11  1  0  0  0  0
  9 24  1  0  0  0  0
 11 12  1  0  0  0  0
 11 13  1  0  0  0  0
 11 14  1  0  0  0  0
 14 15  1  0  0  0  0
 14 16  1  0  0  0  0
 14 20  1  0  0  0  0
 16 17  1  0  0  0  0
 16 18  1  0  0  0  0
 16 19  1  0  0  0  0
 20 21  1  0  0  0  0
 20 22  1  0  0  0  0
 20 23  1  0  0  0  0
 24 25  2  0  0  0  0
 24 26  1  0  0  0  0
 26 27  1  0  0  0  0
 26 28  1  0  0  0  0
 28 29  1  0  0  0  0
 28 30  1  0  0  0  0
 28 31  1  0  0  0  0
M  END
$$$$

  -OEChem-03222214063D

 31 30  0     1  0  0  0  0  0999 V2000
   -3.3252   -3.9123    1.1101 H   0  0  0  0  0  0  0  0  0  0  0  0
   -3.2899   -2.9102    0.6735 C   0  0  0  0  0  0  0  0  0  0  0  0
   -3.9706   -2.2598    1.2281 H   0  0  0  0  0  0  0  0  0  0  0  0
   -3.6178   -2.9673   -0.3671 H   0  0  0  0  0  0  0  0  0  0  0  0
   -1.8779   -2.3602    0.7410 C   0  0  0  0  0  0  0  0  0  0  0  0
   -0.9781   -3.0406    1.2082 O   0  0  0  0  0  0  0  0  0  0  0  0
   -1.6162   -1.0866    0.2826 N   0  0  0  0  0  0  0  0  0  0  0  0
   -2.4114   -0.5135    0.0012 H   0  0  0  0  0  0  0  0  0  0  0  0
   -0.3224   -0.3991    0.4194 C   0  0  1  0  0  0  0  0  0  0  0  0
    0.2778   -0.8577    1.2123 H   0  0  0  0  0  0  0  0  0  0  0  0
    0.4335   -0.5912   -0.9348 C   0  0  0  0  0  0  0  0  0  0  0  0
    1.1425   -1.4037   -0.7423 H   0  0  0  0  0  0  0  0  0  0  0  0
   -0.2786   -0.9897   -1.6659 H   0  0  0  0  0  0  0  0  0  0  0  0
    1.1984    0.5424   -1.6940 C   0  0  0  0  0  0  0  0  0  0  0  0
    0.5601    0.8385   -2.5341 H   0  0  0  0  0  0  0  0  0  0  0  0
    1.5377    1.8448   -0.9564 C   0  0  0  0  0  0  0  0  0  0  0  0
    2.0089    1.6314    0.0072 H   0  0  0  0  0  0  0  0  0  0  0  0
    2.2365    2.4451   -1.5472 H   0  0  0  0  0  0  0  0  0  0  0  0
    0.6455    2.4578   -0.8081 H   0  0  0  0  0  0  0  0  0  0  0  0
    2.4918   -0.0378   -2.2855 C   0  0  0  0  0  0  0  0  0  0  0  0
    2.2730   -0.9319   -2.8782 H   0  0  0  0  0  0  0  0  0  0  0  0
    2.9770    0.6922   -2.9413 H   0  0  0  0  0  0  0  0  0  0  0  0
    3.1925   -0.3094   -1.4893 H   0  0  0  0  0  0  0  0  0  0  0  0
   -0.6527    1.0332    0.8903 C   0  0  0  0  0  0  0  0  0  0  0  0
   -1.6181    1.6302    0.4221 O   0  0  0  0  0  0  0  0  0  0  0  0
    0.0682    1.6194    1.9157 N   0  0  0  0  0  0  0  0  0  0  0  0
    0.8315    1.0841    2.3199 H   0  0  0  0  0  0  0  0  0  0  0  0
   -0.2358    2.9377    2.4581 C   0  0  0  0  0  0  0  0  0  0  0  0
   -1.2528    2.9601    2.8636 H   0  0  0  0  0  0  0  0  0  0  0  0
    0.4627    3.1858    3.2629 H   0  0  0  0  0  0  0  0  0  0  0  0
   -0.1504    3.7014    1.6782 H   0  0  0  0  0  0  0  0  0  0  0  0
  1  2  1  0  0  0  0
  2  3  1  0  0  0  0
  2  4  1  0  0  0  0
  2  5  1  0  0  0  0
  5  6  2  0  0  0  0
  5  7  1  0  0  0  0
  7  8  1  0  0  0  0
  7  9  1  0  0  0  0
  9 10  1  0  0  0  0
  9 11  1  0  0  0  0
  9 24  1  0  0  0  0
 11 12  1  0  0  0  0
 11 13  1  0  0  0  0
 11 14  1  0  0  0  0
 14 15  1  0  0  0  0
 14 16  1  0  0  0  0
 14 20  1  0  0  0  0
 16 17  1  0  0  0  0
 16 18  1  0  0  0  0
 16 19  1  0  0  0  0
 20 21  1  0  0  0  0
 20 22  1  0  0  0  0
 20 23  1  0  0  0  0
 24 25  2  0  0  0  0
 24 26  1  0  0  0  0
 26 27  1  0  0  0  0
 26 28  1  0  0  0  0
 28 29  1  0  0  0  0
 28 30  1  0  0  0  0
 28 31  1  0  0  0  0
M  END
$$$$

  -OEChem-03222214063D

 31 30  0     1  0  0  0  0  0999 V2000
   -3.3446   -3.8917    1.1174 H   0  0  0  0  0  0  0  0  0  0  0  0
   -3.2942   -2.8992    0.6610 C   0  0  0  0  0  0  0  0  0  0  0  0
   -3.9827   -2.2341    1.1877 H   0  0  0  0  0  0  0  0  0  0  0  0
   -3.6008   -2.9762   -0.3849 H   0  0  0  0  0  0  0  0  0  0  0  0
   -1.8805   -2.3556    0.7471 C   0  0  0  0  0  0  0  0  0  0  0  0
   -0.9936   -3.0338    1.2415 O   0  0  0  0  0  0  0  0  0  0  0  0
   -1.6024   -1.0914    0.2726 N   0  0  0  0  0  0  0  0  0  0  0  0
   -2.3874   -0.5188   -0.0365 H   0  0  0  0  0  0  0  0  0  0  0  0
   -0.3033   -0.4148    0.4098 C   0  0  1  0  0  0  0  0  0  0  0  0
    0.2974   -0.8729    1.2024 H   0  0  0  0  0  0  0  0  0  0  0  0
    0.4372   -0.6070   -0.9498 C   0  0  0  0  0  0  0  0  0  0  0  0
    1.1562   -1.4132   -0.7687 H   0  0  0  0  0  0  0  0  0  0  0  0
   -0.2762   -0.9976   -1.6839 H   0  0  0  0  0  0  0  0  0  0  0  0
    1.1926    0.5447   -1.6771 C   0  0  0  0  0  0  0  0  0  0  0  0
    0.4641    1.0454   -2.3248 H   0  0  0  0  0  0  0  0  0  0  0  0
    1.8211    1.6464   -0.8106 C   0  0  0  0  0  0  0  0  0  0  0  0
    2.2760    1.2182    0.0875 H   0  0  0  0  0  0  0  0  0  0  0  0
    2.6017    2.1736   -1.3679 H   0  0  0  0  0  0  0  0  0  0  0  0
    1.0781    2.3955   -0.5275 H   0  0  0  0  0  0  0  0  0  0  0  0
    2.2713   -0.0687   -2.5810 C   0  0  0  0  0  0  0  0  0  0  0  0
    1.8341   -0.8313   -3.2334 H   0  0  0  0  0  0  0  0  0  0  0  0
    2.7242    0.7006   -3.2144 H   0  0  0  0  0  0  0  0  0  0  0  0
    3.0601   -0.5334   -1.9806 H   0  0  0  0  0  0  0  0  0  0  0  0
   -0.6193    1.0279    0.8575 C   0  0  0  0  0  0  0  0  0  0  0  0
   -1.5525    1.6420    0.3490 O   0  0  0  0  0  0  0  0  0  0  0  0
    0.1013    1.6192    1.8804 N   0  0  0  0  0  0  0  0  0  0  0  0
    0.8358    1.0692    2.3165 H   0  0  0  0  0  0  0  0  0  0  0  0
   -0.1837    2.9525    2.3958 C   0  0  0  0  0  0  0  0  0  0  0  0
   -1.2034    2.9997    2.7923 H   0  0  0  0  0  0  0  0  0  0  0  0
    0.5126    3.2028    3.2018 H   0  0  0  0  0  0  0  0  0  0  0  0
   -0.0780    3.7005    1.6032 H   0  0  0  0  0  0  0  0  0  0  0  0
  1  2  1  0  0  0  0
  2  3  1  0  0  0  0
  2  4  1  0  0  0  0
  2  5  1  0  0  0  0
  5  6  2  0  0  0  0
  5  7  1  0  0  0  0
  7  8  1  0  0  0  0
  7  9  1  0  0  0  0
  9 10  1  0  0  0  0
  9 11  1  0  0  0  0
  9 24  1  0  0  0  0
 11 12  1  0  0  0  0
 11 13  1  0  0  0  0
 11 14  1  0  0  0  0
 14 15  1  0  0  0  0
 14 16  1  0  0  0  0
 14 20  1  0  0  0  0
 16 17  1  0  0  0  0
 16 18  1  0  0  0  0
 16 19  1  0  0  0  0
 20 21  1  0  0  0  0
 20 22  1  0  0  0  0
 20 23  1  0  0  0  0
 24 25  2  0  0  0  0
 24 26  1  0  0  0  0
 26 27  1  0  0  0  0
 26 28  1  0  0  0  0
 28 29  1  0  0  0  0
 28 30  1  0  0  0  0
 28 31  1  0  0  0  0
M  END
$$$$

  -OEChem-03222214063D

 31 30  0     1  0  0  0  0  0999 V2000
   -3.3606   -3.8787    1.1403 H   0  0  0  0  0  0  0  0  0  0  0  0
   -3.2999   -2.8970    0.6623 C   0  0  0  0  0  0  0  0  0  0  0  0
   -3.9922   -2.2173    1.1652 H   0  0  0  0  0  0  0  0  0  0  0  0
   -3.5936   -2.9960   -0.3855 H   0  0  0  0  0  0  0  0  0  0  0  0
   -1.8849   -2.3577    0.7534 C   0  0  0  0  0  0  0  0  0  0  0  0
   -1.0051   -3.0322    1.2652 O   0  0  0  0  0  0  0  0  0  0  0  0
   -1.5979   -1.1020    0.2620 N   0  0  0  0  0  0  0  0  0  0  0  0
   -2.3776   -0.5322   -0.0647 H   0  0  0  0  0  0  0  0  0  0  0  0
   -0.2943   -0.4327    0.3889 C   0  0  1  0  0  0  0  0  0  0  0  0
    0.3104   -0.8901    1.1789 H   0  0  0  0  0  0  0  0  0  0  0  0
    0.4314   -0.6283   -0.9753 C   0  0  0  0  0  0  0  0  0  0  0  0
    1.1541   -1.4369   -0.8216 H   0  0  0  0  0  0  0  0  0  0  0  0
   -0.2941   -0.9985   -1.7083 H   0  0  0  0  0  0  0  0  0  0  0  0
    1.1689    0.5501   -1.6643 C   0  0  0  0  0  0  0  0  0  0  0  0
    0.4118    1.2174   -2.0914 H   0  0  0  0  0  0  0  0  0  0  0  0
    2.0615    1.4013   -0.7467 C   0  0  0  0  0  0  0  0  0  0  0  0
    2.4950    0.7885    0.0495 H   0  0  0  0  0  0  0  0  0  0  0  0
    2.8812    1.8522   -1.3147 H   0  0  0  0  0  0  0  0  0  0  0  0
    1.4951    2.2240   -0.3062 H   0  0  0  0  0  0  0  0  0  0  0  0
    2.0089   -0.0085   -2.8212 C   0  0  0  0  0  0  0  0  0  0  0  0
    1.3841   -0.6005   -3.4973 H   0  0  0  0  0  0  0  0  0  0  0  0
    2.4553    0.8071   -3.3988 H   0  0  0  0  0  0  0  0  0  0  0  0
    2.8132   -0.6467   -2.4415 H   0  0  0  0  0  0  0  0  0  0  0  0
   -0.5854    1.0221    0.8177 C   0  0  0  0  0  0  0  0  0  0  0  0
   -1.5029    1.6471    0.2949 O   0  0  0  0  0  0  0  0  0  0  0  0
    0.1471    1.6172    1.8300 N   0  0  0  0  0  0  0  0  0  0  0  0
    0.8677    1.0592    2.2793 H   0  0  0  0  0  0  0  0  0  0  0  0
   -0.1120    2.9649    2.3216 C   0  0  0  0  0  0  0  0  0  0  0  0
   -1.1288    3.0380    2.7214 H   0  0  0  0  0  0  0  0  0  0  0  0
    0.5924    3.2181    3.1198 H   0  0  0  0  0  0  0  0  0  0  0  0
    0.0029    3.6961    1.5146 H   0  0  0  0  0  0  0  0  0  0  0  0
  1  2  1  0  0  0  0
  2  3  1  0  0  0  0
  2  4  1  0  0  0  0
  2  5  1  0  0  0  0
  5  6  2  0  0  0  0
  5  7  1  0  0  0  0
  7  8  1  0  0  0  0
  7  9  1  0  0  0  0
  9 10  1  0  0  0  0
  9 11  1  0  0  0  0
  9 24  1  0  0  0  0
 11 12  1  0  0  0  0
 11 13  1  0  0  0  0
 11 14  1  0  0  0  0
 14 15  1  0  0  0  0
 14 16  1  0  0  0  0
 14 20  1  0  0  0  0
 16 17  1  0  0  0  0
 16 18  1  0  0  0  0
 16 19  1  0  0  0  0
 20 21  1  0  0  0  0
 20 22  1  0  0  0  0
 20 23  1  0  0  0  0
 24 25  2  0  0  0  0
 24 26  1  0  0  0  0
 26 27  1  0  0  0  0
 26 28  1  0  0  0  0
 28 29  1  0  0  0  0
 28 30  1  0  0  0  0
 28 31  1  0  0  0  0
M  END
$$$$

  -OEChem-03222214063D

 31 30  0     1  0  0  0  0  0999 V2000
   -3.3766   -3.8626    1.1603 H   0  0  0  0  0  0  0  0  0  0  0  0
   -3.3118   -2.8813    0.6817 C   0  0  0  0  0  0  0  0  0  0  0  0
   -3.9930   -2.1953    1.1911 H   0  0  0  0  0  0  0  0  0  0  0  0
   -3.6165   -2.9778   -0.3633 H   0  0  0  0  0  0  0  0  0  0  0  0
   -1.8914   -2.3541    0.7591 C   0  0  0  0  0  0  0  0  0  0  0  0
   -1.0148   -3.0310    1.2730 O   0  0  0  0  0  0  0  0  0  0  0  0
   -1.5960   -1.1055    0.2544 N   0  0  0  0  0  0  0  0  0  0  0  0
   -2.3727   -0.5312   -0.0717 H   0  0  0  0  0  0  0  0  0  0  0  0
   -0.2867   -0.4455    0.3742 C   0  0  1  0  0  0  0  0  0  0  0  0
    0.3208   -0.9009    1.1629 H   0  0  0  0  0  0  0  0  0  0  0  0
    0.4277   -0.6439   -0.9947 C   0  0  0  0  0  0  0  0  0  0  0  0
    1.1433   -1.4634   -0.8692 H   0  0  0  0  0  0  0  0  0  0  0  0
   -0.3141   -0.9893   -1.7233 H   0  0  0  0  0  0  0  0  0  0  0  0
    1.1588    0.5487   -1.6582 C   0  0  0  0  0  0  0  0  0  0  0  0
    0.4327    1.3461   -1.8523 H   0  0  0  0  0  0  0  0  0  0  0  0
    2.3000    1.1285   -0.8070 C   0  0  0  0  0  0  0  0  0  0  0  0
    2.9282    0.3249   -0.4102 H   0  0  0  0  0  0  0  0  0  0  0  0
    2.9282    1.7874   -1.4147 H   0  0  0  0  0  0  0  0  0  0  0  0
    1.9255    1.7238    0.0230 H   0  0  0  0  0  0  0  0  0  0  0  0
    1.7293    0.0890   -3.0063 C   0  0  0  0  0  0  0  0  0  0  0  0
    0.9325   -0.3034   -3.6459 H   0  0  0  0  0  0  0  0  0  0  0  0
    2.2011    0.9273   -3.5285 H   0  0  0  0  0  0  0  0  0  0  0  0
    2.4782   -0.6964   -2.8617 H   0  0  0  0  0  0  0  0  0  0  0  0
   -0.5716    1.0161    0.7891 C   0  0  0  0  0  0  0  0  0  0  0  0
   -1.4892    1.6378    0.2623 O   0  0  0  0  0  0  0  0  0  0  0  0
    0.1599    1.6215    1.7953 N   0  0  0  0  0  0  0  0  0  0  0  0
    0.8879    1.0720    2.2428 H   0  0  0  0  0  0  0  0  0  0  0  0
   -0.0855    2.9810    2.2599 C   0  0  0  0  0  0  0  0  0  0  0  0
   -1.1134    3.0830    2.6235 H   0  0  0  0  0  0  0  0  0  0  0  0
    0.5962    3.2291    3.0789 H   0  0  0  0  0  0  0  0  0  0  0  0
    0.0743    3.6972    1.4473 H   0  0  0  0  0  0  0  0  0  0  0  0
  1  2  1  0  0  0  0
  2  3  1  0  0  0  0
  2  4  1  0  0  0  0
  2  5  1  0  0  0  0
  5  6  2  0  0  0  0
  5  7  1  0  0  0  0
  7  8  1  0  0  0  0
  7  9  1  0  0  0  0
  9 10  1  0  0  0  0
  9 11  1  0  0  0  0
  9 24  1  0  0  0  0
 11 12  1  0  0  0  0
 11 13  1  0  0  0  0
 11 14  1  0  0  0  0
 14 15  1  0  0  0  0
 14 16  1  0  0  0  0
 14 20  1  0  0  0  0
 16 17  1  0  0  0  0
 16 18  1  0  0  0  0
 16 19  1  0  0  0  0
 20 21  1  0  0  0  0
 20 22  1  0  0  0  0
 20 23  1  0  0  0  0
 24 25  2  0  0  0  0
 24 26  1  0  0  0  0
 26 27  1  0  0  0  0
 26 28  1  0  0  0  0
 28 29  1  0  0  0  0
 28 30  1  0  0  0  0
 28 31  1  0  0  0  0
M  END
$$$$

  -OEChem-03222214063D

 31 30  0     1  0  0  0  0  0999 V2000
   -3.3794   -3.8722    1.2198 H   0  0  0  0  0  0  0  0  0  0  0  0
   -3.3259   -2.8969    0.7277 C   0  0  0  0  0  0  0  0  0  0  0  0
   -3.9976   -2.2054    1.2419 H   0  0  0  0  0  0  0  0  0  0  0  0
   -3.6515   -3.0071   -0.3095 H   0  0  0  0  0  0  0  0  0  0  0  0
   -1.9051   -2.3667    0.7704 C   0  0  0  0  0  0  0  0  0  0  0  0
   -1.0167   -3.0388    1.2707 O   0  0  0  0  0  0  0  0  0  0  0  0
   -1.6227   -1.1225    0.2477 N   0  0  0  0  0  0  0  0  0  0  0  0
   -2.4082   -0.5528   -0.0646 H   0  0  0  0  0  0  0  0  0  0  0  0
   -0.3144   -0.4567    0.3352 C   0  0  1  0  0  0  0  0  0  0  0  0
    0.2942   -0.9052    1.1272 H   0  0  0  0  0  0  0  0  0  0  0  0
    0.4167   -0.6659   -1.0212 C   0  0  0  0  0  0  0  0  0  0  0  0
    1.1397   -1.4796   -0.9019 H   0  0  0  0  0  0  0  0  0  0  0  0
   -0.3233   -1.0127   -1.7508 H   0  0  0  0  0  0  0  0  0  0  0  0
    1.1229    0.5589   -1.6493 C   0  0  0  0  0  0  0  0  0  0  0  0
    0.4619    1.4314   -1.6301 H   0  0  0  0  0  0  0  0  0  0  0  0
    2.4305    0.8850   -0.9126 C   0  0  0  0  0  0  0  0  0  0  0  0
    3.1279    0.0438   -0.9767 H   0  0  0  0  0  0  0  0  0  0  0  0
    2.9060    1.7641   -1.3588 H   0  0  0  0  0  0  0  0  0  0  0  0
    2.2497    1.0977    0.1424 H   0  0  0  0  0  0  0  0  0  0  0  0
    1.4517    0.2597   -3.1173 C   0  0  0  0  0  0  0  0  0  0  0  0
    0.5353    0.0598   -3.6814 H   0  0  0  0  0  0  0  0  0  0  0  0
    1.9545    1.1158   -3.5778 H   0  0  0  0  0  0  0  0  0  0  0  0
    2.1069   -0.6136   -3.1976 H   0  0  0  0  0  0  0  0  0  0  0  0
   -0.5621    1.0146    0.7394 C   0  0  0  0  0  0  0  0  0  0  0  0
   -1.4955    1.6380    0.2435 O   0  0  0  0  0  0  0  0  0  0  0  0
    0.2065    1.6193    1.7173 N   0  0  0  0  0  0  0  0  0  0  0  0
    0.9435    1.0664    2.1457 H   0  0  0  0  0  0  0  0  0  0  0  0
   -0.0010    2.9899    2.1673 C   0  0  0  0  0  0  0  0  0  0  0  0
   -1.0140    3.1141    2.5645 H   0  0  0  0  0  0  0  0  0  0  0  0
    0.7128    3.2403    2.9578 H   0  0  0  0  0  0  0  0  0  0  0  0
    0.1412    3.6902    1.3375 H   0  0  0  0  0  0  0  0  0  0  0  0
  1  2  1  0  0  0  0
  2  3  1  0  0  0  0
  2  4  1  0  0  0  0
  2  5  1  0  0  0  0
  5  6  2  0  0  0  0
  5  7  1  0  0  0  0
  7  8  1  0  0  0  0
  7  9  1  0  0  0  0
  9 10  1  0  0  0  0
  9 11  1  0  0  0  0
  9 24  1  0  0  0  0
 11 12  1  0  0  0  0
 11 13  1  0  0  0  0
 11 14  1  0  0  0  0
 14 15  1  0  0  0  0
 14 16  1  0  0  0  0
 14 20  1  0  0  0  0
 16 17  1  0  0  0  0
 16 18  1  0  0  0  0
 16 19  1  0  0  0  0
 20 21  1  0  0  0  0
 20 22  1  0  0  0  0
 20 23  1  0  0  0  0
 24 25  2  0  0  0  0
 24 26  1  0  0  0  0
 26 27  1  0  0  0  0
 26 28  1  0  0  0  0
 28 29  1  0  0  0  0
 28 30  1  0  0  0  0
 28 31  1  0  0  0  0
M  END
$$$$

  -OEChem-03222214063D

 31 30  0     1  0  0  0  0  0999 V2000
   -3.3619   -3.8854    1.2436 H   0  0  0  0  0  0  0  0  0  0  0  0
   -3.3242   -2.9110    0.7486 C   0  0  0  0  0  0  0  0  0  0  0  0
   -3.9902   -2.2226    1.2746 H   0  0  0  0  0  0  0  0  0  0  0  0
   -3.6693   -3.0250   -0.2820 H   0  0  0  0  0  0  0  0  0  0  0  0
   -1.9062   -2.3721    0.7622 C   0  0  0  0  0  0  0  0  0  0  0  0
   -1.0021   -3.0418    1.2363 O   0  0  0  0  0  0  0  0  0  0  0  0
   -1.6461   -1.1212    0.2441 N   0  0  0  0  0  0  0  0  0  0  0  0
   -2.4434   -0.5581   -0.0491 H   0  0  0  0  0  0  0  0  0  0  0  0
   -0.3444   -0.4413    0.3111 C   0  0  1  0  0  0  0  0  0  0  0  0
    0.2649   -0.8880    1.1035 H   0  0  0  0  0  0  0  0  0  0  0  0
    0.4079   -0.6595   -1.0310 C   0  0  0  0  0  0  0  0  0  0  0  0
    1.1364   -1.4664   -0.8987 H   0  0  0  0  0  0  0  0  0  0  0  0
   -0.3248   -1.0277   -1.7573 H   0  0  0  0  0  0  0  0  0  0  0  0
    1.0996    0.5754   -1.6659 C   0  0  0  0  0  0  0  0  0  0  0  0
    0.5520    1.4999   -1.4656 H   0  0  0  0  0  0  0  0  0  0  0  0
    2.5393    0.6955   -1.1515 C   0  0  0  0  0  0  0  0  0  0  0  0
    3.1224   -0.1945   -1.4091 H   0  0  0  0  0  0  0  0  0  0  0  0
    3.0287    1.5699   -1.5920 H   0  0  0  0  0  0  0  0  0  0  0  0
    2.5453    0.8120   -0.0638 H   0  0  0  0  0  0  0  0  0  0  0  0
    1.1520    0.4066   -3.1902 C   0  0  0  0  0  0  0  0  0  0  0  0
    0.1397    0.3669   -3.6048 H   0  0  0  0  0  0  0  0  0  0  0  0
    1.6744    1.2513   -3.6504 H   0  0  0  0  0  0  0  0  0  0  0  0
    1.6759   -0.5158   -3.4611 H   0  0  0  0  0  0  0  0  0  0  0  0
   -0.5702    1.0277    0.7292 C   0  0  0  0  0  0  0  0  0  0  0  0
   -1.5198    1.6571    0.2741 O   0  0  0  0  0  0  0  0  0  0  0  0
    0.2323    1.6135    1.6910 N   0  0  0  0  0  0  0  0  0  0  0  0
    0.9776    1.0495    2.0894 H   0  0  0  0  0  0  0  0  0  0  0  0
    0.0396    2.9744    2.1760 C   0  0  0  0  0  0  0  0  0  0  0  0
   -0.9657    3.0946    2.5936 H   0  0  0  0  0  0  0  0  0  0  0  0
    0.7679    3.2027    2.9601 H   0  0  0  0  0  0  0  0  0  0  0  0
    0.1715    3.6932    1.3606 H   0  0  0  0  0  0  0  0  0  0  0  0
  1  2  1  0  0  0  0
  2  3  1  0  0  0  0
  2  4  1  0  0  0  0
  2  5  1  0  0  0  0
  5  6  2  0  0  0  0
  5  7  1  0  0  0  0
  7  8  1  0  0  0  0
  7  9  1  0  0  0  0
  9 10  1  0  0  0  0
  9 11  1  0  0  0  0
  9 24  1  0  0  0  0
 11 12  1  0  0  0  0
 11 13  1  0  0  0  0
 11 14  1  0  0  0  0
 14 15  1  0  0  0  0
 14 16  1  0  0  0  0
 14 20  1  0  0  0  0
 16 17  1  0  0  0  0
 16 18  1  0  0  0  0
 16 19  1  0  0  0  0
 20 21  1  0  0  0  0
 20 22  1  0  0  0  0
 20 23  1  0  0  0  0
 24 25  2  0  0  0  0
 24 26  1  0  0  0  0
 26 27  1  0  0  0  0
 26 28  1  0  0  0  0
 28 29  1  0  0  0  0
 28 30  1  0  0  0  0
 28 31  1  0  0  0  0
M  END
$$$$

  -OEChem-03222214063D

 31 30  0     1  0  0  0  0  0999 V2000
   -3.3523   -3.8903    1.2327 H   0  0  0  0  0  0  0  0  0  0  0  0
   -3.3173   -2.9122    0.7447 C   0  0  0  0  0  0  0  0  0  0  0  0
   -3.9875   -2.2305    1.2739 H   0  0  0  0  0  0  0  0  0  0  0  0
   -3.6591   -3.0206   -0.2873 H   0  0  0  0  0  0  0  0  0  0  0  0
   -1.9015   -2.3677    0.7656 C   0  0  0  0  0  0  0  0  0  0  0  0
   -0.9966   -3.0366    1.2396 O   0  0  0  0  0  0  0  0  0  0  0  0
   -1.6420   -1.1148    0.2515 N   0  0  0  0  0  0  0  0  0  0  0  0
   -2.4385   -0.5532   -0.0468 H   0  0  0  0  0  0  0  0  0  0  0  0
   -0.3402   -0.4345    0.3212 C   0  0  1  0  0  0  0  0  0  0  0  0
    0.2698   -0.8820    1.1130 H   0  0  0  0  0  0  0  0  0  0  0  0
    0.4088   -0.6518   -1.0239 C   0  0  0  0  0  0  0  0  0  0  0  0
    1.1331   -1.4610   -0.8832 H   0  0  0  0  0  0  0  0  0  0  0  0
   -0.3232   -1.0320   -1.7447 H   0  0  0  0  0  0  0  0  0  0  0  0
    1.1098    0.5751   -1.6769 C   0  0  0  0  0  0  0  0  0  0  0  0
    0.7606    1.5250   -1.2677 H   0  0  0  0  0  0  0  0  0  0  0  0
    2.6270    0.4777   -1.4765 C   0  0  0  0  0  0  0  0  0  0  0  0
    3.0247   -0.4306   -1.9409 H   0  0  0  0  0  0  0  0  0  0  0  0
    3.1270    1.3425   -1.9238 H   0  0  0  0  0  0  0  0  0  0  0  0
    2.8668    0.4570   -0.4089 H   0  0  0  0  0  0  0  0  0  0  0  0
    0.8192    0.6047   -3.1833 C   0  0  0  0  0  0  0  0  0  0  0  0
   -0.2551    0.7184   -3.3606 H   0  0  0  0  0  0  0  0  0  0  0  0
    1.3331    1.4480   -3.6554 H   0  0  0  0  0  0  0  0  0  0  0  0
    1.1564   -0.3202   -3.6622 H   0  0  0  0  0  0  0  0  0  0  0  0
   -0.5745    1.0313    0.7442 C   0  0  0  0  0  0  0  0  0  0  0  0
   -1.5189    1.6613    0.2791 O   0  0  0  0  0  0  0  0  0  0  0  0
    0.2231    1.6178    1.7096 N   0  0  0  0  0  0  0  0  0  0  0  0
    0.9705    1.0564    2.1078 H   0  0  0  0  0  0  0  0  0  0  0  0
    0.0230    2.9767    2.1969 C   0  0  0  0  0  0  0  0  0  0  0  0
   -0.9838    3.0909    2.6123 H   0  0  0  0  0  0  0  0  0  0  0  0
    0.7485    3.2072    2.9829 H   0  0  0  0  0  0  0  0  0  0  0  0
    0.1530    3.6978    1.3832 H   0  0  0  0  0  0  0  0  0  0  0  0
  1  2  1  0  0  0  0
  2  3  1  0  0  0  0
  2  4  1  0  0  0  0
  2  5  1  0  0  0  0
  5  6  2  0  0  0  0
  5  7  1  0  0  0  0
  7  8  1  0  0  0  0
  7  9  1  0  0  0  0
  9 10  1  0  0  0  0
  9 11  1  0  0  0  0
  9 24  1  0  0  0  0
 11 12  1  0  0  0  0
 11 13  1  0  0  0  0
 11 14  1  0  0  0  0
 14 15  1  0  0  0  0
 14 16  1  0  0  0  0
 14 20  1  0  0  0  0
 16 17  1  0  0  0  0
 16 18  1  0  0  0  0
 16 19  1  0  0  0  0
 20 21  1  0  0  0  0
 20 22  1  0  0  0  0
 20 23  1  0  0  0  0
 24 25  2  0  0  0  0
 24 26  1  0  0  0  0
 26 27  1  0  0  0  0
 26 28  1  0  0  0  0
 28 29  1  0  0  0  0
 28 30  1  0  0  0  0
 28 31  1  0  0  0  0
M  END
$$$$

  -OEChem-03222214063D

 31 30  0     1  0  0  0  0  0999 V2000
   -3.3560   -3.8862    1.2300 H   0  0  0  0  0  0  0  0  0  0  0  0
   -3.3143   -2.9080    0.7430 C   0  0  0  0  0  0  0  0  0  0  0  0
   -3.9867   -2.2250    1.2676 H   0  0  0  0  0  0  0  0  0  0  0  0
   -3.6486   -3.0148   -0.2917 H   0  0  0  0  0  0  0  0  0  0  0  0
   -1.8969   -2.3684    0.7752 C   0  0  0  0  0  0  0  0  0  0  0  0
   -1.0001   -3.0357    1.2667 O   0  0  0  0  0  0  0  0  0  0  0  0
   -1.6270   -1.1207    0.2539 N   0  0  0  0  0  0  0  0  0  0  0  0
   -2.4175   -0.5581   -0.0584 H   0  0  0  0  0  0  0  0  0  0  0  0
   -0.3223   -0.4469    0.3296 C   0  0  1  0  0  0  0  0  0  0  0  0
    0.2882   -0.8920    1.1221 H   0  0  0  0  0  0  0  0  0  0  0  0
    0.4160   -0.6628   -1.0222 C   0  0  0  0  0  0  0  0  0  0  0  0
    1.1442   -1.4657   -0.8659 H   0  0  0  0  0  0  0  0  0  0  0  0
   -0.3051   -1.0584   -1.7459 H   0  0  0  0  0  0  0  0  0  0  0  0
    1.1245    0.5608   -1.6767 C   0  0  0  0  0  0  0  0  0  0  0  0
    1.0345    1.4613   -1.0671 H   0  0  0  0  0  0  0  0  0  0  0  0
    2.6242    0.2807   -1.8306 C   0  0  0  0  0  0  0  0  0  0  0  0
    2.7915   -0.5943   -2.4669 H   0  0  0  0  0  0  0  0  0  0  0  0
    3.1280    1.1402   -2.2838 H   0  0  0  0  0  0  0  0  0  0  0  0
    3.0786    0.0935   -0.8525 H   0  0  0  0  0  0  0  0  0  0  0  0
    0.5099    0.8704   -3.0470 C   0  0  0  0  0  0  0  0  0  0  0  0
   -0.5556    1.0980   -2.9403 H   0  0  0  0  0  0  0  0  0  0  0  0
    1.0012    1.7377   -3.4986 H   0  0  0  0  0  0  0  0  0  0  0  0
    0.6196    0.0173   -3.7242 H   0  0  0  0  0  0  0  0  0  0  0  0
   -0.5704    1.0205    0.7406 C   0  0  0  0  0  0  0  0  0  0  0  0
   -1.5035    1.6475    0.2497 O   0  0  0  0  0  0  0  0  0  0  0  0
    0.2121    1.6179    1.7117 N   0  0  0  0  0  0  0  0  0  0  0  0
    0.9504    1.0600    2.1312 H   0  0  0  0  0  0  0  0  0  0  0  0
    0.0020    2.9812    2.1823 C   0  0  0  0  0  0  0  0  0  0  0  0
   -1.0077    3.0946    2.5908 H   0  0  0  0  0  0  0  0  0  0  0  0
    0.7219    3.2249    2.9694 H   0  0  0  0  0  0  0  0  0  0  0  0
    0.1324    3.6933    1.3608 H   0  0  0  0  0  0  0  0  0  0  0  0
  1  2  1  0  0  0  0
  2  3  1  0  0  0  0
  2  4  1  0  0  0  0
  2  5  1  0  0  0  0
  5  6  2  0  0  0  0
  5  7  1  0  0  0  0
  7  8  1  0  0  0  0
  7  9  1  0  0  0  0
  9 10  1  0  0  0  0
  9 11  1  0  0  0  0
  9 24  1  0  0  0  0
 11 12  1  0  0  0  0
 11 13  1  0  0  0  0
 11 14  1  0  0  0  0
 14 15  1  0  0  0  0
 14 16  1  0  0  0  0
 14 20  1  0  0  0  0
 16 17  1  0  0  0  0
 16 18  1  0  0  0  0
 16 19  1  0  0  0  0
 20 21  1  0  0  0  0
 20 22  1  0  0  0  0
 20 23  1  0  0  0  0
 24 25  2  0  0  0  0
 24 26  1  0  0  0  0
 26 27  1  0  0  0  0
 26 28  1  0  0  0  0
 28 29  1  0  0  0  0
 28 30  1  0  0  0  0
 28 31  1  0  0  0  0
M  END
$$$$

  -OEChem-03222214063D

 31 30  0     1  0  0  0  0  0999 V2000
   -3.3609   -3.8810    1.2416 H   0  0  0  0  0  0  0  0  0  0  0  0
   -3.3173   -2.9045    0.7512 C   0  0  0  0  0  0  0  0  0  0  0  0
   -3.9829   -2.2160    1.2776 H   0  0  0  0  0  0  0  0  0  0  0  0
   -3.6583   -3.0125   -0.2813 H   0  0  0  0  0  0  0  0  0  0  0  0
   -1.8970   -2.3717    0.7736 C   0  0  0  0  0  0  0  0  0  0  0  0
   -1.0014   -3.0396    1.2665 O   0  0  0  0  0  0  0  0  0  0  0  0
   -1.6245   -1.1279    0.2444 N   0  0  0  0  0  0  0  0  0  0  0  0
   -2.4149   -0.5629   -0.0638 H   0  0  0  0  0  0  0  0  0  0  0  0
   -0.3190   -0.4561    0.3196 C   0  0  1  0  0  0  0  0  0  0  0  0
    0.2897   -0.8985    1.1150 H   0  0  0  0  0  0  0  0  0  0  0  0
    0.4177   -0.6762   -1.0309 C   0  0  0  0  0  0  0  0  0  0  0  0
    1.1575   -1.4646   -0.8560 H   0  0  0  0  0  0  0  0  0  0  0  0
   -0.2867   -1.0855   -1.7633 H   0  0  0  0  0  0  0  0  0  0  0  0
    1.1210    0.5515   -1.6731 C   0  0  0  0  0  0  0  0  0  0  0  0
    1.2784    1.3427   -0.9361 H   0  0  0  0  0  0  0  0  0  0  0  0
    2.5174    0.1619   -2.1712 C   0  0  0  0  0  0  0  0  0  0  0  0
    2.4509   -0.6361   -2.9177 H   0  0  0  0  0  0  0  0  0  0  0  0
    3.0127    1.0243   -2.6283 H   0  0  0  0  0  0  0  0  0  0  0  0
    3.1371   -0.1878   -1.3397 H   0  0  0  0  0  0  0  0  0  0  0  0
    0.2820    1.1229   -2.8216 C   0  0  0  0  0  0  0  0  0  0  0  0
   -0.7121    1.4074   -2.4626 H   0  0  0  0  0  0  0  0  0  0  0  0
    0.7638    2.0128   -3.2383 H   0  0  0  0  0  0  0  0  0  0  0  0
    0.1655    0.3847   -3.6213 H   0  0  0  0  0  0  0  0  0  0  0  0
   -0.5644    1.0157    0.7203 C   0  0  0  0  0  0  0  0  0  0  0  0
   -1.5063    1.6375    0.2397 O   0  0  0  0  0  0  0  0  0  0  0  0
    0.2181    1.6162    1.6896 N   0  0  0  0  0  0  0  0  0  0  0  0
    0.9556    1.0589    2.1113 H   0  0  0  0  0  0  0  0  0  0  0  0
   -0.0012    2.9755    2.1677 C   0  0  0  0  0  0  0  0  0  0  0  0
   -1.0070    3.0767    2.5888 H   0  0  0  0  0  0  0  0  0  0  0  0
    0.7257    3.2243    2.9468 H   0  0  0  0  0  0  0  0  0  0  0  0
    0.1115    3.6921    1.3474 H   0  0  0  0  0  0  0  0  0  0  0  0
  1  2  1  0  0  0  0
  2  3  1  0  0  0  0
  2  4  1  0  0  0  0
  2  5  1  0  0  0  0
  5  6  2  0  0  0  0
  5  7  1  0  0  0  0
  7  8  1  0  0  0  0
  7  9  1  0  0  0  0
  9 10  1  0  0  0  0
  9 11  1  0  0  0  0
  9 24  1  0  0  0  0
 11 12  1  0  0  0  0
 11 13  1  0  0  0  0
 11 14  1  0  0  0  0
 14 15  1  0  0  0  0
 14 16  1  0  0  0  0
 14 20  1  0  0  0  0
 16 17  1  0  0  0  0
 16 18  1  0  0  0  0
 16 19  1  0  0  0  0
 20 21  1  0  0  0  0
 20 22  1  0  0  0  0
 20 23  1  0  0  0  0
 24 25  2  0  0  0  0
 24 26  1  0  0  0  0
 26 27  1  0  0  0  0
 26 28  1  0  0  0  0
 28 29  1  0  0  0  0
 28 30  1  0  0  0  0
 28 31  1  0  0  0  0
M  END
$$$$

  -OEChem-03222214063D

 31 30  0     1  0  0  0  0  0999 V2000
   -3.3478   -3.8896    1.2346 H   0  0  0  0  0  0  0  0  0  0  0  0
   -3.3200   -2.9026    0.7649 C   0  0  0  0  0  0  0  0  0  0  0  0
   -3.9713   -2.2272    1.3250 H   0  0  0  0  0  0  0  0  0  0  0  0
   -3.6903   -2.9887   -0.2595 H   0  0  0  0  0  0  0  0  0  0  0  0
   -1.9008   -2.3668    0.7574 C   0  0  0  0  0  0  0  0  0  0  0  0
   -0.9904   -3.0401    1.2145 O   0  0  0  0  0  0  0  0  0  0  0  0
   -1.6459   -1.1153    0.2379 N   0  0  0  0  0  0  0  0  0  0  0  0
   -2.4481   -0.5463   -0.0298 H   0  0  0  0  0  0  0  0  0  0  0  0
   -0.3460   -0.4324    0.3003 C   0  0  1  0  0  0  0  0  0  0  0  0
    0.2589   -0.8762    1.0978 H   0  0  0  0  0  0  0  0  0  0  0  0
    0.4116   -0.6640   -1.0359 C   0  0  0  0  0  0  0  0  0  0  0  0
    1.1664   -1.4321   -0.8362 H   0  0  0  0  0  0  0  0  0  0  0  0
   -0.2733   -1.0949   -1.7743 H   0  0  0  0  0  0  0  0  0  0  0  0
    1.1014    0.5647   -1.6802 C   0  0  0  0  0  0  0  0  0  0  0  0
    1.4513    1.2527   -0.9049 H   0  0  0  0  0  0  0  0  0  0  0  0
    2.3348    0.1116   -2.4711 C   0  0  0  0  0  0  0  0  0  0  0  0
    2.0524   -0.6007   -3.2531 H   0  0  0  0  0  0  0  0  0  0  0  0
    2.8219    0.9708   -2.9431 H   0  0  0  0  0  0  0  0  0  0  0  0
    3.0604   -0.3690   -1.8074 H   0  0  0  0  0  0  0  0  0  0  0  0
    0.1500    1.3088   -2.6287 C   0  0  0  0  0  0  0  0  0  0  0  0
   -0.7558    1.6286   -2.1089 H   0  0  0  0  0  0  0  0  0  0  0  0
    0.6404    2.1990   -3.0344 H   0  0  0  0  0  0  0  0  0  0  0  0
   -0.1447    0.6650   -3.4634 H   0  0  0  0  0  0  0  0  0  0  0  0
   -0.5696    1.0384    0.7186 C   0  0  0  0  0  0  0  0  0  0  0  0
   -1.5622    1.6471    0.3326 O   0  0  0  0  0  0  0  0  0  0  0  0
    0.2407    1.6200    1.6769 N   0  0  0  0  0  0  0  0  0  0  0  0
    1.0020    1.0610    2.0515 H   0  0  0  0  0  0  0  0  0  0  0  0
    0.0125    2.9542    2.2181 C   0  0  0  0  0  0  0  0  0  0  0  0
   -0.9605    3.0039    2.7179 H   0  0  0  0  0  0  0  0  0  0  0  0
    0.7891    3.2044    2.9472 H   0  0  0  0  0  0  0  0  0  0  0  0
    0.0366    3.7012    1.4177 H   0  0  0  0  0  0  0  0  0  0  0  0
  1  2  1  0  0  0  0
  2  3  1  0  0  0  0
  2  4  1  0  0  0  0
  2  5  1  0  0  0  0
  5  6  2  0  0  0  0
  5  7  1  0  0  0  0
  7  8  1  0  0  0  0
  7  9  1  0  0  0  0
  9 10  1  0  0  0  0
  9 11  1  0  0  0  0
  9 24  1  0  0  0  0
 11 12  1  0  0  0  0
 11 13  1  0  0  0  0
 11 14  1  0  0  0  0
 14 15  1  0  0  0  0
 14 16  1  0  0  0  0
 14 20  1  0  0  0  0
 16 17  1  0  0  0  0
 16 18  1  0  0  0  0
 16 19  1  0  0  0  0
 20 21  1  0  0  0  0
 20 22  1  0  0  0  0
 20 23  1  0  0  0  0
 24 25  2  0  0  0  0
 24 26  1  0  0  0  0
 26 27  1  0  0  0  0
 26 28  1  0  0  0  0
 28 29  1  0  0  0  0
 28 30  1  0  0  0  0
 28 31  1  0  0  0  0
M  END
$$$$

  -OEChem-03222214063D

 31 30  0     1  0  0  0  0  0999 V2000
   -3.3071   -3.9131    1.2141 H   0  0  0  0  0  0  0  0  0  0  0  0
   -3.3051   -2.9133    0.7708 C   0  0  0  0  0  0  0  0  0  0  0  0
   -3.9433   -2.2604    1.3713 H   0  0  0  0  0  0  0  0  0  0  0  0
   -3.7093   -2.9763   -0.2424 H   0  0  0  0  0  0  0  0  0  0  0  0
   -1.8925   -2.3618    0.7306 C   0  0  0  0  0  0  0  0  0  0  0  0
   -0.9612   -3.0374    1.1402 O   0  0  0  0  0  0  0  0  0  0  0  0
   -1.6674   -1.0943    0.2358 N   0  0  0  0  0  0  0  0  0  0  0  0
   -2.4848   -0.5269    0.0150 H   0  0  0  0  0  0  0  0  0  0  0  0
   -0.3768   -0.3929    0.2929 C   0  0  1  0  0  0  0  0  0  0  0  0
    0.2252   -0.8425    1.0897 H   0  0  0  0  0  0  0  0  0  0  0  0
    0.4061   -0.6234   -1.0280 C   0  0  0  0  0  0  0  0  0  0  0  0
    1.1681   -1.3799   -0.8130 H   0  0  0  0  0  0  0  0  0  0  0  0
   -0.2702   -1.0682   -1.7661 H   0  0  0  0  0  0  0  0  0  0  0  0
    1.0922    0.5934   -1.6967 C   0  0  0  0  0  0  0  0  0  0  0  0
    1.6339    1.1781   -0.9458 H   0  0  0  0  0  0  0  0  0  0  0  0
    2.0942    0.0755   -2.7387 C   0  0  0  0  0  0  0  0  0  0  0  0
    1.5852   -0.5158   -3.5070 H   0  0  0  0  0  0  0  0  0  0  0  0
    2.6077    0.9105   -3.2259 H   0  0  0  0  0  0  0  0  0  0  0  0
    2.8515   -0.5543   -2.2614 H   0  0  0  0  0  0  0  0  0  0  0  0
    0.1016    1.5002   -2.4491 C   0  0  0  0  0  0  0  0  0  0  0  0
   -0.5849    2.0055   -1.7711 H   0  0  0  0  0  0  0  0  0  0  0  0
    0.6425    2.2751   -3.0015 H   0  0  0  0  0  0  0  0  0  0  0  0
   -0.4888    0.9168   -3.1627 H   0  0  0  0  0  0  0  0  0  0  0  0
   -0.5894    1.0678    0.7472 C   0  0  0  0  0  0  0  0  0  0  0  0
   -1.6265    1.6566    0.4583 O   0  0  0  0  0  0  0  0  0  0  0  0
    0.2447    1.6249    1.6997 N   0  0  0  0  0  0  0  0  0  0  0  0
    1.0338    1.0688    2.0164 H   0  0  0  0  0  0  0  0  0  0  0  0
    0.0049    2.9236    2.3168 C   0  0  0  0  0  0  0  0  0  0  0  0
   -0.9346    2.9129    2.8793 H   0  0  0  0  0  0  0  0  0  0  0  0
    0.8183    3.1705    3.0057 H   0  0  0  0  0  0  0  0  0  0  0  0
   -0.0501    3.7062    1.5527 H   0  0  0  0  0  0  0  0  0  0  0  0
  1  2  1  0  0  0  0
  2  3  1  0  0  0  0
  2  4  1  0  0  0  0
  2  5  1  0  0  0  0
  5  6  2  0  0  0  0
  5  7  1  0  0  0  0
  7  8  1  0  0  0  0
  7  9  1  0  0  0  0
  9 10  1  0  0  0  0
  9 11  1  0  0  0  0
  9 24  1  0  0  0  0
 11 12  1  0  0  0  0
 11 13  1  0  0  0  0
 11 14  1  0  0  0  0
 14 15  1  0  0  0  0
 14 16  1  0  0  0  0
 14 20  1  0  0  0  0
 16 17  1  0  0  0  0
 16 18  1  0  0  0  0
 16 19  1  0  0  0  0
 20 21  1  0  0  0  0
 20 22  1  0  0  0  0
 20 23  1  0  0  0  0
 24 25  2  0  0  0  0
 24 26  1  0  0  0  0
 26 27  1  0  0  0  0
 26 28  1  0  0  0  0
 28 29  1  0  0  0  0
 28 30  1  0  0  0  0
 28 31  1  0  0  0  0
M  END
$$$$

  -OEChem-03222214063D

 31 30  0     1  0  0  0  0  0999 V2000
   -3.3076   -3.9246    1.1549 H   0  0  0  0  0  0  0  0  0  0  0  0
   -3.2870   -2.9272    0.7068 C   0  0  0  0  0  0  0  0  0  0  0  0
   -3.9546   -2.2730    1.2730 H   0  0  0  0  0  0  0  0  0  0  0  0
   -3.6434   -2.9963   -0.3238 H   0  0  0  0  0  0  0  0  0  0  0  0
   -1.8749   -2.3727    0.7300 C   0  0  0  0  0  0  0  0  0  0  0  0
   -0.9624   -3.0443    1.1855 O   0  0  0  0  0  0  0  0  0  0  0  0
   -1.6281   -1.1064    0.2432 N   0  0  0  0  0  0  0  0  0  0  0  0
   -2.4329   -0.5399   -0.0228 H   0  0  0  0  0  0  0  0  0  0  0  0
   -0.3366   -0.4109    0.3428 C   0  0  1  0  0  0  0  0  0  0  0  0
    0.2693   -0.8597    1.1370 H   0  0  0  0  0  0  0  0  0  0  0  0
    0.4280   -0.6162   -0.9933 C   0  0  0  0  0  0  0  0  0  0  0  0
    0.9621   -1.5691   -0.9137 H   0  0  0  0  0  0  0  0  0  0  0  0
   -0.3207   -0.7397   -1.7838 H   0  0  0  0  0  0  0  0  0  0  0  0
    1.4217    0.4660   -1.4974 C   0  0  0  0  0  0  0  0  0  0  0  0
    2.2301    0.5853   -0.7683 H   0  0  0  0  0  0  0  0  0  0  0  0
    2.0096   -0.0351   -2.8262 C   0  0  0  0  0  0  0  0  0  0  0  0
    1.2300   -0.1170   -3.5907 H   0  0  0  0  0  0  0  0  0  0  0  0
    2.7812    0.6514   -3.1886 H   0  0  0  0  0  0  0  0  0  0  0  0
    2.4706   -1.0190   -2.6940 H   0  0  0  0  0  0  0  0  0  0  0  0
    0.7988    1.8442   -1.7934 C   0  0  0  0  0  0  0  0  0  0  0  0
    0.7283    2.4506   -0.8883 H   0  0  0  0  0  0  0  0  0  0  0  0
    1.4170    2.4078   -2.4993 H   0  0  0  0  0  0  0  0  0  0  0  0
   -0.2001    1.7322   -2.2273 H   0  0  0  0  0  0  0  0  0  0  0  0
   -0.6060    1.0389    0.7912 C   0  0  0  0  0  0  0  0  0  0  0  0
   -1.5904    1.6403    0.3719 O   0  0  0  0  0  0  0  0  0  0  0  0
    0.1681    1.6184    1.7802 N   0  0  0  0  0  0  0  0  0  0  0  0
    0.9313    1.0680    2.1636 H   0  0  0  0  0  0  0  0  0  0  0  0
   -0.0941    2.9422    2.3309 C   0  0  0  0  0  0  0  0  0  0  0  0
   -1.0837    2.9733    2.7987 H   0  0  0  0  0  0  0  0  0  0  0  0
    0.6547    3.1915    3.0887 H   0  0  0  0  0  0  0  0  0  0  0  0
   -0.0528    3.7004    1.5419 H   0  0  0  0  0  0  0  0  0  0  0  0
  1  2  1  0  0  0  0
  2  3  1  0  0  0  0
  2  4  1  0  0  0  0
  2  5  1  0  0  0  0
  5  6  2  0  0  0  0
  5  7  1  0  0  0  0
  7  8  1  0  0  0  0
  7  9  1  0  0  0  0
  9 10  1  0  0  0  0
  9 11  1  0  0  0  0
  9 24  1  0  0  0  0
 11 12  1  0  0  0  0
 11 13  1  0  0  0  0
 11 14  1  0  0  0  0
 14 15  1  0  0  0  0
 14 16  1  0  0  0  0
 14 20  1  0  0  0  0
 16 17  1  0  0  0  0
 16 18  1  0  0  0  0
 16 19  1  0  0  0  0
 20 21  1  0  0  0  0
 20 22  1  0  0  0  0
 20 23  1  0  0  0  0
 24 25  2  0  0  0  0
 24 26  1  0  0  0  0
 26 27  1  0  0  0  0
 26 28  1  0  0  0  0
 28 29  1  0  0  0  0
 28 30  1  0  0  0  0
 28 31  1  0  0  0  0
M  END
$$$$

  -OEChem-03222214063D

 31 30  0     1  0  0  0  0  0999 V2000
   -3.2977   -3.9259    1.1222 H   0  0  0  0  0  0  0  0  0  0  0  0
   -3.2760   -2.9253    0.6816 C   0  0  0  0  0  0  0  0  0  0  0  0
   -3.9490   -2.2768    1.2476 H   0  0  0  0  0  0  0  0  0  0  0  0
   -3.6243   -2.9874   -0.3521 H   0  0  0  0  0  0  0  0  0  0  0  0
   -1.8660   -2.3673    0.7193 C   0  0  0  0  0  0  0  0  0  0  0  0
   -0.9532   -3.0424    1.1691 O   0  0  0  0  0  0  0  0  0  0  0  0
   -1.6222   -1.0921    0.2549 N   0  0  0  0  0  0  0  0  0  0  0  0
   -2.4277   -0.5251   -0.0082 H   0  0  0  0  0  0  0  0  0  0  0  0
   -0.3332   -0.3933    0.3715 C   0  0  1  0  0  0  0  0  0  0  0  0
    0.2727   -0.8487    1.1615 H   0  0  0  0  0  0  0  0  0  0  0  0
    0.4301   -0.5948   -0.9709 C   0  0  0  0  0  0  0  0  0  0  0  0
    0.9444   -1.5599   -0.9108 H   0  0  0  0  0  0  0  0  0  0  0  0
   -0.3403   -0.6988   -1.7433 H   0  0  0  0  0  0  0  0  0  0  0  0
    1.4392    0.4546   -1.5256 C   0  0  0  0  0  0  0  0  0  0  0  0
    2.3747    0.3749   -0.9621 H   0  0  0  0  0  0  0  0  0  0  0  0
    1.6988    0.1055   -3.0009 C   0  0  0  0  0  0  0  0  0  0  0  0
    0.7944    0.2479   -3.6016 H   0  0  0  0  0  0  0  0  0  0  0  0
    2.4917    0.7376   -3.4132 H   0  0  0  0  0  0  0  0  0  0  0  0
    2.0172   -0.9376   -3.0951 H   0  0  0  0  0  0  0  0  0  0  0  0
    0.9904    1.9261   -1.5204 C   0  0  0  0  0  0  0  0  0  0  0  0
    1.1115    2.3709   -0.5310 H   0  0  0  0  0  0  0  0  0  0  0  0
    1.6022    2.5205   -2.2064 H   0  0  0  0  0  0  0  0  0  0  0  0
   -0.0547    2.0131   -1.8342 H   0  0  0  0  0  0  0  0  0  0  0  0
   -0.6278    1.0448    0.8437 C   0  0  0  0  0  0  0  0  0  0  0  0
   -1.6106    1.6454    0.4195 O   0  0  0  0  0  0  0  0  0  0  0  0
    0.1302    1.6173    1.8498 N   0  0  0  0  0  0  0  0  0  0  0  0
    0.8959    1.0693    2.2315 H   0  0  0  0  0  0  0  0  0  0  0  0
   -0.1512    2.9295    2.4188 C   0  0  0  0  0  0  0  0  0  0  0  0
   -1.1444    2.9425    2.8795 H   0  0  0  0  0  0  0  0  0  0  0  0
    0.5891    3.1755    3.1861 H   0  0  0  0  0  0  0  0  0  0  0  0
   -0.1123    3.7002    1.6418 H   0  0  0  0  0  0  0  0  0  0  0  0
  1  2  1  0  0  0  0
  2  3  1  0  0  0  0
  2  4  1  0  0  0  0
  2  5  1  0  0  0  0
  5  6  2  0  0  0  0
  5  7  1  0  0  0  0
  7  8  1  0  0  0  0
  7  9  1  0  0  0  0
  9 10  1  0  0  0  0
  9 11  1  0  0  0  0
  9 24  1  0  0  0  0
 11 12  1  0  0  0  0
 11 13  1  0  0  0  0
 11 14  1  0  0  0  0
 14 15  1  0  0  0  0
 14 16  1  0  0  0  0
 14 20  1  0  0  0  0
 16 17  1  0  0  0  0
 16 18  1  0  0  0  0
 16 19  1  0  0  0  0
 20 21  1  0  0  0  0
 20 22  1  0  0  0  0
 20 23  1  0  0  0  0
 24 25  2  0  0  0  0
 24 26  1  0  0  0  0
 26 27  1  0  0  0  0
 26 28  1  0  0  0  0
 28 29  1  0  0  0  0
 28 30  1  0  0  0  0
 28 31  1  0  0  0  0
M  END
$$$$

  -OEChem-03222214063D

 31 30  0     1  0  0  0  0  0999 V2000
   -3.3240   -3.9003    1.1360 H   0  0  0  0  0  0  0  0  0  0  0  0
   -3.2877   -2.9068    0.6802 C   0  0  0  0  0  0  0  0  0  0  0  0
   -3.9745   -2.2479    1.2170 H   0  0  0  0  0  0  0  0  0  0  0  0
   -3.6075   -2.9847   -0.3618 H   0  0  0  0  0  0  0  0  0  0  0  0
   -1.8777   -2.3513    0.7477 C   0  0  0  0  0  0  0  0  0  0  0  0
   -0.9765   -3.0259    1.2205 O   0  0  0  0  0  0  0  0  0  0  0  0
   -1.6197   -1.0803    0.2799 N   0  0  0  0  0  0  0  0  0  0  0  0
   -2.4167   -0.5116   -0.0049 H   0  0  0  0  0  0  0  0  0  0  0  0
   -0.3272   -0.3889    0.4086 C   0  0  1  0  0  0  0  0  0  0  0  0
    0.2781   -0.8402    1.2016 H   0  0  0  0  0  0  0  0  0  0  0  0
    0.4238   -0.6026   -0.9430 C   0  0  0  0  0  0  0  0  0  0  0  0
    0.9140   -1.5806   -0.8906 H   0  0  0  0  0  0  0  0  0  0  0  0
   -0.3653   -0.6958   -1.6976 H   0  0  0  0  0  0  0  0  0  0  0  0
    1.4516    0.4088   -1.5457 C   0  0  0  0  0  0  0  0  0  0  0  0
    2.4474    0.1127   -1.1990 H   0  0  0  0  0  0  0  0  0  0  0  0
    1.4020    0.2894   -3.0786 C   0  0  0  0  0  0  0  0  0  0  0  0
    0.4431    0.6480   -3.4673 H   0  0  0  0  0  0  0  0  0  0  0  0
    2.2031    0.8779   -3.5372 H   0  0  0  0  0  0  0  0  0  0  0  0
    1.5327   -0.7538   -3.3838 H   0  0  0  0  0  0  0  0  0  0  0  0
    1.2864    1.9016   -1.2305 C   0  0  0  0  0  0  0  0  0  0  0  0
    1.9608    2.4994   -1.8515 H   0  0  0  0  0  0  0  0  0  0  0  0
    1.5478    2.1095   -0.1917 H   0  0  0  0  0  0  0  0  0  0  0  0
    0.2630    2.2335   -1.4301 H   0  0  0  0  0  0  0  0  0  0  0  0
   -0.6493    1.0486    0.8704 C   0  0  0  0  0  0  0  0  0  0  0  0
   -1.6206    1.6422    0.4109 O   0  0  0  0  0  0  0  0  0  0  0  0
    0.0793    1.6385    1.8886 N   0  0  0  0  0  0  0  0  0  0  0  0
    0.8447    1.1047    2.2904 H   0  0  0  0  0  0  0  0  0  0  0  0
   -0.2202    2.9596    2.4273 C   0  0  0  0  0  0  0  0  0  0  0  0
   -1.2361    2.9859    2.8353 H   0  0  0  0  0  0  0  0  0  0  0  0
    0.4804    3.2089    3.2300 H   0  0  0  0  0  0  0  0  0  0  0  0
   -0.1345    3.7204    1.6443 H   0  0  0  0  0  0  0  0  0  0  0  0
  1  2  1  0  0  0  0
  2  3  1  0  0  0  0
  2  4  1  0  0  0  0
  2  5  1  0  0  0  0
  5  6  2  0  0  0  0
  5  7  1  0  0  0  0
  7  8  1  0  0  0  0
  7  9  1  0  0  0  0
  9 10  1  0  0  0  0
  9 11  1  0  0  0  0
  9 24  1  0  0  0  0
 11 12  1  0  0  0  0
 11 13  1  0  0  0  0
 11 14  1  0  0  0  0
 14 15  1  0  0  0  0
 14 16  1  0  0  0  0
 14 20  1  0  0  0  0
 16 17  1  0  0  0  0
 16 18  1  0  0  0  0
 16 19  1  0  0  0  0
 20 21  1  0  0  0  0
 20 22  1  0  0  0  0
 20 23  1  0  0  0  0
 24 25  2  0  0  0  0
 24 26  1  0  0  0  0
 26 27  1  0  0  0  0
 26 28  1  0  0  0  0
 28 29  1  0  0  0  0
 28 30  1  0  0  0  0
 28 31  1  0  0  0  0
M  END
$$$$

  -OEChem-03222214063D

 31 30  0     1  0  0  0  0  0999 V2000
   -3.3409   -3.9095    1.1255 H   0  0  0  0  0  0  0  0  0  0  0  0
   -3.2975   -2.9158    0.6712 C   0  0  0  0  0  0  0  0  0  0  0  0
   -3.9844   -2.2544    1.2047 H   0  0  0  0  0  0  0  0  0  0  0  0
   -3.6117   -2.9909   -0.3726 H   0  0  0  0  0  0  0  0  0  0  0  0
   -1.8850   -2.3675    0.7475 C   0  0  0  0  0  0  0  0  0  0  0  0
   -0.9897   -3.0469    1.2246 O   0  0  0  0  0  0  0  0  0  0  0  0
   -1.6174   -1.0975    0.2829 N   0  0  0  0  0  0  0  0  0  0  0  0
   -2.4090   -0.5233   -0.0063 H   0  0  0  0  0  0  0  0  0  0  0  0
   -0.3202   -0.4152    0.4169 C   0  0  1  0  0  0  0  0  0  0  0  0
    0.2956   -0.8716    1.1989 H   0  0  0  0  0  0  0  0  0  0  0  0
    0.4005   -0.6001   -0.9556 C   0  0  0  0  0  0  0  0  0  0  0  0
    0.8902   -1.5791   -0.9242 H   0  0  0  0  0  0  0  0  0  0  0  0
   -0.3994   -0.6894   -1.6991 H   0  0  0  0  0  0  0  0  0  0  0  0
    1.4273    0.4153   -1.5594 C   0  0  0  0  0  0  0  0  0  0  0  0
    2.4068   -0.0719   -1.5002 H   0  0  0  0  0  0  0  0  0  0  0  0
    1.1132    0.6409   -3.0463 C   0  0  0  0  0  0  0  0  0  0  0  0
    0.1510    1.1503   -3.1635 H   0  0  0  0  0  0  0  0  0  0  0  0
    1.8891    1.2538   -3.5157 H   0  0  0  0  0  0  0  0  0  0  0  0
    1.0698   -0.3158   -3.5769 H   0  0  0  0  0  0  0  0  0  0  0  0
    1.6067    1.7883   -0.9039 C   0  0  0  0  0  0  0  0  0  0  0  0
    1.9373    1.6777    0.1312 H   0  0  0  0  0  0  0  0  0  0  0  0
    2.3783    2.3571   -1.4323 H   0  0  0  0  0  0  0  0  0  0  0  0
    0.6819    2.3709   -0.9418 H   0  0  0  0  0  0  0  0  0  0  0  0
   -0.6624    1.0181    0.8807 C   0  0  0  0  0  0  0  0  0  0  0  0
   -1.6145    1.6167    0.3879 O   0  0  0  0  0  0  0  0  0  0  0  0
    0.0483    1.6149    1.9070 N   0  0  0  0  0  0  0  0  0  0  0  0
    0.8060    1.0825    2.3251 H   0  0  0  0  0  0  0  0  0  0  0  0
   -0.2497    2.9448    2.4233 C   0  0  0  0  0  0  0  0  0  0  0  0
   -1.2775    2.9895    2.7987 H   0  0  0  0  0  0  0  0  0  0  0  0
    0.4292    3.1916    3.2452 H   0  0  0  0  0  0  0  0  0  0  0  0
   -0.1281    3.6965    1.6365 H   0  0  0  0  0  0  0  0  0  0  0  0
  1  2  1  0  0  0  0
  2  3  1  0  0  0  0
  2  4  1  0  0  0  0
  2  5  1  0  0  0  0
  5  6  2  0  0  0  0
  5  7  1  0  0  0  0
  7  8  1  0  0  0  0
  7  9  1  0  0  0  0
  9 10  1  0  0  0  0
  9 11  1  0  0  0  0
  9 24  1  0  0  0  0
 11 12  1  0  0  0  0
 11 13  1  0  0  0  0
 11 14  1  0  0  0  0
 14 15  1  0  0  0  0
 14 16  1  0  0  0  0
 14 20  1  0  0  0  0
 16 17  1  0  0  0  0
 16 18  1  0  0  0  0
 16 19  1  0  0  0  0
 20 21  1  0  0  0  0
 20 22  1  0  0  0  0
 20 23  1  0  0  0  0
 24 25  2  0  0  0  0
 24 26  1  0  0  0  0
 26 27  1  0  0  0  0
 26 28  1  0  0  0  0
 28 29  1  0  0  0  0
 28 30  1  0  0  0  0
 28 31  1  0  0  0  0
M  END
$$$$

  -OEChem-03222214063D

 31 30  0     1  0  0  0  0  0999 V2000
   -3.3564   -3.9107    1.1494 H   0  0  0  0  0  0  0  0  0  0  0  0
   -3.3058   -2.9240    0.6806 C   0  0  0  0  0  0  0  0  0  0  0  0
   -4.0007   -2.2542    1.1930 H   0  0  0  0  0  0  0  0  0  0  0  0
   -3.6032   -3.0155   -0.3668 H   0  0  0  0  0  0  0  0  0  0  0  0
   -1.8952   -2.3738    0.7706 C   0  0  0  0  0  0  0  0  0  0  0  0
   -1.0075   -3.0446    1.2734 O   0  0  0  0  0  0  0  0  0  0  0  0
   -1.6201   -1.1124    0.2870 N   0  0  0  0  0  0  0  0  0  0  0  0
   -2.4055   -0.5440   -0.0292 H   0  0  0  0  0  0  0  0  0  0  0  0
   -0.3217   -0.4334    0.4200 C   0  0  1  0  0  0  0  0  0  0  0  0
    0.2974   -0.8833    1.2029 H   0  0  0  0  0  0  0  0  0  0  0  0
    0.3832   -0.6116   -0.9590 C   0  0  0  0  0  0  0  0  0  0  0  0
    0.8923   -1.5804   -0.9172 H   0  0  0  0  0  0  0  0  0  0  0  0
   -0.4067   -0.7231   -1.7101 H   0  0  0  0  0  0  0  0  0  0  0  0
    1.4020    0.4205   -1.5394 C   0  0  0  0  0  0  0  0  0  0  0  0
    2.2997   -0.1633   -1.7704 H   0  0  0  0  0  0  0  0  0  0  0  0
    0.9005    0.9796   -2.8773 C   0  0  0  0  0  0  0  0  0  0  0  0
   -0.0198    1.5541   -2.7294 H   0  0  0  0  0  0  0  0  0  0  0  0
    1.6527    1.6371   -3.3242 H   0  0  0  0  0  0  0  0  0  0  0  0
    0.6967    0.1673   -3.5822 H   0  0  0  0  0  0  0  0  0  0  0  0
    1.8922    1.5655   -0.6485 C   0  0  0  0  0  0  0  0  0  0  0  0
    2.1940    1.1875    0.3322 H   0  0  0  0  0  0  0  0  0  0  0  0
    2.7651    2.0422   -1.1051 H   0  0  0  0  0  0  0  0  0  0  0  0
    1.1232    2.3340   -0.5314 H   0  0  0  0  0  0  0  0  0  0  0  0
   -0.6646    1.0089    0.8580 C   0  0  0  0  0  0  0  0  0  0  0  0
   -1.5940    1.6107    0.3278 O   0  0  0  0  0  0  0  0  0  0  0  0
    0.0370    1.6234    1.8808 N   0  0  0  0  0  0  0  0  0  0  0  0
    0.7774    1.0909    2.3285 H   0  0  0  0  0  0  0  0  0  0  0  0
   -0.2540    2.9689    2.3598 C   0  0  0  0  0  0  0  0  0  0  0  0
   -1.2810    3.0283    2.7353 H   0  0  0  0  0  0  0  0  0  0  0  0
    0.4274    3.2360    3.1732 H   0  0  0  0  0  0  0  0  0  0  0  0
   -0.1305    3.6979    1.5520 H   0  0  0  0  0  0  0  0  0  0  0  0
  1  2  1  0  0  0  0
  2  3  1  0  0  0  0
  2  4  1  0  0  0  0
  2  5  1  0  0  0  0
  5  6  2  0  0  0  0
  5  7  1  0  0  0  0
  7  8  1  0  0  0  0
  7  9  1  0  0  0  0
  9 10  1  0  0  0  0
  9 11  1  0  0  0  0
  9 24  1  0  0  0  0
 11 12  1  0  0  0  0
 11 13  1  0  0  0  0
 11 14  1  0  0  0  0
 14 15  1  0  0  0  0
 14 16  1  0  0  0  0
 14 20  1  0  0  0  0
 16 17  1  0  0  0  0
 16 18  1  0  0  0  0
 16 19  1  0  0  0  0
 20 21  1  0  0  0  0
 20 22  1  0  0  0  0
 20 23  1  0  0  0  0
 24 25  2  0  0  0  0
 24 26  1  0  0  0  0
 26 27  1  0  0  0  0
 26 28  1  0  0  0  0
 28 29  1  0  0  0  0
 28 30  1  0  0  0  0
 28 31  1  0  0  0  0
M  END
$$$$

  -OEChem-03222214063D

 31 30  0     1  0  0  0  0  0999 V2000
   -3.3691   -3.9055    1.1750 H   0  0  0  0  0  0  0  0  0  0  0  0
   -3.3150   -2.9239    0.6960 C   0  0  0  0  0  0  0  0  0  0  0  0
   -4.0082   -2.2468    1.2007 H   0  0  0  0  0  0  0  0  0  0  0  0
   -3.6124   -3.0255   -0.3503 H   0  0  0  0  0  0  0  0  0  0  0  0
   -1.9024   -2.3774    0.7809 C   0  0  0  0  0  0  0  0  0  0  0  0
   -1.0179   -3.0442    1.2947 O   0  0  0  0  0  0  0  0  0  0  0  0
   -1.6221   -1.1234    0.2817 N   0  0  0  0  0  0  0  0  0  0  0  0
   -2.4058   -0.5571   -0.0421 H   0  0  0  0  0  0  0  0  0  0  0  0
   -0.3237   -0.4444    0.4128 C   0  0  1  0  0  0  0  0  0  0  0  0
    0.2943   -0.8902    1.1990 H   0  0  0  0  0  0  0  0  0  0  0  0
    0.3800   -0.6241   -0.9631 C   0  0  0  0  0  0  0  0  0  0  0  0
    0.9076   -1.5824   -0.9076 H   0  0  0  0  0  0  0  0  0  0  0  0
   -0.3936   -0.7506   -1.7284 H   0  0  0  0  0  0  0  0  0  0  0  0
    1.3894    0.4275   -1.5092 C   0  0  0  0  0  0  0  0  0  0  0  0
    2.1734   -0.1626   -1.9970 H   0  0  0  0  0  0  0  0  0  0  0  0
    0.7587    1.2750   -2.6206 C   0  0  0  0  0  0  0  0  0  0  0  0
   -0.0805    1.8576   -2.2270 H   0  0  0  0  0  0  0  0  0  0  0  0
    1.4967    1.9673   -3.0375 H   0  0  0  0  0  0  0  0  0  0  0  0
    0.3917    0.6380   -3.4314 H   0  0  0  0  0  0  0  0  0  0  0  0
    2.1233    1.3089   -0.4929 C   0  0  0  0  0  0  0  0  0  0  0  0
    2.3704    0.7404    0.4085 H   0  0  0  0  0  0  0  0  0  0  0  0
    3.0575    1.6758   -0.9295 H   0  0  0  0  0  0  0  0  0  0  0  0
    1.5249    2.1829   -0.2244 H   0  0  0  0  0  0  0  0  0  0  0  0
   -0.6512    1.0078    0.8291 C   0  0  0  0  0  0  0  0  0  0  0  0
   -1.5763    1.6093    0.2917 O   0  0  0  0  0  0  0  0  0  0  0  0
    0.0539    1.6289    1.8451 N   0  0  0  0  0  0  0  0  0  0  0  0
    0.7880    1.0956    2.3020 H   0  0  0  0  0  0  0  0  0  0  0  0
   -0.2285    2.9821    2.3071 C   0  0  0  0  0  0  0  0  0  0  0  0
   -1.2517    3.0501    2.6912 H   0  0  0  0  0  0  0  0  0  0  0  0
    0.4613    3.2590    3.1102 H   0  0  0  0  0  0  0  0  0  0  0  0
   -0.1108    3.6990    1.4876 H   0  0  0  0  0  0  0  0  0  0  0  0
  1  2  1  0  0  0  0
  2  3  1  0  0  0  0
  2  4  1  0  0  0  0
  2  5  1  0  0  0  0
  5  6  2  0  0  0  0
  5  7  1  0  0  0  0
  7  8  1  0  0  0  0
  7  9  1  0  0  0  0
  9 10  1  0  0  0  0
  9 11  1  0  0  0  0
  9 24  1  0  0  0  0
 11 12  1  0  0  0  0
 11 13  1  0  0  0  0
 11 14  1  0  0  0  0
 14 15  1  0  0  0  0
 14 16  1  0  0  0  0
 14 20  1  0  0  0  0
 16 17  1  0  0  0  0
 16 18  1  0  0  0  0
 16 19  1  0  0  0  0
 20 21  1  0  0  0  0
 20 22  1  0  0  0  0
 20 23  1  0  0  0  0
 24 25  2  0  0  0  0
 24 26  1  0  0  0  0
 26 27  1  0  0  0  0
 26 28  1  0  0  0  0
 28 29  1  0  0  0  0
 28 30  1  0  0  0  0
 28 31  1  0  0  0  0
M  END
$$$$

  -OEChem-03222214063D

 31 30  0     1  0  0  0  0  0999 V2000
   -3.3737   -3.8957    1.1896 H   0  0  0  0  0  0  0  0  0  0  0  0
   -3.3241   -2.9124    0.7134 C   0  0  0  0  0  0  0  0  0  0  0  0
   -4.0061   -2.2346    1.2327 H   0  0  0  0  0  0  0  0  0  0  0  0
   -3.6399   -3.0086   -0.3282 H   0  0  0  0  0  0  0  0  0  0  0  0
   -1.9081   -2.3715    0.7760 C   0  0  0  0  0  0  0  0  0  0  0  0
   -1.0196   -3.0404    1.2801 O   0  0  0  0  0  0  0  0  0  0  0  0
   -1.6298   -1.1203    0.2687 N   0  0  0  0  0  0  0  0  0  0  0  0
   -2.4170   -0.5498   -0.0388 H   0  0  0  0  0  0  0  0  0  0  0  0
   -0.3323   -0.4400    0.3966 C   0  0  1  0  0  0  0  0  0  0  0  0
    0.2765   -0.8812    1.1926 H   0  0  0  0  0  0  0  0  0  0  0  0
    0.3920   -0.6358   -0.9646 C   0  0  0  0  0  0  0  0  0  0  0  0
    0.9240   -1.5903   -0.8940 H   0  0  0  0  0  0  0  0  0  0  0  0
   -0.3651   -0.7646   -1.7457 H   0  0  0  0  0  0  0  0  0  0  0  0
    1.3990    0.4218   -1.4877 C   0  0  0  0  0  0  0  0  0  0  0  0
    2.0526   -0.1284   -2.1735 H   0  0  0  0  0  0  0  0  0  0  0  0
    0.7216    1.5026   -2.3401 C   0  0  0  0  0  0  0  0  0  0  0  0
    0.0492    2.1163   -1.7348 H   0  0  0  0  0  0  0  0  0  0  0  0
    1.4756    2.1585   -2.7863 H   0  0  0  0  0  0  0  0  0  0  0  0
    0.1428    1.0484   -3.1502 H   0  0  0  0  0  0  0  0  0  0  0  0
    2.3253    1.0346   -0.4307 C   0  0  0  0  0  0  0  0  0  0  0  0
    2.5731    0.3001    0.3416 H   0  0  0  0  0  0  0  0  0  0  0  0
    3.2571    1.3611   -0.9028 H   0  0  0  0  0  0  0  0  0  0  0  0
    1.8720    1.9115    0.0351 H   0  0  0  0  0  0  0  0  0  0  0  0
   -0.6447    1.0183    0.8039 C   0  0  0  0  0  0  0  0  0  0  0  0
   -1.5995    1.6066    0.3047 O   0  0  0  0  0  0  0  0  0  0  0  0
    0.0694    1.6386    1.8135 N   0  0  0  0  0  0  0  0  0  0  0  0
    0.8231    1.1128    2.2467 H   0  0  0  0  0  0  0  0  0  0  0  0
   -0.2188    2.9849    2.2920 C   0  0  0  0  0  0  0  0  0  0  0  0
   -1.2411    3.0435    2.6798 H   0  0  0  0  0  0  0  0  0  0  0  0
    0.4717    3.2558    3.0964 H   0  0  0  0  0  0  0  0  0  0  0  0
   -0.1068    3.7118    1.4807 H   0  0  0  0  0  0  0  0  0  0  0  0
  1  2  1  0  0  0  0
  2  3  1  0  0  0  0
  2  4  1  0  0  0  0
  2  5  1  0  0  0  0
  5  6  2  0  0  0  0
  5  7  1  0  0  0  0
  7  8  1  0  0  0  0
  7  9  1  0  0  0  0
  9 10  1  0  0  0  0
  9 11  1  0  0  0  0
  9 24  1  0  0  0  0
 11 12  1  0  0  0  0
 11 13  1  0  0  0  0
 11 14  1  0  0  0  0
 14 15  1  0  0  0  0
 14 16  1  0  0  0  0
 14 20  1  0  0  0  0
 16 17  1  0  0  0  0
 16 18  1  0  0  0  0
 16 19  1  0  0  0  0
 20 21  1  0  0  0  0
 20 22  1  0  0  0  0
 20 23  1  0  0  0  0
 24 25  2  0  0  0  0
 24 26  1  0  0  0  0
 26 27  1  0  0  0  0
 26 28  1  0  0  0  0
 28 29  1  0  0  0  0
 28 30  1  0  0  0  0
 28 31  1  0  0  0  0
M  END
$$$$

  -OEChem-03222214063D

 31 30  0     1  0  0  0  0  0999 V2000
   -3.3752   -3.8983    1.1815 H   0  0  0  0  0  0  0  0  0  0  0  0
   -3.3262   -2.9154    0.7046 C   0  0  0  0  0  0  0  0  0  0  0  0
   -4.0128   -2.2393    1.2199 H   0  0  0  0  0  0  0  0  0  0  0  0
   -3.6363   -3.0138   -0.3385 H   0  0  0  0  0  0  0  0  0  0  0  0
   -1.9122   -2.3702    0.7743 C   0  0  0  0  0  0  0  0  0  0  0  0
   -1.0246   -3.0374    1.2825 O   0  0  0  0  0  0  0  0  0  0  0  0
   -1.6343   -1.1186    0.2669 N   0  0  0  0  0  0  0  0  0  0  0  0
   -2.4216   -0.5491   -0.0424 H   0  0  0  0  0  0  0  0  0  0  0  0
   -0.3371   -0.4377    0.3959 C   0  0  1  0  0  0  0  0  0  0  0  0
    0.2665   -0.8772    1.1966 H   0  0  0  0  0  0  0  0  0  0  0  0
    0.4021   -0.6391   -0.9563 C   0  0  0  0  0  0  0  0  0  0  0  0
    0.9244   -1.5995   -0.8909 H   0  0  0  0  0  0  0  0  0  0  0  0
   -0.3513   -0.7508   -1.7438 H   0  0  0  0  0  0  0  0  0  0  0  0
    1.4116    0.4177   -1.4713 C   0  0  0  0  0  0  0  0  0  0  0  0
    1.9072   -0.0582   -2.3247 H   0  0  0  0  0  0  0  0  0  0  0  0
    0.7608    1.6927   -2.0260 C   0  0  0  0  0  0  0  0  0  0  0  0
    0.4367    2.3610   -1.2248 H   0  0  0  0  0  0  0  0  0  0  0  0
    1.4812    2.2385   -2.6431 H   0  0  0  0  0  0  0  0  0  0  0  0
   -0.1054    1.4460   -2.6476 H   0  0  0  0  0  0  0  0  0  0  0  0
    2.5145    0.7473   -0.4588 C   0  0  0  0  0  0  0  0  0  0  0  0
    2.9198   -0.1716   -0.0241 H   0  0  0  0  0  0  0  0  0  0  0  0
    3.3301    1.2792   -0.9587 H   0  0  0  0  0  0  0  0  0  0  0  0
    2.1465    1.3834    0.3464 H   0  0  0  0  0  0  0  0  0  0  0  0
   -0.6464    1.0208    0.8027 C   0  0  0  0  0  0  0  0  0  0  0  0
   -1.6077    1.6051    0.3105 O   0  0  0  0  0  0  0  0  0  0  0  0
    0.0676    1.6427    1.8108 N   0  0  0  0  0  0  0  0  0  0  0  0
    0.8245    1.1196    2.2415 H   0  0  0  0  0  0  0  0  0  0  0  0
   -0.2173    2.9920    2.2825 C   0  0  0  0  0  0  0  0  0  0  0  0
   -1.2474    3.0619    2.6476 H   0  0  0  0  0  0  0  0  0  0  0  0
    0.4577    3.2561    3.1022 H   0  0  0  0  0  0  0  0  0  0  0  0
   -0.0796    3.7164    1.4729 H   0  0  0  0  0  0  0  0  0  0  0  0
  1  2  1  0  0  0  0
  2  3  1  0  0  0  0
  2  4  1  0  0  0  0
  2  5  1  0  0  0  0
  5  6  2  0  0  0  0
  5  7  1  0  0  0  0
  7  8  1  0  0  0  0
  7  9  1  0  0  0  0
  9 10  1  0  0  0  0
  9 11  1  0  0  0  0
  9 24  1  0  0  0  0
 11 12  1  0  0  0  0
 11 13  1  0  0  0  0
 11 14  1  0  0  0  0
 14 15  1  0  0  0  0
 14 16  1  0  0  0  0
 14 20  1  0  0  0  0
 16 17  1  0  0  0  0
 16 18  1  0  0  0  0
 16 19  1  0  0  0  0
 20 21  1  0  0  0  0
 20 22  1  0  0  0  0
 20 23  1  0  0  0  0
 24 25  2  0  0  0  0
 24 26  1  0  0  0  0
 26 27  1  0  0  0  0
 26 28  1  0  0  0  0
 28 29  1  0  0  0  0
 28 30  1  0  0  0  0
 28 31  1  0  0  0  0
M  END
$$$$

  -OEChem-03222214063D

 31 30  0     1  0  0  0  0  0999 V2000
   -3.3661   -3.9050    1.1825 H   0  0  0  0  0  0  0  0  0  0  0  0
   -3.3256   -2.9186    0.7123 C   0  0  0  0  0  0  0  0  0  0  0  0
   -4.0047   -2.2470    1.2431 H   0  0  0  0  0  0  0  0  0  0  0  0
   -3.6521   -3.0093   -0.3264 H   0  0  0  0  0  0  0  0  0  0  0  0
   -1.9115   -2.3722    0.7641 C   0  0  0  0  0  0  0  0  0  0  0  0
   -1.0150   -3.0404    1.2550 O   0  0  0  0  0  0  0  0  0  0  0  0
   -1.6452   -1.1159    0.2625 N   0  0  0  0  0  0  0  0  0  0  0  0
   -2.4392   -0.5496   -0.0349 H   0  0  0  0  0  0  0  0  0  0  0  0
   -0.3517   -0.4269    0.3819 C   0  0  1  0  0  0  0  0  0  0  0  0
    0.2452   -0.8664    1.1878 H   0  0  0  0  0  0  0  0  0  0  0  0
    0.4149   -0.6455   -0.9531 C   0  0  0  0  0  0  0  0  0  0  0  0
    0.9285   -1.6101   -0.8802 H   0  0  0  0  0  0  0  0  0  0  0  0
   -0.3333   -0.7521   -1.7460 H   0  0  0  0  0  0  0  0  0  0  0  0
    1.4257    0.4060   -1.4803 C   0  0  0  0  0  0  0  0  0  0  0  0
    1.7874    0.0220   -2.4405 H   0  0  0  0  0  0  0  0  0  0  0  0
    0.8533    1.8048   -1.7554 C   0  0  0  0  0  0  0  0  0  0  0  0
    0.8091    2.4147   -0.8501 H   0  0  0  0  0  0  0  0  0  0  0  0
    1.4923    2.3300   -2.4719 H   0  0  0  0  0  0  0  0  0  0  0  0
   -0.1511    1.7314   -2.1842 H   0  0  0  0  0  0  0  0  0  0  0  0
    2.6328    0.5124   -0.5407 C   0  0  0  0  0  0  0  0  0  0  0  0
    3.0891   -0.4718   -0.3956 H   0  0  0  0  0  0  0  0  0  0  0  0
    3.3871    1.1800   -0.9690 H   0  0  0  0  0  0  0  0  0  0  0  0
    2.3410    0.9057    0.4361 H   0  0  0  0  0  0  0  0  0  0  0  0
   -0.6429    1.0295    0.8003 C   0  0  0  0  0  0  0  0  0  0  0  0
   -1.6098    1.6230    0.3313 O   0  0  0  0  0  0  0  0  0  0  0  0
    0.0956    1.6347    1.8012 N   0  0  0  0  0  0  0  0  0  0  0  0
    0.8515    1.0986    2.2174 H   0  0  0  0  0  0  0  0  0  0  0  0
   -0.1765    2.9771    2.2995 C   0  0  0  0  0  0  0  0  0  0  0  0
   -1.1914    3.0367    2.7061 H   0  0  0  0  0  0  0  0  0  0  0  0
    0.5296    3.2358    3.0943 H   0  0  0  0  0  0  0  0  0  0  0  0
   -0.0752    3.7120    1.4940 H   0  0  0  0  0  0  0  0  0  0  0  0
  1  2  1  0  0  0  0
  2  3  1  0  0  0  0
  2  4  1  0  0  0  0
  2  5  1  0  0  0  0
  5  6  2  0  0  0  0
  5  7  1  0  0  0  0
  7  8  1  0  0  0  0
  7  9  1  0  0  0  0
  9 10  1  0  0  0  0
  9 11  1  0  0  0  0
  9 24  1  0  0  0  0
 11 12  1  0  0  0  0
 11 13  1  0  0  0  0
 11 14  1  0  0  0  0
 14 15  1  0  0  0  0
 14 16  1  0  0  0  0
 14 20  1  0  0  0  0
 16 17  1  0  0  0  0
 16 18  1  0  0  0  0
 16 19  1  0  0  0  0
 20 21  1  0  0  0  0
 20 22  1  0  0  0  0
 20 23  1  0  0  0  0
 24 25  2  0  0  0  0
 24 26  1  0  0  0  0
 26 27  1  0  0  0  0
 26 28  1  0  0  0  0
 28 29  1  0  0  0  0
 28 30  1  0  0  0  0
 28 31  1  0  0  0  0
M  END
$$$$

  -OEChem-03222214063D

 31 30  0     1  0  0  0  0  0999 V2000
   -3.3406   -3.9159    1.1769 H   0  0  0  0  0  0  0  0  0  0  0  0
   -3.3093   -2.9285    0.7077 C   0  0  0  0  0  0  0  0  0  0  0  0
   -3.9973   -2.2648    1.2369 H   0  0  0  0  0  0  0  0  0  0  0  0
   -3.6313   -3.0214   -0.3323 H   0  0  0  0  0  0  0  0  0  0  0  0
   -1.9012   -2.3673    0.7642 C   0  0  0  0  0  0  0  0  0  0  0  0
   -0.9966   -3.0330    1.2435 O   0  0  0  0  0  0  0  0  0  0  0  0
   -1.6484   -1.1034    0.2745 N   0  0  0  0  0  0  0  0  0  0  0  0
   -2.4486   -0.5414   -0.0138 H   0  0  0  0  0  0  0  0  0  0  0  0
   -0.3590   -0.4060    0.3909 C   0  0  1  0  0  0  0  0  0  0  0  0
    0.2386   -0.8461    1.1957 H   0  0  0  0  0  0  0  0  0  0  0  0
    0.4127   -0.6381   -0.9411 C   0  0  0  0  0  0  0  0  0  0  0  0
    0.9044   -1.6141   -0.8703 H   0  0  0  0  0  0  0  0  0  0  0  0
   -0.3464   -0.7346   -1.7251 H   0  0  0  0  0  0  0  0  0  0  0  0
    1.4288    0.3904   -1.5126 C   0  0  0  0  0  0  0  0  0  0  0  0
    1.6146    0.1028   -2.5533 H   0  0  0  0  0  0  0  0  0  0  0  0
    1.0214    1.8709   -1.5174 C   0  0  0  0  0  0  0  0  0  0  0  0
    1.1524    2.3363   -0.5381 H   0  0  0  0  0  0  0  0  0  0  0  0
    1.6489    2.4216   -2.2250 H   0  0  0  0  0  0  0  0  0  0  0  0
   -0.0204    1.9810   -1.8342 H   0  0  0  0  0  0  0  0  0  0  0  0
    2.7485    0.2633   -0.7410 C   0  0  0  0  0  0  0  0  0  0  0  0
    3.1371   -0.7575   -0.8121 H   0  0  0  0  0  0  0  0  0  0  0  0
    3.4999    0.9431   -1.1555 H   0  0  0  0  0  0  0  0  0  0  0  0
    2.6051    0.5069    0.3163 H   0  0  0  0  0  0  0  0  0  0  0  0
   -0.6521    1.0436    0.8277 C   0  0  0  0  0  0  0  0  0  0  0  0
   -1.6262    1.6395    0.3776 O   0  0  0  0  0  0  0  0  0  0  0  0
    0.0971    1.6350    1.8293 N   0  0  0  0  0  0  0  0  0  0  0  0
    0.8563    1.0926    2.2314 H   0  0  0  0  0  0  0  0  0  0  0  0
   -0.1807    2.9634    2.3607 C   0  0  0  0  0  0  0  0  0  0  0  0
   -1.1910    3.0043    2.7813 H   0  0  0  0  0  0  0  0  0  0  0  0
    0.5330    3.2108    3.1522 H   0  0  0  0  0  0  0  0  0  0  0  0
   -0.0961    3.7171    1.5708 H   0  0  0  0  0  0  0  0  0  0  0  0
  1  2  1  0  0  0  0
  2  3  1  0  0  0  0
  2  4  1  0  0  0  0
  2  5  1  0  0  0  0
  5  6  2  0  0  0  0
  5  7  1  0  0  0  0
  7  8  1  0  0  0  0
  7  9  1  0  0  0  0
  9 10  1  0  0  0  0
  9 11  1  0  0  0  0
  9 24  1  0  0  0  0
 11 12  1  0  0  0  0
 11 13  1  0  0  0  0
 11 14  1  0  0  0  0
 14 15  1  0  0  0  0
 14 16  1  0  0  0  0
 14 20  1  0  0  0  0
 16 17  1  0  0  0  0
 16 18  1  0  0  0  0
 16 19  1  0  0  0  0
 20 21  1  0  0  0  0
 20 22  1  0  0  0  0
 20 23  1  0  0  0  0
 24 25  2  0  0  0  0
 24 26  1  0  0  0  0
 26 27  1  0  0  0  0
 26 28  1  0  0  0  0
 28 29  1  0  0  0  0
 28 30  1  0  0  0  0
 28 31  1  0  0  0  0
M  END
$$$$

  -OEChem-03222214063D

 31 30  0     1  0  0  0  0  0999 V2000
   -3.3284   -3.9162    1.1673 H   0  0  0  0  0  0  0  0  0  0  0  0
   -3.2967   -2.9253    0.7059 C   0  0  0  0  0  0  0  0  0  0  0  0
   -3.9862   -2.2660    1.2388 H   0  0  0  0  0  0  0  0  0  0  0  0
   -3.6163   -3.0108   -0.3356 H   0  0  0  0  0  0  0  0  0  0  0  0
   -1.8889   -2.3638    0.7701 C   0  0  0  0  0  0  0  0  0  0  0  0
   -0.9859   -3.0305    1.2510 O   0  0  0  0  0  0  0  0  0  0  0  0
   -1.6349   -1.0966    0.2897 N   0  0  0  0  0  0  0  0  0  0  0  0
   -2.4340   -0.5328    0.0010 H   0  0  0  0  0  0  0  0  0  0  0  0
   -0.3460   -0.3989    0.4164 C   0  0  1  0  0  0  0  0  0  0  0  0
    0.2566   -0.8407    1.2166 H   0  0  0  0  0  0  0  0  0  0  0  0
    0.4133   -0.6233   -0.9266 C   0  0  0  0  0  0  0  0  0  0  0  0
    0.8774   -1.6139   -0.8754 H   0  0  0  0  0  0  0  0  0  0  0  0
   -0.3623   -0.6953   -1.6972 H   0  0  0  0  0  0  0  0  0  0  0  0
    1.4374    0.3863   -1.5305 C   0  0  0  0  0  0  0  0  0  0  0  0
    1.4091    0.2545   -2.6179 H   0  0  0  0  0  0  0  0  0  0  0  0
    1.2611    1.8845   -1.2530 C   0  0  0  0  0  0  0  0  0  0  0  0
    1.5203    2.1384   -0.2230 H   0  0  0  0  0  0  0  0  0  0  0  0
    1.9227    2.4601   -1.9080 H   0  0  0  0  0  0  0  0  0  0  0  0
    0.2341    2.1973   -1.4626 H   0  0  0  0  0  0  0  0  0  0  0  0
    2.8410   -0.0025   -1.0452 C   0  0  0  0  0  0  0  0  0  0  0  0
    3.0807   -1.0282   -1.3430 H   0  0  0  0  0  0  0  0  0  0  0  0
    3.5955    0.6601   -1.4809 H   0  0  0  0  0  0  0  0  0  0  0  0
    2.9049    0.0666    0.0453 H   0  0  0  0  0  0  0  0  0  0  0  0
   -0.6664    1.0432    0.8616 C   0  0  0  0  0  0  0  0  0  0  0  0
   -1.6374    1.6327    0.3962 O   0  0  0  0  0  0  0  0  0  0  0  0
    0.0628    1.6396    1.8749 N   0  0  0  0  0  0  0  0  0  0  0  0
    0.8265    1.1065    2.2811 H   0  0  0  0  0  0  0  0  0  0  0  0
   -0.2290    2.9679    2.3986 C   0  0  0  0  0  0  0  0  0  0  0  0
   -1.2422    3.0026    2.8126 H   0  0  0  0  0  0  0  0  0  0  0  0
    0.4781    3.2244    3.1933 H   0  0  0  0  0  0  0  0  0  0  0  0
   -0.1455    3.7184    1.6056 H   0  0  0  0  0  0  0  0  0  0  0  0
  1  2  1  0  0  0  0
  2  3  1  0  0  0  0
  2  4  1  0  0  0  0
  2  5  1  0  0  0  0
  5  6  2  0  0  0  0
  5  7  1  0  0  0  0
  7  8  1  0  0  0  0
  7  9  1  0  0  0  0
  9 10  1  0  0  0  0
  9 11  1  0  0  0  0
  9 24  1  0  0  0  0
 11 12  1  0  0  0  0
 11 13  1  0  0  0  0
 11 14  1  0  0  0  0
 14 15  1  0  0  0  0
 14 16  1  0  0  0  0
 14 20  1  0  0  0  0
 16 17  1  0  0  0  0
 16 18  1  0  0  0  0
 16 19  1  0  0  0  0
 20 21  1  0  0  0  0
 20 22  1  0  0  0  0
 20 23  1  0  0  0  0
 24 25  2  0  0  0  0
 24 26  1  0  0  0  0
 26 27  1  0  0  0  0
 26 28  1  0  0  0  0
 28 29  1  0  0  0  0
 28 30  1  0  0  0  0
 28 31  1  0  0  0  0
M  END
$$$$

  -OEChem-03222214063D

 31 30  0     1  0  0  0  0  0999 V2000
   -3.3326   -3.9086    1.1418 H   0  0  0  0  0  0  0  0  0  0  0  0
   -3.2906   -2.9172    0.6820 C   0  0  0  0  0  0  0  0  0  0  0  0
   -3.9880   -2.2573    1.2037 H   0  0  0  0  0  0  0  0  0  0  0  0
   -3.5924   -3.0008   -0.3648 H   0  0  0  0  0  0  0  0  0  0  0  0
   -1.8827   -2.3591    0.7710 C   0  0  0  0  0  0  0  0  0  0  0  0
   -0.9900   -3.0277    1.2681 O   0  0  0  0  0  0  0  0  0  0  0  0
   -1.6161   -1.0934    0.2940 N   0  0  0  0  0  0  0  0  0  0  0  0
   -2.4076   -0.5266   -0.0093 H   0  0  0  0  0  0  0  0  0  0  0  0
   -0.3249   -0.4026    0.4377 C   0  0  1  0  0  0  0  0  0  0  0  0
    0.2775   -0.8460    1.2373 H   0  0  0  0  0  0  0  0  0  0  0  0
    0.4253   -0.6142   -0.9141 C   0  0  0  0  0  0  0  0  0  0  0  0
    0.8746   -1.6123   -0.8716 H   0  0  0  0  0  0  0  0  0  0  0  0
   -0.3549   -0.6734   -1.6813 H   0  0  0  0  0  0  0  0  0  0  0  0
    1.4591    0.3898   -1.5211 C   0  0  0  0  0  0  0  0  0  0  0  0
    1.2341    0.4725   -2.5903 H   0  0  0  0  0  0  0  0  0  0  0  0
    1.5362    1.8190   -0.9725 C   0  0  0  0  0  0  0  0  0  0  0  0
    1.8628    1.8237    0.0701 H   0  0  0  0  0  0  0  0  0  0  0  0
    2.2615    2.4010   -1.5497 H   0  0  0  0  0  0  0  0  0  0  0  0
    0.5706    2.3238   -1.0640 H   0  0  0  0  0  0  0  0  0  0  0  0
    2.8634   -0.2192   -1.3896 C   0  0  0  0  0  0  0  0  0  0  0  0
    2.9099   -1.1900   -1.8933 H   0  0  0  0  0  0  0  0  0  0  0  0
    3.6120    0.4338   -1.8496 H   0  0  0  0  0  0  0  0  0  0  0  0
    3.1250   -0.3602   -0.3359 H   0  0  0  0  0  0  0  0  0  0  0  0
   -0.6697    1.0368    0.8787 C   0  0  0  0  0  0  0  0  0  0  0  0
   -1.6228    1.6249    0.3756 O   0  0  0  0  0  0  0  0  0  0  0  0
    0.0302    1.6456    1.9054 N   0  0  0  0  0  0  0  0  0  0  0  0
    0.7847    1.1190    2.3364 H   0  0  0  0  0  0  0  0  0  0  0  0
   -0.2762    2.9801    2.4056 C   0  0  0  0  0  0  0  0  0  0  0  0
   -1.3059    3.0243    2.7755 H   0  0  0  0  0  0  0  0  0  0  0  0
    0.3974    3.2396    3.2279 H   0  0  0  0  0  0  0  0  0  0  0  0
   -0.1547    3.7236    1.6109 H   0  0  0  0  0  0  0  0  0  0  0  0
  1  2  1  0  0  0  0
  2  3  1  0  0  0  0
  2  4  1  0  0  0  0
  2  5  1  0  0  0  0
  5  6  2  0  0  0  0
  5  7  1  0  0  0  0
  7  8  1  0  0  0  0
  7  9  1  0  0  0  0
  9 10  1  0  0  0  0
  9 11  1  0  0  0  0
  9 24  1  0  0  0  0
 11 12  1  0  0  0  0
 11 13  1  0  0  0  0
 11 14  1  0  0  0  0
 14 15  1  0  0  0  0
 14 16  1  0  0  0  0
 14 20  1  0  0  0  0
 16 17  1  0  0  0  0
 16 18  1  0  0  0  0
 16 19  1  0  0  0  0
 20 21  1  0  0  0  0
 20 22  1  0  0  0  0
 20 23  1  0  0  0  0
 24 25  2  0  0  0  0
 24 26  1  0  0  0  0
 26 27  1  0  0  0  0
 26 28  1  0  0  0  0
 28 29  1  0  0  0  0
 28 30  1  0  0  0  0
 28 31  1  0  0  0  0
M  END
$$$$

  -OEChem-03222214063D

 31 30  0     1  0  0  0  0  0999 V2000
   -3.3413   -3.9000    1.1206 H   0  0  0  0  0  0  0  0  0  0  0  0
   -3.2873   -2.9103    0.6586 C   0  0  0  0  0  0  0  0  0  0  0  0
   -3.9909   -2.2456    1.1657 H   0  0  0  0  0  0  0  0  0  0  0  0
   -3.5705   -2.9962   -0.3931 H   0  0  0  0  0  0  0  0  0  0  0  0
   -1.8797   -2.3569    0.7710 C   0  0  0  0  0  0  0  0  0  0  0  0
   -0.9993   -3.0245    1.2908 O   0  0  0  0  0  0  0  0  0  0  0  0
   -1.5994   -1.0956    0.2902 N   0  0  0  0  0  0  0  0  0  0  0  0
   -2.3817   -0.5291   -0.0367 H   0  0  0  0  0  0  0  0  0  0  0  0
   -0.3060   -0.4122    0.4479 C   0  0  1  0  0  0  0  0  0  0  0  0
    0.2926   -0.8561    1.2501 H   0  0  0  0  0  0  0  0  0  0  0  0
    0.4400   -0.6136   -0.9070 C   0  0  0  0  0  0  0  0  0  0  0  0
    0.9018   -1.6051   -0.8476 H   0  0  0  0  0  0  0  0  0  0  0  0
   -0.3300   -0.6898   -1.6830 H   0  0  0  0  0  0  0  0  0  0  0  0
    1.4789    0.3971   -1.4961 C   0  0  0  0  0  0  0  0  0  0  0  0
    1.0903    0.7250   -2.4667 H   0  0  0  0  0  0  0  0  0  0  0  0
    1.8054    1.6733   -0.7123 C   0  0  0  0  0  0  0  0  0  0  0  0
    2.1335    1.4312    0.3023 H   0  0  0  0  0  0  0  0  0  0  0  0
    2.6133    2.2234   -1.2049 H   0  0  0  0  0  0  0  0  0  0  0  0
    0.9415    2.3420   -0.6774 H   0  0  0  0  0  0  0  0  0  0  0  0
    2.7983   -0.3452   -1.7580 C   0  0  0  0  0  0  0  0  0  0  0  0
    2.6284   -1.2110   -2.4061 H   0  0  0  0  0  0  0  0  0  0  0  0
    3.5191    0.3112   -2.2557 H   0  0  0  0  0  0  0  0  0  0  0  0
    3.2371   -0.6938   -0.8174 H   0  0  0  0  0  0  0  0  0  0  0  0
   -0.6592    1.0295    0.8756 C   0  0  0  0  0  0  0  0  0  0  0  0
   -1.5857    1.6248    0.3330 O   0  0  0  0  0  0  0  0  0  0  0  0
    0.0221    1.6461    1.9103 N   0  0  0  0  0  0  0  0  0  0  0  0
    0.7579    1.1169    2.3695 H   0  0  0  0  0  0  0  0  0  0  0  0
   -0.2835    2.9898    2.3851 C   0  0  0  0  0  0  0  0  0  0  0  0
   -1.3190    3.0462    2.7368 H   0  0  0  0  0  0  0  0  0  0  0  0
    0.3781    3.2568    3.2147 H   0  0  0  0  0  0  0  0  0  0  0  0
   -0.1433    3.7208    1.5819 H   0  0  0  0  0  0  0  0  0  0  0  0
  1  2  1  0  0  0  0
  2  3  1  0  0  0  0
  2  4  1  0  0  0  0
  2  5  1  0  0  0  0
  5  6  2  0  0  0  0
  5  7  1  0  0  0  0
  7  8  1  0  0  0  0
  7  9  1  0  0  0  0
  9 10  1  0  0  0  0
  9 11  1  0  0  0  0
  9 24  1  0  0  0  0
 11 12  1  0  0  0  0
 11 13  1  0  0  0  0
 11 14  1  0  0  0  0
 14 15  1  0  0  0  0
 14 16  1  0  0  0  0
 14 20  1  0  0  0  0
 16 17  1  0  0  0  0
 16 18  1  0  0  0  0
 16 19  1  0  0  0  0
 20 21  1  0  0  0  0
 20 22  1  0  0  0  0
 20 23  1  0  0  0  0
 24 25  2  0  0  0  0
 24 26  1  0  0  0  0
 26 27  1  0  0  0  0
 26 28  1  0  0  0  0
 28 29  1  0  0  0  0
 28 30  1  0  0  0  0
 28 31  1  0  0  0  0
M  END
$$$$

  -OEChem-03222214063D

 31 30  0     1  0  0  0  0  0999 V2000
   -3.3562   -3.8881    1.1116 H   0  0  0  0  0  0  0  0  0  0  0  0
   -3.2893   -2.9032    0.6408 C   0  0  0  0  0  0  0  0  0  0  0  0
   -3.9985   -2.2302    1.1288 H   0  0  0  0  0  0  0  0  0  0  0  0
   -3.5544   -2.9982   -0.4149 H   0  0  0  0  0  0  0  0  0  0  0  0
   -1.8813   -2.3549    0.7720 C   0  0  0  0  0  0  0  0  0  0  0  0
   -1.0125   -3.0214    1.3122 O   0  0  0  0  0  0  0  0  0  0  0  0
   -1.5872   -1.1003    0.2822 N   0  0  0  0  0  0  0  0  0  0  0  0
   -2.3603   -0.5346   -0.0669 H   0  0  0  0  0  0  0  0  0  0  0  0
   -0.2912   -0.4244    0.4461 C   0  0  1  0  0  0  0  0  0  0  0  0
    0.3043   -0.8693    1.2501 H   0  0  0  0  0  0  0  0  0  0  0  0
    0.4486   -0.6226   -0.9101 C   0  0  0  0  0  0  0  0  0  0  0  0
    0.9315   -1.6029   -0.8341 H   0  0  0  0  0  0  0  0  0  0  0  0
   -0.3097   -0.7178   -1.6955 H   0  0  0  0  0  0  0  0  0  0  0  0
    1.4856    0.3990   -1.4728 C   0  0  0  0  0  0  0  0  0  0  0  0
    0.9853    0.9553   -2.2734 H   0  0  0  0  0  0  0  0  0  0  0  0
    2.0528    1.4545   -0.5151 C   0  0  0  0  0  0  0  0  0  0  0  0
    2.3328    1.0010    0.4403 H   0  0  0  0  0  0  0  0  0  0  0  0
    2.9459    1.9200   -0.9438 H   0  0  0  0  0  0  0  0  0  0  0  0
    1.3288    2.2558   -0.3493 H   0  0  0  0  0  0  0  0  0  0  0  0
    2.6506   -0.3733   -2.1085 C   0  0  0  0  0  0  0  0  0  0  0  0
    2.2756   -1.0946   -2.8417 H   0  0  0  0  0  0  0  0  0  0  0  0
    3.3310    0.3111   -2.6248 H   0  0  0  0  0  0  0  0  0  0  0  0
    3.2167   -0.9146   -1.3437 H   0  0  0  0  0  0  0  0  0  0  0  0
   -0.6324    1.0251    0.8570 C   0  0  0  0  0  0  0  0  0  0  0  0
   -1.5343    1.6315    0.2868 O   0  0  0  0  0  0  0  0  0  0  0  0
    0.0462    1.6440    1.8924 N   0  0  0  0  0  0  0  0  0  0  0  0
    0.7628    1.1063    2.3716 H   0  0  0  0  0  0  0  0  0  0  0  0
   -0.2438    2.9981    2.3475 C   0  0  0  0  0  0  0  0  0  0  0  0
   -1.2740    3.0674    2.7121 H   0  0  0  0  0  0  0  0  0  0  0  0
    0.4314    3.2753    3.1627 H   0  0  0  0  0  0  0  0  0  0  0  0
   -0.1096    3.7139    1.5297 H   0  0  0  0  0  0  0  0  0  0  0  0
  1  2  1  0  0  0  0
  2  3  1  0  0  0  0
  2  4  1  0  0  0  0
  2  5  1  0  0  0  0
  5  6  2  0  0  0  0
  5  7  1  0  0  0  0
  7  8  1  0  0  0  0
  7  9  1  0  0  0  0
  9 10  1  0  0  0  0
  9 11  1  0  0  0  0
  9 24  1  0  0  0  0
 11 12  1  0  0  0  0
 11 13  1  0  0  0  0
 11 14  1  0  0  0  0
 14 15  1  0  0  0  0
 14 16  1  0  0  0  0
 14 20  1  0  0  0  0
 16 17  1  0  0  0  0
 16 18  1  0  0  0  0
 16 19  1  0  0  0  0
 20 21  1  0  0  0  0
 20 22  1  0  0  0  0
 20 23  1  0  0  0  0
 24 25  2  0  0  0  0
 24 26  1  0  0  0  0
 26 27  1  0  0  0  0
 26 28  1  0  0  0  0
 28 29  1  0  0  0  0
 28 30  1  0  0  0  0
 28 31  1  0  0  0  0
M  END
$$$$

  -OEChem-03222214063D

 31 30  0     1  0  0  0  0  0999 V2000
   -3.3695   -3.8767    1.1157 H   0  0  0  0  0  0  0  0  0  0  0  0
   -3.2961   -2.8942    0.6412 C   0  0  0  0  0  0  0  0  0  0  0  0
   -4.0005   -2.2150    1.1272 H   0  0  0  0  0  0  0  0  0  0  0  0
   -3.5631   -2.9916   -0.4138 H   0  0  0  0  0  0  0  0  0  0  0  0
   -1.8837   -2.3553    0.7692 C   0  0  0  0  0  0  0  0  0  0  0  0
   -1.0212   -3.0233    1.3176 O   0  0  0  0  0  0  0  0  0  0  0  0
   -1.5783   -1.1079    0.2675 N   0  0  0  0  0  0  0  0  0  0  0  0
   -2.3465   -0.5397   -0.0880 H   0  0  0  0  0  0  0  0  0  0  0  0
   -0.2773   -0.4406    0.4283 C   0  0  1  0  0  0  0  0  0  0  0  0
    0.3186   -0.8876    1.2305 H   0  0  0  0  0  0  0  0  0  0  0  0
    0.4509   -0.6351   -0.9312 C   0  0  0  0  0  0  0  0  0  0  0  0
    0.9472   -1.6092   -0.8633 H   0  0  0  0  0  0  0  0  0  0  0  0
   -0.3052   -0.7248   -1.7195 H   0  0  0  0  0  0  0  0  0  0  0  0
    1.4799    0.4035   -1.4576 C   0  0  0  0  0  0  0  0  0  0  0  0
    0.9258    1.1491   -2.0391 H   0  0  0  0  0  0  0  0  0  0  0  0
    2.2739    1.1799   -0.3972 C   0  0  0  0  0  0  0  0  0  0  0  0
    2.5002    0.5429    0.4631 H   0  0  0  0  0  0  0  0  0  0  0  0
    3.2204    1.5399   -0.8127 H   0  0  0  0  0  0  0  0  0  0  0  0
    1.7198    2.0609   -0.0682 H   0  0  0  0  0  0  0  0  0  0  0  0
    2.4509   -0.3037   -2.4129 C   0  0  0  0  0  0  0  0  0  0  0  0
    1.8979   -0.8396   -3.1909 H   0  0  0  0  0  0  0  0  0  0  0  0
    3.1065    0.4237   -2.9019 H   0  0  0  0  0  0  0  0  0  0  0  0
    3.0731   -1.0221   -1.8693 H   0  0  0  0  0  0  0  0  0  0  0  0
   -0.5959    1.0187    0.8242 C   0  0  0  0  0  0  0  0  0  0  0  0
   -1.4867    1.6325    0.2448 O   0  0  0  0  0  0  0  0  0  0  0  0
    0.0899    1.6395    1.8534 N   0  0  0  0  0  0  0  0  0  0  0  0
    0.7953    1.0963    2.3429 H   0  0  0  0  0  0  0  0  0  0  0  0
   -0.1871    3.0003    2.2959 C   0  0  0  0  0  0  0  0  0  0  0  0
   -1.2208    3.0857    2.6470 H   0  0  0  0  0  0  0  0  0  0  0  0
    0.4812    3.2742    3.1179 H   0  0  0  0  0  0  0  0  0  0  0  0
   -0.0334    3.7087    1.4751 H   0  0  0  0  0  0  0  0  0  0  0  0
  1  2  1  0  0  0  0
  2  3  1  0  0  0  0
  2  4  1  0  0  0  0
  2  5  1  0  0  0  0
  5  6  2  0  0  0  0
  5  7  1  0  0  0  0
  7  8  1  0  0  0  0
  7  9  1  0  0  0  0
  9 10  1  0  0  0  0
  9 11  1  0  0  0  0
  9 24  1  0  0  0  0
 11 12  1  0  0  0  0
 11 13  1  0  0  0  0
 11 14  1  0  0  0  0
 14 15  1  0  0  0  0
 14 16  1  0  0  0  0
 14 20  1  0  0  0  0
 16 17  1  0  0  0  0
 16 18  1  0  0  0  0
 16 19  1  0  0  0  0
 20 21  1  0  0  0  0
 20 22  1  0  0  0  0
 20 23  1  0  0  0  0
 24 25  2  0  0  0  0
 24 26  1  0  0  0  0
 26 27  1  0  0  0  0
 26 28  1  0  0  0  0
 28 29  1  0  0  0  0
 28 30  1  0  0  0  0
 28 31  1  0  0  0  0
M  END
$$$$

  -OEChem-03222214063D

 31 30  0     1  0  0  0  0  0999 V2000
   -3.3827   -3.8687    1.1341 H   0  0  0  0  0  0  0  0  0  0  0  0
   -3.3056   -2.8899    0.6526 C   0  0  0  0  0  0  0  0  0  0  0  0
   -4.0036   -2.2029    1.1371 H   0  0  0  0  0  0  0  0  0  0  0  0
   -3.5781   -2.9928   -0.4004 H   0  0  0  0  0  0  0  0  0  0  0  0
   -1.8892   -2.3596    0.7705 C   0  0  0  0  0  0  0  0  0  0  0  0
   -1.0293   -3.0287    1.3216 O   0  0  0  0  0  0  0  0  0  0  0  0
   -1.5775   -1.1185    0.2573 N   0  0  0  0  0  0  0  0  0  0  0  0
   -2.3427   -0.5487   -0.1019 H   0  0  0  0  0  0  0  0  0  0  0  0
   -0.2711   -0.4598    0.4054 C   0  0  1  0  0  0  0  0  0  0  0  0
    0.3303   -0.9096    1.2021 H   0  0  0  0  0  0  0  0  0  0  0  0
    0.4436   -0.6462   -0.9597 C   0  0  0  0  0  0  0  0  0  0  0  0
    0.9441   -1.6197   -0.9203 H   0  0  0  0  0  0  0  0  0  0  0  0
   -0.3187   -0.7132   -1.7441 H   0  0  0  0  0  0  0  0  0  0  0  0
    1.4621    0.4145   -1.4458 C   0  0  0  0  0  0  0  0  0  0  0  0
    0.9059    1.2975   -1.7810 H   0  0  0  0  0  0  0  0  0  0  0  0
    2.4629    0.8763   -0.3744 C   0  0  0  0  0  0  0  0  0  0  0  0
    2.7249    0.0494    0.2930 H   0  0  0  0  0  0  0  0  0  0  0  0
    3.3827    1.2430   -0.8408 H   0  0  0  0  0  0  0  0  0  0  0  0
    2.0581    1.7004    0.2127 H   0  0  0  0  0  0  0  0  0  0  0  0
    2.2223   -0.1501   -2.6533 C   0  0  0  0  0  0  0  0  0  0  0  0
    1.5211   -0.4734   -3.4292 H   0  0  0  0  0  0  0  0  0  0  0  0
    2.8776    0.6136   -3.0840 H   0  0  0  0  0  0  0  0  0  0  0  0
    2.8350   -1.0080   -2.3582 H   0  0  0  0  0  0  0  0  0  0  0  0
   -0.5699    1.0069    0.7919 C   0  0  0  0  0  0  0  0  0  0  0  0
   -1.4587    1.6246    0.2135 O   0  0  0  0  0  0  0  0  0  0  0  0
    0.1280    1.6306    1.8103 N   0  0  0  0  0  0  0  0  0  0  0  0
    0.8375    1.0878    2.2943 H   0  0  0  0  0  0  0  0  0  0  0  0
   -0.1195    3.0040    2.2307 C   0  0  0  0  0  0  0  0  0  0  0  0
   -1.1573    3.1238    2.5592 H   0  0  0  0  0  0  0  0  0  0  0  0
    0.5389    3.2685    3.0637 H   0  0  0  0  0  0  0  0  0  0  0  0
    0.0719    3.6970    1.4047 H   0  0  0  0  0  0  0  0  0  0  0  0
  1  2  1  0  0  0  0
  2  3  1  0  0  0  0
  2  4  1  0  0  0  0
  2  5  1  0  0  0  0
  5  6  2  0  0  0  0
  5  7  1  0  0  0  0
  7  8  1  0  0  0  0
  7  9  1  0  0  0  0
  9 10  1  0  0  0  0
  9 11  1  0  0  0  0
  9 24  1  0  0  0  0
 11 12  1  0  0  0  0
 11 13  1  0  0  0  0
 11 14  1  0  0  0  0
 14 15  1  0  0  0  0
 14 16  1  0  0  0  0
 14 20  1  0  0  0  0
 16 17  1  0  0  0  0
 16 18  1  0  0  0  0
 16 19  1  0  0  0  0
 20 21  1  0  0  0  0
 20 22  1  0  0  0  0
 20 23  1  0  0  0  0
 24 25  2  0  0  0  0
 24 26  1  0  0  0  0
 26 27  1  0  0  0  0
 26 28  1  0  0  0  0
 28 29  1  0  0  0  0
 28 30  1  0  0  0  0
 28 31  1  0  0  0  0
M  END
$$$$

  -OEChem-03222214063D

 31 30  0     1  0  0  0  0  0999 V2000
   -3.4048   -3.8475    1.2035 H   0  0  0  0  0  0  0  0  0  0  0  0
   -3.3251   -2.8770    0.7059 C   0  0  0  0  0  0  0  0  0  0  0  0
   -4.0063   -2.1749    1.1926 H   0  0  0  0  0  0  0  0  0  0  0  0
   -3.6173   -2.9924   -0.3406 H   0  0  0  0  0  0  0  0  0  0  0  0
   -1.9010   -2.3612    0.7913 C   0  0  0  0  0  0  0  0  0  0  0  0
   -1.0398   -3.0312    1.3392 O   0  0  0  0  0  0  0  0  0  0  0  0
   -1.5847   -1.1311    0.2551 N   0  0  0  0  0  0  0  0  0  0  0  0
   -2.3497   -0.5601   -0.1027 H   0  0  0  0  0  0  0  0  0  0  0  0
   -0.2707   -0.4821    0.3745 C   0  0  1  0  0  0  0  0  0  0  0  0
    0.3371   -0.9280    1.1685 H   0  0  0  0  0  0  0  0  0  0  0  0
    0.4352   -0.6707   -0.9937 C   0  0  0  0  0  0  0  0  0  0  0  0
    0.9361   -1.6444   -0.9821 H   0  0  0  0  0  0  0  0  0  0  0  0
   -0.3347   -0.7160   -1.7720 H   0  0  0  0  0  0  0  0  0  0  0  0
    1.4429    0.4142   -1.4354 C   0  0  0  0  0  0  0  0  0  0  0  0
    0.9241    1.3762   -1.5077 H   0  0  0  0  0  0  0  0  0  0  0  0
    2.6132    0.5614   -0.4508 C   0  0  0  0  0  0  0  0  0  0  0  0
    3.1755   -0.3757   -0.3879 H   0  0  0  0  0  0  0  0  0  0  0  0
    3.2923    1.3499   -0.7901 H   0  0  0  0  0  0  0  0  0  0  0  0
    2.2747    0.8199    0.5517 H   0  0  0  0  0  0  0  0  0  0  0  0
    1.9926    0.0674   -2.8238 C   0  0  0  0  0  0  0  0  0  0  0  0
    1.1779    0.0051   -3.5521 H   0  0  0  0  0  0  0  0  0  0  0  0
    2.6930    0.8383   -3.1603 H   0  0  0  0  0  0  0  0  0  0  0  0
    2.5162   -0.8938   -2.8046 H   0  0  0  0  0  0  0  0  0  0  0  0
   -0.5452    0.9959    0.7432 C   0  0  0  0  0  0  0  0  0  0  0  0
   -1.4384    1.6116    0.1694 O   0  0  0  0  0  0  0  0  0  0  0  0
    0.1723    1.6342    1.7388 N   0  0  0  0  0  0  0  0  0  0  0  0
    0.8761    1.0921    2.2320 H   0  0  0  0  0  0  0  0  0  0  0  0
   -0.0624    3.0162    2.1389 C   0  0  0  0  0  0  0  0  0  0  0  0
   -1.0959    3.1473    2.4764 H   0  0  0  0  0  0  0  0  0  0  0  0
    0.6063    3.2913    2.9604 H   0  0  0  0  0  0  0  0  0  0  0  0
    0.1236    3.6944    1.2995 H   0  0  0  0  0  0  0  0  0  0  0  0
  1  2  1  0  0  0  0
  2  3  1  0  0  0  0
  2  4  1  0  0  0  0
  2  5  1  0  0  0  0
  5  6  2  0  0  0  0
  5  7  1  0  0  0  0
  7  8  1  0  0  0  0
  7  9  1  0  0  0  0
  9 10  1  0  0  0  0
  9 11  1  0  0  0  0
  9 24  1  0  0  0  0
 11 12  1  0  0  0  0
 11 13  1  0  0  0  0
 11 14  1  0  0  0  0
 14 15  1  0  0  0  0
 14 16  1  0  0  0  0
 14 20  1  0  0  0  0
 16 17  1  0  0  0  0
 16 18  1  0  0  0  0
 16 19  1  0  0  0  0
 20 21  1  0  0  0  0
 20 22  1  0  0  0  0
 20 23  1  0  0  0  0
 24 25  2  0  0  0  0
 24 26  1  0  0  0  0
 26 27  1  0  0  0  0
 26 28  1  0  0  0  0
 28 29  1  0  0  0  0
 28 30  1  0  0  0  0
 28 31  1  0  0  0  0
M  END
$$$$

  -OEChem-03222214063D

 31 30  0     1  0  0  0  0  0999 V2000
   -3.3789   -3.8751    1.2368 H   0  0  0  0  0  0  0  0  0  0  0  0
   -3.3220   -2.9053    0.7346 C   0  0  0  0  0  0  0  0  0  0  0  0
   -3.9979   -2.2086    1.2363 H   0  0  0  0  0  0  0  0  0  0  0  0
   -3.6396   -3.0268   -0.3037 H   0  0  0  0  0  0  0  0  0  0  0  0
   -1.9017   -2.3744    0.7819 C   0  0  0  0  0  0  0  0  0  0  0  0
   -1.0171   -3.0400    1.2969 O   0  0  0  0  0  0  0  0  0  0  0  0
   -1.6154   -1.1371    0.2451 N   0  0  0  0  0  0  0  0  0  0  0  0
   -2.3977   -0.5732   -0.0849 H   0  0  0  0  0  0  0  0  0  0  0  0
   -0.3078   -0.4717    0.3320 C   0  0  1  0  0  0  0  0  0  0  0  0
    0.3044   -0.9149    1.1243 H   0  0  0  0  0  0  0  0  0  0  0  0
    0.4178   -0.6724   -1.0223 C   0  0  0  0  0  0  0  0  0  0  0  0
    0.9328   -1.6388   -1.0080 H   0  0  0  0  0  0  0  0  0  0  0  0
   -0.3495   -0.7328   -1.8019 H   0  0  0  0  0  0  0  0  0  0  0  0
    1.4016    0.4435   -1.4445 C   0  0  0  0  0  0  0  0  0  0  0  0
    0.9510    1.4326   -1.3180 H   0  0  0  0  0  0  0  0  0  0  0  0
    2.6953    0.3538   -0.6245 C   0  0  0  0  0  0  0  0  0  0  0  0
    3.1858   -0.6126   -0.7799 H   0  0  0  0  0  0  0  0  0  0  0  0
    3.3891    1.1463   -0.9222 H   0  0  0  0  0  0  0  0  0  0  0  0
    2.4866    0.4669    0.4426 H   0  0  0  0  0  0  0  0  0  0  0  0
    1.7493    0.2820   -2.9291 C   0  0  0  0  0  0  0  0  0  0  0  0
    0.8508    0.3886   -3.5451 H   0  0  0  0  0  0  0  0  0  0  0  0
    2.4671    1.0482   -3.2384 H   0  0  0  0  0  0  0  0  0  0  0  0
    2.1876   -0.7029   -3.1202 H   0  0  0  0  0  0  0  0  0  0  0  0
   -0.5491    1.0050    0.7156 C   0  0  0  0  0  0  0  0  0  0  0  0
   -1.4640    1.6319    0.1912 O   0  0  0  0  0  0  0  0  0  0  0  0
    0.2192    1.6170    1.6890 N   0  0  0  0  0  0  0  0  0  0  0  0
    0.9416    1.0608    2.1373 H   0  0  0  0  0  0  0  0  0  0  0  0
    0.0234    2.9971    2.1148 C   0  0  0  0  0  0  0  0  0  0  0  0
   -0.9927    3.1405    2.4974 H   0  0  0  0  0  0  0  0  0  0  0  0
    0.7305    3.2513    2.9101 H   0  0  0  0  0  0  0  0  0  0  0  0
    0.1846    3.6825    1.2762 H   0  0  0  0  0  0  0  0  0  0  0  0
  1  2  1  0  0  0  0
  2  3  1  0  0  0  0
  2  4  1  0  0  0  0
  2  5  1  0  0  0  0
  5  6  2  0  0  0  0
  5  7  1  0  0  0  0
  7  8  1  0  0  0  0
  7  9  1  0  0  0  0
  9 10  1  0  0  0  0
  9 11  1  0  0  0  0
  9 24  1  0  0  0  0
 11 12  1  0  0  0  0
 11 13  1  0  0  0  0
 11 14  1  0  0  0  0
 14 15  1  0  0  0  0
 14 16  1  0  0  0  0
 14 20  1  0  0  0  0
 16 17  1  0  0  0  0
 16 18  1  0  0  0  0
 16 19  1  0  0  0  0
 20 21  1  0  0  0  0
 20 22  1  0  0  0  0
 20 23  1  0  0  0  0
 24 25  2  0  0  0  0
 24 26  1  0  0  0  0
 26 27  1  0  0  0  0
 26 28  1  0  0  0  0
 28 29  1  0  0  0  0
 28 30  1  0  0  0  0
 28 31  1  0  0  0  0
M  END
$$$$

  -OEChem-03222214063D

 31 30  0     1  0  0  0  0  0999 V2000
   -3.3667   -3.8838    1.2351 H   0  0  0  0  0  0  0  0  0  0  0  0
   -3.3160   -2.9122    0.7359 C   0  0  0  0  0  0  0  0  0  0  0  0
   -3.9929   -2.2201    1.2427 H   0  0  0  0  0  0  0  0  0  0  0  0
   -3.6368   -3.0319   -0.3017 H   0  0  0  0  0  0  0  0  0  0  0  0
   -1.8978   -2.3753    0.7796 C   0  0  0  0  0  0  0  0  0  0  0  0
   -1.0076   -3.0394    1.2870 O   0  0  0  0  0  0  0  0  0  0  0  0
   -1.6209   -1.1332    0.2489 N   0  0  0  0  0  0  0  0  0  0  0  0
   -2.4081   -0.5726   -0.0749 H   0  0  0  0  0  0  0  0  0  0  0  0
   -0.3161   -0.4612    0.3302 C   0  0  1  0  0  0  0  0  0  0  0  0
    0.2979   -0.9041    1.1210 H   0  0  0  0  0  0  0  0  0  0  0  0
    0.4147   -0.6652   -1.0214 C   0  0  0  0  0  0  0  0  0  0  0  0
    0.9250   -1.6342   -1.0082 H   0  0  0  0  0  0  0  0  0  0  0  0
   -0.3586   -0.7314   -1.7946 H   0  0  0  0  0  0  0  0  0  0  0  0
    1.3977    0.4527   -1.4570 C   0  0  0  0  0  0  0  0  0  0  0  0
    1.0763    1.4403   -1.1171 H   0  0  0  0  0  0  0  0  0  0  0  0
    2.7997    0.1517   -0.9150 C   0  0  0  0  0  0  0  0  0  0  0  0
    3.1718   -0.8024   -1.3022 H   0  0  0  0  0  0  0  0  0  0  0  0
    3.4991    0.9411   -1.2081 H   0  0  0  0  0  0  0  0  0  0  0  0
    2.7799    0.0994    0.1778 H   0  0  0  0  0  0  0  0  0  0  0  0
    1.4741    0.5041   -2.9883 C   0  0  0  0  0  0  0  0  0  0  0  0
    0.4996    0.7706   -3.4096 H   0  0  0  0  0  0  0  0  0  0  0  0
    2.2009    1.2568   -3.3098 H   0  0  0  0  0  0  0  0  0  0  0  0
    1.7759   -0.4667   -3.3944 H   0  0  0  0  0  0  0  0  0  0  0  0
   -0.5583    1.0114    0.7244 C   0  0  0  0  0  0  0  0  0  0  0  0
   -1.4772    1.6412    0.2111 O   0  0  0  0  0  0  0  0  0  0  0  0
    0.2192    1.6151    1.6957 N   0  0  0  0  0  0  0  0  0  0  0  0
    0.9474    1.0561    2.1309 H   0  0  0  0  0  0  0  0  0  0  0  0
    0.0277    2.9919    2.1343 C   0  0  0  0  0  0  0  0  0  0  0  0
   -0.9866    3.1338    2.5223 H   0  0  0  0  0  0  0  0  0  0  0  0
    0.7387    3.2378    2.9290 H   0  0  0  0  0  0  0  0  0  0  0  0
    0.1868    3.6845    1.3012 H   0  0  0  0  0  0  0  0  0  0  0  0
  1  2  1  0  0  0  0
  2  3  1  0  0  0  0
  2  4  1  0  0  0  0
  2  5  1  0  0  0  0
  5  6  2  0  0  0  0
  5  7  1  0  0  0  0
  7  8  1  0  0  0  0
  7  9  1  0  0  0  0
  9 10  1  0  0  0  0
  9 11  1  0  0  0  0
  9 24  1  0  0  0  0
 11 12  1  0  0  0  0
 11 13  1  0  0  0  0
 11 14  1  0  0  0  0
 14 15  1  0  0  0  0
 14 16  1  0  0  0  0
 14 20  1  0  0  0  0
 16 17  1  0  0  0  0
 16 18  1  0  0  0  0
 16 19  1  0  0  0  0
 20 21  1  0  0  0  0
 20 22  1  0  0  0  0
 20 23  1  0  0  0  0
 24 25  2  0  0  0  0
 24 26  1  0  0  0  0
 26 27  1  0  0  0  0
 26 28  1  0  0  0  0
 28 29  1  0  0  0  0
 28 30  1  0  0  0  0
 28 31  1  0  0  0  0
M  END
$$$$

  -OEChem-03222214063D

 31 30  0     1  0  0  0  0  0999 V2000
   -3.3669   -3.8791    1.2346 H   0  0  0  0  0  0  0  0  0  0  0  0
   -3.3130   -2.9061    0.7385 C   0  0  0  0  0  0  0  0  0  0  0  0
   -3.9896   -2.2143    1.2460 H   0  0  0  0  0  0  0  0  0  0  0  0
   -3.6322   -3.0218   -0.3000 H   0  0  0  0  0  0  0  0  0  0  0  0
   -1.8937   -2.3723    0.7860 C   0  0  0  0  0  0  0  0  0  0  0  0
   -1.0066   -3.0369    1.2981 O   0  0  0  0  0  0  0  0  0  0  0  0
   -1.6112   -1.1325    0.2531 N   0  0  0  0  0  0  0  0  0  0  0  0
   -2.3946   -0.5709   -0.0783 H   0  0  0  0  0  0  0  0  0  0  0  0
   -0.3047   -0.4643    0.3390 C   0  0  1  0  0  0  0  0  0  0  0  0
    0.3098   -0.9055    1.1305 H   0  0  0  0  0  0  0  0  0  0  0  0
    0.4200   -0.6679   -1.0165 C   0  0  0  0  0  0  0  0  0  0  0  0
    0.9226   -1.6408   -0.9988 H   0  0  0  0  0  0  0  0  0  0  0  0
   -0.3561   -0.7408   -1.7865 H   0  0  0  0  0  0  0  0  0  0  0  0
    1.4124    0.4431   -1.4635 C   0  0  0  0  0  0  0  0  0  0  0  0
    1.2803    1.3682   -0.8989 H   0  0  0  0  0  0  0  0  0  0  0  0
    2.8545   -0.0390   -1.2680 C   0  0  0  0  0  0  0  0  0  0  0  0
    3.0536   -0.9295   -1.8731 H   0  0  0  0  0  0  0  0  0  0  0  0
    3.5607    0.7440   -1.5613 H   0  0  0  0  0  0  0  0  0  0  0  0
    3.0326   -0.2856   -0.2167 H   0  0  0  0  0  0  0  0  0  0  0  0
    1.1992    0.7800   -2.9446 C   0  0  0  0  0  0  0  0  0  0  0  0
    0.1893    1.1719   -3.1031 H   0  0  0  0  0  0  0  0  0  0  0  0
    1.9149    1.5413   -3.2698 H   0  0  0  0  0  0  0  0  0  0  0  0
    1.3303   -0.1104   -3.5678 H   0  0  0  0  0  0  0  0  0  0  0  0
   -0.5589    1.0080    0.7286 C   0  0  0  0  0  0  0  0  0  0  0  0
   -1.4733    1.6337    0.2023 O   0  0  0  0  0  0  0  0  0  0  0  0
    0.2079    1.6182    1.7046 N   0  0  0  0  0  0  0  0  0  0  0  0
    0.9330    1.0625    2.1494 H   0  0  0  0  0  0  0  0  0  0  0  0
    0.0017    2.9930    2.1425 C   0  0  0  0  0  0  0  0  0  0  0  0
   -1.0156    3.1247    2.5260 H   0  0  0  0  0  0  0  0  0  0  0  0
    0.7068    3.2457    2.9401 H   0  0  0  0  0  0  0  0  0  0  0  0
    0.1576    3.6872    1.3102 H   0  0  0  0  0  0  0  0  0  0  0  0
  1  2  1  0  0  0  0
  2  3  1  0  0  0  0
  2  4  1  0  0  0  0
  2  5  1  0  0  0  0
  5  6  2  0  0  0  0
  5  7  1  0  0  0  0
  7  8  1  0  0  0  0
  7  9  1  0  0  0  0
  9 10  1  0  0  0  0
  9 11  1  0  0  0  0
  9 24  1  0  0  0  0
 11 12  1  0  0  0  0
 11 13  1  0  0  0  0
 11 14  1  0  0  0  0
 14 15  1  0  0  0  0
 14 16  1  0  0  0  0
 14 20  1  0  0  0  0
 16 17  1  0  0  0  0
 16 18  1  0  0  0  0
 16 19  1  0  0  0  0
 20 21  1  0  0  0  0
 20 22  1  0  0  0  0
 20 23  1  0  0  0  0
 24 25  2  0  0  0  0
 24 26  1  0  0  0  0
 26 27  1  0  0  0  0
 26 28  1  0  0  0  0
 28 29  1  0  0  0  0
 28 30  1  0  0  0  0
 28 31  1  0  0  0  0
M  END
$$$$

  -OEChem-03222214063D

 31 30  0     1  0  0  0  0  0999 V2000
   -3.3775   -3.8739    1.2461 H   0  0  0  0  0  0  0  0  0  0  0  0
   -3.3181   -2.9036    0.7455 C   0  0  0  0  0  0  0  0  0  0  0  0
   -3.9902   -2.2054    1.2502 H   0  0  0  0  0  0  0  0  0  0  0  0
   -3.6387   -3.0223   -0.2923 H   0  0  0  0  0  0  0  0  0  0  0  0
   -1.8959   -2.3776    0.7904 C   0  0  0  0  0  0  0  0  0  0  0  0
   -1.0146   -3.0417    1.3130 O   0  0  0  0  0  0  0  0  0  0  0  0
   -1.6052   -1.1435    0.2490 N   0  0  0  0  0  0  0  0  0  0  0  0
   -2.3849   -0.5804   -0.0886 H   0  0  0  0  0  0  0  0  0  0  0  0
   -0.2964   -0.4801    0.3373 C   0  0  1  0  0  0  0  0  0  0  0  0
    0.3173   -0.9189    1.1309 H   0  0  0  0  0  0  0  0  0  0  0  0
    0.4228   -0.6838   -1.0207 C   0  0  0  0  0  0  0  0  0  0  0  0
    0.9337   -1.6518   -0.9832 H   0  0  0  0  0  0  0  0  0  0  0  0
   -0.3429   -0.7762   -1.7988 H   0  0  0  0  0  0  0  0  0  0  0  0
    1.4177    0.4278   -1.4611 C   0  0  0  0  0  0  0  0  0  0  0  0
    1.4989    1.2114   -0.7050 H   0  0  0  0  0  0  0  0  0  0  0  0
    2.8228   -0.1596   -1.6355 C   0  0  0  0  0  0  0  0  0  0  0  0
    2.8244   -0.9366   -2.4067 H   0  0  0  0  0  0  0  0  0  0  0  0
    3.5290    0.6230   -1.9301 H   0  0  0  0  0  0  0  0  0  0  0  0
    3.1707   -0.5995   -0.6955 H   0  0  0  0  0  0  0  0  0  0  0  0
    0.9582    1.0840   -2.7684 C   0  0  0  0  0  0  0  0  0  0  0  0
   -0.0330    1.5306   -2.6395 H   0  0  0  0  0  0  0  0  0  0  0  0
    1.6543    1.8751   -3.0637 H   0  0  0  0  0  0  0  0  0  0  0  0
    0.9074    0.3466   -3.5759 H   0  0  0  0  0  0  0  0  0  0  0  0
   -0.5535    0.9961    0.7136 C   0  0  0  0  0  0  0  0  0  0  0  0
   -1.4636    1.6185    0.1759 O   0  0  0  0  0  0  0  0  0  0  0  0
    0.2061    1.6144    1.6904 N   0  0  0  0  0  0  0  0  0  0  0  0
    0.9255    1.0619    2.1483 H   0  0  0  0  0  0  0  0  0  0  0  0
   -0.0049    2.9922    2.1164 C   0  0  0  0  0  0  0  0  0  0  0  0
   -1.0217    3.1227    2.5015 H   0  0  0  0  0  0  0  0  0  0  0  0
    0.7014    3.2555    2.9096 H   0  0  0  0  0  0  0  0  0  0  0  0
    0.1456    3.6796    1.2774 H   0  0  0  0  0  0  0  0  0  0  0  0
  1  2  1  0  0  0  0
  2  3  1  0  0  0  0
  2  4  1  0  0  0  0
  2  5  1  0  0  0  0
  5  6  2  0  0  0  0
  5  7  1  0  0  0  0
  7  8  1  0  0  0  0
  7  9  1  0  0  0  0
  9 10  1  0  0  0  0
  9 11  1  0  0  0  0
  9 24  1  0  0  0  0
 11 12  1  0  0  0  0
 11 13  1  0  0  0  0
 11 14  1  0  0  0  0
 14 15  1  0  0  0  0
 14 16  1  0  0  0  0
 14 20  1  0  0  0  0
 16 17  1  0  0  0  0
 16 18  1  0  0  0  0
 16 19  1  0  0  0  0
 20 21  1  0  0  0  0
 20 22  1  0  0  0  0
 20 23  1  0  0  0  0
 24 25  2  0  0  0  0
 24 26  1  0  0  0  0
 26 27  1  0  0  0  0
 26 28  1  0  0  0  0
 28 29  1  0  0  0  0
 28 30  1  0  0  0  0
 28 31  1  0  0  0  0
M  END
$$$$

  -OEChem-03222214063D

 31 30  0     1  0  0  0  0  0999 V2000
   -3.3759   -3.8756    1.2575 H   0  0  0  0  0  0  0  0  0  0  0  0
   -3.3221   -2.9065    0.7533 C   0  0  0  0  0  0  0  0  0  0  0  0
   -3.9897   -2.2071    1.2624 H   0  0  0  0  0  0  0  0  0  0  0  0
   -3.6528   -3.0284   -0.2811 H   0  0  0  0  0  0  0  0  0  0  0  0
   -1.8996   -2.3799    0.7829 C   0  0  0  0  0  0  0  0  0  0  0  0
   -1.0124   -3.0451    1.2943 O   0  0  0  0  0  0  0  0  0  0  0  0
   -1.6148   -1.1454    0.2390 N   0  0  0  0  0  0  0  0  0  0  0  0
   -2.3986   -0.5807   -0.0862 H   0  0  0  0  0  0  0  0  0  0  0  0
   -0.3072   -0.4797    0.3213 C   0  0  1  0  0  0  0  0  0  0  0  0
    0.3045   -0.9171    1.1173 H   0  0  0  0  0  0  0  0  0  0  0  0
    0.4177   -0.6904   -1.0316 C   0  0  0  0  0  0  0  0  0  0  0  0
    0.9453   -1.6479   -0.9667 H   0  0  0  0  0  0  0  0  0  0  0  0
   -0.3305   -0.8053   -1.8235 H   0  0  0  0  0  0  0  0  0  0  0  0
    1.4049    0.4274   -1.4607 C   0  0  0  0  0  0  0  0  0  0  0  0
    1.6793    1.0439   -0.6003 H   0  0  0  0  0  0  0  0  0  0  0  0
    2.7078   -0.1905   -1.9816 C   0  0  0  0  0  0  0  0  0  0  0  0
    2.5113   -0.8320   -2.8467 H   0  0  0  0  0  0  0  0  0  0  0  0
    3.4082    0.5947   -2.2834 H   0  0  0  0  0  0  0  0  0  0  0  0
    3.1845   -0.7926   -1.2016 H   0  0  0  0  0  0  0  0  0  0  0  0
    0.7884    1.3326   -2.5350 C   0  0  0  0  0  0  0  0  0  0  0  0
   -0.1365    1.7892   -2.1705 H   0  0  0  0  0  0  0  0  0  0  0  0
    1.4838    2.1348   -2.8003 H   0  0  0  0  0  0  0  0  0  0  0  0
    0.5589    0.7597   -3.4390 H   0  0  0  0  0  0  0  0  0  0  0  0
   -0.5525    0.9991    0.6977 C   0  0  0  0  0  0  0  0  0  0  0  0
   -1.4881    1.6152    0.1976 O   0  0  0  0  0  0  0  0  0  0  0  0
    0.2182    1.6127    1.6689 N   0  0  0  0  0  0  0  0  0  0  0  0
    0.9497    1.0608    2.1082 H   0  0  0  0  0  0  0  0  0  0  0  0
    0.0035    2.9838    2.1147 C   0  0  0  0  0  0  0  0  0  0  0  0
   -1.0064    3.1012    2.5217 H   0  0  0  0  0  0  0  0  0  0  0  0
    0.7233    3.2445    2.8967 H   0  0  0  0  0  0  0  0  0  0  0  0
    0.1313    3.6817    1.2806 H   0  0  0  0  0  0  0  0  0  0  0  0
  1  2  1  0  0  0  0
  2  3  1  0  0  0  0
  2  4  1  0  0  0  0
  2  5  1  0  0  0  0
  5  6  2  0  0  0  0
  5  7  1  0  0  0  0
  7  8  1  0  0  0  0
  7  9  1  0  0  0  0
  9 10  1  0  0  0  0
  9 11  1  0  0  0  0
  9 24  1  0  0  0  0
 11 12  1  0  0  0  0
 11 13  1  0  0  0  0
 11 14  1  0  0  0  0
 14 15  1  0  0  0  0
 14 16  1  0  0  0  0
 14 20  1  0  0  0  0
 16 17  1  0  0  0  0
 16 18  1  0  0  0  0
 16 19  1  0  0  0  0
 20 21  1  0  0  0  0
 20 22  1  0  0  0  0
 20 23  1  0  0  0  0
 24 25  2  0  0  0  0
 24 26  1  0  0  0  0
 26 27  1  0  0  0  0
 26 28  1  0  0  0  0
 28 29  1  0  0  0  0
 28 30  1  0  0  0  0
 28 31  1  0  0  0  0
M  END
$$$$

  -OEChem-03222214063D

 31 30  0     1  0  0  0  0  0999 V2000
   -3.3511   -3.8843    1.2445 H   0  0  0  0  0  0  0  0  0  0  0  0
   -3.3168   -2.9042    0.7608 C   0  0  0  0  0  0  0  0  0  0  0  0
   -3.9713   -2.2196    1.3056 H   0  0  0  0  0  0  0  0  0  0  0  0
   -3.6783   -3.0039   -0.2654 H   0  0  0  0  0  0  0  0  0  0  0  0
   -1.8962   -2.3723    0.7589 C   0  0  0  0  0  0  0  0  0  0  0  0
   -0.9917   -3.0439    1.2302 O   0  0  0  0  0  0  0  0  0  0  0  0
   -1.6327   -1.1265    0.2301 N   0  0  0  0  0  0  0  0  0  0  0  0
   -2.4305   -0.5553   -0.0464 H   0  0  0  0  0  0  0  0  0  0  0  0
   -0.3310   -0.4488    0.3044 C   0  0  1  0  0  0  0  0  0  0  0  0
    0.2766   -0.8885    1.1022 H   0  0  0  0  0  0  0  0  0  0  0  0
    0.4163   -0.6718   -1.0340 C   0  0  0  0  0  0  0  0  0  0  0  0
    0.9588   -1.6186   -0.9401 H   0  0  0  0  0  0  0  0  0  0  0  0
   -0.3168   -0.8113   -1.8358 H   0  0  0  0  0  0  0  0  0  0  0  0
    1.3951    0.4459   -1.4731 C   0  0  0  0  0  0  0  0  0  0  0  0
    1.8377    0.9205   -0.5915 H   0  0  0  0  0  0  0  0  0  0  0  0
    2.5345   -0.1705   -2.2950 C   0  0  0  0  0  0  0  0  0  0  0  0
    2.1408   -0.6825   -3.1790 H   0  0  0  0  0  0  0  0  0  0  0  0
    3.2320    0.6061   -2.6245 H   0  0  0  0  0  0  0  0  0  0  0  0
    3.0923   -0.8948   -1.6928 H   0  0  0  0  0  0  0  0  0  0  0  0
    0.7070    1.5144   -2.3388 C   0  0  0  0  0  0  0  0  0  0  0  0
   -0.0958    2.0149   -1.7947 H   0  0  0  0  0  0  0  0  0  0  0  0
    1.4300    2.2775   -2.6438 H   0  0  0  0  0  0  0  0  0  0  0  0
    0.2801    1.0641   -3.2406 H   0  0  0  0  0  0  0  0  0  0  0  0
   -0.5655    1.0238    0.7065 C   0  0  0  0  0  0  0  0  0  0  0  0
   -1.5516    1.6258    0.2928 O   0  0  0  0  0  0  0  0  0  0  0  0
    0.2267    1.6174    1.6724 N   0  0  0  0  0  0  0  0  0  0  0  0
    0.9841    1.0651    2.0646 H   0  0  0  0  0  0  0  0  0  0  0  0
   -0.0095    2.9596    2.1893 C   0  0  0  0  0  0  0  0  0  0  0  0
   -0.9964    3.0207    2.6601 H   0  0  0  0  0  0  0  0  0  0  0  0
    0.7470    3.2155    2.9373 H   0  0  0  0  0  0  0  0  0  0  0  0
    0.0418    3.6956    1.3800 H   0  0  0  0  0  0  0  0  0  0  0  0
  1  2  1  0  0  0  0
  2  3  1  0  0  0  0
  2  4  1  0  0  0  0
  2  5  1  0  0  0  0
  5  6  2  0  0  0  0
  5  7  1  0  0  0  0
  7  8  1  0  0  0  0
  7  9  1  0  0  0  0
  9 10  1  0  0  0  0
  9 11  1  0  0  0  0
  9 24  1  0  0  0  0
 11 12  1  0  0  0  0
 11 13  1  0  0  0  0
 11 14  1  0  0  0  0
 14 15  1  0  0  0  0
 14 16  1  0  0  0  0
 14 20  1  0  0  0  0
 16 17  1  0  0  0  0
 16 18  1  0  0  0  0
 16 19  1  0  0  0  0
 20 21  1  0  0  0  0
 20 22  1  0  0  0  0
 20 23  1  0  0  0  0
 24 25  2  0  0  0  0
 24 26  1  0  0  0  0
 26 27  1  0  0  0  0
 26 28  1  0  0  0  0
 28 29  1  0  0  0  0
 28 30  1  0  0  0  0
 28 31  1  0  0  0  0
M  END
$$$$

  -OEChem-03222214063D

 31 30  0     1  0  0  0  0  0999 V2000
   -3.3267   -3.9119    1.2049 H   0  0  0  0  0  0  0  0  0  0  0  0
   -3.2996   -2.9242    0.7360 C   0  0  0  0  0  0  0  0  0  0  0  0
   -3.9625   -2.2539    1.2883 H   0  0  0  0  0  0  0  0  0  0  0  0
   -3.6566   -3.0123   -0.2929 H   0  0  0  0  0  0  0  0  0  0  0  0
   -1.8842   -2.3780    0.7472 C   0  0  0  0  0  0  0  0  0  0  0  0
   -0.9740   -3.0490    1.2080 O   0  0  0  0  0  0  0  0  0  0  0  0
   -1.6316   -1.1212    0.2395 N   0  0  0  0  0  0  0  0  0  0  0  0
   -2.4343   -0.5532   -0.0294 H   0  0  0  0  0  0  0  0  0  0  0  0
   -0.3359   -0.4320    0.3230 C   0  0  1  0  0  0  0  0  0  0  0  0
    0.2733   -0.8753    1.1175 H   0  0  0  0  0  0  0  0  0  0  0  0
    0.4200   -0.6409   -1.0138 C   0  0  0  0  0  0  0  0  0  0  0  0
    0.9639   -1.5872   -0.9226 H   0  0  0  0  0  0  0  0  0  0  0  0
   -0.3170   -0.7783   -1.8124 H   0  0  0  0  0  0  0  0  0  0  0  0
    1.4028    0.4644   -1.4817 C   0  0  0  0  0  0  0  0  0  0  0  0
    2.0426    0.7662   -0.6455 H   0  0  0  0  0  0  0  0  0  0  0  0
    2.2879   -0.1255   -2.5900 C   0  0  0  0  0  0  0  0  0  0  0  0
    1.6800   -0.4358   -3.4464 H   0  0  0  0  0  0  0  0  0  0  0  0
    3.0199    0.6127   -2.9329 H   0  0  0  0  0  0  0  0  0  0  0  0
    2.8371   -0.9967   -2.2193 H   0  0  0  0  0  0  0  0  0  0  0  0
    0.7133    1.7080   -2.0752 C   0  0  0  0  0  0  0  0  0  0  0  0
    0.2896    2.3452   -1.2983 H   0  0  0  0  0  0  0  0  0  0  0  0
    1.4354    2.3185   -2.6264 H   0  0  0  0  0  0  0  0  0  0  0  0
   -0.0859    1.4164   -2.7638 H   0  0  0  0  0  0  0  0  0  0  0  0
   -0.5871    1.0285    0.7491 C   0  0  0  0  0  0  0  0  0  0  0  0
   -1.5809    1.6236    0.3429 O   0  0  0  0  0  0  0  0  0  0  0  0
    0.1978    1.6175    1.7235 N   0  0  0  0  0  0  0  0  0  0  0  0
    0.9645    1.0707    2.1049 H   0  0  0  0  0  0  0  0  0  0  0  0
   -0.0483    2.9537    2.2511 C   0  0  0  0  0  0  0  0  0  0  0  0
   -1.0388    3.0057    2.7150 H   0  0  0  0  0  0  0  0  0  0  0  0
    0.7013    3.2060    3.0071 H   0  0  0  0  0  0  0  0  0  0  0  0
    0.0053    3.6977    1.4494 H   0  0  0  0  0  0  0  0  0  0  0  0
  1  2  1  0  0  0  0
  2  3  1  0  0  0  0
  2  4  1  0  0  0  0
  2  5  1  0  0  0  0
  5  6  2  0  0  0  0
  5  7  1  0  0  0  0
  7  8  1  0  0  0  0
  7  9  1  0  0  0  0
  9 10  1  0  0  0  0
  9 11  1  0  0  0  0
  9 24  1  0  0  0  0
 11 12  1  0  0  0  0
 11 13  1  0  0  0  0
 11 14  1  0  0  0  0
 14 15  1  0  0  0  0
 14 16  1  0  0  0  0
 14 20  1  0  0  0  0
 16 17  1  0  0  0  0
 16 18  1  0  0  0  0
 16 19  1  0  0  0  0
 20 21  1  0  0  0  0
 20 22  1  0  0  0  0
 20 23  1  0  0  0  0
 24 25  2  0  0  0  0
 24 26  1  0  0  0  0
 26 27  1  0  0  0  0
 26 28  1  0  0  0  0
 28 29  1  0  0  0  0
 28 30  1  0  0  0  0
 28 31  1  0  0  0  0
M  END
$$$$

  -OEChem-03222214063D

 31 30  0     1  0  0  0  0  0999 V2000
   -3.3239   -3.9106    1.1316 H   0  0  0  0  0  0  0  0  0  0  0  0
   -3.2780   -2.9245    0.6610 C   0  0  0  0  0  0  0  0  0  0  0  0
   -3.9759   -2.2570    1.1722 H   0  0  0  0  0  0  0  0  0  0  0  0
   -3.5758   -3.0195   -0.3860 H   0  0  0  0  0  0  0  0  0  0  0  0
   -1.8695   -2.3680    0.7502 C   0  0  0  0  0  0  0  0  0  0  0  0
   -0.9837   -3.0278    1.2706 O   0  0  0  0  0  0  0  0  0  0  0  0
   -1.5965   -1.1128    0.2491 N   0  0  0  0  0  0  0  0  0  0  0  0
   -2.3831   -0.5559   -0.0826 H   0  0  0  0  0  0  0  0  0  0  0  0
   -0.3051   -0.4229    0.3802 C   0  0  1  0  0  0  0  0  0  0  0  0
    0.2963   -0.8682    1.1795 H   0  0  0  0  0  0  0  0  0  0  0  0
    0.4376   -0.6340   -0.9640 C   0  0  0  0  0  0  0  0  0  0  0  0
    0.7381   -1.6867   -1.0034 H   0  0  0  0  0  0  0  0  0  0  0  0
   -0.2910   -0.4775   -1.7672 H   0  0  0  0  0  0  0  0  0  0  0  0
    1.6755    0.2380   -1.3055 C   0  0  0  0  0  0  0  0  0  0  0  0
    2.4573    0.0630   -0.5591 H   0  0  0  0  0  0  0  0  0  0  0  0
    2.1864   -0.2080   -2.6848 C   0  0  0  0  0  0  0  0  0  0  0  0
    1.4393   -0.0079   -3.4599 H   0  0  0  0  0  0  0  0  0  0  0  0
    3.1076    0.3233   -2.9445 H   0  0  0  0  0  0  0  0  0  0  0  0
    2.4058   -1.2804   -2.6832 H   0  0  0  0  0  0  0  0  0  0  0  0
    1.4084    1.7504   -1.4088 C   0  0  0  0  0  0  0  0  0  0  0  0
    1.3992    2.2178   -0.4235 H   0  0  0  0  0  0  0  0  0  0  0  0
    2.1980    2.2451   -1.9831 H   0  0  0  0  0  0  0  0  0  0  0  0
    0.4519    1.9418   -1.9059 H   0  0  0  0  0  0  0  0  0  0  0  0
   -0.5950    1.0340    0.7918 C   0  0  0  0  0  0  0  0  0  0  0  0
   -1.5243    1.6468    0.2758 O   0  0  0  0  0  0  0  0  0  0  0  0
    0.1380    1.6347    1.7997 N   0  0  0  0  0  0  0  0  0  0  0  0
    0.8651    1.0823    2.2453 H   0  0  0  0  0  0  0  0  0  0  0  0
   -0.1222    2.9840    2.2854 C   0  0  0  0  0  0  0  0  0  0  0  0
   -1.1388    3.0579    2.6857 H   0  0  0  0  0  0  0  0  0  0  0  0
    0.5823    3.2413    3.0822 H   0  0  0  0  0  0  0  0  0  0  0  0
   -0.0082    3.7114    1.4747 H   0  0  0  0  0  0  0  0  0  0  0  0
  1  2  1  0  0  0  0
  2  3  1  0  0  0  0
  2  4  1  0  0  0  0
  2  5  1  0  0  0  0
  5  6  2  0  0  0  0
  5  7  1  0  0  0  0
  7  8  1  0  0  0  0
  7  9  1  0  0  0  0
  9 10  1  0  0  0  0
  9 11  1  0  0  0  0
  9 24  1  0  0  0  0
 11 12  1  0  0  0  0
 11 13  1  0  0  0  0
 11 14  1  0  0  0  0
 14 15  1  0  0  0  0
 14 16  1  0  0  0  0
 14 20  1  0  0  0  0
 16 17  1  0  0  0  0
 16 18  1  0  0  0  0
 16 19  1  0  0  0  0
 20 21  1  0  0  0  0
 20 22  1  0  0  0  0
 20 23  1  0  0  0  0
 24 25  2  0  0  0  0
 24 26  1  0  0  0  0
 26 27  1  0  0  0  0
 26 28  1  0  0  0  0
 28 29  1  0  0  0  0
 28 30  1  0  0  0  0
 28 31  1  0  0  0  0
M  END
$$$$

  -OEChem-03222214063D

 31 30  0     1  0  0  0  0  0999 V2000
   -3.3245   -3.9038    1.1039 H   0  0  0  0  0  0  0  0  0  0  0  0
   -3.2720   -2.9153    0.6391 C   0  0  0  0  0  0  0  0  0  0  0  0
   -3.9773   -2.2507    1.1440 H   0  0  0  0  0  0  0  0  0  0  0  0
   -3.5548   -3.0046   -0.4125 H   0  0  0  0  0  0  0  0  0  0  0  0
   -1.8648   -2.3597    0.7501 C   0  0  0  0  0  0  0  0  0  0  0  0
   -0.9839   -3.0253    1.2716 O   0  0  0  0  0  0  0  0  0  0  0  0
   -1.5856   -1.1003    0.2636 N   0  0  0  0  0  0  0  0  0  0  0  0
   -2.3688   -0.5381   -0.0681 H   0  0  0  0  0  0  0  0  0  0  0  0
   -0.2937   -0.4138    0.4131 C   0  0  1  0  0  0  0  0  0  0  0  0
    0.3079   -0.8628    1.2102 H   0  0  0  0  0  0  0  0  0  0  0  0
    0.4397   -0.6230   -0.9405 C   0  0  0  0  0  0  0  0  0  0  0  0
    0.7148   -1.6813   -1.0040 H   0  0  0  0  0  0  0  0  0  0  0  0
   -0.3079   -0.4400   -1.7208 H   0  0  0  0  0  0  0  0  0  0  0  0
    1.6891    0.2162   -1.3334 C   0  0  0  0  0  0  0  0  0  0  0  0
    2.5537   -0.1712   -0.7840 H   0  0  0  0  0  0  0  0  0  0  0  0
    1.9222    0.0235   -2.8406 C   0  0  0  0  0  0  0  0  0  0  0  0
    1.1021    0.4591   -3.4208 H   0  0  0  0  0  0  0  0  0  0  0  0
    2.8574    0.5008   -3.1502 H   0  0  0  0  0  0  0  0  0  0  0  0
    1.9912   -1.0419   -3.0829 H   0  0  0  0  0  0  0  0  0  0  0  0
    1.6130    1.7318   -1.0985 C   0  0  0  0  0  0  0  0  0  0  0  0
    1.7642    1.9680   -0.0445 H   0  0  0  0  0  0  0  0  0  0  0  0
    2.4028    2.2476   -1.6537 H   0  0  0  0  0  0  0  0  0  0  0  0
    0.6488    2.1300   -1.4299 H   0  0  0  0  0  0  0  0  0  0  0  0
   -0.6136    1.0359    0.8360 C   0  0  0  0  0  0  0  0  0  0  0  0
   -1.5398    1.6420    0.3059 O   0  0  0  0  0  0  0  0  0  0  0  0
    0.0917    1.6417    1.8605 N   0  0  0  0  0  0  0  0  0  0  0  0
    0.8237    1.1004    2.3116 H   0  0  0  0  0  0  0  0  0  0  0  0
   -0.1886    2.9892    2.3397 C   0  0  0  0  0  0  0  0  0  0  0  0
   -1.2174    3.0588    2.7086 H   0  0  0  0  0  0  0  0  0  0  0  0
    0.4902    3.2480    3.1578 H   0  0  0  0  0  0  0  0  0  0  0  0
   -0.0524    3.7176    1.5334 H   0  0  0  0  0  0  0  0  0  0  0  0
  1  2  1  0  0  0  0
  2  3  1  0  0  0  0
  2  4  1  0  0  0  0
  2  5  1  0  0  0  0
  5  6  2  0  0  0  0
  5  7  1  0  0  0  0
  7  8  1  0  0  0  0
  7  9  1  0  0  0  0
  9 10  1  0  0  0  0
  9 11  1  0  0  0  0
  9 24  1  0  0  0  0
 11 12  1  0  0  0  0
 11 13  1  0  0  0  0
 11 14  1  0  0  0  0
 14 15  1  0  0  0  0
 14 16  1  0  0  0  0
 14 20  1  0  0  0  0
 16 17  1  0  0  0  0
 16 18  1  0  0  0  0
 16 19  1  0  0  0  0
 20 21  1  0  0  0  0
 20 22  1  0  0  0  0
 20 23  1  0  0  0  0
 24 25  2  0  0  0  0
 24 26  1  0  0  0  0
 26 27  1  0  0  0  0
 26 28  1  0  0  0  0
 28 29  1  0  0  0  0
 28 30  1  0  0  0  0
 28 31  1  0  0  0  0
M  END
$$$$

  -OEChem-03222214063D

 31 30  0     1  0  0  0  0  0999 V2000
   -3.3500   -3.8957    1.0957 H   0  0  0  0  0  0  0  0  0  0  0  0
   -3.2887   -2.9065    0.6333 C   0  0  0  0  0  0  0  0  0  0  0  0
   -3.9929   -2.2388    1.1356 H   0  0  0  0  0  0  0  0  0  0  0  0
   -3.5661   -2.9918   -0.4202 H   0  0  0  0  0  0  0  0  0  0  0  0
   -1.8787   -2.3597    0.7540 C   0  0  0  0  0  0  0  0  0  0  0  0
   -1.0058   -3.0293    1.2838 O   0  0  0  0  0  0  0  0  0  0  0  0
   -1.5879   -1.1022    0.2694 N   0  0  0  0  0  0  0  0  0  0  0  0
   -2.3642   -0.5347   -0.0699 H   0  0  0  0  0  0  0  0  0  0  0  0
   -0.2922   -0.4244    0.4293 C   0  0  1  0  0  0  0  0  0  0  0  0
    0.3102   -0.8758    1.2243 H   0  0  0  0  0  0  0  0  0  0  0  0
    0.4301   -0.6213   -0.9341 C   0  0  0  0  0  0  0  0  0  0  0  0
    0.6876   -1.6824   -1.0210 H   0  0  0  0  0  0  0  0  0  0  0  0
   -0.3303   -0.4196   -1.6971 H   0  0  0  0  0  0  0  0  0  0  0  0
    1.6882    0.2014   -1.3488 C   0  0  0  0  0  0  0  0  0  0  0  0
    2.5671   -0.3788   -1.0472 H   0  0  0  0  0  0  0  0  0  0  0  0
    1.6978    0.3438   -2.8786 C   0  0  0  0  0  0  0  0  0  0  0  0
    0.8652    0.9701   -3.2159 H   0  0  0  0  0  0  0  0  0  0  0  0
    2.6336    0.7997   -3.2167 H   0  0  0  0  0  0  0  0  0  0  0  0
    1.6087   -0.6390   -3.3524 H   0  0  0  0  0  0  0  0  0  0  0  0
    1.8628    1.6067   -0.7629 C   0  0  0  0  0  0  0  0  0  0  0  0
    2.0658    1.5503    0.3083 H   0  0  0  0  0  0  0  0  0  0  0  0
    2.7190    2.1072   -1.2262 H   0  0  0  0  0  0  0  0  0  0  0  0
    0.9760    2.2222   -0.9429 H   0  0  0  0  0  0  0  0  0  0  0  0
   -0.6317    1.0237    0.8494 C   0  0  0  0  0  0  0  0  0  0  0  0
   -1.5446    1.6272    0.2935 O   0  0  0  0  0  0  0  0  0  0  0  0
    0.0506    1.6411    1.8826 N   0  0  0  0  0  0  0  0  0  0  0  0
    0.7769    1.1068    2.3508 H   0  0  0  0  0  0  0  0  0  0  0  0
   -0.2379    2.9942    2.3405 C   0  0  0  0  0  0  0  0  0  0  0  0
   -1.2777    3.0728    2.6747 H   0  0  0  0  0  0  0  0  0  0  0  0
    0.4148    3.2565    3.1785 H   0  0  0  0  0  0  0  0  0  0  0  0
   -0.0711    3.7148    1.5332 H   0  0  0  0  0  0  0  0  0  0  0  0
  1  2  1  0  0  0  0
  2  3  1  0  0  0  0
  2  4  1  0  0  0  0
  2  5  1  0  0  0  0
  5  6  2  0  0  0  0
  5  7  1  0  0  0  0
  7  8  1  0  0  0  0
  7  9  1  0  0  0  0
  9 10  1  0  0  0  0
  9 11  1  0  0  0  0
  9 24  1  0  0  0  0
 11 12  1  0  0  0  0
 11 13  1  0  0  0  0
 11 14  1  0  0  0  0
 14 15  1  0  0  0  0
 14 16  1  0  0  0  0
 14 20  1  0  0  0  0
 16 17  1  0  0  0  0
 16 18  1  0  0  0  0
 16 19  1  0  0  0  0
 20 21  1  0  0  0  0
 20 22  1  0  0  0  0
 20 23  1  0  0  0  0
 24 25  2  0  0  0  0
 24 26  1  0  0  0  0
 26 27  1  0  0  0  0
 26 28  1  0  0  0  0
 28 29  1  0  0  0  0
 28 30  1  0  0  0  0
 28 31  1  0  0  0  0
M  END
$$$$

  -OEChem-03222214063D

 31 30  0     1  0  0  0  0  0999 V2000
   -3.3740   -3.8881    1.1175 H   0  0  0  0  0  0  0  0  0  0  0  0
   -3.3063   -2.9031    0.6472 C   0  0  0  0  0  0  0  0  0  0  0  0
   -4.0094   -2.2280    1.1410 H   0  0  0  0  0  0  0  0  0  0  0  0
   -3.5800   -2.9962   -0.4064 H   0  0  0  0  0  0  0  0  0  0  0  0
   -1.8944   -2.3612    0.7687 C   0  0  0  0  0  0  0  0  0  0  0  0
   -1.0268   -3.0298    1.3079 O   0  0  0  0  0  0  0  0  0  0  0  0
   -1.5955   -1.1101    0.2731 N   0  0  0  0  0  0  0  0  0  0  0  0
   -2.3678   -0.5422   -0.0743 H   0  0  0  0  0  0  0  0  0  0  0  0
   -0.2976   -0.4363    0.4324 C   0  0  1  0  0  0  0  0  0  0  0  0
    0.3070   -0.8845    1.2277 H   0  0  0  0  0  0  0  0  0  0  0  0
    0.4158   -0.6260   -0.9360 C   0  0  0  0  0  0  0  0  0  0  0  0
    0.6785   -1.6861   -1.0201 H   0  0  0  0  0  0  0  0  0  0  0  0
   -0.3471   -0.4362   -1.6997 H   0  0  0  0  0  0  0  0  0  0  0  0
    1.6753    0.1992   -1.3473 C   0  0  0  0  0  0  0  0  0  0  0  0
    2.5185   -0.5000   -1.3253 H   0  0  0  0  0  0  0  0  0  0  0  0
    1.5234    0.6958   -2.7920 C   0  0  0  0  0  0  0  0  0  0  0  0
    0.6992    1.4127   -2.8684 H   0  0  0  0  0  0  0  0  0  0  0  0
    2.4422    1.1862   -3.1285 H   0  0  0  0  0  0  0  0  0  0  0  0
    1.3197   -0.1436   -3.4643 H   0  0  0  0  0  0  0  0  0  0  0  0
    2.0919    1.3829   -0.4701 C   0  0  0  0  0  0  0  0  0  0  0  0
    2.2471    1.0586    0.5621 H   0  0  0  0  0  0  0  0  0  0  0  0
    3.0376    1.8001   -0.8301 H   0  0  0  0  0  0  0  0  0  0  0  0
    1.3438    2.1803   -0.5023 H   0  0  0  0  0  0  0  0  0  0  0  0
   -0.6397    1.0169    0.8364 C   0  0  0  0  0  0  0  0  0  0  0  0
   -1.5422    1.6175    0.2605 O   0  0  0  0  0  0  0  0  0  0  0  0
    0.0340    1.6481    1.8674 N   0  0  0  0  0  0  0  0  0  0  0  0
    0.7520    1.1183    2.3532 H   0  0  0  0  0  0  0  0  0  0  0  0
   -0.2599    3.0066    2.3062 C   0  0  0  0  0  0  0  0  0  0  0  0
   -1.2996    3.0849    2.6411 H   0  0  0  0  0  0  0  0  0  0  0  0
    0.3932    3.2840    3.1391 H   0  0  0  0  0  0  0  0  0  0  0  0
   -0.0980    3.7165    1.4883 H   0  0  0  0  0  0  0  0  0  0  0  0
  1  2  1  0  0  0  0
  2  3  1  0  0  0  0
  2  4  1  0  0  0  0
  2  5  1  0  0  0  0
  5  6  2  0  0  0  0
  5  7  1  0  0  0  0
  7  8  1  0  0  0  0
  7  9  1  0  0  0  0
  9 10  1  0  0  0  0
  9 11  1  0  0  0  0
  9 24  1  0  0  0  0
 11 12  1  0  0  0  0
 11 13  1  0  0  0  0
 11 14  1  0  0  0  0
 14 15  1  0  0  0  0
 14 16  1  0  0  0  0
 14 20  1  0  0  0  0
 16 17  1  0  0  0  0
 16 18  1  0  0  0  0
 16 19  1  0  0  0  0
 20 21  1  0  0  0  0
 20 22  1  0  0  0  0
 20 23  1  0  0  0  0
 24 25  2  0  0  0  0
 24 26  1  0  0  0  0
 26 27  1  0  0  0  0
 26 28  1  0  0  0  0
 28 29  1  0  0  0  0
 28 30  1  0  0  0  0
 28 31  1  0  0  0  0
M  END
$$$$

  -OEChem-03222214063D

 31 30  0     1  0  0  0  0  0999 V2000
   -3.3795   -3.8945    1.1422 H   0  0  0  0  0  0  0  0  0  0  0  0
   -3.3125   -2.9139    0.6628 C   0  0  0  0  0  0  0  0  0  0  0  0
   -4.0202   -2.2362    1.1463 H   0  0  0  0  0  0  0  0  0  0  0  0
   -3.5802   -3.0179   -0.3915 H   0  0  0  0  0  0  0  0  0  0  0  0
   -1.9028   -2.3672    0.7864 C   0  0  0  0  0  0  0  0  0  0  0  0
   -1.0364   -3.0285    1.3366 O   0  0  0  0  0  0  0  0  0  0  0  0
   -1.6037   -1.1216    0.2769 N   0  0  0  0  0  0  0  0  0  0  0  0
   -2.3752   -0.5586   -0.0797 H   0  0  0  0  0  0  0  0  0  0  0  0
   -0.3057   -0.4474    0.4302 C   0  0  1  0  0  0  0  0  0  0  0  0
    0.3026   -0.8939    1.2234 H   0  0  0  0  0  0  0  0  0  0  0  0
    0.3973   -0.6289   -0.9413 C   0  0  0  0  0  0  0  0  0  0  0  0
    0.6807   -1.6847   -1.0094 H   0  0  0  0  0  0  0  0  0  0  0  0
   -0.3612   -0.4647   -1.7151 H   0  0  0  0  0  0  0  0  0  0  0  0
    1.6499    0.2124   -1.3319 C   0  0  0  0  0  0  0  0  0  0  0  0
    2.4210   -0.5179   -1.6016 H   0  0  0  0  0  0  0  0  0  0  0  0
    1.3722    1.0413   -2.5925 C   0  0  0  0  0  0  0  0  0  0  0  0
    0.5829    1.7757   -2.4005 H   0  0  0  0  0  0  0  0  0  0  0  0
    2.2747    1.5750   -2.9067 H   0  0  0  0  0  0  0  0  0  0  0  0
    1.0546    0.3939   -3.4160 H   0  0  0  0  0  0  0  0  0  0  0  0
    2.2846    1.0997   -0.2567 C   0  0  0  0  0  0  0  0  0  0  0  0
    2.3617    0.5647    0.6942 H   0  0  0  0  0  0  0  0  0  0  0  0
    3.2953    1.3864   -0.5636 H   0  0  0  0  0  0  0  0  0  0  0  0
    1.7109    2.0198   -0.1186 H   0  0  0  0  0  0  0  0  0  0  0  0
   -0.6347    1.0129    0.8184 C   0  0  0  0  0  0  0  0  0  0  0  0
   -1.5303    1.6148    0.2337 O   0  0  0  0  0  0  0  0  0  0  0  0
    0.0444    1.6509    1.8416 N   0  0  0  0  0  0  0  0  0  0  0  0
    0.7596    1.1221    2.3326 H   0  0  0  0  0  0  0  0  0  0  0  0
   -0.2361    3.0186    2.2601 C   0  0  0  0  0  0  0  0  0  0  0  0
   -1.2731    3.1109    2.5994 H   0  0  0  0  0  0  0  0  0  0  0  0
    0.4238    3.3045    3.0846 H   0  0  0  0  0  0  0  0  0  0  0  0
   -0.0732    3.7135    1.4297 H   0  0  0  0  0  0  0  0  0  0  0  0
  1  2  1  0  0  0  0
  2  3  1  0  0  0  0
  2  4  1  0  0  0  0
  2  5  1  0  0  0  0
  5  6  2  0  0  0  0
  5  7  1  0  0  0  0
  7  8  1  0  0  0  0
  7  9  1  0  0  0  0
  9 10  1  0  0  0  0
  9 11  1  0  0  0  0
  9 24  1  0  0  0  0
 11 12  1  0  0  0  0
 11 13  1  0  0  0  0
 11 14  1  0  0  0  0
 14 15  1  0  0  0  0
 14 16  1  0  0  0  0
 14 20  1  0  0  0  0
 16 17  1  0  0  0  0
 16 18  1  0  0  0  0
 16 19  1  0  0  0  0
 20 21  1  0  0  0  0
 20 22  1  0  0  0  0
 20 23  1  0  0  0  0
 24 25  2  0  0  0  0
 24 26  1  0  0  0  0
 26 27  1  0  0  0  0
 26 28  1  0  0  0  0
 28 29  1  0  0  0  0
 28 30  1  0  0  0  0
 28 31  1  0  0  0  0
M  END
$$$$

  -OEChem-03222214063D

 31 30  0     1  0  0  0  0  0999 V2000
   -3.3941   -3.8882    1.1693 H   0  0  0  0  0  0  0  0  0  0  0  0
   -3.3256   -2.9108    0.6834 C   0  0  0  0  0  0  0  0  0  0  0  0
   -4.0252   -2.2261    1.1691 H   0  0  0  0  0  0  0  0  0  0  0  0
   -3.6028   -3.0194   -0.3680 H   0  0  0  0  0  0  0  0  0  0  0  0
   -1.9123   -2.3708    0.7922 C   0  0  0  0  0  0  0  0  0  0  0  0
   -1.0472   -3.0290    1.3482 O   0  0  0  0  0  0  0  0  0  0  0  0
   -1.6110   -1.1317    0.2685 N   0  0  0  0  0  0  0  0  0  0  0  0
   -2.3823   -0.5707   -0.0917 H   0  0  0  0  0  0  0  0  0  0  0  0
   -0.3135   -0.4568    0.4179 C   0  0  1  0  0  0  0  0  0  0  0  0
    0.2905   -0.8988    1.2168 H   0  0  0  0  0  0  0  0  0  0  0  0
    0.3954   -0.6368   -0.9480 C   0  0  0  0  0  0  0  0  0  0  0  0
    0.6992   -1.6879   -1.0008 H   0  0  0  0  0  0  0  0  0  0  0  0
   -0.3474   -0.4898   -1.7401 H   0  0  0  0  0  0  0  0  0  0  0  0
    1.6414    0.2225   -1.2998 C   0  0  0  0  0  0  0  0  0  0  0  0
    2.3176   -0.4574   -1.8301 H   0  0  0  0  0  0  0  0  0  0  0  0
    1.2884    1.3285   -2.3017 C   0  0  0  0  0  0  0  0  0  0  0  0
    0.5727    2.0305   -1.8620 H   0  0  0  0  0  0  0  0  0  0  0  0
    2.1871    1.8832   -2.5890 H   0  0  0  0  0  0  0  0  0  0  0  0
    0.8464    0.9018   -3.2076 H   0  0  0  0  0  0  0  0  0  0  0  0
    2.4554    0.7785   -0.1256 C   0  0  0  0  0  0  0  0  0  0  0  0
    2.4940    0.0604    0.6987 H   0  0  0  0  0  0  0  0  0  0  0  0
    3.4814    0.9763   -0.4512 H   0  0  0  0  0  0  0  0  0  0  0  0
    2.0403    1.7233    0.2302 H   0  0  0  0  0  0  0  0  0  0  0  0
   -0.6277    1.0112    0.7876 C   0  0  0  0  0  0  0  0  0  0  0  0
   -1.5261    1.6099    0.2039 O   0  0  0  0  0  0  0  0  0  0  0  0
    0.0564    1.6554    1.8026 N   0  0  0  0  0  0  0  0  0  0  0  0
    0.7760    1.1301    2.2908 H   0  0  0  0  0  0  0  0  0  0  0  0
   -0.2114    3.0301    2.2061 C   0  0  0  0  0  0  0  0  0  0  0  0
   -1.2513    3.1391    2.5318 H   0  0  0  0  0  0  0  0  0  0  0  0
    0.4420    3.3143    3.0366 H   0  0  0  0  0  0  0  0  0  0  0  0
   -0.0291    3.7157    1.3719 H   0  0  0  0  0  0  0  0  0  0  0  0
  1  2  1  0  0  0  0
  2  3  1  0  0  0  0
  2  4  1  0  0  0  0
  2  5  1  0  0  0  0
  5  6  2  0  0  0  0
  5  7  1  0  0  0  0
  7  8  1  0  0  0  0
  7  9  1  0  0  0  0
  9 10  1  0  0  0  0
  9 11  1  0  0  0  0
  9 24  1  0  0  0  0
 11 12  1  0  0  0  0
 11 13  1  0  0  0  0
 11 14  1  0  0  0  0
 14 15  1  0  0  0  0
 14 16  1  0  0  0  0
 14 20  1  0  0  0  0
 16 17  1  0  0  0  0
 16 18  1  0  0  0  0
 16 19  1  0  0  0  0
 20 21  1  0  0  0  0
 20 22  1  0  0  0  0
 20 23  1  0  0  0  0
 24 25  2  0  0  0  0
 24 26  1  0  0  0  0
 26 27  1  0  0  0  0
 26 28  1  0  0  0  0
 28 29  1  0  0  0  0
 28 30  1  0  0  0  0
 28 31  1  0  0  0  0
M  END
$$$$

  -OEChem-03222214063D

 31 30  0     1  0  0  0  0  0999 V2000
   -3.3978   -3.8866    1.1759 H   0  0  0  0  0  0  0  0  0  0  0  0
   -3.3304   -2.9092    0.6900 C   0  0  0  0  0  0  0  0  0  0  0  0
   -4.0270   -2.2237    1.1786 H   0  0  0  0  0  0  0  0  0  0  0  0
   -3.6127   -3.0175   -0.3600 H   0  0  0  0  0  0  0  0  0  0  0  0
   -1.9160   -2.3702    0.7927 C   0  0  0  0  0  0  0  0  0  0  0  0
   -1.0493   -3.0283    1.3465 O   0  0  0  0  0  0  0  0  0  0  0  0
   -1.6149   -1.1333    0.2637 N   0  0  0  0  0  0  0  0  0  0  0  0
   -2.3870   -0.5715   -0.0935 H   0  0  0  0  0  0  0  0  0  0  0  0
   -0.3167   -0.4590    0.4061 C   0  0  1  0  0  0  0  0  0  0  0  0
    0.2857   -0.8978    1.2080 H   0  0  0  0  0  0  0  0  0  0  0  0
    0.4014   -0.6416   -0.9537 C   0  0  0  0  0  0  0  0  0  0  0  0
    0.7098   -1.6913   -1.0068 H   0  0  0  0  0  0  0  0  0  0  0  0
   -0.3290   -0.4880   -1.7557 H   0  0  0  0  0  0  0  0  0  0  0  0
    1.6431    0.2276   -1.2767 C   0  0  0  0  0  0  0  0  0  0  0  0
    2.2079   -0.3480   -2.0183 H   0  0  0  0  0  0  0  0  0  0  0  0
    1.2776    1.5464   -1.9702 C   0  0  0  0  0  0  0  0  0  0  0  0
    0.7375    2.2132   -1.2927 H   0  0  0  0  0  0  0  0  0  0  0  0
    2.1847    2.0602   -2.3029 H   0  0  0  0  0  0  0  0  0  0  0  0
    0.6497    1.3596   -2.8468 H   0  0  0  0  0  0  0  0  0  0  0  0
    2.5979    0.4485   -0.0972 C   0  0  0  0  0  0  0  0  0  0  0  0
    2.7211   -0.4763    0.4750 H   0  0  0  0  0  0  0  0  0  0  0  0
    3.5807    0.7533   -0.4699 H   0  0  0  0  0  0  0  0  0  0  0  0
    2.2411    1.2346    0.5680 H   0  0  0  0  0  0  0  0  0  0  0  0
   -0.6238    1.0113    0.7717 C   0  0  0  0  0  0  0  0  0  0  0  0
   -1.5364    1.6038    0.2035 O   0  0  0  0  0  0  0  0  0  0  0  0
    0.0666    1.6584    1.7799 N   0  0  0  0  0  0  0  0  0  0  0  0
    0.7936    1.1363    2.2604 H   0  0  0  0  0  0  0  0  0  0  0  0
   -0.1965    3.0348    2.1801 C   0  0  0  0  0  0  0  0  0  0  0  0
   -1.2347    3.1467    2.5102 H   0  0  0  0  0  0  0  0  0  0  0  0
    0.4610    3.3201    3.0068 H   0  0  0  0  0  0  0  0  0  0  0  0
   -0.0164    3.7176    1.3431 H   0  0  0  0  0  0  0  0  0  0  0  0
  1  2  1  0  0  0  0
  2  3  1  0  0  0  0
  2  4  1  0  0  0  0
  2  5  1  0  0  0  0
  5  6  2  0  0  0  0
  5  7  1  0  0  0  0
  7  8  1  0  0  0  0
  7  9  1  0  0  0  0
  9 10  1  0  0  0  0
  9 11  1  0  0  0  0
  9 24  1  0  0  0  0
 11 12  1  0  0  0  0
 11 13  1  0  0  0  0
 11 14  1  0  0  0  0
 14 15  1  0  0  0  0
 14 16  1  0  0  0  0
 14 20  1  0  0  0  0
 16 17  1  0  0  0  0
 16 18  1  0  0  0  0
 16 19  1  0  0  0  0
 20 21  1  0  0  0  0
 20 22  1  0  0  0  0
 20 23  1  0  0  0  0
 24 25  2  0  0  0  0
 24 26  1  0  0  0  0
 26 27  1  0  0  0  0
 26 28  1  0  0  0  0
 28 29  1  0  0  0  0
 28 30  1  0  0  0  0
 28 31  1  0  0  0  0
M  END
$$$$

  -OEChem-03222214063D

 31 30  0     1  0  0  0  0  0999 V2000
   -3.3949   -3.8881    1.1771 H   0  0  0  0  0  0  0  0  0  0  0  0
   -3.3318   -2.9122    0.6876 C   0  0  0  0  0  0  0  0  0  0  0  0
   -4.0317   -2.2283    1.1737 H   0  0  0  0  0  0  0  0  0  0  0  0
   -3.6133   -3.0256   -0.3621 H   0  0  0  0  0  0  0  0  0  0  0  0
   -1.9197   -2.3668    0.7880 C   0  0  0  0  0  0  0  0  0  0  0  0
   -1.0487   -3.0226    1.3377 O   0  0  0  0  0  0  0  0  0  0  0  0
   -1.6256   -1.1275    0.2603 N   0  0  0  0  0  0  0  0  0  0  0  0
   -2.4008   -0.5705   -0.0973 H   0  0  0  0  0  0  0  0  0  0  0  0
   -0.3292   -0.4488    0.3964 C   0  0  1  0  0  0  0  0  0  0  0  0
    0.2656   -0.8864    1.2047 H   0  0  0  0  0  0  0  0  0  0  0  0
    0.4113   -0.6549   -0.9486 C   0  0  0  0  0  0  0  0  0  0  0  0
    0.7169   -1.7058   -0.9903 H   0  0  0  0  0  0  0  0  0  0  0  0
   -0.3070   -0.5027   -1.7615 H   0  0  0  0  0  0  0  0  0  0  0  0
    1.6526    0.2140   -1.2695 C   0  0  0  0  0  0  0  0  0  0  0  0
    2.1121   -0.2419   -2.1532 H   0  0  0  0  0  0  0  0  0  0  0  0
    1.3216    1.6616   -1.6614 C   0  0  0  0  0  0  0  0  0  0  0  0
    1.0872    2.2753   -0.7891 H   0  0  0  0  0  0  0  0  0  0  0  0
    2.1809    2.1151   -2.1648 H   0  0  0  0  0  0  0  0  0  0  0  0
    0.4697    1.6891   -2.3478 H   0  0  0  0  0  0  0  0  0  0  0  0
    2.6970    0.1743   -0.1472 C   0  0  0  0  0  0  0  0  0  0  0  0
    2.9395   -0.8621    0.1084 H   0  0  0  0  0  0  0  0  0  0  0  0
    3.6162    0.6714   -0.4729 H   0  0  0  0  0  0  0  0  0  0  0  0
    2.3385    0.6787    0.7522 H   0  0  0  0  0  0  0  0  0  0  0  0
   -0.6188    1.0216    0.7672 C   0  0  0  0  0  0  0  0  0  0  0  0
   -1.5318    1.6246    0.2113 O   0  0  0  0  0  0  0  0  0  0  0  0
    0.0915    1.6549    1.7711 N   0  0  0  0  0  0  0  0  0  0  0  0
    0.8123    1.1195    2.2465 H   0  0  0  0  0  0  0  0  0  0  0  0
   -0.1590    3.0290    2.1882 C   0  0  0  0  0  0  0  0  0  0  0  0
   -1.1910    3.1420    2.5366 H   0  0  0  0  0  0  0  0  0  0  0  0
    0.5138    3.3046    3.0060 H   0  0  0  0  0  0  0  0  0  0  0  0
    0.0093    3.7184    1.3543 H   0  0  0  0  0  0  0  0  0  0  0  0
  1  2  1  0  0  0  0
  2  3  1  0  0  0  0
  2  4  1  0  0  0  0
  2  5  1  0  0  0  0
  5  6  2  0  0  0  0
  5  7  1  0  0  0  0
  7  8  1  0  0  0  0
  7  9  1  0  0  0  0
  9 10  1  0  0  0  0
  9 11  1  0  0  0  0
  9 24  1  0  0  0  0
 11 12  1  0  0  0  0
 11 13  1  0  0  0  0
 11 14  1  0  0  0  0
 14 15  1  0  0  0  0
 14 16  1  0  0  0  0
 14 20  1  0  0  0  0
 16 17  1  0  0  0  0
 16 18  1  0  0  0  0
 16 19  1  0  0  0  0
 20 21  1  0  0  0  0
 20 22  1  0  0  0  0
 20 23  1  0  0  0  0
 24 25  2  0  0  0  0
 24 26  1  0  0  0  0
 26 27  1  0  0  0  0
 26 28  1  0  0  0  0
 28 29  1  0  0  0  0
 28 30  1  0  0  0  0
 28 31  1  0  0  0  0
M  END
$$$$

  -OEChem-03222214063D

 31 30  0     1  0  0  0  0  0999 V2000
   -3.3727   -3.8971    1.1667 H   0  0  0  0  0  0  0  0  0  0  0  0
   -3.3199   -2.9169    0.6846 C   0  0  0  0  0  0  0  0  0  0  0  0
   -4.0206   -2.2415    1.1814 H   0  0  0  0  0  0  0  0  0  0  0  0
   -3.6082   -3.0231   -0.3639 H   0  0  0  0  0  0  0  0  0  0  0  0
   -1.9107   -2.3636    0.7791 C   0  0  0  0  0  0  0  0  0  0  0  0
   -1.0313   -3.0194    1.3155 O   0  0  0  0  0  0  0  0  0  0  0  0
   -1.6286   -1.1175    0.2610 N   0  0  0  0  0  0  0  0  0  0  0  0
   -2.4106   -0.5619   -0.0837 H   0  0  0  0  0  0  0  0  0  0  0  0
   -0.3365   -0.4302    0.3960 C   0  0  1  0  0  0  0  0  0  0  0  0
    0.2538   -0.8669    1.2081 H   0  0  0  0  0  0  0  0  0  0  0  0
    0.4176   -0.6601   -0.9394 C   0  0  0  0  0  0  0  0  0  0  0  0
    0.7074   -1.7156   -0.9767 H   0  0  0  0  0  0  0  0  0  0  0  0
   -0.3006   -0.5015   -1.7512 H   0  0  0  0  0  0  0  0  0  0  0  0
    1.6612    0.1949   -1.2931 C   0  0  0  0  0  0  0  0  0  0  0  0
    1.9960   -0.1406   -2.2807 H   0  0  0  0  0  0  0  0  0  0  0  0
    1.4277    1.7099   -1.3905 C   0  0  0  0  0  0  0  0  0  0  0  0
    1.4410    2.1905   -0.4106 H   0  0  0  0  0  0  0  0  0  0  0  0
    2.2217    2.1669   -1.9892 H   0  0  0  0  0  0  0  0  0  0  0  0
    0.4706    1.9205   -1.8783 H   0  0  0  0  0  0  0  0  0  0  0  0
    2.7894   -0.0795   -0.2919 C   0  0  0  0  0  0  0  0  0  0  0  0
    3.0155   -1.1499   -0.2578 H   0  0  0  0  0  0  0  0  0  0  0  0
    3.6981    0.4529   -0.5898 H   0  0  0  0  0  0  0  0  0  0  0  0
    2.5102    0.2489    0.7136 H   0  0  0  0  0  0  0  0  0  0  0  0
   -0.6244    1.0348    0.7812 C   0  0  0  0  0  0  0  0  0  0  0  0
   -1.5447    1.6432    0.2441 O   0  0  0  0  0  0  0  0  0  0  0  0
    0.0991    1.6494    1.7875 N   0  0  0  0  0  0  0  0  0  0  0  0
    0.8202    1.1027    2.2493 H   0  0  0  0  0  0  0  0  0  0  0  0
   -0.1544    3.0112    2.2405 C   0  0  0  0  0  0  0  0  0  0  0  0
   -1.1765    3.1044    2.6225 H   0  0  0  0  0  0  0  0  0  0  0  0
    0.5403    3.2778    3.0427 H   0  0  0  0  0  0  0  0  0  0  0  0
   -0.0196    3.7197    1.4165 H   0  0  0  0  0  0  0  0  0  0  0  0
  1  2  1  0  0  0  0
  2  3  1  0  0  0  0
  2  4  1  0  0  0  0
  2  5  1  0  0  0  0
  5  6  2  0  0  0  0
  5  7  1  0  0  0  0
  7  8  1  0  0  0  0
  7  9  1  0  0  0  0
  9 10  1  0  0  0  0
  9 11  1  0  0  0  0
  9 24  1  0  0  0  0
 11 12  1  0  0  0  0
 11 13  1  0  0  0  0
 11 14  1  0  0  0  0
 14 15  1  0  0  0  0
 14 16  1  0  0  0  0
 14 20  1  0  0  0  0
 16 17  1  0  0  0  0
 16 18  1  0  0  0  0
 16 19  1  0  0  0  0
 20 21  1  0  0  0  0
 20 22  1  0  0  0  0
 20 23  1  0  0  0  0
 24 25  2  0  0  0  0
 24 26  1  0  0  0  0
 26 27  1  0  0  0  0
 26 28  1  0  0  0  0
 28 29  1  0  0  0  0
 28 30  1  0  0  0  0
 28 31  1  0  0  0  0
M  END
$$$$

  -OEChem-03222214063D

 31 30  0     1  0  0  0  0  0999 V2000
   -3.3616   -3.8956    1.1521 H   0  0  0  0  0  0  0  0  0  0  0  0
   -3.3074   -2.9123    0.6765 C   0  0  0  0  0  0  0  0  0  0  0  0
   -4.0115   -2.2409    1.1738 H   0  0  0  0  0  0  0  0  0  0  0  0
   -3.5901   -3.0127   -0.3742 H   0  0  0  0  0  0  0  0  0  0  0  0
   -1.8996   -2.3574    0.7818 C   0  0  0  0  0  0  0  0  0  0  0  0
   -1.0214   -3.0155    1.3171 O   0  0  0  0  0  0  0  0  0  0  0  0
   -1.6176   -1.1069    0.2745 N   0  0  0  0  0  0  0  0  0  0  0  0
   -2.3995   -0.5487   -0.0664 H   0  0  0  0  0  0  0  0  0  0  0  0
   -0.3265   -0.4186    0.4203 C   0  0  1  0  0  0  0  0  0  0  0  0
    0.2662   -0.8560    1.2303 H   0  0  0  0  0  0  0  0  0  0  0  0
    0.4201   -0.6530   -0.9217 C   0  0  0  0  0  0  0  0  0  0  0  0
    0.6789   -1.7159   -0.9760 H   0  0  0  0  0  0  0  0  0  0  0  0
   -0.3095   -0.4690   -1.7182 H   0  0  0  0  0  0  0  0  0  0  0  0
    1.6711    0.1775   -1.3184 C   0  0  0  0  0  0  0  0  0  0  0  0
    1.8391    0.0042   -2.3869 H   0  0  0  0  0  0  0  0  0  0  0  0
    1.6086    1.6953   -1.1075 C   0  0  0  0  0  0  0  0  0  0  0  0
    1.7660    1.9649   -0.0617 H   0  0  0  0  0  0  0  0  0  0  0  0
    2.3964    2.1806   -1.6921 H   0  0  0  0  0  0  0  0  0  0  0  0
    0.6464    2.0920   -1.4457 H   0  0  0  0  0  0  0  0  0  0  0  0
    2.8860   -0.3593   -0.5510 C   0  0  0  0  0  0  0  0  0  0  0  0
    3.0330   -1.4233   -0.7616 H   0  0  0  0  0  0  0  0  0  0  0  0
    3.7932    0.1751   -0.8503 H   0  0  0  0  0  0  0  0  0  0  0  0
    2.7490   -0.2350    0.5278 H   0  0  0  0  0  0  0  0  0  0  0  0
   -0.6387    1.0401    0.8157 C   0  0  0  0  0  0  0  0  0  0  0  0
   -1.5597    1.6415    0.2717 O   0  0  0  0  0  0  0  0  0  0  0  0
    0.0661    1.6592    1.8326 N   0  0  0  0  0  0  0  0  0  0  0  0
    0.7958    1.1229    2.2929 H   0  0  0  0  0  0  0  0  0  0  0  0
   -0.2054    3.0175    2.2855 C   0  0  0  0  0  0  0  0  0  0  0  0
   -1.2344    3.1016    2.6507 H   0  0  0  0  0  0  0  0  0  0  0  0
    0.4734    3.2869    3.1003 H   0  0  0  0  0  0  0  0  0  0  0  0
   -0.0622    3.7298    1.4661 H   0  0  0  0  0  0  0  0  0  0  0  0
  1  2  1  0  0  0  0
  2  3  1  0  0  0  0
  2  4  1  0  0  0  0
  2  5  1  0  0  0  0
  5  6  2  0  0  0  0
  5  7  1  0  0  0  0
  7  8  1  0  0  0  0
  7  9  1  0  0  0  0
  9 10  1  0  0  0  0
  9 11  1  0  0  0  0
  9 24  1  0  0  0  0
 11 12  1  0  0  0  0
 11 13  1  0  0  0  0
 11 14  1  0  0  0  0
 14 15  1  0  0  0  0
 14 16  1  0  0  0  0
 14 20  1  0  0  0  0
 16 17  1  0  0  0  0
 16 18  1  0  0  0  0
 16 19  1  0  0  0  0
 20 21  1  0  0  0  0
 20 22  1  0  0  0  0
 20 23  1  0  0  0  0
 24 25  2  0  0  0  0
 24 26  1  0  0  0  0
 26 27  1  0  0  0  0
 26 28  1  0  0  0  0
 28 29  1  0  0  0  0
 28 30  1  0  0  0  0
 28 31  1  0  0  0  0
M  END
$$$$

  -OEChem-03222214063D

 31 30  0     1  0  0  0  0  0999 V2000
   -3.3612   -3.8912    1.1421 H   0  0  0  0  0  0  0  0  0  0  0  0
   -3.3014   -2.9060    0.6710 C   0  0  0  0  0  0  0  0  0  0  0  0
   -4.0078   -2.2352    1.1662 H   0  0  0  0  0  0  0  0  0  0  0  0
   -3.5771   -3.0014   -0.3821 H   0  0  0  0  0  0  0  0  0  0  0  0
   -1.8928   -2.3548    0.7886 C   0  0  0  0  0  0  0  0  0  0  0  0
   -1.0209   -3.0152    1.3313 O   0  0  0  0  0  0  0  0  0  0  0  0
   -1.6028   -1.1041    0.2861 N   0  0  0  0  0  0  0  0  0  0  0  0
   -2.3793   -0.5437   -0.0637 H   0  0  0  0  0  0  0  0  0  0  0  0
   -0.3099   -0.4207    0.4425 C   0  0  1  0  0  0  0  0  0  0  0  0
    0.2859   -0.8599    1.2493 H   0  0  0  0  0  0  0  0  0  0  0  0
    0.4260   -0.6429   -0.9091 C   0  0  0  0  0  0  0  0  0  0  0  0
    0.6563   -1.7108   -0.9887 H   0  0  0  0  0  0  0  0  0  0  0  0
   -0.3127   -0.4295   -1.6898 H   0  0  0  0  0  0  0  0  0  0  0  0
    1.6841    0.1752   -1.3259 C   0  0  0  0  0  0  0  0  0  0  0  0
    1.6911    0.2177   -2.4205 H   0  0  0  0  0  0  0  0  0  0  0  0
    1.8239    1.6118   -0.8118 C   0  0  0  0  0  0  0  0  0  0  0  0
    2.0333    1.6299    0.2599 H   0  0  0  0  0  0  0  0  0  0  0  0
    2.6576    2.1066   -1.3198 H   0  0  0  0  0  0  0  0  0  0  0  0
    0.9189    2.1892   -1.0228 H   0  0  0  0  0  0  0  0  0  0  0  0
    2.9347   -0.5929   -0.8750 C   0  0  0  0  0  0  0  0  0  0  0  0
    2.9559   -1.5909   -1.3241 H   0  0  0  0  0  0  0  0  0  0  0  0
    3.8425   -0.0648   -1.1837 H   0  0  0  0  0  0  0  0  0  0  0  0
    2.9489   -0.7018    0.2142 H   0  0  0  0  0  0  0  0  0  0  0  0
   -0.6453    1.0343    0.8387 C   0  0  0  0  0  0  0  0  0  0  0  0
   -1.5563    1.6308    0.2723 O   0  0  0  0  0  0  0  0  0  0  0  0
    0.0360    1.6649    1.8646 N   0  0  0  0  0  0  0  0  0  0  0  0
    0.7612    1.1364    2.3413 H   0  0  0  0  0  0  0  0  0  0  0  0
   -0.2500    3.0258    2.3015 C   0  0  0  0  0  0  0  0  0  0  0  0
   -1.2898    3.1116    2.6340 H   0  0  0  0  0  0  0  0  0  0  0  0
    0.4030    3.3005    3.1355 H   0  0  0  0  0  0  0  0  0  0  0  0
   -0.0817    3.7335    1.4830 H   0  0  0  0  0  0  0  0  0  0  0  0
  1  2  1  0  0  0  0
  2  3  1  0  0  0  0
  2  4  1  0  0  0  0
  2  5  1  0  0  0  0
  5  6  2  0  0  0  0
  5  7  1  0  0  0  0
  7  8  1  0  0  0  0
  7  9  1  0  0  0  0
  9 10  1  0  0  0  0
  9 11  1  0  0  0  0
  9 24  1  0  0  0  0
 11 12  1  0  0  0  0
 11 13  1  0  0  0  0
 11 14  1  0  0  0  0
 14 15  1  0  0  0  0
 14 16  1  0  0  0  0
 14 20  1  0  0  0  0
 16 17  1  0  0  0  0
 16 18  1  0  0  0  0
 16 19  1  0  0  0  0
 20 21  1  0  0  0  0
 20 22  1  0  0  0  0
 20 23  1  0  0  0  0
 24 25  2  0  0  0  0
 24 26  1  0  0  0  0
 26 27  1  0  0  0  0
 26 28  1  0  0  0  0
 28 29  1  0  0  0  0
 28 30  1  0  0  0  0
 28 31  1  0  0  0  0
M  END
$$$$

  -OEChem-03222214063D

 31 30  0     1  0  0  0  0  0999 V2000
   -3.3662   -3.8840    1.1288 H   0  0  0  0  0  0  0  0  0  0  0  0
   -3.2977   -2.9005    0.6554 C   0  0  0  0  0  0  0  0  0  0  0  0
   -4.0091   -2.2265    1.1386 H   0  0  0  0  0  0  0  0  0  0  0  0
   -3.5588   -2.9986   -0.4010 H   0  0  0  0  0  0  0  0  0  0  0  0
   -1.8898   -2.3520    0.7910 C   0  0  0  0  0  0  0  0  0  0  0  0
   -1.0273   -3.0117    1.3491 O   0  0  0  0  0  0  0  0  0  0  0  0
   -1.5895   -1.1045    0.2868 N   0  0  0  0  0  0  0  0  0  0  0  0
   -2.3593   -0.5440   -0.0779 H   0  0  0  0  0  0  0  0  0  0  0  0
   -0.2959   -0.4249    0.4554 C   0  0  1  0  0  0  0  0  0  0  0  0
    0.2962   -0.8640    1.2648 H   0  0  0  0  0  0  0  0  0  0  0  0
    0.4394   -0.6407   -0.8977 C   0  0  0  0  0  0  0  0  0  0  0  0
    0.6628   -1.7103   -0.9742 H   0  0  0  0  0  0  0  0  0  0  0  0
   -0.2984   -0.4277   -1.6796 H   0  0  0  0  0  0  0  0  0  0  0  0
    1.7040    0.1747   -1.3128 C   0  0  0  0  0  0  0  0  0  0  0  0
    1.5764    0.4621   -2.3624 H   0  0  0  0  0  0  0  0  0  0  0  0
    2.0376    1.4501   -0.5331 C   0  0  0  0  0  0  0  0  0  0  0  0
    2.2213    1.2267    0.5211 H   0  0  0  0  0  0  0  0  0  0  0  0
    2.9416    1.9137   -0.9403 H   0  0  0  0  0  0  0  0  0  0  0  0
    1.2294    2.1809   -0.6249 H   0  0  0  0  0  0  0  0  0  0  0  0
    2.9313   -0.7458   -1.2284 C   0  0  0  0  0  0  0  0  0  0  0  0
    2.8017   -1.6200   -1.8745 H   0  0  0  0  0  0  0  0  0  0  0  0
    3.8328   -0.2176   -1.5545 H   0  0  0  0  0  0  0  0  0  0  0  0
    3.0827   -1.0915   -0.2007 H   0  0  0  0  0  0  0  0  0  0  0  0
   -0.6408    1.0315    0.8415 C   0  0  0  0  0  0  0  0  0  0  0  0
   -1.5347    1.6279    0.2485 O   0  0  0  0  0  0  0  0  0  0  0  0
    0.0228    1.6710    1.8737 N   0  0  0  0  0  0  0  0  0  0  0  0
    0.7338    1.1442    2.3731 H   0  0  0  0  0  0  0  0  0  0  0  0
   -0.2734    3.0340    2.2965 C   0  0  0  0  0  0  0  0  0  0  0  0
   -1.3172    3.1177    2.6166 H   0  0  0  0  0  0  0  0  0  0  0  0
    0.3690    3.3174    3.1357 H   0  0  0  0  0  0  0  0  0  0  0  0
   -0.0988    3.7362    1.4746 H   0  0  0  0  0  0  0  0  0  0  0  0
  1  2  1  0  0  0  0
  2  3  1  0  0  0  0
  2  4  1  0  0  0  0
  2  5  1  0  0  0  0
  5  6  2  0  0  0  0
  5  7  1  0  0  0  0
  7  8  1  0  0  0  0
  7  9  1  0  0  0  0
  9 10  1  0  0  0  0
  9 11  1  0  0  0  0
  9 24  1  0  0  0  0
 11 12  1  0  0  0  0
 11 13  1  0  0  0  0
 11 14  1  0  0  0  0
 14 15  1  0  0  0  0
 14 16  1  0  0  0  0
 14 20  1  0  0  0  0
 16 17  1  0  0  0  0
 16 18  1  0  0  0  0
 16 19  1  0  0  0  0
 20 21  1  0  0  0  0
 20 22  1  0  0  0  0
 20 23  1  0  0  0  0
 24 25  2  0  0  0  0
 24 26  1  0  0  0  0
 26 27  1  0  0  0  0
 26 28  1  0  0  0  0
 28 29  1  0  0  0  0
 28 30  1  0  0  0  0
 28 31  1  0  0  0  0
M  END
$$$$

  -OEChem-03222214063D

 31 30  0     1  0  0  0  0  0999 V2000
   -3.3721   -3.8779    1.1193 H   0  0  0  0  0  0  0  0  0  0  0  0
   -3.2971   -2.8957    0.6445 C   0  0  0  0  0  0  0  0  0  0  0  0
   -4.0100   -2.2185    1.1210 H   0  0  0  0  0  0  0  0  0  0  0  0
   -3.5506   -2.9953   -0.4136 H   0  0  0  0  0  0  0  0  0  0  0  0
   -1.8888   -2.3507    0.7898 C   0  0  0  0  0  0  0  0  0  0  0  0
   -1.0336   -3.0094    1.3605 O   0  0  0  0  0  0  0  0  0  0  0  0
   -1.5797   -1.1074    0.2806 N   0  0  0  0  0  0  0  0  0  0  0  0
   -2.3440   -0.5464   -0.0945 H   0  0  0  0  0  0  0  0  0  0  0  0
   -0.2848   -0.4324    0.4560 C   0  0  1  0  0  0  0  0  0  0  0  0
    0.3038   -0.8716    1.2680 H   0  0  0  0  0  0  0  0  0  0  0  0
    0.4507   -0.6440   -0.8958 C   0  0  0  0  0  0  0  0  0  0  0  0
    0.6870   -1.7123   -0.9508 H   0  0  0  0  0  0  0  0  0  0  0  0
   -0.2799   -0.4512   -1.6896 H   0  0  0  0  0  0  0  0  0  0  0  0
    1.7178    0.1761   -1.2929 C   0  0  0  0  0  0  0  0  0  0  0  0
    1.4822    0.7137   -2.2180 H   0  0  0  0  0  0  0  0  0  0  0  0
    2.2371    1.2194   -0.2976 C   0  0  0  0  0  0  0  0  0  0  0  0
    2.3545    0.7832    0.6988 H   0  0  0  0  0  0  0  0  0  0  0  0
    3.2119    1.6003   -0.6182 H   0  0  0  0  0  0  0  0  0  0  0  0
    1.5599    2.0760   -0.2528 H   0  0  0  0  0  0  0  0  0  0  0  0
    2.8642   -0.7978   -1.6050 C   0  0  0  0  0  0  0  0  0  0  0  0
    2.5614   -1.5103   -2.3790 H   0  0  0  0  0  0  0  0  0  0  0  0
    3.7423   -0.2565   -1.9707 H   0  0  0  0  0  0  0  0  0  0  0  0
    3.1487   -1.3575   -0.7081 H   0  0  0  0  0  0  0  0  0  0  0  0
   -0.6232    1.0288    0.8309 C   0  0  0  0  0  0  0  0  0  0  0  0
   -1.5079    1.6276    0.2269 O   0  0  0  0  0  0  0  0  0  0  0  0
    0.0361    1.6706    1.8647 N   0  0  0  0  0  0  0  0  0  0  0  0
    0.7381    1.1414    2.3740 H   0  0  0  0  0  0  0  0  0  0  0  0
   -0.2610    3.0349    2.2828 C   0  0  0  0  0  0  0  0  0  0  0  0
   -1.3032    3.1171    2.6084 H   0  0  0  0  0  0  0  0  0  0  0  0
    0.3859    3.3241    3.1166 H   0  0  0  0  0  0  0  0  0  0  0  0
   -0.0929    3.7337    1.4566 H   0  0  0  0  0  0  0  0  0  0  0  0
  1  2  1  0  0  0  0
  2  3  1  0  0  0  0
  2  4  1  0  0  0  0
  2  5  1  0  0  0  0
  5  6  2  0  0  0  0
  5  7  1  0  0  0  0
  7  8  1  0  0  0  0
  7  9  1  0  0  0  0
  9 10  1  0  0  0  0
  9 11  1  0  0  0  0
  9 24  1  0  0  0  0
 11 12  1  0  0  0  0
 11 13  1  0  0  0  0
 11 14  1  0  0  0  0
 14 15  1  0  0  0  0
 14 16  1  0  0  0  0
 14 20  1  0  0  0  0
 16 17  1  0  0  0  0
 16 18  1  0  0  0  0
 16 19  1  0  0  0  0
 20 21  1  0  0  0  0
 20 22  1  0  0  0  0
 20 23  1  0  0  0  0
 24 25  2  0  0  0  0
 24 26  1  0  0  0  0
 26 27  1  0  0  0  0
 26 28  1  0  0  0  0
 28 29  1  0  0  0  0
 28 30  1  0  0  0  0
 28 31  1  0  0  0  0
M  END
$$$$

  -OEChem-03222214063D

 31 30  0     1  0  0  0  0  0999 V2000
   -3.3848   -3.8723    1.1140 H   0  0  0  0  0  0  0  0  0  0  0  0
   -3.3033   -2.8918    0.6366 C   0  0  0  0  0  0  0  0  0  0  0  0
   -4.0151   -2.2098    1.1079 H   0  0  0  0  0  0  0  0  0  0  0  0
   -3.5531   -2.9939   -0.4222 H   0  0  0  0  0  0  0  0  0  0  0  0
   -1.8930   -2.3534    0.7864 C   0  0  0  0  0  0  0  0  0  0  0  0
   -1.0452   -3.0125    1.3676 O   0  0  0  0  0  0  0  0  0  0  0  0
   -1.5743   -1.1154    0.2702 N   0  0  0  0  0  0  0  0  0  0  0  0
   -2.3324   -0.5542   -0.1166 H   0  0  0  0  0  0  0  0  0  0  0  0
   -0.2772   -0.4463    0.4489 C   0  0  1  0  0  0  0  0  0  0  0  0
    0.3068   -0.8885    1.2625 H   0  0  0  0  0  0  0  0  0  0  0  0
    0.4574   -0.6516   -0.9016 C   0  0  0  0  0  0  0  0  0  0  0  0
    0.7157   -1.7156   -0.9390 H   0  0  0  0  0  0  0  0  0  0  0  0
   -0.2637   -0.4776   -1.7082 H   0  0  0  0  0  0  0  0  0  0  0  0
    1.7223    0.1777   -1.2699 C   0  0  0  0  0  0  0  0  0  0  0  0
    1.4144    0.9355   -1.9992 H   0  0  0  0  0  0  0  0  0  0  0  0
    2.4186    0.9313   -0.1292 C   0  0  0  0  0  0  0  0  0  0  0  0
    2.4717    0.3147    0.7730 H   0  0  0  0  0  0  0  0  0  0  0  0
    3.4395    1.2028   -0.4160 H   0  0  0  0  0  0  0  0  0  0  0  0
    1.8939    1.8635    0.0889 H   0  0  0  0  0  0  0  0  0  0  0  0
    2.7402   -0.7410   -1.9607 C   0  0  0  0  0  0  0  0  0  0  0  0
    2.2755   -1.2565   -2.8073 H   0  0  0  0  0  0  0  0  0  0  0  0
    3.5871   -0.1608   -2.3402 H   0  0  0  0  0  0  0  0  0  0  0  0
    3.1193   -1.4921   -1.2600 H   0  0  0  0  0  0  0  0  0  0  0  0
   -0.5980    1.0217    0.8120 C   0  0  0  0  0  0  0  0  0  0  0  0
   -1.4717    1.6269    0.1989 O   0  0  0  0  0  0  0  0  0  0  0  0
    0.0646    1.6622    1.8441 N   0  0  0  0  0  0  0  0  0  0  0  0
    0.7565    1.1271    2.3612 H   0  0  0  0  0  0  0  0  0  0  0  0
   -0.2144    3.0342    2.2491 C   0  0  0  0  0  0  0  0  0  0  0  0
   -1.2593    3.1373    2.5598 H   0  0  0  0  0  0  0  0  0  0  0  0
    0.4257    3.3176    3.0900 H   0  0  0  0  0  0  0  0  0  0  0  0
   -0.0225    3.7241    1.4206 H   0  0  0  0  0  0  0  0  0  0  0  0
  1  2  1  0  0  0  0
  2  3  1  0  0  0  0
  2  4  1  0  0  0  0
  2  5  1  0  0  0  0
  5  6  2  0  0  0  0
  5  7  1  0  0  0  0
  7  8  1  0  0  0  0
  7  9  1  0  0  0  0
  9 10  1  0  0  0  0
  9 11  1  0  0  0  0
  9 24  1  0  0  0  0
 11 12  1  0  0  0  0
 11 13  1  0  0  0  0
 11 14  1  0  0  0  0
 14 15  1  0  0  0  0
 14 16  1  0  0  0  0
 14 20  1  0  0  0  0
 16 17  1  0  0  0  0
 16 18  1  0  0  0  0
 16 19  1  0  0  0  0
 20 21  1  0  0  0  0
 20 22  1  0  0  0  0
 20 23  1  0  0  0  0
 24 25  2  0  0  0  0
 24 26  1  0  0  0  0
 26 27  1  0  0  0  0
 26 28  1  0  0  0  0
 28 29  1  0  0  0  0
 28 30  1  0  0  0  0
 28 31  1  0  0  0  0
M  END
$$$$

  -OEChem-03222214063D

 31 30  0     1  0  0  0  0  0999 V2000
   -3.4011   -3.8653    1.1199 H   0  0  0  0  0  0  0  0  0  0  0  0
   -3.3123   -2.8878    0.6377 C   0  0  0  0  0  0  0  0  0  0  0  0
   -4.0215   -2.1991    1.1031 H   0  0  0  0  0  0  0  0  0  0  0  0
   -3.5592   -2.9938   -0.4214 H   0  0  0  0  0  0  0  0  0  0  0  0
   -1.8994   -2.3567    0.7886 C   0  0  0  0  0  0  0  0  0  0  0  0
   -1.0575   -3.0171    1.3768 O   0  0  0  0  0  0  0  0  0  0  0  0
   -1.5709   -1.1254    0.2627 N   0  0  0  0  0  0  0  0  0  0  0  0
   -2.3248   -0.5615   -0.1282 H   0  0  0  0  0  0  0  0  0  0  0  0
   -0.2677   -0.4666    0.4341 C   0  0  1  0  0  0  0  0  0  0  0  0
    0.3177   -0.9138    1.2440 H   0  0  0  0  0  0  0  0  0  0  0  0
    0.4555   -0.6587   -0.9214 C   0  0  0  0  0  0  0  0  0  0  0  0
    0.7262   -1.7189   -0.9722 H   0  0  0  0  0  0  0  0  0  0  0  0
   -0.2636   -0.4751   -1.7276 H   0  0  0  0  0  0  0  0  0  0  0  0
    1.7153    0.1839   -1.2526 C   0  0  0  0  0  0  0  0  0  0  0  0
    1.3785    1.1092   -1.7333 H   0  0  0  0  0  0  0  0  0  0  0  0
    2.5748    0.5969   -0.0485 C   0  0  0  0  0  0  0  0  0  0  0  0
    2.6276   -0.2108    0.6879 H   0  0  0  0  0  0  0  0  0  0  0  0
    3.5945    0.8317   -0.3696 H   0  0  0  0  0  0  0  0  0  0  0  0
    2.1791    1.4961    0.4232 H   0  0  0  0  0  0  0  0  0  0  0  0
    2.5766   -0.5818   -2.2656 C   0  0  0  0  0  0  0  0  0  0  0  0
    1.9791   -0.8627   -3.1388 H   0  0  0  0  0  0  0  0  0  0  0  0
    3.4094    0.0402   -2.6086 H   0  0  0  0  0  0  0  0  0  0  0  0
    2.9854   -1.4920   -1.8150 H   0  0  0  0  0  0  0  0  0  0  0  0
   -0.5657    1.0088    0.7875 C   0  0  0  0  0  0  0  0  0  0  0  0
   -1.4325    1.6201    0.1704 O   0  0  0  0  0  0  0  0  0  0  0  0
    0.1062    1.6523    1.8110 N   0  0  0  0  0  0  0  0  0  0  0  0
    0.7915    1.1142    2.3337 H   0  0  0  0  0  0  0  0  0  0  0  0
   -0.1525    3.0335    2.1987 C   0  0  0  0  0  0  0  0  0  0  0  0
   -1.1996    3.1588    2.4933 H   0  0  0  0  0  0  0  0  0  0  0  0
    0.4804    3.3134    3.0462 H   0  0  0  0  0  0  0  0  0  0  0  0
    0.0636    3.7117    1.3665 H   0  0  0  0  0  0  0  0  0  0  0  0
  1  2  1  0  0  0  0
  2  3  1  0  0  0  0
  2  4  1  0  0  0  0
  2  5  1  0  0  0  0
  5  6  2  0  0  0  0
  5  7  1  0  0  0  0
  7  8  1  0  0  0  0
  7  9  1  0  0  0  0
  9 10  1  0  0  0  0
  9 11  1  0  0  0  0
  9 24  1  0  0  0  0
 11 12  1  0  0  0  0
 11 13  1  0  0  0  0
 11 14  1  0  0  0  0
 14 15  1  0  0  0  0
 14 16  1  0  0  0  0
 14 20  1  0  0  0  0
 16 17  1  0  0  0  0
 16 18  1  0  0  0  0
 16 19  1  0  0  0  0
 20 21  1  0  0  0  0
 20 22  1  0  0  0  0
 20 23  1  0  0  0  0
 24 25  2  0  0  0  0
 24 26  1  0  0  0  0
 26 27  1  0  0  0  0
 26 28  1  0  0  0  0
 28 29  1  0  0  0  0
 28 30  1  0  0  0  0
 28 31  1  0  0  0  0
M  END
$$$$

  -OEChem-03222214063D

 31 30  0     1  0  0  0  0  0999 V2000
   -3.4262   -3.8451    1.1725 H   0  0  0  0  0  0  0  0  0  0  0  0
   -3.3309   -2.8750    0.6766 C   0  0  0  0  0  0  0  0  0  0  0  0
   -4.0255   -2.1717    1.1420 H   0  0  0  0  0  0  0  0  0  0  0  0
   -3.5923   -2.9916   -0.3779 H   0  0  0  0  0  0  0  0  0  0  0  0
   -1.9094   -2.3601    0.8034 C   0  0  0  0  0  0  0  0  0  0  0  0
   -1.0690   -3.0247    1.3889 O   0  0  0  0  0  0  0  0  0  0  0  0
   -1.5717   -1.1386    0.2602 N   0  0  0  0  0  0  0  0  0  0  0  0
   -2.3225   -0.5708   -0.1310 H   0  0  0  0  0  0  0  0  0  0  0  0
   -0.2589   -0.4939    0.4089 C   0  0  1  0  0  0  0  0  0  0  0  0
    0.3363   -0.9431    1.2106 H   0  0  0  0  0  0  0  0  0  0  0  0
    0.4478   -0.6705   -0.9552 C   0  0  0  0  0  0  0  0  0  0  0  0
    0.7224   -1.7274   -1.0399 H   0  0  0  0  0  0  0  0  0  0  0  0
   -0.2749   -0.4592   -1.7512 H   0  0  0  0  0  0  0  0  0  0  0  0
    1.7015    0.1896   -1.2392 C   0  0  0  0  0  0  0  0  0  0  0  0
    1.3724    1.2158   -1.4367 H   0  0  0  0  0  0  0  0  0  0  0  0
    2.6982    0.2395   -0.0708 C   0  0  0  0  0  0  0  0  0  0  0  0
    2.9788   -0.7748    0.2304 H   0  0  0  0  0  0  0  0  0  0  0  0
    3.6051    0.7725   -0.3731 H   0  0  0  0  0  0  0  0  0  0  0  0
    2.2902    0.7559    0.7956 H   0  0  0  0  0  0  0  0  0  0  0  0
    2.4054   -0.3350   -2.4960 C   0  0  0  0  0  0  0  0  0  0  0  0
    1.7145   -0.3416   -3.3448 H   0  0  0  0  0  0  0  0  0  0  0  0
    3.2557    0.3044   -2.7526 H   0  0  0  0  0  0  0  0  0  0  0  0
    2.7726   -1.3540   -2.3378 H   0  0  0  0  0  0  0  0  0  0  0  0
   -0.5356    0.9905    0.7500 C   0  0  0  0  0  0  0  0  0  0  0  0
   -1.4013    1.6029    0.1322 O   0  0  0  0  0  0  0  0  0  0  0  0
    0.1516    1.6455    1.7558 N   0  0  0  0  0  0  0  0  0  0  0  0
    0.8323    1.1086    2.2856 H   0  0  0  0  0  0  0  0  0  0  0  0
   -0.0890    3.0363    2.1208 C   0  0  0  0  0  0  0  0  0  0  0  0
   -1.1296    3.1768    2.4313 H   0  0  0  0  0  0  0  0  0  0  0  0
    0.5613    3.3278    2.9512 H   0  0  0  0  0  0  0  0  0  0  0  0
    0.1182    3.6961    1.2716 H   0  0  0  0  0  0  0  0  0  0  0  0
  1  2  1  0  0  0  0
  2  3  1  0  0  0  0
  2  4  1  0  0  0  0
  2  5  1  0  0  0  0
  5  6  2  0  0  0  0
  5  7  1  0  0  0  0
  7  8  1  0  0  0  0
  7  9  1  0  0  0  0
  9 10  1  0  0  0  0
  9 11  1  0  0  0  0
  9 24  1  0  0  0  0
 11 12  1  0  0  0  0
 11 13  1  0  0  0  0
 11 14  1  0  0  0  0
 14 15  1  0  0  0  0
 14 16  1  0  0  0  0
 14 20  1  0  0  0  0
 16 17  1  0  0  0  0
 16 18  1  0  0  0  0
 16 19  1  0  0  0  0
 20 21  1  0  0  0  0
 20 22  1  0  0  0  0
 20 23  1  0  0  0  0
 24 25  2  0  0  0  0
 24 26  1  0  0  0  0
 26 27  1  0  0  0  0
 26 28  1  0  0  0  0
 28 29  1  0  0  0  0
 28 30  1  0  0  0  0
 28 31  1  0  0  0  0
M  END
$$$$

  -OEChem-03222214063D

 31 30  0     1  0  0  0  0  0999 V2000
   -3.4057   -3.8692    1.2270 H   0  0  0  0  0  0  0  0  0  0  0  0
   -3.3329   -2.9036    0.7191 C   0  0  0  0  0  0  0  0  0  0  0  0
   -4.0162   -2.1999    1.2005 H   0  0  0  0  0  0  0  0  0  0  0  0
   -3.6283   -3.0314   -0.3250 H   0  0  0  0  0  0  0  0  0  0  0  0
   -1.9114   -2.3791    0.7941 C   0  0  0  0  0  0  0  0  0  0  0  0
   -1.0454   -3.0387    1.3473 O   0  0  0  0  0  0  0  0  0  0  0  0
   -1.6045   -1.1529    0.2430 N   0  0  0  0  0  0  0  0  0  0  0  0
   -2.3746   -0.5924   -0.1197 H   0  0  0  0  0  0  0  0  0  0  0  0
   -0.2956   -0.4942    0.3509 C   0  0  1  0  0  0  0  0  0  0  0  0
    0.3055   -0.9422    1.1484 H   0  0  0  0  0  0  0  0  0  0  0  0
    0.4224   -0.6805   -1.0034 C   0  0  0  0  0  0  0  0  0  0  0  0
    0.7213   -1.7305   -1.0924 H   0  0  0  0  0  0  0  0  0  0  0  0
   -0.2977   -0.4776   -1.8039 H   0  0  0  0  0  0  0  0  0  0  0  0
    1.6524    0.2235   -1.2399 C   0  0  0  0  0  0  0  0  0  0  0  0
    1.3456    1.2744   -1.2084 H   0  0  0  0  0  0  0  0  0  0  0  0
    2.7420   -0.0073   -0.1823 C   0  0  0  0  0  0  0  0  0  0  0  0
    3.0546   -1.0565   -0.1786 H   0  0  0  0  0  0  0  0  0  0  0  0
    3.6168    0.6140   -0.3985 H   0  0  0  0  0  0  0  0  0  0  0  0
    2.3874    0.2497    0.8178 H   0  0  0  0  0  0  0  0  0  0  0  0
    2.2299   -0.0585   -2.6315 C   0  0  0  0  0  0  0  0  0  0  0  0
    1.4778    0.1336   -3.4033 H   0  0  0  0  0  0  0  0  0  0  0  0
    3.0911    0.5885   -2.8257 H   0  0  0  0  0  0  0  0  0  0  0  0
    2.5532   -1.1012   -2.7125 H   0  0  0  0  0  0  0  0  0  0  0  0
   -0.5282    0.9917    0.7030 C   0  0  0  0  0  0  0  0  0  0  0  0
   -1.4138    1.6219    0.1348 O   0  0  0  0  0  0  0  0  0  0  0  0
    0.2213    1.6161    1.6830 N   0  0  0  0  0  0  0  0  0  0  0  0
    0.9184    1.0589    2.1685 H   0  0  0  0  0  0  0  0  0  0  0  0
    0.0331    3.0080    2.0724 C   0  0  0  0  0  0  0  0  0  0  0  0
   -0.9860    3.1694    2.4392 H   0  0  0  0  0  0  0  0  0  0  0  0
    0.7338    3.2753    2.8692 H   0  0  0  0  0  0  0  0  0  0  0  0
    0.2102    3.6714    1.2193 H   0  0  0  0  0  0  0  0  0  0  0  0
  1  2  1  0  0  0  0
  2  3  1  0  0  0  0
  2  4  1  0  0  0  0
  2  5  1  0  0  0  0
  5  6  2  0  0  0  0
  5  7  1  0  0  0  0
  7  8  1  0  0  0  0
  7  9  1  0  0  0  0
  9 10  1  0  0  0  0
  9 11  1  0  0  0  0
  9 24  1  0  0  0  0
 11 12  1  0  0  0  0
 11 13  1  0  0  0  0
 11 14  1  0  0  0  0
 14 15  1  0  0  0  0
 14 16  1  0  0  0  0
 14 20  1  0  0  0  0
 16 17  1  0  0  0  0
 16 18  1  0  0  0  0
 16 19  1  0  0  0  0
 20 21  1  0  0  0  0
 20 22  1  0  0  0  0
 20 23  1  0  0  0  0
 24 25  2  0  0  0  0
 24 26  1  0  0  0  0
 26 27  1  0  0  0  0
 26 28  1  0  0  0  0
 28 29  1  0  0  0  0
 28 30  1  0  0  0  0
 28 31  1  0  0  0  0
M  END
$$$$

  -OEChem-03222214063D

 31 30  0     1  0  0  0  0  0999 V2000
   -3.3835   -3.8858    1.2354 H   0  0  0  0  0  0  0  0  0  0  0  0
   -3.3233   -2.9188    0.7282 C   0  0  0  0  0  0  0  0  0  0  0  0
   -4.0064   -2.2210    1.2183 H   0  0  0  0  0  0  0  0  0  0  0  0
   -3.6292   -3.0473   -0.3129 H   0  0  0  0  0  0  0  0  0  0  0  0
   -1.9049   -2.3843    0.7884 C   0  0  0  0  0  0  0  0  0  0  0  0
   -1.0260   -3.0432    1.3217 O   0  0  0  0  0  0  0  0  0  0  0  0
   -1.6143   -1.1521    0.2418 N   0  0  0  0  0  0  0  0  0  0  0  0
   -2.3934   -0.5961   -0.1080 H   0  0  0  0  0  0  0  0  0  0  0  0
   -0.3092   -0.4837    0.3329 C   0  0  1  0  0  0  0  0  0  0  0  0
    0.2988   -0.9296    1.1265 H   0  0  0  0  0  0  0  0  0  0  0  0
    0.4117   -0.6785   -1.0185 C   0  0  0  0  0  0  0  0  0  0  0  0
    0.7129   -1.7271   -1.1156 H   0  0  0  0  0  0  0  0  0  0  0  0
   -0.3151   -0.4758   -1.8128 H   0  0  0  0  0  0  0  0  0  0  0  0
    1.6315    0.2421   -1.2497 C   0  0  0  0  0  0  0  0  0  0  0  0
    1.3945    1.2791   -0.9940 H   0  0  0  0  0  0  0  0  0  0  0  0
    2.8273   -0.2328   -0.4149 C   0  0  0  0  0  0  0  0  0  0  0  0
    3.0957   -1.2626   -0.6722 H   0  0  0  0  0  0  0  0  0  0  0  0
    3.6961    0.4076   -0.5968 H   0  0  0  0  0  0  0  0  0  0  0  0
    2.5920   -0.1921    0.6524 H   0  0  0  0  0  0  0  0  0  0  0  0
    2.0205    0.2074   -2.7322 C   0  0  0  0  0  0  0  0  0  0  0  0
    1.1991    0.5825   -3.3508 H   0  0  0  0  0  0  0  0  0  0  0  0
    2.8973    0.8375   -2.9114 H   0  0  0  0  0  0  0  0  0  0  0  0
    2.2557   -0.8142   -3.0476 H   0  0  0  0  0  0  0  0  0  0  0  0
   -0.5335    0.9988    0.6983 C   0  0  0  0  0  0  0  0  0  0  0  0
   -1.4294    1.6345    0.1533 O   0  0  0  0  0  0  0  0  0  0  0  0
    0.2394    1.6093    1.6692 N   0  0  0  0  0  0  0  0  0  0  0  0
    0.9499    1.0467    2.1286 H   0  0  0  0  0  0  0  0  0  0  0  0
    0.0666    2.9987    2.0740 C   0  0  0  0  0  0  0  0  0  0  0  0
   -0.9448    3.1626    2.4604 H   0  0  0  0  0  0  0  0  0  0  0  0
    0.7826    3.2555    2.8604 H   0  0  0  0  0  0  0  0  0  0  0  0
    0.2323    3.6683    1.2234 H   0  0  0  0  0  0  0  0  0  0  0  0
  1  2  1  0  0  0  0
  2  3  1  0  0  0  0
  2  4  1  0  0  0  0
  2  5  1  0  0  0  0
  5  6  2  0  0  0  0
  5  7  1  0  0  0  0
  7  8  1  0  0  0  0
  7  9  1  0  0  0  0
  9 10  1  0  0  0  0
  9 11  1  0  0  0  0
  9 24  1  0  0  0  0
 11 12  1  0  0  0  0
 11 13  1  0  0  0  0
 11 14  1  0  0  0  0
 14 15  1  0  0  0  0
 14 16  1  0  0  0  0
 14 20  1  0  0  0  0
 16 17  1  0  0  0  0
 16 18  1  0  0  0  0
 16 19  1  0  0  0  0
 20 21  1  0  0  0  0
 20 22  1  0  0  0  0
 20 23  1  0  0  0  0
 24 25  2  0  0  0  0
 24 26  1  0  0  0  0
 26 27  1  0  0  0  0
 26 28  1  0  0  0  0
 28 29  1  0  0  0  0
 28 30  1  0  0  0  0
 28 31  1  0  0  0  0
M  END
$$$$

  -OEChem-03222214063D

 31 30  0     1  0  0  0  0  0999 V2000
   -3.3754   -3.8806    1.2384 H   0  0  0  0  0  0  0  0  0  0  0  0
   -3.3169   -2.9109    0.7363 C   0  0  0  0  0  0  0  0  0  0  0  0
   -3.9947   -2.2144    1.2357 H   0  0  0  0  0  0  0  0  0  0  0  0
   -3.6312   -3.0328   -0.3030 H   0  0  0  0  0  0  0  0  0  0  0  0
   -1.8970   -2.3793    0.7887 C   0  0  0  0  0  0  0  0  0  0  0  0
   -1.0166   -3.0393    1.3182 O   0  0  0  0  0  0  0  0  0  0  0  0
   -1.6071   -1.1465    0.2433 N   0  0  0  0  0  0  0  0  0  0  0  0
   -2.3866   -0.5885   -0.1028 H   0  0  0  0  0  0  0  0  0  0  0  0
   -0.3012   -0.4791    0.3347 C   0  0  1  0  0  0  0  0  0  0  0  0
    0.3104   -0.9231    1.1269 H   0  0  0  0  0  0  0  0  0  0  0  0
    0.4160   -0.6758   -1.0190 C   0  0  0  0  0  0  0  0  0  0  0  0
    0.7040   -1.7270   -1.1255 H   0  0  0  0  0  0  0  0  0  0  0  0
   -0.3197   -0.4675   -1.8038 H   0  0  0  0  0  0  0  0  0  0  0  0
    1.6414    0.2405   -1.2615 C   0  0  0  0  0  0  0  0  0  0  0  0
    1.5236    1.2116   -0.7744 H   0  0  0  0  0  0  0  0  0  0  0  0
    2.9133   -0.4393   -0.7397 C   0  0  0  0  0  0  0  0  0  0  0  0
    3.0901   -1.3872   -1.2584 H   0  0  0  0  0  0  0  0  0  0  0  0
    3.7825    0.2076   -0.8952 H   0  0  0  0  0  0  0  0  0  0  0  0
    2.8239   -0.6419    0.3320 H   0  0  0  0  0  0  0  0  0  0  0  0
    1.8053    0.4964   -2.7647 C   0  0  0  0  0  0  0  0  0  0  0  0
    0.9321    1.0264   -3.1582 H   0  0  0  0  0  0  0  0  0  0  0  0
    2.6905    1.1118   -2.9534 H   0  0  0  0  0  0  0  0  0  0  0  0
    1.9148   -0.4472   -3.3089 H   0  0  0  0  0  0  0  0  0  0  0  0
   -0.5380    1.0011    0.7028 C   0  0  0  0  0  0  0  0  0  0  0  0
   -1.4394    1.6310    0.1598 O   0  0  0  0  0  0  0  0  0  0  0  0
    0.2289    1.6147    1.6764 N   0  0  0  0  0  0  0  0  0  0  0  0
    0.9407    1.0550    2.1370 H   0  0  0  0  0  0  0  0  0  0  0  0
    0.0370    2.9978    2.0941 C   0  0  0  0  0  0  0  0  0  0  0  0
   -0.9770    3.1447    2.4809 H   0  0  0  0  0  0  0  0  0  0  0  0
    0.7487    3.2564    2.8840 H   0  0  0  0  0  0  0  0  0  0  0  0
    0.1946    3.6774    1.2501 H   0  0  0  0  0  0  0  0  0  0  0  0
  1  2  1  0  0  0  0
  2  3  1  0  0  0  0
  2  4  1  0  0  0  0
  2  5  1  0  0  0  0
  5  6  2  0  0  0  0
  5  7  1  0  0  0  0
  7  8  1  0  0  0  0
  7  9  1  0  0  0  0
  9 10  1  0  0  0  0
  9 11  1  0  0  0  0
  9 24  1  0  0  0  0
 11 12  1  0  0  0  0
 11 13  1  0  0  0  0
 11 14  1  0  0  0  0
 14 15  1  0  0  0  0
 14 16  1  0  0  0  0
 14 20  1  0  0  0  0
 16 17  1  0  0  0  0
 16 18  1  0  0  0  0
 16 19  1  0  0  0  0
 20 21  1  0  0  0  0
 20 22  1  0  0  0  0
 20 23  1  0  0  0  0
 24 25  2  0  0  0  0
 24 26  1  0  0  0  0
 26 27  1  0  0  0  0
 26 28  1  0  0  0  0
 28 29  1  0  0  0  0
 28 30  1  0  0  0  0
 28 31  1  0  0  0  0
M  END
$$$$

  -OEChem-03222214063D

 31 30  0     1  0  0  0  0  0999 V2000
   -3.3791   -3.8795    1.2426 H   0  0  0  0  0  0  0  0  0  0  0  0
   -3.3175   -2.9111    0.7382 C   0  0  0  0  0  0  0  0  0  0  0  0
   -3.9970   -2.2126    1.2325 H   0  0  0  0  0  0  0  0  0  0  0  0
   -3.6269   -3.0356   -0.3024 H   0  0  0  0  0  0  0  0  0  0  0  0
   -1.8975   -2.3807    0.7961 C   0  0  0  0  0  0  0  0  0  0  0  0
   -1.0215   -3.0381    1.3359 O   0  0  0  0  0  0  0  0  0  0  0  0
   -1.6027   -1.1511    0.2462 N   0  0  0  0  0  0  0  0  0  0  0  0
   -2.3789   -0.5936   -0.1081 H   0  0  0  0  0  0  0  0  0  0  0  0
   -0.2952   -0.4870    0.3402 C   0  0  1  0  0  0  0  0  0  0  0  0
    0.3177   -0.9294    1.1324 H   0  0  0  0  0  0  0  0  0  0  0  0
    0.4166   -0.6831   -1.0165 C   0  0  0  0  0  0  0  0  0  0  0  0
    0.6998   -1.7362   -1.1178 H   0  0  0  0  0  0  0  0  0  0  0  0
   -0.3215   -0.4823   -1.8011 H   0  0  0  0  0  0  0  0  0  0  0  0
    1.6476    0.2300   -1.2630 C   0  0  0  0  0  0  0  0  0  0  0  0
    1.6782    1.0623   -0.5564 H   0  0  0  0  0  0  0  0  0  0  0  0
    2.9401   -0.5798   -1.1054 C   0  0  0  0  0  0  0  0  0  0  0  0
    2.9819   -1.3933   -1.8369 H   0  0  0  0  0  0  0  0  0  0  0  0
    3.8137    0.0630   -1.2525 H   0  0  0  0  0  0  0  0  0  0  0  0
    2.9968   -1.0118   -0.1013 H   0  0  0  0  0  0  0  0  0  0  0  0
    1.5953    0.8236   -2.6760 C   0  0  0  0  0  0  0  0  0  0  0  0
    0.7028    1.4468   -2.7926 H   0  0  0  0  0  0  0  0  0  0  0  0
    2.4745    1.4486   -2.8610 H   0  0  0  0  0  0  0  0  0  0  0  0
    1.5679    0.0298   -3.4293 H   0  0  0  0  0  0  0  0  0  0  0  0
   -0.5372    0.9948    0.7012 C   0  0  0  0  0  0  0  0  0  0  0  0
   -1.4338    1.6223    0.1474 O   0  0  0  0  0  0  0  0  0  0  0  0
    0.2229    1.6145    1.6766 N   0  0  0  0  0  0  0  0  0  0  0  0
    0.9300    1.0570    2.1474 H   0  0  0  0  0  0  0  0  0  0  0  0
    0.0267    2.9996    2.0856 C   0  0  0  0  0  0  0  0  0  0  0  0
   -0.9889    3.1460    2.4681 H   0  0  0  0  0  0  0  0  0  0  0  0
    0.7351    3.2644    2.8763 H   0  0  0  0  0  0  0  0  0  0  0  0
    0.1856    3.6749    1.2384 H   0  0  0  0  0  0  0  0  0  0  0  0
  1  2  1  0  0  0  0
  2  3  1  0  0  0  0
  2  4  1  0  0  0  0
  2  5  1  0  0  0  0
  5  6  2  0  0  0  0
  5  7  1  0  0  0  0
  7  8  1  0  0  0  0
  7  9  1  0  0  0  0
  9 10  1  0  0  0  0
  9 11  1  0  0  0  0
  9 24  1  0  0  0  0
 11 12  1  0  0  0  0
 11 13  1  0  0  0  0
 11 14  1  0  0  0  0
 14 15  1  0  0  0  0
 14 16  1  0  0  0  0
 14 20  1  0  0  0  0
 16 17  1  0  0  0  0
 16 18  1  0  0  0  0
 16 19  1  0  0  0  0
 20 21  1  0  0  0  0
 20 22  1  0  0  0  0
 20 23  1  0  0  0  0
 24 25  2  0  0  0  0
 24 26  1  0  0  0  0
 26 27  1  0  0  0  0
 26 28  1  0  0  0  0
 28 29  1  0  0  0  0
 28 30  1  0  0  0  0
 28 31  1  0  0  0  0
M  END
$$$$

  -OEChem-03222214063D

 31 30  0     1  0  0  0  0  0999 V2000
   -3.3932   -3.8793    1.2532 H   0  0  0  0  0  0  0  0  0  0  0  0
   -3.3254   -2.9153    0.7414 C   0  0  0  0  0  0  0  0  0  0  0  0
   -4.0050   -2.2105    1.2264 H   0  0  0  0  0  0  0  0  0  0  0  0
   -3.6297   -3.0467   -0.2998 H   0  0  0  0  0  0  0  0  0  0  0  0
   -1.9035   -2.3897    0.8021 C   0  0  0  0  0  0  0  0  0  0  0  0
   -1.0312   -3.0478    1.3470 O   0  0  0  0  0  0  0  0  0  0  0  0
   -1.6028   -1.1648    0.2451 N   0  0  0  0  0  0  0  0  0  0  0  0
   -2.3768   -0.6064   -0.1125 H   0  0  0  0  0  0  0  0  0  0  0  0
   -0.2936   -0.5041    0.3369 C   0  0  1  0  0  0  0  0  0  0  0  0
    0.3216   -0.9449    1.1283 H   0  0  0  0  0  0  0  0  0  0  0  0
    0.4115   -0.6976   -1.0225 C   0  0  0  0  0  0  0  0  0  0  0  0
    0.7043   -1.7499   -1.1048 H   0  0  0  0  0  0  0  0  0  0  0  0
   -0.3203   -0.5156   -1.8174 H   0  0  0  0  0  0  0  0  0  0  0  0
    1.6417    0.2186   -1.2583 C   0  0  0  0  0  0  0  0  0  0  0  0
    1.8318    0.8419   -0.3808 H   0  0  0  0  0  0  0  0  0  0  0  0
    2.9000   -0.6277   -1.4819 C   0  0  0  0  0  0  0  0  0  0  0  0
    2.7876   -1.2606   -2.3682 H   0  0  0  0  0  0  0  0  0  0  0  0
    3.7724    0.0176   -1.6249 H   0  0  0  0  0  0  0  0  0  0  0  0
    3.0861   -1.2703   -0.6156 H   0  0  0  0  0  0  0  0  0  0  0  0
    1.4118    1.1453   -2.4575 C   0  0  0  0  0  0  0  0  0  0  0  0
    0.5337    1.7765   -2.2864 H   0  0  0  0  0  0  0  0  0  0  0  0
    2.2781    1.7968   -2.6075 H   0  0  0  0  0  0  0  0  0  0  0  0
    1.2515    0.5645   -3.3714 H   0  0  0  0  0  0  0  0  0  0  0  0
   -0.5322    0.9817    0.6879 C   0  0  0  0  0  0  0  0  0  0  0  0
   -1.4262    1.6074    0.1276 O   0  0  0  0  0  0  0  0  0  0  0  0
    0.2260    1.6089    1.6601 N   0  0  0  0  0  0  0  0  0  0  0  0
    0.9304    1.0545    2.1386 H   0  0  0  0  0  0  0  0  0  0  0  0
    0.0377    3.0011    2.0493 C   0  0  0  0  0  0  0  0  0  0  0  0
   -0.9764    3.1596    2.4310 H   0  0  0  0  0  0  0  0  0  0  0  0
    0.7488    3.2736    2.8349 H   0  0  0  0  0  0  0  0  0  0  0  0
    0.1993    3.6632    1.1921 H   0  0  0  0  0  0  0  0  0  0  0  0
  1  2  1  0  0  0  0
  2  3  1  0  0  0  0
  2  4  1  0  0  0  0
  2  5  1  0  0  0  0
  5  6  2  0  0  0  0
  5  7  1  0  0  0  0
  7  8  1  0  0  0  0
  7  9  1  0  0  0  0
  9 10  1  0  0  0  0
  9 11  1  0  0  0  0
  9 24  1  0  0  0  0
 11 12  1  0  0  0  0
 11 13  1  0  0  0  0
 11 14  1  0  0  0  0
 14 15  1  0  0  0  0
 14 16  1  0  0  0  0
 14 20  1  0  0  0  0
 16 17  1  0  0  0  0
 16 18  1  0  0  0  0
 16 19  1  0  0  0  0
 20 21  1  0  0  0  0
 20 22  1  0  0  0  0
 20 23  1  0  0  0  0
 24 25  2  0  0  0  0
 24 26  1  0  0  0  0
 26 27  1  0  0  0  0
 26 28  1  0  0  0  0
 28 29  1  0  0  0  0
 28 30  1  0  0  0  0
 28 31  1  0  0  0  0
M  END
$$$$

  -OEChem-03222214063D

 31 30  0     1  0  0  0  0  0999 V2000
   -3.3885   -3.8820    1.2628 H   0  0  0  0  0  0  0  0  0  0  0  0
   -3.3293   -2.9171    0.7514 C   0  0  0  0  0  0  0  0  0  0  0  0
   -4.0020   -2.2136    1.2479 H   0  0  0  0  0  0  0  0  0  0  0  0
   -3.6498   -3.0472   -0.2851 H   0  0  0  0  0  0  0  0  0  0  0  0
   -1.9070   -2.3908    0.7904 C   0  0  0  0  0  0  0  0  0  0  0  0
   -1.0257   -3.0515    1.3176 O   0  0  0  0  0  0  0  0  0  0  0  0
   -1.6154   -1.1630    0.2345 N   0  0  0  0  0  0  0  0  0  0  0  0
   -2.3951   -0.6026   -0.1072 H   0  0  0  0  0  0  0  0  0  0  0  0
   -0.3075   -0.4992    0.3186 C   0  0  1  0  0  0  0  0  0  0  0  0
    0.3052   -0.9399    1.1115 H   0  0  0  0  0  0  0  0  0  0  0  0
    0.4066   -0.6985   -1.0350 C   0  0  0  0  0  0  0  0  0  0  0  0
    0.7147   -1.7481   -1.0912 H   0  0  0  0  0  0  0  0  0  0  0  0
   -0.3115   -0.5376   -1.8464 H   0  0  0  0  0  0  0  0  0  0  0  0
    1.6305    0.2248   -1.2601 C   0  0  0  0  0  0  0  0  0  0  0  0
    1.9649    0.6377   -0.3035 H   0  0  0  0  0  0  0  0  0  0  0  0
    2.8028   -0.5822   -1.8304 C   0  0  0  0  0  0  0  0  0  0  0  0
    2.5299   -1.0327   -2.7903 H   0  0  0  0  0  0  0  0  0  0  0  0
    3.6724    0.0643   -1.9843 H   0  0  0  0  0  0  0  0  0  0  0  0
    3.0896   -1.3810   -1.1391 H   0  0  0  0  0  0  0  0  0  0  0  0
    1.2931    1.3853   -2.2062 C   0  0  0  0  0  0  0  0  0  0  0  0
    0.4738    1.9881   -1.8042 H   0  0  0  0  0  0  0  0  0  0  0  0
    2.1634    2.0364   -2.3339 H   0  0  0  0  0  0  0  0  0  0  0  0
    0.9952    1.0080   -3.1896 H   0  0  0  0  0  0  0  0  0  0  0  0
   -0.5365    0.9858    0.6759 C   0  0  0  0  0  0  0  0  0  0  0  0
   -1.4547    1.6075    0.1513 O   0  0  0  0  0  0  0  0  0  0  0  0
    0.2345    1.6055    1.6426 N   0  0  0  0  0  0  0  0  0  0  0  0
    0.9519    1.0506    2.1005 H   0  0  0  0  0  0  0  0  0  0  0  0
    0.0410    2.9899    2.0553 C   0  0  0  0  0  0  0  0  0  0  0  0
   -0.9676    3.1331    2.4571 H   0  0  0  0  0  0  0  0  0  0  0  0
    0.7636    3.2578    2.8322 H   0  0  0  0  0  0  0  0  0  0  0  0
    0.1815    3.6654    1.2049 H   0  0  0  0  0  0  0  0  0  0  0  0
  1  2  1  0  0  0  0
  2  3  1  0  0  0  0
  2  4  1  0  0  0  0
  2  5  1  0  0  0  0
  5  6  2  0  0  0  0
  5  7  1  0  0  0  0
  7  8  1  0  0  0  0
  7  9  1  0  0  0  0
  9 10  1  0  0  0  0
  9 11  1  0  0  0  0
  9 24  1  0  0  0  0
 11 12  1  0  0  0  0
 11 13  1  0  0  0  0
 11 14  1  0  0  0  0
 14 15  1  0  0  0  0
 14 16  1  0  0  0  0
 14 20  1  0  0  0  0
 16 17  1  0  0  0  0
 16 18  1  0  0  0  0
 16 19  1  0  0  0  0
 20 21  1  0  0  0  0
 20 22  1  0  0  0  0
 20 23  1  0  0  0  0
 24 25  2  0  0  0  0
 24 26  1  0  0  0  0
 26 27  1  0  0  0  0
 26 28  1  0  0  0  0
 28 29  1  0  0  0  0
 28 30  1  0  0  0  0
 28 31  1  0  0  0  0
M  END
$$$$

  -OEChem-03222214063D

 31 30  0     1  0  0  0  0  0999 V2000
   -3.3634   -3.8952    1.2350 H   0  0  0  0  0  0  0  0  0  0  0  0
   -3.3183   -2.9208    0.7404 C   0  0  0  0  0  0  0  0  0  0  0  0
   -3.9886   -2.2311    1.2590 H   0  0  0  0  0  0  0  0  0  0  0  0
   -3.6522   -3.0344   -0.2938 H   0  0  0  0  0  0  0  0  0  0  0  0
   -1.8993   -2.3852    0.7700 C   0  0  0  0  0  0  0  0  0  0  0  0
   -1.0067   -3.0479    1.2754 O   0  0  0  0  0  0  0  0  0  0  0  0
   -1.6241   -1.1457    0.2322 N   0  0  0  0  0  0  0  0  0  0  0  0
   -2.4133   -0.5842   -0.0855 H   0  0  0  0  0  0  0  0  0  0  0  0
   -0.3226   -0.4693    0.3180 C   0  0  1  0  0  0  0  0  0  0  0  0
    0.2866   -0.9106    1.1134 H   0  0  0  0  0  0  0  0  0  0  0  0
    0.4101   -0.6795   -1.0253 C   0  0  0  0  0  0  0  0  0  0  0  0
    0.7305   -1.7265   -1.0546 H   0  0  0  0  0  0  0  0  0  0  0  0
   -0.3002   -0.5411   -1.8477 H   0  0  0  0  0  0  0  0  0  0  0  0
    1.6302    0.2429   -1.2700 C   0  0  0  0  0  0  0  0  0  0  0  0
    2.1116    0.4761   -0.3147 H   0  0  0  0  0  0  0  0  0  0  0  0
    2.6492   -0.4920   -2.1508 C   0  0  0  0  0  0  0  0  0  0  0  0
    2.2029   -0.7660   -3.1124 H   0  0  0  0  0  0  0  0  0  0  0  0
    3.5206    0.1427   -2.3399 H   0  0  0  0  0  0  0  0  0  0  0  0
    2.9955   -1.4045   -1.6551 H   0  0  0  0  0  0  0  0  0  0  0  0
    1.2509    1.5525   -1.9826 C   0  0  0  0  0  0  0  0  0  0  0  0
    0.5902    2.1683   -1.3699 H   0  0  0  0  0  0  0  0  0  0  0  0
    2.1489    2.1412   -2.1946 H   0  0  0  0  0  0  0  0  0  0  0  0
    0.7449    1.3432   -2.9304 H   0  0  0  0  0  0  0  0  0  0  0  0
   -0.5560    1.0066    0.6999 C   0  0  0  0  0  0  0  0  0  0  0  0
   -1.5001    1.6233    0.2164 O   0  0  0  0  0  0  0  0  0  0  0  0
    0.2223    1.6117    1.6700 N   0  0  0  0  0  0  0  0  0  0  0  0
    0.9556    1.0551    2.0998 H   0  0  0  0  0  0  0  0  0  0  0  0
    0.0126    2.9792    2.1287 C   0  0  0  0  0  0  0  0  0  0  0  0
   -0.9914    3.0932    2.5506 H   0  0  0  0  0  0  0  0  0  0  0  0
    0.7433    3.2345    2.9021 H   0  0  0  0  0  0  0  0  0  0  0  0
    0.1279    3.6830    1.2979 H   0  0  0  0  0  0  0  0  0  0  0  0
  1  2  1  0  0  0  0
  2  3  1  0  0  0  0
  2  4  1  0  0  0  0
  2  5  1  0  0  0  0
  5  6  2  0  0  0  0
  5  7  1  0  0  0  0
  7  8  1  0  0  0  0
  7  9  1  0  0  0  0
  9 10  1  0  0  0  0
  9 11  1  0  0  0  0
  9 24  1  0  0  0  0
 11 12  1  0  0  0  0
 11 13  1  0  0  0  0
 11 14  1  0  0  0  0
 14 15  1  0  0  0  0
 14 16  1  0  0  0  0
 14 20  1  0  0  0  0
 16 17  1  0  0  0  0
 16 18  1  0  0  0  0
 16 19  1  0  0  0  0
 20 21  1  0  0  0  0
 20 22  1  0  0  0  0
 20 23  1  0  0  0  0
 24 25  2  0  0  0  0
 24 26  1  0  0  0  0
 26 27  1  0  0  0  0
 26 28  1  0  0  0  0
 28 29  1  0  0  0  0
 28 30  1  0  0  0  0
 28 31  1  0  0  0  0
M  END
$$$$

  -OEChem-03222214063D

 31 30  0     1  0  0  0  0  0999 V2000
   -3.3391   -3.9084    1.1821 H   0  0  0  0  0  0  0  0  0  0  0  0
   -3.2963   -2.9264    0.7030 C   0  0  0  0  0  0  0  0  0  0  0  0
   -3.9802   -2.2508    1.2223 H   0  0  0  0  0  0  0  0  0  0  0  0
   -3.6144   -3.0271   -0.3373 H   0  0  0  0  0  0  0  0  0  0  0  0
   -1.8830   -2.3783    0.7608 C   0  0  0  0  0  0  0  0  0  0  0  0
   -0.9923   -3.0372    1.2742 O   0  0  0  0  0  0  0  0  0  0  0  0
   -1.6114   -1.1305    0.2408 N   0  0  0  0  0  0  0  0  0  0  0  0
   -2.4001   -0.5738   -0.0859 H   0  0  0  0  0  0  0  0  0  0  0  0
   -0.3158   -0.4454    0.3473 C   0  0  1  0  0  0  0  0  0  0  0  0
    0.2893   -0.8879    1.1451 H   0  0  0  0  0  0  0  0  0  0  0  0
    0.4242   -0.6541   -0.9950 C   0  0  0  0  0  0  0  0  0  0  0  0
    0.7394   -1.7028   -1.0237 H   0  0  0  0  0  0  0  0  0  0  0  0
   -0.2917   -0.5129   -1.8121 H   0  0  0  0  0  0  0  0  0  0  0  0
    1.6516    0.2479   -1.2842 C   0  0  0  0  0  0  0  0  0  0  0  0
    2.2993    0.2787   -0.4017 H   0  0  0  0  0  0  0  0  0  0  0  0
    2.4339   -0.3751   -2.4500 C   0  0  0  0  0  0  0  0  0  0  0  0
    1.8146   -0.4196   -3.3519 H   0  0  0  0  0  0  0  0  0  0  0  0
    3.3292    0.2144   -2.6714 H   0  0  0  0  0  0  0  0  0  0  0  0
    2.7541   -1.3911   -2.1981 H   0  0  0  0  0  0  0  0  0  0  0  0
    1.2904    1.6856   -1.7049 C   0  0  0  0  0  0  0  0  0  0  0  0
    0.9843    2.2918   -0.8514 H   0  0  0  0  0  0  0  0  0  0  0  0
    2.1567    2.1828   -2.1523 H   0  0  0  0  0  0  0  0  0  0  0  0
    0.4799    1.6811   -2.4405 H   0  0  0  0  0  0  0  0  0  0  0  0
   -0.5763    1.0202    0.7442 C   0  0  0  0  0  0  0  0  0  0  0  0
   -1.5112    1.6362    0.2424 O   0  0  0  0  0  0  0  0  0  0  0  0
    0.1820    1.6228    1.7317 N   0  0  0  0  0  0  0  0  0  0  0  0
    0.9108    1.0672    2.1704 H   0  0  0  0  0  0  0  0  0  0  0  0
   -0.0521    2.9813    2.2043 C   0  0  0  0  0  0  0  0  0  0  0  0
   -1.0634    3.0762    2.6135 H   0  0  0  0  0  0  0  0  0  0  0  0
    0.6643    3.2363    2.9910 H   0  0  0  0  0  0  0  0  0  0  0  0
    0.0654    3.6971    1.3841 H   0  0  0  0  0  0  0  0  0  0  0  0
  1  2  1  0  0  0  0
  2  3  1  0  0  0  0
  2  4  1  0  0  0  0
  2  5  1  0  0  0  0
  5  6  2  0  0  0  0
  5  7  1  0  0  0  0
  7  8  1  0  0  0  0
  7  9  1  0  0  0  0
  9 10  1  0  0  0  0
  9 11  1  0  0  0  0
  9 24  1  0  0  0  0
 11 12  1  0  0  0  0
 11 13  1  0  0  0  0
 11 14  1  0  0  0  0
 14 15  1  0  0  0  0
 14 16  1  0  0  0  0
 14 20  1  0  0  0  0
 16 17  1  0  0  0  0
 16 18  1  0  0  0  0
 16 19  1  0  0  0  0
 20 21  1  0  0  0  0
 20 22  1  0  0  0  0
 20 23  1  0  0  0  0
 24 25  2  0  0  0  0
 24 26  1  0  0  0  0
 26 27  1  0  0  0  0
 26 28  1  0  0  0  0
 28 29  1  0  0  0  0
 28 30  1  0  0  0  0
 28 31  1  0  0  0  0
M  END
$$$$
